data_PCOD8295762
_publ_section_title
;
Structure prediction by ZEFSAII (Michael W. Deem and Ramdas Pophale) SiO2 
 PCOD8295762
Probable space group: I B C A 
;
_chemical_formula_sum "Si O2"
_cell_formula_units_Z 104
_cell_length_a 17.038205
_cell_length_b 19.473346
_cell_length_c 15.806039
_cell_angle_alpha 90.000000
_cell_angle_beta 90.000000
_cell_angle_gamma 90.000000
_cell_volume 5244.299292
_symmetry_space_group_name_H-M "I B C A "
_symmetry_group_IT_number 73
_symmetry_cell_setting 'orthorhombic'
loop_
_space_group_symop_operation_xyz
x,y,z
-x,1/2-y,z
x,-y,1/2-z
1/2-x,y,-z
-x,-y,-z
x,1/2+y,-z
-x,y,1/2+z
1/2+x,-y,z
1/2+x,1/2+y,1/2+z
1/2-x,-y,1/2+z
1/2+x,1/2-y,-z
-x,1/2+y,1/2-z
1/2-x,1/2-y,1/2-z
1/2+x,y,1/2-z
1/2-x,1/2+y,z
x,1/2-y,1/2+z
loop_
_atom_site_type_symbol
_atom_site_label
_atom_site_fract_x
_atom_site_fract_y
_atom_site_fract_z
Si Si1 0.250000 0.644160 0.000000
Si Si2 0.558983 0.089480 0.052521
Si Si3 0.741708 0.746525 0.851573
Si Si4 0.573564 0.201560 0.171387
Si Si5 0.554231 0.831310 0.144345
Si Si6 0.396902 0.442023 0.469343
Si Si7 0.894660 0.195649 0.085796
O O1 0.259371 0.687132 0.088087
O O2 0.322639 0.592533 0.986670
O O3 0.555615 0.122674 0.145599
O O4 0.615570 0.023144 0.047341
O O5 0.471100 0.068871 0.029728
O O6 0.595334 0.151487 0.998079
O O7 0.750000 0.750000 0.750000
O O8 0.652720 0.727052 0.874864
O O9 0.805354 0.688824 0.880469
O O10 0.500000 0.250000 0.148255
O O11 0.592196 0.198339 0.270786
O O12 0.585780 0.906444 0.121306
O O13 0.459217 0.833261 0.153229
O O14 0.582436 0.776609 0.071505
#
# Coordination Sequence:
#
# PCOD8295762 Si02
#       7
#     8  16  16  16  16  16  16
#     4  12  22  36  64  84 122 162 194 248 306 352
#     4  10  24  38  60  84 117 157 200 241 290 365
#     4  12  22  36  58  96 119 148 202 256 298 349
#     4  12  22  35  58  92 116 151 200 249 296 351
#     4  10  19  38  60  82 120 156 187 243 305 346
#     4  10  22  41  57  84 119 159 196 235 300 362
#     4  10  19  37  58  84 114 153 188 246 298 338
#
# _framework density 19.831057000000001
#
# number of rings (size 3 to 8) (size 9 to 14) (size 15 to 20)
#    0.000    1.231    4.615    1.846    4.308    1.846 
#    0.000    0.000    0.000    4.615    0.000    0.000 
#    0.000    0.000    0.000    0.000    0.000    0.000 
#
# Total GULP energy -644190.943027 kJ/mol
# GULP energy per Si atom -12388.287366 kJ/mol
# Density = 1.978592 g / cm^3
# Si number density = 19.831057 Si / 1000 Ang^3
#
#
#
# Elastic Constant Matrix: (Units=GPa)
#
#
# Indices 1 2 3 4 5 6 
#
# 1 134.9662 41.9054 20.1161 0.0000 0.0000 0.0000
# 2 41.9054 138.2064 52.6201 0.0000 0.0000 0.0000
# 3 20.1161 52.6201 62.6990 0.0000 0.0000 0.0000
# 4 0.0000 0.0000 0.0000 15.3614 0.0000 0.0000
# 5 0.0000 0.0000 0.0000 0.0000 20.8488 0.0000
# 6 0.0000 0.0000 0.0000 0.0000 0.0000 30.6292
#
#
#
# Elastic Compliance Matrix: (Units=1/GPa)
#
#
# Indices 1 2 3 4 5 6 
#
# 1 0.008207 -0.002184 -0.000800 0.000000 0.000000 0.000000
# 2 -0.002184 0.011214 -0.008711 0.000000 0.000000 0.000000
# 3 -0.000800 -0.008711 0.023517 0.000000 0.000000 0.000000
# 4 0.000000 0.000000 0.000000 0.065098 0.000000 0.000000
# 5 0.000000 0.000000 0.000000 0.000000 0.047964 0.000000
# 6 0.000000 0.000000 0.000000 0.000000 0.000000 0.032649
#
#
# Mechanical properties :
#
#
# Convention : Reuss Voigt Hill
#
# Bulk Modulus (GPa) = 51.15720 62.79498 56.97609
# Shear Modulus (GPa) = 22.87762 28.11655 25.49709
#
# Velocity S-wave (km/s) = 3.40019 3.76946 3.58958
# Velocity P-wave (km/s) = 6.42398 7.11890 6.78035
#
# Compressibility (1/GPa) = 0.01954759
#
# Stress axis : x y z
#
# Youngs Moduli (GPa) = 121.85427 89.17269 42.52304
#
# Poissons Ratio (x) = 0.19471 0.03404
# Poissons Ratio (y) = 0.26607 0.37042
# Poissons Ratio (z) = 0.09753 0.77678
#
# Static dielectric constant tensor:
#      x y z
#    x 3.916480 0.000000 0.000000 
#    y 0.000000 3.618950 0.000000 
#    z 0.000000 0.000000 3.488550 
# 
# 
# High freq. dielectric constant tensor:
#      x y z
#    x 1.793430 0.000000 0.000000 
#    y 0.000000 1.753340 0.000000 
#    z 0.000000 0.000000 1.757670 
# 
# From -- ./inp_files/22623.got.cif
#   From: 2010.03.12/outbox.cif.g09.slc.cpg/sg73_12_cif.got.tgz:22623.got - 2010.04.16 15:25:48.
