data_PCOD8295490
_publ_section_title
;
Structure prediction by ZEFSAII (Michael W. Deem and Ramdas Pophale) SiO2 
 PCOD8295490
Probable space group: I B A M
;
_chemical_formula_sum "Si O2"
_cell_formula_units_Z 64
_cell_length_a 14.736728
_cell_length_b 8.050957
_cell_length_c 21.910362
_cell_angle_alpha 90.000000
_cell_angle_beta 90.000000
_cell_angle_gamma 90.000000
_cell_volume 2599.549717
_symmetry_space_group_name_H-M "I B A M"
_symmetry_group_IT_number 72
_symmetry_cell_setting 'orthorhombic'
loop_
_space_group_symop_operation_xyz
x,y,z
-x,-y,z
x,-y,1/2-z
-x,y,1/2-z
-x,-y,-z
x,y,-z
-x,y,1/2+z
x,-y,1/2+z
1/2+x,1/2+y,1/2+z
1/2-x,1/2-y,1/2+z
1/2+x,1/2-y,-z
1/2-x,1/2+y,-z
1/2-x,1/2-y,1/2-z
1/2+x,1/2+y,1/2-z
1/2-x,1/2+y,z
1/2+x,1/2-y,z
loop_
_atom_site_type_symbol
_atom_site_label
_atom_site_fract_x
_atom_site_fract_y
_atom_site_fract_z
Si Si1 0.702741 0.837479 0.070144
Si Si2 0.374212 0.831144 0.121669
Si Si3 0.146404 0.803503 0.750972
Si Si4 0.048904 0.177251 0.373753
O O1 0.803288 0.798670 0.092989
O O2 0.636095 0.678033 0.080260
O O3 0.661383 0.984429 0.111307
O O4 0.706216 0.892891 0.000000
O O5 0.395265 0.785297 0.192058
O O6 0.475107 0.801821 0.094831
O O7 0.250000 0.750000 0.750000
O O8 0.089121 0.749965 0.810146
O O9 0.140060 0.000000 0.750000
O O10 0.000000 0.000000 0.366261
#
# Coordination Sequence:
#
# PCOD8295490 Si02
#       4
#    16  16  16  16
#     4  12  28  50  75 109 152 210 267 314 373 449
#     4  12  25  46  75 107 153 197 252 320 387 451
#     4  12  24  45  76 111 152 190 240 314 392 470
#     4  12  26  46  76 112 151 198 251 316 389 459
#
# _framework density 24.619648000000002
#
# number of rings (size 3 to 8) (size 9 to 14) (size 15 to 20)
#    0.000    0.000    5.000    5.250    0.000    3.500 
#    0.000    2.500    0.000    0.000    0.000    0.000 
#    0.000    0.000    0.000    0.000    0.000    0.000 
#
# Total GULP energy -396603.674320 kJ/mol
# GULP energy per Si atom -12393.864822 kJ/mol
# Density = 2.456361 g / cm^3
# Si number density = 24.619648 Si / 1000 Ang^3
#
#
#
# Elastic Constant Matrix: (Units=GPa)
#
#
# Indices 1 2 3 4 5 6 
#
# 1 172.1533 28.3063 32.8379 0.0000 0.0000 0.0000
# 2 28.3063 90.3493 36.8742 0.0000 0.0000 0.0000
# 3 32.8379 36.8742 112.0619 0.0000 0.0000 0.0000
# 4 0.0000 0.0000 0.0000 26.6457 0.0000 0.0000
# 5 0.0000 0.0000 0.0000 0.0000 16.5727 0.0000
# 6 0.0000 0.0000 0.0000 0.0000 0.0000 42.9940
#
#
#
# Elastic Compliance Matrix: (Units=1/GPa)
#
#
# Indices 1 2 3 4 5 6 
#
# 1 0.006305 -0.001411 -0.001383 0.000000 0.000000 0.000000
# 2 -0.001411 0.013101 -0.003897 0.000000 0.000000 0.000000
# 3 -0.001383 -0.003897 0.010611 0.000000 0.000000 0.000000
# 4 0.000000 0.000000 0.000000 0.037529 0.000000 0.000000
# 5 0.000000 0.000000 0.000000 0.000000 0.060340 0.000000
# 6 0.000000 0.000000 0.000000 0.000000 0.000000 0.023259
#
#
# Mechanical properties :
#
#
# Convention : Reuss Voigt Hill
#
# Bulk Modulus (GPa) = 60.11777 63.40013 61.75895
# Shear Modulus (GPa) = 29.39915 35.67890 32.53903
#
# Velocity S-wave (km/s) = 3.45937 3.81097 3.63942
# Velocity P-wave (km/s) = 6.35830 6.72104 6.54219
#
# Compressibility (1/GPa) = 0.01663402
#
# Stress axis : x y z
#
# Youngs Moduli (GPa) = 158.61487 76.33136 94.23779
#
# Poissons Ratio (x) = 0.10768 0.13036
# Poissons Ratio (y) = 0.22375 0.36729
# Poissons Ratio (z) = 0.21941 0.29750
#
# Static dielectric constant tensor:
#      x y z
#    x 5.346400 0.000000 0.000000 
#    y 0.000000 3.884050 0.000000 
#    z 0.000000 0.000000 5.122830 
# 
# 
# High freq. dielectric constant tensor:
#      x y z
#    x 2.017630 0.000000 0.000000 
#    y 0.000000 1.975670 0.000000 
#    z 0.000000 0.000000 1.960480 
# 
# From -- ./inp_files/43932.got.cif
#   From: 2010.03.12/outbox.cif.g09.slc.cpg/sg72_22_cif.got.tgz:43932.got - 2010.04.16 14:54:00.
