data_PCOD8295518
_publ_section_title
;
Structure prediction by ZEFSAII (Michael W. Deem and Ramdas Pophale) SiO2 
 PCOD8295518
Probable space group: I B C A 
;
_chemical_formula_sum "Si O2"
_cell_formula_units_Z 96
_cell_length_a 15.997131
_cell_length_b 18.450588
_cell_length_c 14.567884
_cell_angle_alpha 90.000000
_cell_angle_beta 90.000000
_cell_angle_gamma 90.000000
_cell_volume 4299.805264
_symmetry_space_group_name_H-M "I B C A "
_symmetry_group_IT_number 73
_symmetry_cell_setting 'orthorhombic'
loop_
_space_group_symop_operation_xyz
x,y,z
-x,1/2-y,z
x,-y,1/2-z
1/2-x,y,-z
-x,-y,-z
x,1/2+y,-z
-x,y,1/2+z
1/2+x,-y,z
1/2+x,1/2+y,1/2+z
1/2-x,-y,1/2+z
1/2+x,1/2-y,-z
-x,1/2+y,1/2-z
1/2-x,1/2-y,1/2-z
1/2+x,y,1/2-z
1/2-x,1/2+y,z
x,1/2-y,1/2+z
loop_
_atom_site_type_symbol
_atom_site_label
_atom_site_fract_x
_atom_site_fract_y
_atom_site_fract_z
Si Si1 0.500000 0.750000 0.634160
Si Si2 0.429336 0.356391 0.722980
Si Si3 0.791708 0.262717 0.847591
Si Si4 0.209060 0.997123 0.408776
Si Si5 0.160415 0.500000 0.250000
Si Si6 0.885587 0.126384 0.822793
Si Si7 0.643077 0.653289 0.608505
O O1 0.437094 0.703823 0.697420
O O2 0.557288 0.693665 0.575514
O O3 0.360140 0.326820 0.653059
O O4 0.399155 0.431274 0.769055
O O5 0.514860 0.366601 0.666397
O O6 0.750000 0.250000 0.750000
O O7 0.836768 0.188712 0.880409
O O8 0.718408 0.290860 0.914829
O O9 0.250000 0.031440 0.500000
O O10 0.282966 0.981734 0.337360
O O11 0.160312 0.923592 0.440004
O O12 0.141287 0.049882 0.363805
O O13 0.862148 0.133490 0.716289
#
# Coordination Sequence:
#
# PCOD8295518 Si02
#       7
#     8  16  16  16   8  16  16
#     4  10  20  32  64 102 124 162 220 274 336 390
#     4  11  19  33  62 100 124 167 216 273 332 404
#     4  10  15  32  59  92 124 159 215 264 321 396
#     4  12  25  43  63  93 133 177 227 273 336 412
#     4  12  24  38  68  94 124 174 222 264 346 408
#     4  10  20  35  62  94 127 165 216 272 333 395
#     4  10  19  36  63  94 126 164 217 272 326 400
#
# _framework density 22.326592999999999
#
# number of rings (size 3 to 8) (size 9 to 14) (size 15 to 20)
#    0.000    1.333    8.333    1.000    4.667    0.000 
#    0.000    1.667    0.000    1.000    0.000    0.000 
#    0.000    0.000    0.000    0.000    0.000    0.000 
#
# Total GULP energy -595000.303360 kJ/mol
# GULP energy per Si atom -12395.839653 kJ/mol
# Density = 2.227578 g / cm^3
# Si number density = 22.326593 Si / 1000 Ang^3
#
#
#
# Elastic Constant Matrix: (Units=GPa)
#
#
# Indices 1 2 3 4 5 6 
#
# 1 148.9861 59.1398 9.6389 0.0000 0.0000 0.0000
# 2 59.1398 147.4900 -0.6928 0.0000 0.0000 0.0000
# 3 9.6389 -0.6928 36.1787 0.0000 0.0000 0.0000
# 4 0.0000 0.0000 0.0000 13.6574 0.0000 0.0000
# 5 0.0000 0.0000 0.0000 0.0000 4.4814 0.0000
# 6 0.0000 0.0000 0.0000 0.0000 0.0000 51.2624
#
#
#
# Elastic Compliance Matrix: (Units=1/GPa)
#
#
# Indices 1 2 3 4 5 6 
#
# 1 0.008160 -0.003282 -0.002237 0.000000 0.000000 0.000000
# 2 -0.003282 0.008101 0.001030 0.000000 0.000000 0.000000
# 3 -0.002237 0.001030 0.028256 0.000000 0.000000 0.000000
# 4 0.000000 0.000000 0.000000 0.073221 0.000000 0.000000
# 5 0.000000 0.000000 0.000000 0.000000 0.223143 0.000000
# 6 0.000000 0.000000 0.000000 0.000000 0.000000 0.019507
#
#
# Mechanical properties :
#
#
# Convention : Reuss Voigt Hill
#
# Bulk Modulus (GPa) = 28.13889 52.09185 40.11537
# Shear Modulus (GPa) = 13.11604 31.51817 22.31710
#
# Velocity S-wave (km/s) = 2.42639 3.76132 3.16504
# Velocity P-wave (km/s) = 4.52554 6.49967 5.60028
#
# Compressibility (1/GPa) = 0.03553800
#
# Stress axis : x y z
#
# Youngs Moduli (GPa) = 122.55414 123.44025 35.39039
#
# Poissons Ratio (x) = 0.40517 0.07916
# Poissons Ratio (y) = 0.40226 -0.03644
# Poissons Ratio (z) = 0.27413 -0.12710
#
# Static dielectric constant tensor:
#      x y z
#    x 4.359850 0.000000 0.000000 
#    y 0.000000 4.356620 0.000000 
#    z 0.000000 0.000000 3.325020 
# 
# 
# High freq. dielectric constant tensor:
#      x y z
#    x 1.896540 0.000000 0.000000 
#    y 0.000000 1.897910 0.000000 
#    z 0.000000 0.000000 1.813560 
# 
# From -- ./inp_files/22570.got.cif
#   From: 2010.03.12/outbox.cif.g09.slc.cpg/sg73_12_cif.got.tgz:22570.got - 2010.04.16 15:25:48.
