data_PCOD8295987
_publ_section_title
;
Structure prediction by ZEFSAII (Michael W. Deem and Ramdas Pophale) SiO2 
 PCOD8295987
Probable space group: I B C A 
;
_chemical_formula_sum "Si O2"
_cell_formula_units_Z 104
_cell_length_a 14.947997
_cell_length_b 16.864061
_cell_length_c 20.267835
_cell_angle_alpha 90.000000
_cell_angle_beta 90.000000
_cell_angle_gamma 90.000000
_cell_volume 5109.195565
_symmetry_space_group_name_H-M "I B C A "
_symmetry_group_IT_number 73
_symmetry_cell_setting 'orthorhombic'
loop_
_space_group_symop_operation_xyz
x,y,z
-x,1/2-y,z
x,-y,1/2-z
1/2-x,y,-z
-x,-y,-z
x,1/2+y,-z
-x,y,1/2+z
1/2+x,-y,z
1/2+x,1/2+y,1/2+z
1/2-x,-y,1/2+z
1/2+x,1/2-y,-z
-x,1/2+y,1/2-z
1/2-x,1/2-y,1/2-z
1/2+x,y,1/2-z
1/2-x,1/2+y,z
x,1/2-y,1/2+z
loop_
_atom_site_type_symbol
_atom_site_label
_atom_site_fract_x
_atom_site_fract_y
_atom_site_fract_z
Si Si1 0.083842 0.644871 0.289186
Si Si2 0.664152 0.406674 0.045342
Si Si3 0.750000 0.670885 0.000000
Si Si4 0.595498 0.286275 0.958114
Si Si5 0.286001 0.414013 0.684512
Si Si6 0.115078 0.177788 0.190526
Si Si7 0.810611 0.938540 0.393719
O O1 0.130145 0.589923 0.234265
O O2 0.115487 0.735099 0.277301
O O3 0.114937 0.618515 0.362227
O O4 0.976862 0.634976 0.287657
O O5 0.683985 0.368496 0.117476
O O6 0.641831 0.500345 0.054453
O O7 0.750000 0.392775 0.000000
O O8 0.584251 0.360193 0.008862
O O9 0.661737 0.723636 0.007369
O O10 0.759747 0.615312 0.065556
O O11 0.500000 0.250000 0.944846
O O12 0.629072 0.317612 0.887890
O O13 0.198539 0.373756 0.717492
O O14 0.264823 0.506705 0.664353
#
# Coordination Sequence:
#
# PCOD8295987 Si02
#       7
#    16  16   8  16  16  16  16
#     4  11  22  41  63  92 128 169 215 265 318 389
#     4  10  20  39  64  87 126 165 207 261 327 374
#     4  12  20  38  66  92 128 166 214 266 320 396
#     4  12  21  40  64  94 128 166 209 267 320 383
#     4  10  22  41  64  86 129 171 209 268 324 381
#     4  11  21  40  66  91 121 171 217 257 322 387
#     4  10  21  38  61  94 124 170 208 260 326 380
#
# _framework density 20.355454999999999
#
# number of rings (size 3 to 8) (size 9 to 14) (size 15 to 20)
#    0.923    0.308    6.154    0.923    0.000    0.000 
#    5.538    4.615    0.000    0.000    0.000    0.000 
#    0.000    0.000    0.000    0.000    0.000    0.000 
#
# Total GULP energy -644318.650200 kJ/mol
# GULP energy per Si atom -12390.743273 kJ/mol
# Density = 2.030912 g / cm^3
# Si number density = 20.355455 Si / 1000 Ang^3
#
#
#
# Elastic Constant Matrix: (Units=GPa)
#
#
# Indices 1 2 3 4 5 6 
#
# 1 77.9243 33.4829 28.8564 0.0000 0.0000 0.0000
# 2 33.4829 82.2615 22.5190 0.0000 0.0000 0.0000
# 3 28.8564 22.5190 86.3457 0.0000 0.0000 0.0000
# 4 0.0000 0.0000 0.0000 30.2724 0.0000 0.0000
# 5 0.0000 0.0000 0.0000 0.0000 28.5033 0.0000
# 6 0.0000 0.0000 0.0000 0.0000 0.0000 17.3975
#
#
#
# Elastic Compliance Matrix: (Units=1/GPa)
#
#
# Indices 1 2 3 4 5 6 
#
# 1 0.016818 -0.005715 -0.004130 0.000000 0.000000 0.000000
# 2 -0.005715 0.015033 -0.002011 0.000000 0.000000 0.000000
# 3 -0.004130 -0.002011 0.013486 0.000000 0.000000 0.000000
# 4 0.000000 0.000000 0.000000 0.033033 0.000000 0.000000
# 5 0.000000 0.000000 0.000000 0.000000 0.035084 0.000000
# 6 0.000000 0.000000 0.000000 0.000000 0.000000 0.057480
#
#
# Mechanical properties :
#
#
# Convention : Reuss Voigt Hill
#
# Bulk Modulus (GPa) = 46.24139 46.24979 46.24559
# Shear Modulus (GPa) = 24.77046 26.01284 25.39165
#
# Velocity S-wave (km/s) = 3.49219 3.57869 3.53570
# Velocity P-wave (km/s) = 6.24714 6.31241 6.27986
#
# Compressibility (1/GPa) = 0.02162565
#
# Stress axis : x y z
#
# Youngs Moduli (GPa) = 59.46030 66.52085 74.15098
#
# Poissons Ratio (x) = 0.38015 0.30625
# Poissons Ratio (y) = 0.33980 0.14910
# Poissons Ratio (z) = 0.24557 0.13375
#
# Static dielectric constant tensor:
#      x y z
#    x 3.429650 0.000000 0.000000 
#    y 0.000000 3.830300 0.000000 
#    z 0.000000 0.000000 3.751690 
# 
# 
# High freq. dielectric constant tensor:
#      x y z
#    x 1.761210 0.000000 0.000000 
#    y 0.000000 1.803200 0.000000 
#    z 0.000000 0.000000 1.795210 
# 
# From -- ./inp_files/26134.got.cif
#   From: 2010.03.12/outbox.cif.g09.slc.cpg/sg73_14_cif.got.tgz:26134.got - 2010.04.16 15:25:48.
