data_PCOD8295480
_publ_section_title
;
Structure prediction by ZEFSAII (Michael W. Deem and Ramdas Pophale) SiO2 
 PCOD8295480
Probable space group: I B A M
;
_chemical_formula_sum "Si O2"
_cell_formula_units_Z 68
_cell_length_a 5.049684
_cell_length_b 30.015257
_cell_length_c 19.233239
_cell_angle_alpha 90.000000
_cell_angle_beta 90.000000
_cell_angle_gamma 90.000000
_cell_volume 2915.135164
_symmetry_space_group_name_H-M "I B A M"
_symmetry_group_IT_number 72
_symmetry_cell_setting 'orthorhombic'
loop_
_space_group_symop_operation_xyz
x,y,z
-x,-y,z
x,-y,1/2-z
-x,y,1/2-z
-x,-y,-z
x,y,-z
-x,y,1/2+z
x,-y,1/2+z
1/2+x,1/2+y,1/2+z
1/2-x,1/2-y,1/2+z
1/2+x,1/2-y,-z
1/2-x,1/2+y,-z
1/2-x,1/2-y,1/2-z
1/2+x,1/2+y,1/2-z
1/2-x,1/2+y,z
1/2+x,1/2-y,z
loop_
_atom_site_type_symbol
_atom_site_label
_atom_site_fract_x
_atom_site_fract_y
_atom_site_fract_z
Si Si1 0.500000 0.831076 0.750000
Si Si2 0.500000 0.000000 0.250000
Si Si3 0.390293 0.778879 0.615968
Si Si4 0.675312 0.593471 0.000000
Si Si5 0.632495 0.454637 0.640849
Si Si6 0.500000 0.609563 0.250000
Si Si7 0.833590 0.348529 0.000000
O O1 0.379220 0.798605 0.692540
O O2 0.746163 0.861526 0.726525
O O3 0.344440 0.966200 0.200229
O O4 0.687048 0.761550 0.602823
O O5 0.296744 0.818767 0.567464
O O6 0.744611 0.565707 0.930456
O O7 0.371856 0.610295 0.000000
O O8 0.865950 0.635332 0.000000
O O9 0.500000 0.500000 0.616279
O O10 0.434219 0.420447 0.681060
#
# Coordination Sequence:
#
# PCOD8295480 Si02
#       7
#     8   4  16   8  16   8   8
#     4  12  25  41  67 104 139 178 235 290 359 407
#     4  12  24  46  76  98 146 180 260 280 368 432
#     4  12  24  44  71 100 138 184 232 288 347 431
#     4  12  29  46  74 104 151 179 242 306 356 417
#     4  12  26  46  71 106 138 197 242 296 355 432
#     4  12  23  43  68  98 142 188 229 299 348 427
#     4  12  26  49  68 108 137 191 230 292 367 427
#
# _framework density 23.326535
#
# number of rings (size 3 to 8) (size 9 to 14) (size 15 to 20)
#    0.000    0.000    2.353    8.118    3.294    0.471 
#    0.000    0.000    0.000    0.000    0.000    0.000 
#    0.000    0.000    0.000    0.000    0.000    0.000 
#
# Total GULP energy -421586.881190 kJ/mol
# GULP energy per Si atom -12399.614153 kJ/mol
# Density = 2.327344 g / cm^3
# Si number density = 23.326535 Si / 1000 Ang^3
#
#
#
# Elastic Constant Matrix: (Units=GPa)
#
#
# Indices 1 2 3 4 5 6 
#
# 1 95.2461 33.9973 23.6263 0.0000 0.0000 0.0000
# 2 33.9973 103.6813 49.2872 0.0000 0.0000 0.0000
# 3 23.6263 49.2872 171.7424 0.0000 0.0000 0.0000
# 4 0.0000 0.0000 0.0000 -52.5858 0.0000 0.0000
# 5 0.0000 0.0000 0.0000 0.0000 17.4866 0.0000
# 6 0.0000 0.0000 0.0000 0.0000 0.0000 30.9785
#
#
#
# Elastic Compliance Matrix: (Units=1/GPa)
#
#
# Indices 1 2 3 4 5 6 
#
# 1 0.011944 -0.003631 -0.000601 0.000000 0.000000 0.000000
# 2 -0.003631 0.012272 -0.003022 0.000000 0.000000 0.000000
# 3 -0.000601 -0.003022 0.006773 0.000000 0.000000 0.000000
# 4 0.000000 0.000000 0.000000 -0.019017 0.000000 0.000000
# 5 0.000000 0.000000 0.000000 0.000000 0.057187 0.000000
# 6 0.000000 0.000000 0.000000 0.000000 0.000000 0.032280
#
#
# Mechanical properties :
#
#
# Convention : Reuss Voigt Hill
#
# Bulk Modulus (GPa) = 60.67787 64.94348 62.81067
# Shear Modulus (GPa) = 41.17186 16.75979 28.96582
#
# Velocity S-wave (km/s) = 4.20577 2.68337 3.52768
# Velocity P-wave (km/s) = 7.04653 6.12389 6.60135
#
# Compressibility (1/GPa) = 0.01648047
#
# Stress axis : x y z
#
# Youngs Moduli (GPa) = 83.72255 81.48455 147.65004
#
# Poissons Ratio (x) = 0.29585 0.08876
# Poissons Ratio (y) = 0.30398 0.44627
# Poissons Ratio (z) = 0.05033 0.24628
#
# Static dielectric constant tensor:
#      x y z
#    x 4.275720 0.000000 0.000000 
#    y 0.000000 4.516300 0.000000 
#    z 0.000000 0.000000 4.195650 
# 
# 
# High freq. dielectric constant tensor:
#      x y z
#    x 1.915320 0.000000 0.000000 
#    y 0.000000 1.943460 0.000000 
#    z 0.000000 0.000000 1.933220 
# 
# From -- ./inp_files/34875.got.cif
#   From: 2010.03.12/outbox.cif.g09.slc.cpg/sg72_18_cif.got.tgz:34875.got - 2010.04.16 14:54:00.
