data_PCOD8295047
_publ_section_title
;
Structure prediction by ZEFSAII (Michael W. Deem and Ramdas Pophale) SiO2 
 PCOD8295047
Probable space group: I B A M
;
_chemical_formula_sum "Si O2"
_cell_formula_units_Z 116
_cell_length_a 12.818234
_cell_length_b 19.296432
_cell_length_c 22.100621
_cell_angle_alpha 90.000000
_cell_angle_beta 90.000000
_cell_angle_gamma 90.000000
_cell_volume 5466.504196
_symmetry_space_group_name_H-M "I B A M"
_symmetry_group_IT_number 72
_symmetry_cell_setting 'orthorhombic'
loop_
_space_group_symop_operation_xyz
x,y,z
-x,-y,z
x,-y,1/2-z
-x,y,1/2-z
-x,-y,-z
x,y,-z
-x,y,1/2+z
x,-y,1/2+z
1/2+x,1/2+y,1/2+z
1/2-x,1/2-y,1/2+z
1/2+x,1/2-y,-z
1/2-x,1/2+y,-z
1/2-x,1/2-y,1/2-z
1/2+x,1/2+y,1/2-z
1/2-x,1/2+y,z
1/2+x,1/2-y,z
loop_
_atom_site_type_symbol
_atom_site_label
_atom_site_fract_x
_atom_site_fract_y
_atom_site_fract_z
Si Si1 0.257438 0.916885 0.357257
Si Si2 0.234909 0.201903 0.432742
Si Si3 0.984418 0.371788 0.818841
Si Si4 0.500000 0.500000 0.750000
Si Si5 0.846378 0.109346 0.767853
Si Si6 0.616812 0.325146 0.068239
Si Si7 0.553606 0.719377 0.155412
Si Si8 0.690432 0.075242 0.864774
O O1 0.369132 0.886393 0.341406
O O2 0.176481 0.900557 0.302904
O O3 0.208132 0.879711 0.415467
O O4 0.272637 0.997008 0.374043
O O5 0.186865 0.204513 0.500000
O O6 0.339529 0.247130 0.428867
O O7 0.153209 0.235288 0.386404
O O8 0.263647 0.122042 0.418575
O O9 0.065555 0.415829 0.859681
O O10 0.000000 0.395819 0.750000
O O11 0.004557 0.289603 0.825313
O O12 0.575096 0.451325 0.709253
O O13 0.905503 0.181206 0.783416
O O14 0.736690 0.104377 0.801893
O O15 0.522065 0.329983 0.115915
O O16 0.578374 0.342069 0.000000
#
# Coordination Sequence:
#
# PCOD8295047 Si02
#       8
#    16  16  16   4  16  16  16  16
#     4  12  24  43  65  98 138 173 221 271 329 402
#     4  10  22  43  69  93 128 172 223 279 329 387
#     4  12  25  39  66  99 139 174 218 267 333 399
#     4  12  20  40  56  90 130 172 206 260 328 380
#     4  11  24  38  65  93 132 174 215 265 330 395
#     4  11  24  43  68  95 130 173 223 282 331 385
#     4  11  24  42  66  99 129 171 223 274 333 394
#     4  11  23  43  64  96 133 179 219 264 330 396
#
# _framework density 21.220143
#
# number of rings (size 3 to 8) (size 9 to 14) (size 15 to 20)
#    0.000    0.828    5.517    1.655    2.897    1.655 
#    0.000    0.690    0.000    4.138    0.000    0.000 
#    0.000    0.000    0.000    0.000    0.000    0.000 
#
# Total GULP energy -719174.273602 kJ/mol
# GULP energy per Si atom -12399.556441 kJ/mol
# Density = 2.117185 g / cm^3
# Si number density = 21.220143 Si / 1000 Ang^3
#
#
#
# Elastic Constant Matrix: (Units=GPa)
#
#
# Indices 1 2 3 4 5 6 
#
# 1 91.7690 18.5317 15.1256 0.0000 0.0000 0.0000
# 2 18.5317 119.9817 33.7533 0.0000 0.0000 0.0000
# 3 15.1256 33.7533 55.2123 0.0000 0.0000 0.0000
# 4 0.0000 0.0000 0.0000 18.5864 0.0000 0.0000
# 5 0.0000 0.0000 0.0000 0.0000 24.1781 0.0000
# 6 0.0000 0.0000 0.0000 0.0000 0.0000 35.7975
#
#
#
# Elastic Compliance Matrix: (Units=1/GPa)
#
#
# Indices 1 2 3 4 5 6 
#
# 1 0.011526 -0.001077 -0.002499 0.000000 0.000000 0.000000
# 2 -0.001077 0.010166 -0.005920 0.000000 0.000000 0.000000
# 3 -0.002499 -0.005920 0.022416 0.000000 0.000000 0.000000
# 4 0.000000 0.000000 0.000000 0.053803 0.000000 0.000000
# 5 0.000000 0.000000 0.000000 0.000000 0.041360 0.000000
# 6 0.000000 0.000000 0.000000 0.000000 0.000000 0.027935
#
#
# Mechanical properties :
#
#
# Convention : Reuss Voigt Hill
#
# Bulk Modulus (GPa) = 39.81571 44.64269 42.22920
# Shear Modulus (GPa) = 25.69761 29.01589 27.35675
#
# Velocity S-wave (km/s) = 3.48372 3.70181 3.59442
# Velocity P-wave (km/s) = 5.91487 6.27334 6.09674
#
# Compressibility (1/GPa) = 0.02511571
#
# Stress axis : x y z
#
# Youngs Moduli (GPa) = 86.75757 98.36325 44.61166
#
# Poissons Ratio (x) = 0.10596 0.11149
# Poissons Ratio (y) = 0.09346 0.26410
# Poissons Ratio (z) = 0.21682 0.58231
#
# Static dielectric constant tensor:
#      x y z
#    x 3.872160 0.000000 0.000000 
#    y 0.000000 3.797590 0.000000 
#    z 0.000000 0.000000 3.641820 
# 
# 
# High freq. dielectric constant tensor:
#      x y z
#    x 1.845860 0.000000 0.000000 
#    y 0.000000 1.831320 0.000000 
#    z 0.000000 0.000000 1.810030 
# 
# From -- ./inp_files/48233.got.cif
#   From: 2010.03.12/outbox.cif.g09.slc.cpg/sg72_25_cif.got.tgz:48233.got - 2010.04.16 14:54:00.
