data_PCOD8295046
_publ_section_title
;
Structure prediction by ZEFSAII (Michael W. Deem and Ramdas Pophale) SiO2 
 PCOD8295046
Probable space group: I B A M
;
_chemical_formula_sum "Si O2"
_cell_formula_units_Z 64
_cell_length_a 8.594879
_cell_length_b 11.663935
_cell_length_c 29.680789
_cell_angle_alpha 90.000000
_cell_angle_beta 90.000000
_cell_angle_gamma 90.000000
_cell_volume 2975.502362
_symmetry_space_group_name_H-M "I B A M"
_symmetry_group_IT_number 72
_symmetry_cell_setting 'orthorhombic'
loop_
_space_group_symop_operation_xyz
x,y,z
-x,-y,z
x,-y,1/2-z
-x,y,1/2-z
-x,-y,-z
x,y,-z
-x,y,1/2+z
x,-y,1/2+z
1/2+x,1/2+y,1/2+z
1/2-x,1/2-y,1/2+z
1/2+x,1/2-y,-z
1/2-x,1/2+y,-z
1/2-x,1/2-y,1/2-z
1/2+x,1/2+y,1/2-z
1/2-x,1/2+y,z
1/2+x,1/2-y,z
loop_
_atom_site_type_symbol
_atom_site_label
_atom_site_fract_x
_atom_site_fract_y
_atom_site_fract_z
Si Si1 0.956619 0.868500 0.050646
Si Si2 0.000000 0.200715 0.750000
Si Si3 0.227413 0.348998 0.809329
Si Si4 0.000000 0.500000 0.144560
Si Si5 0.666503 0.791878 0.104652
O O1 0.815999 0.853131 0.084726
O O2 0.102489 0.794846 0.067381
O O3 0.913060 0.829742 0.000000
O O4 0.000000 0.000000 0.051634
O O5 0.090553 0.280675 0.784887
O O6 0.126602 0.123047 0.723490
O O7 0.291425 0.274024 0.850144
O O8 0.152430 0.469463 0.825417
O O9 0.037392 0.610734 0.114298
#
# Coordination Sequence:
#
# PCOD8295046 Si02
#       5
#    16   8  16   8  16
#     4  11  25  44  70 102 137 177 229 286 340 410
#     4  10  22  43  67  96 138 174 231 283 336 398
#     4  11  22  43  68  98 139 177 227 280 342 408
#     4  12  24  41  75  98 136 188 222 280 345 415
#     4  12  23  46  69 101 137 181 227 279 351 411
#
# _framework density 21.508973999999998
#
# number of rings (size 3 to 8) (size 9 to 14) (size 15 to 20)
#    0.000    0.750    5.000    2.250    0.000    0.500 
#    0.000    2.500    0.000    0.000    0.000    0.000 
#    0.000    0.000    0.000    0.000    0.000    0.000 
#
# Total GULP energy -396930.962964 kJ/mol
# GULP energy per Si atom -12404.092593 kJ/mol
# Density = 2.146002 g / cm^3
# Si number density = 21.508974 Si / 1000 Ang^3
#
#
#
# Elastic Constant Matrix: (Units=GPa)
#
#
# Indices 1 2 3 4 5 6 
#
# 1 104.0262 26.9741 33.7387 0.0000 0.0000 0.0000
# 2 26.9741 92.1372 39.3400 0.0000 0.0000 0.0000
# 3 33.7387 39.3400 107.1700 0.0000 0.0000 0.0000
# 4 0.0000 0.0000 0.0000 20.8888 0.0000 0.0000
# 5 0.0000 0.0000 0.0000 0.0000 32.2766 0.0000
# 6 0.0000 0.0000 0.0000 0.0000 0.0000 46.2824
#
#
#
# Elastic Compliance Matrix: (Units=1/GPa)
#
#
# Indices 1 2 3 4 5 6 
#
# 1 0.011030 -0.002071 -0.002712 0.000000 0.000000 0.000000
# 2 -0.002071 0.013260 -0.004215 0.000000 0.000000 0.000000
# 3 -0.002712 -0.004215 0.011732 0.000000 0.000000 0.000000
# 4 0.000000 0.000000 0.000000 0.047873 0.000000 0.000000
# 5 0.000000 0.000000 0.000000 0.000000 0.030982 0.000000
# 6 0.000000 0.000000 0.000000 0.000000 0.000000 0.021606
#
#
# Mechanical properties :
#
#
# Convention : Reuss Voigt Hill
#
# Bulk Modulus (GPa) = 55.48031 55.93768 55.70899
# Shear Modulus (GPa) = 31.15511 33.44161 32.29836
#
# Velocity S-wave (km/s) = 3.81001 3.94734 3.87928
# Velocity P-wave (km/s) = 6.72346 6.84386 6.78393
#
# Compressibility (1/GPa) = 0.01802441
#
# Stress axis : x y z
#
# Youngs Moduli (GPa) = 90.66533 75.41750 85.23616
#
# Poissons Ratio (x) = 0.15619 0.23116
# Poissons Ratio (y) = 0.18777 0.35930
# Poissons Ratio (z) = 0.24589 0.31791
#
# Static dielectric constant tensor:
#      x y z
#    x 4.411080 0.000000 0.000000 
#    y 0.000000 3.721860 0.000000 
#    z 0.000000 0.000000 4.195710 
# 
# 
# High freq. dielectric constant tensor:
#      x y z
#    x 1.861830 0.000000 0.000000 
#    y 0.000000 1.835290 0.000000 
#    z 0.000000 0.000000 1.856160 
# 
# From -- ./inp_files/50644.got.cif
#   From: 2010.03.12/outbox.cif.g09.slc.cpg/sg72_26_cif.got.tgz:50644.got - 2010.04.16 14:54:00.
