data_PCOD8295964
_publ_section_title
;
Structure prediction by ZEFSAII (Michael W. Deem and Ramdas Pophale) SiO2 
 PCOD8295964
Probable space group: I B C A 
;
_chemical_formula_sum "Si O2"
_cell_formula_units_Z 112
_cell_length_a 22.984265
_cell_length_b 15.131665
_cell_length_c 14.014673
_cell_angle_alpha 90.000000
_cell_angle_beta 90.000000
_cell_angle_gamma 90.000000
_cell_volume 4874.165901
_symmetry_space_group_name_H-M "I B C A "
_symmetry_group_IT_number 73
_symmetry_cell_setting 'orthorhombic'
loop_
_space_group_symop_operation_xyz
x,y,z
-x,1/2-y,z
x,-y,1/2-z
1/2-x,y,-z
-x,-y,-z
x,1/2+y,-z
-x,y,1/2+z
1/2+x,-y,z
1/2+x,1/2+y,1/2+z
1/2-x,-y,1/2+z
1/2+x,1/2-y,-z
-x,1/2+y,1/2-z
1/2-x,1/2-y,1/2-z
1/2+x,y,1/2-z
1/2-x,1/2+y,z
x,1/2-y,1/2+z
loop_
_atom_site_type_symbol
_atom_site_label
_atom_site_fract_x
_atom_site_fract_y
_atom_site_fract_z
Si Si1 0.216457 0.818018 0.645214
Si Si2 0.551129 0.686232 0.869644
Si Si3 0.083930 0.002803 0.141061
Si Si4 0.221097 0.640637 0.343645
Si Si5 0.213497 0.523296 0.905897
Si Si6 0.852624 0.759473 0.488704
Si Si7 0.946510 0.692254 0.351076
O O1 0.230036 0.715828 0.661164
O O2 0.184110 0.852534 0.742809
O O3 0.274766 0.877489 0.633573
O O4 0.181576 0.820442 0.543859
O O5 0.500000 0.750000 0.910263
O O6 0.541085 0.580434 0.881440
O O7 0.562065 0.711931 0.760350
O O8 0.609064 0.700226 0.928159
O O9 0.105728 0.000000 0.250000
O O10 0.144127 0.006852 0.080827
O O11 0.042982 0.088747 0.125573
O O12 0.255936 0.549283 0.338161
O O13 0.184728 0.660620 0.441014
O O14 0.250000 0.507769 0.000000
O O15 0.887499 0.718135 0.402157
O O16 0.000000 0.750000 0.391638
#
# Coordination Sequence:
#
# PCOD8295964 Si02
#       7
#    16  16  16  16  16  16  16
#     4  11  23  38  58  88 127 166 206 253 302 362
#     4  10  22  41  64  89 117 155 207 262 314 370
#     4  10  20  38  64  88 116 158 204 251 306 367
#     4  11  23  38  58  88 127 166 206 253 302 362
#     4  12  22  36  61  94 129 168 211 251 302 375
#     4  12  22  38  60  88 126 168 202 248 312 370
#     4  10  22  41  64  89 117 155 207 262 314 370
#
# _framework density 22.978290999999999
#
# number of rings (size 3 to 8) (size 9 to 14) (size 15 to 20)
#    0.000    1.143    0.000    8.143    0.000    4.571 
#    0.000    4.286    0.000    3.429    0.000    0.000 
#    0.000    0.000    0.000    0.000    0.000    0.000 
#
# Total GULP energy -693730.676050 kJ/mol
# GULP energy per Si atom -12388.047787 kJ/mol
# Density = 2.292599 g / cm^3
# Si number density = 22.978291 Si / 1000 Ang^3
#
#
#
# Elastic Constant Matrix: (Units=GPa)
#
#
# Indices 1 2 3 4 5 6 
#
# 1 98.0329 53.9524 38.3700 0.0000 0.0000 0.0000
# 2 53.9524 141.3681 18.9739 0.0000 0.0000 0.0000
# 3 38.3700 18.9739 95.2612 0.0000 0.0000 0.0000
# 4 0.0000 0.0000 0.0000 12.6778 0.0000 0.0000
# 5 0.0000 0.0000 0.0000 0.0000 36.7234 0.0000
# 6 0.0000 0.0000 0.0000 0.0000 0.0000 38.9534
#
#
#
# Elastic Compliance Matrix: (Units=1/GPa)
#
#
# Indices 1 2 3 4 5 6 
#
# 1 0.014927 -0.005024 -0.005012 0.000000 0.000000 0.000000
# 2 -0.005024 0.008959 0.000239 0.000000 0.000000 0.000000
# 3 -0.005012 0.000239 0.012468 0.000000 0.000000 0.000000
# 4 0.000000 0.000000 0.000000 0.078878 0.000000 0.000000
# 5 0.000000 0.000000 0.000000 0.000000 0.027231 0.000000
# 6 0.000000 0.000000 0.000000 0.000000 0.000000 0.025672
#
#
# Mechanical properties :
#
#
# Convention : Reuss Voigt Hill
#
# Bulk Modulus (GPa) = 59.66130 61.91720 60.78925
# Shear Modulus (GPa) = 25.86434 32.56197 29.21315
#
# Velocity S-wave (km/s) = 3.35863 3.76849 3.56945
# Velocity P-wave (km/s) = 6.40790 6.77789 6.59549
#
# Compressibility (1/GPa) = 0.01676128
#
# Stress axis : x y z
#
# Youngs Moduli (GPa) = 66.99081 111.61814 80.20214
#
# Poissons Ratio (x) = 0.56080 0.40196
# Poissons Ratio (y) = 0.33658 -0.01919
# Poissons Ratio (z) = 0.33575 -0.02671
#
# Static dielectric constant tensor:
#      x y z
#    x 3.760740 0.000000 0.000000 
#    y 0.000000 4.507590 0.000000 
#    z 0.000000 0.000000 4.665440 
# 
# 
# High freq. dielectric constant tensor:
#      x y z
#    x 1.863420 0.000000 0.000000 
#    y 0.000000 1.918930 0.000000 
#    z 0.000000 0.000000 1.930620 
# 
# From -- ./inp_files/17255.got.cif
#   From: 2010.03.12/outbox.cif.g09.slc.cpg/sg73_9_cif.got.tgz:17255.got - 2010.04.16 15:25:48.
