data_PCOD8295096
_publ_section_title
;
Structure prediction by ZEFSAII (Michael W. Deem and Ramdas Pophale) SiO2 
 PCOD8295096
Probable space group: I B A M
;
_chemical_formula_sum "Si O2"
_cell_formula_units_Z 64
_cell_length_a 15.521746
_cell_length_b 8.336904
_cell_length_c 22.603039
_cell_angle_alpha 90.000000
_cell_angle_beta 90.000000
_cell_angle_gamma 90.000000
_cell_volume 2924.907979
_symmetry_space_group_name_H-M "I B A M"
_symmetry_group_IT_number 72
_symmetry_cell_setting 'orthorhombic'
loop_
_space_group_symop_operation_xyz
x,y,z
-x,-y,z
x,-y,1/2-z
-x,y,1/2-z
-x,-y,-z
x,y,-z
-x,y,1/2+z
x,-y,1/2+z
1/2+x,1/2+y,1/2+z
1/2-x,1/2-y,1/2+z
1/2+x,1/2-y,-z
1/2-x,1/2+y,-z
1/2-x,1/2-y,1/2-z
1/2+x,1/2+y,1/2-z
1/2-x,1/2+y,z
1/2+x,1/2-y,z
loop_
_atom_site_type_symbol
_atom_site_label
_atom_site_fract_x
_atom_site_fract_y
_atom_site_fract_z
Si Si1 0.500000 0.000000 0.343684
Si Si2 0.000000 0.247274 0.250000
Si Si3 0.713477 0.307846 0.880856
Si Si4 0.332049 0.586517 0.695568
Si Si5 0.140210 0.497883 0.566594
O O1 0.461057 0.140896 0.302383
O O2 0.427099 0.925381 0.386311
O O3 0.923871 0.144454 0.221004
O O4 0.652774 0.446671 0.853311
O O5 0.771624 0.226104 0.829609
O O6 0.774135 0.392666 0.929211
O O7 0.655200 0.182907 0.916061
O O8 0.281992 0.500000 0.750000
O O9 0.103965 0.488796 0.500000
#
# Coordination Sequence:
#
# PCOD8295096 Si02
#       5
#     8   8  16  16  16
#     4  11  23  40  62  96 127 169 212 260 318 389
#     4  11  23  40  62  94 130 168 206 258 326 384
#     4  10  23  40  64  95 124 161 222 260 318 376
#     4  11  21  38  62  91 130 164 204 261 320 385
#     4  11  22  42  66  92 127 170 216 266 313 373
#
# _framework density 21.881032000000001
#
# number of rings (size 3 to 8) (size 9 to 14) (size 15 to 20)
#    0.000    1.250    2.500    3.750    0.000    2.000 
#    0.000    0.000    0.000    1.500    0.000    0.000 
#    0.000    0.000    0.000    0.000    0.000    0.000 
#
# Total GULP energy -396678.029561 kJ/mol
# GULP energy per Si atom -12396.188424 kJ/mol
# Density = 2.183123 g / cm^3
# Si number density = 21.881032 Si / 1000 Ang^3
#
#
#
# Elastic Constant Matrix: (Units=GPa)
#
#
# Indices 1 2 3 4 5 6 
#
# 1 67.6848 26.1429 39.3004 0.0000 0.0000 0.0000
# 2 26.1429 101.1752 42.0609 0.0000 0.0000 0.0000
# 3 39.3004 42.0609 145.8492 0.0000 0.0000 0.0000
# 4 0.0000 0.0000 0.0000 16.5499 0.0000 0.0000
# 5 0.0000 0.0000 0.0000 0.0000 26.5682 0.0000
# 6 0.0000 0.0000 0.0000 0.0000 0.0000 28.3343
#
#
#
# Elastic Compliance Matrix: (Units=1/GPa)
#
#
# Indices 1 2 3 4 5 6 
#
# 1 0.018304 -0.003044 -0.004054 0.000000 0.000000 0.000000
# 2 -0.003044 0.011737 -0.002564 0.000000 0.000000 0.000000
# 3 -0.004054 -0.002564 0.008688 0.000000 0.000000 0.000000
# 4 0.000000 0.000000 0.000000 0.060423 0.000000 0.000000
# 5 0.000000 0.000000 0.000000 0.000000 0.037639 0.000000
# 6 0.000000 0.000000 0.000000 0.000000 0.000000 0.035293
#
#
# Mechanical properties :
#
#
# Convention : Reuss Voigt Hill
#
# Bulk Modulus (GPa) = 51.53742 58.85751 55.19746
# Shear Modulus (GPa) = 25.26811 28.10416 26.68613
#
# Velocity S-wave (km/s) = 3.40191 3.58775 3.49607
# Velocity P-wave (km/s) = 6.24782 6.64228 6.44807
#
# Compressibility (1/GPa) = 0.01940338
#
# Stress axis : x y z
#
# Youngs Moduli (GPa) = 54.63198 85.20420 115.09589
#
# Poissons Ratio (x) = 0.25938 0.46664
# Poissons Ratio (y) = 0.16631 0.29515
# Poissons Ratio (z) = 0.22150 0.21849
#
# Static dielectric constant tensor:
#      x y z
#    x 3.584570 0.000000 0.000000 
#    y 0.000000 4.165300 0.000000 
#    z 0.000000 0.000000 3.991450 
# 
# 
# High freq. dielectric constant tensor:
#      x y z
#    x 1.835080 0.000000 0.000000 
#    y 0.000000 1.873800 0.000000 
#    z 0.000000 0.000000 1.862980 
# 
# From -- ./inp_files/41967.got.cif
#   From: 2010.03.12/outbox.cif.g09.slc.cpg/sg72_21_cif.got.tgz:41967.got - 2010.04.16 14:54:00.
