data_PCOD8295333
_publ_section_title
;
Structure prediction by ZEFSAII (Michael W. Deem and Ramdas Pophale) SiO2 
 PCOD8295333
Probable space group: I B A M
;
_chemical_formula_sum "Si O2"
_cell_formula_units_Z 64
_cell_length_a 7.369342
_cell_length_b 18.774308
_cell_length_c 20.555346
_cell_angle_alpha 90.000000
_cell_angle_beta 90.000000
_cell_angle_gamma 90.000000
_cell_volume 2843.920434
_symmetry_space_group_name_H-M "I B A M"
_symmetry_group_IT_number 72
_symmetry_cell_setting 'orthorhombic'
loop_
_space_group_symop_operation_xyz
x,y,z
-x,-y,z
x,-y,1/2-z
-x,y,1/2-z
-x,-y,-z
x,y,-z
-x,y,1/2+z
x,-y,1/2+z
1/2+x,1/2+y,1/2+z
1/2-x,1/2-y,1/2+z
1/2+x,1/2-y,-z
1/2-x,1/2+y,-z
1/2-x,1/2-y,1/2-z
1/2+x,1/2+y,1/2-z
1/2-x,1/2+y,z
1/2+x,1/2-y,z
loop_
_atom_site_type_symbol
_atom_site_label
_atom_site_fract_x
_atom_site_fract_y
_atom_site_fract_z
Si Si1 0.421477 0.701456 0.426759
Si Si2 0.291301 0.522361 0.179374
Si Si3 0.346586 0.920925 0.072807
Si Si4 0.305047 0.845933 0.609342
O O1 0.367488 0.725869 0.500000
O O2 0.284818 0.641271 0.401896
O O3 0.401152 0.769070 0.377521
O O4 0.622986 0.670226 0.430408
O O5 0.500000 0.500000 0.170716
O O6 0.218200 0.500000 0.250000
O O7 0.172879 0.485373 0.123175
O O8 0.257423 0.607957 0.172755
O O9 0.552683 0.893245 0.069008
O O10 0.292287 0.946580 0.000000
#
# Coordination Sequence:
#
# PCOD8295333 Si02
#       4
#    16  16  16  16
#     4  11  22  38  64 103 144 178 220 287 350 415
#     4  11  26  49  73  97 140 192 241 295 351 414
#     4  11  24  41  69 106 138 178 233 288 354 419
#     4  12  23  41  71 101 138 187 227 283 354 421
#
# _framework density 22.504144
#
# number of rings (size 3 to 8) (size 9 to 14) (size 15 to 20)
#    0.000    0.750    5.000    3.000    0.000    6.500 
#    0.000    1.250    5.500    0.000    0.000    0.000 
#    0.000    0.000    0.000    0.000    0.000    0.000 
#
# Total GULP energy -396547.292881 kJ/mol
# GULP energy per Si atom -12392.102903 kJ/mol
# Density = 2.245292 g / cm^3
# Si number density = 22.504144 Si / 1000 Ang^3
#
#
#
# Elastic Constant Matrix: (Units=GPa)
#
#
# Indices 1 2 3 4 5 6 
#
# 1 136.8522 49.0965 18.8235 0.0000 0.0000 0.0000
# 2 49.0965 143.7615 64.3715 0.0000 0.0000 0.0000
# 3 18.8235 64.3715 106.7860 0.0000 0.0000 0.0000
# 4 0.0000 0.0000 0.0000 28.5072 0.0000 0.0000
# 5 0.0000 0.0000 0.0000 0.0000 1.7995 0.0000
# 6 0.0000 0.0000 0.0000 0.0000 0.0000 43.2002
#
#
#
# Elastic Compliance Matrix: (Units=1/GPa)
#
#
# Indices 1 2 3 4 5 6 
#
# 1 0.008336 -0.002998 0.000338 0.000000 0.000000 0.000000
# 2 -0.002998 0.010606 -0.005865 0.000000 0.000000 0.000000
# 3 0.000338 -0.005865 0.012840 0.000000 0.000000 0.000000
# 4 0.000000 0.000000 0.000000 0.035079 0.000000 0.000000
# 5 0.000000 0.000000 0.000000 0.000000 0.555703 0.000000
# 6 0.000000 0.000000 0.000000 0.000000 0.000000 0.023148
#
#
# Mechanical properties :
#
#
# Convention : Reuss Voigt Hill
#
# Bulk Modulus (GPa) = 67.87845 72.44252 70.16048
# Shear Modulus (GPa) = 7.48868 31.70859 19.59864
#
# Velocity S-wave (km/s) = 1.82618 3.75775 2.95429
# Velocity P-wave (km/s) = 5.88852 7.14760 6.54839
#
# Compressibility (1/GPa) = 0.01473222
#
# Stress axis : x y z
#
# Youngs Moduli (GPa) = 119.95702 94.28617 77.87945
#
# Poissons Ratio (x) = 0.28270 -0.02632
# Poissons Ratio (y) = 0.35966 0.45675
# Poissons Ratio (z) = -0.04054 0.55298
#
# Static dielectric constant tensor:
#      x y z
#    x 4.256270 0.000000 0.000000 
#    y 0.000000 4.440760 0.000000 
#    z 0.000000 0.000000 3.623000 
# 
# 
# High freq. dielectric constant tensor:
#      x y z
#    x 1.916020 0.000000 0.000000 
#    y 0.000000 1.902170 0.000000 
#    z 0.000000 0.000000 1.830510 
# 
# From -- ./inp_files/35407.got.cif
#   From: 2010.03.12/outbox.cif.g09.slc.cpg/sg72_18_cif.got.tgz:35407.got - 2010.04.16 14:54:00.
