data_PCOD8295361
_publ_section_title
;
Structure prediction by ZEFSAII (Michael W. Deem and Ramdas Pophale) SiO2 
 PCOD8295361
Probable space group: I B A M
;
_chemical_formula_sum "Si O2"
_cell_formula_units_Z 48
_cell_length_a 10.430498
_cell_length_b 14.958561
_cell_length_c 14.076482
_cell_angle_alpha 90.000000
_cell_angle_beta 90.000000
_cell_angle_gamma 90.000000
_cell_volume 2196.286491
_symmetry_space_group_name_H-M "I B A M"
_symmetry_group_IT_number 72
_symmetry_cell_setting 'orthorhombic'
loop_
_space_group_symop_operation_xyz
x,y,z
-x,-y,z
x,-y,1/2-z
-x,y,1/2-z
-x,-y,-z
x,y,-z
-x,y,1/2+z
x,-y,1/2+z
1/2+x,1/2+y,1/2+z
1/2-x,1/2-y,1/2+z
1/2+x,1/2-y,-z
1/2-x,1/2+y,-z
1/2-x,1/2-y,1/2-z
1/2+x,1/2+y,1/2-z
1/2-x,1/2+y,z
1/2+x,1/2-y,z
loop_
_atom_site_type_symbol
_atom_site_label
_atom_site_fract_x
_atom_site_fract_y
_atom_site_fract_z
Si Si1 0.883210 0.052854 0.654050
Si Si2 0.673629 0.053366 0.500000
Si Si3 0.922324 0.354007 0.500000
Si Si4 0.382675 0.752555 0.808394
O O1 0.756174 0.060263 0.594048
O O2 0.931342 0.152800 0.671495
O O3 0.849156 0.000000 0.750000
O O4 0.000000 0.000000 0.602155
O O5 0.577609 0.138992 0.500000
O O6 0.612575 0.956901 0.500000
O O7 0.865135 0.305275 0.407357
O O8 0.500000 0.798850 0.750000
O O9 0.250000 0.750000 0.750000
#
# Coordination Sequence:
#
# PCOD8295361 Si02
#       4
#    16   8   8  16
#     4  11  22  43  68  99 134 179 241 291 349 417
#     4  11  24  45  65  99 140 185 230 290 357 420
#     4  11  27  43  68 101 143 186 231 290 360 428
#     4  12  25  45  71 105 142 184 236 295 358 423
#
# _framework density 21.855072
#
# number of rings (size 3 to 8) (size 9 to 14) (size 15 to 20)
#    0.000    0.667    3.333    5.500    0.000    1.333 
#    0.000    3.333    0.000    0.000    0.000    0.000 
#    0.000    0.000    0.000    0.000    0.000    0.000 
#
# Total GULP energy -297504.616136 kJ/mol
# GULP energy per Si atom -12396.025672 kJ/mol
# Density = 2.180533 g / cm^3
# Si number density = 21.855072 Si / 1000 Ang^3
#
#
#
# Elastic Constant Matrix: (Units=GPa)
#
#
# Indices 1 2 3 4 5 6 
#
# 1 152.5610 18.2032 60.3122 0.0000 0.0000 0.0000
# 2 18.2032 103.2229 32.0283 0.0000 0.0000 0.0000
# 3 60.3122 32.0283 144.5577 0.0000 0.0000 0.0000
# 4 0.0000 0.0000 0.0000 38.0357 0.0000 0.0000
# 5 0.0000 0.0000 0.0000 0.0000 26.4462 0.0000
# 6 0.0000 0.0000 0.0000 0.0000 0.0000 30.1287
#
#
#
# Elastic Compliance Matrix: (Units=1/GPa)
#
#
# Indices 1 2 3 4 5 6 
#
# 1 0.007864 -0.000396 -0.003193 0.000000 0.000000 0.000000
# 2 -0.000396 0.010423 -0.002144 0.000000 0.000000 0.000000
# 3 -0.003193 -0.002144 0.008725 0.000000 0.000000 0.000000
# 4 0.000000 0.000000 0.000000 0.026291 0.000000 0.000000
# 5 0.000000 0.000000 0.000000 0.000000 0.037813 0.000000
# 6 0.000000 0.000000 0.000000 0.000000 0.000000 0.033191
#
#
# Mechanical properties :
#
#
# Convention : Reuss Voigt Hill
#
# Bulk Modulus (GPa) = 64.32804 69.04767 66.68786
# Shear Modulus (GPa) = 35.47206 38.24198 36.85702
#
# Velocity S-wave (km/s) = 4.03309 4.18760 4.11107
# Velocity P-wave (km/s) = 7.15441 7.41912 7.28797
#
# Compressibility (1/GPa) = 0.01554532
#
# Stress axis : x y z
#
# Youngs Moduli (GPa) = 127.15382 95.94278 114.61223
#
# Poissons Ratio (x) = 0.03799 0.36601
# Poissons Ratio (y) = 0.05035 0.24574
# Poissons Ratio (z) = 0.40606 0.20571
#
# Static dielectric constant tensor:
#      x y z
#    x 4.268510 0.000000 0.000000 
#    y 0.000000 4.051320 0.000000 
#    z 0.000000 0.000000 3.869980 
# 
# 
# High freq. dielectric constant tensor:
#      x y z
#    x 1.871250 0.000000 0.000000 
#    y 0.000000 1.865760 0.000000 
#    z 0.000000 0.000000 1.865320 
# 
# From -- ./inp_files/19352.got.cif
#   From: 2010.03.12/outbox.cif.g09.slc.cpg/sg72_10_cif.got.tgz:19352.got - 2010.04.16 14:54:00.
