data_PCOD8295225
_publ_section_title
;
Structure prediction by ZEFSAII (Michael W. Deem and Ramdas Pophale) SiO2 
 PCOD8295225
Probable space group: I B A M
;
_chemical_formula_sum "Si O2"
_cell_formula_units_Z 60
_cell_length_a 13.733452
_cell_length_b 10.451050
_cell_length_c 18.526833
_cell_angle_alpha 90.000000
_cell_angle_beta 90.000000
_cell_angle_gamma 90.000000
_cell_volume 2659.137694
_symmetry_space_group_name_H-M "I B A M"
_symmetry_group_IT_number 72
_symmetry_cell_setting 'orthorhombic'
loop_
_space_group_symop_operation_xyz
x,y,z
-x,-y,z
x,-y,1/2-z
-x,y,1/2-z
-x,-y,-z
x,y,-z
-x,y,1/2+z
x,-y,1/2+z
1/2+x,1/2+y,1/2+z
1/2-x,1/2-y,1/2+z
1/2+x,1/2-y,-z
1/2-x,1/2+y,-z
1/2-x,1/2-y,1/2-z
1/2+x,1/2+y,1/2-z
1/2-x,1/2+y,z
1/2+x,1/2-y,z
loop_
_atom_site_type_symbol
_atom_site_label
_atom_site_fract_x
_atom_site_fract_y
_atom_site_fract_z
Si Si1 0.887083 0.026289 0.500000
Si Si2 0.259855 0.363761 0.619432
Si Si3 0.372719 0.756913 0.500000
Si Si4 0.067182 0.622372 0.500000
Si Si5 0.500000 0.000000 0.750000
Si Si6 0.340055 0.110559 0.653314
O O1 0.853982 0.104351 0.429436
O O2 0.833958 0.888188 0.500000
O O3 0.000000 0.000000 0.500000
O O4 0.166282 0.328981 0.570809
O O5 0.286217 0.244775 0.672461
O O6 0.229208 0.486943 0.667273
O O7 0.491555 0.757921 0.500000
O O8 0.136966 0.622816 0.431399
O O9 0.000000 0.500000 0.500000
O O10 0.563481 0.904791 0.700932
#
# Coordination Sequence:
#
# PCOD8295225 Si02
#       6
#     8  16   8   8   4  16
#     4  11  21  33  58 103 139 165 205 266 329 380
#     4  11  22  38  64  91 136 170 209 267 330 378
#     4  11  18  33  59 101 134 166 207 260 319 391
#     4  12  19  36  68  99 134 169 212 268 319 387
#     4  12  28  46  72  90 122 178 236 262 320 402
#     4  12  24  44  67  99 129 174 218 271 326 392
#
# _framework density 22.563704999999999
#
# number of rings (size 3 to 8) (size 9 to 14) (size 15 to 20)
#    0.000    0.533    6.667    4.000    0.000    1.067 
#    0.000    0.000    0.000    1.600    0.000    0.000 
#    0.000    0.000    0.000    0.000    0.000    0.000 
#
# Total GULP energy -372087.167514 kJ/mol
# GULP energy per Si atom -12402.905584 kJ/mol
# Density = 2.251235 g / cm^3
# Si number density = 22.563705 Si / 1000 Ang^3
#
#
#
# Elastic Constant Matrix: (Units=GPa)
#
#
# Indices 1 2 3 4 5 6 
#
# 1 114.0086 44.9418 28.9166 0.0000 0.0000 0.0000
# 2 44.9418 204.8045 24.9711 0.0000 0.0000 0.0000
# 3 28.9166 24.9711 69.4646 0.0000 0.0000 0.0000
# 4 0.0000 0.0000 0.0000 3.1345 0.0000 0.0000
# 5 0.0000 0.0000 0.0000 0.0000 4.9019 0.0000
# 6 0.0000 0.0000 0.0000 0.0000 0.0000 42.2202
#
#
#
# Elastic Compliance Matrix: (Units=1/GPa)
#
#
# Indices 1 2 3 4 5 6 
#
# 1 0.010430 -0.001840 -0.003680 0.000000 0.000000 0.000000
# 2 -0.001840 0.005431 -0.001186 0.000000 0.000000 0.000000
# 3 -0.003680 -0.001186 0.016354 0.000000 0.000000 0.000000
# 4 0.000000 0.000000 0.000000 0.319026 0.000000 0.000000
# 5 0.000000 0.000000 0.000000 0.000000 0.204001 0.000000
# 6 0.000000 0.000000 0.000000 0.000000 0.000000 0.023685
#
#
# Mechanical properties :
#
#
# Convention : Reuss Voigt Hill
#
# Bulk Modulus (GPa) = 53.18590 65.10406 59.14498
# Shear Modulus (GPa) = 8.35269 29.34788 18.85028
#
# Velocity S-wave (km/s) = 1.92610 3.61039 2.89351
# Velocity P-wave (km/s) = 5.34501 6.80411 6.11821
#
# Compressibility (1/GPa) = 0.01880198
#
# Stress axis : x y z
#
# Youngs Moduli (GPa) = 95.87667 184.12371 61.14574
#
# Poissons Ratio (x) = 0.33879 0.22504
# Poissons Ratio (y) = 0.17641 0.07254
# Poissons Ratio (z) = 0.35286 0.21845
#
# Static dielectric constant tensor:
#      x y z
#    x 4.207190 0.000000 0.000000 
#    y 0.000000 4.976170 0.000000 
#    z 0.000000 0.000000 3.732360 
# 
# 
# High freq. dielectric constant tensor:
#      x y z
#    x 1.891820 0.000000 0.000000 
#    y 0.000000 1.921270 0.000000 
#    z 0.000000 0.000000 1.847030 
# 
# From -- ./inp_files/28743.got.cif
#   From: 2010.03.12/outbox.cif.g09.slc.cpg/sg72_15_cif.got.tgz:28743.got - 2010.04.16 14:54:00.
