data_PCOD8295547
_publ_section_title
;
Structure prediction by ZEFSAII (Michael W. Deem and Ramdas Pophale) SiO2 
 PCOD8295547
Probable space group: I B C A 
;
_chemical_formula_sum "Si O2"
_cell_formula_units_Z 64
_cell_length_a 16.973508
_cell_length_b 11.490517
_cell_length_c 13.059965
_cell_angle_alpha 90.000000
_cell_angle_beta 90.000000
_cell_angle_gamma 90.000000
_cell_volume 2547.142206
_symmetry_space_group_name_H-M "I B C A "
_symmetry_group_IT_number 73
_symmetry_cell_setting 'orthorhombic'
loop_
_space_group_symop_operation_xyz
x,y,z
-x,1/2-y,z
x,-y,1/2-z
1/2-x,y,-z
-x,-y,-z
x,1/2+y,-z
-x,y,1/2+z
1/2+x,-y,z
1/2+x,1/2+y,1/2+z
1/2-x,-y,1/2+z
1/2+x,1/2-y,-z
-x,1/2+y,1/2-z
1/2-x,1/2-y,1/2-z
1/2+x,y,1/2-z
1/2-x,1/2+y,z
x,1/2-y,1/2+z
loop_
_atom_site_type_symbol
_atom_site_label
_atom_site_fract_x
_atom_site_fract_y
_atom_site_fract_z
Si Si1 0.183140 0.624104 0.416367
Si Si2 0.461924 0.490236 0.627782
Si Si3 0.500000 0.750000 0.318119
Si Si4 0.727472 0.500000 0.750000
Si Si5 0.396054 0.649435 0.143278
O O1 0.250000 0.611909 0.500000
O O2 0.116563 0.525510 0.433449
O O3 0.220253 0.599933 0.304299
O O4 0.140528 0.749085 0.426751
O O5 0.452384 0.500000 0.750000
O O6 0.477822 0.354814 0.605148
O O7 0.532803 0.575756 0.590235
O O8 0.426774 0.711172 0.247063
O O9 0.673777 0.439796 0.835035
#
# Coordination Sequence:
#
# PCOD8295547 Si02
#       5
#    16  16   8   8  16
#     4  12  25  42  69 108 162 196 242 321 382 449
#     4  10  18  39  75 104 137 195 257 299 373 448
#     4  10  16  36  78 104 130 184 266 304 358 428
#     4  12  24  42  70 108 148 202 256 298 392 450
#     4  11  20  41  75 102 138 194 250 310 369 455
#
# _framework density 25.126199
#
# number of rings (size 3 to 8) (size 9 to 14) (size 15 to 20)
#    0.000    1.000   10.000    0.750    0.000    1.000 
#    0.000    1.250    5.500    1.500    0.000    0.000 
#    0.000    0.000    0.000    0.000    0.000    0.000 
#
# Total GULP energy -396781.640428 kJ/mol
# GULP energy per Si atom -12399.426263 kJ/mol
# Density = 2.506901 g / cm^3
# Si number density = 25.126199 Si / 1000 Ang^3
#
#
#
# Elastic Constant Matrix: (Units=GPa)
#
#
# Indices 1 2 3 4 5 6 
#
# 1 184.3156 96.5144 38.4221 0.0000 0.0000 0.0000
# 2 96.5144 206.1517 29.6511 0.0000 0.0000 0.0000
# 3 38.4221 29.6511 27.0073 0.0000 0.0000 0.0000
# 4 0.0000 0.0000 0.0000 15.2891 0.0000 0.0000
# 5 0.0000 0.0000 0.0000 0.0000 56.7913 0.0000
# 6 0.0000 0.0000 0.0000 0.0000 0.0000 47.3559
#
#
#
# Elastic Compliance Matrix: (Units=1/GPa)
#
#
# Indices 1 2 3 4 5 6 
#
# 1 0.008877 -0.002778 -0.009579 0.000000 0.000000 0.000000
# 2 -0.002778 0.006630 -0.003326 0.000000 0.000000 0.000000
# 3 -0.009579 -0.003326 0.054306 0.000000 0.000000 0.000000
# 4 0.000000 0.000000 0.000000 0.065406 0.000000 0.000000
# 5 0.000000 0.000000 0.000000 0.000000 0.017608 0.000000
# 6 0.000000 0.000000 0.000000 0.000000 0.000000 0.021117
#
#
# Mechanical properties :
#
#
# Convention : Reuss Voigt Hill
#
# Bulk Modulus (GPa) = 26.01019 82.96109 54.48564
# Shear Modulus (GPa) = 22.92243 40.74639 31.83441
#
# Velocity S-wave (km/s) = 3.02369 4.03136 3.56333
# Velocity P-wave (km/s) = 4.75022 7.39991 6.21785
#
# Compressibility (1/GPa) = 0.03844647
#
# Stress axis : x y z
#
# Youngs Moduli (GPa) = 112.65014 150.83073 18.41402
#
# Poissons Ratio (x) = 0.41905 0.17638
# Poissons Ratio (y) = 0.31297 0.06125
# Poissons Ratio (z) = 1.07905 0.50173
#
# Static dielectric constant tensor:
#      x y z
#    x 4.747840 0.000000 0.000000 
#    y 0.000000 5.247670 0.000000 
#    z 0.000000 0.000000 4.026450 
# 
# 
# High freq. dielectric constant tensor:
#      x y z
#    x 2.015070 0.000000 0.000000 
#    y 0.000000 2.017000 0.000000 
#    z 0.000000 0.000000 1.972900 
# 
# From -- ./inp_files/10477.got.cif
#   From: 2010.03.12/outbox.cif.g09.slc.cpg/sg73_6_cif.got.tgz:10477.got - 2010.04.16 15:25:48.
