data_PCOD8295796
_publ_section_title
;
Structure prediction by ZEFSAII (Michael W. Deem and Ramdas Pophale) SiO2 
 PCOD8295796
Probable space group: I B C A 
;
_chemical_formula_sum "Si O2"
_cell_formula_units_Z 112
_cell_length_a 12.470251
_cell_length_b 21.807474
_cell_length_c 20.387777
_cell_angle_alpha 90.000000
_cell_angle_beta 90.000000
_cell_angle_gamma 90.000000
_cell_volume 5544.347379
_symmetry_space_group_name_H-M "I B C A "
_symmetry_group_IT_number 73
_symmetry_cell_setting 'orthorhombic'
loop_
_space_group_symop_operation_xyz
x,y,z
-x,1/2-y,z
x,-y,1/2-z
1/2-x,y,-z
-x,-y,-z
x,1/2+y,-z
-x,y,1/2+z
1/2+x,-y,z
1/2+x,1/2+y,1/2+z
1/2-x,-y,1/2+z
1/2+x,1/2-y,-z
-x,1/2+y,1/2-z
1/2-x,1/2-y,1/2-z
1/2+x,y,1/2-z
1/2-x,1/2+y,z
x,1/2-y,1/2+z
loop_
_atom_site_type_symbol
_atom_site_label
_atom_site_fract_x
_atom_site_fract_y
_atom_site_fract_z
Si Si1 0.668217 0.679428 0.075491
Si Si2 0.090403 0.409945 0.844786
Si Si3 0.634820 0.539114 0.315037
Si Si4 0.408318 0.700957 0.434907
Si Si5 0.768601 0.648247 0.270441
Si Si6 0.387054 0.739066 0.700553
Si Si7 0.734148 0.538430 0.075345
O O1 0.783007 0.715759 0.083294
O O2 0.593278 0.702335 0.133489
O O3 0.691080 0.607430 0.076577
O O4 0.596141 0.691737 0.012424
O O5 0.052393 0.359241 0.896851
O O6 0.168672 0.380715 0.790749
O O7 0.153412 0.463014 0.885017
O O8 0.987961 0.439615 0.810084
O O9 0.660451 0.500000 0.250000
O O10 0.715996 0.596381 0.315400
O O11 0.651406 0.503749 0.383928
O O12 0.500000 0.750000 0.416734
O O13 0.679123 0.695676 0.247345
O O14 0.843491 0.692208 0.313732
O O15 0.500000 0.750000 0.736329
O O16 0.750000 0.515472 0.000000
#
# Coordination Sequence:
#
# PCOD8295796 Si02
#       7
#    16  16  16  16  16  16  16
#     4  10  19  41  62  90 127 172 207 261 327 394
#     4  11  23  42  67  93 128 174 216 268 337 388
#     4  12  26  41  68  99 129 173 229 274 329 386
#     4  10  20  36  66  92 123 165 211 260 324 399
#     4  11  24  42  63  97 132 167 210 276 328 394
#     4  11  22  39  64  93 129 165 207 262 331 396
#     4  11  22  47  67  90 135 178 224 270 329 395
#
# _framework density 20.200755000000001
#
# number of rings (size 3 to 8) (size 9 to 14) (size 15 to 20)
#    0.000    1.143    7.143    1.286    4.000    1.143 
#    0.000    1.429    0.000    0.000    0.000    0.000 
#    0.000    0.000    0.000    0.000    0.000    0.000 
#
# Total GULP energy -693963.656528 kJ/mol
# GULP energy per Si atom -12392.208152 kJ/mol
# Density = 2.015478 g / cm^3
# Si number density = 20.200755 Si / 1000 Ang^3
#
#
#
# Elastic Constant Matrix: (Units=GPa)
#
#
# Indices 1 2 3 4 5 6 
#
# 1 98.0243 43.3882 12.2502 0.0000 0.0000 0.0000
# 2 43.3882 68.4987 13.8714 0.0000 0.0000 0.0000
# 3 12.2502 13.8714 78.4263 0.0000 0.0000 0.0000
# 4 0.0000 0.0000 0.0000 94.0498 0.0000 0.0000
# 5 0.0000 0.0000 0.0000 0.0000 4.4755 0.0000
# 6 0.0000 0.0000 0.0000 0.0000 0.0000 24.3156
#
#
#
# Elastic Compliance Matrix: (Units=1/GPa)
#
#
# Indices 1 2 3 4 5 6 
#
# 1 0.014208 -0.008868 -0.000651 0.000000 0.000000 0.000000
# 2 -0.008868 0.020676 -0.002272 0.000000 0.000000 0.000000
# 3 -0.000651 -0.002272 0.013254 0.000000 0.000000 0.000000
# 4 0.000000 0.000000 0.000000 0.010633 0.000000 0.000000
# 5 0.000000 0.000000 0.000000 0.000000 0.223438 0.000000
# 6 0.000000 0.000000 0.000000 0.000000 0.000000 0.041126
#
#
# Mechanical properties :
#
#
# Convention : Reuss Voigt Hill
#
# Bulk Modulus (GPa) = 40.72109 42.66320 41.69215
# Shear Modulus (GPa) = 14.08047 36.26415 25.17231
#
# Velocity S-wave (km/s) = 2.64299 4.24156 3.53385
# Velocity P-wave (km/s) = 5.43285 6.71962 6.11020
#
# Compressibility (1/GPa) = 0.02455730
#
# Stress axis : x y z
#
# Youngs Moduli (GPa) = 70.38281 48.36554 75.44713
#
# Poissons Ratio (x) = 0.42890 0.04910
# Poissons Ratio (y) = 0.62414 0.17140
# Poissons Ratio (z) = 0.04581 0.10988
#
# Static dielectric constant tensor:
#      x y z
#    x 3.884920 0.000000 0.000000 
#    y 0.000000 3.791820 0.000000 
#    z 0.000000 0.000000 3.704710 
# 
# 
# High freq. dielectric constant tensor:
#      x y z
#    x 1.788670 0.000000 0.000000 
#    y 0.000000 1.780810 0.000000 
#    z 0.000000 0.000000 1.789980 
# 
# From -- ./inp_files/25564.got.cif
#   From: 2010.03.12/outbox.cif.g09.slc.cpg/sg73_13_cif.got.tgz:25564.got - 2010.04.16 15:25:48.
