data_PCOD8295111
_publ_section_title
;
Structure prediction by ZEFSAII (Michael W. Deem and Ramdas Pophale) SiO2 
 PCOD8295111
Probable space group: I B A M
;
_chemical_formula_sum "Si O2"
_cell_formula_units_Z 112
_cell_length_a 24.310974
_cell_length_b 14.480944
_cell_length_c 14.968958
_cell_angle_alpha 90.000000
_cell_angle_beta 90.000000
_cell_angle_gamma 90.000000
_cell_volume 5269.759589
_symmetry_space_group_name_H-M "I B A M"
_symmetry_group_IT_number 72
_symmetry_cell_setting 'orthorhombic'
loop_
_space_group_symop_operation_xyz
x,y,z
-x,-y,z
x,-y,1/2-z
-x,y,1/2-z
-x,-y,-z
x,y,-z
-x,y,1/2+z
x,-y,1/2+z
1/2+x,1/2+y,1/2+z
1/2-x,1/2-y,1/2+z
1/2+x,1/2-y,-z
1/2-x,1/2+y,-z
1/2-x,1/2-y,1/2-z
1/2+x,1/2+y,1/2-z
1/2-x,1/2+y,z
1/2+x,1/2-y,z
loop_
_atom_site_type_symbol
_atom_site_label
_atom_site_fract_x
_atom_site_fract_y
_atom_site_fract_z
Si Si1 0.999712 0.214812 0.649742
Si Si2 0.157949 0.491567 0.894236
Si Si3 0.606797 0.621852 0.900360
Si Si4 0.094434 0.084366 0.901974
Si Si5 0.697318 0.129649 0.743024
Si Si6 0.822473 0.835139 0.238998
Si Si7 0.964071 0.583127 0.896877
O O1 0.959147 0.148539 0.595726
O O2 0.979360 0.320679 0.649506
O O3 0.000000 0.178450 0.750000
O O4 0.061316 0.202287 0.612286
O O5 0.162412 0.589288 0.841620
O O6 0.198488 0.428089 0.835469
O O7 0.098758 0.445041 0.882962
O O8 0.173886 0.500147 0.000000
O O9 0.578514 0.522109 0.881848
O O10 0.659753 0.632990 0.837459
O O11 0.630440 0.629252 0.000000
O O12 0.138704 0.117951 0.832138
O O13 0.121595 0.091375 0.000000
O O14 0.760608 0.137618 0.714414
O O15 0.669370 0.225910 0.766790
O O16 0.000000 0.500000 0.855115
O O17 0.979209 0.596139 0.000000
#
# Coordination Sequence:
#
# PCOD8295111 Si02
#       7
#    16  16  16  16  16  16  16
#     4  12  24  39  65  96 134 176 216 274 334 404
#     4  10  23  43  69  96 132 176 222 276 336 397
#     4  11  25  41  66  97 132 174 221 276 337 403
#     4  11  24  42  66  94 130 172 219 270 335 404
#     4  10  25  43  66  94 132 173 223 281 337 392
#     4  11  24  44  65  96 131 172 224 282 334 402
#     4  10  23  41  64  96 132 173 222 273 330 402
#
# _framework density 21.253342
#
# number of rings (size 3 to 8) (size 9 to 14) (size 15 to 20)
#    0.000    1.286    1.429    3.000    6.000    6.571 
#    0.000    2.857    0.000    0.000    0.000    0.000 
#    0.000    0.000    0.000    0.000    0.000    0.000 
#
# Total GULP energy -694287.856846 kJ/mol
# GULP energy per Si atom -12397.997444 kJ/mol
# Density = 2.120497 g / cm^3
# Si number density = 21.253342 Si / 1000 Ang^3
#
#
#
# Elastic Constant Matrix: (Units=GPa)
#
#
# Indices 1 2 3 4 5 6 
#
# 1 62.0881 28.9559 29.1289 0.0000 0.0000 0.0000
# 2 28.9559 102.6797 28.6602 0.0000 0.0000 0.0000
# 3 29.1289 28.6602 138.4361 0.0000 0.0000 0.0000
# 4 0.0000 0.0000 0.0000 18.6166 0.0000 0.0000
# 5 0.0000 0.0000 0.0000 0.0000 6.2486 0.0000
# 6 0.0000 0.0000 0.0000 0.0000 0.0000 25.6195
#
#
#
# Elastic Compliance Matrix: (Units=1/GPa)
#
#
# Indices 1 2 3 4 5 6 
#
# 1 0.019792 -0.004690 -0.003193 0.000000 0.000000 0.000000
# 2 -0.004690 0.011448 -0.001383 0.000000 0.000000 0.000000
# 3 -0.003193 -0.001383 0.008182 0.000000 0.000000 0.000000
# 4 0.000000 0.000000 0.000000 0.053715 0.000000 0.000000
# 5 0.000000 0.000000 0.000000 0.000000 0.160036 0.000000
# 6 0.000000 0.000000 0.000000 0.000000 0.000000 0.039033
#
#
# Mechanical properties :
#
#
# Convention : Reuss Voigt Hill
#
# Bulk Modulus (GPa) = 47.87437 52.96599 50.42018
# Shear Modulus (GPa) = 15.73806 24.52753 20.13280
#
# Velocity S-wave (km/s) = 2.72416 3.40082 3.08113
# Velocity P-wave (km/s) = 5.69818 6.35580 6.03595
#
# Compressibility (1/GPa) = 0.02088800
#
# Stress axis : x y z
#
# Youngs Moduli (GPa) = 50.52650 87.35411 122.22158
#
# Poissons Ratio (x) = 0.40968 0.39031
# Poissons Ratio (y) = 0.23696 0.16905
# Poissons Ratio (z) = 0.16136 0.12083
#
# Static dielectric constant tensor:
#      x y z
#    x 3.710860 0.000000 0.000000 
#    y 0.000000 4.082880 0.000000 
#    z 0.000000 0.000000 4.089900 
# 
# 
# High freq. dielectric constant tensor:
#      x y z
#    x 1.822490 0.000000 0.000000 
#    y 0.000000 1.847870 0.000000 
#    z 0.000000 0.000000 1.842550 
# 
# From -- ./inp_files/25206.got.cif
#   From: 2010.03.12/outbox.cif.g09.slc.cpg/sg72_13_cif.got.tgz:25206.got - 2010.04.16 14:54:00.
