data_PCOD8295544
_publ_section_title
;
Structure prediction by ZEFSAII (Michael W. Deem and Ramdas Pophale) SiO2 
 PCOD8295544
Probable space group: I B C A 
;
_chemical_formula_sum "Si O2"
_cell_formula_units_Z 88
_cell_length_a 18.813659
_cell_length_b 13.377282
_cell_length_c 18.282889
_cell_angle_alpha 90.000000
_cell_angle_beta 90.000000
_cell_angle_gamma 90.000000
_cell_volume 4601.357459
_symmetry_space_group_name_H-M "I B C A "
_symmetry_group_IT_number 73
_symmetry_cell_setting 'orthorhombic'
loop_
_space_group_symop_operation_xyz
x,y,z
-x,1/2-y,z
x,-y,1/2-z
1/2-x,y,-z
-x,-y,-z
x,1/2+y,-z
-x,y,1/2+z
1/2+x,-y,z
1/2+x,1/2+y,1/2+z
1/2-x,-y,1/2+z
1/2+x,1/2-y,-z
-x,1/2+y,1/2-z
1/2-x,1/2-y,1/2-z
1/2+x,y,1/2-z
1/2-x,1/2+y,z
x,1/2-y,1/2+z
loop_
_atom_site_type_symbol
_atom_site_label
_atom_site_fract_x
_atom_site_fract_y
_atom_site_fract_z
Si Si1 0.891881 0.961284 0.548804
Si Si2 0.460017 0.583397 0.924376
Si Si3 0.356963 0.330909 0.930887
Si Si4 0.000000 0.250000 0.529000
Si Si5 0.837619 0.478007 0.834683
Si Si6 0.782494 0.377851 0.079005
O O1 0.930135 0.992458 0.472710
O O2 0.848262 0.046160 0.589724
O O3 0.845325 0.867974 0.516477
O O4 0.957510 0.929345 0.601235
O O5 0.452606 0.680284 0.975662
O O6 0.410223 0.583815 0.852544
O O7 0.331956 0.415318 0.874488
O O8 0.308118 0.235458 0.913886
O O9 0.441387 0.304658 0.920444
O O10 0.832499 0.500000 0.750000
O O11 0.773857 0.404363 0.858470
O O12 0.750000 0.400322 0.000000
#
# Coordination Sequence:
#
# PCOD8295544 Si02
#       6
#    16  16  16   8  16  16
#     4   9  18  34  58  92 114 141 192 257 300 336
#     4   9  17  35  59  87 117 144 194 252 300 346
#     4  10  21  34  63  87 118 150 196 251 306 352
#     4  10  16  34  66  96 110 142 198 274 306 344
#     4  11  25  42  56  81 130 168 196 243 308 371
#     4  12  21  36  61  93 117 152 204 249 301 361
#
# _framework density 19.124790999999998
#
# number of rings (size 3 to 8) (size 9 to 14) (size 15 to 20)
#    0.000    1.818    5.455    1.091    2.545    0.727 
#    0.000    1.818    0.000    0.000    0.000    0.000 
#    0.000    0.000    0.000    0.000    0.000    0.000 
#
# Total GULP energy -545167.732764 kJ/mol
# GULP energy per Si atom -12390.175745 kJ/mol
# Density = 1.908126 g / cm^3
# Si number density = 19.124791 Si / 1000 Ang^3
#
#
#
# Elastic Constant Matrix: (Units=GPa)
#
#
# Indices 1 2 3 4 5 6 
#
# 1 107.5080 60.2029 50.6971 0.0000 0.0000 0.0000
# 2 60.2029 112.3735 25.1690 0.0000 0.0000 0.0000
# 3 50.6971 25.1690 81.6987 0.0000 0.0000 0.0000
# 4 0.0000 0.0000 0.0000 10.0643 0.0000 0.0000
# 5 0.0000 0.0000 0.0000 0.0000 19.2292 0.0000
# 6 0.0000 0.0000 0.0000 0.0000 0.0000 37.7864
#
#
#
# Elastic Compliance Matrix: (Units=1/GPa)
#
#
# Indices 1 2 3 4 5 6 
#
# 1 0.017529 -0.007470 -0.008576 0.000000 0.000000 0.000000
# 2 -0.007470 0.012742 0.000710 0.000000 0.000000 0.000000
# 3 -0.008576 0.000710 0.017343 0.000000 0.000000 0.000000
# 4 0.000000 0.000000 0.000000 0.099361 0.000000 0.000000
# 5 0.000000 0.000000 0.000000 0.000000 0.052004 0.000000
# 6 0.000000 0.000000 0.000000 0.000000 0.000000 0.026465
#
#
# Mechanical properties :
#
#
# Convention : Reuss Voigt Hill
#
# Bulk Modulus (GPa) = 59.02567 63.74644 61.38606
# Shear Modulus (GPa) = 19.10125 24.45006 21.77566
#
# Velocity S-wave (km/s) = 3.16376 3.57942 3.37799
# Velocity P-wave (km/s) = 6.65404 7.10543 6.88344
#
# Compressibility (1/GPa) = 0.01694178
#
# Stress axis : x y z
#
# Youngs Moduli (GPa) = 57.04842 78.48127 57.65982
#
# Poissons Ratio (x) = 0.58626 0.49449
# Poissons Ratio (y) = 0.42616 -0.04094
# Poissons Ratio (z) = 0.48925 -0.05573
#
# Static dielectric constant tensor:
#      x y z
#    x 3.915050 0.000000 0.000000 
#    y 0.000000 3.730510 0.000000 
#    z 0.000000 0.000000 2.980370 
# 
# 
# High freq. dielectric constant tensor:
#      x y z
#    x 1.760780 0.000000 0.000000 
#    y 0.000000 1.762210 0.000000 
#    z 0.000000 0.000000 1.666260 
# 
# From -- ./inp_files/23158.got.cif
#   From: 2010.03.12/outbox.cif.g09.slc.cpg/sg73_12_cif.got.tgz:23158.got - 2010.04.16 15:25:48.
