data_PCOD8295890
_publ_section_title
;
Structure prediction by ZEFSAII (Michael W. Deem and Ramdas Pophale) SiO2 
 PCOD8295890
Probable space group: I B C A 
;
_chemical_formula_sum "Si O2"
_cell_formula_units_Z 72
_cell_length_a 21.405701
_cell_length_b 8.267981
_cell_length_c 18.798135
_cell_angle_alpha 90.000000
_cell_angle_beta 90.000000
_cell_angle_gamma 90.000000
_cell_volume 3326.930197
_symmetry_space_group_name_H-M "I B C A "
_symmetry_group_IT_number 73
_symmetry_cell_setting 'orthorhombic'
loop_
_space_group_symop_operation_xyz
x,y,z
-x,1/2-y,z
x,-y,1/2-z
1/2-x,y,-z
-x,-y,-z
x,1/2+y,-z
-x,y,1/2+z
1/2+x,-y,z
1/2+x,1/2+y,1/2+z
1/2-x,-y,1/2+z
1/2+x,1/2-y,-z
-x,1/2+y,1/2-z
1/2-x,1/2-y,1/2-z
1/2+x,y,1/2-z
1/2-x,1/2+y,z
x,1/2-y,1/2+z
loop_
_atom_site_type_symbol
_atom_site_label
_atom_site_fract_x
_atom_site_fract_y
_atom_site_fract_z
Si Si1 0.797717 0.603974 0.589779
Si Si2 0.830718 0.260848 0.053405
Si Si3 0.409753 0.911139 0.661519
Si Si4 0.621746 0.251910 0.203033
Si Si5 0.022580 0.500000 0.250000
O O1 0.831951 0.719207 0.531680
O O2 0.723208 0.621833 0.585145
O O3 0.816833 0.421495 0.574227
O O4 0.819457 0.655068 0.668815
O O5 0.897131 0.320848 0.086610
O O6 0.364124 0.817264 0.717995
O O7 0.480038 0.900016 0.693210
O O8 0.394529 0.100152 0.652710
O O9 0.563973 0.375957 0.204952
#
# Coordination Sequence:
#
# PCOD8295890 Si02
#       5
#    16  16  16  16   8
#     4  11  22  38  59  84 116 150 187 231 282 338
#     4  11  22  38  59  84 116 150 187 231 283 337
#     4  10  20  36  59  84 115 150 187 232 280 333
#     4  10  20  36  59  85 114 149 189 231 281 332
#     4  10  20  38  60  84 114 148 188 238 282 328
#
# _framework density 21.641570999999999
#
# number of rings (size 3 to 8) (size 9 to 14) (size 15 to 20)
#    0.000    1.778    0.000    9.333    0.000    0.889 
#    0.000    4.444    0.000    8.000    0.000    1.556 
#    0.000    0.000    0.000    0.000    0.000    0.000 
#
# Total GULP energy -446107.271245 kJ/mol
# GULP energy per Si atom -12391.868646 kJ/mol
# Density = 2.159231 g / cm^3
# Si number density = 21.641571 Si / 1000 Ang^3
#
#
#
# Elastic Constant Matrix: (Units=GPa)
#
#
# Indices 1 2 3 4 5 6 
#
# 1 70.8638 19.8690 36.3112 0.0000 0.0000 0.0000
# 2 19.8690 134.6664 23.1652 0.0000 0.0000 0.0000
# 3 36.3112 23.1652 70.0415 0.0000 0.0000 0.0000
# 4 0.0000 0.0000 0.0000 35.4485 0.0000 0.0000
# 5 0.0000 0.0000 0.0000 0.0000 38.8438 0.0000
# 6 0.0000 0.0000 0.0000 0.0000 0.0000 31.5509
#
#
#
# Elastic Compliance Matrix: (Units=1/GPa)
#
#
# Indices 1 2 3 4 5 6 
#
# 1 0.019398 -0.001200 -0.009659 0.000000 0.000000 0.000000
# 2 -0.001200 0.007948 -0.002006 0.000000 0.000000 0.000000
# 3 -0.009659 -0.002006 0.019948 0.000000 0.000000 0.000000
# 4 0.000000 0.000000 0.000000 0.028210 0.000000 0.000000
# 5 0.000000 0.000000 0.000000 0.000000 0.025744 0.000000
# 6 0.000000 0.000000 0.000000 0.000000 0.000000 0.031695
#
#
# Mechanical properties :
#
#
# Convention : Reuss Voigt Hill
#
# Bulk Modulus (GPa) = 46.37768 48.25138 47.31453
# Shear Modulus (GPa) = 30.14550 34.25037 32.19794
#
# Velocity S-wave (km/s) = 3.73627 3.98253 3.86136
# Velocity P-wave (km/s) = 6.33161 6.59481 6.46455
#
# Compressibility (1/GPa) = 0.02156210
#
# Stress axis : x y z
#
# Youngs Moduli (GPa) = 51.55274 125.81781 50.12939
#
# Poissons Ratio (x) = 0.15103 0.48421
# Poissons Ratio (y) = 0.06188 0.10058
# Poissons Ratio (z) = 0.49796 0.25244
#
# Static dielectric constant tensor:
#      x y z
#    x 3.675210 0.000000 0.000000 
#    y 0.000000 4.166920 0.000000 
#    z 0.000000 0.000000 3.815830 
# 
# 
# High freq. dielectric constant tensor:
#      x y z
#    x 1.816500 0.000000 0.000000 
#    y 0.000000 1.881140 0.000000 
#    z 0.000000 0.000000 1.828280 
# 
# From -- ./inp_files/20602.got.cif
#   From: 2010.03.12/outbox.cif.g09.slc.cpg/sg73_11_cif.got.tgz:20602.got - 2010.04.16 15:25:48.
