data_PCOD8295699
_publ_section_title
;
Structure prediction by ZEFSAII (Michael W. Deem and Ramdas Pophale) SiO2 
 PCOD8295699
Probable space group: I B C A 
;
_chemical_formula_sum "Si O2"
_cell_formula_units_Z 104
_cell_length_a 26.481399
_cell_length_b 13.314172
_cell_length_c 17.053635
_cell_angle_alpha 90.000000
_cell_angle_beta 90.000000
_cell_angle_gamma 90.000000
_cell_volume 6012.734834
_symmetry_space_group_name_H-M "I B C A "
_symmetry_group_IT_number 73
_symmetry_cell_setting 'orthorhombic'
loop_
_space_group_symop_operation_xyz
x,y,z
-x,1/2-y,z
x,-y,1/2-z
1/2-x,y,-z
-x,-y,-z
x,1/2+y,-z
-x,y,1/2+z
1/2+x,-y,z
1/2+x,1/2+y,1/2+z
1/2-x,-y,1/2+z
1/2+x,1/2-y,-z
-x,1/2+y,1/2-z
1/2-x,1/2-y,1/2-z
1/2+x,y,1/2-z
1/2-x,1/2+y,z
x,1/2-y,1/2+z
loop_
_atom_site_type_symbol
_atom_site_label
_atom_site_fract_x
_atom_site_fract_y
_atom_site_fract_z
Si Si1 0.108000 0.388970 0.245975
Si Si2 0.254195 0.251568 0.619144
Si Si3 0.000000 0.250000 0.994468
Si Si4 0.664455 0.753497 0.507039
Si Si5 0.775887 0.390774 0.751987
Si Si6 0.920380 0.117949 0.079210
Si Si7 0.086499 0.876400 0.580586
O O1 0.085123 0.500000 0.250000
O O2 0.166593 0.392334 0.224767
O O3 0.082434 0.339763 0.168955
O O4 0.097933 0.338068 0.330319
O O5 0.296235 0.211418 0.559314
O O6 0.199094 0.272872 0.582078
O O7 0.255197 0.173309 0.689962
O O8 0.271322 0.355951 0.657919
O O9 0.963868 0.316918 0.940839
O O10 0.970990 0.168010 0.046734
O O11 0.627541 0.845225 0.528296
O O12 0.632009 0.657319 0.477489
O O13 0.751511 0.500000 0.750000
O O14 0.921016 0.996512 0.074105
#
# Coordination Sequence:
#
# PCOD8295699 Si02
#       7
#    16  16   8  16  16  16  16
#     4   9  17  32  54  74  96 134 172 205 249 303
#     4  10  20  32  50  78 108 138 176 208 242 296
#     4  10  22  36  56  80 100 128 166 218 268 306
#     4  10  20  32  50  78 108 138 168 210 254 292
#     4  10  19  33  51  73 104 141 177 209 244 294
#     4  10  20  36  55  76 103 133 170 211 258 309
#     4  10  20  36  55  76 103 133 170 211 258 309
#
# _framework density 17.296623
#
# number of rings (size 3 to 8) (size 9 to 14) (size 15 to 20)
#    0.000    2.154    3.077    0.462    0.000    1.846 
#    0.000    3.077    0.000    0.000    0.000    4.308 
#    0.000    0.000    0.000    0.000    0.000    0.000 
#
# Total GULP energy -644348.384161 kJ/mol
# GULP energy per Si atom -12391.315080 kJ/mol
# Density = 1.725726 g / cm^3
# Si number density = 17.296623 Si / 1000 Ang^3
#
#
#
# Elastic Constant Matrix: (Units=GPa)
#
#
# Indices 1 2 3 4 5 6 
#
# 1 82.8089 34.2210 33.8660 0.0000 0.0000 0.0000
# 2 34.2210 90.4267 42.5308 0.0000 0.0000 0.0000
# 3 33.8660 42.5308 101.4532 0.0000 0.0000 0.0000
# 4 0.0000 0.0000 0.0000 19.7478 0.0000 0.0000
# 5 0.0000 0.0000 0.0000 0.0000 25.4721 0.0000
# 6 0.0000 0.0000 0.0000 0.0000 0.0000 19.8016
#
#
#
# Elastic Compliance Matrix: (Units=1/GPa)
#
#
# Indices 1 2 3 4 5 6 
#
# 1 0.015156 -0.004180 -0.003307 0.000000 0.000000 0.000000
# 2 -0.004180 0.014928 -0.004862 0.000000 0.000000 0.000000
# 3 -0.003307 -0.004862 0.012999 0.000000 0.000000 0.000000
# 4 0.000000 0.000000 0.000000 0.050639 0.000000 0.000000
# 5 0.000000 0.000000 0.000000 0.000000 0.039259 0.000000
# 6 0.000000 0.000000 0.000000 0.000000 0.000000 0.050501
#
#
# Mechanical properties :
#
#
# Convention : Reuss Voigt Hill
#
# Bulk Modulus (GPa) = 54.39660 55.10273 54.74966
# Shear Modulus (GPa) = 23.33095 23.94236 23.63666
#
# Velocity S-wave (km/s) = 3.67669 3.72455 3.70069
# Velocity P-wave (km/s) = 7.03858 7.10092 7.06982
#
# Compressibility (1/GPa) = 0.01838350
#
# Stress axis : x y z
#
# Youngs Moduli (GPa) = 65.98113 66.98973 76.92893
#
# Poissons Ratio (x) = 0.28004 0.25438
# Poissons Ratio (y) = 0.27582 0.37407
# Poissons Ratio (z) = 0.21818 0.32574
#
# Static dielectric constant tensor:
#      x y z
#    x 3.182130 0.000000 0.000000 
#    y 0.000000 3.141900 0.000000 
#    z 0.000000 0.000000 3.497410 
# 
# 
# High freq. dielectric constant tensor:
#      x y z
#    x 1.664470 0.000000 0.000000 
#    y 0.000000 1.650240 0.000000 
#    z 0.000000 0.000000 1.684100 
# 
# From -- ./inp_files/23919.got.cif
#   From: 2010.03.12/outbox.cif.g09.slc.cpg/sg73_12_cif.got.tgz:23919.got - 2010.04.16 15:25:48.
