data_PCOD8295847
_publ_section_title
;
Structure prediction by ZEFSAII (Michael W. Deem and Ramdas Pophale) SiO2 
 PCOD8295847
Probable space group: I B C A 
;
_chemical_formula_sum "Si O2"
_cell_formula_units_Z 104
_cell_length_a 21.175759
_cell_length_b 9.852386
_cell_length_c 24.244136
_cell_angle_alpha 90.000000
_cell_angle_beta 90.000000
_cell_angle_gamma 90.000000
_cell_volume 5058.096558
_symmetry_space_group_name_H-M "I B C A "
_symmetry_group_IT_number 73
_symmetry_cell_setting 'orthorhombic'
loop_
_space_group_symop_operation_xyz
x,y,z
-x,1/2-y,z
x,-y,1/2-z
1/2-x,y,-z
-x,-y,-z
x,1/2+y,-z
-x,y,1/2+z
1/2+x,-y,z
1/2+x,1/2+y,1/2+z
1/2-x,-y,1/2+z
1/2+x,1/2-y,-z
-x,1/2+y,1/2-z
1/2-x,1/2-y,1/2-z
1/2+x,y,1/2-z
1/2-x,1/2+y,z
x,1/2-y,1/2+z
loop_
_atom_site_type_symbol
_atom_site_label
_atom_site_fract_x
_atom_site_fract_y
_atom_site_fract_z
Si Si1 0.934866 0.000000 0.750000
Si Si2 0.149195 0.933355 0.351386
Si Si3 0.652101 0.812075 0.574261
Si Si4 0.785635 0.939314 0.111651
Si Si5 0.458235 0.133557 0.495844
Si Si6 0.250000 0.831981 0.500000
Si Si7 0.000000 0.250000 0.307173
Si Si8 0.894322 0.720307 0.108817
O O1 0.887608 0.928241 0.793523
O O2 0.981781 0.882930 0.728219
O O3 0.124442 0.813333 0.390809
O O4 0.226059 0.918984 0.346786
O O5 0.132178 0.072608 0.380007
O O6 0.596679 0.901502 0.547328
O O7 0.694025 0.763327 0.522475
O O8 0.686657 0.909394 0.618974
O O9 0.765679 0.936436 0.048133
O O10 0.834833 0.817760 0.115457
O O11 0.500000 0.250000 0.467795
O O12 0.430682 0.204854 0.551095
O O13 0.500000 0.000000 0.500000
O O14 0.940826 0.216783 0.345790
#
# Coordination Sequence:
#
# PCOD8295847 Si02
#       8
#     8  16  16  16  16   8   8  16
#     4  10  24  50  72  92 122 168 220 282 340 376
#     4  10  23  43  66  92 127 162 214 280 330 380
#     4  11  23  37  60  96 129 174 215 255 309 396
#     4  11  22  37  62  96 129 169 215 259 324 392
#     4  12  24  38  57  91 135 179 212 252 306 380
#     4  10  20  34  58  86 134 174 206 252 314 378
#     4  10  24  46  72  90 124 172 218 274 330 394
#     4  11  22  42  63  92 133 173 210 266 328 389
#
# _framework density 20.561094000000001
#
# number of rings (size 3 to 8) (size 9 to 14) (size 15 to 20)
#    0.000    1.231    2.308    4.154    4.308    1.231 
#    4.154    7.692    0.000    0.000    0.000    0.000 
#    0.000    0.000    0.000    0.000    0.000    0.000 
#
# Total GULP energy -644309.060161 kJ/mol
# GULP energy per Si atom -12390.558849 kJ/mol
# Density = 2.051430 g / cm^3
# Si number density = 20.561094 Si / 1000 Ang^3
#
#
#
# Elastic Constant Matrix: (Units=GPa)
#
#
# Indices 1 2 3 4 5 6 
#
# 1 125.0468 64.0613 55.9793 0.0000 0.0000 0.0000
# 2 64.0613 121.8738 38.9654 0.0000 0.0000 0.0000
# 3 55.9793 38.9654 86.1928 0.0000 0.0000 0.0000
# 4 0.0000 0.0000 0.0000 22.7006 0.0000 0.0000
# 5 0.0000 0.0000 0.0000 0.0000 -37.3205 0.0000
# 6 0.0000 0.0000 0.0000 0.0000 0.0000 45.2183
#
#
#
# Elastic Compliance Matrix: (Units=1/GPa)
#
#
# Indices 1 2 3 4 5 6 
#
# 1 0.013462 -0.005004 -0.006481 0.000000 0.000000 0.000000
# 2 -0.005004 0.011452 -0.001927 0.000000 0.000000 0.000000
# 3 -0.006481 -0.001927 0.016682 0.000000 0.000000 0.000000
# 4 0.000000 0.000000 0.000000 0.044052 0.000000 0.000000
# 5 0.000000 0.000000 0.000000 0.000000 -0.026795 0.000000
# 6 0.000000 0.000000 0.000000 0.000000 0.000000 0.022115
#
#
# Mechanical properties :
#
#
# Convention : Reuss Voigt Hill
#
# Bulk Modulus (GPa) = 67.69632 72.34726 70.02179
# Shear Modulus (GPa) = 44.35977 17.72684 31.04331
#
# Velocity S-wave (km/s) = 4.64989 2.93943 3.88984
# Velocity P-wave (km/s) = 7.86286 6.83983 7.36912
#
# Compressibility (1/GPa) = 0.01477185
#
# Stress axis : x y z
#
# Youngs Moduli (GPa) = 74.28448 87.32422 59.94441
#
# Poissons Ratio (x) = 0.43697 0.38849
# Poissons Ratio (y) = 0.37172 0.11552
# Poissons Ratio (z) = 0.48142 0.16828
#
# Static dielectric constant tensor:
#      x y z
#    x 3.580550 0.000000 0.000000 
#    y 0.000000 3.600770 0.000000 
#    z 0.000000 0.000000 3.586200 
# 
# 
# High freq. dielectric constant tensor:
#      x y z
#    x 1.822450 0.000000 0.000000 
#    y 0.000000 1.820440 0.000000 
#    z 0.000000 0.000000 1.772560 
# 
# From -- ./inp_files/30501.got.cif
#   From: 2010.03.12/outbox.cif.g09.slc.cpg/sg73_16_cif.got.tgz:30501.got - 2010.04.16 15:25:48.
