data_PCOD8295344
_publ_section_title
;
Structure prediction by ZEFSAII (Michael W. Deem and Ramdas Pophale) SiO2 
 PCOD8295344
Probable space group: I B A M
;
_chemical_formula_sum "Si O2"
_cell_formula_units_Z 96
_cell_length_a 19.302366
_cell_length_b 9.254834
_cell_length_c 26.260539
_cell_angle_alpha 90.000000
_cell_angle_beta 90.000000
_cell_angle_gamma 90.000000
_cell_volume 4691.187759
_symmetry_space_group_name_H-M "I B A M"
_symmetry_group_IT_number 72
_symmetry_cell_setting 'orthorhombic'
loop_
_space_group_symop_operation_xyz
x,y,z
-x,-y,z
x,-y,1/2-z
-x,y,1/2-z
-x,-y,-z
x,y,-z
-x,y,1/2+z
x,-y,1/2+z
1/2+x,1/2+y,1/2+z
1/2-x,1/2-y,1/2+z
1/2+x,1/2-y,-z
1/2-x,1/2+y,-z
1/2-x,1/2-y,1/2-z
1/2+x,1/2+y,1/2-z
1/2-x,1/2+y,z
1/2+x,1/2-y,z
loop_
_atom_site_type_symbol
_atom_site_label
_atom_site_fract_x
_atom_site_fract_y
_atom_site_fract_z
Si Si1 0.269518 0.203834 0.120507
Si Si2 0.379743 0.341655 0.808125
Si Si3 0.806121 0.426786 0.442020
Si Si4 0.535939 0.848444 0.445920
Si Si5 0.009589 0.672179 0.337131
Si Si6 0.640887 0.666405 0.694645
O O1 0.335344 0.277270 0.146256
O O2 0.245268 0.297275 0.072395
O O3 0.293729 0.051734 0.098731
O O4 0.210127 0.187235 0.162528
O O5 0.452918 0.258339 0.804716
O O6 0.340190 0.321993 0.754402
O O7 0.393060 0.511087 0.818337
O O8 0.791074 0.476405 0.500000
O O9 0.883269 0.369442 0.435503
O O10 0.525144 0.762103 0.500000
O O11 0.503150 0.772783 0.396240
O O12 0.500000 0.000000 0.453254
O O13 0.086067 0.708299 0.317445
O O14 0.000000 0.500000 0.332293
#
# Coordination Sequence:
#
# PCOD8295344 Si02
#       6
#    16  16  16  16  16  16
#     4  12  22  43  62  94 126 166 211 266 314 381
#     4  11  25  41  64  88 128 172 212 260 320 379
#     4  11  23  40  66  93 126 166 206 259 324 382
#     4   9  18  35  60  89 120 156 198 250 310 369
#     4  11  22  40  65  95 125 163 211 263 313 378
#     4  11  24  43  61  90 129 172 211 259 322 375
#
# _framework density 20.463899999999999
#
# number of rings (size 3 to 8) (size 9 to 14) (size 15 to 20)
#    0.000    1.167    3.333    4.000    0.000    2.667 
#    0.000    0.833    0.000    1.000    0.000    0.000 
#    0.000    0.000    0.000    0.000    0.000    0.000 
#
# Total GULP energy -595097.105032 kJ/mol
# GULP energy per Si atom -12397.856355 kJ/mol
# Density = 2.041732 g / cm^3
# Si number density = 20.463900 Si / 1000 Ang^3
#
#
#
# Elastic Constant Matrix: (Units=GPa)
#
#
# Indices 1 2 3 4 5 6 
#
# 1 44.1824 5.7195 16.4753 0.0000 0.0000 0.0000
# 2 5.7195 71.5549 14.5782 0.0000 0.0000 0.0000
# 3 16.4753 14.5782 96.4196 0.0000 0.0000 0.0000
# 4 0.0000 0.0000 0.0000 30.2293 0.0000 0.0000
# 5 0.0000 0.0000 0.0000 0.0000 38.1904 0.0000
# 6 0.0000 0.0000 0.0000 0.0000 0.0000 -2.3829
#
#
#
# Elastic Compliance Matrix: (Units=1/GPa)
#
#
# Indices 1 2 3 4 5 6 
#
# 1 0.024262 -0.001129 -0.003975 0.000000 0.000000 0.000000
# 2 -0.001129 0.014472 -0.001995 0.000000 0.000000 0.000000
# 3 -0.003975 -0.001995 0.011352 0.000000 0.000000 0.000000
# 4 0.000000 0.000000 0.000000 0.033080 0.000000 0.000000
# 5 0.000000 0.000000 0.000000 0.000000 0.026185 0.000000
# 6 0.000000 0.000000 0.000000 0.000000 0.000000 -0.419648
#
#
# Mechanical properties :
#
#
# Convention : Reuss Voigt Hill
#
# Bulk Modulus (GPa) = 27.86514 31.74478 29.80496
# Shear Modulus (GPa) = -17.59722 24.89961 3.65119
#
# Velocity S-wave (km/s) = -2.93561 3.49199 1.33719
# Velocity P-wave (km/s) = 1.46829 5.63958 4.12073
#
# Compressibility (1/GPa) = 0.03588714
#
# Stress axis : x y z
#
# Youngs Moduli (GPa) = 41.21693 69.09882 88.08878
#
# Poissons Ratio (x) = 0.07805 0.35014
# Poissons Ratio (y) = 0.04655 0.17575
# Poissons Ratio (z) = 0.16383 0.13786
#
# Static dielectric constant tensor:
#      x y z
#    x 3.594770 0.000000 0.000000 
#    y 0.000000 3.569410 0.000000 
#    z 0.000000 0.000000 4.256350 
# 
# 
# High freq. dielectric constant tensor:
#      x y z
#    x 1.801750 0.000000 0.000000 
#    y 0.000000 1.780630 0.000000 
#    z 0.000000 0.000000 1.823760 
# 
# From -- ./inp_files/49345.got.cif
#   From: 2010.03.12/outbox.cif.g09.slc.cpg/sg72_25_cif.got.tgz:49345.got - 2010.04.16 14:54:00.
