data_PCOD8295998
_publ_section_title
;
Structure prediction by ZEFSAII (Michael W. Deem and Ramdas Pophale) SiO2 
 PCOD8295998
Probable space group: I B C A 
;
_chemical_formula_sum "Si O2"
_cell_formula_units_Z 72
_cell_length_a 16.226591
_cell_length_b 16.455698
_cell_length_c 12.778042
_cell_angle_alpha 90.000000
_cell_angle_beta 90.000000
_cell_angle_gamma 90.000000
_cell_volume 3411.991255
_symmetry_space_group_name_H-M "I B C A "
_symmetry_group_IT_number 73
_symmetry_cell_setting 'orthorhombic'
loop_
_space_group_symop_operation_xyz
x,y,z
-x,1/2-y,z
x,-y,1/2-z
1/2-x,y,-z
-x,-y,-z
x,1/2+y,-z
-x,y,1/2+z
1/2+x,-y,z
1/2+x,1/2+y,1/2+z
1/2-x,-y,1/2+z
1/2+x,1/2-y,-z
-x,1/2+y,1/2-z
1/2-x,1/2-y,1/2-z
1/2+x,y,1/2-z
1/2-x,1/2+y,z
x,1/2-y,1/2+z
loop_
_atom_site_type_symbol
_atom_site_label
_atom_site_fract_x
_atom_site_fract_y
_atom_site_fract_z
Si Si1 0.691189 0.808190 0.152662
Si Si2 0.580624 0.894229 0.981959
Si Si3 0.750000 0.178240 0.000000
Si Si4 0.097909 0.081504 0.561441
Si Si5 0.140729 0.335302 0.270027
O O1 0.630293 0.758724 0.230526
O O2 0.762427 0.859802 0.210697
O O3 0.642397 0.863560 0.071744
O O4 0.744330 0.735387 0.100571
O O5 0.589356 0.841779 0.876930
O O6 0.603801 0.985970 0.955446
O O7 0.488528 0.883130 0.022232
O O8 0.831218 0.122643 0.991671
O O9 0.106487 0.101502 0.684304
#
# Coordination Sequence:
#
# PCOD8295998 Si02
#       5
#    16  16   8  16  16
#     4  10  21  41  69  99 128 172 221 264 334 382
#     4  11  22  46  67  94 136 176 211 282 326 387
#     4  10  20  40  60 100 126 168 212 266 320 392
#     4  10  25  41  67  99 132 171 222 262 339 386
#     4  10  21  42  68  96 131 169 223 267 316 403
#
# _framework density 21.102046999999999
#
# number of rings (size 3 to 8) (size 9 to 14) (size 15 to 20)
#    0.000    1.778    2.222    0.667    3.111    3.556 
#   16.000    0.000    0.000    0.000    0.000    0.000 
#    0.000    0.000    0.000    0.000    0.000    0.000 
#
# Total GULP energy -446282.097709 kJ/mol
# GULP energy per Si atom -12396.724936 kJ/mol
# Density = 2.105402 g / cm^3
# Si number density = 21.102047 Si / 1000 Ang^3
#
#
#
# Elastic Constant Matrix: (Units=GPa)
#
#
# Indices 1 2 3 4 5 6 
#
# 1 137.6201 64.2558 78.4805 0.0000 0.0000 0.0000
# 2 64.2558 76.8852 63.2104 0.0000 0.0000 0.0000
# 3 78.4805 63.2104 138.2092 0.0000 0.0000 0.0000
# 4 0.0000 0.0000 0.0000 35.4251 0.0000 0.0000
# 5 0.0000 0.0000 0.0000 0.0000 42.5672 0.0000
# 6 0.0000 0.0000 0.0000 0.0000 0.0000 33.5839
#
#
#
# Elastic Compliance Matrix: (Units=1/GPa)
#
#
# Indices 1 2 3 4 5 6 
#
# 1 0.013108 -0.007749 -0.003899 0.000000 0.000000 0.000000
# 2 -0.007749 0.025425 -0.007228 0.000000 0.000000 0.000000
# 3 -0.003899 -0.007228 0.012755 0.000000 0.000000 0.000000
# 4 0.000000 0.000000 0.000000 0.028229 0.000000 0.000000
# 5 0.000000 0.000000 0.000000 0.000000 0.023492 0.000000
# 6 0.000000 0.000000 0.000000 0.000000 0.000000 0.029776
#
#
# Mechanical properties :
#
#
# Convention : Reuss Voigt Hill
#
# Bulk Modulus (GPa) = 73.87837 84.95645 79.41741
# Shear Modulus (GPa) = 28.56320 32.09973 30.33147
#
# Velocity S-wave (km/s) = 3.68309 3.90444 3.79538
# Velocity P-wave (km/s) = 7.29198 7.78932 7.54475
#
# Compressibility (1/GPa) = 0.01353576
#
# Stress axis : x y z
#
# Youngs Moduli (GPa) = 76.28828 39.33105 78.39939
#
# Poissons Ratio (x) = 0.30479 0.30569
# Poissons Ratio (y) = 0.59119 0.56666
# Poissons Ratio (z) = 0.29746 0.28428
#
# Static dielectric constant tensor:
#      x y z
#    x 3.863820 0.000000 0.000000 
#    y 0.000000 3.772390 0.000000 
#    z 0.000000 0.000000 4.068010 
# 
# 
# High freq. dielectric constant tensor:
#      x y z
#    x 1.825100 0.000000 0.000000 
#    y 0.000000 1.817580 0.000000 
#    z 0.000000 0.000000 1.842270 
# 
# From -- ./inp_files/16777.got.cif
#   From: 2010.03.12/outbox.cif.g09.slc.cpg/sg73_9_cif.got.tgz:16777.got - 2010.04.16 15:25:48.
