data_PCOD8295250
_publ_section_title
;
Structure prediction by ZEFSAII (Michael W. Deem and Ramdas Pophale) SiO2 
 PCOD8295250
Probable space group: I B A M
;
_chemical_formula_sum "Si O2"
_cell_formula_units_Z 112
_cell_length_a 23.329099
_cell_length_b 14.162337
_cell_length_c 14.859082
_cell_angle_alpha 90.000000
_cell_angle_beta 90.000000
_cell_angle_gamma 90.000000
_cell_volume 4909.359888
_symmetry_space_group_name_H-M "I B A M"
_symmetry_group_IT_number 72
_symmetry_cell_setting 'orthorhombic'
loop_
_space_group_symop_operation_xyz
x,y,z
-x,-y,z
x,-y,1/2-z
-x,y,1/2-z
-x,-y,-z
x,y,-z
-x,y,1/2+z
x,-y,1/2+z
1/2+x,1/2+y,1/2+z
1/2-x,1/2-y,1/2+z
1/2+x,1/2-y,-z
1/2-x,1/2+y,-z
1/2-x,1/2-y,1/2-z
1/2+x,1/2+y,1/2-z
1/2-x,1/2+y,z
1/2+x,1/2-y,z
loop_
_atom_site_type_symbol
_atom_site_label
_atom_site_fract_x
_atom_site_fract_y
_atom_site_fract_z
Si Si1 0.638528 0.990589 0.357058
Si Si2 0.879268 0.709666 0.900332
Si Si3 0.758297 0.769139 0.145842
Si Si4 0.057796 0.774535 0.224768
Si Si5 0.846708 0.848805 0.597493
Si Si6 0.034355 0.595346 0.102032
Si Si7 0.764817 0.014869 0.354908
O O1 0.602768 0.076548 0.398498
O O2 0.702871 0.989422 0.396408
O O3 0.639683 0.000000 0.250000
O O4 0.603070 0.899280 0.390079
O O5 0.810550 0.707904 0.890549
O O6 0.909250 0.762545 0.818952
O O7 0.897413 0.747283 0.000000
O O8 0.750000 0.750000 0.250000
O O9 0.698957 0.736663 0.101552
O O10 0.775800 0.875996 0.122411
O O11 0.101334 0.836546 0.166510
O O12 0.030476 0.682783 0.172207
O O13 0.000000 0.832952 0.250000
O O14 0.875721 0.845997 0.500000
O O15 0.815126 0.949677 0.606825
O O16 0.000000 0.500000 0.134594
O O17 0.015232 0.624285 0.000000
O O18 0.762797 0.000000 0.250000
#
# Coordination Sequence:
#
# PCOD8295250 Si02
#       7
#    16  16  16  16  16  16  16
#     4  11  20  36  61  92 135 183 222 272 341 423
#     4  12  24  40  64  95 133 177 232 287 350 428
#     4  12  21  43  72 104 146 186 231 287 361 434
#     4  12  26  45  68  92 133 189 245 306 368 426
#     4  12  26  44  69 107 149 191 241 295 360 444
#     4  11  24  40  62  96 137 183 240 296 362 444
#     4  11  22  39  68 101 139 183 227 281 351 425
#
# _framework density 22.813566000000002
#
# number of rings (size 3 to 8) (size 9 to 14) (size 15 to 20)
#    0.000    0.429    5.714    3.857    0.000    4.000 
#    0.000    0.000    0.000    4.286    0.000    5.000 
#    0.000    0.000    0.000    0.000    0.000    0.000 
#
# Total GULP energy -693881.062498 kJ/mol
# GULP energy per Si atom -12390.733259 kJ/mol
# Density = 2.276164 g / cm^3
# Si number density = 22.813566 Si / 1000 Ang^3
#
#
#
# Elastic Constant Matrix: (Units=GPa)
#
#
# Indices 1 2 3 4 5 6 
#
# 1 138.5894 28.7935 44.8113 0.0000 0.0000 0.0000
# 2 28.7935 100.7863 21.7305 0.0000 0.0000 0.0000
# 3 44.8113 21.7305 161.7745 0.0000 0.0000 0.0000
# 4 0.0000 0.0000 0.0000 15.1199 0.0000 0.0000
# 5 0.0000 0.0000 0.0000 0.0000 18.4116 0.0000
# 6 0.0000 0.0000 0.0000 0.0000 0.0000 31.1297
#
#
#
# Elastic Compliance Matrix: (Units=1/GPa)
#
#
# Indices 1 2 3 4 5 6 
#
# 1 0.008273 -0.001925 -0.002033 0.000000 0.000000 0.000000
# 2 -0.001925 0.010666 -0.000899 0.000000 0.000000 0.000000
# 3 -0.002033 -0.000899 0.006865 0.000000 0.000000 0.000000
# 4 0.000000 0.000000 0.000000 0.066138 0.000000 0.000000
# 5 0.000000 0.000000 0.000000 0.000000 0.054314 0.000000
# 6 0.000000 0.000000 0.000000 0.000000 0.000000 0.032124
#
#
# Mechanical properties :
#
#
# Convention : Reuss Voigt Hill
#
# Bulk Modulus (GPa) = 62.15408 65.75785 63.95597
# Shear Modulus (GPa) = 25.84546 33.31991 29.58269
#
# Velocity S-wave (km/s) = 3.36951 3.82583 3.60490
# Velocity P-wave (km/s) = 6.51472 6.95720 6.73959
#
# Compressibility (1/GPa) = 0.01608905
#
# Stress axis : x y z
#
# Youngs Moduli (GPa) = 120.87709 93.75676 145.65806
#
# Poissons Ratio (x) = 0.18049 0.29612
# Poissons Ratio (y) = 0.23270 0.13101
# Poissons Ratio (z) = 0.24574 0.08433
#
# Static dielectric constant tensor:
#      x y z
#    x 4.409710 0.000000 0.000000 
#    y 0.000000 4.087720 0.000000 
#    z 0.000000 0.000000 4.130050 
# 
# 
# High freq. dielectric constant tensor:
#      x y z
#    x 1.906500 0.000000 0.000000 
#    y 0.000000 1.865110 0.000000 
#    z 0.000000 0.000000 1.913050 
# 
# From -- ./inp_files/25178.got.cif
#   From: 2010.03.12/outbox.cif.g09.slc.cpg/sg72_13_cif.got.tgz:25178.got - 2010.04.16 14:54:00.
