data_PCOD8295971
_publ_section_title
;
Structure prediction by ZEFSAII (Michael W. Deem and Ramdas Pophale) SiO2 
 PCOD8295971
Probable space group: I B C A 
;
_chemical_formula_sum "Si O2"
_cell_formula_units_Z 112
_cell_length_a 13.726078
_cell_length_b 26.211739
_cell_length_c 14.879263
_cell_angle_alpha 90.000000
_cell_angle_beta 90.000000
_cell_angle_gamma 90.000000
_cell_volume 5353.326324
_symmetry_space_group_name_H-M "I B C A "
_symmetry_group_IT_number 73
_symmetry_cell_setting 'orthorhombic'
loop_
_space_group_symop_operation_xyz
x,y,z
-x,1/2-y,z
x,-y,1/2-z
1/2-x,y,-z
-x,-y,-z
x,1/2+y,-z
-x,y,1/2+z
1/2+x,-y,z
1/2+x,1/2+y,1/2+z
1/2-x,-y,1/2+z
1/2+x,1/2-y,-z
-x,1/2+y,1/2-z
1/2-x,1/2-y,1/2-z
1/2+x,y,1/2-z
1/2-x,1/2+y,z
x,1/2-y,1/2+z
loop_
_atom_site_type_symbol
_atom_site_label
_atom_site_fract_x
_atom_site_fract_y
_atom_site_fract_z
Si Si1 0.225784 0.228151 0.898649
Si Si2 0.096778 0.677724 0.572090
Si Si3 0.539640 0.955266 0.817519
Si Si4 0.085278 0.212144 0.623535
Si Si5 0.913052 0.342488 0.807491
Si Si6 0.839822 0.071361 0.889238
Si Si7 0.169301 0.486716 0.057863
O O1 0.137167 0.268201 0.895968
O O2 0.319154 0.254530 0.853664
O O3 0.191509 0.179224 0.840660
O O4 0.250000 0.210890 0.000000
O O5 0.098017 0.675472 0.463116
O O6 0.167184 0.632883 0.609909
O O7 0.989924 0.670123 0.613674
O O8 0.594539 0.903141 0.792208
O O9 0.423477 0.947048 0.820463
O O10 0.565855 0.000000 0.750000
O O11 0.585806 0.975587 0.910052
O O12 0.055769 0.180523 0.711716
O O13 0.000000 0.250000 0.596662
O O14 0.734175 0.045436 0.867077
O O15 0.876417 0.054941 0.989395
O O16 0.250000 0.519276 0.000000
#
# Coordination Sequence:
#
# PCOD8295971 Si02
#       7
#    16  16  16  16  16  16  16
#     4  10  21  37  64  88 123 158 198 247 305 379
#     4  10  20  38  65  91 120 157 201 248 303 375
#     4  11  23  39  59  88 121 159 205 258 306 355
#     4  11  23  38  61  90 122 163 201 246 305 370
#     4  11  24  40  59  89 126 159 204 254 307 358
#     4   8  20  37  63  87 115 154 198 250 303 361
#     4   8  20  37  63  81 114 155 200 248 295 360
#
# _framework density 20.921571
#
# number of rings (size 3 to 8) (size 9 to 14) (size 15 to 20)
#    0.857    1.143    0.000    3.857    8.000    1.143 
#    0.000    4.286    0.000    0.000    0.000    0.000 
#    0.000    0.000    0.000    0.000    0.000    0.000 
#
# Total GULP energy -693831.816040 kJ/mol
# GULP energy per Si atom -12389.853858 kJ/mol
# Density = 2.087395 g / cm^3
# Si number density = 20.921571 Si / 1000 Ang^3
#
#
#
# Elastic Constant Matrix: (Units=GPa)
#
#
# Indices 1 2 3 4 5 6 
#
# 1 57.9059 31.8953 16.9239 0.0000 0.0000 0.0000
# 2 31.8953 117.2215 30.1406 0.0002 0.0000 0.0000
# 3 16.9239 30.1406 57.5608 0.0002 0.0001 0.0000
# 4 0.0000 0.0002 0.0002 31.2323 0.0000 0.0000
# 5 0.0000 0.0000 0.0001 0.0000 17.2992 0.0000
# 6 0.0000 0.0000 0.0000 0.0000 0.0000 21.3098
#
#
#
# Elastic Compliance Matrix: (Units=1/GPa)
#
#
# Indices 1 2 3 4 5 6 
#
# 1 0.020964 -0.004760 -0.003671 0.000000 0.000000 0.000000
# 2 -0.004760 0.010939 -0.004328 0.000000 0.000000 0.000000
# 3 -0.003671 -0.004328 0.020719 0.000000 0.000000 0.000000
# 4 0.000000 0.000000 0.000000 0.032018 0.000000 0.000000
# 5 0.000000 0.000000 0.000000 0.000000 0.057806 0.000000
# 6 0.000000 0.000000 0.000000 0.000000 0.000000 0.046927
#
#
# Mechanical properties :
#
#
# Convention : Reuss Voigt Hill
#
# Bulk Modulus (GPa) = 36.89720 43.40086 40.14903
# Shear Modulus (GPa) = 22.32868 24.21684 23.27276
#
# Velocity S-wave (km/s) = 3.27043 3.40590 3.33886
# Velocity P-wave (km/s) = 5.65113 6.02134 5.83917
#
# Compressibility (1/GPa) = 0.02710233
#
# Stress axis : x y z
#
# Youngs Moduli (GPa) = 47.69986 91.41562 48.26530
#
# Poissons Ratio (x) = 0.43517 0.17719
# Poissons Ratio (y) = 0.22707 0.20891
# Poissons Ratio (z) = 0.17512 0.39568
#
# Static dielectric constant tensor:
#      x y z
#    x 3.671940 0.000000 0.000000 
#    y 0.000000 3.666830 0.000000 
#    z 0.000000 0.000000 3.401340 
# 
# 
# High freq. dielectric constant tensor:
#      x y z
#    x 1.816370 0.000000 0.000000 
#    y 0.000000 1.809370 0.000000 
#    z 0.000000 0.000000 1.805690 
# 
# From -- ./inp_files/17384.got.cif
#   From: 2010.03.12/outbox.cif.g09.slc.cpg/sg73_9_cif.got.tgz:17384.got - 2010.04.16 15:25:48.
