data_PCOD8295315
_publ_section_title
;
Structure prediction by ZEFSAII (Michael W. Deem and Ramdas Pophale) SiO2 
 PCOD8295315
Probable space group: I B A M
;
_chemical_formula_sum "Si O2"
_cell_formula_units_Z 80
_cell_length_a 8.731999
_cell_length_b 27.534499
_cell_length_c 16.992133
_cell_angle_alpha 90.000000
_cell_angle_beta 90.000000
_cell_angle_gamma 90.000000
_cell_volume 4085.439229
_symmetry_space_group_name_H-M "I B A M"
_symmetry_group_IT_number 72
_symmetry_cell_setting 'orthorhombic'
loop_
_space_group_symop_operation_xyz
x,y,z
-x,-y,z
x,-y,1/2-z
-x,y,1/2-z
-x,-y,-z
x,y,-z
-x,y,1/2+z
x,-y,1/2+z
1/2+x,1/2+y,1/2+z
1/2-x,1/2-y,1/2+z
1/2+x,1/2-y,-z
1/2-x,1/2+y,-z
1/2-x,1/2-y,1/2-z
1/2+x,1/2+y,1/2-z
1/2-x,1/2+y,z
1/2+x,1/2-y,z
loop_
_atom_site_type_symbol
_atom_site_label
_atom_site_fract_x
_atom_site_fract_y
_atom_site_fract_z
Si Si1 0.748706 0.274062 0.090791
Si Si2 0.649945 0.905012 0.712506
Si Si3 0.605418 0.639740 0.677668
Si Si4 0.940740 0.950585 0.338684
Si Si5 0.943629 0.695540 0.837379
O O1 0.635224 0.316643 0.118731
O O2 0.708647 0.225975 0.141136
O O3 0.924092 0.289527 0.101849
O O4 0.717581 0.263503 0.000000
O O5 0.500000 0.931340 0.750000
O O6 0.737075 0.880592 0.786253
O O7 0.755321 0.943957 0.664547
O O8 0.597869 0.861493 0.654448
O O9 0.500000 0.657803 0.750000
O O10 0.519769 0.597642 0.625658
O O11 0.000000 0.952524 0.250000
O O12 0.000000 0.000000 0.382199
O O13 0.000000 0.708209 0.750000
#
# Coordination Sequence:
#
# PCOD8295315 Si02
#       5
#    16  16  16  16  16
#     4  12  24  36  51  81 114 146 189 240 284 323
#     4   9  16  31  54  79 107 142 193 221 272 330
#     4   9  18  33  55  78 108 148 182 223 277 337
#     4   8  16  30  52  83 114 135 175 235 285 321
#     4  11  22  36  56  77 108 153 195 228 270 339
#
# _framework density 19.581737
#
# number of rings (size 3 to 8) (size 9 to 14) (size 15 to 20)
#    0.000    2.600    4.000    1.800    5.600    0.000 
#    0.000    8.000    0.000    0.600    0.000    1.400 
#    0.000    0.000    0.000    0.000    0.000    0.000 
#
# Total GULP energy -495662.808515 kJ/mol
# GULP energy per Si atom -12391.570213 kJ/mol
# Density = 1.953717 g / cm^3
# Si number density = 19.581737 Si / 1000 Ang^3
#
#
#
# Elastic Constant Matrix: (Units=GPa)
#
#
# Indices 1 2 3 4 5 6 
#
# 1 130.1862 42.9917 10.4262 0.0000 0.0000 0.0000
# 2 42.9917 97.0827 10.5091 0.0000 0.0000 0.0000
# 3 10.4262 10.5091 52.7926 0.0001 0.0000 -0.0001
# 4 0.0000 0.0000 0.0001 2.6603 0.0000 0.0000
# 5 0.0000 0.0000 0.0000 0.0000 19.1348 0.0000
# 6 0.0000 0.0000 -0.0001 0.0000 0.0000 33.6885
#
#
#
# Elastic Compliance Matrix: (Units=1/GPa)
#
#
# Indices 1 2 3 4 5 6 
#
# 1 0.009050 -0.003898 -0.001011 0.000000 0.000000 0.000000
# 2 -0.003898 0.012206 -0.001660 0.000000 0.000000 0.000000
# 3 -0.001011 -0.001660 0.019472 0.000000 0.000000 0.000000
# 4 0.000000 0.000000 0.000000 0.375901 0.000000 0.000000
# 5 0.000000 0.000000 0.000000 0.000000 0.052261 0.000000
# 6 0.000000 0.000000 0.000000 0.000000 0.000000 0.029684
#
#
# Mechanical properties :
#
#
# Convention : Reuss Voigt Hill
#
# Bulk Modulus (GPa) = 36.24561 45.32394 40.78478
# Shear Modulus (GPa) = 9.59860 25.50569 17.55215
#
# Velocity S-wave (km/s) = 2.21641 3.61297 2.99716
# Velocity P-wave (km/s) = 5.00999 6.37189 5.73154
#
# Compressibility (1/GPa) = 0.02758955
#
# Stress axis : x y z
#
# Youngs Moduli (GPa) = 110.50285 81.92444 51.35525
#
# Poissons Ratio (x) = 0.31934 0.05193
# Poissons Ratio (y) = 0.43074 0.08525
# Poissons Ratio (z) = 0.11175 0.13600
#
# Static dielectric constant tensor:
#      x y z
#    x 3.914240 0.000000 0.000000 
#    y 0.000000 4.449780 0.000000 
#    z 0.000000 0.000000 2.919700 
# 
# 
# High freq. dielectric constant tensor:
#      x y z
#    x 1.782730 0.000000 0.000000 
#    y 0.000000 1.758650 0.000000 
#    z 0.000000 0.000000 1.692510 
# 
# From -- ./inp_files/28332.got.cif
#   From: 2010.03.12/outbox.cif.g09.slc.cpg/sg72_15_cif.got.tgz:28332.got - 2010.04.16 14:54:00.
