data_PCOD8295678
_publ_section_title
;
Structure prediction by ZEFSAII (Michael W. Deem and Ramdas Pophale) SiO2 
 PCOD8295678
Probable space group: I B C A 
;
_chemical_formula_sum "Si O2"
_cell_formula_units_Z 72
_cell_length_a 12.566103
_cell_length_b 33.163655
_cell_length_c 8.545223
_cell_angle_alpha 90.000000
_cell_angle_beta 90.000000
_cell_angle_gamma 90.000000
_cell_volume 3561.118327
_symmetry_space_group_name_H-M "I B C A "
_symmetry_group_IT_number 73
_symmetry_cell_setting 'orthorhombic'
loop_
_space_group_symop_operation_xyz
x,y,z
-x,1/2-y,z
x,-y,1/2-z
1/2-x,y,-z
-x,-y,-z
x,1/2+y,-z
-x,y,1/2+z
1/2+x,-y,z
1/2+x,1/2+y,1/2+z
1/2-x,-y,1/2+z
1/2+x,1/2-y,-z
-x,1/2+y,1/2-z
1/2-x,1/2-y,1/2-z
1/2+x,y,1/2-z
1/2-x,1/2+y,z
x,1/2-y,1/2+z
loop_
_atom_site_type_symbol
_atom_site_label
_atom_site_fract_x
_atom_site_fract_y
_atom_site_fract_z
Si Si1 0.000000 0.250000 0.701800
Si Si2 0.750000 0.868262 0.000000
Si Si3 0.866588 0.932576 0.808120
Si Si4 0.564142 0.040814 0.971932
Si Si5 0.274935 0.000000 0.250000
Si Si6 0.363600 0.208728 0.043121
O O1 0.053469 0.284576 0.597109
O O2 0.091448 0.228245 0.800179
O O3 0.705947 0.894466 0.145389
O O4 0.655075 0.839481 0.934255
O O5 0.886449 0.937007 0.622122
O O6 0.979169 0.928560 0.895783
O O7 0.802270 0.973058 0.861291
O O8 0.657281 0.031820 0.849155
O O9 0.500000 0.000000 0.000000
O O10 0.250000 0.229539 0.000000
#
# Coordination Sequence:
#
# PCOD8295678 Si02
#       6
#     8   8  16  16   8  16
#     4  10  18  40  80 100 126 184 218 260 330 410
#     4  10  26  42  60  92 146 162 208 284 344 384
#     4  12  25  40  62  88 125 169 215 280 334 391
#     4  12  22  39  63  88 112 162 231 276 327 386
#     4  12  22  40  68  84 116 168 234 284 324 382
#     4   9  21  40  68 103 137 166 221 271 324 415
#
# _framework density 20.218368000000002
#
# number of rings (size 3 to 8) (size 9 to 14) (size 15 to 20)
#    0.667    0.444    4.444    2.667    0.000    1.778 
#    0.000    0.000    9.778    0.000    0.000    0.000 
#    0.000    0.000    0.000    0.000    0.000    0.000 
#
# Total GULP energy -446177.778697 kJ/mol
# GULP energy per Si atom -12393.827186 kJ/mol
# Density = 2.017235 g / cm^3
# Si number density = 20.218368 Si / 1000 Ang^3
#
#
#
# Elastic Constant Matrix: (Units=GPa)
#
#
# Indices 1 2 3 4 5 6 
#
# 1 132.9939 50.2884 60.9253 0.0057 0.0036 -0.0019
# 2 50.2884 114.4700 46.9763 0.0062 0.0056 -0.0016
# 3 60.9253 46.9763 125.2933 -0.0206 0.0057 -0.0032
# 4 0.0057 0.0062 -0.0206 19.8485 0.0207 -0.0024
# 5 0.0036 0.0056 0.0057 0.0207 36.9300 -0.0030
# 6 -0.0019 -0.0016 -0.0032 -0.0024 -0.0030 37.1630
#
#
#
# Elastic Compliance Matrix: (Units=1/GPa)
#
#
# Indices 1 2 3 4 5 6 
#
# 1 0.010461 -0.002964 -0.003975 -0.000006 0.000000 0.000000
# 2 -0.002964 0.011164 -0.002744 -0.000005 -0.000001 0.000000
# 3 -0.003975 -0.002744 0.010943 0.000013 -0.000001 0.000001
# 4 -0.000006 -0.000005 0.000013 0.050382 -0.000028 0.000003
# 5 0.000000 -0.000001 -0.000001 -0.000028 0.027078 0.000002
# 6 0.000000 0.000000 0.000001 0.000003 0.000002 0.026909
#
#
# Mechanical properties :
#
#
# Convention : Reuss Voigt Hill
#
# Bulk Modulus (GPa) = 75.75447 76.57081 76.16264
# Shear Modulus (GPa) = 31.11265 33.09275 32.10270
#
# Velocity S-wave (km/s) = 3.92705 4.05009 3.98904
# Velocity P-wave (km/s) = 7.62311 7.73467 7.67909
#
# Compressibility (1/GPa) = 0.01320054
#
# Stress axis : x y z
#
# Youngs Moduli (GPa) = 95.59122 89.56994 91.37942
#
# Poissons Ratio (x) = 0.26551 0.36328
# Poissons Ratio (y) = 0.28336 0.25079
# Poissons Ratio (z) = 0.38002 0.24582
#
# Static dielectric constant tensor:
#      x y z
#    x 4.222050 0.000000 0.000020 
#    y 0.000000 3.335300 -0.000020 
#    z 0.000020 -0.000020 3.635640 
# 
# 
# High freq. dielectric constant tensor:
#      x y z
#    x 1.815820 0.000000 0.000000 
#    y 0.000000 1.749470 0.000000 
#    z 0.000000 0.000000 1.788810 
# 
# From -- ./inp_files/4908.got.cif
#   From: 2010.03.12/outbox.cif.g09.slc.cpg/sg73_3_cif.got.tgz:4908.got - 2010.04.16 15:25:48.
