data_PCOD8295392
_publ_section_title
;
Structure prediction by ZEFSAII (Michael W. Deem and Ramdas Pophale) SiO2 
 PCOD8295392
Probable space group: I B A M
;
_chemical_formula_sum "Si O2"
_cell_formula_units_Z 64
_cell_length_a 14.737561
_cell_length_b 8.496488
_cell_length_c 22.013740
_cell_angle_alpha 90.000000
_cell_angle_beta 90.000000
_cell_angle_gamma 90.000000
_cell_volume 2756.505713
_symmetry_space_group_name_H-M "I B A M"
_symmetry_group_IT_number 72
_symmetry_cell_setting 'orthorhombic'
loop_
_space_group_symop_operation_xyz
x,y,z
-x,-y,z
x,-y,1/2-z
-x,y,1/2-z
-x,-y,-z
x,y,-z
-x,y,1/2+z
x,-y,1/2+z
1/2+x,1/2+y,1/2+z
1/2-x,1/2-y,1/2+z
1/2+x,1/2-y,-z
1/2-x,1/2+y,-z
1/2-x,1/2-y,1/2-z
1/2+x,1/2+y,1/2-z
1/2-x,1/2+y,z
1/2+x,1/2-y,z
loop_
_atom_site_type_symbol
_atom_site_label
_atom_site_fract_x
_atom_site_fract_y
_atom_site_fract_z
Si Si1 0.646342 0.500000 0.750000
Si Si2 0.360697 0.688753 0.929819
Si Si3 0.798490 0.872409 0.623258
Si Si4 0.000000 0.752020 0.750000
Si Si5 0.469296 0.167448 0.879363
O O1 0.704610 0.564476 0.806968
O O2 0.583399 0.640989 0.726292
O O3 0.302002 0.814057 0.891379
O O4 0.326356 0.512210 0.921222
O O5 0.464105 0.700318 0.906557
O O6 0.354083 0.734136 0.000000
O O7 0.866655 0.726280 0.608852
O O8 0.974086 0.646026 0.693156
O O9 0.500000 0.000000 0.908846
#
# Coordination Sequence:
#
# PCOD8295392 Si02
#       5
#     8  16  16   8  16
#     4   9  18  38  68  96 133 168 222 277 346 398
#     4  12  26  44  66  97 136 182 233 280 341 414
#     4  11  24  44  68  99 136 179 229 289 343 405
#     4   9  17  38  66  98 134 166 216 278 334 410
#     4  11  23  42  67  99 134 179 222 281 346 407
#
# _framework density 23.217801000000001
#
# number of rings (size 3 to 8) (size 9 to 14) (size 15 to 20)
#    0.000    1.250    2.500    3.375    0.000    4.500 
#    4.500    0.000    0.000    0.000    0.000    0.000 
#    0.000    0.000    0.000    0.000    0.000    0.000 
#
# Total GULP energy -396760.006193 kJ/mol
# GULP energy per Si atom -12398.750194 kJ/mol
# Density = 2.316496 g / cm^3
# Si number density = 23.217801 Si / 1000 Ang^3
#
#
#
# Elastic Constant Matrix: (Units=GPa)
#
#
# Indices 1 2 3 4 5 6 
#
# 1 60.1106 -7.8494 33.2712 0.0000 0.0000 0.0000
# 2 -7.8494 79.0557 12.0168 0.0000 0.0000 0.0000
# 3 33.2712 12.0168 112.9625 0.0000 0.0000 0.0000
# 4 0.0000 0.0000 0.0000 28.9601 0.0000 0.0000
# 5 0.0000 0.0000 0.0000 0.0000 23.7835 0.0000
# 6 0.0000 0.0000 0.0000 0.0000 0.0000 33.1764
#
#
#
# Elastic Compliance Matrix: (Units=1/GPa)
#
#
# Indices 1 2 3 4 5 6 
#
# 1 0.020558 0.003010 -0.006375 0.000000 0.000000 0.000000
# 2 0.003010 0.013298 -0.002301 0.000000 0.000000 0.000000
# 3 -0.006375 -0.002301 0.010975 0.000000 0.000000 0.000000
# 4 0.000000 0.000000 0.000000 0.034530 0.000000 0.000000
# 5 0.000000 0.000000 0.000000 0.000000 0.042046 0.000000
# 6 0.000000 0.000000 0.000000 0.000000 0.000000 0.030142
#
#
# Mechanical properties :
#
#
# Convention : Reuss Voigt Hill
#
# Bulk Modulus (GPa) = 29.85222 36.33402 33.09312
# Shear Modulus (GPa) = 28.72783 31.49668 30.11225
#
# Velocity S-wave (km/s) = 3.52137 3.68717 3.60522
# Velocity P-wave (km/s) = 5.42391 5.81465 5.62267
#
# Compressibility (1/GPa) = 0.03349835
#
# Stress axis : x y z
#
# Youngs Moduli (GPa) = 48.64354 75.19934 91.11628
#
# Poissons Ratio (x) = -0.22637 0.58088
# Poissons Ratio (y) = -0.14643 0.20968
# Poissons Ratio (z) = 0.31011 0.17305
#
# Static dielectric constant tensor:
#      x y z
#    x 4.004570 0.000000 0.000000 
#    y 0.000000 4.059010 0.000000 
#    z 0.000000 0.000000 3.962260 
# 
# 
# High freq. dielectric constant tensor:
#      x y z
#    x 1.911070 0.000000 0.000000 
#    y 0.000000 1.921380 0.000000 
#    z 0.000000 0.000000 1.909580 
# 
# From -- ./inp_files/38677.got.cif
#   From: 2010.03.12/outbox.cif.g09.slc.cpg/sg72_20_cif.got.tgz:38677.got - 2010.04.16 14:54:00.
