data_PCOD8295123
_publ_section_title
;
Structure prediction by ZEFSAII (Michael W. Deem and Ramdas Pophale) SiO2 
 PCOD8295123
Probable space group: I B A M
;
_chemical_formula_sum "Si O2"
_cell_formula_units_Z 116
_cell_length_a 22.170513
_cell_length_b 27.476888
_cell_length_c 8.753547
_cell_angle_alpha 90.000000
_cell_angle_beta 90.000000
_cell_angle_gamma 90.000000
_cell_volume 5332.456898
_symmetry_space_group_name_H-M "I B A M"
_symmetry_group_IT_number 72
_symmetry_cell_setting 'orthorhombic'
loop_
_space_group_symop_operation_xyz
x,y,z
-x,-y,z
x,-y,1/2-z
-x,y,1/2-z
-x,-y,-z
x,y,-z
-x,y,1/2+z
x,-y,1/2+z
1/2+x,1/2+y,1/2+z
1/2-x,1/2-y,1/2+z
1/2+x,1/2-y,-z
1/2-x,1/2+y,-z
1/2-x,1/2-y,1/2-z
1/2+x,1/2+y,1/2-z
1/2-x,1/2+y,z
1/2+x,1/2-y,z
loop_
_atom_site_type_symbol
_atom_site_label
_atom_site_fract_x
_atom_site_fract_y
_atom_site_fract_z
Si Si1 0.561052 0.284042 0.178462
Si Si2 0.093559 0.311156 0.327858
Si Si3 0.266100 0.801534 0.321856
Si Si4 0.658402 0.647623 0.180779
Si Si5 0.090557 0.417621 0.666701
Si Si6 0.800039 0.549095 0.177372
Si Si7 0.000000 0.500000 0.750000
Si Si8 0.827470 0.948768 0.180332
O O1 0.500000 0.306002 0.250000
O O2 0.563596 0.226169 0.209189
O O3 0.617315 0.308473 0.261835
O O4 0.563258 0.295134 0.000000
O O5 0.083565 0.290943 0.500000
O O6 0.164818 0.315583 0.294123
O O7 0.061176 0.364018 0.309135
O O8 0.248963 0.800653 0.500000
O O9 0.250000 0.750000 0.250000
O O10 0.226591 0.842538 0.236467
O O11 0.634361 0.596424 0.251747
O O12 0.656756 0.644243 0.000000
O O13 0.122301 0.418092 0.500000
O O14 0.141903 0.417154 0.797422
O O15 0.042646 0.462134 0.659693
O O16 0.825868 0.500000 0.250000
O O17 0.741002 0.563040 0.272010
O O18 0.782499 0.545135 0.000000
O O19 0.849919 0.000000 0.250000
O O20 0.834501 0.951258 0.000000
#
# Coordination Sequence:
#
# PCOD8295123 Si02
#       8
#    16  16  16  16  16  16   4  16
#     4  12  26  45  68  94 127 169 218 267 322 386
#     4  10  23  42  64  91 125 167 214 271 336 401
#     4  11  21  36  62  96 134 173 214 268 333 399
#     4  12  24  41  66  98 136 176 219 266 323 390
#     4  11  24  42  61  83 117 159 212 275 335 394
#     4  11  21  36  59  86 119 160 206 256 317 384
#     4  12  26  40  64  90 118 164 226 288 350 396
#     4  11  22  39  64  97 134 170 210 257 316 381
#
# _framework density 21.753575000000001
#
# number of rings (size 3 to 8) (size 9 to 14) (size 15 to 20)
#    0.000    0.828    2.069    7.241    0.966    2.759 
#    0.000    0.000    0.000    0.414    0.000    2.897 
#    0.000    0.000    0.000    0.000    0.000    0.000 
#
# Total GULP energy -718944.488493 kJ/mol
# GULP energy per Si atom -12395.594629 kJ/mol
# Density = 2.170406 g / cm^3
# Si number density = 21.753575 Si / 1000 Ang^3
#
#
#
# Elastic Constant Matrix: (Units=GPa)
#
#
# Indices 1 2 3 4 5 6 
#
# 1 50.7660 8.1094 20.4737 0.0000 0.0000 0.0000
# 2 8.1094 134.2637 43.1298 0.0000 0.0000 0.0000
# 3 20.4737 43.1298 169.6994 0.0000 0.0000 0.0000
# 4 0.0000 0.0000 0.0000 35.6643 0.0000 0.0000
# 5 0.0000 0.0000 0.0000 0.0000 25.9201 0.0000
# 6 0.0000 0.0000 0.0000 0.0000 0.0000 20.1627
#
#
#
# Elastic Compliance Matrix: (Units=1/GPa)
#
#
# Indices 1 2 3 4 5 6 
#
# 1 0.020735 -0.000489 -0.002377 0.000000 0.000000 0.000000
# 2 -0.000489 0.008122 -0.002005 0.000000 0.000000 0.000000
# 3 -0.002377 -0.002005 0.006689 0.000000 0.000000 0.000000
# 4 0.000000 0.000000 0.000000 0.028039 0.000000 0.000000
# 5 0.000000 0.000000 0.000000 0.000000 0.038580 0.000000
# 6 0.000000 0.000000 0.000000 0.000000 0.000000 0.049597
#
#
# Mechanical properties :
#
#
# Convention : Reuss Voigt Hill
#
# Bulk Modulus (GPa) = 38.75455 55.35054 47.05255
# Shear Modulus (GPa) = 29.39349 35.21717 32.30533
#
# Velocity S-wave (km/s) = 3.67986 4.02794 3.85783
# Velocity P-wave (km/s) = 5.99242 6.86527 6.44364
#
# Compressibility (1/GPa) = 0.02580342
#
# Stress axis : x y z
#
# Youngs Moduli (GPa) = 48.22737 123.12729 149.49399
#
# Poissons Ratio (x) = 0.06017 0.35541
# Poissons Ratio (y) = 0.02357 0.29977
# Poissons Ratio (z) = 0.11466 0.24689
#
# Static dielectric constant tensor:
#      x y z
#    x 3.666410 0.000000 0.000000 
#    y 0.000000 3.725730 0.000000 
#    z 0.000000 0.000000 3.870280 
# 
# 
# High freq. dielectric constant tensor:
#      x y z
#    x 1.826150 0.000000 0.000000 
#    y 0.000000 1.871460 0.000000 
#    z 0.000000 0.000000 1.860060 
# 
# From -- ./inp_files/7255.got.cif
#   From: 2010.03.12/outbox.cif.g09.slc.cpg/sg72_4_cif.got.tgz:7255.got - 2010.04.16 14:54:00.
