data_PCOD8295982
_publ_section_title
;
Structure prediction by ZEFSAII (Michael W. Deem and Ramdas Pophale) SiO2 
 PCOD8295982
Probable space group: I B C A 
;
_chemical_formula_sum "Si O2"
_cell_formula_units_Z 104
_cell_length_a 9.271433
_cell_length_b 24.864265
_cell_length_c 22.988237
_cell_angle_alpha 90.000000
_cell_angle_beta 90.000000
_cell_angle_gamma 90.000000
_cell_volume 5299.417749
_symmetry_space_group_name_H-M "I B C A "
_symmetry_group_IT_number 73
_symmetry_cell_setting 'orthorhombic'
loop_
_space_group_symop_operation_xyz
x,y,z
-x,1/2-y,z
x,-y,1/2-z
1/2-x,y,-z
-x,-y,-z
x,1/2+y,-z
-x,y,1/2+z
1/2+x,-y,z
1/2+x,1/2+y,1/2+z
1/2-x,-y,1/2+z
1/2+x,1/2-y,-z
-x,1/2+y,1/2-z
1/2-x,1/2-y,1/2-z
1/2+x,y,1/2-z
1/2-x,1/2+y,z
x,1/2-y,1/2+z
loop_
_atom_site_type_symbol
_atom_site_label
_atom_site_fract_x
_atom_site_fract_y
_atom_site_fract_z
Si Si1 0.250000 0.769605 0.000000
Si Si2 0.794428 0.398324 0.184109
Si Si3 0.172513 0.506300 0.116045
Si Si4 0.001290 0.353564 0.491344
Si Si5 0.084483 0.535201 0.545102
Si Si6 0.913977 0.942760 0.278080
Si Si7 0.228933 0.328239 0.580670
O O1 0.394967 0.802959 0.990685
O O2 0.225073 0.733733 0.941491
O O3 0.772063 0.444979 0.137036
O O4 0.682860 0.405633 0.236614
O O5 0.780344 0.340440 0.150249
O O6 0.952409 0.404111 0.210386
O O7 0.251578 0.483360 0.058101
O O8 0.169504 0.457615 0.162603
O O9 0.012422 0.529326 0.103827
O O10 0.090449 0.357912 0.551641
O O11 0.118008 0.351515 0.439796
O O12 0.903489 0.405098 0.479977
O O13 0.000000 0.500000 0.500000
O O14 0.961222 0.000000 0.250000
#
# Coordination Sequence:
#
# PCOD8295982 Si02
#       7
#     8  16  16  16  16  16  16
#     4  10  22  40  62  96 118 154 208 252 304 378
#     4  11  21  37  58  83 115 159 205 258 303 350
#     4  11  22  37  53  83 128 168 196 239 298 364
#     4  10  22  37  59  90 124 160 195 234 305 386
#     4  12  24  34  55  90 136 163 190 233 295 379
#     4  10  22  36  56  82 120 159 214 252 299 372
#     4  10  20  39  61  81 119 155 202 258 308 352
#
# _framework density 19.624797999999998
#
# number of rings (size 3 to 8) (size 9 to 14) (size 15 to 20)
#    0.000    1.538    3.077    4.615    6.462    0.000 
#    0.000    0.000    0.000    0.000    0.000   22.615 
#    0.000    0.000    0.000    0.000    0.000    0.000 
#
# Total GULP energy -644517.918380 kJ/mol
# GULP energy per Si atom -12394.575353 kJ/mol
# Density = 1.958013 g / cm^3
# Si number density = 19.624798 Si / 1000 Ang^3
#
#
#
# Elastic Constant Matrix: (Units=GPa)
#
#
# Indices 1 2 3 4 5 6 
#
# 1 104.3961 38.3164 31.2608 0.0000 0.0000 0.0000
# 2 38.3164 96.7935 38.8239 0.0000 0.0000 0.0000
# 3 31.2608 38.8239 88.3623 0.0000 0.0000 0.0000
# 4 0.0000 0.0000 0.0000 25.6823 0.0000 0.0000
# 5 0.0000 0.0000 0.0000 0.0000 29.9266 0.0000
# 6 0.0000 0.0000 0.0000 0.0000 0.0000 29.8654
#
#
#
# Elastic Compliance Matrix: (Units=1/GPa)
#
#
# Indices 1 2 3 4 5 6 
#
# 1 0.011661 -0.003595 -0.002546 0.000000 0.000000 0.000000
# 2 -0.003595 0.013650 -0.004726 0.000000 0.000000 0.000000
# 3 -0.002546 -0.004726 0.014294 0.000000 0.000000 0.000000
# 4 0.000000 0.000000 0.000000 0.038937 0.000000 0.000000
# 5 0.000000 0.000000 0.000000 0.000000 0.033415 0.000000
# 6 0.000000 0.000000 0.000000 0.000000 0.000000 0.033484
#
#
# Mechanical properties :
#
#
# Convention : Reuss Voigt Hill
#
# Bulk Modulus (GPa) = 55.95352 56.26154 56.10753
# Shear Modulus (GPa) = 28.88005 29.17160 29.02583
#
# Velocity S-wave (km/s) = 3.84032 3.85965 3.85000
# Velocity P-wave (km/s) = 6.94533 6.97090 6.95813
#
# Compressibility (1/GPa) = 0.01787198
#
# Stress axis : x y z
#
# Youngs Moduli (GPa) = 85.75863 73.26161 69.95953
#
# Poissons Ratio (x) = 0.26336 0.17811
# Poissons Ratio (y) = 0.30829 0.33060
# Poissons Ratio (z) = 0.21833 0.34620
#
# Static dielectric constant tensor:
#      x y z
#    x 3.893500 0.000000 0.000000 
#    y 0.000000 3.906860 0.000000 
#    z 0.000000 0.000000 3.677540 
# 
# 
# High freq. dielectric constant tensor:
#      x y z
#    x 1.785490 0.000000 0.000000 
#    y 0.000000 1.732570 0.000000 
#    z 0.000000 0.000000 1.754380 
# 
# From -- ./inp_files/8015.got.cif
#   From: 2010.03.12/outbox.cif.g09.slc.cpg/sg73_5_cif.got.tgz:8015.got - 2010.04.16 15:25:48.
