data_PCOD8295776
_publ_section_title
;
Structure prediction by ZEFSAII (Michael W. Deem and Ramdas Pophale) SiO2 
 PCOD8295776
Probable space group: I B C A 
;
_chemical_formula_sum "Si O2"
_cell_formula_units_Z 112
_cell_length_a 28.491965
_cell_length_b 13.817605
_cell_length_c 13.052480
_cell_angle_alpha 90.000000
_cell_angle_beta 90.000000
_cell_angle_gamma 90.000000
_cell_volume 5138.640223
_symmetry_space_group_name_H-M "I B C A "
_symmetry_group_IT_number 73
_symmetry_cell_setting 'orthorhombic'
loop_
_space_group_symop_operation_xyz
x,y,z
-x,1/2-y,z
x,-y,1/2-z
1/2-x,y,-z
-x,-y,-z
x,1/2+y,-z
-x,y,1/2+z
1/2+x,-y,z
1/2+x,1/2+y,1/2+z
1/2-x,-y,1/2+z
1/2+x,1/2-y,-z
-x,1/2+y,1/2-z
1/2-x,1/2-y,1/2-z
1/2+x,y,1/2-z
1/2-x,1/2+y,z
x,1/2-y,1/2+z
loop_
_atom_site_type_symbol
_atom_site_label
_atom_site_fract_x
_atom_site_fract_y
_atom_site_fract_z
Si Si1 0.893328 0.075963 0.950944
Si Si2 0.807796 0.678283 0.692156
Si Si3 0.054109 0.234286 0.350976
Si Si4 0.367872 0.000000 0.750000
Si Si5 0.210136 0.370205 0.914387
Si Si6 0.886009 0.379551 0.958509
Si Si7 0.255557 0.000000 0.750000
Si Si8 0.629256 0.695990 0.683438
O O1 0.934363 0.156603 0.943003
O O2 0.899942 0.010400 0.849697
O O3 0.842831 0.130761 0.959488
O O4 0.897786 0.994786 0.038611
O O5 0.779628 0.771467 0.648767
O O6 0.837163 0.632910 0.599673
O O7 0.774075 0.595363 0.730486
O O8 0.839745 0.709550 0.790358
O O9 0.072184 0.337069 0.391114
O O10 0.080163 0.202904 0.246297
O O11 0.000000 0.250000 0.327663
O O12 0.341113 0.896001 0.732203
O O13 0.211909 0.470743 0.847172
O O14 0.250000 0.378799 0.000000
O O15 0.880903 0.319025 0.064373
#
# Coordination Sequence:
#
# PCOD8295776 Si02
#       8
#    16  16  16   8  16  16   8  16
#     4  10  19  38  62  89 123 169 217 262 323 385
#     4  11  24  44  61  96 131 175 215 278 330 387
#     4  10  21  39  61  97 132 163 214 276 331 400
#     4   8  13  32  60  85 104 154 214 255 296 378
#     4  12  25  42  66  95 131 183 229 273 325 396
#     4  10  21  37  70  94 126 175 221 263 334 396
#     4  12  29  42  60 101 138 168 230 287 328 382
#     4   9  19  36  67  89 122 170 212 264 326 391
#
# _framework density 21.795649000000001
#
# number of rings (size 3 to 8) (size 9 to 14) (size 15 to 20)
#    0.000    1.714    4.286    1.714    4.000    4.000 
#    0.000    0.000    0.000   22.286    0.000    0.000 
#    0.000    0.000    0.000    0.000    0.000    0.000 
#
# Total GULP energy -693737.015162 kJ/mol
# GULP energy per Si atom -12388.160985 kJ/mol
# Density = 2.174604 g / cm^3
# Si number density = 21.795649 Si / 1000 Ang^3
#
#
#
# Elastic Constant Matrix: (Units=GPa)
#
#
# Indices 1 2 3 4 5 6 
#
# 1 113.2623 35.0709 19.9090 0.0000 0.0000 0.0000
# 2 35.0709 116.7283 5.6472 0.0000 0.0000 0.0000
# 3 19.9090 5.6472 49.8335 0.0000 0.0000 0.0000
# 4 0.0000 0.0000 0.0000 30.6493 0.0000 0.0000
# 5 0.0000 0.0000 0.0000 0.0000 15.7396 0.0000
# 6 0.0000 0.0000 0.0000 0.0000 0.0000 -203.1727
#
#
#
# Elastic Compliance Matrix: (Units=1/GPa)
#
#
# Indices 1 2 3 4 5 6 
#
# 1 0.010413 -0.002943 -0.003827 0.000000 0.000000 0.000000
# 2 -0.002943 0.009446 0.000105 0.000000 0.000000 0.000000
# 3 -0.003827 0.000105 0.021584 0.000000 0.000000 0.000000
# 4 0.000000 0.000000 0.000000 0.032627 0.000000 0.000000
# 5 0.000000 0.000000 0.000000 0.000000 0.063534 0.000000
# 6 0.000000 0.000000 0.000000 0.000000 0.000000 -0.004922
#
#
# Mechanical properties :
#
#
# Convention : Reuss Voigt Hill
#
# Bulk Modulus (GPa) = 35.56978 44.56426 40.06702
# Shear Modulus (GPa) = 32.17861 -16.74363 7.71749
#
# Velocity S-wave (km/s) = 3.84653 -2.77467 1.88375
# Velocity P-wave (km/s) = 6.00690 3.19777 4.81189
#
# Compressibility (1/GPa) = 0.02811375
#
# Stress axis : x y z
#
# Youngs Moduli (GPa) = 96.03267 105.86308 46.33147
#
# Poissons Ratio (x) = 0.31161 0.17729
# Poissons Ratio (y) = 0.28267 -0.00489
# Poissons Ratio (z) = 0.36748 -0.01117
#
# Static dielectric constant tensor:
#      x y z
#    x 3.551160 0.000000 0.000000 
#    y 0.000000 4.328420 0.000000 
#    z 0.000000 0.000000 3.957840 
# 
# 
# High freq. dielectric constant tensor:
#      x y z
#    x 1.823080 0.000000 0.000000 
#    y 0.000000 1.881000 0.000000 
#    z 0.000000 0.000000 1.850450 
# 
# From -- ./inp_files/20135.got.cif
#   From: 2010.03.12/outbox.cif.g09.slc.cpg/sg73_11_cif.got.tgz:20135.got - 2010.04.16 15:25:48.
