data_PCOD8295170
_publ_section_title
;
Structure prediction by ZEFSAII (Michael W. Deem and Ramdas Pophale) SiO2 
 PCOD8295170
Probable space group: I B A M
;
_chemical_formula_sum "Si O2"
_cell_formula_units_Z 32
_cell_length_a 10.032846
_cell_length_b 15.938997
_cell_length_c 7.858621
_cell_angle_alpha 90.000000
_cell_angle_beta 90.000000
_cell_angle_gamma 90.000000
_cell_volume 1256.699607
_symmetry_space_group_name_H-M "I B A M"
_symmetry_group_IT_number 72
_symmetry_cell_setting 'orthorhombic'
loop_
_space_group_symop_operation_xyz
x,y,z
-x,-y,z
x,-y,1/2-z
-x,y,1/2-z
-x,-y,-z
x,y,-z
-x,y,1/2+z
x,-y,1/2+z
1/2+x,1/2+y,1/2+z
1/2-x,1/2-y,1/2+z
1/2+x,1/2-y,-z
1/2-x,1/2+y,-z
1/2-x,1/2-y,1/2-z
1/2+x,1/2+y,1/2-z
1/2-x,1/2+y,z
1/2+x,1/2-y,z
loop_
_atom_site_type_symbol
_atom_site_label
_atom_site_fract_x
_atom_site_fract_y
_atom_site_fract_z
Si Si1 0.646603 0.036850 0.000000
Si Si2 0.698272 0.661096 0.189322
Si Si3 0.104632 0.074937 0.000000
O O1 0.677073 0.095769 0.166846
O O2 0.500000 0.000000 0.000000
O O3 0.745916 0.959151 0.000000
O O4 0.750000 0.750000 0.250000
O O5 0.591309 0.629181 0.327517
O O6 0.626694 0.666466 0.000000
O O7 0.000000 0.000000 0.000000
#
# Coordination Sequence:
#
# PCOD8295170 Si02
#       3
#     8  16   8
#     4  10  25  48  77 112 157 202 265 334 395 474
#     4  10  23  47  79 113 160 211 271 331 407 486
#     4  12  25  46  77 116 157 202 267 340 401 476
#
# _framework density 25.463524
#
# number of rings (size 3 to 8) (size 9 to 14) (size 15 to 20)
#    1.500    0.000    2.500    1.500    0.000    9.000 
#    0.000   15.000    0.000    0.000    0.000    0.000 
#    0.000    0.000    0.000    0.000    0.000    0.000 
#
# Total GULP energy -198223.000872 kJ/mol
# GULP energy per Si atom -12388.937554 kJ/mol
# Density = 2.540557 g / cm^3
# Si number density = 25.463524 Si / 1000 Ang^3
#
#
#
# Elastic Constant Matrix: (Units=GPa)
#
#
# Indices 1 2 3 4 5 6 
#
# 1 117.0072 27.0904 77.6255 -0.0001 -0.0001 0.0000
# 2 27.0904 129.8717 99.8693 -0.0003 -0.0001 -0.0001
# 3 77.6255 99.8693 265.4673 -0.0012 0.0001 0.0001
# 4 -0.0001 -0.0003 -0.0012 65.9434 0.0000 0.0000
# 5 -0.0001 -0.0001 0.0001 0.0000 39.8044 0.0000
# 6 0.0000 -0.0001 0.0001 0.0000 0.0000 42.3625
#
#
#
# Elastic Compliance Matrix: (Units=1/GPa)
#
#
# Indices 1 2 3 4 5 6 
#
# 1 0.010609 0.000243 -0.003194 0.000000 0.000000 0.000000
# 2 0.000243 0.010840 -0.004149 0.000000 0.000000 0.000000
# 3 -0.003194 -0.004149 0.006262 0.000000 0.000000 0.000000
# 4 0.000000 0.000000 0.000000 0.015165 0.000000 0.000000
# 5 0.000000 0.000000 0.000000 0.000000 0.025123 0.000000
# 6 0.000000 0.000000 0.000000 0.000000 0.000000 0.023606
#
#
# Mechanical properties :
#
#
# Convention : Reuss Voigt Hill
#
# Bulk Modulus (GPa) = 74.01390 102.39073 88.20231
# Shear Modulus (GPa) = 45.32836 50.13948 47.73392
#
# Velocity S-wave (km/s) = 4.22373 4.44224 4.33436
# Velocity P-wave (km/s) = 7.27436 8.16145 7.73064
#
# Compressibility (1/GPa) = 0.01351098
#
# Stress axis : x y z
#
# Youngs Moduli (GPa) = 94.26036 92.25339 159.70398
#
# Poissons Ratio (x) = -0.02240 0.51001
# Poissons Ratio (y) = -0.02289 0.66260
# Poissons Ratio (z) = 0.30102 0.38275
#
# Static dielectric constant tensor:
#      x y z
#    x 3.876420 0.000000 0.000010 
#    y 0.000000 4.216480 0.000020 
#    z 0.000010 0.000020 7.742570 
# 
# 
# High freq. dielectric constant tensor:
#      x y z
#    x 1.999860 0.000000 0.000000 
#    y 0.000000 2.017400 0.000000 
#    z 0.000000 0.000000 2.046770 
# 
# From -- ./inp_files/1868.got.cif
#   From: 2010.03.12/outbox.cif.g09.slc.cpg/sg72_1_cif.got.tgz:1868.got - 2010.04.16 14:54:00.
