data_PCOD8295823
_publ_section_title
;
Structure prediction by ZEFSAII (Michael W. Deem and Ramdas Pophale) SiO2 
 PCOD8295823
Probable space group: I B C A 
;
_chemical_formula_sum "Si O2"
_cell_formula_units_Z 120
_cell_length_a 10.647192
_cell_length_b 17.620872
_cell_length_c 30.248496
_cell_angle_alpha 90.000000
_cell_angle_beta 90.000000
_cell_angle_gamma 90.000000
_cell_volume 5675.005254
_symmetry_space_group_name_H-M "I B C A "
_symmetry_group_IT_number 73
_symmetry_cell_setting 'orthorhombic'
loop_
_space_group_symop_operation_xyz
x,y,z
-x,1/2-y,z
x,-y,1/2-z
1/2-x,y,-z
-x,-y,-z
x,1/2+y,-z
-x,y,1/2+z
1/2+x,-y,z
1/2+x,1/2+y,1/2+z
1/2-x,-y,1/2+z
1/2+x,1/2-y,-z
-x,1/2+y,1/2-z
1/2-x,1/2-y,1/2-z
1/2+x,y,1/2-z
1/2-x,1/2+y,z
x,1/2-y,1/2+z
loop_
_atom_site_type_symbol
_atom_site_label
_atom_site_fract_x
_atom_site_fract_y
_atom_site_fract_z
Si Si1 0.608341 0.303969 0.571308
Si Si2 0.658545 0.398364 0.653091
Si Si3 0.853350 0.421355 0.148401
Si Si4 0.750000 0.792654 0.000000
Si Si5 0.904603 0.410998 0.703751
Si Si6 0.879384 0.427911 0.489852
Si Si7 0.398965 0.583599 0.047972
Si Si8 0.099879 0.909279 0.697092
O O1 0.500000 0.250000 0.590465
O O2 0.681827 0.345980 0.610574
O O3 0.702523 0.256201 0.541147
O O4 0.544056 0.372513 0.543143
O O5 0.654316 0.488042 0.644316
O O6 0.777617 0.377426 0.683029
O O7 0.524292 0.375878 0.674055
O O8 0.877007 0.392819 0.098605
O O9 0.724337 0.386835 0.168879
O O10 0.967416 0.388599 0.178131
O O11 0.638938 0.845320 0.018264
O O12 0.901561 0.501078 0.702359
O O13 0.902508 0.376607 0.753140
O O14 0.750000 0.383916 0.500000
O O15 0.831057 0.505508 0.466031
O O16 0.956436 0.438416 0.535432
#
# Coordination Sequence:
#
# PCOD8295823 Si02
#       8
#    16  16  16   8  16  16  16  16
#     4  12  25  41  59  88 123 167 209 249 310 371
#     4  10  21  36  59  88 123 167 205 250 308 388
#     4  10  20  32  60  93 125 157 207 264 310 368
#     4  12  26  42  60  86 126 162 206 264 308 364
#     4   9  18  34  56  93 128 159 197 261 324 372
#     4  11  23  40  64  84 124 165 207 261 308 364
#     4  11  24  39  60  94 120 161 211 263 308 355
#     4   9  18  33  58  92 129 157 199 261 324 367
#
# _framework density 21.145354999999999
#
# number of rings (size 3 to 8) (size 9 to 14) (size 15 to 20)
#    0.000    1.600    4.000    0.800    3.733    4.267 
#    0.000    0.000    0.000    0.800    0.000    0.000 
#    0.000    0.000    0.000    0.000    0.000    0.000 
#
# Total GULP energy -743420.676546 kJ/mol
# GULP energy per Si atom -12390.344609 kJ/mol
# Density = 2.109723 g / cm^3
# Si number density = 21.145355 Si / 1000 Ang^3
#
#
#
# Elastic Constant Matrix: (Units=GPa)
#
#
# Indices 1 2 3 4 5 6 
#
# 1 146.6712 21.1467 70.7630 0.0000 0.0000 0.0000
# 2 21.1467 67.3141 34.6202 0.0000 0.0000 0.0000
# 3 70.7630 34.6202 163.0659 0.0000 0.0000 0.0000
# 4 0.0000 0.0000 0.0000 21.1044 0.0000 0.0000
# 5 0.0000 0.0000 0.0000 0.0000 30.6182 0.0000
# 6 0.0000 0.0000 0.0000 0.0000 0.0000 6.5568
#
#
#
# Elastic Compliance Matrix: (Units=1/GPa)
#
#
# Indices 1 2 3 4 5 6 
#
# 1 0.008670 -0.000885 -0.003574 0.000000 0.000000 0.000000
# 2 -0.000885 0.016767 -0.003176 0.000000 0.000000 0.000000
# 3 -0.003574 -0.003176 0.008358 0.000000 0.000000 0.000000
# 4 0.000000 0.000000 0.000000 0.047383 0.000000 0.000000
# 5 0.000000 0.000000 0.000000 0.000000 0.032660 0.000000
# 6 0.000000 0.000000 0.000000 0.000000 0.000000 0.152514
#
#
# Mechanical properties :
#
#
# Convention : Reuss Voigt Hill
#
# Bulk Modulus (GPa) = 53.98322 70.01234 61.99778
# Shear Modulus (GPa) = 17.37328 28.35730 22.86529
#
# Velocity S-wave (km/s) = 2.86949 3.66603 3.29194
# Velocity P-wave (km/s) = 6.04679 7.14854 6.62062
#
# Compressibility (1/GPa) = 0.01852428
#
# Stress axis : x y z
#
# Youngs Moduli (GPa) = 115.33811 59.64065 119.64801
#
# Poissons Ratio (x) = 0.05280 0.42768
# Poissons Ratio (y) = 0.10211 0.37995
# Poissons Ratio (z) = 0.41227 0.18939
#
# Static dielectric constant tensor:
#      x y z
#    x 3.897570 0.000000 0.000000 
#    y 0.000000 3.530370 0.000000 
#    z 0.000000 0.000000 3.915110 
# 
# 
# High freq. dielectric constant tensor:
#      x y z
#    x 1.832860 0.000000 0.000000 
#    y 0.000000 1.794080 0.000000 
#    z 0.000000 0.000000 1.832990 
# 
# From -- ./inp_files/31841.got.cif
#   From: 2010.03.12/outbox.cif.g09.slc.cpg/sg73_16_cif.got.tgz:31841.got - 2010.04.16 15:25:48.
