data_PCOD8295038
_publ_section_title
;
Structure prediction by ZEFSAII (Michael W. Deem and Ramdas Pophale) SiO2 
 PCOD8295038
Probable space group: I B A M
;
_chemical_formula_sum "Si O2"
_cell_formula_units_Z 48
_cell_length_a 15.026603
_cell_length_b 8.289164
_cell_length_c 15.459301
_cell_angle_alpha 90.000000
_cell_angle_beta 90.000000
_cell_angle_gamma 90.000000
_cell_volume 1925.579253
_symmetry_space_group_name_H-M "I B A M"
_symmetry_group_IT_number 72
_symmetry_cell_setting 'orthorhombic'
loop_
_space_group_symop_operation_xyz
x,y,z
-x,-y,z
x,-y,1/2-z
-x,y,1/2-z
-x,-y,-z
x,y,-z
-x,y,1/2+z
x,-y,1/2+z
1/2+x,1/2+y,1/2+z
1/2-x,1/2-y,1/2+z
1/2+x,1/2-y,-z
1/2-x,1/2+y,-z
1/2-x,1/2-y,1/2-z
1/2+x,1/2+y,1/2-z
1/2-x,1/2+y,z
1/2+x,1/2-y,z
loop_
_atom_site_type_symbol
_atom_site_label
_atom_site_fract_x
_atom_site_fract_y
_atom_site_fract_z
Si Si1 0.473203 0.679274 0.100526
Si Si2 0.338421 0.194061 0.094979
Si Si3 0.315879 0.878835 0.830386
O O1 0.500000 0.500000 0.130028
O O2 0.558242 0.790476 0.118568
O O3 0.393198 0.745313 0.159932
O O4 0.443477 0.680878 0.000000
O O5 0.278868 0.285005 0.168194
O O6 0.317377 0.003505 0.089507
O O7 0.318960 0.268773 0.000000
O O8 0.329524 0.000000 0.750000
#
# Coordination Sequence:
#
# PCOD8295038 Si02
#       3
#    16  16  16
#     4  10  22  42  69  99 133 182 242 297 354 428
#     4  11  23  41  67  96 133 185 240 292 349 426
#     4  12  25  43  66 102 144 184 234 296 367 426
#
# _framework density 24.927565000000001
#
# number of rings (size 3 to 8) (size 9 to 14) (size 15 to 20)
#    0.000    1.000    0.000    7.000    0.000    8.000 
#    0.000    1.667    0.000    0.000    0.000    0.000 
#    0.000    0.000    0.000    0.000    0.000    0.000 
#
# Total GULP energy -297567.949831 kJ/mol
# GULP energy per Si atom -12398.664576 kJ/mol
# Density = 2.487083 g / cm^3
# Si number density = 24.927565 Si / 1000 Ang^3
#
#
#
# Elastic Constant Matrix: (Units=GPa)
#
#
# Indices 1 2 3 4 5 6 
#
# 1 133.1591 37.6159 32.1568 0.0000 0.0000 0.0000
# 2 37.6159 129.9945 8.2281 0.0000 0.0000 0.0000
# 3 32.1568 8.2281 88.4362 0.0000 0.0000 0.0000
# 4 0.0000 0.0000 0.0000 38.8653 0.0000 0.0000
# 5 0.0000 0.0000 0.0000 0.0000 27.2154 0.0000
# 6 0.0000 0.0000 0.0000 0.0000 0.0000 58.6621
#
#
#
# Elastic Compliance Matrix: (Units=1/GPa)
#
#
# Indices 1 2 3 4 5 6 
#
# 1 0.008913 -0.002388 -0.003019 0.000000 0.000000 0.000000
# 2 -0.002388 0.008378 0.000089 0.000000 0.000000 0.000000
# 3 -0.003019 0.000089 0.012397 0.000000 0.000000 0.000000
# 4 0.000000 0.000000 0.000000 0.025730 0.000000 0.000000
# 5 0.000000 0.000000 0.000000 0.000000 0.036744 0.000000
# 6 0.000000 0.000000 0.000000 0.000000 0.000000 0.017047
#
#
# Mechanical properties :
#
#
# Convention : Reuss Voigt Hill
#
# Bulk Modulus (GPa) = 52.48732 56.39905 54.44318
# Shear Modulus (GPa) = 39.62082 43.18783 41.40433
#
# Velocity S-wave (km/s) = 3.99110 4.16689 4.07994
# Velocity P-wave (km/s) = 6.50693 6.76941 6.63947
#
# Compressibility (1/GPa) = 0.01905222
#
# Stress axis : x y z
#
# Youngs Moduli (GPa) = 112.18969 119.35939 80.66450
#
# Poissons Ratio (x) = 0.28505 0.24352
# Poissons Ratio (y) = 0.26793 -0.00717
# Poissons Ratio (z) = 0.33869 -0.01061
#
# Static dielectric constant tensor:
#      x y z
#    x 4.331080 0.000000 0.000000 
#    y 0.000000 5.032870 0.000000 
#    z 0.000000 0.000000 4.525360 
# 
# 
# High freq. dielectric constant tensor:
#      x y z
#    x 1.991190 0.000000 0.000000 
#    y 0.000000 2.009370 0.000000 
#    z 0.000000 0.000000 1.993300 
# 
# From -- ./inp_files/22584.got.cif
#   From: 2010.03.12/outbox.cif.g09.slc.cpg/sg72_12_cif.got.tgz:22584.got - 2010.04.16 14:54:00.
