data_PCOD8295457
_publ_section_title
;
Structure prediction by ZEFSAII (Michael W. Deem and Ramdas Pophale) SiO2 
 PCOD8295457
Probable space group: I B A M
;
_chemical_formula_sum "Si O2"
_cell_formula_units_Z 96
_cell_length_a 20.405083
_cell_length_b 13.987199
_cell_length_c 14.535608
_cell_angle_alpha 90.000000
_cell_angle_beta 90.000000
_cell_angle_gamma 90.000000
_cell_volume 4148.607247
_symmetry_space_group_name_H-M "I B A M"
_symmetry_group_IT_number 72
_symmetry_cell_setting 'orthorhombic'
loop_
_space_group_symop_operation_xyz
x,y,z
-x,-y,z
x,-y,1/2-z
-x,y,1/2-z
-x,-y,-z
x,y,-z
-x,y,1/2+z
x,-y,1/2+z
1/2+x,1/2+y,1/2+z
1/2-x,1/2-y,1/2+z
1/2+x,1/2-y,-z
1/2-x,1/2+y,-z
1/2-x,1/2-y,1/2-z
1/2+x,1/2+y,1/2-z
1/2-x,1/2+y,z
1/2+x,1/2-y,z
loop_
_atom_site_type_symbol
_atom_site_label
_atom_site_fract_x
_atom_site_fract_y
_atom_site_fract_z
Si Si1 0.049994 0.870642 0.392361
Si Si2 0.277283 0.305605 0.839635
Si Si3 0.427509 0.808209 0.226412
Si Si4 0.402231 0.580507 0.391652
Si Si5 0.657717 0.067768 0.104697
Si Si6 0.649872 0.853320 0.099203
O O1 0.056524 0.846283 0.500000
O O2 0.083005 0.788199 0.331634
O O3 0.972981 0.874280 0.364986
O O4 0.089703 0.967585 0.369966
O O5 0.250000 0.250000 0.750000
O O6 0.343913 0.371483 0.831454
O O7 0.223425 0.374898 0.879560
O O8 0.288227 0.217841 0.910836
O O9 0.500000 0.837175 0.250000
O O10 0.400572 0.896821 0.168521
O O11 0.392227 0.798493 0.324331
O O12 0.387562 0.596577 0.500000
O O13 0.672284 0.957826 0.131239
O O14 0.634643 0.077241 0.000000
O O15 0.613251 0.858448 0.000000
#
# Coordination Sequence:
#
# PCOD8295457 Si02
#       6
#    16  16  16  16  16  16
#     4   9  20  41  73 110 147 187 236 295 362 432
#     4  12  24  43  73 105 138 184 233 288 361 438
#     4  12  25  43  69 104 140 182 235 299 352 425
#     4   9  19  41  72 108 149 190 232 289 363 442
#     4  11  26  47  71 100 137 179 233 292 348 426
#     4  11  26  49  70  95 135 184 232 285 351 422
#
# _framework density 23.140297
#
# number of rings (size 3 to 8) (size 9 to 14) (size 15 to 20)
#    0.000    1.333    1.667    4.500    0.000    5.333 
#    3.000    8.333    0.000    0.000    0.000    2.333 
#    0.000    0.000    0.000    0.000    0.000    0.000 
#
# Total GULP energy -594833.628972 kJ/mol
# GULP energy per Si atom -12392.367270 kJ/mol
# Density = 2.308763 g / cm^3
# Si number density = 23.140297 Si / 1000 Ang^3
#
#
#
# Elastic Constant Matrix: (Units=GPa)
#
#
# Indices 1 2 3 4 5 6 
#
# 1 118.1491 84.1077 60.0544 0.0000 0.0000 0.0000
# 2 84.1077 192.5089 71.1904 0.0000 0.0000 0.0000
# 3 60.0544 71.1904 122.7004 0.0000 0.0000 0.0000
# 4 0.0000 0.0000 0.0000 34.5553 0.0000 0.0000
# 5 0.0000 0.0000 0.0000 0.0000 29.3115 0.0000
# 6 0.0000 0.0000 0.0000 0.0000 0.0000 3.4228
#
#
#
# Elastic Compliance Matrix: (Units=1/GPa)
#
#
# Indices 1 2 3 4 5 6 
#
# 1 0.013754 -0.004481 -0.004132 0.000000 0.000000 0.000000
# 2 -0.004481 0.008074 -0.002491 0.000000 0.000000 0.000000
# 3 -0.004132 -0.002491 0.011617 0.000000 0.000000 0.000000
# 4 0.000000 0.000000 0.000000 0.028939 0.000000 0.000000
# 5 0.000000 0.000000 0.000000 0.000000 0.034116 0.000000
# 6 0.000000 0.000000 0.000000 0.000000 0.000000 0.292162
#
#
# Mechanical properties :
#
#
# Convention : Reuss Voigt Hill
#
# Bulk Modulus (GPa) = 88.99073 96.00704 92.49889
# Shear Modulus (GPa) = 12.05935 27.99165 20.02550
#
# Velocity S-wave (km/s) = 2.28533 3.48177 2.94495
# Velocity P-wave (km/s) = 6.74568 7.59887 7.18495
#
# Compressibility (1/GPa) = 0.01123713
#
# Stress axis : x y z
#
# Youngs Moduli (GPa) = 72.70523 123.86021 86.07739
#
# Poissons Ratio (x) = 0.55505 0.35565
# Poissons Ratio (y) = 0.32581 0.21442
# Poissons Ratio (z) = 0.30040 0.30853
#
# Static dielectric constant tensor:
#      x y z
#    x 4.416380 0.000000 0.000000 
#    y 0.000000 5.165060 0.000000 
#    z 0.000000 0.000000 4.676300 
# 
# 
# High freq. dielectric constant tensor:
#      x y z
#    x 1.895830 0.000000 0.000000 
#    y 0.000000 1.938900 0.000000 
#    z 0.000000 0.000000 1.926060 
# 
# From -- ./inp_files/24168.got.cif
#   From: 2010.03.12/outbox.cif.g09.slc.cpg/sg72_13_cif.got.tgz:24168.got - 2010.04.16 14:54:00.
