data_PCOD8295200
_publ_section_title
;
Structure prediction by ZEFSAII (Michael W. Deem and Ramdas Pophale) SiO2 
 PCOD8295200
Probable space group: I B A M
;
_chemical_formula_sum "Si O2"
_cell_formula_units_Z 88
_cell_length_a 11.244095
_cell_length_b 11.380935
_cell_length_c 28.212256
_cell_angle_alpha 90.000000
_cell_angle_beta 90.000000
_cell_angle_gamma 90.000000
_cell_volume 3610.274844
_symmetry_space_group_name_H-M "I B A M"
_symmetry_group_IT_number 72
_symmetry_cell_setting 'orthorhombic'
loop_
_space_group_symop_operation_xyz
x,y,z
-x,-y,z
x,-y,1/2-z
-x,y,1/2-z
-x,-y,-z
x,y,-z
-x,y,1/2+z
x,-y,1/2+z
1/2+x,1/2+y,1/2+z
1/2-x,1/2-y,1/2+z
1/2+x,1/2-y,-z
1/2-x,1/2+y,-z
1/2-x,1/2-y,1/2-z
1/2+x,1/2+y,1/2-z
1/2-x,1/2+y,z
1/2+x,1/2-y,z
loop_
_atom_site_type_symbol
_atom_site_label
_atom_site_fract_x
_atom_site_fract_y
_atom_site_fract_z
Si Si1 0.096374 0.325791 0.657811
Si Si2 0.000000 0.745913 0.750000
Si Si3 0.845615 0.490085 0.921232
Si Si4 0.109470 0.064826 0.627310
Si Si5 0.310031 0.415774 0.288213
Si Si6 0.920733 0.657668 0.000000
Si Si7 0.813463 0.687855 0.500000
O O1 0.008933 0.335704 0.703067
O O2 0.074353 0.431120 0.620498
O O3 0.076967 0.201269 0.632553
O O4 0.228746 0.336483 0.678318
O O5 0.886176 0.828141 0.756022
O O6 0.733589 0.560192 0.900382
O O7 0.927326 0.577763 0.952529
O O8 0.790170 0.387936 0.953376
O O9 0.112942 0.999786 0.677997
O O10 0.000000 0.000000 0.599461
O O11 0.241860 0.500000 0.250000
O O12 0.045447 0.732887 0.000000
O O13 0.790551 0.716111 0.000000
#
# Coordination Sequence:
#
# PCOD8295200 Si02
#       7
#    16   8  16  16  16   8   8
#     4  11  24  39  64 104 136 193 242 303 370 435
#     4  12  21  40  63  94 132 194 249 296 367 416
#     4  10  24  44  70 109 149 184 235 308 375 452
#     4  11  21  40  67 102 143 189 251 300 361 442
#     4  11  21  39  62  89 136 184 248 308 362 423
#     4  11  25  53  80 110 149 190 238 307 382 459
#     4  11  25  51  80 108 142 192 236 301 394 457
#
# _framework density 24.374876
#
# number of rings (size 3 to 8) (size 9 to 14) (size 15 to 20)
#    0.000    1.091    3.636    3.000    0.000    2.909 
#    6.545    2.273    0.000    0.000    0.000    0.000 
#    0.000    0.000    0.000    0.000    0.000    0.000 
#
# Total GULP energy -545274.256646 kJ/mol
# GULP energy per Si atom -12392.596742 kJ/mol
# Density = 2.431940 g / cm^3
# Si number density = 24.374876 Si / 1000 Ang^3
#
#
#
# Elastic Constant Matrix: (Units=GPa)
#
#
# Indices 1 2 3 4 5 6 
#
# 1 115.0060 60.1068 35.8967 0.0000 0.0000 0.0000
# 2 60.1068 82.9059 38.5255 0.0000 0.0000 0.0000
# 3 35.8967 38.5255 133.9217 0.0000 0.0000 0.0000
# 4 0.0000 0.0000 0.0000 0.2553 0.0000 0.0000
# 5 0.0000 0.0000 0.0000 0.0000 25.9582 0.0000
# 6 0.0000 0.0000 0.0000 0.0000 0.0000 39.8335
#
#
#
# Elastic Compliance Matrix: (Units=1/GPa)
#
#
# Indices 1 2 3 4 5 6 
#
# 1 0.014108 -0.009778 -0.000969 0.000000 0.000000 0.000000
# 2 -0.009778 0.020700 -0.003334 0.000000 0.000000 0.000000
# 3 -0.000969 -0.003334 0.008686 0.000000 0.000000 0.000000
# 4 0.000000 0.000000 0.000000 3.916747 0.000000 0.000000
# 5 0.000000 0.000000 0.000000 0.000000 0.038523 0.000000
# 6 0.000000 0.000000 0.000000 0.000000 0.000000 0.025105
#
#
# Mechanical properties :
#
#
# Convention : Reuss Voigt Hill
#
# Bulk Modulus (GPa) = 65.22065 66.76573 65.99319
# Shear Modulus (GPa) = 1.23239 26.36304 13.79772
#
# Velocity S-wave (km/s) = 0.71183 3.29228 2.38179
# Velocity P-wave (km/s) = 5.24319 6.47324 5.89041
#
# Compressibility (1/GPa) = 0.01533257
#
# Stress axis : x y z
#
# Youngs Moduli (GPa) = 70.88158 48.30847 115.13104
#
# Poissons Ratio (x) = 0.47237 0.11152
# Poissons Ratio (y) = 0.69310 0.38384
# Poissons Ratio (z) = 0.06866 0.16106
#
# Static dielectric constant tensor:
#      x y z
#    x 4.214640 0.000000 0.000000 
#    y 0.000000 4.294980 0.000000 
#    z 0.000000 0.000000 4.712580 
# 
# 
# High freq. dielectric constant tensor:
#      x y z
#    x 1.968680 0.000000 0.000000 
#    y 0.000000 1.957020 0.000000 
#    z 0.000000 0.000000 1.980780 
# 
# From -- ./inp_files/51322.got.cif
#   From: 2010.03.12/outbox.cif.g09.slc.cpg/sg72_26_cif.got.tgz:51322.got - 2010.04.16 14:54:00.
