data_PCOD8295407
_publ_section_title
;
Structure prediction by ZEFSAII (Michael W. Deem and Ramdas Pophale) SiO2 
 PCOD8295407
Probable space group: I B A M
;
_chemical_formula_sum "Si O2"
_cell_formula_units_Z 88
_cell_length_a 12.058543
_cell_length_b 23.841819
_cell_length_c 14.625192
_cell_angle_alpha 90.000000
_cell_angle_beta 90.000000
_cell_angle_gamma 90.000000
_cell_volume 4204.707594
_symmetry_space_group_name_H-M "I B A M"
_symmetry_group_IT_number 72
_symmetry_cell_setting 'orthorhombic'
loop_
_space_group_symop_operation_xyz
x,y,z
-x,-y,z
x,-y,1/2-z
-x,y,1/2-z
-x,-y,-z
x,y,-z
-x,y,1/2+z
x,-y,1/2+z
1/2+x,1/2+y,1/2+z
1/2-x,1/2-y,1/2+z
1/2+x,1/2-y,-z
1/2-x,1/2+y,-z
1/2-x,1/2-y,1/2-z
1/2+x,1/2+y,1/2-z
1/2-x,1/2+y,z
1/2+x,1/2-y,z
loop_
_atom_site_type_symbol
_atom_site_label
_atom_site_fract_x
_atom_site_fract_y
_atom_site_fract_z
Si Si1 0.281988 0.328518 0.000000
Si Si2 0.787980 0.490763 0.103485
Si Si3 0.757756 0.696791 0.500000
Si Si4 0.464588 0.360783 0.500000
Si Si5 0.938132 0.051370 0.345436
Si Si6 0.387044 0.123075 0.860453
Si Si7 0.138848 0.612912 0.651812
O O1 0.270569 0.262602 0.000000
O O2 0.412082 0.338851 0.000000
O O3 0.229162 0.355221 0.090789
O O4 0.687823 0.469626 0.168548
O O5 0.874411 0.439818 0.101234
O O6 0.847105 0.545891 0.142735
O O7 0.745386 0.502551 0.000000
O O8 0.625243 0.688559 0.500000
O O9 0.814761 0.669260 0.412004
O O10 0.441292 0.394804 0.591790
O O11 0.000000 0.064715 0.250000
O O12 0.000000 0.000000 0.395491
O O13 0.517132 0.134466 0.876427
O O14 0.344729 0.128590 0.756991
#
# Coordination Sequence:
#
# PCOD8295407 Si02
#       7
#     8  16   8   8  16  16  16
#     4  12  29  44  74  99 134 180 235 297 337 400
#     4  12  22  40  68 107 140 179 225 276 341 415
#     4  12  27  48  73  95 136 178 239 296 346 393
#     4  12  25  46  65 101 131 180 233 277 341 412
#     4  11  24  37  63  98 144 186 213 266 335 414
#     4  11  24  46  71 102 140 183 226 281 342 413
#     4  11  26  44  71 104 140 180 230 278 344 410
#
# _framework density 20.928922
#
# number of rings (size 3 to 8) (size 9 to 14) (size 15 to 20)
#    0.000    0.545    4.545    3.000   10.182    2.909 
#    0.000    0.000    0.000    0.000    0.000    0.000 
#    0.000    0.000    0.000    0.000    0.000    0.000 
#
# Total GULP energy -545561.901620 kJ/mol
# GULP energy per Si atom -12399.134128 kJ/mol
# Density = 2.088129 g / cm^3
# Si number density = 20.928922 Si / 1000 Ang^3
#
#
#
# Elastic Constant Matrix: (Units=GPa)
#
#
# Indices 1 2 3 4 5 6 
#
# 1 136.2528 38.9362 47.5859 0.0000 -0.0002 0.0000
# 2 38.9362 131.4430 29.0429 -0.0002 0.0006 0.0001
# 3 47.5859 29.0429 121.2603 -0.0001 0.0010 0.0003
# 4 0.0000 -0.0002 -0.0001 7.7332 0.0008 0.0001
# 5 -0.0002 0.0006 0.0010 0.0008 -54.3997 -0.0010
# 6 0.0000 0.0001 0.0003 0.0001 -0.0010 -49.8973
#
#
#
# Elastic Compliance Matrix: (Units=1/GPa)
#
#
# Indices 1 2 3 4 5 6 
#
# 1 0.008970 -0.001984 -0.003045 0.000000 0.000000 0.000000
# 2 -0.001984 0.008472 -0.001250 0.000000 0.000000 0.000000
# 3 -0.003045 -0.001250 0.009741 0.000000 0.000000 0.000000
# 4 0.000000 0.000000 0.000000 0.129313 0.000002 0.000000
# 5 0.000000 0.000000 0.000000 0.000002 -0.018382 0.000000
# 6 0.000000 0.000000 0.000000 0.000000 0.000000 -0.020041
#
#
# Mechanical properties :
#
#
# Convention : Reuss Voigt Hill
#
# Bulk Modulus (GPa) = 68.38137 68.89845 68.63991
# Shear Modulus (GPa) = 36.89888 -1.08670 17.90609
#
# Velocity S-wave (km/s) = 4.20343 -0.72136 2.92818
# Velocity P-wave (km/s) = 7.50350 5.68312 6.65584
#
# Compressibility (1/GPa) = 0.01462387
#
# Stress axis : x y z
#
# Youngs Moduli (GPa) = 111.48669 118.03685 102.65848
#
# Poissons Ratio (x) = 0.23422 0.31256
# Poissons Ratio (y) = 0.22122 0.12837
# Poissons Ratio (z) = 0.33944 0.14760
#
# Static dielectric constant tensor:
#      x y z
#    x 4.038900 0.000000 0.000000 
#    y 0.000000 3.611570 0.000000 
#    z 0.000000 0.000000 3.904570 
# 
# 
# High freq. dielectric constant tensor:
#      x y z
#    x 1.838280 0.000000 0.000000 
#    y 0.000000 1.798220 0.000000 
#    z 0.000000 0.000000 1.833890 
# 
# From -- ./inp_files/20337.got.cif
#   From: 2010.03.12/outbox.cif.g09.slc.cpg/sg72_11_cif.got.tgz:20337.got - 2010.04.16 14:54:00.
