data_PCOD8295986
_publ_section_title
;
Structure prediction by ZEFSAII (Michael W. Deem and Ramdas Pophale) SiO2 
 PCOD8295986
Probable space group: I B C A 
;
_chemical_formula_sum "Si O2"
_cell_formula_units_Z 112
_cell_length_a 16.599995
_cell_length_b 16.607659
_cell_length_c 21.382637
_cell_angle_alpha 90.000000
_cell_angle_beta 90.000000
_cell_angle_gamma 90.000000
_cell_volume 5894.916252
_symmetry_space_group_name_H-M "I B C A "
_symmetry_group_IT_number 73
_symmetry_cell_setting 'orthorhombic'
loop_
_space_group_symop_operation_xyz
x,y,z
-x,1/2-y,z
x,-y,1/2-z
1/2-x,y,-z
-x,-y,-z
x,1/2+y,-z
-x,y,1/2+z
1/2+x,-y,z
1/2+x,1/2+y,1/2+z
1/2-x,-y,1/2+z
1/2+x,1/2-y,-z
-x,1/2+y,1/2-z
1/2-x,1/2-y,1/2-z
1/2+x,y,1/2-z
1/2-x,1/2+y,z
x,1/2-y,1/2+z
loop_
_atom_site_type_symbol
_atom_site_label
_atom_site_fract_x
_atom_site_fract_y
_atom_site_fract_z
Si Si1 0.326876 0.413073 0.147417
Si Si2 0.589071 0.213453 0.376634
Si Si3 0.695669 0.176014 0.267817
Si Si4 0.305994 0.962671 0.314520
Si Si5 0.609111 0.007539 0.935456
Si Si6 0.424574 0.539515 0.070425
Si Si7 0.710711 0.166817 0.937464
O O1 0.352188 0.371910 0.212864
O O2 0.259942 0.476816 0.162258
O O3 0.396997 0.459654 0.109328
O O4 0.286180 0.340072 0.109426
O O5 0.500000 0.250000 0.378457
O O6 0.622029 0.212880 0.306628
O O7 0.601407 0.122224 0.398463
O O8 0.644409 0.269415 0.418490
O O9 0.750000 0.250000 0.250000
O O10 0.760359 0.120857 0.304264
O O11 0.345156 0.000000 0.250000
O O12 0.369979 0.956037 0.372310
O O13 0.520221 0.041745 0.928543
O O14 0.670768 0.079868 0.945638
O O15 0.612059 0.957156 0.000142
O O16 0.750000 0.199724 0.000000
#
# Coordination Sequence:
#
# PCOD8295986 Si02
#       7
#    16  16  16  16  16  16  16
#     4  10  20  39  63  90 117 164 211 257 308 374
#     4  12  25  41  62  95 130 168 210 262 329 383
#     4  11  22  41  64  86 130 167 209 261 314 379
#     4   9  20  37  61  91 119 156 210 253 299 375
#     4  10  22  40  65  92 123 164 209 264 315 374
#     4  11  22  41  65  90 129 164 209 265 321 380
#     4  11  21  39  64  91 126 163 210 262 318 382
#
# _framework density 18.999421000000002
#
# number of rings (size 3 to 8) (size 9 to 14) (size 15 to 20)
#    0.000    1.429    5.714    0.000    0.000    1.143 
#    5.143    0.000    0.000    0.857    0.000    0.000 
#    0.000    0.000    0.000    0.000    0.000    0.000 
#
# Total GULP energy -693855.768901 kJ/mol
# GULP energy per Si atom -12390.281588 kJ/mol
# Density = 1.895618 g / cm^3
# Si number density = 18.999421 Si / 1000 Ang^3
#
#
#
# Elastic Constant Matrix: (Units=GPa)
#
#
# Indices 1 2 3 4 5 6 
#
# 1 78.3871 31.7543 60.0966 0.0000 0.0000 0.0000
# 2 31.7543 77.2772 39.6745 0.0000 0.0000 0.0000
# 3 60.0966 39.6745 132.4715 0.0000 0.0000 0.0000
# 4 0.0000 0.0000 0.0000 241.4116 0.0000 0.0000
# 5 0.0000 0.0000 0.0000 0.0000 34.5394 0.0000
# 6 0.0000 0.0000 0.0000 0.0000 0.0000 17.9235
#
#
#
# Elastic Compliance Matrix: (Units=1/GPa)
#
#
# Indices 1 2 3 4 5 6 
#
# 1 0.020734 -0.004361 -0.008100 0.000000 0.000000 0.000000
# 2 -0.004361 0.016209 -0.002876 0.000000 0.000000 0.000000
# 3 -0.008100 -0.002876 0.012085 0.000000 0.000000 0.000000
# 4 0.000000 0.000000 0.000000 0.004142 0.000000 0.000000
# 5 0.000000 0.000000 0.000000 0.000000 0.028952 0.000000
# 6 0.000000 0.000000 0.000000 0.000000 0.000000 0.055793
#
#
# Mechanical properties :
#
#
# Convention : Reuss Voigt Hill
#
# Bulk Modulus (GPa) = 54.48616 61.24297 57.86456
# Shear Modulus (GPa) = 28.61931 69.21558 48.91744
#
# Velocity S-wave (km/s) = 3.88535 6.04230 5.07964
# Velocity P-wave (km/s) = 6.99056 8.99908 8.05765
#
# Compressibility (1/GPa) = 0.01835329
#
# Stress axis : x y z
#
# Youngs Moduli (GPa) = 48.23044 61.69371 82.74932
#
# Poissons Ratio (x) = 0.26906 0.67026
# Poissons Ratio (y) = 0.21035 0.23799
# Poissons Ratio (z) = 0.39066 0.17743
#
# Static dielectric constant tensor:
#      x y z
#    x 3.958000 0.000000 0.000000 
#    y 0.000000 3.160320 0.000000 
#    z 0.000000 0.000000 0.570990 
# 
# 
# High freq. dielectric constant tensor:
#      x y z
#    x 1.725720 0.000000 0.000000 
#    y 0.000000 1.734890 0.000000 
#    z 0.000000 0.000000 1.756490 
# 
# From -- ./inp_files/26618.got.cif
#   From: 2010.03.12/outbox.cif.g09.slc.cpg/sg73_14_cif.got.tgz:26618.got - 2010.04.16 15:25:48.
