data_PCOD8295989
_publ_section_title
;
Structure prediction by ZEFSAII (Michael W. Deem and Ramdas Pophale) SiO2 
 PCOD8295989
Probable space group: I B C A 
;
_chemical_formula_sum "Si O2"
_cell_formula_units_Z 104
_cell_length_a 19.924108
_cell_length_b 18.264706
_cell_length_c 14.167200
_cell_angle_alpha 90.000000
_cell_angle_beta 90.000000
_cell_angle_gamma 90.000000
_cell_volume 5155.557062
_symmetry_space_group_name_H-M "I B C A "
_symmetry_group_IT_number 73
_symmetry_cell_setting 'orthorhombic'
loop_
_space_group_symop_operation_xyz
x,y,z
-x,1/2-y,z
x,-y,1/2-z
1/2-x,y,-z
-x,-y,-z
x,1/2+y,-z
-x,y,1/2+z
1/2+x,-y,z
1/2+x,1/2+y,1/2+z
1/2-x,-y,1/2+z
1/2+x,1/2-y,-z
-x,1/2+y,1/2-z
1/2-x,1/2-y,1/2-z
1/2+x,y,1/2-z
1/2-x,1/2+y,z
x,1/2-y,1/2+z
loop_
_atom_site_type_symbol
_atom_site_label
_atom_site_fract_x
_atom_site_fract_y
_atom_site_fract_z
Si Si1 0.495346 0.084199 0.391519
Si Si2 0.505821 0.419238 0.604206
Si Si3 0.250000 0.657243 0.000000
Si Si4 0.555931 0.311630 0.761159
Si Si5 0.148196 0.905972 0.829023
Si Si6 0.151429 0.435814 0.380249
Si Si7 0.806375 0.749532 0.828167
O O1 0.472253 0.100557 0.497963
O O2 0.549871 0.143121 0.358545
O O3 0.432581 0.097640 0.321709
O O4 0.526197 0.003433 0.376141
O O5 0.548009 0.366412 0.672234
O O6 0.425745 0.412115 0.610157
O O7 0.192173 0.606247 0.040898
O O8 0.285048 0.704265 0.081313
O O9 0.500000 0.250000 0.750842
O O10 0.629238 0.276939 0.768809
O O11 0.177223 0.914851 0.723660
O O12 0.179828 0.831769 0.870250
O O13 0.163930 0.976848 0.894272
O O14 0.750000 0.750000 0.750000
#
# Coordination Sequence:
#
# PCOD8295989 Si02
#       7
#    16  16   8  16  16  16  16
#     4  10  20  39  64  99 129 172 220 276 337 392
#     4  10  21  38  67  96 133 170 220 284 333 391
#     4  12  26  42  70  96 142 182 230 286 340 420
#     4  12  23  40  66  98 131 167 226 275 333 402
#     4  10  20  42  67  88 131 182 223 271 341 410
#     4  10  20  41  69  92 126 186 229 268 339 413
#     4  12  26  45  64 101 142 180 223 280 348 408
#
# _framework density 20.172408000000001
#
# number of rings (size 3 to 8) (size 9 to 14) (size 15 to 20)
#    0.000    1.231    4.615    1.385    0.000    2.462 
#    0.000    6.154    0.000    0.000    0.000    0.000 
#    0.000    0.000    0.000    0.000    0.000    0.000 
#
# Total GULP energy -644681.168006 kJ/mol
# GULP energy per Si atom -12397.714769 kJ/mol
# Density = 2.012649 g / cm^3
# Si number density = 20.172408 Si / 1000 Ang^3
#
#
#
# Elastic Constant Matrix: (Units=GPa)
#
#
# Indices 1 2 3 4 5 6 
#
# 1 88.0792 53.8667 39.8620 0.0000 0.0000 0.0000
# 2 53.8667 142.6312 61.4193 0.0000 0.0000 0.0000
# 3 39.8620 61.4193 113.2273 0.0000 0.0000 0.0000
# 4 0.0000 0.0000 0.0000 33.0073 0.0000 0.0000
# 5 0.0000 0.0000 0.0000 0.0000 30.4932 0.0000
# 6 0.0000 0.0000 0.0000 0.0000 0.0000 28.8455
#
#
#
# Elastic Compliance Matrix: (Units=1/GPa)
#
#
# Indices 1 2 3 4 5 6 
#
# 1 0.015495 -0.004571 -0.002976 0.000000 0.000000 0.000000
# 2 -0.004571 0.010496 -0.004084 0.000000 0.000000 0.000000
# 3 -0.002976 -0.004084 0.012095 0.000000 0.000000 0.000000
# 4 0.000000 0.000000 0.000000 0.030296 0.000000 0.000000
# 5 0.000000 0.000000 0.000000 0.000000 0.032794 0.000000
# 6 0.000000 0.000000 0.000000 0.000000 0.000000 0.034668
#
#
# Mechanical properties :
#
#
# Convention : Reuss Voigt Hill
#
# Bulk Modulus (GPa) = 67.45511 72.69261 70.07386
# Shear Modulus (GPa) = 30.47888 31.05518 30.76703
#
# Velocity S-wave (km/s) = 3.89127 3.92789 3.90962
# Velocity P-wave (km/s) = 7.32811 7.52894 7.42920
#
# Compressibility (1/GPa) = 0.01482467
#
# Stress axis : x y z
#
# Youngs Moduli (GPa) = 64.53495 95.27397 82.67861
#
# Poissons Ratio (x) = 0.43546 0.24605
# Poissons Ratio (y) = 0.29496 0.33769
# Poissons Ratio (z) = 0.19205 0.38914
#
# Static dielectric constant tensor:
#      x y z
#    x 3.496740 0.000000 0.000000 
#    y 0.000000 3.356400 0.000000 
#    z 0.000000 0.000000 3.722540 
# 
# 
# High freq. dielectric constant tensor:
#      x y z
#    x 1.767430 0.000000 0.000000 
#    y 0.000000 1.805490 0.000000 
#    z 0.000000 0.000000 1.789610 
# 
# From -- ./inp_files/18793.got.cif
#   From: 2010.03.12/outbox.cif.g09.slc.cpg/sg73_10_cif.got.tgz:18793.got - 2010.04.16 15:25:48.
