data_PCOD8295293
_publ_section_title
;
Structure prediction by ZEFSAII (Michael W. Deem and Ramdas Pophale) SiO2 
 PCOD8295293
Probable space group: I B A M
;
_chemical_formula_sum "Si O2"
_cell_formula_units_Z 116
_cell_length_a 11.588603
_cell_length_b 17.569870
_cell_length_c 28.912067
_cell_angle_alpha 90.000000
_cell_angle_beta 90.000000
_cell_angle_gamma 90.000000
_cell_volume 5886.793138
_symmetry_space_group_name_H-M "I B A M"
_symmetry_group_IT_number 72
_symmetry_cell_setting 'orthorhombic'
loop_
_space_group_symop_operation_xyz
x,y,z
-x,-y,z
x,-y,1/2-z
-x,y,1/2-z
-x,-y,-z
x,y,-z
-x,y,1/2+z
x,-y,1/2+z
1/2+x,1/2+y,1/2+z
1/2-x,1/2-y,1/2+z
1/2+x,1/2-y,-z
1/2-x,1/2+y,-z
1/2-x,1/2-y,1/2-z
1/2+x,1/2+y,1/2-z
1/2-x,1/2+y,z
1/2+x,1/2-y,z
loop_
_atom_site_type_symbol
_atom_site_label
_atom_site_fract_x
_atom_site_fract_y
_atom_site_fract_z
Si Si1 0.500000 0.000000 0.250000
Si Si2 0.953415 0.584922 0.446971
Si Si3 0.315048 0.065953 0.316765
Si Si4 0.239432 0.033216 0.101298
Si Si5 0.836279 0.878868 0.445420
Si Si6 0.867679 0.316522 0.391834
Si Si7 0.958201 0.150043 0.383318
Si Si8 0.557531 0.418986 0.703771
O O1 0.419017 0.052934 0.281345
O O2 0.959868 0.611394 0.500000
O O3 0.821858 0.586017 0.429718
O O4 0.000000 0.500000 0.440400
O O5 0.024611 0.643471 0.416401
O O6 0.340792 0.144508 0.342928
O O7 0.194715 0.071851 0.288886
O O8 0.307782 0.997202 0.353813
O O9 0.132837 0.082445 0.117719
O O10 0.193268 0.963528 0.070984
O O11 0.832262 0.875279 0.500000
O O12 0.742902 0.820020 0.425338
O O13 0.963314 0.854690 0.428998
O O14 0.893929 0.229635 0.381151
O O15 0.038794 0.139230 0.338400
O O16 0.500000 0.500000 0.692411
O O17 0.500000 0.384420 0.750000
#
# Coordination Sequence:
#
# PCOD8295293 Si02
#       8
#     4  16  16  16  16  16  16  16
#     4  12  24  40  66 108 122 168 226 274 316 392
#     4  11  21  38  64  91 123 171 222 261 308 381
#     4  11  22  42  66  95 133 164 212 274 326 381
#     4  11  22  40  69  95 124 175 219 269 323 383
#     4  11  23  43  66  94 133 172 222 276 318 378
#     4  11  25  43  63  93 136 176 209 268 333 388
#     4  12  25  43  65  97 135 173 218 267 336 395
#     4  11  21  42  72  98 120 167 218 268 330 396
#
# _framework density 19.705124999999999
#
# number of rings (size 3 to 8) (size 9 to 14) (size 15 to 20)
#    0.000    0.828    6.897    2.897    1.931    2.759 
#    1.241    0.690    0.000    0.000    0.000    0.000 
#    0.000    0.000    0.000    0.000    0.000    0.000 
#
# Total GULP energy -719482.553251 kJ/mol
# GULP energy per Si atom -12404.871608 kJ/mol
# Density = 1.966028 g / cm^3
# Si number density = 19.705125 Si / 1000 Ang^3
#
#
#
# Elastic Constant Matrix: (Units=GPa)
#
#
# Indices 1 2 3 4 5 6 
#
# 1 128.6856 38.3980 53.2565 0.0000 0.0000 0.0000
# 2 38.3980 52.6930 42.3977 0.0000 0.0000 0.0000
# 3 53.2565 42.3977 131.4269 0.0000 0.0000 0.0000
# 4 0.0000 0.0000 0.0000 13.3711 0.0000 0.0000
# 5 0.0000 0.0000 0.0000 0.0000 40.7568 0.0000
# 6 0.0000 0.0000 0.0000 0.0000 0.0000 20.9897
#
#
#
# Elastic Compliance Matrix: (Units=1/GPa)
#
#
# Indices 1 2 3 4 5 6 
#
# 1 0.010464 -0.005691 -0.002404 0.000000 0.000000 0.000000
# 2 -0.005691 0.028725 -0.006961 0.000000 0.000000 0.000000
# 3 -0.002404 -0.006961 0.010829 0.000000 0.000000 0.000000
# 4 0.000000 0.000000 0.000000 0.074788 0.000000 0.000000
# 5 0.000000 0.000000 0.000000 0.000000 0.024536 0.000000
# 6 0.000000 0.000000 0.000000 0.000000 0.000000 0.047642
#
#
# Mechanical properties :
#
#
# Convention : Reuss Voigt Hill
#
# Bulk Modulus (GPa) = 50.23498 64.54554 57.39026
# Shear Modulus (GPa) = 21.39209 26.94041 24.16625
#
# Velocity S-wave (km/s) = 3.29843 3.70155 3.50579
# Velocity P-wave (km/s) = 6.32890 7.14811 6.75094
#
# Compressibility (1/GPa) = 0.01990645
#
# Stress axis : x y z
#
# Youngs Moduli (GPa) = 95.56636 34.81245 92.34794
#
# Poissons Ratio (x) = 0.19810 0.22204
# Poissons Ratio (y) = 0.54383 0.64281
# Poissons Ratio (z) = 0.22978 0.24232
#
# Static dielectric constant tensor:
#      x y z
#    x 3.821510 0.000000 0.000000 
#    y 0.000000 3.437630 0.000000 
#    z 0.000000 0.000000 3.674010 
# 
# 
# High freq. dielectric constant tensor:
#      x y z
#    x 1.786690 0.000000 0.000000 
#    y 0.000000 1.743710 0.000000 
#    z 0.000000 0.000000 1.773660 
# 
# From -- ./inp_files/48214.got.cif
#   From: 2010.03.12/outbox.cif.g09.slc.cpg/sg72_25_cif.got.tgz:48214.got - 2010.04.16 14:54:00.
