data_PCOD8295307
_publ_section_title
;
Structure prediction by ZEFSAII (Michael W. Deem and Ramdas Pophale) SiO2 
 PCOD8295307
Probable space group: I B A M
;
_chemical_formula_sum "Si O2"
_cell_formula_units_Z 96
_cell_length_a 14.388813
_cell_length_b 20.391891
_cell_length_c 15.167820
_cell_angle_alpha 90.000000
_cell_angle_beta 90.000000
_cell_angle_gamma 90.000000
_cell_volume 4450.467518
_symmetry_space_group_name_H-M "I B A M"
_symmetry_group_IT_number 72
_symmetry_cell_setting 'orthorhombic'
loop_
_space_group_symop_operation_xyz
x,y,z
-x,-y,z
x,-y,1/2-z
-x,y,1/2-z
-x,-y,-z
x,y,-z
-x,y,1/2+z
x,-y,1/2+z
1/2+x,1/2+y,1/2+z
1/2-x,1/2-y,1/2+z
1/2+x,1/2-y,-z
1/2-x,1/2+y,-z
1/2-x,1/2-y,1/2-z
1/2+x,1/2+y,1/2-z
1/2-x,1/2+y,z
1/2+x,1/2-y,z
loop_
_atom_site_type_symbol
_atom_site_label
_atom_site_fract_x
_atom_site_fract_y
_atom_site_fract_z
Si Si1 0.757755 0.557796 0.822060
Si Si2 0.530284 0.687682 0.657069
Si Si3 0.968689 0.570379 0.849463
Si Si4 0.345052 0.486943 0.000000
Si Si5 0.266297 0.681345 0.794537
Si Si6 0.023024 0.904882 0.500000
Si Si7 0.918264 0.688053 0.401727
O O1 0.759446 0.500000 0.750000
O O2 0.858923 0.576904 0.855857
O O3 0.705362 0.534244 0.909998
O O4 0.715314 0.623119 0.776608
O O5 0.500000 0.656802 0.750000
O O6 0.641606 0.692996 0.647479
O O7 0.497892 0.638222 0.583763
O O8 0.475744 0.756527 0.649696
O O9 0.000000 0.500000 0.885643
O O10 0.000000 0.582004 0.750000
O O11 0.016129 0.624810 0.909899
O O12 0.447487 0.460434 0.000000
O O13 0.370725 0.565423 0.000000
O O14 0.250000 0.750000 0.750000
O O15 0.176891 0.665936 0.854406
O O16 0.894539 0.712740 0.500000
#
# Coordination Sequence:
#
# PCOD8295307 Si02
#       7
#    16  16  16   8  16   8  16
#     4  12  24  47  72 104 141 185 235 290 358 434
#     4  12  24  46  72  99 142 186 234 293 359 417
#     4  11  21  44  67  96 141 181 224 290 354 431
#     4  11  28  46  74 103 139 183 244 294 352 427
#     4  12  25  44  72 102 138 185 234 290 356 424
#     4  11  26  50  67 105 140 181 241 302 349 419
#     4  12  26  43  66 104 143 183 238 291 357 429
#
# _framework density 21.570768000000001
#
# number of rings (size 3 to 8) (size 9 to 14) (size 15 to 20)
#    0.000    0.333    5.833    3.500    2.333    0.333 
#    4.500    1.667    0.000    0.000    0.000    0.000 
#    0.000    0.000    0.000    0.000    0.000    0.000 
#
# Total GULP energy -595101.343140 kJ/mol
# GULP energy per Si atom -12397.944649 kJ/mol
# Density = 2.152167 g / cm^3
# Si number density = 21.570768 Si / 1000 Ang^3
#
#
#
# Elastic Constant Matrix: (Units=GPa)
#
#
# Indices 1 2 3 4 5 6 
#
# 1 137.9223 24.6501 46.6467 0.0001 -0.0001 0.0000
# 2 24.6501 96.7414 40.5034 -0.0010 0.0000 0.0000
# 3 46.6467 40.5034 141.2687 -0.0012 0.0001 0.0001
# 4 0.0001 -0.0010 -0.0012 -12.1975 -0.0006 -0.0004
# 5 -0.0001 0.0000 0.0001 -0.0006 28.6697 0.0000
# 6 0.0000 0.0000 0.0001 -0.0004 0.0000 35.1297
#
#
#
# Elastic Compliance Matrix: (Units=1/GPa)
#
#
# Indices 1 2 3 4 5 6 
#
# 1 0.008263 -0.001094 -0.002415 0.000000 0.000000 0.000000
# 2 -0.001094 0.011892 -0.003048 -0.000001 0.000000 0.000000
# 3 -0.002415 -0.003048 0.008750 -0.000001 0.000000 0.000000
# 4 0.000000 -0.000001 -0.000001 -0.081984 -0.000002 -0.000001
# 5 0.000000 0.000000 0.000000 -0.000002 0.034880 0.000000
# 6 0.000000 0.000000 0.000000 -0.000001 0.000000 0.028466
#
#
# Mechanical properties :
#
#
# Convention : Reuss Voigt Hill
#
# Bulk Modulus (GPa) = 63.33036 66.61475 64.97255
# Shear Modulus (GPa) = 174.55636 27.92919 101.24277
#
# Velocity S-wave (km/s) = 9.00546 3.60220 6.85836
# Velocity P-wave (km/s) = 11.72835 6.94623 9.63857
#
# Compressibility (1/GPa) = 0.01579022
#
# Stress axis : x y z
#
# Youngs Moduli (GPa) = 121.02599 84.09088 114.28661
#
# Poissons Ratio (x) = 0.09203 0.27595
# Poissons Ratio (y) = 0.13246 0.34836
# Poissons Ratio (z) = 0.29222 0.25632
#
# Static dielectric constant tensor:
#      x y z
#    x 4.268670 0.000010 0.000010 
#    y 0.000010 3.843170 0.000000 
#    z 0.000010 0.000000 3.858160 
# 
# 
# High freq. dielectric constant tensor:
#      x y z
#    x 1.860880 0.000000 0.000000 
#    y 0.000000 1.857800 0.000000 
#    z 0.000000 0.000000 1.846600 
# 
# From -- ./inp_files/21899.got.cif
#   From: 2010.03.12/outbox.cif.g09.slc.cpg/sg72_11_cif.got.tgz:21899.got - 2010.04.16 14:54:00.
