data_PCOD8295403
_publ_section_title
;
Structure prediction by ZEFSAII (Michael W. Deem and Ramdas Pophale) SiO2 
 PCOD8295403
Probable space group: I B A M
;
_chemical_formula_sum "Si O2"
_cell_formula_units_Z 88
_cell_length_a 14.223975
_cell_length_b 13.178182
_cell_length_c 23.574432
_cell_angle_alpha 90.000000
_cell_angle_beta 90.000000
_cell_angle_gamma 90.000000
_cell_volume 4418.936076
_symmetry_space_group_name_H-M "I B A M"
_symmetry_group_IT_number 72
_symmetry_cell_setting 'orthorhombic'
loop_
_space_group_symop_operation_xyz
x,y,z
-x,-y,z
x,-y,1/2-z
-x,y,1/2-z
-x,-y,-z
x,y,-z
-x,y,1/2+z
x,-y,1/2+z
1/2+x,1/2+y,1/2+z
1/2-x,1/2-y,1/2+z
1/2+x,1/2-y,-z
1/2-x,1/2+y,-z
1/2-x,1/2-y,1/2-z
1/2+x,1/2+y,1/2-z
1/2-x,1/2+y,z
1/2+x,1/2-y,z
loop_
_atom_site_type_symbol
_atom_site_label
_atom_site_fract_x
_atom_site_fract_y
_atom_site_fract_z
Si Si1 0.819336 0.522240 0.000000
Si Si2 0.450317 0.895276 0.090434
Si Si3 0.918651 0.891462 0.795151
Si Si4 0.408470 0.160295 0.714233
Si Si5 0.500000 0.500000 0.899010
Si Si6 0.883012 0.912691 0.500000
Si Si7 0.247484 0.500000 0.250000
Si Si8 0.081900 0.686909 0.000000
O O1 0.856777 0.580206 0.055330
O O2 0.845122 0.404414 0.000000
O O3 0.709476 0.521877 0.000000
O O4 0.427260 0.840800 0.148008
O O5 0.500000 0.000000 0.104893
O O6 0.517081 0.820192 0.055504
O O7 0.887937 0.778592 0.776116
O O8 0.821080 0.955860 0.795887
O O9 0.000000 0.924969 0.750000
O O10 0.956548 0.911310 0.858845
O O11 0.500000 0.123922 0.750000
O O12 0.318546 0.090749 0.727667
O O13 0.431087 0.441107 0.940971
O O14 0.862997 0.792515 0.500000
#
# Coordination Sequence:
#
# PCOD8295403 Si02
#       8
#     8  16  16  16   8   8   8   8
#     4   9  21  38  60  91 116 156 207 252 308 365
#     4   9  18  38  63  84 122 160 195 252 311 363
#     4  11  23  44  66  86 123 175 208 247 316 378
#     4  11  24  39  63  97 126 161 207 256 309 370
#     4  11  23  44  62  84 129 163 206 256 306 367
#     4  11  24  40  62  92 121 158 209 264 302 357
#     4  12  22  40  62  94 128 154 208 258 306 364
#     4   9  19  42  62  85 119 164 205 245 313 370
#
# _framework density 19.914294999999999
#
# number of rings (size 3 to 8) (size 9 to 14) (size 15 to 20)
#    0.000    1.636    1.818    4.091    2.545    0.000 
#    9.818    0.000    0.000    0.000    0.000    0.000 
#    0.000    0.000    0.000    0.000    0.000    0.000 
#
# Total GULP energy -545137.299730 kJ/mol
# GULP energy per Si atom -12389.484085 kJ/mol
# Density = 1.986897 g / cm^3
# Si number density = 19.914295 Si / 1000 Ang^3
#
#
#
# Elastic Constant Matrix: (Units=GPa)
#
#
# Indices 1 2 3 4 5 6 
#
# 1 146.3429 64.9797 57.5050 0.0000 0.0000 0.0000
# 2 64.9797 114.3934 45.4601 0.0000 0.0000 0.0000
# 3 57.5050 45.4601 132.1958 0.0000 0.0000 0.0000
# 4 0.0000 0.0000 0.0000 26.3873 0.0000 0.0000
# 5 0.0000 0.0000 0.0000 0.0000 44.0132 0.0000
# 6 0.0000 0.0000 0.0000 0.0000 0.0000 29.6067
#
#
#
# Elastic Compliance Matrix: (Units=1/GPa)
#
#
# Indices 1 2 3 4 5 6 
#
# 1 0.009937 -0.004548 -0.002758 0.000000 0.000000 0.000000
# 2 -0.004548 0.012207 -0.002219 0.000000 0.000000 0.000000
# 3 -0.002758 -0.002219 0.009528 0.000000 0.000000 0.000000
# 4 0.000000 0.000000 0.000000 0.037897 0.000000 0.000000
# 5 0.000000 0.000000 0.000000 0.000000 0.022720 0.000000
# 6 0.000000 0.000000 0.000000 0.000000 0.000000 0.033776
#
#
# Mechanical properties :
#
#
# Convention : Reuss Voigt Hill
#
# Bulk Modulus (GPa) = 79.24191 80.98020 80.11105
# Shear Modulus (GPa) = 33.48424 35.00058 34.24241
#
# Velocity S-wave (km/s) = 4.10496 4.19688 4.15117
# Velocity P-wave (km/s) = 7.89591 8.01484 7.95560
#
# Compressibility (1/GPa) = 0.01261958
#
# Stress axis : x y z
#
# Youngs Moduli (GPa) = 100.63726 81.91804 104.95753
#
# Poissons Ratio (x) = 0.37258 0.28951
# Poissons Ratio (y) = 0.45772 0.23295
# Poissons Ratio (z) = 0.27760 0.18181
#
# Static dielectric constant tensor:
#      x y z
#    x 3.642460 0.000000 0.000000 
#    y 0.000000 3.628450 0.000000 
#    z 0.000000 0.000000 3.542630 
# 
# 
# High freq. dielectric constant tensor:
#      x y z
#    x 1.769670 0.000000 0.000000 
#    y 0.000000 1.791260 0.000000 
#    z 0.000000 0.000000 1.778960 
# 
# From -- ./inp_files/44199.got.cif
#   From: 2010.03.12/outbox.cif.g09.slc.cpg/sg72_23_cif.got.tgz:44199.got - 2010.04.16 14:54:00.
