data_PCOD8295318
_publ_section_title
;
Structure prediction by ZEFSAII (Michael W. Deem and Ramdas Pophale) SiO2 
 PCOD8295318
Probable space group: I B A M
;
_chemical_formula_sum "Si O2"
_cell_formula_units_Z 88
_cell_length_a 29.164200
_cell_length_b 12.236090
_cell_length_c 12.919394
_cell_angle_alpha 90.000000
_cell_angle_beta 90.000000
_cell_angle_gamma 90.000000
_cell_volume 4610.360371
_symmetry_space_group_name_H-M "I B A M"
_symmetry_group_IT_number 72
_symmetry_cell_setting 'orthorhombic'
loop_
_space_group_symop_operation_xyz
x,y,z
-x,-y,z
x,-y,1/2-z
-x,y,1/2-z
-x,-y,-z
x,y,-z
-x,y,1/2+z
x,-y,1/2+z
1/2+x,1/2+y,1/2+z
1/2-x,1/2-y,1/2+z
1/2+x,1/2-y,-z
1/2-x,1/2+y,-z
1/2-x,1/2-y,1/2-z
1/2+x,1/2+y,1/2-z
1/2-x,1/2+y,z
1/2+x,1/2-y,z
loop_
_atom_site_type_symbol
_atom_site_label
_atom_site_fract_x
_atom_site_fract_y
_atom_site_fract_z
Si Si1 0.346258 0.400686 0.500000
Si Si2 0.762756 0.584399 0.500000
Si Si3 0.658352 0.944953 0.500000
Si Si4 0.663222 0.357738 0.500000
Si Si5 0.207751 0.742194 0.173120
Si Si6 0.869328 0.274039 0.334452
Si Si7 0.947600 0.376942 0.221484
Si Si8 0.594650 0.154717 0.500000
O O1 0.291528 0.410380 0.500000
O O2 0.363205 0.525875 0.500000
O O3 0.364468 0.338973 0.602046
O O4 0.786309 0.464597 0.500000
O O5 0.782377 0.639091 0.397473
O O6 0.646244 0.876756 0.600008
O O7 0.631232 0.057897 0.500000
O O8 0.697192 0.347465 0.600036
O O9 0.623485 0.266723 0.500000
O O10 0.250000 0.750000 0.250000
O O11 0.161148 0.723652 0.233168
O O12 0.920937 0.291124 0.295010
O O13 0.932449 0.500000 0.250000
O O14 0.000000 0.357317 0.250000
O O15 0.938171 0.353195 0.100408
#
# Coordination Sequence:
#
# PCOD8295318 Si02
#       8
#     8   8   8   8  16  16  16   8
#     4  11  26  40  59  89 127 173 221 261 306 369
#     4  11  22  37  55  89 120 171 212 257 308 375
#     4  11  22  36  65  87 131 165 206 257 324 386
#     4  11  25  42  61  85 128 173 221 262 305 381
#     4  11  22  39  60  87 123 166 218 260 310 373
#     4  11  23  42  62  92 129 167 207 265 327 383
#     4  11  24  41  69 102 129 160 204 264 342 400
#     4  12  21  42  65  93 127 164 205 253 321 386
#
# _framework density 19.087444999999999
#
# number of rings (size 3 to 8) (size 9 to 14) (size 15 to 20)
#    0.000    0.909    7.273    0.000    2.545    3.636 
#    0.000    0.000    0.000    3.273    0.000    0.000 
#    0.000    0.000    0.000    0.000    0.000    0.000 
#
# Total GULP energy -545432.493060 kJ/mol
# GULP energy per Si atom -12396.193024 kJ/mol
# Density = 1.904400 g / cm^3
# Si number density = 19.087445 Si / 1000 Ang^3
#
#
#
# Elastic Constant Matrix: (Units=GPa)
#
#
# Indices 1 2 3 4 5 6 
#
# 1 110.0840 54.9025 62.6853 0.0000 0.0000 0.0000
# 2 54.9025 125.4230 56.2760 0.0000 0.0000 0.0000
# 3 62.6853 56.2760 150.0583 0.0000 0.0000 0.0000
# 4 0.0000 0.0000 0.0000 10.7903 0.0000 0.0000
# 5 0.0000 0.0000 0.0000 0.0000 36.5356 0.0000
# 6 0.0000 0.0000 0.0000 0.0000 0.0000 26.7665
#
#
#
# Elastic Compliance Matrix: (Units=1/GPa)
#
#
# Indices 1 2 3 4 5 6 
#
# 1 0.013432 -0.004042 -0.004095 0.000000 0.000000 0.000000
# 2 -0.004042 0.010803 -0.002363 0.000000 0.000000 0.000000
# 3 -0.004095 -0.002363 0.009261 0.000000 0.000000 0.000000
# 4 0.000000 0.000000 0.000000 0.092676 0.000000 0.000000
# 5 0.000000 0.000000 0.000000 0.000000 0.027371 0.000000
# 6 0.000000 0.000000 0.000000 0.000000 0.000000 0.037360
#
#
# Mechanical properties :
#
#
# Convention : Reuss Voigt Hill
#
# Bulk Modulus (GPa) = 80.03006 81.47698 80.75352
# Shear Modulus (GPa) = 23.14100 28.93192 26.03646
#
# Velocity S-wave (km/s) = 3.48568 3.89750 3.69733
# Velocity P-wave (km/s) = 7.63015 7.93932 7.78627
#
# Compressibility (1/GPa) = 0.01249531
#
# Stress axis : x y z
#
# Youngs Moduli (GPa) = 74.45010 92.57071 107.98197
#
# Poissons Ratio (x) = 0.37419 0.44219
# Poissons Ratio (y) = 0.30094 0.25512
# Poissons Ratio (z) = 0.30488 0.21871
#
# Static dielectric constant tensor:
#      x y z
#    x 3.669360 0.000000 0.000000 
#    y 0.000000 3.571750 0.000000 
#    z 0.000000 0.000000 3.490000 
# 
# 
# High freq. dielectric constant tensor:
#      x y z
#    x 1.734110 0.000000 0.000000 
#    y 0.000000 1.726510 0.000000 
#    z 0.000000 0.000000 1.767750 
# 
# From -- ./inp_files/16815.got.cif
#   From: 2010.03.12/outbox.cif.g09.slc.cpg/sg72_9_cif.got.tgz:16815.got - 2010.04.16 14:54:00.
