data_PCOD8295199
_publ_section_title
;
Structure prediction by ZEFSAII (Michael W. Deem and Ramdas Pophale) SiO2 
 PCOD8295199
Probable space group: I B A M
;
_chemical_formula_sum "Si O2"
_cell_formula_units_Z 72
_cell_length_a 9.151409
_cell_length_b 23.828555
_cell_length_c 14.899814
_cell_angle_alpha 90.000000
_cell_angle_beta 90.000000
_cell_angle_gamma 90.000000
_cell_volume 3249.125745
_symmetry_space_group_name_H-M "I B A M"
_symmetry_group_IT_number 72
_symmetry_cell_setting 'orthorhombic'
loop_
_space_group_symop_operation_xyz
x,y,z
-x,-y,z
x,-y,1/2-z
-x,y,1/2-z
-x,-y,-z
x,y,-z
-x,y,1/2+z
x,-y,1/2+z
1/2+x,1/2+y,1/2+z
1/2-x,1/2-y,1/2+z
1/2+x,1/2-y,-z
1/2-x,1/2+y,-z
1/2-x,1/2-y,1/2-z
1/2+x,1/2+y,1/2-z
1/2-x,1/2+y,z
1/2+x,1/2-y,z
loop_
_atom_site_type_symbol
_atom_site_label
_atom_site_fract_x
_atom_site_fract_y
_atom_site_fract_z
Si Si1 0.104747 0.388427 0.323201
Si Si2 0.112759 0.949957 0.900009
Si Si3 0.838277 0.228764 0.500000
Si Si4 0.686853 0.000000 0.250000
Si Si5 0.032293 0.671447 0.000000
Si Si6 0.073372 0.845178 0.339253
O O1 0.093923 0.456285 0.310757
O O2 0.039830 0.371107 0.418043
O O3 0.270462 0.369605 0.312078
O O4 0.000000 0.358813 0.250000
O O5 0.026258 0.893254 0.881041
O O6 0.225042 0.960697 0.819589
O O7 0.185549 0.946082 0.000000
O O8 0.000000 0.000000 0.899255
O O9 0.664744 0.217063 0.500000
O O10 0.911896 0.203890 0.411077
O O11 0.878372 0.294923 0.500000
O O12 0.000000 0.819496 0.250000
#
# Coordination Sequence:
#
# PCOD8295199 Si02
#       6
#    16  16   8   8   8  16
#     4  11  25  43  64  96 137 176 216 272 344 417
#     4  11  20  33  64 101 136 169 223 285 334 388
#     4  10  24  44  68  97 127 173 228 278 339 397
#     4  12  22  40  64 102 142 184 222 268 340 420
#     4  10  26  50  72  92 134 173 230 289 340 395
#     4  11  20  39  67  99 128 172 226 281 333 395
#
# _framework density 22.159806
#
# number of rings (size 3 to 8) (size 9 to 14) (size 15 to 20)
#    0.000    1.111    5.556    0.667    1.556    2.667 
#    2.000    5.556    0.000    0.000    0.000    0.000 
#    0.000    0.000    0.000    0.000    0.000    0.000 
#
# Total GULP energy -446297.100680 kJ/mol
# GULP energy per Si atom -12397.141686 kJ/mol
# Density = 2.210937 g / cm^3
# Si number density = 22.159806 Si / 1000 Ang^3
#
#
#
# Elastic Constant Matrix: (Units=GPa)
#
#
# Indices 1 2 3 4 5 6 
#
# 1 51.0985 34.2816 44.1416 0.0006 0.0000 0.0000
# 2 34.2816 90.2955 47.4141 -0.0008 0.0000 0.0000
# 3 44.1416 47.4141 172.8458 -0.0020 0.0002 0.0001
# 4 0.0006 -0.0008 -0.0020 -135.8835 0.0015 -0.0006
# 5 0.0000 0.0000 0.0002 0.0015 23.7694 -0.0001
# 6 0.0000 0.0000 0.0001 -0.0006 -0.0001 12.7401
#
#
#
# Elastic Compliance Matrix: (Units=1/GPa)
#
#
# Indices 1 2 3 4 5 6 
#
# 1 0.029882 -0.008573 -0.005280 0.000000 0.000000 0.000000
# 2 -0.008573 0.015398 -0.002035 0.000000 0.000000 0.000000
# 3 -0.005280 -0.002035 0.007692 0.000000 0.000000 0.000000
# 4 0.000000 0.000000 0.000000 -0.007359 0.000000 0.000000
# 5 0.000000 0.000000 0.000000 0.000000 0.042071 0.000000
# 6 0.000000 0.000000 0.000000 0.000000 0.000000 0.078492
#
#
# Mechanical properties :
#
#
# Convention : Reuss Voigt Hill
#
# Bulk Modulus (GPa) = 47.17411 62.87939 55.02675
# Shear Modulus (GPa) = 24.38828 -7.31464 8.53682
#
# Velocity S-wave (km/s) = 3.32107 -1.81880 1.96488
# Velocity P-wave (km/s) = 6.00337 4.90167 5.48027
#
# Compressibility (1/GPa) = 0.02119807
#
# Stress axis : x y z
#
# Youngs Moduli (GPa) = 33.46445 64.94433 130.00585
#
# Poissons Ratio (x) = 0.55675 0.68640
# Poissons Ratio (y) = 0.28688 0.26450
# Poissons Ratio (z) = 0.17669 0.13213
#
# Static dielectric constant tensor:
#      x y z
#    x 4.048300 0.000000 0.000000 
#    y 0.000000 3.712450 0.000000 
#    z 0.000000 0.000000 4.507260 
# 
# 
# High freq. dielectric constant tensor:
#      x y z
#    x 1.870390 0.000000 0.000000 
#    y 0.000000 1.858690 0.000000 
#    z 0.000000 0.000000 1.892780 
# 
# From -- ./inp_files/18933.got.cif
#   From: 2010.03.12/outbox.cif.g09.slc.cpg/sg72_10_cif.got.tgz:18933.got - 2010.04.16 14:54:00.
