data_PCOD8295969
_publ_section_title
;
Structure prediction by ZEFSAII (Michael W. Deem and Ramdas Pophale) SiO2 
 PCOD8295969
Probable space group: I B C A 
;
_chemical_formula_sum "Si O2"
_cell_formula_units_Z 72
_cell_length_a 13.060082
_cell_length_b 20.689919
_cell_length_c 12.977361
_cell_angle_alpha 90.000000
_cell_angle_beta 90.000000
_cell_angle_gamma 90.000000
_cell_volume 3506.639173
_symmetry_space_group_name_H-M "I B C A "
_symmetry_group_IT_number 73
_symmetry_cell_setting 'orthorhombic'
loop_
_space_group_symop_operation_xyz
x,y,z
-x,1/2-y,z
x,-y,1/2-z
1/2-x,y,-z
-x,-y,-z
x,1/2+y,-z
-x,y,1/2+z
1/2+x,-y,z
1/2+x,1/2+y,1/2+z
1/2-x,-y,1/2+z
1/2+x,1/2-y,-z
-x,1/2+y,1/2-z
1/2-x,1/2-y,1/2-z
1/2+x,y,1/2-z
1/2-x,1/2+y,z
x,1/2-y,1/2+z
loop_
_atom_site_type_symbol
_atom_site_label
_atom_site_fract_x
_atom_site_fract_y
_atom_site_fract_z
Si Si1 0.073450 0.696178 0.509803
Si Si2 0.500000 0.250000 0.312250
Si Si3 0.684323 0.306603 0.702616
Si Si4 0.253503 0.055960 0.330692
Si Si5 0.083610 0.054569 0.494246
O O1 0.082281 0.712043 0.387130
O O2 0.028468 0.623746 0.524144
O O3 0.000000 0.750000 0.561537
O O4 0.067378 0.699539 0.745918
O O5 0.320984 0.300868 0.076705
O O6 0.750000 0.250000 0.750000
O O7 0.732324 0.376414 0.729502
O O8 0.156402 0.036519 0.399369
O O9 0.354064 0.061893 0.400129
O O10 0.274358 0.000000 0.250000
O O11 0.000000 0.000000 0.500000
#
# Coordination Sequence:
#
# PCOD8295969 Si02
#       5
#    16   8  16  16  16
#     4   9  21  39  60  91 123 157 209 255 313 380
#     4  10  20  38  64  90 124 154 208 256 316 382
#     4  11  22  40  65  91 127 164 209 262 321 376
#     4  10  24  42  60  95 126 162 217 263 312 380
#     4  10  22  42  64  86 128 170 205 261 321 372
#
# _framework density 20.53248
#
# number of rings (size 3 to 8) (size 9 to 14) (size 15 to 20)
#    0.667    1.333    1.111    1.333    3.111    5.333 
#    4.000    0.000    0.000    0.000    0.000    0.000 
#    0.000    0.000    0.000    0.000    0.000    0.000 
#
# Total GULP energy -446038.581464 kJ/mol
# GULP energy per Si atom -12389.960596 kJ/mol
# Density = 2.048575 g / cm^3
# Si number density = 20.532480 Si / 1000 Ang^3
#
#
#
# Elastic Constant Matrix: (Units=GPa)
#
#
# Indices 1 2 3 4 5 6 
#
# 1 77.9590 68.3351 32.3438 0.0001 0.0000 0.0000
# 2 68.3351 184.7828 53.1262 0.0001 0.0000 0.0000
# 3 32.3438 53.1262 90.6521 0.0002 0.0000 0.0000
# 4 0.0001 0.0001 0.0002 30.6058 0.0000 0.0000
# 5 0.0000 0.0000 0.0000 0.0000 23.0561 0.0000
# 6 0.0000 0.0000 0.0000 0.0000 0.0000 43.3995
#
#
#
# Elastic Compliance Matrix: (Units=1/GPa)
#
#
# Indices 1 2 3 4 5 6 
#
# 1 0.019783 -0.006358 -0.003332 0.000000 0.000000 0.000000
# 2 -0.006358 0.008552 -0.002743 0.000000 0.000000 0.000000
# 3 -0.003332 -0.002743 0.013828 0.000000 0.000000 0.000000
# 4 0.000000 0.000000 0.000000 0.032674 0.000000 0.000000
# 5 0.000000 0.000000 0.000000 0.000000 0.043372 0.000000
# 6 0.000000 0.000000 0.000000 0.000000 0.000000 0.023042
#
#
# Mechanical properties :
#
#
# Convention : Reuss Voigt Hill
#
# Bulk Modulus (GPa) = 57.81882 73.44489 65.63186
# Shear Modulus (GPa) = 29.08973 32.71819 30.90396
#
# Velocity S-wave (km/s) = 3.76808 3.99618 3.88380
# Velocity P-wave (km/s) = 6.86674 7.55912 7.22123
#
# Compressibility (1/GPa) = 0.01729541
#
# Stress axis : x y z
#
# Youngs Moduli (GPa) = 50.54908 116.93604 72.31812
#
# Poissons Ratio (x) = 0.74346 0.24099
# Poissons Ratio (y) = 0.32138 0.19839
# Poissons Ratio (z) = 0.16844 0.32079
#
# Static dielectric constant tensor:
#      x y z
#    x 3.567030 0.000000 0.000000 
#    y 0.000000 3.810580 0.000010 
#    z 0.000000 0.000010 3.484790 
# 
# 
# High freq. dielectric constant tensor:
#      x y z
#    x 1.785400 0.000000 0.000000 
#    y 0.000000 1.807250 0.000000 
#    z 0.000000 0.000000 1.810500 
# 
# From -- ./inp_files/16769.got.cif
#   From: 2010.03.12/outbox.cif.g09.slc.cpg/sg73_9_cif.got.tgz:16769.got - 2010.04.16 15:25:48.
