data_PCOD8295877
_publ_section_title
;
Structure prediction by ZEFSAII (Michael W. Deem and Ramdas Pophale) SiO2 
 PCOD8295877
Probable space group: I B C A 
;
_chemical_formula_sum "Si O2"
_cell_formula_units_Z 96
_cell_length_a 22.239577
_cell_length_b 23.650277
_cell_length_c 8.687567
_cell_angle_alpha 90.000000
_cell_angle_beta 90.000000
_cell_angle_gamma 90.000000
_cell_volume 4569.418349
_symmetry_space_group_name_H-M "I B C A "
_symmetry_group_IT_number 73
_symmetry_cell_setting 'orthorhombic'
loop_
_space_group_symop_operation_xyz
x,y,z
-x,1/2-y,z
x,-y,1/2-z
1/2-x,y,-z
-x,-y,-z
x,1/2+y,-z
-x,y,1/2+z
1/2+x,-y,z
1/2+x,1/2+y,1/2+z
1/2-x,-y,1/2+z
1/2+x,1/2-y,-z
-x,1/2+y,1/2-z
1/2-x,1/2-y,1/2-z
1/2+x,y,1/2-z
1/2-x,1/2+y,z
x,1/2-y,1/2+z
loop_
_atom_site_type_symbol
_atom_site_label
_atom_site_fract_x
_atom_site_fract_y
_atom_site_fract_z
Si Si1 0.516562 0.377078 0.551110
Si Si2 0.453040 0.699762 0.719524
Si Si3 0.568826 0.939832 0.169843
Si Si4 0.669839 0.715518 0.356173
Si Si5 0.224717 0.169957 0.351836
Si Si6 0.185457 0.887375 0.428617
O O1 0.467150 0.337500 0.630675
O O2 0.553527 0.338909 0.431475
O O3 0.561822 0.397192 0.685408
O O4 0.483699 0.427852 0.456395
O O5 0.500000 0.750000 0.690576
O O6 0.388306 0.725870 0.751807
O O7 0.631999 0.934068 0.074055
O O8 0.561721 0.000000 0.250000
O O9 0.686455 0.777388 0.420309
O O10 0.723085 0.692042 0.255769
O O11 0.661757 0.670506 0.493825
O O12 0.250000 0.136739 0.500000
O O13 0.188638 0.124658 0.253244
O O14 0.250000 0.908926 0.500000
#
# Coordination Sequence:
#
# PCOD8295877 Si02
#       6
#    16  16  16  16  16  16
#     4  10  24  40  61  97 124 164 213 251 318 377
#     4  11  23  36  59  93 134 167 193 251 311 384
#     4  11  23  45  70  89 118 165 216 277 318 367
#     4  10  20  36  55  83 126 165 200 238 303 376
#     4  10  21  33  57  86 116 167 208 240 290 384
#     4  10  22  41  62  88 126 163 202 261 320 374
#
# _framework density 21.009239999999998
#
# number of rings (size 3 to 8) (size 9 to 14) (size 15 to 20)
#    0.000    1.667    1.667    3.500    7.000    2.667 
#    0.000    0.833    0.000    0.000    0.000    0.000 
#    0.000    0.000    0.000    0.000    0.000    0.000 
#
# Total GULP energy -594775.215198 kJ/mol
# GULP energy per Si atom -12391.150317 kJ/mol
# Density = 2.096142 g / cm^3
# Si number density = 21.009240 Si / 1000 Ang^3
#
#
#
# Elastic Constant Matrix: (Units=GPa)
#
#
# Indices 1 2 3 4 5 6 
#
# 1 83.5565 16.3264 3.0343 0.0000 0.0000 0.0000
# 2 16.3264 56.5903 12.6467 0.0000 0.0000 0.0000
# 3 3.0343 12.6467 89.5198 0.0000 0.0000 0.0000
# 4 0.0000 0.0000 0.0000 28.6564 0.0000 0.0000
# 5 0.0000 0.0000 0.0000 0.0000 21.4603 0.0000
# 6 0.0000 0.0000 0.0000 0.0000 0.0000 19.4626
#
#
#
# Elastic Compliance Matrix: (Units=1/GPa)
#
#
# Indices 1 2 3 4 5 6 
#
# 1 0.012684 -0.003679 0.000090 0.000000 0.000000 0.000000
# 2 -0.003679 0.019314 -0.002604 0.000000 0.000000 0.000000
# 3 0.000090 -0.002604 0.011536 0.000000 0.000000 0.000000
# 4 0.000000 0.000000 0.000000 0.034896 0.000000 0.000000
# 5 0.000000 0.000000 0.000000 0.000000 0.046598 0.000000
# 6 0.000000 0.000000 0.000000 0.000000 0.000000 0.051380
#
#
# Mechanical properties :
#
#
# Convention : Reuss Voigt Hill
#
# Bulk Modulus (GPa) = 32.10606 32.63125 32.36866
# Shear Modulus (GPa) = 25.10333 27.09314 26.09823
#
# Velocity S-wave (km/s) = 3.46044 3.59497 3.52835
# Velocity P-wave (km/s) = 5.59296 5.72690 5.66033
#
# Compressibility (1/GPa) = 0.03114676
#
# Stress axis : x y z
#
# Youngs Moduli (GPa) = 78.84191 51.77520 86.68871
#
# Poissons Ratio (x) = 0.19050 -0.00779
# Poissons Ratio (y) = 0.29009 0.22573
# Poissons Ratio (z) = -0.00709 0.13482
#
# Static dielectric constant tensor:
#      x y z
#    x 3.947290 0.000000 0.000000 
#    y 0.000000 3.519850 0.000000 
#    z 0.000000 0.000000 4.105080 
# 
# 
# High freq. dielectric constant tensor:
#      x y z
#    x 1.827320 0.000000 0.000000 
#    y 0.000000 1.778810 0.000000 
#    z 0.000000 0.000000 1.842370 
# 
# From -- ./inp_files/7159.got.cif
#   From: 2010.03.12/outbox.cif.g09.slc.cpg/sg73_4_cif.got.tgz:7159.got - 2010.04.16 15:25:48.
