data_PCOD8295317
_publ_section_title
;
Structure prediction by ZEFSAII (Michael W. Deem and Ramdas Pophale) SiO2 
 PCOD8295317
Probable space group: I B A M
;
_chemical_formula_sum "Si O2"
_cell_formula_units_Z 112
_cell_length_a 23.894778
_cell_length_b 14.845574
_cell_length_c 14.300508
_cell_angle_alpha 90.000000
_cell_angle_beta 90.000000
_cell_angle_gamma 90.000000
_cell_volume 5072.843442
_symmetry_space_group_name_H-M "I B A M"
_symmetry_group_IT_number 72
_symmetry_cell_setting 'orthorhombic'
loop_
_space_group_symop_operation_xyz
x,y,z
-x,-y,z
x,-y,1/2-z
-x,y,1/2-z
-x,-y,-z
x,y,-z
-x,y,1/2+z
x,-y,1/2+z
1/2+x,1/2+y,1/2+z
1/2-x,1/2-y,1/2+z
1/2+x,1/2-y,-z
1/2-x,1/2+y,-z
1/2-x,1/2-y,1/2-z
1/2+x,1/2+y,1/2-z
1/2-x,1/2+y,z
1/2+x,1/2-y,z
loop_
_atom_site_type_symbol
_atom_site_label
_atom_site_fract_x
_atom_site_fract_y
_atom_site_fract_z
Si Si1 0.551562 0.706551 0.606749
Si Si2 0.073498 0.839672 0.897004
Si Si3 0.115934 0.022728 0.858061
Si Si4 0.237745 0.021397 0.357563
Si Si5 0.229117 0.277098 0.106106
Si Si6 0.820364 0.624872 0.398344
Si Si7 0.371813 0.222954 0.253215
O O1 0.554366 0.740238 0.500000
O O2 0.488625 0.685108 0.637409
O O3 0.590995 0.619781 0.619876
O O4 0.575169 0.784485 0.676239
O O5 0.077525 0.947403 0.906671
O O6 0.118381 0.804027 0.821391
O O7 0.085114 0.797843 0.000000
O O8 0.179204 0.016406 0.898577
O O9 0.116580 0.000000 0.750000
O O10 0.242652 0.126340 0.378923
O O11 0.241920 0.000000 0.250000
O O12 0.290186 0.971211 0.404640
O O13 0.276044 0.203073 0.124242
O O14 0.181461 0.256853 0.181951
O O15 0.205294 0.270018 0.000000
O O16 0.849211 0.640227 0.500000
O O17 0.864612 0.632905 0.311607
#
# Coordination Sequence:
#
# PCOD8295317 Si02
#       7
#    16  16  16  16  16  16  16
#     4  11  24  40  60  89 123 164 214 264 319 382
#     4  11  24  40  60  89 123 164 214 264 319 382
#     4  11  22  36  61  87 125 170 213 254 311 379
#     4  11  23  40  62  94 132 173 212 257 309 378
#     4  11  24  40  62  91 126 168 214 262 313 375
#     4  11  24  40  62  91 126 168 214 262 313 375
#     4  12  22  38  59  82 118 158 204 255 308 361
#
# _framework density 22.078347999999998
#
# number of rings (size 3 to 8) (size 9 to 14) (size 15 to 20)
#    0.000    0.857    2.857    4.714    4.000    6.286 
#    0.000    0.000    0.000    0.000    0.000    8.000 
#    0.000   18.286    0.000    0.000    0.000    0.000 
#
# Total GULP energy -694155.440801 kJ/mol
# GULP energy per Si atom -12395.632871 kJ/mol
# Density = 2.202810 g / cm^3
# Si number density = 22.078348 Si / 1000 Ang^3
#
#
#
# Elastic Constant Matrix: (Units=GPa)
#
#
# Indices 1 2 3 4 5 6 
#
# 1 96.2627 23.0153 46.1089 0.0000 0.0000 0.0000
# 2 23.0153 53.5731 6.2629 0.0000 0.0000 0.0000
# 3 46.1089 6.2629 148.5074 0.0000 0.0000 0.0000
# 4 0.0000 0.0000 0.0000 19.7282 0.0000 0.0000
# 5 0.0000 0.0000 0.0000 0.0000 22.5599 0.0000
# 6 0.0000 0.0000 0.0000 0.0000 0.0000 34.5357
#
#
#
# Elastic Compliance Matrix: (Units=1/GPa)
#
#
# Indices 1 2 3 4 5 6 
#
# 1 0.013584 -0.005369 -0.003991 0.000000 0.000000 0.000000
# 2 -0.005369 0.020881 0.000786 0.000000 0.000000 0.000000
# 3 -0.003991 0.000786 0.007940 0.000000 0.000000 0.000000
# 4 0.000000 0.000000 0.000000 0.050689 0.000000 0.000000
# 5 0.000000 0.000000 0.000000 0.000000 0.044326 0.000000
# 6 0.000000 0.000000 0.000000 0.000000 0.000000 0.028956
#
#
# Mechanical properties :
#
#
# Convention : Reuss Voigt Hill
#
# Bulk Modulus (GPa) = 39.59356 49.90193 44.74775
# Shear Modulus (GPa) = 26.04969 30.22851 28.13910
#
# Velocity S-wave (km/s) = 3.43866 3.70421 3.57390
# Velocity P-wave (km/s) = 5.80844 6.39892 6.11082
#
# Compressibility (1/GPa) = 0.02525663
#
# Stress axis : x y z
#
# Youngs Moduli (GPa) = 73.61835 47.89114 125.95006
#
# Poissons Ratio (x) = 0.25713 0.50267
# Poissons Ratio (y) = 0.39526 -0.09905
# Poissons Ratio (z) = 0.29381 -0.03766
#
# Static dielectric constant tensor:
#      x y z
#    x 4.070410 0.000000 0.000000 
#    y 0.000000 3.890240 0.000000 
#    z 0.000000 0.000000 4.548660 
# 
# 
# High freq. dielectric constant tensor:
#      x y z
#    x 1.849430 0.000000 0.000000 
#    y 0.000000 1.828520 0.000000 
#    z 0.000000 0.000000 1.906050 
# 
# From -- ./inp_files/22172.got.cif
#   From: 2010.03.12/outbox.cif.g09.slc.cpg/sg72_12_cif.got.tgz:22172.got - 2010.04.16 14:54:00.
