data_PCOD8295903
_publ_section_title
;
Structure prediction by ZEFSAII (Michael W. Deem and Ramdas Pophale) SiO2 
 PCOD8295903
Probable space group: I B C A 
;
_chemical_formula_sum "Si O2"
_cell_formula_units_Z 112
_cell_length_a 22.965893
_cell_length_b 14.746025
_cell_length_c 16.519613
_cell_angle_alpha 90.000000
_cell_angle_beta 90.000000
_cell_angle_gamma 90.000000
_cell_volume 5594.459986
_symmetry_space_group_name_H-M "I B C A "
_symmetry_group_IT_number 73
_symmetry_cell_setting 'orthorhombic'
loop_
_space_group_symop_operation_xyz
x,y,z
-x,1/2-y,z
x,-y,1/2-z
1/2-x,y,-z
-x,-y,-z
x,1/2+y,-z
-x,y,1/2+z
1/2+x,-y,z
1/2+x,1/2+y,1/2+z
1/2-x,-y,1/2+z
1/2+x,1/2-y,-z
-x,1/2+y,1/2-z
1/2-x,1/2-y,1/2-z
1/2+x,y,1/2-z
1/2-x,1/2+y,z
x,1/2-y,1/2+z
loop_
_atom_site_type_symbol
_atom_site_label
_atom_site_fract_x
_atom_site_fract_y
_atom_site_fract_z
Si Si1 0.095907 0.490818 0.616978
Si Si2 0.205385 0.910288 0.288289
Si Si3 0.648018 0.684167 0.852339
Si Si4 0.597855 0.545109 0.432659
Si Si5 0.549921 0.311247 0.187075
Si Si6 0.210518 0.654769 0.078076
Si Si7 0.530256 0.060812 0.821042
O O1 0.145536 0.436414 0.665385
O O2 0.113667 0.597388 0.610693
O O3 0.086579 0.450205 0.527958
O O4 0.035087 0.474471 0.661790
O O5 0.195092 0.845494 0.212630
O O6 0.249305 0.856543 0.344335
O O7 0.234660 0.000000 0.250000
O O8 0.607030 0.751519 0.802715
O O9 0.679519 0.745878 0.921587
O O10 0.556378 0.612654 0.382267
O O11 0.665168 0.570816 0.419181
O O12 0.575709 0.447147 0.397178
O O13 0.500000 0.250000 0.149123
O O14 0.531395 0.340650 0.278841
O O15 0.250000 0.645435 0.000000
O O16 0.558064 0.000000 0.750000
#
# Coordination Sequence:
#
# PCOD8295903 Si02
#       7
#    16  16  16  16  16  16  16
#     4  11  20  40  62  88 121 162 206 250 311 378
#     4  10  21  39  64  86 114 168 211 250 307 378
#     4  10  22  38  60  88 120 158 206 254 309 367
#     4  10  22  38  62  87 122 162 204 255 305 370
#     4  10  20  38  59  90 126 160 195 257 313 364
#     4  11  22  42  59  86 127 158 204 270 316 354
#     4  10  20  36  61  88 117 155 201 243 301 376
#
# _framework density 20.019805999999999
#
# number of rings (size 3 to 8) (size 9 to 14) (size 15 to 20)
#    0.000    1.714    1.429    4.714    0.000    2.857 
#    7.714    3.571    0.000    0.000    0.000    0.000 
#    0.000    0.000    0.000    0.000    0.000    0.000 
#
# Total GULP energy -693841.146120 kJ/mol
# GULP energy per Si atom -12390.020466 kJ/mol
# Density = 1.997424 g / cm^3
# Si number density = 20.019806 Si / 1000 Ang^3
#
#
#
# Elastic Constant Matrix: (Units=GPa)
#
#
# Indices 1 2 3 4 5 6 
#
# 1 99.1788 39.6292 34.7538 0.0000 0.0000 0.0000
# 2 39.6292 80.1404 26.7639 0.0000 0.0000 0.0000
# 3 34.7538 26.7639 86.5142 0.0000 0.0000 0.0000
# 4 0.0000 0.0000 0.0000 4.7837 0.0000 0.0000
# 5 0.0000 0.0000 0.0000 0.0000 28.7518 0.0000
# 6 0.0000 0.0000 0.0000 0.0000 0.0000 4.4401
#
#
#
# Elastic Compliance Matrix: (Units=1/GPa)
#
#
# Indices 1 2 3 4 5 6 
#
# 1 0.013585 -0.005459 -0.003768 0.000000 0.000000 0.000000
# 2 -0.005459 0.016110 -0.002791 0.000000 0.000000 0.000000
# 3 -0.003768 -0.002791 0.013936 0.000000 0.000000 0.000000
# 4 0.000000 0.000000 0.000000 0.209043 0.000000 0.000000
# 5 0.000000 0.000000 0.000000 0.000000 0.034780 0.000000
# 6 0.000000 0.000000 0.000000 0.000000 0.000000 0.225220
#
#
# Mechanical properties :
#
#
# Convention : Reuss Voigt Hill
#
# Bulk Modulus (GPa) = 51.03601 52.01413 51.52507
# Shear Modulus (GPa) = 9.20402 18.57422 13.88912
#
# Velocity S-wave (km/s) = 2.14649 3.04927 2.63681
# Velocity P-wave (km/s) = 5.62951 6.19961 5.92142
#
# Compressibility (1/GPa) = 0.01959401
#
# Stress axis : x y z
#
# Youngs Moduli (GPa) = 73.61297 62.07491 71.75729
#
# Poissons Ratio (x) = 0.33887 0.27040
# Poissons Ratio (y) = 0.40186 0.20025
# Poissons Ratio (z) = 0.27739 0.17323
#
# Static dielectric constant tensor:
#      x y z
#    x 3.712210 0.000000 0.000000 
#    y 0.000000 3.933470 0.000000 
#    z 0.000000 0.000000 3.718760 
# 
# 
# High freq. dielectric constant tensor:
#      x y z
#    x 1.784520 0.000000 0.000000 
#    y 0.000000 1.776660 0.000000 
#    z 0.000000 0.000000 1.779770 
# 
# From -- ./inp_files/19394.got.cif
#   From: 2010.03.12/outbox.cif.g09.slc.cpg/sg73_10_cif.got.tgz:19394.got - 2010.04.16 15:25:48.
