data_PCOD8295230
_publ_section_title
;
Structure prediction by ZEFSAII (Michael W. Deem and Ramdas Pophale) SiO2 
 PCOD8295230
Probable space group: I B A M
;
_chemical_formula_sum "Si O2"
_cell_formula_units_Z 112
_cell_length_a 30.750866
_cell_length_b 11.831372
_cell_length_c 17.937825
_cell_angle_alpha 90.000000
_cell_angle_beta 90.000000
_cell_angle_gamma 90.000000
_cell_volume 6526.228014
_symmetry_space_group_name_H-M "I B A M"
_symmetry_group_IT_number 72
_symmetry_cell_setting 'orthorhombic'
loop_
_space_group_symop_operation_xyz
x,y,z
-x,-y,z
x,-y,1/2-z
-x,y,1/2-z
-x,-y,-z
x,y,-z
-x,y,1/2+z
x,-y,1/2+z
1/2+x,1/2+y,1/2+z
1/2-x,1/2-y,1/2+z
1/2+x,1/2-y,-z
1/2-x,1/2+y,-z
1/2-x,1/2-y,1/2-z
1/2+x,1/2+y,1/2-z
1/2-x,1/2+y,z
1/2+x,1/2-y,z
loop_
_atom_site_type_symbol
_atom_site_label
_atom_site_fract_x
_atom_site_fract_y
_atom_site_fract_z
Si Si1 0.584424 0.864995 0.334402
Si Si2 0.750017 0.674910 0.084474
Si Si3 0.500715 0.865705 0.915911
Si Si4 0.412604 0.122842 0.159834
Si Si5 0.166861 0.777720 0.840011
Si Si6 0.680321 0.496260 0.584903
Si Si7 0.670090 0.265882 0.163745
O O1 0.540362 0.816368 0.370858
O O2 0.577948 0.862991 0.246530
O O3 0.623692 0.784792 0.359692
O O4 0.594317 0.992108 0.362241
O O5 0.712461 0.756244 0.120041
O O6 0.730877 0.546529 0.085635
O O7 0.793135 0.679973 0.134392
O O8 0.760129 0.714923 0.000000
O O9 0.546160 0.822327 0.882077
O O10 0.500000 0.000000 0.909659
O O11 0.497037 0.822303 0.000000
O O12 0.369362 0.188207 0.135256
O O13 0.174077 0.779472 0.751804
O O14 0.152156 0.902574 0.869310
O O15 0.663189 0.504776 0.500000
O O16 0.676739 0.615006 0.624694
#
# Coordination Sequence:
#
# PCOD8295230 Si02
#       7
#    16  16  16  16  16  16  16
#     4   9  19  31  49  78 105 132 167 206 254 305
#     4   9  20  34  48  71 100 134 170 206 254 303
#     4   9  17  29  47  74 104 134 167 203 249 302
#     4   9  17  33  53  73 103 136 166 208 253 298
#     4   9  19  34  52  77  98 132 177 211 248 300
#     4   9  20  35  50  70 100 134 168 211 259 301
#     4  11  19  33  54  76 101 136 172 214 253 298
#
# _framework density 17.161521
#
# number of rings (size 3 to 8) (size 9 to 14) (size 15 to 20)
#    0.857    1.857    0.000    1.714    0.000    5.143 
#    0.000    1.429    0.000    0.857    0.000    6.000 
#    0.000    0.000    0.000    0.000    0.000    0.000 
#
# Total GULP energy -694041.911775 kJ/mol
# GULP energy per Si atom -12393.605567 kJ/mol
# Density = 1.712246 g / cm^3
# Si number density = 17.161521 Si / 1000 Ang^3
#
#
#
# Elastic Constant Matrix: (Units=GPa)
#
#
# Indices 1 2 3 4 5 6 
#
# 1 106.7290 26.6056 50.7208 0.0000 0.0000 0.0000
# 2 26.6056 57.7549 29.6061 0.0000 0.0000 0.0000
# 3 50.7208 29.6061 85.3273 0.0000 0.0000 0.0000
# 4 0.0000 0.0000 0.0000 18.3962 0.0000 0.0000
# 5 0.0000 0.0000 0.0000 0.0000 15.8666 0.0000
# 6 0.0000 0.0000 0.0000 0.0000 0.0000 23.2861
#
#
#
# Elastic Compliance Matrix: (Units=1/GPa)
#
#
# Indices 1 2 3 4 5 6 
#
# 1 0.013356 -0.002534 -0.007060 0.000000 0.000000 0.000000
# 2 -0.002534 0.021541 -0.005968 0.000000 0.000000 0.000000
# 3 -0.007060 -0.005968 0.017987 0.000000 0.000000 0.000000
# 4 0.000000 0.000000 0.000000 0.054359 0.000000 0.000000
# 5 0.000000 0.000000 0.000000 0.000000 0.063025 0.000000
# 6 0.000000 0.000000 0.000000 0.000000 0.000000 0.042944
#
#
# Mechanical properties :
#
#
# Convention : Reuss Voigt Hill
#
# Bulk Modulus (GPa) = 45.95457 51.51959 48.73708
# Shear Modulus (GPa) = 19.87355 21.03502 20.45428
#
# Velocity S-wave (km/s) = 3.40668 3.50481 3.45609
# Velocity P-wave (km/s) = 6.50459 6.81644 6.66234
#
# Compressibility (1/GPa) = 0.02176062
#
# Stress axis : x y z
#
# Youngs Moduli (GPa) = 74.87066 46.42306 55.59524
#
# Poissons Ratio (x) = 0.11762 0.39252
# Poissons Ratio (y) = 0.18969 0.33180
# Poissons Ratio (z) = 0.52861 0.27706
#
# Static dielectric constant tensor:
#      x y z
#    x 3.223220 0.000000 0.000000 
#    y 0.000000 2.916320 0.000000 
#    z 0.000000 0.000000 3.283430 
# 
# 
# High freq. dielectric constant tensor:
#      x y z
#    x 1.656950 0.000000 0.000000 
#    y 0.000000 1.628150 0.000000 
#    z 0.000000 0.000000 1.674970 
# 
# From -- ./inp_files/40896.got.cif
#   From: 2010.03.12/outbox.cif.g09.slc.cpg/sg72_21_cif.got.tgz:40896.got - 2010.04.16 14:54:00.
