data_PCOD8295901
_publ_section_title
;
Structure prediction by ZEFSAII (Michael W. Deem and Ramdas Pophale) SiO2 
 PCOD8295901
Probable space group: I B C A 
;
_chemical_formula_sum "Si O2"
_cell_formula_units_Z 104
_cell_length_a 19.837769
_cell_length_b 21.119631
_cell_length_c 12.737154
_cell_angle_alpha 90.000000
_cell_angle_beta 90.000000
_cell_angle_gamma 90.000000
_cell_volume 5336.439063
_symmetry_space_group_name_H-M "I B C A "
_symmetry_group_IT_number 73
_symmetry_cell_setting 'orthorhombic'
loop_
_space_group_symop_operation_xyz
x,y,z
-x,1/2-y,z
x,-y,1/2-z
1/2-x,y,-z
-x,-y,-z
x,1/2+y,-z
-x,y,1/2+z
1/2+x,-y,z
1/2+x,1/2+y,1/2+z
1/2-x,-y,1/2+z
1/2+x,1/2-y,-z
-x,1/2+y,1/2-z
1/2-x,1/2-y,1/2-z
1/2+x,y,1/2-z
1/2-x,1/2+y,z
x,1/2-y,1/2+z
loop_
_atom_site_type_symbol
_atom_site_label
_atom_site_fract_x
_atom_site_fract_y
_atom_site_fract_z
Si Si1 0.064132 0.825919 0.205815
Si Si2 0.250000 0.279778 0.000000
Si Si3 0.188580 0.469292 0.921630
Si Si4 0.280596 0.195591 0.178361
Si Si5 0.920243 0.185417 0.230749
Si Si6 0.675555 0.590492 0.705870
Si Si7 0.378818 0.145388 0.486133
O O1 0.078392 0.761658 0.270156
O O2 0.102624 0.881088 0.267491
O O3 0.089318 0.818854 0.086223
O O4 0.984262 0.841298 0.204844
O O5 0.206125 0.234099 0.927073
O O6 0.193779 0.325851 0.050102
O O7 0.210170 0.432563 0.815030
O O8 0.161221 0.537047 0.881800
O O9 0.131331 0.428846 0.983565
O O10 0.250000 0.480440 0.000000
O O11 0.250000 0.250000 0.250000
O O12 0.350127 0.163645 0.216583
O O13 0.226125 0.141369 0.157620
O O14 0.926858 0.156076 0.113646
#
# Coordination Sequence:
#
# PCOD8295901 Si02
#       7
#    16   8  16  16  16  16  16
#     4  10  22  39  54  87 125 162 195 244 304 367
#     4  12  20  32  62  92 116 150 192 250 322 358
#     4  10  20  36  61  86 112 156 205 249 297 352
#     4  12  20  36  58  93 121 148 193 255 303 352
#     4  11  22  36  61  87 127 159 198 247 305 371
#     4  10  21  38  59  85 121 154 201 248 300 356
#     4  11  20  38  61  86 116 162 207 243 307 369
#
# _framework density 19.488651000000001
#
# number of rings (size 3 to 8) (size 9 to 14) (size 15 to 20)
#    0.000    1.231    5.385    1.846    1.077    2.462 
#    2.769    0.769    0.000   12.923    0.000    0.000 
#    0.000    0.000    0.000    0.000    0.000    0.000 
#
# Total GULP energy -644486.731978 kJ/mol
# GULP energy per Si atom -12393.975615 kJ/mol
# Density = 1.944429 g / cm^3
# Si number density = 19.488651 Si / 1000 Ang^3
#
#
#
# Elastic Constant Matrix: (Units=GPa)
#
#
# Indices 1 2 3 4 5 6 
#
# 1 123.4192 39.2943 39.6000 0.0000 0.0000 0.0000
# 2 39.2943 103.1570 40.1132 0.0000 0.0000 0.0000
# 3 39.6000 40.1132 93.3728 0.0000 0.0000 0.0000
# 4 0.0000 0.0000 0.0000 31.1258 0.0000 0.0000
# 5 0.0000 0.0000 0.0000 0.0000 28.4799 0.0000
# 6 0.0000 0.0000 0.0000 0.0000 0.0000 20.4961
#
#
#
# Elastic Compliance Matrix: (Units=1/GPa)
#
#
# Indices 1 2 3 4 5 6 
#
# 1 0.009916 -0.002571 -0.003101 0.000000 0.000000 0.000000
# 2 -0.002571 0.012305 -0.004196 0.000000 0.000000 0.000000
# 3 -0.003101 -0.004196 0.013827 0.000000 0.000000 0.000000
# 4 0.000000 0.000000 0.000000 0.032128 0.000000 0.000000
# 5 0.000000 0.000000 0.000000 0.000000 0.035113 0.000000
# 6 0.000000 0.000000 0.000000 0.000000 0.000000 0.048790
#
#
# Mechanical properties :
#
#
# Convention : Reuss Voigt Hill
#
# Bulk Modulus (GPa) = 61.30253 61.99600 61.64927
# Shear Modulus (GPa) = 28.20848 29.41645 28.81247
#
# Velocity S-wave (km/s) = 3.80864 3.88933 3.84920
# Velocity P-wave (km/s) = 7.13195 7.21454 7.17337
#
# Compressibility (1/GPa) = 0.01631254
#
# Stress axis : x y z
#
# Youngs Moduli (GPa) = 100.84637 81.26790 72.32070
#
# Poissons Ratio (x) = 0.20898 0.22425
# Poissons Ratio (y) = 0.25932 0.30343
# Poissons Ratio (z) = 0.31270 0.34097
#
# Static dielectric constant tensor:
#      x y z
#    x 3.605940 0.000000 0.000000 
#    y 0.000000 3.697880 0.000000 
#    z 0.000000 0.000000 3.470800 
# 
# 
# High freq. dielectric constant tensor:
#      x y z
#    x 1.745090 0.000000 0.000000 
#    y 0.000000 1.747130 0.000000 
#    z 0.000000 0.000000 1.758260 
# 
# From -- ./inp_files/18914.got.cif
#   From: 2010.03.12/outbox.cif.g09.slc.cpg/sg73_10_cif.got.tgz:18914.got - 2010.04.16 15:25:48.
