data_PCOD8295830
_publ_section_title
;
Structure prediction by ZEFSAII (Michael W. Deem and Ramdas Pophale) SiO2 
 PCOD8295830
Probable space group: I B C A 
;
_chemical_formula_sum "Si O2"
_cell_formula_units_Z 96
_cell_length_a 12.817173
_cell_length_b 17.402411
_cell_length_c 21.675894
_cell_angle_alpha 90.000000
_cell_angle_beta 90.000000
_cell_angle_gamma 90.000000
_cell_volume 4834.801923
_symmetry_space_group_name_H-M "I B C A "
_symmetry_group_IT_number 73
_symmetry_cell_setting 'orthorhombic'
loop_
_space_group_symop_operation_xyz
x,y,z
-x,1/2-y,z
x,-y,1/2-z
1/2-x,y,-z
-x,-y,-z
x,1/2+y,-z
-x,y,1/2+z
1/2+x,-y,z
1/2+x,1/2+y,1/2+z
1/2-x,-y,1/2+z
1/2+x,1/2-y,-z
-x,1/2+y,1/2-z
1/2-x,1/2-y,1/2-z
1/2+x,y,1/2-z
1/2-x,1/2+y,z
x,1/2-y,1/2+z
loop_
_atom_site_type_symbol
_atom_site_label
_atom_site_fract_x
_atom_site_fract_y
_atom_site_fract_z
Si Si1 0.568276 0.600483 0.514628
Si Si2 0.159475 0.880449 0.616687
Si Si3 0.203447 0.260656 0.565102
Si Si4 0.485544 0.482785 0.678872
Si Si5 0.874069 0.603422 0.909812
Si Si6 0.821404 0.506363 0.098377
O O1 0.588553 0.598836 0.442435
O O2 0.623079 0.671558 0.549056
O O3 0.445155 0.601193 0.528683
O O4 0.615255 0.519916 0.538110
O O5 0.202512 0.793563 0.609347
O O6 0.082178 0.903382 0.672612
O O7 0.259415 0.933878 0.624925
O O8 0.250000 0.229729 0.500000
O O9 0.144956 0.194201 0.603736
O O10 0.497656 0.500000 0.750000
O O11 0.430833 0.556590 0.645351
O O12 0.599775 0.466020 0.651585
O O13 0.758281 0.572256 0.922086
#
# Coordination Sequence:
#
# PCOD8295830 Si02
#       6
#    16  16  16  16  16  16
#     4   9  18  33  53  83 116 141 166 215 279 337
#     4   9  19  35  55  78 112 144 173 221 280 328
#     4   9  18  33  54  85 119 144 168 211 277 344
#     4  10  22  38  54  75 106 148 196 239 270 305
#     4  10  20  33  57  84 106 143 185 220 269 332
#     4   9  19  32  52  78 107 140 181 227 275 325
#
# _framework density 19.856036
#
# number of rings (size 3 to 8) (size 9 to 14) (size 15 to 20)
#    0.000    2.667    0.000    2.000    0.000   14.000 
#    0.000    3.333    0.000    6.000    0.000    0.000 
#    0.000    0.000    0.000    0.000    0.000    0.000 
#
# Total GULP energy -594675.090396 kJ/mol
# GULP energy per Si atom -12389.064383 kJ/mol
# Density = 1.981084 g / cm^3
# Si number density = 19.856036 Si / 1000 Ang^3
#
#
#
# Elastic Constant Matrix: (Units=GPa)
#
#
# Indices 1 2 3 4 5 6 
#
# 1 130.9761 41.2617 38.5796 0.0000 0.0000 0.0000
# 2 41.2617 65.9601 13.6516 0.0000 0.0000 0.0000
# 3 38.5796 13.6516 42.9821 0.0000 0.0000 0.0000
# 4 0.0000 0.0000 0.0000 17.6537 0.0000 0.0000
# 5 0.0000 0.0000 0.0000 0.0000 15.5569 0.0000
# 6 0.0000 0.0000 0.0000 0.0000 0.0000 16.3100
#
#
#
# Elastic Compliance Matrix: (Units=1/GPa)
#
#
# Indices 1 2 3 4 5 6 
#
# 1 0.012093 -0.005693 -0.009046 0.000000 0.000000 0.000000
# 2 -0.005693 0.018907 -0.000896 0.000000 0.000000 0.000000
# 3 -0.009046 -0.000896 0.031670 0.000000 0.000000 0.000000
# 4 0.000000 0.000000 0.000000 0.056645 0.000000 0.000000
# 5 0.000000 0.000000 0.000000 0.000000 0.064280 0.000000
# 6 0.000000 0.000000 0.000000 0.000000 0.000000 0.061312
#
#
# Mechanical properties :
#
#
# Convention : Reuss Voigt Hill
#
# Bulk Modulus (GPa) = 31.84638 47.43380 39.64009
# Shear Modulus (GPa) = 17.44330 19.66581 18.55455
#
# Velocity S-wave (km/s) = 2.96715 3.15051 3.06020
# Velocity P-wave (km/s) = 5.27371 6.09713 5.70031
#
# Compressibility (1/GPa) = 0.03140074
#
# Stress axis : x y z
#
# Youngs Moduli (GPa) = 82.69292 52.89033 31.57595
#
# Poissons Ratio (x) = 0.30108 0.28565
# Poissons Ratio (y) = 0.47073 0.02828
# Poissons Ratio (z) = 0.74806 0.04737
#
# Static dielectric constant tensor:
#      x y z
#    x 3.924940 0.000000 0.000000 
#    y 0.000000 3.720170 0.000000 
#    z 0.000000 0.000000 3.131930 
# 
# 
# High freq. dielectric constant tensor:
#      x y z
#    x 1.796040 0.000000 0.000000 
#    y 0.000000 1.767140 0.000000 
#    z 0.000000 0.000000 1.719870 
# 
# From -- ./inp_files/12035.got.cif
#   From: 2010.03.12/outbox.cif.g09.slc.cpg/sg73_7_cif.got.tgz:12035.got - 2010.04.16 15:25:48.
