data_PCOD8295862
_publ_section_title
;
Structure prediction by ZEFSAII (Michael W. Deem and Ramdas Pophale) SiO2 
 PCOD8295862
Probable space group: I B C A 
;
_chemical_formula_sum "Si O2"
_cell_formula_units_Z 104
_cell_length_a 25.516795
_cell_length_b 9.466669
_cell_length_c 22.562204
_cell_angle_alpha 90.000000
_cell_angle_beta 90.000000
_cell_angle_gamma 90.000000
_cell_volume 5450.104614
_symmetry_space_group_name_H-M "I B C A "
_symmetry_group_IT_number 73
_symmetry_cell_setting 'orthorhombic'
loop_
_space_group_symop_operation_xyz
x,y,z
-x,1/2-y,z
x,-y,1/2-z
1/2-x,y,-z
-x,-y,-z
x,1/2+y,-z
-x,y,1/2+z
1/2+x,-y,z
1/2+x,1/2+y,1/2+z
1/2-x,-y,1/2+z
1/2+x,1/2-y,-z
-x,1/2+y,1/2-z
1/2-x,1/2-y,1/2-z
1/2+x,y,1/2-z
1/2-x,1/2+y,z
x,1/2-y,1/2+z
loop_
_atom_site_type_symbol
_atom_site_label
_atom_site_fract_x
_atom_site_fract_y
_atom_site_fract_z
Si Si1 0.903950 0.340530 0.259182
Si Si2 0.500000 0.250000 0.674718
Si Si3 0.044579 0.368602 0.540024
Si Si4 0.806391 0.198818 0.305982
Si Si5 0.213813 0.879203 0.828420
Si Si6 0.609091 0.783086 0.631148
Si Si7 0.455925 0.544191 0.914103
O O1 0.882565 0.500000 0.250000
O O2 0.962772 0.347959 0.284912
O O3 0.866188 0.255767 0.305451
O O4 0.908319 0.261373 0.196585
O O5 0.459609 0.337123 0.635145
O O6 0.093170 0.332268 0.582426
O O7 0.069673 0.400811 0.475652
O O8 0.000000 0.250000 0.534694
O O9 0.015677 0.502143 0.569182
O O10 0.794053 0.177275 0.237480
O O11 0.772215 0.318786 0.341157
O O12 0.794922 0.047300 0.336873
O O13 0.171694 0.804481 0.871479
O O14 0.579429 0.925740 0.615027
#
# Coordination Sequence:
#
# PCOD8295862 Si02
#       7
#    16   8  16  16  16  16  16
#     4  11  25  36  53  85 125 161 190 236 301 371
#     4  12  24  34  52  82 122 156 190 232 300 370
#     4   9  18  35  57  80 108 151 203 253 283 348
#     4   9  19  34  55  82 120 153 196 227 283 354
#     4   9  18  33  57  84 111 154 190 240 281 344
#     4  10  21  36  57  82 117 151 195 242 304 345
#     4  10  20  35  55  79 115 152 205 241 295 345
#
# _framework density 19.082203
#
# number of rings (size 3 to 8) (size 9 to 14) (size 15 to 20)
#    0.000    2.154    0.769    1.846   11.846    1.231 
#    0.000    0.000    0.000    0.000    0.000    8.615 
#    0.000    0.000    0.000    0.000    0.000    0.000 
#
# Total GULP energy -644351.409271 kJ/mol
# GULP energy per Si atom -12391.373255 kJ/mol
# Density = 1.903877 g / cm^3
# Si number density = 19.082203 Si / 1000 Ang^3
#
#
#
# Elastic Constant Matrix: (Units=GPa)
#
#
# Indices 1 2 3 4 5 6 
#
# 1 98.5635 39.9332 49.0012 0.0000 0.0000 0.0000
# 2 39.9332 74.6721 34.0882 0.0000 0.0000 0.0000
# 3 49.0012 34.0882 90.0743 0.0000 0.0000 0.0000
# 4 0.0000 0.0000 0.0000 25.4366 0.0000 0.0000
# 5 0.0000 0.0000 0.0000 0.0000 28.3022 0.0000
# 6 0.0000 0.0000 0.0000 0.0000 0.0000 29.3268
#
#
#
# Elastic Compliance Matrix: (Units=1/GPa)
#
#
# Indices 1 2 3 4 5 6 
#
# 1 0.015504 -0.005368 -0.006403 0.000000 0.000000 0.000000
# 2 -0.005368 0.018047 -0.003910 0.000000 0.000000 0.000000
# 3 -0.006403 -0.003910 0.016065 0.000000 0.000000 0.000000
# 4 0.000000 0.000000 0.000000 0.039313 0.000000 0.000000
# 5 0.000000 0.000000 0.000000 0.000000 0.035333 0.000000
# 6 0.000000 0.000000 0.000000 0.000000 0.000000 0.034099
#
#
# Mechanical properties :
#
#
# Convention : Reuss Voigt Hill
#
# Bulk Modulus (GPa) = 54.77982 56.59502 55.68742
# Shear Modulus (GPa) = 25.53539 25.96560 25.75049
#
# Velocity S-wave (km/s) = 3.66208 3.69280 3.67747
# Velocity P-wave (km/s) = 6.83013 6.92136 6.87590
#
# Compressibility (1/GPa) = 0.01825490
#
# Stress axis : x y z
#
# Youngs Moduli (GPa) = 64.50033 55.40936 62.24877
#
# Poissons Ratio (x) = 0.29746 0.39855
# Poissons Ratio (y) = 0.34626 0.24337
# Poissons Ratio (z) = 0.41297 0.21663
#
# Static dielectric constant tensor:
#      x y z
#    x 3.549540 0.000000 0.000000 
#    y 0.000000 3.624130 0.000000 
#    z 0.000000 0.000000 3.363950 
# 
# 
# High freq. dielectric constant tensor:
#      x y z
#    x 1.725740 0.000000 0.000000 
#    y 0.000000 1.751360 0.000000 
#    z 0.000000 0.000000 1.713150 
# 
# From -- ./inp_files/27584.got.cif
#   From: 2010.03.12/outbox.cif.g09.slc.cpg/sg73_14_cif.got.tgz:27584.got - 2010.04.16 15:25:48.
