data_PCOD8295029
_publ_section_title
;
Structure prediction by ZEFSAII (Michael W. Deem and Ramdas Pophale) SiO2 
 PCOD8295029
Probable space group: I B A M
;
_chemical_formula_sum "Si O2"
_cell_formula_units_Z 96
_cell_length_a 14.356503
_cell_length_b 20.593665
_cell_length_c 15.096907
_cell_angle_alpha 90.000000
_cell_angle_beta 90.000000
_cell_angle_gamma 90.000000
_cell_volume 4463.446047
_symmetry_space_group_name_H-M "I B A M"
_symmetry_group_IT_number 72
_symmetry_cell_setting 'orthorhombic'
loop_
_space_group_symop_operation_xyz
x,y,z
-x,-y,z
x,-y,1/2-z
-x,y,1/2-z
-x,-y,-z
x,y,-z
-x,y,1/2+z
x,-y,1/2+z
1/2+x,1/2+y,1/2+z
1/2-x,1/2-y,1/2+z
1/2+x,1/2-y,-z
1/2-x,1/2+y,-z
1/2-x,1/2-y,1/2-z
1/2+x,1/2+y,1/2-z
1/2-x,1/2+y,z
1/2+x,1/2-y,z
loop_
_atom_site_type_symbol
_atom_site_label
_atom_site_fract_x
_atom_site_fract_y
_atom_site_fract_z
Si Si1 0.751754 0.557820 0.817477
Si Si2 0.529472 0.686873 0.656117
Si Si3 0.945743 0.566195 0.899294
Si Si4 0.344487 0.483886 0.000000
Si Si5 0.266960 0.682662 0.795869
Si Si6 0.026253 0.907174 0.500000
Si Si7 0.922335 0.684621 0.396263
O O1 0.728989 0.500000 0.750000
O O2 0.861447 0.566982 0.830775
O O3 0.714428 0.625248 0.775799
O O4 0.708401 0.539847 0.912446
O O5 0.500000 0.656871 0.750000
O O6 0.640629 0.695138 0.646322
O O7 0.500920 0.635407 0.584197
O O8 0.471721 0.753303 0.646326
O O9 0.000000 0.500000 0.887805
O O10 0.013993 0.623794 0.872616
O O11 0.909407 0.574449 0.000000
O O12 0.448985 0.461297 0.000000
O O13 0.367595 0.562311 0.000000
O O14 0.250000 0.750000 0.750000
O O15 0.179355 0.667696 0.858311
O O16 0.911479 0.696062 0.500000
#
# Coordination Sequence:
#
# PCOD8295029 Si02
#       7
#    16  16  16   8  16   8  16
#     4  12  25  45  72 102 139 185 232 293 360 426
#     4  12  24  46  69 100 143 181 240 290 357 422
#     4  10  22  42  66  97 137 179 227 290 352 428
#     4  11  26  48  70 101 137 177 248 288 352 433
#     4  12  26  43  69 106 140 182 230 294 353 420
#     4  11  26  46  71  99 132 187 233 304 351 403
#     4  11  25  44  68 102 141 185 238 288 354 430
#
# _framework density 21.508044999999999
#
# number of rings (size 3 to 8) (size 9 to 14) (size 15 to 20)
#    0.000    0.667    3.333    4.000    1.167    1.667 
#    1.500    1.667    0.000    0.000    0.000    0.000 
#    0.000    0.000    0.000    0.000    0.000    0.000 
#
# Total GULP energy -595151.402055 kJ/mol
# GULP energy per Si atom -12398.987543 kJ/mol
# Density = 2.145909 g / cm^3
# Si number density = 21.508045 Si / 1000 Ang^3
#
#
#
# Elastic Constant Matrix: (Units=GPa)
#
#
# Indices 1 2 3 4 5 6 
#
# 1 117.3117 23.9495 43.7146 0.0003 0.0000 0.0000
# 2 23.9495 116.5060 47.7050 -0.0008 0.0001 -0.0001
# 3 43.7146 47.7050 135.8477 -0.0030 0.0002 -0.0004
# 4 0.0003 -0.0008 -0.0030 132.5258 0.0015 -0.0009
# 5 0.0000 0.0001 0.0002 0.0015 37.5242 0.0000
# 6 0.0000 -0.0001 -0.0004 -0.0009 0.0000 8.1632
#
#
#
# Elastic Compliance Matrix: (Units=1/GPa)
#
#
# Indices 1 2 3 4 5 6 
#
# 1 0.009756 -0.000841 -0.002844 0.000000 0.000000 0.000000
# 2 -0.000841 0.010097 -0.003275 0.000000 0.000000 0.000000
# 3 -0.002844 -0.003275 0.009426 0.000000 0.000000 0.000000
# 4 0.000000 0.000000 0.000000 0.007546 0.000000 0.000001
# 5 0.000000 0.000000 0.000000 0.000000 0.026649 0.000000
# 6 0.000000 0.000000 0.000000 0.000001 0.000000 0.122500
#
#
# Mechanical properties :
#
#
# Convention : Reuss Voigt Hill
#
# Bulk Modulus (GPa) = 65.10752 66.71150 65.90951
# Shear Modulus (GPa) = 24.38846 52.59572 38.49209
#
# Velocity S-wave (km/s) = 3.37103 4.95046 4.23503
# Velocity P-wave (km/s) = 6.74453 7.98501 7.39084
#
# Compressibility (1/GPa) = 0.01535921
#
# Stress axis : x y z
#
# Youngs Moduli (GPa) = 102.50358 99.03755 106.08394
#
# Poissons Ratio (x) = 0.08328 0.30170
# Poissons Ratio (y) = 0.08620 0.34744
# Poissons Ratio (z) = 0.29152 0.32437
#
# Static dielectric constant tensor:
#      x y z
#    x 3.840910 0.000000 0.000000 
#    y 0.000000 3.936300 0.000000 
#    z 0.000000 0.000000 4.135510 
# 
# 
# High freq. dielectric constant tensor:
#      x y z
#    x 1.857340 0.000000 0.000000 
#    y 0.000000 1.857110 0.000000 
#    z 0.000000 0.000000 1.853150 
# 
# From -- ./inp_files/21900.got.cif
#   From: 2010.03.12/outbox.cif.g09.slc.cpg/sg72_11_cif.got.tgz:21900.got - 2010.04.16 14:54:00.
