data_PCOD8295639
_publ_section_title
;
Structure prediction by ZEFSAII (Michael W. Deem and Ramdas Pophale) SiO2 
 PCOD8295639
Probable space group: I B C A 
;
_chemical_formula_sum "Si O2"
_cell_formula_units_Z 104
_cell_length_a 19.968824
_cell_length_b 17.756379
_cell_length_c 15.260560
_cell_angle_alpha 90.000000
_cell_angle_beta 90.000000
_cell_angle_gamma 90.000000
_cell_volume 5410.997910
_symmetry_space_group_name_H-M "I B C A "
_symmetry_group_IT_number 73
_symmetry_cell_setting 'orthorhombic'
loop_
_space_group_symop_operation_xyz
x,y,z
-x,1/2-y,z
x,-y,1/2-z
1/2-x,y,-z
-x,-y,-z
x,1/2+y,-z
-x,y,1/2+z
1/2+x,-y,z
1/2+x,1/2+y,1/2+z
1/2-x,-y,1/2+z
1/2+x,1/2-y,-z
-x,1/2+y,1/2-z
1/2-x,1/2-y,1/2-z
1/2+x,y,1/2-z
1/2-x,1/2+y,z
x,1/2-y,1/2+z
loop_
_atom_site_type_symbol
_atom_site_label
_atom_site_fract_x
_atom_site_fract_y
_atom_site_fract_z
Si Si1 0.756421 0.818526 0.680062
Si Si2 0.405088 0.669681 0.351931
Si Si3 0.495781 0.839700 0.008787
Si Si4 0.509078 0.661937 0.204003
Si Si5 0.144992 0.912592 0.741247
Si Si6 0.373855 0.669256 0.919814
Si Si7 0.250000 0.740278 0.000000
O O1 0.750000 0.750000 0.750000
O O2 0.830166 0.855677 0.673417
O O3 0.707190 0.887439 0.699751
O O4 0.735706 0.789521 0.585115
O O5 0.433000 0.637037 0.445531
O O6 0.451747 0.638102 0.273329
O O7 0.402247 0.760582 0.361501
O O8 0.500000 0.750000 0.013252
O O9 0.493480 0.874953 0.106424
O O10 0.564431 0.870985 0.967626
O O11 0.500000 0.750000 0.192312
O O12 0.580126 0.637156 0.239666
O O13 0.162447 0.892355 0.641097
O O14 0.129947 0.000000 0.750000
O O15 0.317727 0.692641 0.989697
#
# Coordination Sequence:
#
# PCOD8295639 Si02
#       7
#    16  16  16  16  16  16   8
#     4  11  22  38  64  90 124 162 218 267 307 372
#     4  10  18  36  59  92 116 146 214 273 289 349
#     4   9  19  29  57  93 117 145 204 269 303 345
#     4  11  19  35  65  88 117 162 215 251 309 368
#     4  12  25  41  59  93 137 170 196 262 342 379
#     4  10  19  36  59  91 127 155 203 272 308 367
#     4  10  22  34  66  96 118 158 228 266 298 358
#
# _framework density 19.220116000000001
#
# number of rings (size 3 to 8) (size 9 to 14) (size 15 to 20)
#    0.000    1.538    6.154    0.462   10.769    0.000 
#    0.000    2.308    0.000    0.000    0.000    0.000 
#    0.000    0.000    0.000    0.000    0.000    0.000 
#
# Total GULP energy -644281.196727 kJ/mol
# GULP energy per Si atom -12390.023014 kJ/mol
# Density = 1.917637 g / cm^3
# Si number density = 19.220116 Si / 1000 Ang^3
#
#
#
# Elastic Constant Matrix: (Units=GPa)
#
#
# Indices 1 2 3 4 5 6 
#
# 1 160.3964 24.8997 62.2668 0.0000 0.0000 0.0000
# 2 24.8997 43.3956 23.5054 0.0000 0.0000 0.0000
# 3 62.2668 23.5054 150.7374 0.0000 0.0000 0.0000
# 4 0.0000 0.0000 0.0000 4.5586 0.0000 0.0000
# 5 0.0000 0.0000 0.0000 0.0000 35.7587 0.0000
# 6 0.0000 0.0000 0.0000 0.0000 0.0000 9.5278
#
#
#
# Elastic Compliance Matrix: (Units=1/GPa)
#
#
# Indices 1 2 3 4 5 6 
#
# 1 0.007760 -0.002967 -0.002743 0.000000 0.000000 0.000000
# 2 -0.002967 0.026304 -0.002876 0.000000 0.000000 0.000000
# 3 -0.002743 -0.002876 0.008216 0.000000 0.000000 0.000000
# 4 0.000000 0.000000 0.000000 0.219364 0.000000 0.000000
# 5 0.000000 0.000000 0.000000 0.000000 0.027965 0.000000
# 6 0.000000 0.000000 0.000000 0.000000 0.000000 0.104956
#
#
# Mechanical properties :
#
#
# Convention : Reuss Voigt Hill
#
# Bulk Modulus (GPa) = 39.82831 63.98590 51.90711
# Shear Modulus (GPa) = 11.90175 26.22620 19.06397
#
# Velocity S-wave (km/s) = 2.49114 3.69795 3.15282
# Velocity P-wave (km/s) = 5.38902 7.18307 6.34973
#
# Compressibility (1/GPa) = 0.02510777
#
# Stress axis : x y z
#
# Youngs Moduli (GPa) = 128.86758 38.01699 121.72009
#
# Poissons Ratio (x) = 0.11279 0.33386
# Poissons Ratio (y) = 0.38233 0.35009
# Poissons Ratio (z) = 0.35346 0.10934
#
# Static dielectric constant tensor:
#      x y z
#    x 3.776930 0.000000 0.000000 
#    y 0.000000 2.845250 0.000000 
#    z 0.000000 0.000000 4.113050 
# 
# 
# High freq. dielectric constant tensor:
#      x y z
#    x 1.763030 0.000000 0.000000 
#    y 0.000000 1.669820 0.000000 
#    z 0.000000 0.000000 1.770050 
# 
# From -- ./inp_files/18789.got.cif
#   From: 2010.03.12/outbox.cif.g09.slc.cpg/sg73_10_cif.got.tgz:18789.got - 2010.04.16 15:25:48.
