data_PCOD8295914
_publ_section_title
;
Structure prediction by ZEFSAII (Michael W. Deem and Ramdas Pophale) SiO2 
 PCOD8295914
Probable space group: I B C A 
;
_chemical_formula_sum "Si O2"
_cell_formula_units_Z 104
_cell_length_a 30.595844
_cell_length_b 18.531507
_cell_length_c 8.802678
_cell_angle_alpha 90.000000
_cell_angle_beta 90.000000
_cell_angle_gamma 90.000000
_cell_volume 4991.004847
_symmetry_space_group_name_H-M "I B C A "
_symmetry_group_IT_number 73
_symmetry_cell_setting 'orthorhombic'
loop_
_space_group_symop_operation_xyz
x,y,z
-x,1/2-y,z
x,-y,1/2-z
1/2-x,y,-z
-x,-y,-z
x,1/2+y,-z
-x,y,1/2+z
1/2+x,-y,z
1/2+x,1/2+y,1/2+z
1/2-x,-y,1/2+z
1/2+x,1/2-y,-z
-x,1/2+y,1/2-z
1/2-x,1/2-y,1/2-z
1/2+x,y,1/2-z
1/2-x,1/2+y,z
x,1/2-y,1/2+z
loop_
_atom_site_type_symbol
_atom_site_label
_atom_site_fract_x
_atom_site_fract_y
_atom_site_fract_z
Si Si1 0.366799 0.135211 0.132074
Si Si2 0.873180 0.574365 0.963122
Si Si3 0.704168 0.526583 0.417963
Si Si4 0.939967 0.451091 0.998447
Si Si5 0.719224 0.719506 0.619697
Si Si6 0.502506 0.500000 0.750000
Si Si7 0.161867 0.204977 0.381879
O O1 0.377907 0.094469 0.287219
O O2 0.319690 0.105223 0.074805
O O3 0.363715 0.220656 0.149683
O O4 0.405700 0.114857 0.015508
O O5 0.828389 0.530994 0.995685
O O6 0.914992 0.527643 0.005571
O O7 0.872823 0.645145 0.068456
O O8 0.714516 0.500000 0.250000
O O9 0.750000 0.530746 0.500000
O O10 0.973160 0.449624 0.857253
O O11 0.967520 0.444647 0.153006
O O12 0.750000 0.674202 0.500000
O O13 0.750000 0.750000 0.750000
O O14 0.696942 0.783584 0.519074
O O15 0.682674 0.677661 0.719605
#
# Coordination Sequence:
#
# PCOD8295914 Si02
#       7
#    16  16  16  16  16   8  16
#     4  10  20  39  59  83 120 156 196 243 306 346
#     4  10  20  39  60  83 119 157 197 243 303 350
#     4   9  20  39  55  77 110 155 199 247 296 337
#     4  10  20  40  67  94 120 148 189 249 289 369
#     4   9  20  34  47  74 111 150 204 256 284 326
#     4  10  20  36  70 100 112 150 194 230 302 360
#     4  11  20  36  57  80 112 160 200 241 305 367
#
# _framework density 20.837486999999999
#
# number of rings (size 3 to 8) (size 9 to 14) (size 15 to 20)
#    0.000    2.154    3.077    0.923    0.000    4.923 
#   11.077    0.000    0.000    5.538    0.000    0.000 
#    0.000    0.000    0.000    0.000    0.000    0.000 
#
# Total GULP energy -644414.896945 kJ/mol
# GULP energy per Si atom -12392.594172 kJ/mol
# Density = 2.079006 g / cm^3
# Si number density = 20.837487 Si / 1000 Ang^3
#
#
#
# Elastic Constant Matrix: (Units=GPa)
#
#
# Indices 1 2 3 4 5 6 
#
# 1 125.2843 34.9052 53.9671 0.0000 0.0000 0.0000
# 2 34.9052 88.4441 12.7354 0.0000 0.0000 0.0000
# 3 53.9671 12.7354 104.1898 0.0000 0.0000 0.0000
# 4 0.0000 0.0000 0.0000 22.6234 0.0000 0.0000
# 5 0.0000 0.0000 0.0000 0.0000 39.9628 0.0000
# 6 0.0000 0.0000 0.0000 0.0000 0.0000 15.0657
#
#
#
# Elastic Compliance Matrix: (Units=1/GPa)
#
#
# Indices 1 2 3 4 5 6 
#
# 1 0.011350 -0.003698 -0.005427 0.000000 0.000000 0.000000
# 2 -0.003698 0.012714 0.000361 0.000000 0.000000 0.000000
# 3 -0.005427 0.000361 0.012365 0.000000 0.000000 0.000000
# 4 0.000000 0.000000 0.000000 0.044202 0.000000 0.000000
# 5 0.000000 0.000000 0.000000 0.000000 0.025023 0.000000
# 6 0.000000 0.000000 0.000000 0.000000 0.000000 0.066376
#
#
# Mechanical properties :
#
#
# Convention : Reuss Voigt Hill
#
# Bulk Modulus (GPa) = 52.90555 57.90373 55.40464
# Shear Modulus (GPa) = 25.52884 29.95107 27.73995
#
# Velocity S-wave (km/s) = 3.50400 3.79537 3.65259
# Velocity P-wave (km/s) = 6.46648 6.85967 6.66597
#
# Compressibility (1/GPa) = 0.01890161
#
# Stress axis : x y z
#
# Youngs Moduli (GPa) = 88.10781 78.65386 80.87584
#
# Poissons Ratio (x) = 0.29085 0.43890
# Poissons Ratio (y) = 0.32581 -0.02922
# Poissons Ratio (z) = 0.47815 -0.02842
#
# Static dielectric constant tensor:
#      x y z
#    x 3.861560 0.000000 0.000000 
#    y 0.000000 3.489320 0.000000 
#    z 0.000000 0.000000 4.249150 
# 
# 
# High freq. dielectric constant tensor:
#      x y z
#    x 1.812140 0.000000 0.000000 
#    y 0.000000 1.780470 0.000000 
#    z 0.000000 0.000000 1.831460 
# 
# From -- ./inp_files/8491.got.cif
#   From: 2010.03.12/outbox.cif.g09.slc.cpg/sg73_5_cif.got.tgz:8491.got - 2010.04.16 15:25:48.
