data_PCOD8295932
_publ_section_title
;
Structure prediction by ZEFSAII (Michael W. Deem and Ramdas Pophale) SiO2 
 PCOD8295932
Probable space group: I B C A 
;
_chemical_formula_sum "Si O2"
_cell_formula_units_Z 112
_cell_length_a 11.773057
_cell_length_b 19.554056
_cell_length_c 24.150720
_cell_angle_alpha 90.000000
_cell_angle_beta 90.000000
_cell_angle_gamma 90.000000
_cell_volume 5559.761785
_symmetry_space_group_name_H-M "I B C A "
_symmetry_group_IT_number 73
_symmetry_cell_setting 'orthorhombic'
loop_
_space_group_symop_operation_xyz
x,y,z
-x,1/2-y,z
x,-y,1/2-z
1/2-x,y,-z
-x,-y,-z
x,1/2+y,-z
-x,y,1/2+z
1/2+x,-y,z
1/2+x,1/2+y,1/2+z
1/2-x,-y,1/2+z
1/2+x,1/2-y,-z
-x,1/2+y,1/2-z
1/2-x,1/2-y,1/2-z
1/2+x,y,1/2-z
1/2-x,1/2+y,z
x,1/2-y,1/2+z
loop_
_atom_site_type_symbol
_atom_site_label
_atom_site_fract_x
_atom_site_fract_y
_atom_site_fract_z
Si Si1 0.630075 0.549087 0.668902
Si Si2 0.629259 0.729423 0.852162
Si Si3 0.577810 0.403606 0.710471
Si Si4 0.036908 0.071129 0.570579
Si Si5 0.855728 0.876420 0.151214
Si Si6 0.510766 0.417565 0.048814
Si Si7 0.771389 0.363924 0.437359
O O1 0.630375 0.467334 0.676517
O O2 0.594542 0.587645 0.724672
O O3 0.545492 0.577034 0.622422
O O4 0.755695 0.569222 0.650534
O O5 0.500000 0.750000 0.865648
O O6 0.636656 0.667752 0.807586
O O7 0.688259 0.800182 0.831980
O O8 0.696469 0.705912 0.906489
O O9 0.444168 0.402690 0.697247
O O10 0.981875 0.107251 0.515553
O O11 0.157680 0.103042 0.588063
O O12 0.060812 0.993179 0.554108
O O13 0.915643 0.870809 0.090460
O O14 0.378125 0.416224 0.067736
O O15 0.750000 0.342669 0.500000
#
# Coordination Sequence:
#
# PCOD8295932 Si02
#       7
#    16  16  16  16  16  16  16
#     4  11  24  40  62 101 122 156 213 266 328 363
#     4  10  20  41  65  87 118 172 214 248 305 385
#     4  10  23  41  63  87 124 168 209 259 311 383
#     4  10  22  36  61  95 130 159 203 266 318 374
#     4  11  23  41  65  93 124 166 217 258 316 387
#     4  10  20  37  62  93 124 169 204 249 317 388
#     4  10  20  38  62  89 125 170 206 249 317 377
#
# _framework density 20.144746999999999
#
# number of rings (size 3 to 8) (size 9 to 14) (size 15 to 20)
#    0.000    1.714    4.286    0.000    4.000    4.571 
#    2.571    3.571    0.000    0.000    0.000    0.000 
#    0.000    0.000    0.000    0.000    0.000    0.000 
#
# Total GULP energy -694159.821223 kJ/mol
# GULP energy per Si atom -12395.711093 kJ/mol
# Density = 2.009890 g / cm^3
# Si number density = 20.144747 Si / 1000 Ang^3
#
#
#
# Elastic Constant Matrix: (Units=GPa)
#
#
# Indices 1 2 3 4 5 6 
#
# 1 103.6339 48.2274 55.8813 0.0000 0.0000 0.0000
# 2 48.2274 123.2376 36.9503 0.0000 0.0000 0.0000
# 3 55.8813 36.9503 129.4183 0.0000 0.0000 0.0000
# 4 0.0000 0.0000 0.0000 25.5028 0.0000 0.0000
# 5 0.0000 0.0000 0.0000 0.0000 26.7474 0.0000
# 6 0.0000 0.0000 0.0000 0.0000 0.0000 32.6757
#
#
#
# Elastic Compliance Matrix: (Units=1/GPa)
#
#
# Indices 1 2 3 4 5 6 
#
# 1 0.014232 -0.004076 -0.004982 0.000000 0.000000 0.000000
# 2 -0.004076 0.010041 -0.001107 0.000000 0.000000 0.000000
# 3 -0.004982 -0.001107 0.010194 0.000000 0.000000 0.000000
# 4 0.000000 0.000000 0.000000 0.039211 0.000000 0.000000
# 5 0.000000 0.000000 0.000000 0.000000 0.037387 0.000000
# 6 0.000000 0.000000 0.000000 0.000000 0.000000 0.030604
#
#
# Mechanical properties :
#
#
# Convention : Reuss Voigt Hill
#
# Bulk Modulus (GPa) = 70.72873 70.93420 70.83147
# Shear Modulus (GPa) = 29.99190 31.33390 30.66290
#
# Velocity S-wave (km/s) = 3.86271 3.94818 3.90568
# Velocity P-wave (km/s) = 7.42162 7.48818 7.45498
#
# Compressibility (1/GPa) = 0.01413853
#
# Stress axis : x y z
#
# Youngs Moduli (GPa) = 70.26247 99.58777 98.09756
#
# Poissons Ratio (x) = 0.40592 0.48868
# Poissons Ratio (y) = 0.28639 0.10859
# Poissons Ratio (z) = 0.35002 0.11024
#
# Static dielectric constant tensor:
#      x y z
#    x 3.588760 0.000000 0.000000 
#    y 0.000000 3.980190 0.000000 
#    z 0.000000 0.000000 3.826160 
# 
# 
# High freq. dielectric constant tensor:
#      x y z
#    x 1.775200 0.000000 0.000000 
#    y 0.000000 1.778660 0.000000 
#    z 0.000000 0.000000 1.791510 
# 
# From -- ./inp_files/29038.got.cif
#   From: 2010.03.12/outbox.cif.g09.slc.cpg/sg73_15_cif.got.tgz:29038.got - 2010.04.16 15:25:48.
