data_PCOD8295755
_publ_section_title
;
Structure prediction by ZEFSAII (Michael W. Deem and Ramdas Pophale) SiO2 
 PCOD8295755
Probable space group: I B C A 
;
_chemical_formula_sum "Si O2"
_cell_formula_units_Z 80
_cell_length_a 20.706202
_cell_length_b 14.731330
_cell_length_c 12.498094
_cell_angle_alpha 90.000000
_cell_angle_beta 90.000000
_cell_angle_gamma 90.000000
_cell_volume 3812.292297
_symmetry_space_group_name_H-M "I B C A "
_symmetry_group_IT_number 73
_symmetry_cell_setting 'orthorhombic'
loop_
_space_group_symop_operation_xyz
x,y,z
-x,1/2-y,z
x,-y,1/2-z
1/2-x,y,-z
-x,-y,-z
x,1/2+y,-z
-x,y,1/2+z
1/2+x,-y,z
1/2+x,1/2+y,1/2+z
1/2-x,-y,1/2+z
1/2+x,1/2-y,-z
-x,1/2+y,1/2-z
1/2-x,1/2-y,1/2-z
1/2+x,y,1/2-z
1/2-x,1/2+y,z
x,1/2-y,1/2+z
loop_
_atom_site_type_symbol
_atom_site_label
_atom_site_fract_x
_atom_site_fract_y
_atom_site_fract_z
Si Si1 0.250000 0.833687 0.000000
Si Si2 0.957768 0.340306 0.257631
Si Si3 0.953763 0.000000 0.250000
Si Si4 0.348246 0.732962 0.856034
Si Si5 0.358703 0.128030 0.354094
Si Si6 0.934053 0.790438 0.962640
O O1 0.283653 0.768879 0.911934
O O2 0.200511 0.897551 0.933534
O O3 0.891361 0.321526 0.321338
O O4 0.944107 0.364673 0.131491
O O5 0.000000 0.250000 0.256638
O O6 0.999929 0.423576 0.304737
O O7 0.906645 0.043102 0.160416
O O8 0.331202 0.665118 0.759531
O O9 0.390473 0.672811 0.940160
O O10 0.397532 0.207605 0.407869
O O11 0.000000 0.750000 0.012901
#
# Coordination Sequence:
#
# PCOD8295755 Si02
#       6
#     8  16   8  16  16  16
#     4  10  22  40  60  86 120 168 220 246 296 370
#     4  10  19  37  59  88 127 156 195 255 320 371
#     4  12  20  38  62  92 126 158 196 256 322 372
#     4  10  19  36  63  86 119 162 208 253 302 367
#     4  10  21  37  59  88 123 167 201 256 307 361
#     4   9  16  32  55  86 120 152 194 249 303 371
#
# _framework density 20.984750999999999
#
# number of rings (size 3 to 8) (size 9 to 14) (size 15 to 20)
#    0.000    2.000    6.000    1.200    0.000    0.000 
#    0.000   11.000    0.000    0.000    0.000    0.000 
#    0.000    0.000    0.000    0.000    0.000    0.000 
#
# Total GULP energy -495636.034651 kJ/mol
# GULP energy per Si atom -12390.900866 kJ/mol
# Density = 2.093699 g / cm^3
# Si number density = 20.984751 Si / 1000 Ang^3
#
#
#
# Elastic Constant Matrix: (Units=GPa)
#
#
# Indices 1 2 3 4 5 6 
#
# 1 101.2908 28.5029 38.7465 0.0000 0.0000 0.0000
# 2 28.5029 74.6528 22.5801 0.0000 0.0000 0.0000
# 3 38.7465 22.5801 100.5815 0.0000 0.0000 0.0000
# 4 0.0000 0.0000 0.0000 7.2441 0.0000 0.0000
# 5 0.0000 0.0000 0.0000 0.0000 48.2620 0.0000
# 6 0.0000 0.0000 0.0000 0.0000 0.0000 29.8411
#
#
#
# Elastic Compliance Matrix: (Units=1/GPa)
#
#
# Indices 1 2 3 4 5 6 
#
# 1 0.012387 -0.003526 -0.003980 0.000000 0.000000 0.000000
# 2 -0.003526 0.015375 -0.002093 0.000000 0.000000 0.000000
# 3 -0.003980 -0.002093 0.011945 0.000000 0.000000 0.000000
# 4 0.000000 0.000000 0.000000 0.138042 0.000000 0.000000
# 5 0.000000 0.000000 0.000000 0.000000 0.020720 0.000000
# 6 0.000000 0.000000 0.000000 0.000000 0.000000 0.033511
#
#
# Mechanical properties :
#
#
# Convention : Reuss Voigt Hill
#
# Bulk Modulus (GPa) = 48.75998 50.68712 49.72355
# Shear Modulus (GPa) = 19.37866 29.51583 24.44725
#
# Velocity S-wave (km/s) = 3.04215 3.75445 3.41691
# Velocity P-wave (km/s) = 5.96875 6.55753 6.27006
#
# Compressibility (1/GPa) = 0.02050862
#
# Stress axis : x y z
#
# Youngs Moduli (GPa) = 80.72807 65.04224 83.71355
#
# Poissons Ratio (x) = 0.22931 0.33321
# Poissons Ratio (y) = 0.28461 0.17524
# Poissons Ratio (z) = 0.32133 0.13616
#
# Static dielectric constant tensor:
#      x y z
#    x 4.473250 0.000000 0.000000 
#    y 0.000000 3.353950 0.000000 
#    z 0.000000 0.000000 4.903430 
# 
# 
# High freq. dielectric constant tensor:
#      x y z
#    x 1.829780 0.000000 0.000000 
#    y 0.000000 1.757990 0.000000 
#    z 0.000000 0.000000 1.839380 
# 
# From -- ./inp_files/18531.got.cif
#   From: 2010.03.12/outbox.cif.g09.slc.cpg/sg73_10_cif.got.tgz:18531.got - 2010.04.16 15:25:48.
