data_PCOD8295589
_publ_section_title
;
Structure prediction by ZEFSAII (Michael W. Deem and Ramdas Pophale) SiO2 
 PCOD8295589
Probable space group: I B C A 
;
_chemical_formula_sum "Si O2"
_cell_formula_units_Z 128
_cell_length_a 18.318003
_cell_length_b 18.164678
_cell_length_c 20.976724
_cell_angle_alpha 90.000000
_cell_angle_beta 90.000000
_cell_angle_gamma 90.000000
_cell_volume 6979.808277
_symmetry_space_group_name_H-M "I B C A "
_symmetry_group_IT_number 73
_symmetry_cell_setting 'orthorhombic'
loop_
_space_group_symop_operation_xyz
x,y,z
-x,1/2-y,z
x,-y,1/2-z
1/2-x,y,-z
-x,-y,-z
x,1/2+y,-z
-x,y,1/2+z
1/2+x,-y,z
1/2+x,1/2+y,1/2+z
1/2-x,-y,1/2+z
1/2+x,1/2-y,-z
-x,1/2+y,1/2-z
1/2-x,1/2-y,1/2-z
1/2+x,y,1/2-z
1/2-x,1/2+y,z
x,1/2-y,1/2+z
loop_
_atom_site_type_symbol
_atom_site_label
_atom_site_fract_x
_atom_site_fract_y
_atom_site_fract_z
Si Si1 0.284664 0.984227 0.060293
Si Si2 0.846754 0.961762 0.312167
Si Si3 0.350589 0.678717 0.760482
Si Si4 0.401294 0.553780 0.306260
Si Si5 0.180183 0.163221 0.222789
Si Si6 0.653663 0.931111 0.103299
Si Si7 0.946560 0.596392 0.648534
Si Si8 0.568477 0.449382 0.014692
O O1 0.289517 0.946561 0.130164
O O2 0.233308 0.056722 0.070734
O O3 0.366154 0.000017 0.039116
O O4 0.250000 0.938086 0.000000
O O5 0.876197 0.881481 0.292098
O O6 0.807182 0.000000 0.250000
O O7 0.911873 0.016571 0.333065
O O8 0.266659 0.670183 0.779835
O O9 0.362321 0.759954 0.732834
O O10 0.399683 0.664052 0.823059
O O11 0.426110 0.500000 0.250000
O O12 0.339269 0.609125 0.280841
O O13 0.370168 0.509292 0.366411
O O14 0.471550 0.601030 0.325866
O O15 0.153708 0.133261 0.154824
O O16 0.594522 0.907649 0.049510
O O17 0.949361 0.607210 0.571916
O O18 0.500000 0.500000 0.000000
#
# Coordination Sequence:
#
# PCOD8295589 Si02
#       8
#    16  16  16  16  16  16  16  16
#     4   9  18  29  50  79 107 138 176 221 278 322
#     4   9  16  29  52  75 101 133 178 220 265 319
#     4  10  20  35  52  76 107 143 180 219 273 324
#     4  10  19  31  52  80 107 131 172 226 277 317
#     4  10  21  33  51  77 108 140 175 222 270 321
#     4  10  18  32  52  80 110 134 178 225 268 321
#     4  10  19  33  54  79 104 138 180 219 271 329
#     4  10  18  31  52  80 107 141 174 225 266 324
#
# _framework density 18.338612000000001
#
# number of rings (size 3 to 8) (size 9 to 14) (size 15 to 20)
#    0.000    2.250    1.250    4.125    0.000    3.500 
#    0.000    0.000    0.000    9.750    0.000    0.000 
#    0.000    0.000    0.000    0.000    0.000    0.000 
#
# Total GULP energy -793001.351224 kJ/mol
# GULP energy per Si atom -12390.646113 kJ/mol
# Density = 1.829687 g / cm^3
# Si number density = 18.338612 Si / 1000 Ang^3
#
#
#
# Elastic Constant Matrix: (Units=GPa)
#
#
# Indices 1 2 3 4 5 6 
#
# 1 93.3717 22.8509 40.9110 0.0000 0.0000 0.0000
# 2 22.8509 83.3062 38.1641 0.0000 0.0000 0.0000
# 3 40.9110 38.1641 149.0681 0.0000 0.0000 0.0000
# 4 0.0000 0.0000 0.0000 19.1412 0.0000 0.0000
# 5 0.0000 0.0000 0.0000 0.0000 28.8008 0.0000
# 6 0.0000 0.0000 0.0000 0.0000 0.0000 19.9617
#
#
#
# Elastic Compliance Matrix: (Units=1/GPa)
#
#
# Indices 1 2 3 4 5 6 
#
# 1 0.012491 -0.002102 -0.002890 0.000000 0.000000 0.000000
# 2 -0.002102 0.013953 -0.002995 0.000000 0.000000 0.000000
# 3 -0.002890 -0.002995 0.008268 0.000000 0.000000 0.000000
# 4 0.000000 0.000000 0.000000 0.052243 0.000000 0.000000
# 5 0.000000 0.000000 0.000000 0.000000 0.034721 0.000000
# 6 0.000000 0.000000 0.000000 0.000000 0.000000 0.050096
#
#
# Mechanical properties :
#
#
# Convention : Reuss Voigt Hill
#
# Bulk Modulus (GPa) = 53.37024 58.84422 56.10723
# Shear Modulus (GPa) = 25.77427 28.50209 27.13818
#
# Velocity S-wave (km/s) = 3.75302 3.94663 3.85104
# Velocity P-wave (km/s) = 6.92431 7.27496 7.10180
#
# Compressibility (1/GPa) = 0.01873703
#
# Stress axis : x y z
#
# Youngs Moduli (GPa) = 80.06065 71.67066 120.94480
#
# Poissons Ratio (x) = 0.15067 0.34950
# Poissons Ratio (y) = 0.16831 0.36225
# Poissons Ratio (z) = 0.23135 0.21467
#
# Static dielectric constant tensor:
#      x y z
#    x 3.385780 0.000000 0.000000 
#    y 0.000000 3.101270 0.000000 
#    z 0.000000 0.000000 4.039300 
# 
# 
# High freq. dielectric constant tensor:
#      x y z
#    x 1.718240 0.000000 0.000000 
#    y 0.000000 1.650460 0.000000 
#    z 0.000000 0.000000 1.731400 
# 
# From -- ./inp_files/27053.got.cif
#   From: 2010.03.12/outbox.cif.g09.slc.cpg/sg73_14_cif.got.tgz:27053.got - 2010.04.16 15:25:48.
