data_PCOD8295848
_publ_section_title
;
Structure prediction by ZEFSAII (Michael W. Deem and Ramdas Pophale) SiO2 
 PCOD8295848
Probable space group: I B C A 
;
_chemical_formula_sum "Si O2"
_cell_formula_units_Z 104
_cell_length_a 19.221887
_cell_length_b 13.908686
_cell_length_c 20.810303
_cell_angle_alpha 90.000000
_cell_angle_beta 90.000000
_cell_angle_gamma 90.000000
_cell_volume 5563.659284
_symmetry_space_group_name_H-M "I B C A "
_symmetry_group_IT_number 73
_symmetry_cell_setting 'orthorhombic'
loop_
_space_group_symop_operation_xyz
x,y,z
-x,1/2-y,z
x,-y,1/2-z
1/2-x,y,-z
-x,-y,-z
x,1/2+y,-z
-x,y,1/2+z
1/2+x,-y,z
1/2+x,1/2+y,1/2+z
1/2-x,-y,1/2+z
1/2+x,1/2-y,-z
-x,1/2+y,1/2-z
1/2-x,1/2-y,1/2-z
1/2+x,y,1/2-z
1/2-x,1/2+y,z
x,1/2-y,1/2+z
loop_
_atom_site_type_symbol
_atom_site_label
_atom_site_fract_x
_atom_site_fract_y
_atom_site_fract_z
Si Si1 0.766713 0.233438 0.676594
Si Si2 0.250000 0.649109 0.500000
Si Si3 0.575123 0.057850 0.074585
Si Si4 0.915370 0.035895 0.438335
Si Si5 0.673534 0.528749 0.680296
Si Si6 0.300976 0.426813 0.873078
Si Si7 0.143420 0.244626 0.925264
O O1 0.750000 0.250000 0.750000
O O2 0.814347 0.140858 0.669296
O O3 0.816128 0.319701 0.652015
O O4 0.694963 0.229999 0.635584
O O5 0.260818 0.577802 0.559250
O O6 0.185523 0.720043 0.512343
O O7 0.494883 0.030975 0.083219
O O8 0.586456 0.171722 0.087293
O O9 0.618157 0.000945 0.127400
O O10 0.599545 0.023305 0.003755
O O11 0.893824 0.146693 0.445361
O O12 0.871963 0.986351 0.380768
O O13 0.643061 0.500000 0.750000
O O14 0.748449 0.477464 0.675849
#
# Coordination Sequence:
#
# PCOD8295848 Si02
#       7
#    16   8  16  16  16  16  16
#     4  11  22  37  61  92 118 152 200 254 302 354
#     4  10  20  34  58  92 120 144 196 258 294 344
#     4  11  24  41  58  89 128 161 203 246 304 373
#     4  11  24  39  61  88 124 167 198 250 311 358
#     4  12  22  40  65  88 121 161 197 252 307 359
#     4  11  20  38  59  89 121 146 207 248 295 362
#     4  11  21  37  61  88 121 159 202 253 299 363
#
# _framework density 18.692733
#
# number of rings (size 3 to 8) (size 9 to 14) (size 15 to 20)
#    0.000    0.923    7.692    0.462    4.308    0.615 
#    0.000    3.077    0.000    0.000    0.000    0.000 
#    0.000    0.000    0.000    0.000    0.000    0.000 
#
# Total GULP energy -644763.433882 kJ/mol
# GULP energy per Si atom -12399.296805 kJ/mol
# Density = 1.865019 g / cm^3
# Si number density = 18.692733 Si / 1000 Ang^3
#
#
#
# Elastic Constant Matrix: (Units=GPa)
#
#
# Indices 1 2 3 4 5 6 
#
# 1 91.8000 39.8859 32.1488 0.0000 0.0000 0.0000
# 2 39.8859 142.7874 22.5570 0.0000 0.0000 0.0000
# 3 32.1488 22.5570 73.8812 0.0000 0.0000 0.0000
# 4 0.0000 0.0000 0.0000 28.3222 0.0000 0.0000
# 5 0.0000 0.0000 0.0000 0.0000 24.6820 0.0000
# 6 0.0000 0.0000 0.0000 0.0000 0.0000 25.3552
#
#
#
# Elastic Compliance Matrix: (Units=1/GPa)
#
#
# Indices 1 2 3 4 5 6 
#
# 1 0.014053 -0.003110 -0.005166 0.000000 0.000000 0.000000
# 2 -0.003110 0.008046 -0.001104 0.000000 0.000000 0.000000
# 3 -0.005166 -0.001104 0.016120 0.000000 0.000000 0.000000
# 4 0.000000 0.000000 0.000000 0.035308 0.000000 0.000000
# 5 0.000000 0.000000 0.000000 0.000000 0.040515 0.000000
# 6 0.000000 0.000000 0.000000 0.000000 0.000000 0.039440
#
#
# Mechanical properties :
#
#
# Convention : Reuss Voigt Hill
#
# Bulk Modulus (GPa) = 51.38245 55.29466 53.33856
# Shear Modulus (GPa) = 27.97545 29.93033 28.95289
#
# Velocity S-wave (km/s) = 3.87278 4.00581 3.93986
# Velocity P-wave (km/s) = 6.89533 7.14426 7.02089
#
# Compressibility (1/GPa) = 0.01946190
#
# Stress axis : x y z
#
# Youngs Moduli (GPa) = 71.15707 124.27949 62.03459
#
# Poissons Ratio (x) = 0.38646 0.32046
# Poissons Ratio (y) = 0.22127 0.06846
# Poissons Ratio (z) = 0.36758 0.13715
#
# Static dielectric constant tensor:
#      x y z
#    x 3.359140 0.000000 0.000000 
#    y 0.000000 4.679560 0.000000 
#    z 0.000000 0.000000 3.447170 
# 
# 
# High freq. dielectric constant tensor:
#      x y z
#    x 1.709220 0.000000 0.000000 
#    y 0.000000 1.744190 0.000000 
#    z 0.000000 0.000000 1.724740 
# 
# From -- ./inp_files/23228.got.cif
#   From: 2010.03.12/outbox.cif.g09.slc.cpg/sg73_12_cif.got.tgz:23228.got - 2010.04.16 15:25:48.
