data_PCOD8295795
_publ_section_title
;
Structure prediction by ZEFSAII (Michael W. Deem and Ramdas Pophale) SiO2 
 PCOD8295795
Probable space group: I B C A 
;
_chemical_formula_sum "Si O2"
_cell_formula_units_Z 88
_cell_length_a 14.208591
_cell_length_b 15.638647
_cell_length_c 19.828266
_cell_angle_alpha 90.000000
_cell_angle_beta 90.000000
_cell_angle_gamma 90.000000
_cell_volume 4405.902946
_symmetry_space_group_name_H-M "I B C A "
_symmetry_group_IT_number 73
_symmetry_cell_setting 'orthorhombic'
loop_
_space_group_symop_operation_xyz
x,y,z
-x,1/2-y,z
x,-y,1/2-z
1/2-x,y,-z
-x,-y,-z
x,1/2+y,-z
-x,y,1/2+z
1/2+x,-y,z
1/2+x,1/2+y,1/2+z
1/2-x,-y,1/2+z
1/2+x,1/2-y,-z
-x,1/2+y,1/2-z
1/2-x,1/2-y,1/2-z
1/2+x,y,1/2-z
1/2-x,1/2+y,z
x,1/2-y,1/2+z
loop_
_atom_site_type_symbol
_atom_site_label
_atom_site_fract_x
_atom_site_fract_y
_atom_site_fract_z
Si Si1 0.306208 0.768534 0.816001
Si Si2 0.894203 0.551475 0.180443
Si Si3 0.184016 0.737048 0.939538
Si Si4 0.234234 0.454116 0.573943
Si Si5 0.575934 0.377106 0.119910
Si Si6 0.500000 0.750000 0.490962
O O1 0.250000 0.750000 0.750000
O O2 0.362033 0.854073 0.803059
O O3 0.227781 0.779977 0.873670
O O4 0.383999 0.696212 0.830873
O O5 0.890695 0.500000 0.250000
O O6 0.826143 0.513140 0.123378
O O7 0.000916 0.559717 0.154192
O O8 0.177541 0.634689 0.932369
O O9 0.250000 0.763925 0.000000
O O10 0.083057 0.776629 0.957963
O O11 0.250000 0.496553 0.500000
O O12 0.338270 0.438969 0.602334
O O13 0.531079 0.330859 0.054382
#
# Coordination Sequence:
#
# PCOD8295795 Si02
#       6
#    16  16  16  16  16   8
#     4  11  23  44  67  90 129 172 221 270 322 391
#     4  12  25  41  65  95 133 177 215 267 344 400
#     4  10  19  40  68  95 124 167 213 266 317 385
#     4  10  22  43  63  93 139 163 206 279 334 386
#     4  11  22  44  67  93 130 175 222 273 321 393
#     4  12  18  40  76  94 124 166 230 270 318 384
#
# _framework density 19.973203999999999
#
# number of rings (size 3 to 8) (size 9 to 14) (size 15 to 20)
#    0.000    1.091    7.273    2.182    0.000    5.091 
#    9.818    0.000    0.000    0.000    0.000    0.000 
#    0.000    0.000    0.000    0.000    0.000    0.000 
#
# Total GULP energy -545499.816091 kJ/mol
# GULP energy per Si atom -12397.723093 kJ/mol
# Density = 1.992774 g / cm^3
# Si number density = 19.973204 Si / 1000 Ang^3
#
#
#
# Elastic Constant Matrix: (Units=GPa)
#
#
# Indices 1 2 3 4 5 6 
#
# 1 168.7366 53.3319 71.2902 0.0000 0.0000 0.0000
# 2 53.3319 59.3073 45.6298 0.0000 0.0000 0.0000
# 3 71.2902 45.6298 142.3198 0.0000 0.0000 0.0000
# 4 0.0000 0.0000 0.0000 31.8594 0.0000 0.0000
# 5 0.0000 0.0000 0.0000 0.0000 29.4316 0.0000
# 6 0.0000 0.0000 0.0000 0.0000 0.0000 -44.1820
#
#
#
# Elastic Compliance Matrix: (Units=1/GPa)
#
#
# Indices 1 2 3 4 5 6 
#
# 1 0.008910 -0.006077 -0.002514 0.000000 0.000000 0.000000
# 2 -0.006077 0.026528 -0.005461 0.000000 0.000000 0.000000
# 3 -0.002514 -0.005461 0.010037 0.000000 0.000000 0.000000
# 4 0.000000 0.000000 0.000000 0.031388 0.000000 0.000000
# 5 0.000000 0.000000 0.000000 0.000000 0.033977 0.000000
# 6 0.000000 0.000000 0.000000 0.000000 0.000000 -0.022634
#
#
# Mechanical properties :
#
#
# Convention : Reuss Voigt Hill
#
# Bulk Modulus (GPa) = 57.57467 78.98528 68.27998
# Shear Modulus (GPa) = 40.94975 16.76261 28.85618
#
# Velocity S-wave (km/s) = 4.53286 2.90013 3.80510
# Velocity P-wave (km/s) = 7.50229 7.13063 7.31882
#
# Compressibility (1/GPa) = 0.01736875
#
# Stress axis : x y z
#
# Youngs Moduli (GPa) = 112.23878 37.69608 99.63291
#
# Poissons Ratio (x) = 0.22909 0.25052
# Poissons Ratio (y) = 0.68211 0.54410
# Poissons Ratio (z) = 0.28222 0.20586
#
# Static dielectric constant tensor:
#      x y z
#    x 3.824980 0.000000 0.000000 
#    y 0.000000 3.483150 0.000000 
#    z 0.000000 0.000000 3.704010 
# 
# 
# High freq. dielectric constant tensor:
#      x y z
#    x 1.795020 0.000000 0.000000 
#    y 0.000000 1.761700 0.000000 
#    z 0.000000 0.000000 1.786010 
# 
# From -- ./inp_files/25945.got.cif
#   From: 2010.03.12/outbox.cif.g09.slc.cpg/sg73_13_cif.got.tgz:25945.got - 2010.04.16 15:25:48.
