data_PCOD8295634
_publ_section_title
;
Structure prediction by ZEFSAII (Michael W. Deem and Ramdas Pophale) SiO2 
 PCOD8295634
Probable space group: I B C A 
;
_chemical_formula_sum "Si O2"
_cell_formula_units_Z 64
_cell_length_a 21.226358
_cell_length_b 17.547477
_cell_length_c 9.630059
_cell_angle_alpha 90.000000
_cell_angle_beta 90.000000
_cell_angle_gamma 90.000000
_cell_volume 3586.898723
_symmetry_space_group_name_H-M "I B C A "
_symmetry_group_IT_number 73
_symmetry_cell_setting 'orthorhombic'
loop_
_space_group_symop_operation_xyz
x,y,z
-x,1/2-y,z
x,-y,1/2-z
1/2-x,y,-z
-x,-y,-z
x,1/2+y,-z
-x,y,1/2+z
1/2+x,-y,z
1/2+x,1/2+y,1/2+z
1/2-x,-y,1/2+z
1/2+x,1/2-y,-z
-x,1/2+y,1/2-z
1/2-x,1/2-y,1/2-z
1/2+x,y,1/2-z
1/2-x,1/2+y,z
x,1/2-y,1/2+z
loop_
_atom_site_type_symbol
_atom_site_label
_atom_site_fract_x
_atom_site_fract_y
_atom_site_fract_z
Si Si1 0.017235 0.052569 0.627601
Si Si2 0.593168 0.191807 0.968439
Si Si3 0.417312 0.172463 0.788573
Si Si4 0.207561 0.275851 0.623193
O O1 0.072999 0.110074 0.589854
O O2 0.954357 0.095460 0.679243
O O3 0.043723 0.000000 0.750000
O O4 0.000000 0.000000 0.500000
O O5 0.556078 0.258947 0.885552
O O6 0.668142 0.203362 0.939402
O O7 0.575316 0.198118 0.129545
O O8 0.342770 0.160429 0.824510
O O9 0.250000 0.310904 0.500000
O O10 0.250000 0.250000 0.750000
#
# Coordination Sequence:
#
# PCOD8295634 Si02
#       4
#    16  16  16  16
#     4  12  25  38  59  86 126 160 192 236 301 359
#     4  10  22  38  61  88 121 151 199 244 294 344
#     4  10  22  38  61  88 121 151 199 245 292 346
#     4  10  18  35  62  91 112 146 200 251 288 337
#
# _framework density 17.842713
#
# number of rings (size 3 to 8) (size 9 to 14) (size 15 to 20)
#    1.500    0.000    5.000    0.750    3.500    2.000 
#    0.000    0.000    0.000    9.000    0.000    0.000 
#    0.000    0.000    0.000    0.000    0.000    0.000 
#
# Total GULP energy -396537.832145 kJ/mol
# GULP energy per Si atom -12391.807255 kJ/mol
# Density = 1.780210 g / cm^3
# Si number density = 17.842713 Si / 1000 Ang^3
#
#
#
# Elastic Constant Matrix: (Units=GPa)
#
#
# Indices 1 2 3 4 5 6 
#
# 1 83.8828 25.5276 36.4291 0.0000 0.0000 0.0000
# 2 25.5276 82.9553 47.8047 0.0000 0.0000 0.0000
# 3 36.4291 47.8047 165.3784 0.0000 0.0000 0.0000
# 4 0.0000 0.0000 0.0000 39.6872 0.0000 0.0000
# 5 0.0000 0.0000 0.0000 0.0000 29.3499 0.0000
# 6 0.0000 0.0000 0.0000 0.0000 0.0000 9.2189
#
#
#
# Elastic Compliance Matrix: (Units=1/GPa)
#
#
# Indices 1 2 3 4 5 6 
#
# 1 0.013773 -0.002988 -0.002170 0.000000 0.000000 0.000000
# 2 -0.002988 0.015112 -0.003710 0.000000 0.000000 0.000000
# 3 -0.002170 -0.003710 0.007597 0.000000 0.000000 0.000000
# 4 0.000000 0.000000 0.000000 0.025197 0.000000 0.000000
# 5 0.000000 0.000000 0.000000 0.000000 0.034072 0.000000
# 6 0.000000 0.000000 0.000000 0.000000 0.000000 0.108473
#
#
# Mechanical properties :
#
#
# Convention : Reuss Voigt Hill
#
# Bulk Modulus (GPa) = 53.34422 61.30438 57.32430
# Shear Modulus (GPa) = 21.90965 30.48152 26.19559
#
# Velocity S-wave (km/s) = 3.50799 4.13770 3.83579
# Velocity P-wave (km/s) = 6.80954 7.56705 7.19826
#
# Compressibility (1/GPa) = 0.01874617
#
# Stress axis : x y z
#
# Youngs Moduli (GPa) = 72.60499 66.17179 131.62577
#
# Poissons Ratio (x) = 0.19770 0.28567
# Poissons Ratio (y) = 0.21692 0.48836
# Poissons Ratio (z) = 0.15757 0.24551
#
# Static dielectric constant tensor:
#      x y z
#    x 3.359990 0.000000 0.000000 
#    y 0.000000 2.997810 0.000000 
#    z 0.000000 0.000000 3.553350 
# 
# 
# High freq. dielectric constant tensor:
#      x y z
#    x 1.690390 0.000000 0.000000 
#    y 0.000000 1.654640 0.000000 
#    z 0.000000 0.000000 1.717030 
# 
# From -- ./inp_files/5956.got.cif
#   From: 2010.03.12/outbox.cif.g09.slc.cpg/sg73_3_cif.got.tgz:5956.got - 2010.04.16 15:25:48.
