data_PCOD8295784
_publ_section_title
;
Structure prediction by ZEFSAII (Michael W. Deem and Ramdas Pophale) SiO2 
 PCOD8295784
Probable space group: I B C A 
;
_chemical_formula_sum "Si O2"
_cell_formula_units_Z 120
_cell_length_a 14.839583
_cell_length_b 15.015492
_cell_length_c 27.864596
_cell_angle_alpha 90.000000
_cell_angle_beta 90.000000
_cell_angle_gamma 90.000000
_cell_volume 6208.890703
_symmetry_space_group_name_H-M "I B C A "
_symmetry_group_IT_number 73
_symmetry_cell_setting 'orthorhombic'
loop_
_space_group_symop_operation_xyz
x,y,z
-x,1/2-y,z
x,-y,1/2-z
1/2-x,y,-z
-x,-y,-z
x,1/2+y,-z
-x,y,1/2+z
1/2+x,-y,z
1/2+x,1/2+y,1/2+z
1/2-x,-y,1/2+z
1/2+x,1/2-y,-z
-x,1/2+y,1/2-z
1/2-x,1/2-y,1/2-z
1/2+x,y,1/2-z
1/2-x,1/2+y,z
x,1/2-y,1/2+z
loop_
_atom_site_type_symbol
_atom_site_label
_atom_site_fract_x
_atom_site_fract_y
_atom_site_fract_z
Si Si1 0.926653 0.677263 0.400264
Si Si2 0.976831 0.344381 0.314108
Si Si3 0.999294 0.496288 0.943217
Si Si4 0.308015 0.067432 0.838885
Si Si5 0.867460 0.610678 0.613533
Si Si6 0.352382 0.894443 0.892641
Si Si7 0.749259 0.748478 0.556252
Si Si8 0.091682 0.000000 0.250000
O O1 0.874074 0.648775 0.352292
O O2 0.852946 0.719524 0.435186
O O3 0.000000 0.750000 0.385662
O O4 0.973913 0.592945 0.424336
O O5 0.049485 0.354465 0.355882
O O6 0.000000 0.250000 0.287871
O O7 0.883148 0.341834 0.344115
O O8 0.972454 0.426038 0.275738
O O9 0.901995 0.472132 0.919330
O O10 0.066140 0.415193 0.929204
O O11 0.000000 0.500000 0.000000
O O12 0.203262 0.090561 0.843721
O O13 0.337381 0.044123 0.785697
O O14 0.316829 0.990140 0.877702
O O15 0.824187 0.679558 0.575670
O O16 0.271934 0.842317 0.918617
O O17 0.750000 0.760552 0.500000
#
# Coordination Sequence:
#
# PCOD8295784 Si02
#       8
#    16  16  16  16  16  16  16   8
#     4  10  23  39  56  86 126 161 198 257 316 358
#     4  10  19  39  64  89 121 159 206 253 325 371
#     4  10  21  36  57  89 121 162 208 250 298 366
#     4   9  21  41  59  84 124 156 199 257 316 368
#     4  10  21  38  63  85 126 168 197 250 318 366
#     4   9  20  36  57  83 121 165 194 249 315 359
#     4  11  22  36  59  95 121 161 217 252 286 376
#     4  10  22  40  64  92 118 154 212 272 298 398
#
# _framework density 19.327124000000001
#
# number of rings (size 3 to 8) (size 9 to 14) (size 15 to 20)
#    0.000    2.133    1.333    1.600    3.733    1.067 
#    0.000    2.000    0.000    0.000    0.000    0.000 
#    0.000    0.000    0.000    0.000    0.000    0.000 
#
# Total GULP energy -743418.955302 kJ/mol
# GULP energy per Si atom -12390.315922 kJ/mol
# Density = 1.928313 g / cm^3
# Si number density = 19.327124 Si / 1000 Ang^3
#
#
#
# Elastic Constant Matrix: (Units=GPa)
#
#
# Indices 1 2 3 4 5 6 
#
# 1 76.5591 38.5804 25.6999 0.0000 0.0000 0.0000
# 2 38.5804 101.3570 33.7452 0.0000 0.0000 0.0000
# 3 25.6999 33.7452 89.9335 0.0000 0.0000 0.0000
# 4 0.0000 0.0000 0.0000 27.8005 0.0000 0.0000
# 5 0.0000 0.0000 0.0000 0.0000 19.2312 0.0000
# 6 0.0000 0.0000 0.0000 0.0000 0.0000 18.0288
#
#
#
# Elastic Compliance Matrix: (Units=1/GPa)
#
#
# Indices 1 2 3 4 5 6 
#
# 1 0.016730 -0.005458 -0.002733 0.000000 0.000000 0.000000
# 2 -0.005458 0.013055 -0.003339 0.000000 0.000000 0.000000
# 3 -0.002733 -0.003339 0.013153 0.000000 0.000000 0.000000
# 4 0.000000 0.000000 0.000000 0.035971 0.000000 0.000000
# 5 0.000000 0.000000 0.000000 0.000000 0.051999 0.000000
# 6 0.000000 0.000000 0.000000 0.000000 0.000000 0.055467
#
#
# Mechanical properties :
#
#
# Convention : Reuss Voigt Hill
#
# Bulk Modulus (GPa) = 50.30563 51.54451 50.92507
# Shear Modulus (GPa) = 23.14172 24.33371 23.73771
#
# Velocity S-wave (km/s) = 3.46406 3.55215 3.50838
# Velocity P-wave (km/s) = 6.48727 6.59933 6.54354
#
# Compressibility (1/GPa) = 0.01987849
#
# Stress axis : x y z
#
# Youngs Moduli (GPa) = 59.77403 76.59705 76.02776
#
# Poissons Ratio (x) = 0.41808 0.20776
# Poissons Ratio (y) = 0.32625 0.25385
# Poissons Ratio (z) = 0.16335 0.25575
#
# Static dielectric constant tensor:
#      x y z
#    x 3.697330 0.000000 0.000000 
#    y 0.000000 3.692390 0.000000 
#    z 0.000000 0.000000 4.186200 
# 
# 
# High freq. dielectric constant tensor:
#      x y z
#    x 1.753460 0.000000 0.000000 
#    y 0.000000 1.757060 0.000000 
#    z 0.000000 0.000000 1.741380 
# 
# From -- ./inp_files/18331.got.cif
#   From: 2010.03.12/outbox.cif.g09.slc.cpg/sg73_10_cif.got.tgz:18331.got - 2010.04.16 15:25:48.
