data_PCOD8295940
_publ_section_title
;
Structure prediction by ZEFSAII (Michael W. Deem and Ramdas Pophale) SiO2 
 PCOD8295940
Probable space group: I B C A 
;
_chemical_formula_sum "Si O2"
_cell_formula_units_Z 104
_cell_length_a 8.774488
_cell_length_b 19.099434
_cell_length_c 33.023006
_cell_angle_alpha 90.000000
_cell_angle_beta 90.000000
_cell_angle_gamma 90.000000
_cell_volume 5534.251420
_symmetry_space_group_name_H-M "I B C A "
_symmetry_group_IT_number 73
_symmetry_cell_setting 'orthorhombic'
loop_
_space_group_symop_operation_xyz
x,y,z
-x,1/2-y,z
x,-y,1/2-z
1/2-x,y,-z
-x,-y,-z
x,1/2+y,-z
-x,y,1/2+z
1/2+x,-y,z
1/2+x,1/2+y,1/2+z
1/2-x,-y,1/2+z
1/2+x,1/2-y,-z
-x,1/2+y,1/2-z
1/2-x,1/2-y,1/2-z
1/2+x,y,1/2-z
1/2-x,1/2+y,z
x,1/2-y,1/2+z
loop_
_atom_site_type_symbol
_atom_site_label
_atom_site_fract_x
_atom_site_fract_y
_atom_site_fract_z
Si Si1 0.443414 0.674968 0.865889
Si Si2 0.442730 0.039016 0.384336
Si Si3 0.369098 0.576709 0.420020
Si Si4 0.750000 0.147477 0.000000
Si Si5 0.037898 0.553853 0.193948
Si Si6 0.000000 0.750000 0.969417
Si Si7 0.788442 0.000000 0.750000
Si Si8 0.900086 0.686593 0.392893
O O1 0.500000 0.750000 0.853313
O O2 0.544851 0.644995 0.902850
O O3 0.462086 0.629212 0.826115
O O4 0.268324 0.681478 0.876934
O O5 0.263505 0.049949 0.390398
O O6 0.520756 0.113611 0.384549
O O7 0.510223 0.987983 0.419917
O O8 0.466490 0.005874 0.340310
O O9 0.290999 0.596248 0.462732
O O10 0.603356 0.197304 0.995211
O O11 0.187194 0.548962 0.221481
O O12 0.890289 0.550073 0.222181
O O13 0.108857 0.701842 0.941151
O O14 0.000000 0.750000 0.372486
#
# Coordination Sequence:
#
# PCOD8295940 Si02
#       8
#    16  16  16   8  16   8   8  16
#     4  11  21  38  62  89 118 160 208 252 296 363
#     4  11  20  42  61  90 119 159 207 258 300 365
#     4  11  24  38  61  88 122 161 216 253 312 364
#     4  12  24  42  56  90 120 174 200 268 312 368
#     4  10  21  36  64  88 120 157 191 244 303 362
#     4  10  24  40  60  82 124 160 204 254 318 360
#     4  10  20  38  58  94 120 148 196 234 302 384
#     4  10  21  39  60  88 116 157 210 257 297 365
#
# _framework density 18.792064
#
# number of rings (size 3 to 8) (size 9 to 14) (size 15 to 20)
#    0.462    0.923    1.538    6.462    3.231    0.615 
#    0.000    0.769    0.000    3.692    0.000    0.000 
#    0.000    0.000    0.000    0.000    0.000    0.000 
#
# Total GULP energy -644620.987145 kJ/mol
# GULP energy per Si atom -12396.557445 kJ/mol
# Density = 1.874929 g / cm^3
# Si number density = 18.792064 Si / 1000 Ang^3
#
#
#
# Elastic Constant Matrix: (Units=GPa)
#
#
# Indices 1 2 3 4 5 6 
#
# 1 80.5611 44.0508 19.4231 0.0000 0.0000 0.0000
# 2 44.0508 147.3301 46.0502 0.0000 0.0000 0.0000
# 3 19.4231 46.0502 89.1392 0.0000 0.0000 0.0000
# 4 0.0000 0.0000 0.0000 4.1569 0.0000 0.0000
# 5 0.0000 0.0000 0.0000 0.0000 69.9703 0.0000
# 6 0.0000 0.0000 0.0000 0.0000 0.0000 31.1482
#
#
#
# Elastic Compliance Matrix: (Units=1/GPa)
#
#
# Indices 1 2 3 4 5 6 
#
# 1 0.014934 -0.004112 -0.001130 0.000000 0.000000 0.000000
# 2 -0.004112 0.009227 -0.003871 0.000000 0.000000 0.000000
# 3 -0.001130 -0.003871 0.013464 0.000000 0.000000 0.000000
# 4 0.000000 0.000000 0.000000 0.240561 0.000000 0.000000
# 5 0.000000 0.000000 0.000000 0.000000 0.014292 0.000000
# 6 0.000000 0.000000 0.000000 0.000000 0.000000 0.032105
#
#
# Mechanical properties :
#
#
# Convention : Reuss Voigt Hill
#
# Bulk Modulus (GPa) = 51.54639 59.56428 55.55534
# Shear Modulus (GPa) = 14.31542 34.88883 24.60213
#
# Velocity S-wave (km/s) = 2.76303 4.31347 3.62218
# Velocity P-wave (km/s) = 6.13747 7.52153 6.86447
#
# Compressibility (1/GPa) = 0.01940000
#
# Stress axis : x y z
#
# Youngs Moduli (GPa) = 66.96238 108.38017 74.27105
#
# Poissons Ratio (x) = 0.44566 0.08390
# Poissons Ratio (y) = 0.27535 0.28748
# Poissons Ratio (z) = 0.07565 0.41950
#
# Static dielectric constant tensor:
#      x y z
#    x 3.671000 0.000000 0.000000 
#    y 0.000000 3.468160 0.000000 
#    z 0.000000 0.000000 2.262240 
# 
# 
# High freq. dielectric constant tensor:
#      x y z
#    x 1.752060 0.000000 0.000000 
#    y 0.000000 1.733310 0.000000 
#    z 0.000000 0.000000 1.715370 
# 
# From -- ./inp_files/33619.got.cif
#   From: 2010.03.12/outbox.cif.g09.slc.cpg/sg73_17_cif.got.tgz:33619.got - 2010.04.16 15:25:48.
