data_PCOD8295146
_publ_section_title
;
Structure prediction by ZEFSAII (Michael W. Deem and Ramdas Pophale) SiO2 
 PCOD8295146
Probable space group: I B A M
;
_chemical_formula_sum "Si O2"
_cell_formula_units_Z 108
_cell_length_a 11.122113
_cell_length_b 32.144990
_cell_length_c 15.065697
_cell_angle_alpha 90.000000
_cell_angle_beta 90.000000
_cell_angle_gamma 90.000000
_cell_volume 5386.291173
_symmetry_space_group_name_H-M "I B A M"
_symmetry_group_IT_number 72
_symmetry_cell_setting 'orthorhombic'
loop_
_space_group_symop_operation_xyz
x,y,z
-x,-y,z
x,-y,1/2-z
-x,y,1/2-z
-x,-y,-z
x,y,-z
-x,y,1/2+z
x,-y,1/2+z
1/2+x,1/2+y,1/2+z
1/2-x,1/2-y,1/2+z
1/2+x,1/2-y,-z
1/2-x,1/2+y,-z
1/2-x,1/2-y,1/2-z
1/2+x,1/2+y,1/2-z
1/2-x,1/2+y,z
1/2+x,1/2-y,z
loop_
_atom_site_type_symbol
_atom_site_label
_atom_site_fract_x
_atom_site_fract_y
_atom_site_fract_z
Si Si1 0.216228 0.175113 0.229726
Si Si2 0.930226 0.700552 0.603937
Si Si3 0.854339 0.642943 0.097026
Si Si4 0.867114 0.088225 0.716091
Si Si5 0.500000 0.000000 0.750000
Si Si6 0.875400 0.986129 0.097844
Si Si7 0.000000 0.237133 0.250000
Si Si8 0.188251 0.445736 0.854834
O O1 0.307147 0.191909 0.155955
O O2 0.274840 0.162117 0.323826
O O3 0.147979 0.135785 0.185018
O O4 0.120621 0.210480 0.250158
O O5 0.907861 0.713358 0.500000
O O6 0.000576 0.736266 0.658798
O O7 0.009482 0.658813 0.609209
O O8 0.864205 0.592441 0.088331
O O9 0.804665 0.658254 0.000000
O O10 0.827604 0.055879 0.640981
O O11 0.771285 0.080160 0.790594
O O12 0.000000 0.079759 0.750000
O O13 0.419832 0.029394 0.689141
O O14 0.772896 0.021336 0.094827
O O15 0.911185 0.972903 0.000000
O O16 0.000000 0.000000 0.146445
#
# Coordination Sequence:
#
# PCOD8295146 Si02
#       8
#    16  16  16  16   4  16   8  16
#     4  11  24  43  68  98 131 167 219 273 323 398
#     4  11  25  44  70  98 132 173 215 271 327 396
#     4  10  23  43  67  94 130 177 219 270 336 391
#     4  11  21  40  64  88 121 164 215 265 330 378
#     4  12  24  34  60  96 116 176 230 262 324 380
#     4  11  22  37  60  90 124 164 210 266 324 381
#     4  12  24  45  68 102 133 175 216 266 337 406
#     4  11  23  38  62  89 127 167 220 268 319 392
#
# _framework density 20.050903999999999
#
# number of rings (size 3 to 8) (size 9 to 14) (size 15 to 20)
#    0.000    1.037    5.185    0.889    4.148    1.778 
#    0.000    2.963    0.000    0.000    0.000    0.000 
#    0.000    0.000    0.000    0.000    0.000    0.000 
#
# Total GULP energy -669102.330417 kJ/mol
# GULP energy per Si atom -12390.783897 kJ/mol
# Density = 2.000527 g / cm^3
# Si number density = 20.050904 Si / 1000 Ang^3
#
#
#
# Elastic Constant Matrix: (Units=GPa)
#
#
# Indices 1 2 3 4 5 6 
#
# 1 104.5396 41.7467 35.9343 0.0001 0.0001 0.0000
# 2 41.7467 119.6462 49.6197 0.0001 0.0000 0.0000
# 3 35.9343 49.6197 124.6810 -0.0002 0.0000 -0.0002
# 4 0.0001 0.0001 -0.0002 10.7152 -0.0001 0.0000
# 5 0.0001 0.0000 0.0000 -0.0001 30.8912 0.0000
# 6 0.0000 0.0000 -0.0002 0.0000 0.0000 46.8638
#
#
#
# Elastic Compliance Matrix: (Units=1/GPa)
#
#
# Indices 1 2 3 4 5 6 
#
# 1 0.011542 -0.003171 -0.002064 0.000000 0.000000 0.000000
# 2 -0.003171 0.010881 -0.003417 0.000000 0.000000 0.000000
# 3 -0.002064 -0.003417 0.009975 0.000000 0.000000 0.000000
# 4 0.000000 0.000000 0.000000 0.093325 0.000000 0.000000
# 5 0.000000 0.000000 0.000000 0.000000 0.032372 0.000000
# 6 0.000000 0.000000 0.000000 0.000000 0.000000 0.021338
#
#
# Mechanical properties :
#
#
# Convention : Reuss Voigt Hill
#
# Bulk Modulus (GPa) = 66.25065 67.05202 66.65134
# Shear Modulus (GPa) = 24.78082 32.46511 28.62296
#
# Velocity S-wave (km/s) = 3.51934 4.02821 3.78235
# Velocity P-wave (km/s) = 7.04467 7.42623 7.23796
#
# Compressibility (1/GPa) = 0.01509419
#
# Stress axis : x y z
#
# Youngs Moduli (GPa) = 86.64264 91.90084 100.24879
#
# Poissons Ratio (x) = 0.29141 0.20696
# Poissons Ratio (y) = 0.27474 0.34251
# Poissons Ratio (z) = 0.17887 0.31399
#
# Static dielectric constant tensor:
#      x y z
#    x 3.759130 0.000000 0.000000 
#    y 0.000000 2.219440 -0.000010 
#    z 0.000000 -0.000010 3.692860 
# 
# 
# High freq. dielectric constant tensor:
#      x y z
#    x 1.784710 0.000000 0.000000 
#    y 0.000000 1.797910 0.000000 
#    z 0.000000 0.000000 1.777480 
# 
# From -- ./inp_files/20759.got.cif
#   From: 2010.03.12/outbox.cif.g09.slc.cpg/sg72_11_cif.got.tgz:20759.got - 2010.04.16 14:54:00.
