data_PCOD8295840
_publ_section_title
;
Structure prediction by ZEFSAII (Michael W. Deem and Ramdas Pophale) SiO2 
 PCOD8295840
Probable space group: I B C A 
;
_chemical_formula_sum "Si O2"
_cell_formula_units_Z 112
_cell_length_a 5.562148
_cell_length_b 35.263660
_cell_length_c 31.041434
_cell_angle_alpha 90.000000
_cell_angle_beta 90.000000
_cell_angle_gamma 90.000000
_cell_volume 6088.519509
_symmetry_space_group_name_H-M "I B C A "
_symmetry_group_IT_number 73
_symmetry_cell_setting 'orthorhombic'
loop_
_space_group_symop_operation_xyz
x,y,z
-x,1/2-y,z
x,-y,1/2-z
1/2-x,y,-z
-x,-y,-z
x,1/2+y,-z
-x,y,1/2+z
1/2+x,-y,z
1/2+x,1/2+y,1/2+z
1/2-x,-y,1/2+z
1/2+x,1/2-y,-z
-x,1/2+y,1/2-z
1/2-x,1/2-y,1/2-z
1/2+x,y,1/2-z
1/2-x,1/2+y,z
x,1/2-y,1/2+z
loop_
_atom_site_type_symbol
_atom_site_label
_atom_site_fract_x
_atom_site_fract_y
_atom_site_fract_z
Si Si1 0.011786 0.485558 0.450622
Si Si2 0.500000 0.750000 0.186628
Si Si3 0.481394 0.601522 0.928510
Si Si4 0.286706 0.351566 0.138640
Si Si5 0.855683 0.674568 0.774443
Si Si6 0.638248 0.713196 0.377696
Si Si7 0.750000 0.644976 0.000000
Si Si8 0.908853 0.161888 0.566085
O O1 0.253650 0.503687 0.429021
O O2 0.050248 0.441448 0.442381
O O3 0.000000 0.500000 0.500000
O O4 0.654114 0.719749 0.214359
O O5 0.663883 0.776505 0.157239
O O6 0.582004 0.609999 0.879734
O O7 0.676797 0.618959 0.960331
O O8 0.224044 0.621240 0.935056
O O9 0.159216 0.354970 0.185037
O O10 0.478097 0.318088 0.145944
O O11 0.097557 0.336823 0.104400
O O12 0.615723 0.665702 0.746706
O O13 0.500000 0.750000 0.393073
O O14 0.729063 0.696029 0.423150
O O15 0.969717 0.669828 0.980784
#
# Coordination Sequence:
#
# PCOD8295840 Si02
#       8
#    16   8  16  16  16  16   8  16
#     4  10  22  35  56  89 134 159 186 230 292 348
#     4  12  22  36  56  84 120 154 198 252 338 384
#     4  10  22  36  61  86 121 163 199 233 300 373
#     4  10  22  38  56  84 114 164 200 249 304 369
#     4  12  25  38  58  89 126 155 205 261 318 384
#     4  11  19  35  58  81 109 155 210 256 316 374
#     4  10  20  34  56  88 104 144 214 250 296 348
#     4  10  21  35  57  82 108 152 213 252 299 365
#
# _framework density 18.395275999999999
#
# number of rings (size 3 to 8) (size 9 to 14) (size 15 to 20)
#    0.000    1.429    2.857    2.571   10.000    0.000 
#    0.000    0.000    0.000    0.000  252.571    0.000 
#    0.000    3.429    0.000    0.000    0.000    0.000 
#
# Total GULP energy -693758.509485 kJ/mol
# GULP energy per Si atom -12388.544812 kJ/mol
# Density = 1.835341 g / cm^3
# Si number density = 18.395276 Si / 1000 Ang^3
#
#
#
# Elastic Constant Matrix: (Units=GPa)
#
#
# Indices 1 2 3 4 5 6 
#
# 1 121.1988 25.3737 34.8760 0.0000 0.0000 0.0000
# 2 25.3737 65.1655 33.4354 0.0000 0.0000 0.0000
# 3 34.8760 33.4354 87.7106 0.0000 0.0000 0.0000
# 4 0.0000 0.0000 0.0000 -115.8717 0.0000 0.0000
# 5 0.0000 0.0000 0.0000 0.0000 0.8932 0.0000
# 6 0.0000 0.0000 0.0000 0.0000 0.0000 19.7420
#
#
#
# Elastic Compliance Matrix: (Units=1/GPa)
#
#
# Indices 1 2 3 4 5 6 
#
# 1 0.009565 -0.002204 -0.002963 0.000000 0.000000 0.000000
# 2 -0.002204 0.019585 -0.006589 0.000000 0.000000 0.000000
# 3 -0.002963 -0.006589 0.015091 0.000000 0.000000 0.000000
# 4 0.000000 0.000000 0.000000 -0.008630 0.000000 0.000000
# 5 0.000000 0.000000 0.000000 0.000000 1.119618 0.000000
# 6 0.000000 0.000000 0.000000 0.000000 0.000000 0.050653
#
#
# Mechanical properties :
#
#
# Convention : Reuss Voigt Hill
#
# Bulk Modulus (GPa) = 48.24415 51.27170 49.75793
# Shear Modulus (GPa) = 4.04431 -7.02131 -1.48850
#
# Velocity S-wave (km/s) = 1.48436 -1.95581 -0.90052
# Velocity P-wave (km/s) = 5.40565 4.77833 5.10164
#
# Compressibility (1/GPa) = 0.02072790
#
# Stress axis : x y z
#
# Youngs Moduli (GPa) = 104.54787 51.06056 66.26382
#
# Poissons Ratio (x) = 0.11254 0.19635
# Poissons Ratio (y) = 0.23043 0.43663
# Poissons Ratio (z) = 0.30979 0.33645
#
# Static dielectric constant tensor:
#      x y z
#    x 4.338950 0.000000 0.000000 
#    y 0.000000 3.195780 0.000000 
#    z 0.000000 0.000000 3.525630 
# 
# 
# High freq. dielectric constant tensor:
#      x y z
#    x 1.749070 0.000000 0.000000 
#    y 0.000000 1.669850 0.000000 
#    z 0.000000 0.000000 1.692050 
# 
# From -- ./inp_files/33393.got.cif
#   From: 2010.03.12/outbox.cif.g09.slc.cpg/sg73_17_cif.got.tgz:33393.got - 2010.04.16 15:25:48.
