data_PCOD8295577
_publ_section_title
;
Structure prediction by ZEFSAII (Michael W. Deem and Ramdas Pophale) SiO2 
 PCOD8295577
Probable space group: I B C A 
;
_chemical_formula_sum "Si O2"
_cell_formula_units_Z 96
_cell_length_a 14.793816
_cell_length_b 17.674864
_cell_length_c 19.430056
_cell_angle_alpha 90.000000
_cell_angle_beta 90.000000
_cell_angle_gamma 90.000000
_cell_volume 5080.545509
_symmetry_space_group_name_H-M "I B C A "
_symmetry_group_IT_number 73
_symmetry_cell_setting 'orthorhombic'
loop_
_space_group_symop_operation_xyz
x,y,z
-x,1/2-y,z
x,-y,1/2-z
1/2-x,y,-z
-x,-y,-z
x,1/2+y,-z
-x,y,1/2+z
1/2+x,-y,z
1/2+x,1/2+y,1/2+z
1/2-x,-y,1/2+z
1/2+x,1/2-y,-z
-x,1/2+y,1/2-z
1/2-x,1/2-y,1/2-z
1/2+x,y,1/2-z
1/2-x,1/2+y,z
x,1/2-y,1/2+z
loop_
_atom_site_type_symbol
_atom_site_label
_atom_site_fract_x
_atom_site_fract_y
_atom_site_fract_z
Si Si1 0.099785 0.035066 0.420053
Si Si2 0.274283 0.381138 0.749335
Si Si3 0.083416 0.584551 0.726365
Si Si4 0.559046 0.928352 0.565409
Si Si5 0.442395 0.325594 0.809606
Si Si6 0.789401 0.507481 0.636982
O O1 0.063990 0.083424 0.354985
O O2 0.087873 0.089445 0.486648
O O3 0.202123 0.007899 0.409934
O O4 0.043311 0.957866 0.430361
O O5 0.168220 0.359318 0.757532
O O6 0.344690 0.314328 0.771462
O O7 0.289622 0.408588 0.670532
O O8 0.296569 0.447581 0.802171
O O9 0.112903 0.500000 0.750000
O O10 0.994834 0.609378 0.767199
O O11 0.570195 0.852734 0.611434
O O12 0.622567 0.997631 0.590075
O O13 0.500000 0.250000 0.807532
#
# Coordination Sequence:
#
# PCOD8295577 Si02
#       6
#    16  16  16  16  16  16
#     4  10  18  30  51  81 100 132 178 233 289 313
#     4   9  17  30  53  77 104 137 181 228 281 320
#     4  11  18  34  57  79 107 138 186 249 280 331
#     4  10  19  30  49  75 109 137 174 224 276 341
#     4  11  23  35  51  78 114 155 186 220 286 355
#     4   9  15  28  49  79 102 128 169 233 278 314
#
# _framework density 18.895609
#
# number of rings (size 3 to 8) (size 9 to 14) (size 15 to 20)
#    0.000    2.000    5.000    1.500    2.333    0.667 
#    0.000    0.833    0.000    0.000    0.000   25.667 
#    0.000    0.000    0.000    0.000    0.000    0.000 
#
# Total GULP energy -594918.629855 kJ/mol
# GULP energy per Si atom -12394.138122 kJ/mol
# Density = 1.885260 g / cm^3
# Si number density = 18.895609 Si / 1000 Ang^3
#
#
#
# Elastic Constant Matrix: (Units=GPa)
#
#
# Indices 1 2 3 4 5 6 
#
# 1 99.8658 15.1154 30.0166 0.0000 0.0000 0.0000
# 2 15.1154 37.3630 22.5770 0.0000 0.0000 0.0000
# 3 30.0166 22.5770 120.1439 0.0000 0.0000 0.0000
# 4 0.0000 0.0000 0.0000 13.5699 0.0000 0.0000
# 5 0.0000 0.0000 0.0000 0.0000 28.4566 0.0000
# 6 0.0000 0.0000 0.0000 0.0000 0.0000 19.7443
#
#
#
# Elastic Compliance Matrix: (Units=1/GPa)
#
#
# Indices 1 2 3 4 5 6 
#
# 1 0.011154 -0.003191 -0.002187 0.000000 0.000000 0.000000
# 2 -0.003191 0.031106 -0.005048 0.000000 0.000000 0.000000
# 3 -0.002187 -0.005048 0.009818 0.000000 0.000000 0.000000
# 4 0.000000 0.000000 0.000000 0.073692 0.000000 0.000000
# 5 0.000000 0.000000 0.000000 0.000000 0.035141 0.000000
# 6 0.000000 0.000000 0.000000 0.000000 0.000000 0.050648
#
#
# Mechanical properties :
#
#
# Convention : Reuss Voigt Hill
#
# Bulk Modulus (GPa) = 32.02459 43.64340 37.83399
# Shear Modulus (GPa) = 20.59144 24.99842 22.79493
#
# Velocity S-wave (km/s) = 3.30471 3.64122 3.47704
# Velocity P-wave (km/s) = 5.61662 6.38946 6.01547
#
# Compressibility (1/GPa) = 0.03122601
#
# Stress axis : x y z
#
# Youngs Moduli (GPa) = 89.65599 32.14847 101.84989
#
# Poissons Ratio (x) = 0.10258 0.22275
# Poissons Ratio (y) = 0.28607 0.51415
# Poissons Ratio (z) = 0.19608 0.16229
#
# Static dielectric constant tensor:
#      x y z
#    x 3.794200 0.000000 0.000000 
#    y 0.000000 2.866900 0.000000 
#    z 0.000000 0.000000 3.698070 
# 
# 
# High freq. dielectric constant tensor:
#      x y z
#    x 1.759530 0.000000 0.000000 
#    y 0.000000 1.661200 0.000000 
#    z 0.000000 0.000000 1.738890 
# 
# From -- ./inp_files/26169.got.cif
#   From: 2010.03.12/outbox.cif.g09.slc.cpg/sg73_14_cif.got.tgz:26169.got - 2010.04.16 15:25:48.
