data_PCOD8295127
_publ_section_title
;
Structure prediction by ZEFSAII (Michael W. Deem and Ramdas Pophale) SiO2 
 PCOD8295127
Probable space group: I B A M
;
_chemical_formula_sum "Si O2"
_cell_formula_units_Z 96
_cell_length_a 23.320272
_cell_length_b 8.619739
_cell_length_c 22.563988
_cell_angle_alpha 90.000000
_cell_angle_beta 90.000000
_cell_angle_gamma 90.000000
_cell_volume 4535.692332
_symmetry_space_group_name_H-M "I B A M"
_symmetry_group_IT_number 72
_symmetry_cell_setting 'orthorhombic'
loop_
_space_group_symop_operation_xyz
x,y,z
-x,-y,z
x,-y,1/2-z
-x,y,1/2-z
-x,-y,-z
x,y,-z
-x,y,1/2+z
x,-y,1/2+z
1/2+x,1/2+y,1/2+z
1/2-x,1/2-y,1/2+z
1/2+x,1/2-y,-z
1/2-x,1/2+y,-z
1/2-x,1/2-y,1/2-z
1/2+x,1/2+y,1/2-z
1/2-x,1/2+y,z
1/2+x,1/2-y,z
loop_
_atom_site_type_symbol
_atom_site_label
_atom_site_fract_x
_atom_site_fract_y
_atom_site_fract_z
Si Si1 0.635162 0.413282 0.693337
Si Si2 0.680224 0.247739 0.590195
Si Si3 0.952894 0.815675 0.000000
Si Si4 0.065845 0.334339 0.761974
Si Si5 0.391035 0.290585 0.620300
Si Si6 0.295869 0.104625 0.565838
Si Si7 0.582060 0.326607 0.500000
O O1 0.664784 0.500000 0.750000
O O2 0.678281 0.298996 0.659235
O O3 0.585263 0.307542 0.720500
O O4 0.611646 0.531876 0.643082
O O5 0.729070 0.351864 0.560000
O O6 0.619355 0.278864 0.557616
O O7 0.697170 0.068826 0.589513
O O8 0.925264 0.754829 0.939577
O O9 0.018585 0.750657 0.000000
O O10 0.937500 0.996370 0.000000
O O11 0.096731 0.500000 0.750000
O O12 0.076300 0.306496 0.830685
O O13 0.000000 0.352217 0.750000
O O14 0.326756 0.225606 0.609926
O O15 0.322769 0.114831 0.500000
#
# Coordination Sequence:
#
# PCOD8295127 Si02
#       7
#    16  16   8  16  16  16   8
#     4  10  23  42  67  94 132 173 231 274 334 402
#     4  12  24  43  66  97 134 173 231 276 343 403
#     4  11  24  40  66 103 144 171 222 275 346 401
#     4  10  23  43  66  95 133 184 229 277 331 402
#     4  11  23  42  67  99 136 176 225 277 334 403
#     4  12  24  42  69 100 135 181 220 285 338 408
#     4  11  24  38  64  99 136 179 212 282 334 414
#
# _framework density 21.165455999999999
#
# number of rings (size 3 to 8) (size 9 to 14) (size 15 to 20)
#    0.000    1.000    4.167    2.000    2.333    3.000 
#    0.000    9.167    0.000    0.000    0.000    0.000 
#    0.000    0.000    0.000    0.000    0.000    0.000 
#
# Total GULP energy -594835.679753 kJ/mol
# GULP energy per Si atom -12392.409995 kJ/mol
# Density = 2.111728 g / cm^3
# Si number density = 21.165456 Si / 1000 Ang^3
#
#
#
# Elastic Constant Matrix: (Units=GPa)
#
#
# Indices 1 2 3 4 5 6 
#
# 1 107.5252 44.6633 51.4886 0.0000 0.0000 0.0000
# 2 44.6633 137.3715 66.8285 0.0000 0.0000 0.0000
# 3 51.4886 66.8285 162.1723 0.0000 0.0000 0.0000
# 4 0.0000 0.0000 0.0000 45.7450 0.0000 0.0000
# 5 0.0000 0.0000 0.0000 0.0000 20.3847 0.0000
# 6 0.0000 0.0000 0.0000 0.0000 0.0000 27.4250
#
#
#
# Elastic Compliance Matrix: (Units=1/GPa)
#
#
# Indices 1 2 3 4 5 6 
#
# 1 0.011605 -0.002477 -0.002664 0.000000 0.000000 0.000000
# 2 -0.002477 0.009634 -0.003183 0.000000 0.000000 0.000000
# 3 -0.002664 -0.003183 0.008324 0.000000 0.000000 0.000000
# 4 0.000000 0.000000 0.000000 0.021860 0.000000 0.000000
# 5 0.000000 0.000000 0.000000 0.000000 0.049056 0.000000
# 6 0.000000 0.000000 0.000000 0.000000 0.000000 0.036463
#
#
# Mechanical properties :
#
#
# Convention : Reuss Voigt Hill
#
# Bulk Modulus (GPa) = 77.43725 81.44776 79.44250
# Shear Modulus (GPa) = 31.66674 34.98353 33.32514
#
# Velocity S-wave (km/s) = 3.87221 4.06995 3.97231
# Velocity P-wave (km/s) = 7.52715 7.78787 7.65862
#
# Compressibility (1/GPa) = 0.01291368
#
# Stress axis : x y z
#
# Youngs Moduli (GPa) = 86.17301 103.80372 120.13836
#
# Poissons Ratio (x) = 0.25714 0.31999
# Poissons Ratio (y) = 0.21347 0.38244
# Poissons Ratio (z) = 0.22953 0.33044
#
# Static dielectric constant tensor:
#      x y z
#    x 3.717850 0.000000 0.000000 
#    y 0.000000 4.065590 0.000000 
#    z 0.000000 0.000000 4.129510 
# 
# 
# High freq. dielectric constant tensor:
#      x y z
#    x 1.810340 0.000000 0.000000 
#    y 0.000000 1.840620 0.000000 
#    z 0.000000 0.000000 1.843840 
# 
# From -- ./inp_files/45676.got.cif
#   From: 2010.03.12/outbox.cif.g09.slc.cpg/sg72_23_cif.got.tgz:45676.got - 2010.04.16 14:54:00.
