data_PCOD8295881
_publ_section_title
;
Structure prediction by ZEFSAII (Michael W. Deem and Ramdas Pophale) SiO2 
 PCOD8295881
Probable space group: I B C A 
;
_chemical_formula_sum "Si O2"
_cell_formula_units_Z 104
_cell_length_a 15.243706
_cell_length_b 14.513022
_cell_length_c 23.602133
_cell_angle_alpha 90.000000
_cell_angle_beta 90.000000
_cell_angle_gamma 90.000000
_cell_volume 5221.552765
_symmetry_space_group_name_H-M "I B C A "
_symmetry_group_IT_number 73
_symmetry_cell_setting 'orthorhombic'
loop_
_space_group_symop_operation_xyz
x,y,z
-x,1/2-y,z
x,-y,1/2-z
1/2-x,y,-z
-x,-y,-z
x,1/2+y,-z
-x,y,1/2+z
1/2+x,-y,z
1/2+x,1/2+y,1/2+z
1/2-x,-y,1/2+z
1/2+x,1/2-y,-z
-x,1/2+y,1/2-z
1/2-x,1/2-y,1/2-z
1/2+x,y,1/2-z
1/2-x,1/2+y,z
x,1/2-y,1/2+z
loop_
_atom_site_type_symbol
_atom_site_label
_atom_site_fract_x
_atom_site_fract_y
_atom_site_fract_z
Si Si1 0.250000 0.930941 0.000000
Si Si2 0.000000 0.250000 0.365685
Si Si3 0.487919 0.422705 0.431376
Si Si4 0.830878 0.992611 0.389576
Si Si5 0.923735 0.107854 0.954010
Si Si6 0.673752 0.827292 0.816382
Si Si7 0.679704 0.321832 0.313296
Si Si8 0.000000 0.250000 0.141832
O O1 0.218597 0.996916 0.949380
O O2 0.328248 0.863503 0.978363
O O3 0.955595 0.327398 0.404199
O O4 0.924322 0.210736 0.325429
O O5 0.567082 0.477820 0.401762
O O6 0.412558 0.501061 0.432838
O O7 0.506438 0.387860 0.495018
O O8 0.461182 0.333186 0.395944
O O9 0.796424 0.907292 0.352815
O O10 0.811464 0.085968 0.356587
O O11 0.686116 0.856058 0.751199
O O12 0.748232 0.753198 0.830775
O O13 0.581171 0.283661 0.320769
#
# Coordination Sequence:
#
# PCOD8295881 Si02
#       8
#     8   8  16  16  16  16  16   8
#     4  10  22  36  62  90 130 156 208 250 310 380
#     4  12  22  38  64  90 124 164 212 260 310 374
#     4   9  19  36  57  83 119 156 199 242 309 372
#     4  10  20  41  60  88 121 165 195 261 312 372
#     4  10  20  36  56  88 123 161 196 254 305 377
#     4  11  23  40  61  90 118 165 208 264 310 373
#     4  10  23  41  62  87 124 157 214 258 318 373
#     4  10  20  38  62  86 114 160 200 260 308 376
#
# _framework density 19.917446000000002
#
# number of rings (size 3 to 8) (size 9 to 14) (size 15 to 20)
#    0.000    1.846    1.538    2.308    2.154    0.000 
#    0.000    3.077    0.000    0.000    0.000    0.000 
#    0.000    0.000    0.000    0.000    0.000    0.000 
#
# Total GULP energy -644698.906423 kJ/mol
# GULP energy per Si atom -12398.055893 kJ/mol
# Density = 1.987211 g / cm^3
# Si number density = 19.917446 Si / 1000 Ang^3
#
#
#
# Elastic Constant Matrix: (Units=GPa)
#
#
# Indices 1 2 3 4 5 6 
#
# 1 89.3949 32.5363 27.1464 0.0000 0.0000 0.0000
# 2 32.5363 93.0437 53.9105 0.0000 0.0000 0.0000
# 3 27.1464 53.9105 108.5963 0.0000 0.0000 0.0000
# 4 0.0000 0.0000 0.0000 8.6475 0.0000 0.0000
# 5 0.0000 0.0000 0.0000 0.0000 12.8787 0.0000
# 6 0.0000 0.0000 0.0000 0.0000 0.0000 24.7295
#
#
#
# Elastic Compliance Matrix: (Units=1/GPa)
#
#
# Indices 1 2 3 4 5 6 
#
# 1 0.012965 -0.003728 -0.001390 0.000000 0.000000 0.000000
# 2 -0.003728 0.016159 -0.007090 0.000000 0.000000 0.000000
# 3 -0.001390 -0.007090 0.013076 0.000000 0.000000 0.000000
# 4 0.000000 0.000000 0.000000 0.115640 0.000000 0.000000
# 5 0.000000 0.000000 0.000000 0.000000 0.077648 0.000000
# 6 0.000000 0.000000 0.000000 0.000000 0.000000 0.040438
#
#
# Mechanical properties :
#
#
# Convention : Reuss Voigt Hill
#
# Bulk Modulus (GPa) = 56.23234 57.58014 56.90624
# Shear Modulus (GPa) = 16.32541 21.08059 18.70300
#
# Velocity S-wave (km/s) = 2.86607 3.25683 3.06768
# Velocity P-wave (km/s) = 6.26470 6.56618 6.41721
#
# Compressibility (1/GPa) = 0.01778336
#
# Stress axis : x y z
#
# Youngs Moduli (GPa) = 77.12801 61.88324 76.47817
#
# Poissons Ratio (x) = 0.23073 0.10632
# Poissons Ratio (y) = 0.28756 0.54223
# Poissons Ratio (z) = 0.10722 0.43875
#
# Static dielectric constant tensor:
#      x y z
#    x 3.655690 0.000000 0.000000 
#    y 0.000000 3.540850 0.000000 
#    z 0.000000 0.000000 3.680650 
# 
# 
# High freq. dielectric constant tensor:
#      x y z
#    x 1.778210 0.000000 0.000000 
#    y 0.000000 1.768650 0.000000 
#    z 0.000000 0.000000 1.785900 
# 
# From -- ./inp_files/29597.got.cif
#   From: 2010.03.12/outbox.cif.g09.slc.cpg/sg73_15_cif.got.tgz:29597.got - 2010.04.16 15:25:48.
