data_PCOD8295805
_publ_section_title
;
Structure prediction by ZEFSAII (Michael W. Deem and Ramdas Pophale) SiO2 
 PCOD8295805
Probable space group: I B C A 
;
_chemical_formula_sum "Si O2"
_cell_formula_units_Z 72
_cell_length_a 9.450057
_cell_length_b 13.977400
_cell_length_c 22.966165
_cell_angle_alpha 90.000000
_cell_angle_beta 90.000000
_cell_angle_gamma 90.000000
_cell_volume 3033.537043
_symmetry_space_group_name_H-M "I B C A "
_symmetry_group_IT_number 73
_symmetry_cell_setting 'orthorhombic'
loop_
_space_group_symop_operation_xyz
x,y,z
-x,1/2-y,z
x,-y,1/2-z
1/2-x,y,-z
-x,-y,-z
x,1/2+y,-z
-x,y,1/2+z
1/2+x,-y,z
1/2+x,1/2+y,1/2+z
1/2-x,-y,1/2+z
1/2+x,1/2-y,-z
-x,1/2+y,1/2-z
1/2-x,1/2-y,1/2-z
1/2+x,y,1/2-z
1/2-x,1/2+y,z
x,1/2-y,1/2+z
loop_
_atom_site_type_symbol
_atom_site_label
_atom_site_fract_x
_atom_site_fract_y
_atom_site_fract_z
Si Si1 0.886051 0.325064 0.313792
Si Si2 0.627694 0.691623 0.686679
Si Si3 0.268408 0.899032 0.578520
Si Si4 0.250000 0.726575 0.500000
Si Si5 0.934878 0.580869 0.069996
O O1 0.737534 0.276098 0.304477
O O2 0.924814 0.358382 0.247673
O O3 0.880734 0.406538 0.363093
O O4 0.000000 0.250000 0.338768
O O5 0.500000 0.750000 0.657015
O O6 0.691893 0.608148 0.646522
O O7 0.309107 0.796779 0.550346
O O8 0.104261 0.924113 0.568282
O O9 0.367263 0.980190 0.549171
O O10 0.123260 0.663213 0.527016
#
# Coordination Sequence:
#
# PCOD8295805 Si02
#       5
#    16  16  16   8  16
#     4  10  19  44  71 101 144 189 229 282 349 408
#     4  10  22  39  73 107 140 187 233 280 345 417
#     4  12  28  47  72 107 142 184 236 289 358 419
#     4  12  26  50  74  92 132 186 236 302 352 416
#     4  12  27  47  73 104 142 184 233 296 351 423
#
# _framework density 23.734670999999999
#
# number of rings (size 3 to 8) (size 9 to 14) (size 15 to 20)
#    0.000    0.889    4.444    1.333    3.111    8.000 
#    0.000    2.222    0.000    0.000    0.000    0.000 
#    0.000    0.000    0.000    0.000    0.000    0.000 
#
# Total GULP energy -446159.201391 kJ/mol
# GULP energy per Si atom -12393.311150 kJ/mol
# Density = 2.368065 g / cm^3
# Si number density = 23.734671 Si / 1000 Ang^3
#
#
#
# Elastic Constant Matrix: (Units=GPa)
#
#
# Indices 1 2 3 4 5 6 
#
# 1 160.1861 54.9663 36.9071 0.0000 0.0000 0.0000
# 2 54.9663 123.3177 35.4286 0.0000 0.0000 0.0000
# 3 36.9071 35.4286 113.0057 0.0000 0.0000 0.0000
# 4 0.0000 0.0000 0.0000 23.2558 0.0000 0.0000
# 5 0.0000 0.0000 0.0000 0.0000 28.5977 0.0000
# 6 0.0000 0.0000 0.0000 0.0000 0.0000 35.0167
#
#
#
# Elastic Compliance Matrix: (Units=1/GPa)
#
#
# Indices 1 2 3 4 5 6 
#
# 1 0.007613 -0.002944 -0.001563 0.000000 0.000000 0.000000
# 2 -0.002944 0.010050 -0.002189 0.000000 0.000000 0.000000
# 3 -0.001563 -0.002189 0.010046 0.000000 0.000000 0.000000
# 4 0.000000 0.000000 0.000000 0.043000 0.000000 0.000000
# 5 0.000000 0.000000 0.000000 0.000000 0.034968 0.000000
# 6 0.000000 0.000000 0.000000 0.000000 0.000000 0.028558
#
#
# Mechanical properties :
#
#
# Convention : Reuss Voigt Hill
#
# Bulk Modulus (GPa) = 69.85303 72.34595 71.09949
# Shear Modulus (GPa) = 32.80808 35.32121 34.06465
#
# Velocity S-wave (km/s) = 3.72194 3.86186 3.79255
# Velocity P-wave (km/s) = 6.92569 7.10159 7.01419
#
# Compressibility (1/GPa) = 0.01431577
#
# Stress axis : x y z
#
# Youngs Moduli (GPa) = 131.34996 99.49773 99.54125
#
# Poissons Ratio (x) = 0.29295 0.15562
# Poissons Ratio (y) = 0.38673 0.21793
# Poissons Ratio (z) = 0.20535 0.21784
#
# Static dielectric constant tensor:
#      x y z
#    x 4.015900 0.000000 0.000000 
#    y 0.000000 3.993100 0.000000 
#    z 0.000000 0.000000 4.840050 
# 
# 
# High freq. dielectric constant tensor:
#      x y z
#    x 1.946540 0.000000 0.000000 
#    y 0.000000 1.910680 0.000000 
#    z 0.000000 0.000000 1.963620 
# 
# From -- ./inp_files/31068.got.cif
#   From: 2010.03.12/outbox.cif.g09.slc.cpg/sg73_16_cif.got.tgz:31068.got - 2010.04.16 15:25:48.
