data_PCOD8295060
_publ_section_title
;
Structure prediction by ZEFSAII (Michael W. Deem and Ramdas Pophale) SiO2 
 PCOD8295060
Probable space group: I B A M
;
_chemical_formula_sum "Si O2"
_cell_formula_units_Z 68
_cell_length_a 20.658712
_cell_length_b 10.299455
_cell_length_c 13.928494
_cell_angle_alpha 90.000000
_cell_angle_beta 90.000000
_cell_angle_gamma 90.000000
_cell_volume 2963.614064
_symmetry_space_group_name_H-M "I B A M"
_symmetry_group_IT_number 72
_symmetry_cell_setting 'orthorhombic'
loop_
_space_group_symop_operation_xyz
x,y,z
-x,-y,z
x,-y,1/2-z
-x,y,1/2-z
-x,-y,-z
x,y,-z
-x,y,1/2+z
x,-y,1/2+z
1/2+x,1/2+y,1/2+z
1/2-x,1/2-y,1/2+z
1/2+x,1/2-y,-z
1/2-x,1/2+y,-z
1/2-x,1/2-y,1/2-z
1/2+x,1/2+y,1/2-z
1/2-x,1/2+y,z
1/2+x,1/2-y,z
loop_
_atom_site_type_symbol
_atom_site_label
_atom_site_fract_x
_atom_site_fract_y
_atom_site_fract_z
Si Si1 0.000000 0.500000 0.250000
Si Si2 0.406713 0.853630 0.391791
Si Si3 0.773504 0.503916 0.107360
Si Si4 0.817210 0.221282 0.384397
Si Si5 0.423521 0.350937 0.752198
O O1 0.041663 0.589541 0.181289
O O2 0.434259 0.844956 0.500000
O O3 0.343169 0.938740 0.389541
O O4 0.393816 0.708399 0.351052
O O5 0.780338 0.647612 0.153869
O O6 0.722193 0.404709 0.155452
O O7 0.748759 0.523347 0.000000
O O8 0.823046 0.226482 0.500000
O O9 0.889222 0.218118 0.339461
O O10 0.404900 0.500000 0.750000
O O11 0.500000 0.328470 0.750000
#
# Coordination Sequence:
#
# PCOD8295060 Si02
#       5
#     4  16  16  16  16
#     4  12  22  44  70 102 136 180 240 286 360 442
#     4  11  24  43  69 100 141 182 233 302 358 421
#     4   9  21  40  68 104 138 178 230 285 361 429
#     4  10  22  44  72 104 142 183 233 297 361 430
#     4  11  26  46  65  99 140 185 247 291 353 437
#
# _framework density 22.944956000000001
#
# number of rings (size 3 to 8) (size 9 to 14) (size 15 to 20)
#    0.000    1.647    1.176    1.765    3.294    2.824 
#    2.118    2.353    0.000    0.000    0.000    0.000 
#    0.000    0.000    0.000    0.000    0.000    0.000 
#
# Total GULP energy -421369.484531 kJ/mol
# GULP energy per Si atom -12393.220133 kJ/mol
# Density = 2.289273 g / cm^3
# Si number density = 22.944956 Si / 1000 Ang^3
#
#
#
# Elastic Constant Matrix: (Units=GPa)
#
#
# Indices 1 2 3 4 5 6 
#
# 1 102.8416 59.8388 45.0960 0.0000 0.0000 0.0000
# 2 59.8388 185.8369 51.5577 0.0000 0.0000 0.0000
# 3 45.0960 51.5577 126.7624 0.0000 0.0000 0.0000
# 4 0.0000 0.0000 0.0000 22.2879 0.0000 0.0000
# 5 0.0000 0.0000 0.0000 0.0000 38.1153 0.0000
# 6 0.0000 0.0000 0.0000 0.0000 0.0000 26.0792
#
#
#
# Elastic Compliance Matrix: (Units=1/GPa)
#
#
# Indices 1 2 3 4 5 6 
#
# 1 0.013097 -0.003297 -0.003318 0.000000 0.000000 0.000000
# 2 -0.003297 0.006895 -0.001632 0.000000 0.000000 0.000000
# 3 -0.003318 -0.001632 0.009733 0.000000 0.000000 0.000000
# 4 0.000000 0.000000 0.000000 0.044867 0.000000 0.000000
# 5 0.000000 0.000000 0.000000 0.000000 0.026236 0.000000
# 6 0.000000 0.000000 0.000000 0.000000 0.000000 0.038345
#
#
# Mechanical properties :
#
#
# Convention : Reuss Voigt Hill
#
# Bulk Modulus (GPa) = 75.57601 80.93622 78.25611
# Shear Modulus (GPa) = 31.23487 34.55971 32.89729
#
# Velocity S-wave (km/s) = 3.69358 3.88519 3.79059
# Velocity P-wave (km/s) = 7.15538 7.44828 7.30330
#
# Compressibility (1/GPa) = 0.01323171
#
# Stress axis : x y z
#
# Youngs Moduli (GPa) = 76.35374 145.02795 102.74324
#
# Poissons Ratio (x) = 0.47808 0.34095
# Poissons Ratio (y) = 0.25170 0.16765
# Poissons Ratio (z) = 0.25338 0.23665
#
# Static dielectric constant tensor:
#      x y z
#    x 3.980800 0.000000 0.000000 
#    y 0.000000 4.921720 0.000000 
#    z 0.000000 0.000000 4.372790 
# 
# 
# High freq. dielectric constant tensor:
#      x y z
#    x 1.901970 0.000000 0.000000 
#    y 0.000000 1.930750 0.000000 
#    z 0.000000 0.000000 1.899520 
# 
# From -- ./inp_files/23891.got.cif
#   From: 2010.03.12/outbox.cif.g09.slc.cpg/sg72_12_cif.got.tgz:23891.got - 2010.04.16 14:54:00.
