data_PCOD8295353
_publ_section_title
;
Structure prediction by ZEFSAII (Michael W. Deem and Ramdas Pophale) SiO2 
 PCOD8295353
Probable space group: I B A M
;
_chemical_formula_sum "Si O2"
_cell_formula_units_Z 64
_cell_length_a 10.325064
_cell_length_b 8.632862
_cell_length_c 32.721864
_cell_angle_alpha 90.000000
_cell_angle_beta 90.000000
_cell_angle_gamma 90.000000
_cell_volume 2916.658526
_symmetry_space_group_name_H-M "I B A M"
_symmetry_group_IT_number 72
_symmetry_cell_setting 'orthorhombic'
loop_
_space_group_symop_operation_xyz
x,y,z
-x,-y,z
x,-y,1/2-z
-x,y,1/2-z
-x,-y,-z
x,y,-z
-x,y,1/2+z
x,-y,1/2+z
1/2+x,1/2+y,1/2+z
1/2-x,1/2-y,1/2+z
1/2+x,1/2-y,-z
1/2-x,1/2+y,-z
1/2-x,1/2-y,1/2-z
1/2+x,1/2+y,1/2-z
1/2-x,1/2+y,z
1/2+x,1/2-y,z
loop_
_atom_site_type_symbol
_atom_site_label
_atom_site_fract_x
_atom_site_fract_y
_atom_site_fract_z
Si Si1 0.633720 0.065687 0.704773
Si Si2 0.849549 0.142949 0.919544
Si Si3 0.609835 0.309381 0.952469
Si Si4 0.374185 0.604033 0.327139
O O1 0.629007 0.253257 0.704917
O O2 0.500000 0.000000 0.686119
O O3 0.653617 0.000000 0.750000
O O4 0.751113 0.007174 0.677152
O O5 0.707454 0.180593 0.936255
O O6 0.868928 0.179913 0.871952
O O7 0.960156 0.239565 0.944267
O O8 0.865027 0.961141 0.925998
O O9 0.631792 0.342394 0.000000
O O10 0.500000 0.500000 0.319203
#
# Coordination Sequence:
#
# PCOD8295353 Si02
#       4
#    16  16  16  16
#     4  11  26  45  70 103 139 179 227 281 350 417
#     4  11  24  41  64 100 133 176 231 273 342 398
#     4  11  22  42  65  94 137 177 223 281 334 401
#     4  12  24  45  71 103 141 182 230 289 345 409
#
# _framework density 21.942919
#
# number of rings (size 3 to 8) (size 9 to 14) (size 15 to 20)
#    0.000    0.750    2.500    6.750    3.500    3.500 
#    0.000    2.500    0.000    0.000    0.000    0.000 
#    0.000    0.000    0.000    0.000    0.000    0.000 
#
# Total GULP energy -396929.544559 kJ/mol
# GULP energy per Si atom -12404.048267 kJ/mol
# Density = 2.189298 g / cm^3
# Si number density = 21.942919 Si / 1000 Ang^3
#
#
#
# Elastic Constant Matrix: (Units=GPa)
#
#
# Indices 1 2 3 4 5 6 
#
# 1 162.6560 47.1344 23.6170 0.0000 0.0000 0.0000
# 2 47.1344 91.6608 32.5839 0.0000 0.0000 0.0000
# 3 23.6170 32.5839 108.9824 0.0000 0.0000 0.0000
# 4 0.0000 0.0000 0.0000 31.4060 0.0000 0.0000
# 5 0.0000 0.0000 0.0000 0.0000 30.4745 0.0000
# 6 0.0000 0.0000 0.0000 0.0000 0.0000 43.1407
#
#
#
# Elastic Compliance Matrix: (Units=1/GPa)
#
#
# Indices 1 2 3 4 5 6 
#
# 1 0.007250 -0.003546 -0.000511 0.000000 0.000000 0.000000
# 2 -0.003546 0.013942 -0.003400 0.000000 0.000000 0.000000
# 3 -0.000511 -0.003400 0.010303 0.000000 0.000000 0.000000
# 4 0.000000 0.000000 0.000000 0.031841 0.000000 0.000000
# 5 0.000000 0.000000 0.000000 0.000000 0.032814 0.000000
# 6 0.000000 0.000000 0.000000 0.000000 0.000000 0.023180
#
#
# Mechanical properties :
#
#
# Convention : Reuss Voigt Hill
#
# Bulk Modulus (GPa) = 60.31130 63.32997 61.82063
# Shear Modulus (GPa) = 35.77271 38.33516 37.05393
#
# Velocity S-wave (km/s) = 4.04203 4.18430 4.11378
# Velocity P-wave (km/s) = 7.02348 7.22968 7.12733
#
# Compressibility (1/GPa) = 0.01658064
#
# Stress axis : x y z
#
# Youngs Moduli (GPa) = 137.93488 71.72515 97.05917
#
# Poissons Ratio (x) = 0.25437 0.04957
# Poissons Ratio (y) = 0.48918 0.32999
# Poissons Ratio (z) = 0.07045 0.24386
#
# Static dielectric constant tensor:
#      x y z
#    x 4.736450 0.000000 0.000000 
#    y 0.000000 3.735480 0.000000 
#    z 0.000000 0.000000 3.817150 
# 
# 
# High freq. dielectric constant tensor:
#      x y z
#    x 1.887100 0.000000 0.000000 
#    y 0.000000 1.850350 0.000000 
#    z 0.000000 0.000000 1.865200 
# 
# From -- ./inp_files/50591.got.cif
#   From: 2010.03.12/outbox.cif.g09.slc.cpg/sg72_26_cif.got.tgz:50591.got - 2010.04.16 14:54:00.
