data_PCOD8295246
_publ_section_title
;
Structure prediction by ZEFSAII (Michael W. Deem and Ramdas Pophale) SiO2 
 PCOD8295246
Probable space group: I B A M
;
_chemical_formula_sum "Si O2"
_cell_formula_units_Z 104
_cell_length_a 20.781650
_cell_length_b 18.070962
_cell_length_c 13.493087
_cell_angle_alpha 90.000000
_cell_angle_beta 90.000000
_cell_angle_gamma 90.000000
_cell_volume 5067.253362
_symmetry_space_group_name_H-M "I B A M"
_symmetry_group_IT_number 72
_symmetry_cell_setting 'orthorhombic'
loop_
_space_group_symop_operation_xyz
x,y,z
-x,-y,z
x,-y,1/2-z
-x,y,1/2-z
-x,-y,-z
x,y,-z
-x,y,1/2+z
x,-y,1/2+z
1/2+x,1/2+y,1/2+z
1/2-x,1/2-y,1/2+z
1/2+x,1/2-y,-z
1/2-x,1/2+y,-z
1/2-x,1/2-y,1/2-z
1/2+x,1/2+y,1/2-z
1/2-x,1/2+y,z
1/2+x,1/2-y,z
loop_
_atom_site_type_symbol
_atom_site_label
_atom_site_fract_x
_atom_site_fract_y
_atom_site_fract_z
Si Si1 0.846857 0.922599 0.222897
Si Si2 0.743844 0.633495 0.891192
Si Si3 0.334645 0.775151 0.610072
Si Si4 0.892749 0.369875 0.617389
Si Si5 0.572984 0.723406 0.726150
Si Si6 0.278025 0.923760 0.614525
Si Si7 0.125698 0.500000 0.250000
O O1 0.800773 0.910523 0.316806
O O2 0.893827 0.854733 0.194469
O O3 0.797692 0.936028 0.132580
O O4 0.884331 0.000000 0.250000
O O5 0.723342 0.718107 0.893158
O O6 0.817547 0.633980 0.860058
O O7 0.735295 0.596742 0.000000
O O8 0.361610 0.790828 0.500000
O O9 0.395537 0.749778 0.672232
O O10 0.301244 0.845760 0.659946
O O11 0.908601 0.386219 0.500000
O O12 0.922328 0.288891 0.644302
O O13 0.917449 0.434060 0.697077
O O14 0.500000 0.704156 0.750000
O O15 0.291223 0.926351 0.500000
O O16 0.325998 0.983219 0.659933
#
# Coordination Sequence:
#
# PCOD8295246 Si02
#       7
#    16  16  16  16  16  16   8
#     4  11  21  36  57  89 125 156 197 248 300 361
#     4   9  17  32  57  88 118 150 186 237 304 367
#     4   9  18  34  58  84 112 150 198 247 296 356
#     4  11  22  38  62  91 124 157 197 250 304 363
#     4  11  24  41  60  80 115 166 215 254 292 344
#     4  11  20  33  59  94 126 155 185 233 306 381
#     4  12  20  36  59  96 131 154 184 236 306 378
#
# _framework density 20.52394
#
# number of rings (size 3 to 8) (size 9 to 14) (size 15 to 20)
#    0.000    1.538    3.846    1.385    0.000    7.077 
#    0.000    0.385    0.000    0.923    0.000    6.462 
#    0.000    0.000    0.000    0.000    0.000    0.000 
#
# Total GULP energy -644213.186233 kJ/mol
# GULP energy per Si atom -12388.715120 kJ/mol
# Density = 2.047723 g / cm^3
# Si number density = 20.523940 Si / 1000 Ang^3
#
#
#
# Elastic Constant Matrix: (Units=GPa)
#
#
# Indices 1 2 3 4 5 6 
#
# 1 37.2251 32.6095 -1.6722 0.0000 0.0000 0.0000
# 2 32.6095 123.1185 19.2913 0.0000 0.0000 0.0000
# 3 -1.6722 19.2913 76.9936 0.0000 0.0000 0.0000
# 4 0.0000 0.0000 0.0000 26.7671 0.0000 0.0000
# 5 0.0000 0.0000 0.0000 0.0000 10.6938 0.0000
# 6 0.0000 0.0000 0.0000 0.0000 0.0000 7.1366
#
#
#
# Elastic Compliance Matrix: (Units=1/GPa)
#
#
# Indices 1 2 3 4 5 6 
#
# 1 0.035757 -0.009984 0.003278 0.000000 0.000000 0.000000
# 2 -0.009984 0.011242 -0.003034 0.000000 0.000000 0.000000
# 3 0.003278 -0.003034 0.013819 0.000000 0.000000 0.000000
# 4 0.000000 0.000000 0.000000 0.037359 0.000000 0.000000
# 5 0.000000 0.000000 0.000000 0.000000 0.093512 0.000000
# 6 0.000000 0.000000 0.000000 0.000000 0.000000 0.140123
#
#
# Mechanical properties :
#
#
# Convention : Reuss Voigt Hill
#
# Bulk Modulus (GPa) = 24.19010 37.53271 30.86140
# Shear Modulus (GPa) = 13.69589 21.39340 17.54465
#
# Velocity S-wave (km/s) = 2.58604 3.23207 2.92693
# Velocity P-wave (km/s) = 4.55288 5.67938 5.14704
#
# Compressibility (1/GPa) = 0.04133923
#
# Stress axis : x y z
#
# Youngs Moduli (GPa) = 27.96624 88.95128 72.36209
#
# Poissons Ratio (x) = 0.88813 -0.23722
# Poissons Ratio (y) = 0.27923 0.21952
# Poissons Ratio (z) = -0.09168 0.26985
#
# Static dielectric constant tensor:
#      x y z
#    x 3.263190 0.000000 0.000000 
#    y 0.000000 4.456470 0.000000 
#    z 0.000000 0.000000 4.057670 
# 
# 
# High freq. dielectric constant tensor:
#      x y z
#    x 1.747790 0.000000 0.000000 
#    y 0.000000 1.826320 0.000000 
#    z 0.000000 0.000000 1.813970 
# 
# From -- ./inp_files/24345.got.cif
#   From: 2010.03.12/outbox.cif.g09.slc.cpg/sg72_13_cif.got.tgz:24345.got - 2010.04.16 14:54:00.
