data_PCOD8295330
_publ_section_title
;
Structure prediction by ZEFSAII (Michael W. Deem and Ramdas Pophale) SiO2 
 PCOD8295330
Probable space group: I B A M
;
_chemical_formula_sum "Si O2"
_cell_formula_units_Z 68
_cell_length_a 21.879173
_cell_length_b 16.227103
_cell_length_c 8.844773
_cell_angle_alpha 90.000000
_cell_angle_beta 90.000000
_cell_angle_gamma 90.000000
_cell_volume 3140.209234
_symmetry_space_group_name_H-M "I B A M"
_symmetry_group_IT_number 72
_symmetry_cell_setting 'orthorhombic'
loop_
_space_group_symop_operation_xyz
x,y,z
-x,-y,z
x,-y,1/2-z
-x,y,1/2-z
-x,-y,-z
x,y,-z
-x,y,1/2+z
x,-y,1/2+z
1/2+x,1/2+y,1/2+z
1/2-x,1/2-y,1/2+z
1/2+x,1/2-y,-z
1/2-x,1/2+y,-z
1/2-x,1/2-y,1/2-z
1/2+x,1/2+y,1/2-z
1/2-x,1/2+y,z
1/2+x,1/2-y,z
loop_
_atom_site_type_symbol
_atom_site_label
_atom_site_fract_x
_atom_site_fract_y
_atom_site_fract_z
Si Si1 0.408863 0.137611 0.836622
Si Si2 0.205608 0.411954 0.822703
Si Si3 0.560389 0.320448 0.326952
Si Si4 0.500000 0.000000 0.250000
Si Si5 0.828531 0.090030 0.320003
O O1 0.356834 0.137447 0.707723
O O2 0.445792 0.221924 0.816103
O O3 0.455703 0.060679 0.842850
O O4 0.375580 0.137117 0.000000
O O5 0.193867 0.500000 0.750000
O O6 0.264872 0.371680 0.742663
O O7 0.218018 0.418227 0.000000
O O8 0.500000 0.358963 0.250000
O O9 0.565151 0.351127 0.500000
O O10 0.618382 0.349701 0.232369
O O11 0.826685 0.084148 0.500000
O O12 0.838942 0.000000 0.250000
#
# Coordination Sequence:
#
# PCOD8295330 Si02
#       5
#    16  16  16   4  16
#     4  11  24  40  63  95 132 172 215 261 310 373
#     4  11  22  38  63  93 127 167 213 264 316 376
#     4  11  24  43  64  94 131 167 211 263 319 377
#     4  12  22  40  68  98 132 176 216 252 306 368
#     4  11  23  43  69  95 125 164 210 263 322 381
#
# _framework density 21.654608
#
# number of rings (size 3 to 8) (size 9 to 14) (size 15 to 20)
#    0.000    0.941    2.353    6.706    0.000    4.235 
#    0.000    2.353    0.000    0.000    0.000    0.000 
#    0.000    0.000    0.000    0.000    0.000    0.000 
#
# Total GULP energy -421511.059483 kJ/mol
# GULP energy per Si atom -12397.384102 kJ/mol
# Density = 2.160532 g / cm^3
# Si number density = 21.654608 Si / 1000 Ang^3
#
#
#
# Elastic Constant Matrix: (Units=GPa)
#
#
# Indices 1 2 3 4 5 6 
#
# 1 145.2612 24.9142 62.6375 0.0000 0.0000 0.0000
# 2 24.9142 54.5592 29.0003 0.0000 0.0000 0.0000
# 3 62.6375 29.0003 197.8724 0.0000 0.0000 0.0000
# 4 0.0000 0.0000 0.0000 26.8326 0.0000 0.0000
# 5 0.0000 0.0000 0.0000 0.0000 37.7979 0.0000
# 6 0.0000 0.0000 0.0000 0.0000 0.0000 28.6172
#
#
#
# Elastic Compliance Matrix: (Units=1/GPa)
#
#
# Indices 1 2 3 4 5 6 
#
# 1 0.008298 -0.002595 -0.002246 0.000000 0.000000 0.000000
# 2 -0.002595 0.020689 -0.002211 0.000000 0.000000 0.000000
# 3 -0.002246 -0.002211 0.006089 0.000000 0.000000 0.000000
# 4 0.000000 0.000000 0.000000 0.037268 0.000000 0.000000
# 5 0.000000 0.000000 0.000000 0.000000 0.026457 0.000000
# 6 0.000000 0.000000 0.000000 0.000000 0.000000 0.034944
#
#
# Mechanical properties :
#
#
# Convention : Reuss Voigt Hill
#
# Bulk Modulus (GPa) = 47.68449 70.08854 58.88652
# Shear Modulus (GPa) = 32.29161 37.39227 34.84194
#
# Velocity S-wave (km/s) = 3.86581 4.15994 4.01557
# Velocity P-wave (km/s) = 6.48030 7.45052 6.98228
#
# Compressibility (1/GPa) = 0.02097118
#
# Stress axis : x y z
#
# Youngs Moduli (GPa) = 120.51218 48.33525 164.23423
#
# Poissons Ratio (x) = 0.12544 0.36894
# Poissons Ratio (y) = 0.31275 0.36307
# Poissons Ratio (z) = 0.27072 0.10685
#
# Static dielectric constant tensor:
#      x y z
#    x 4.116660 0.000000 0.000000 
#    y 0.000000 3.653110 0.000000 
#    z 0.000000 0.000000 4.069370 
# 
# 
# High freq. dielectric constant tensor:
#      x y z
#    x 1.864350 0.000000 0.000000 
#    y 0.000000 1.830730 0.000000 
#    z 0.000000 0.000000 1.862590 
# 
# From -- ./inp_files/4405.got.cif
#   From: 2010.03.12/outbox.cif.g09.slc.cpg/sg72_3_cif.got.tgz:4405.got - 2010.04.16 14:54:00.
