data_PCOD8295166
_publ_section_title
;
Structure prediction by ZEFSAII (Michael W. Deem and Ramdas Pophale) SiO2 
 PCOD8295166
Probable space group: I B A M
;
_chemical_formula_sum "Si O2"
_cell_formula_units_Z 68
_cell_length_a 5.093017
_cell_length_b 31.477271
_cell_length_c 19.383870
_cell_angle_alpha 90.000000
_cell_angle_beta 90.000000
_cell_angle_gamma 90.000000
_cell_volume 3107.511091
_symmetry_space_group_name_H-M "I B A M"
_symmetry_group_IT_number 72
_symmetry_cell_setting 'orthorhombic'
loop_
_space_group_symop_operation_xyz
x,y,z
-x,-y,z
x,-y,1/2-z
-x,y,1/2-z
-x,-y,-z
x,y,-z
-x,y,1/2+z
x,-y,1/2+z
1/2+x,1/2+y,1/2+z
1/2-x,1/2-y,1/2+z
1/2+x,1/2-y,-z
1/2-x,1/2+y,-z
1/2-x,1/2-y,1/2-z
1/2+x,1/2+y,1/2-z
1/2-x,1/2+y,z
1/2+x,1/2-y,z
loop_
_atom_site_type_symbol
_atom_site_label
_atom_site_fract_x
_atom_site_fract_y
_atom_site_fract_z
Si Si1 0.229326 0.721185 0.078462
Si Si2 0.000000 0.000000 0.250000
Si Si3 0.233303 0.161938 0.206794
Si Si4 0.889177 0.928483 0.845344
Si Si5 0.914775 0.451831 0.577666
O O1 0.479798 0.749904 0.092241
O O2 0.225818 0.682483 0.131848
O O3 0.229267 0.703007 0.000000
O O4 0.182208 0.968700 0.296210
O O5 0.500000 0.163480 0.250000
O O6 0.126131 0.114417 0.197567
O O7 0.000000 0.185539 0.250000
O O8 0.674204 0.924627 0.905799
O O9 0.180740 0.936575 0.873598
O O10 0.822486 0.443278 0.500000
O O11 0.000000 0.500000 0.588967
#
# Coordination Sequence:
#
# PCOD8295166 Si02
#       5
#    16   4  16  16  16
#     4  10  23  45  72 101 137 183 228 273 343 429
#     4  12  24  42  66  86 132 186 228 264 324 410
#     4  12  26  43  67 104 141 174 229 290 343 405
#     4  12  25  41  65  93 128 178 222 275 336 395
#     4  11  23  41  62  89 120 163 223 281 338 398
#
# _framework density 21.882463000000001
#
# number of rings (size 3 to 8) (size 9 to 14) (size 15 to 20)
#    0.000    0.706    3.529    3.529    0.000    7.529 
#    0.000    2.353    0.000    0.000    0.000    0.000 
#    0.000    0.000    0.000    0.000    0.000    0.000 
#
# Total GULP energy -421544.952228 kJ/mol
# GULP energy per Si atom -12398.380948 kJ/mol
# Density = 2.183266 g / cm^3
# Si number density = 21.882463 Si / 1000 Ang^3
#
#
#
# Elastic Constant Matrix: (Units=GPa)
#
#
# Indices 1 2 3 4 5 6 
#
# 1 169.4384 40.8611 62.9283 0.0000 0.0000 0.0000
# 2 40.8611 101.7800 73.6765 0.0000 0.0000 0.0000
# 3 62.9283 73.6765 151.4782 0.0000 0.0000 0.0000
# 4 0.0000 0.0000 0.0000 43.5028 0.0000 0.0000
# 5 0.0000 0.0000 0.0000 0.0000 26.4701 0.0000
# 6 0.0000 0.0000 0.0000 0.0000 0.0000 17.5358
#
#
#
# Elastic Compliance Matrix: (Units=1/GPa)
#
#
# Indices 1 2 3 4 5 6 
#
# 1 0.007057 -0.001097 -0.002398 0.000000 0.000000 0.000000
# 2 -0.001097 0.015335 -0.007003 0.000000 0.000000 0.000000
# 3 -0.002398 -0.007003 0.011004 0.000000 0.000000 0.000000
# 4 0.000000 0.000000 0.000000 0.022987 0.000000 0.000000
# 5 0.000000 0.000000 0.000000 0.000000 0.037779 0.000000
# 6 0.000000 0.000000 0.000000 0.000000 0.000000 0.057026
#
#
# Mechanical properties :
#
#
# Convention : Reuss Voigt Hill
#
# Bulk Modulus (GPa) = 80.64773 86.40316 83.52544
# Shear Modulus (GPa) = 28.35803 33.85043 31.10423
#
# Velocity S-wave (km/s) = 3.60380 3.93736 3.77427
# Velocity P-wave (km/s) = 7.36556 7.76152 7.56613
#
# Compressibility (1/GPa) = 0.01239961
#
# Stress axis : x y z
#
# Youngs Moduli (GPa) = 141.70191 65.21115 90.87750
#
# Poissons Ratio (x) = 0.07156 0.21792
# Poissons Ratio (y) = 0.15549 0.63639
# Poissons Ratio (z) = 0.33980 0.45666
#
# Static dielectric constant tensor:
#      x y z
#    x 4.423950 0.000000 0.000000 
#    y 0.000000 3.785940 0.000000 
#    z 0.000000 0.000000 4.219700 
# 
# 
# High freq. dielectric constant tensor:
#      x y z
#    x 1.873710 0.000000 0.000000 
#    y 0.000000 1.840440 0.000000 
#    z 0.000000 0.000000 1.881360 
# 
# From -- ./inp_files/34942.got.cif
#   From: 2010.03.12/outbox.cif.g09.slc.cpg/sg72_18_cif.got.tgz:34942.got - 2010.04.16 14:54:00.
