data_PCOD8295787
_publ_section_title
;
Structure prediction by ZEFSAII (Michael W. Deem and Ramdas Pophale) SiO2 
 PCOD8295787
Probable space group: I B C A 
;
_chemical_formula_sum "Si O2"
_cell_formula_units_Z 120
_cell_length_a 17.683909
_cell_length_b 16.639076
_cell_length_c 19.962478
_cell_angle_alpha 90.000000
_cell_angle_beta 90.000000
_cell_angle_gamma 90.000000
_cell_volume 5873.837497
_symmetry_space_group_name_H-M "I B C A "
_symmetry_group_IT_number 73
_symmetry_cell_setting 'orthorhombic'
loop_
_space_group_symop_operation_xyz
x,y,z
-x,1/2-y,z
x,-y,1/2-z
1/2-x,y,-z
-x,-y,-z
x,1/2+y,-z
-x,y,1/2+z
1/2+x,-y,z
1/2+x,1/2+y,1/2+z
1/2-x,-y,1/2+z
1/2+x,1/2-y,-z
-x,1/2+y,1/2-z
1/2-x,1/2-y,1/2-z
1/2+x,y,1/2-z
1/2-x,1/2+y,z
x,1/2-y,1/2+z
loop_
_atom_site_type_symbol
_atom_site_label
_atom_site_fract_x
_atom_site_fract_y
_atom_site_fract_z
Si Si1 0.398658 0.091981 0.877123
Si Si2 0.572661 0.426607 0.370849
Si Si3 0.157906 0.000000 0.750000
Si Si4 0.917497 0.280392 0.937476
Si Si5 0.217053 0.726812 0.649132
Si Si6 0.635659 0.731561 0.077394
Si Si7 0.081143 0.462486 0.485189
Si Si8 0.220017 0.124959 0.226651
O O1 0.483051 0.060966 0.864999
O O2 0.394527 0.185642 0.892917
O O3 0.348755 0.077327 0.810466
O O4 0.370799 0.044088 0.945049
O O5 0.605199 0.454723 0.301345
O O6 0.587446 0.333554 0.382573
O O7 0.615298 0.477469 0.429780
O O8 0.209350 0.932815 0.715828
O O9 0.862616 0.262229 0.875036
O O10 0.923379 0.374465 0.952485
O O11 0.000000 0.250000 0.917134
O O12 0.884292 0.228880 0.999042
O O13 0.274842 0.711678 0.587198
O O14 0.203086 0.646579 0.694856
O O15 0.263065 0.791594 0.691519
O O16 0.000000 0.500000 0.500000
#
# Coordination Sequence:
#
# PCOD8295787 Si02
#       8
#    16  16   8  16  16  16  16  16
#     4   9  20  39  66  89 115 162 210 261 306 376
#     4  11  21  39  62  94 119 163 204 262 320 375
#     4  12  24  40  58  86 134 164 204 256 322 388
#     4  11  21  37  61  95 124 158 208 267 310 366
#     4  10  21  41  61  85 121 169 208 255 306 378
#     4  10  19  39  66  88 119 159 212 251 315 377
#     4   9  19  38  61  91 127 154 199 263 321 364
#     4  10  22  43  59  83 124 169 209 250 313 388
#
# _framework density 20.429573999999999
#
# number of rings (size 3 to 8) (size 9 to 14) (size 15 to 20)
#    0.000    1.867    1.333    4.000    0.000    0.533 
#   12.000    2.000    0.000    0.000    0.000    0.000 
#    0.000    0.000    0.000    0.000    0.000    0.000 
#
# Total GULP energy -743533.445340 kJ/mol
# GULP energy per Si atom -12392.224089 kJ/mol
# Density = 2.038308 g / cm^3
# Si number density = 20.429574 Si / 1000 Ang^3
#
#
#
# Elastic Constant Matrix: (Units=GPa)
#
#
# Indices 1 2 3 4 5 6 
#
# 1 112.3618 20.7802 50.5495 0.0000 0.0000 0.0000
# 2 20.7802 56.8815 36.1893 0.0000 0.0000 0.0000
# 3 50.5495 36.1893 92.5399 0.0000 0.0000 0.0000
# 4 0.0000 0.0000 0.0000 22.9599 0.0000 0.0000
# 5 0.0000 0.0000 0.0000 0.0000 79.8208 0.0000
# 6 0.0000 0.0000 0.0000 0.0000 0.0000 24.8319
#
#
#
# Elastic Compliance Matrix: (Units=1/GPa)
#
#
# Indices 1 2 3 4 5 6 
#
# 1 0.011803 -0.000280 -0.006338 0.000000 0.000000 0.000000
# 2 -0.000280 0.023410 -0.009002 0.000000 0.000000 0.000000
# 3 -0.006338 -0.009002 0.017789 0.000000 0.000000 0.000000
# 4 0.000000 0.000000 0.000000 0.043554 0.000000 0.000000
# 5 0.000000 0.000000 0.000000 0.000000 0.012528 0.000000
# 6 0.000000 0.000000 0.000000 0.000000 0.000000 0.040271
#
#
# Mechanical properties :
#
#
# Convention : Reuss Voigt Hill
#
# Bulk Modulus (GPa) = 45.95132 52.98015 49.46574
# Shear Modulus (GPa) = 26.61730 35.80679 31.21204
#
# Velocity S-wave (km/s) = 3.61346 4.19106 3.91293
# Velocity P-wave (km/s) = 6.32067 7.02918 6.68432
#
# Compressibility (1/GPa) = 0.02176216
#
# Stress axis : x y z
#
# Youngs Moduli (GPa) = 84.72545 42.71699 56.21564
#
# Poissons Ratio (x) = 0.01194 0.35629
# Poissons Ratio (y) = 0.02368 0.50606
# Poissons Ratio (z) = 0.53698 0.38454
#
# Static dielectric constant tensor:
#      x y z
#    x 3.626380 0.000000 0.000000 
#    y 0.000000 1.559730 0.000000 
#    z 0.000000 0.000000 4.222940 
# 
# 
# High freq. dielectric constant tensor:
#      x y z
#    x 1.785180 0.000000 0.000000 
#    y 0.000000 1.799520 0.000000 
#    z 0.000000 0.000000 1.801590 
# 
# From -- ./inp_files/26654.got.cif
#   From: 2010.03.12/outbox.cif.g09.slc.cpg/sg73_14_cif.got.tgz:26654.got - 2010.04.16 15:25:48.
