data_PCOD8295555
_publ_section_title
;
Structure prediction by ZEFSAII (Michael W. Deem and Ramdas Pophale) SiO2 
 PCOD8295555
Probable space group: I B C A 
;
_chemical_formula_sum "Si O2"
_cell_formula_units_Z 112
_cell_length_a 17.880464
_cell_length_b 17.594533
_cell_length_c 19.631950
_cell_angle_alpha 90.000000
_cell_angle_beta 90.000000
_cell_angle_gamma 90.000000
_cell_volume 6176.180332
_symmetry_space_group_name_H-M "I B C A "
_symmetry_group_IT_number 73
_symmetry_cell_setting 'orthorhombic'
loop_
_space_group_symop_operation_xyz
x,y,z
-x,1/2-y,z
x,-y,1/2-z
1/2-x,y,-z
-x,-y,-z
x,1/2+y,-z
-x,y,1/2+z
1/2+x,-y,z
1/2+x,1/2+y,1/2+z
1/2-x,-y,1/2+z
1/2+x,1/2-y,-z
-x,1/2+y,1/2-z
1/2-x,1/2-y,1/2-z
1/2+x,y,1/2-z
1/2-x,1/2+y,z
x,1/2-y,1/2+z
loop_
_atom_site_type_symbol
_atom_site_label
_atom_site_fract_x
_atom_site_fract_y
_atom_site_fract_z
Si Si1 0.082903 0.957233 0.182078
Si Si2 0.426055 0.796464 0.540469
Si Si3 0.987946 0.589710 0.871141
Si Si4 0.316032 0.864590 0.906113
Si Si5 0.977190 0.165918 0.267705
Si Si6 0.914631 0.779916 0.107950
Si Si7 0.847077 0.647147 0.937713
O O1 0.152735 0.938366 0.133635
O O2 0.048550 0.876470 0.201150
O O3 0.111234 0.000000 0.250000
O O4 0.020141 0.006088 0.141947
O O5 0.500000 0.750000 0.524795
O O6 0.443094 0.863580 0.593901
O O7 0.400338 0.824089 0.464208
O O8 0.366868 0.736749 0.571439
O O9 0.914811 0.590250 0.918381
O O10 0.954548 0.624293 0.801549
O O11 0.353874 0.786190 0.882217
O O12 0.227013 0.864276 0.892408
O O13 0.332244 0.875274 0.985126
O O14 0.090022 0.334441 0.324826
O O15 0.000000 0.250000 0.245135
O O16 0.000000 0.750000 0.112926
#
# Coordination Sequence:
#
# PCOD8295555 Si02
#       7
#    16  16  16  16  16  16  16
#     4  10  21  34  53  79 110 147 182 225 276 326
#     4   8  15  30  51  78 101 131 176 225 261 312
#     4  10  20  33  53  80 111 139 177 226 280 324
#     4  10  18  35  56  77 106 140 183 224 275 325
#     4  10  17  31  54  77 104 135 183 225 260 315
#     4   9  15  28  54  77  96 131 179 219 255 313
#     4   9  19  33  57  79 105 141 181 226 274 326
#
# _framework density 18.134184999999999
#
# number of rings (size 3 to 8) (size 9 to 14) (size 15 to 20)
#    0.000    2.571    2.857    2.143    0.000    0.571 
#    0.000    2.857    3.143    1.714    0.000    0.000 
#    0.000    0.000    0.000    0.000    0.000    0.000 
#
# Total GULP energy -693736.992697 kJ/mol
# GULP energy per Si atom -12388.160584 kJ/mol
# Density = 1.809291 g / cm^3
# Si number density = 18.134185 Si / 1000 Ang^3
#
#
#
# Elastic Constant Matrix: (Units=GPa)
#
#
# Indices 1 2 3 4 5 6 
#
# 1 104.4581 41.8132 34.7354 0.0000 0.0000 0.0000
# 2 41.8132 71.3001 31.9207 0.0000 0.0000 0.0000
# 3 34.7354 31.9207 87.5826 0.0000 0.0000 0.0000
# 4 0.0000 0.0000 0.0000 17.1331 0.0000 0.0000
# 5 0.0000 0.0000 0.0000 0.0000 21.0348 0.0000
# 6 0.0000 0.0000 0.0000 0.0000 0.0000 22.8423
#
#
#
# Elastic Compliance Matrix: (Units=1/GPa)
#
#
# Indices 1 2 3 4 5 6 
#
# 1 0.013083 -0.006392 -0.002859 0.000000 0.000000 0.000000
# 2 -0.006392 0.019883 -0.004712 0.000000 0.000000 0.000000
# 3 -0.002859 -0.004712 0.014269 0.000000 0.000000 0.000000
# 4 0.000000 0.000000 0.000000 0.058367 0.000000 0.000000
# 5 0.000000 0.000000 0.000000 0.000000 0.047540 0.000000
# 6 0.000000 0.000000 0.000000 0.000000 0.000000 0.043778
#
#
# Mechanical properties :
#
#
# Convention : Reuss Voigt Hill
#
# Bulk Modulus (GPa) = 51.78835 53.36437 52.57636
# Shear Modulus (GPa) = 21.61866 22.52680 22.07273
#
# Velocity S-wave (km/s) = 3.45650 3.52835 3.49261
# Velocity P-wave (km/s) = 6.67460 6.78899 6.73204
#
# Compressibility (1/GPa) = 0.01930936
#
# Stress axis : x y z
#
# Youngs Moduli (GPa) = 76.43736 50.29367 70.08302
#
# Poissons Ratio (x) = 0.32149 0.20036
# Poissons Ratio (y) = 0.48861 0.33020
# Poissons Ratio (z) = 0.21852 0.23696
#
# Static dielectric constant tensor:
#      x y z
#    x 3.451990 0.000000 0.000000 
#    y 0.000000 3.158100 0.000000 
#    z 0.000000 0.000000 3.777190 
# 
# 
# High freq. dielectric constant tensor:
#      x y z
#    x 1.669060 0.000000 0.000000 
#    y 0.000000 1.675550 0.000000 
#    z 0.000000 0.000000 1.720230 
# 
# From -- ./inp_files/26701.got.cif
#   From: 2010.03.12/outbox.cif.g09.slc.cpg/sg73_14_cif.got.tgz:26701.got - 2010.04.16 15:25:48.
