data_PCOD8295269
_publ_section_title
;
Structure prediction by ZEFSAII (Michael W. Deem and Ramdas Pophale) SiO2 
 PCOD8295269
Probable space group: I B A M
;
_chemical_formula_sum "Si O2"
_cell_formula_units_Z 80
_cell_length_a 8.627717
_cell_length_b 22.950523
_cell_length_c 20.121086
_cell_angle_alpha 90.000000
_cell_angle_beta 90.000000
_cell_angle_gamma 90.000000
_cell_volume 3984.188663
_symmetry_space_group_name_H-M "I B A M"
_symmetry_group_IT_number 72
_symmetry_cell_setting 'orthorhombic'
loop_
_space_group_symop_operation_xyz
x,y,z
-x,-y,z
x,-y,1/2-z
-x,y,1/2-z
-x,-y,-z
x,y,-z
-x,y,1/2+z
x,-y,1/2+z
1/2+x,1/2+y,1/2+z
1/2-x,1/2-y,1/2+z
1/2+x,1/2-y,-z
1/2-x,1/2+y,-z
1/2-x,1/2-y,1/2-z
1/2+x,1/2+y,1/2-z
1/2-x,1/2+y,z
1/2+x,1/2-y,z
loop_
_atom_site_type_symbol
_atom_site_label
_atom_site_fract_x
_atom_site_fract_y
_atom_site_fract_z
Si Si1 0.683903 0.384017 0.895420
Si Si2 0.823404 0.894580 0.383538
Si Si3 0.818529 0.300701 0.000000
Si Si4 0.678941 0.176189 0.000000
Si Si5 0.682620 0.433525 0.753775
Si Si6 0.331590 0.998261 0.427743
O O1 0.499284 0.378983 0.900278
O O2 0.736827 0.398474 0.819720
O O3 0.758221 0.435148 0.938616
O O4 0.749050 0.325975 0.930612
O O5 0.711698 0.859224 0.432255
O O6 0.773434 0.888402 0.306093
O O7 0.798839 0.963994 0.391312
O O8 0.786271 0.232504 0.000000
O O9 0.001047 0.307763 0.000000
O O10 0.755279 0.500000 0.750000
O O11 0.500000 0.441687 0.750000
O O12 0.360084 0.026852 0.500000
O O13 0.500000 0.000000 0.390733
#
# Coordination Sequence:
#
# PCOD8295269 Si02
#       6
#    16  16   8   8  16  16
#     4  11  21  37  62  89 121 160 199 243 299 353
#     4  11  21  37  62  89 121 160 199 243 299 353
#     4  12  26  45  64  87 116 152 206 256 300 352
#     4  12  26  45  64  87 116 152 206 256 300 352
#     4   9  18  34  57  92 129 160 195 237 288 360
#     4  11  21  32  51  86 127 159 194 244 297 354
#
# _framework density 20.079370999999998
#
# number of rings (size 3 to 8) (size 9 to 14) (size 15 to 20)
#    0.000    1.200    4.000    3.600    0.000    0.800 
#    0.000    6.000    0.000    0.000    0.000    0.000 
#    0.000    0.000    0.000    0.000    0.000    0.000 
#
# Total GULP energy -495532.966955 kJ/mol
# GULP energy per Si atom -12388.324174 kJ/mol
# Density = 2.003367 g / cm^3
# Si number density = 20.079371 Si / 1000 Ang^3
#
#
#
# Elastic Constant Matrix: (Units=GPa)
#
#
# Indices 1 2 3 4 5 6 
#
# 1 87.9009 12.7425 33.6069 0.0000 0.0000 0.0000
# 2 12.7425 69.9081 38.9756 0.0000 0.0000 0.0000
# 3 33.6069 38.9756 151.0152 0.0000 0.0000 0.0000
# 4 0.0000 0.0000 0.0000 -4.5588 0.0000 0.0000
# 5 0.0000 0.0000 0.0000 0.0000 16.6847 0.0000
# 6 0.0000 0.0000 0.0000 0.0000 0.0000 32.6965
#
#
#
# Elastic Compliance Matrix: (Units=1/GPa)
#
#
# Indices 1 2 3 4 5 6 
#
# 1 0.012477 -0.000848 -0.002558 0.000000 0.000000 0.000000
# 2 -0.000848 0.016766 -0.004138 0.000000 0.000000 0.000000
# 3 -0.002558 -0.004138 0.008259 0.000000 0.000000 0.000000
# 4 0.000000 0.000000 0.000000 -0.219356 0.000000 0.000000
# 5 0.000000 0.000000 0.000000 0.000000 0.059935 0.000000
# 6 0.000000 0.000000 0.000000 0.000000 0.000000 0.030584
#
#
# Mechanical properties :
#
#
# Convention : Reuss Voigt Hill
#
# Bulk Modulus (GPa) = 44.61529 53.27491 48.94510
# Shear Modulus (GPa) = -72.70265 23.86442 -24.41912
#
# Velocity S-wave (km/s) = -6.02381 3.45121 -3.49109
# Velocity P-wave (km/s) = 5.11018 6.51697 2.85980
#
# Compressibility (1/GPa) = 0.02241384
#
# Stress axis : x y z
#
# Youngs Moduli (GPa) = 80.14539 59.64305 121.07777
#
# Poissons Ratio (x) = 0.05059 0.30969
# Poissons Ratio (y) = 0.06799 0.50108
# Poissons Ratio (z) = 0.20499 0.24683
#
# Static dielectric constant tensor:
#      x y z
#    x 3.513040 0.000000 0.000000 
#    y 0.000000 3.412150 0.000000 
#    z 0.000000 0.000000 3.955670 
# 
# 
# High freq. dielectric constant tensor:
#      x y z
#    x 1.778370 0.000000 0.000000 
#    y 0.000000 1.752530 0.000000 
#    z 0.000000 0.000000 1.799240 
# 
# From -- ./inp_files/35774.got.cif
#   From: 2010.03.12/outbox.cif.g09.slc.cpg/sg72_18_cif.got.tgz:35774.got - 2010.04.16 14:54:00.
