data_PCOD8295806
_publ_section_title
;
Structure prediction by ZEFSAII (Michael W. Deem and Ramdas Pophale) SiO2 
 PCOD8295806
Probable space group: I B C A 
;
_chemical_formula_sum "Si O2"
_cell_formula_units_Z 80
_cell_length_a 8.923193
_cell_length_b 20.649584
_cell_length_c 21.087634
_cell_angle_alpha 90.000000
_cell_angle_beta 90.000000
_cell_angle_gamma 90.000000
_cell_volume 3885.612152
_symmetry_space_group_name_H-M "I B C A "
_symmetry_group_IT_number 73
_symmetry_cell_setting 'orthorhombic'
loop_
_space_group_symop_operation_xyz
x,y,z
-x,1/2-y,z
x,-y,1/2-z
1/2-x,y,-z
-x,-y,-z
x,1/2+y,-z
-x,y,1/2+z
1/2+x,-y,z
1/2+x,1/2+y,1/2+z
1/2-x,-y,1/2+z
1/2+x,1/2-y,-z
-x,1/2+y,1/2-z
1/2-x,1/2-y,1/2-z
1/2+x,y,1/2-z
1/2-x,1/2+y,z
x,1/2-y,1/2+z
loop_
_atom_site_type_symbol
_atom_site_label
_atom_site_fract_x
_atom_site_fract_y
_atom_site_fract_z
Si Si1 0.510632 0.446313 0.422439
Si Si2 0.425546 0.316501 0.581614
Si Si3 0.250000 0.002972 0.000000
Si Si4 0.924674 0.314395 0.064980
Si Si5 0.224444 0.000000 0.250000
Si Si6 0.015702 0.940868 0.669874
O O1 0.680772 0.457035 0.445929
O O2 0.384259 0.450239 0.477946
O O3 0.497058 0.373784 0.395218
O O4 0.464535 0.499010 0.372321
O O5 0.500000 0.250000 0.607487
O O6 0.248400 0.308590 0.580767
O O7 0.473307 0.327239 0.508492
O O8 0.474946 0.375487 0.627967
O O9 0.000000 0.250000 0.091258
O O10 0.325278 0.958706 0.298902
O O11 0.120832 0.942278 0.220259
#
# Coordination Sequence:
#
# PCOD8295806 Si02
#       6
#    16  16   8  16   8  16
#     4  11  20  34  56  84 118 155 188 228 282 342
#     4  10  21  38  58  83 119 155 183 222 281 346
#     4  10  20  30  52  88 116 144 192 226 266 352
#     4  10  21  34  53  88 125 151 182 219 268 351
#     4  10  24  40  60  84 106 140 202 262 290 318
#     4  11  22  40  61  83 112 149 195 246 292 329
#
# _framework density 20.588778000000001
#
# number of rings (size 3 to 8) (size 9 to 14) (size 15 to 20)
#    0.000    1.600    0.000    7.200    0.000    6.400 
#    0.000    1.000    0.000    4.800    0.000    0.000 
#    0.000    0.000    0.000    0.000    0.000    0.000 
#
# Total GULP energy -495677.829943 kJ/mol
# GULP energy per Si atom -12391.945749 kJ/mol
# Density = 2.054192 g / cm^3
# Si number density = 20.588778 Si / 1000 Ang^3
#
#
#
# Elastic Constant Matrix: (Units=GPa)
#
#
# Indices 1 2 3 4 5 6 
#
# 1 84.7240 50.6356 24.1106 0.0000 0.0000 0.0000
# 2 50.6356 197.0533 44.6300 0.0000 0.0000 0.0000
# 3 24.1106 44.6300 54.4016 0.0000 0.0000 0.0000
# 4 0.0000 0.0000 0.0000 25.8376 0.0000 0.0000
# 5 0.0000 0.0000 0.0000 0.0000 16.8671 0.0000
# 6 0.0000 0.0000 0.0000 0.0000 0.0000 26.0077
#
#
#
# Elastic Compliance Matrix: (Units=1/GPa)
#
#
# Indices 1 2 3 4 5 6 
#
# 1 0.014683 -0.002824 -0.004191 0.000000 0.000000 0.000000
# 2 -0.002824 0.006776 -0.004307 0.000000 0.000000 0.000000
# 3 -0.004191 -0.004307 0.023773 0.000000 0.000000 0.000000
# 4 0.000000 0.000000 0.000000 0.038703 0.000000 0.000000
# 5 0.000000 0.000000 0.000000 0.000000 0.059287 0.000000
# 6 0.000000 0.000000 0.000000 0.000000 0.000000 0.038450
#
#
# Mechanical properties :
#
#
# Convention : Reuss Voigt Hill
#
# Bulk Modulus (GPa) = 44.27155 63.88125 54.07640
# Shear Modulus (GPa) = 23.60199 28.19597 25.89898
#
# Velocity S-wave (km/s) = 3.38946 3.70467 3.55056
# Velocity P-wave (km/s) = 6.07185 7.02809 6.56739
#
# Compressibility (1/GPa) = 0.02258787
#
# Stress axis : x y z
#
# Youngs Moduli (GPa) = 68.10407 147.58055 42.06478
#
# Poissons Ratio (x) = 0.41675 0.17629
# Poissons Ratio (y) = 0.19232 0.18119
# Poissons Ratio (z) = 0.28542 0.63568
#
# Static dielectric constant tensor:
#      x y z
#    x 3.834140 0.000000 0.000000 
#    y 0.000000 3.881350 0.000000 
#    z 0.000000 0.000000 3.697090 
# 
# 
# High freq. dielectric constant tensor:
#      x y z
#    x 1.824370 0.000000 0.000000 
#    y 0.000000 1.803700 0.000000 
#    z 0.000000 0.000000 1.770690 
# 
# From -- ./inp_files/24761.got.cif
#   From: 2010.03.12/outbox.cif.g09.slc.cpg/sg73_13_cif.got.tgz:24761.got - 2010.04.16 15:25:48.
