data_PCOD8295382
_publ_section_title
;
Structure prediction by ZEFSAII (Michael W. Deem and Ramdas Pophale) SiO2 
 PCOD8295382
Probable space group: I B A M
;
_chemical_formula_sum "Si O2"
_cell_formula_units_Z 52
_cell_length_a 4.863522
_cell_length_b 28.269250
_cell_length_c 16.881990
_cell_angle_alpha 90.000000
_cell_angle_beta 90.000000
_cell_angle_gamma 90.000000
_cell_volume 2321.073055
_symmetry_space_group_name_H-M "I B A M"
_symmetry_group_IT_number 72
_symmetry_cell_setting 'orthorhombic'
loop_
_space_group_symop_operation_xyz
x,y,z
-x,-y,z
x,-y,1/2-z
-x,y,1/2-z
-x,-y,-z
x,y,-z
-x,y,1/2+z
x,-y,1/2+z
1/2+x,1/2+y,1/2+z
1/2-x,1/2-y,1/2+z
1/2+x,1/2-y,-z
1/2-x,1/2+y,-z
1/2-x,1/2-y,1/2-z
1/2+x,1/2+y,1/2-z
1/2-x,1/2+y,z
1/2+x,1/2-y,z
loop_
_atom_site_type_symbol
_atom_site_label
_atom_site_fract_x
_atom_site_fract_y
_atom_site_fract_z
Si Si1 0.820313 0.119129 0.592270
Si Si2 0.626414 0.779012 0.905972
Si Si3 0.657290 0.919769 0.326657
Si Si4 0.500000 0.500000 0.750000
O O1 0.900174 0.119081 0.500000
O O2 0.689668 0.168181 0.623437
O O3 0.590164 0.078061 0.608310
O O4 0.098249 0.113231 0.642251
O O5 0.335576 0.760995 0.873989
O O6 0.639065 0.780292 0.000000
O O7 0.500000 0.898358 0.250000
O O8 0.796339 0.970059 0.306210
#
# Coordination Sequence:
#
# PCOD8295382 Si02
#       4
#    16  16  16   4
#     4  11  23  40  67 104 132 161 214 276 319 353
#     4   9  17  32  57  90 130 171 207 247 303 374
#     4  12  24  44  70  91 126 172 220 254 320 405
#     4  12  26  48  72  88 114 176 232 244 314 436
#
# _framework density 22.40343
#
# number of rings (size 3 to 8) (size 9 to 14) (size 15 to 20)
#    0.000    1.231    3.077    3.231    0.000    4.923 
#    0.000    4.615    0.000   18.462    0.000    0.000 
#    0.000    0.000    0.000    0.000    0.000    0.000 
#
# Total GULP energy -322145.874784 kJ/mol
# GULP energy per Si atom -12390.225953 kJ/mol
# Density = 2.235244 g / cm^3
# Si number density = 22.403430 Si / 1000 Ang^3
#
#
#
# Elastic Constant Matrix: (Units=GPa)
#
#
# Indices 1 2 3 4 5 6 
#
# 1 126.0245 24.2909 28.2807 0.0000 0.0000 0.0000
# 2 24.2909 76.5569 45.0527 0.0000 0.0000 0.0000
# 3 28.2807 45.0527 57.1939 0.0000 0.0000 0.0000
# 4 0.0000 0.0000 0.0000 12.9213 0.0000 0.0000
# 5 0.0000 0.0000 0.0000 0.0000 48.8077 0.0000
# 6 0.0000 0.0000 0.0000 0.0000 0.0000 32.4423
#
#
#
# Elastic Compliance Matrix: (Units=1/GPa)
#
#
# Indices 1 2 3 4 5 6 
#
# 1 0.008933 -0.000438 -0.004072 0.000000 0.000000 0.000000
# 2 -0.000438 0.024371 -0.018981 0.000000 0.000000 0.000000
# 3 -0.004072 -0.018981 0.034450 0.000000 0.000000 0.000000
# 4 0.000000 0.000000 0.000000 0.077391 0.000000 0.000000
# 5 0.000000 0.000000 0.000000 0.000000 0.020489 0.000000
# 6 0.000000 0.000000 0.000000 0.000000 0.000000 0.030824
#
#
# Mechanical properties :
#
#
# Convention : Reuss Voigt Hill
#
# Bulk Modulus (GPa) = 48.14269 50.55823 49.35046
# Shear Modulus (GPa) = 19.97087 29.64434 24.80760
#
# Velocity S-wave (km/s) = 2.98890 3.64154 3.33124
# Velocity P-wave (km/s) = 5.78334 6.34801 6.07224
#
# Compressibility (1/GPa) = 0.02077159
#
# Stress axis : x y z
#
# Youngs Moduli (GPa) = 111.94181 41.03179 29.02778
#
# Poissons Ratio (x) = 0.01797 0.11821
# Poissons Ratio (y) = 0.04903 0.55098
# Poissons Ratio (z) = 0.45585 0.77883
#
# Static dielectric constant tensor:
#      x y z
#    x 4.534360 0.000000 0.000000 
#    y 0.000000 4.004250 0.000000 
#    z 0.000000 0.000000 3.891290 
# 
# 
# High freq. dielectric constant tensor:
#      x y z
#    x 1.916700 0.000000 0.000000 
#    y 0.000000 1.868830 0.000000 
#    z 0.000000 0.000000 1.849470 
# 
# From -- ./inp_files/26860.got.cif
#   From: 2010.03.12/outbox.cif.g09.slc.cpg/sg72_14_cif.got.tgz:26860.got - 2010.04.16 14:54:00.
