data_PCOD8295976
_publ_section_title
;
Structure prediction by ZEFSAII (Michael W. Deem and Ramdas Pophale) SiO2 
 PCOD8295976
Probable space group: I B C A 
;
_chemical_formula_sum "Si O2"
_cell_formula_units_Z 56
_cell_length_a 20.418700
_cell_length_b 9.030235
_cell_length_c 12.878243
_cell_angle_alpha 90.000000
_cell_angle_beta 90.000000
_cell_angle_gamma 90.000000
_cell_volume 2374.563327
_symmetry_space_group_name_H-M "I B C A "
_symmetry_group_IT_number 73
_symmetry_cell_setting 'orthorhombic'
loop_
_space_group_symop_operation_xyz
x,y,z
-x,1/2-y,z
x,-y,1/2-z
1/2-x,y,-z
-x,-y,-z
x,1/2+y,-z
-x,y,1/2+z
1/2+x,-y,z
1/2+x,1/2+y,1/2+z
1/2-x,-y,1/2+z
1/2+x,1/2-y,-z
-x,1/2+y,1/2-z
1/2-x,1/2-y,1/2-z
1/2+x,y,1/2-z
1/2-x,1/2+y,z
x,1/2-y,1/2+z
loop_
_atom_site_type_symbol
_atom_site_label
_atom_site_fract_x
_atom_site_fract_y
_atom_site_fract_z
Si Si1 0.835572 0.148028 0.532229
Si Si2 0.750000 0.102857 0.000000
Si Si3 0.684649 0.332566 0.213773
Si Si4 0.935192 0.154268 0.693792
O O1 0.797553 0.296512 0.574448
O O2 0.827464 0.163196 0.409748
O O3 0.909660 0.132540 0.574237
O O4 0.795508 0.002795 0.572506
O O5 0.682913 0.500000 0.250000
O O6 0.750000 0.250000 0.250000
O O7 0.622827 0.239631 0.251574
O O8 0.000000 0.250000 0.691313
O O9 0.950834 0.000000 0.750000
#
# Coordination Sequence:
#
# PCOD8295976 Si02
#       4
#    16   8  16  16
#     4  11  22  42  69 102 142 183 228 295 367 429
#     4  10  20  38  68 102 134 170 224 284 352 426
#     4  12  24  43  75 111 144 185 238 299 362 437
#     4  12  28  48  69 100 142 193 249 306 366 435
#
# _framework density 23.583283000000002
#
# number of rings (size 3 to 8) (size 9 to 14) (size 15 to 20)
#    0.000    0.571    0.000   10.286    0.000    1.143 
#    0.000    8.571    0.000    0.000    0.000    0.000 
#    0.000    0.000    0.000    0.000    0.000    0.000 
#
# Total GULP energy -346908.196792 kJ/mol
# GULP energy per Si atom -12389.578457 kJ/mol
# Density = 2.352961 g / cm^3
# Si number density = 23.583283 Si / 1000 Ang^3
#
#
#
# Elastic Constant Matrix: (Units=GPa)
#
#
# Indices 1 2 3 4 5 6 
#
# 1 220.9929 100.3524 73.3669 0.0000 0.0000 0.0000
# 2 100.3524 214.1759 48.8279 0.0000 0.0000 0.0000
# 3 73.3669 48.8279 143.2096 0.0000 0.0000 0.0000
# 4 0.0000 0.0000 0.0000 22.4806 0.0000 0.0000
# 5 0.0000 0.0000 0.0000 0.0000 35.4313 0.0000
# 6 0.0000 0.0000 0.0000 0.0000 0.0000 52.7929
#
#
#
# Elastic Compliance Matrix: (Units=1/GPa)
#
#
# Indices 1 2 3 4 5 6 
#
# 1 0.006465 -0.002466 -0.002471 0.000000 0.000000 0.000000
# 2 -0.002466 0.006003 -0.000783 0.000000 0.000000 0.000000
# 3 -0.002471 -0.000783 0.008516 0.000000 0.000000 0.000000
# 4 0.000000 0.000000 0.000000 0.044483 0.000000 0.000000
# 5 0.000000 0.000000 0.000000 0.000000 0.028224 0.000000
# 6 0.000000 0.000000 0.000000 0.000000 0.000000 0.018942
#
#
# Mechanical properties :
#
#
# Convention : Reuss Voigt Hill
#
# Bulk Modulus (GPa) = 104.79138 113.71918 109.25528
# Shear Modulus (GPa) = 39.29108 45.86303 42.57705
#
# Velocity S-wave (km/s) = 4.08616 4.41469 4.25360
# Velocity P-wave (km/s) = 8.17272 8.62038 8.39953
#
# Compressibility (1/GPa) = 0.00954277
#
# Stress axis : x y z
#
# Youngs Moduli (GPa) = 154.67273 166.58148 117.42554
#
# Poissons Ratio (x) = 0.41077 0.29021
# Poissons Ratio (y) = 0.38140 0.09200
# Poissons Ratio (z) = 0.38226 0.13052
#
# Static dielectric constant tensor:
#      x y z
#    x 4.105870 0.000000 0.000000 
#    y 0.000000 4.878810 0.000000 
#    z 0.000000 0.000000 4.880680 
# 
# 
# High freq. dielectric constant tensor:
#      x y z
#    x 1.919170 0.000000 0.000000 
#    y 0.000000 1.970470 0.000000 
#    z 0.000000 0.000000 1.947540 
# 
# From -- ./inp_files/18412.got.cif
#   From: 2010.03.12/outbox.cif.g09.slc.cpg/sg73_10_cif.got.tgz:18412.got - 2010.04.16 15:25:48.
