data_PCOD8295960
_publ_section_title
;
Structure prediction by ZEFSAII (Michael W. Deem and Ramdas Pophale) SiO2 
 PCOD8295960
Probable space group: I B C A 
;
_chemical_formula_sum "Si O2"
_cell_formula_units_Z 72
_cell_length_a 12.865558
_cell_length_b 10.636438
_cell_length_c 21.842766
_cell_angle_alpha 90.000000
_cell_angle_beta 90.000000
_cell_angle_gamma 90.000000
_cell_volume 2989.045136
_symmetry_space_group_name_H-M "I B C A "
_symmetry_group_IT_number 73
_symmetry_cell_setting 'orthorhombic'
loop_
_space_group_symop_operation_xyz
x,y,z
-x,1/2-y,z
x,-y,1/2-z
1/2-x,y,-z
-x,-y,-z
x,1/2+y,-z
-x,y,1/2+z
1/2+x,-y,z
1/2+x,1/2+y,1/2+z
1/2-x,-y,1/2+z
1/2+x,1/2-y,-z
-x,1/2+y,1/2-z
1/2-x,1/2-y,1/2-z
1/2+x,y,1/2-z
1/2-x,1/2+y,z
x,1/2-y,1/2+z
loop_
_atom_site_type_symbol
_atom_site_label
_atom_site_fract_x
_atom_site_fract_y
_atom_site_fract_z
Si Si1 0.059886 0.581904 0.933616
Si Si2 0.409863 0.345419 0.144037
Si Si3 0.753627 0.860445 0.861701
Si Si4 0.159648 0.539623 0.459166
Si Si5 0.818878 0.000000 0.750000
O O1 0.056054 0.436132 0.910800
O O2 0.128058 0.663980 0.885878
O O3 0.939314 0.629999 0.940857
O O4 0.114419 0.576651 0.000122
O O5 0.500000 0.250000 0.159615
O O6 0.305314 0.269277 0.126634
O O7 0.393199 0.424004 0.205205
O O8 0.749618 0.902642 0.790378
O O9 0.708949 0.980420 0.898366
O O10 0.250000 0.608999 0.500000
#
# Coordination Sequence:
#
# PCOD8295960 Si02
#       5
#    16  16  16  16   8
#     4   9  19  36  61  94 129 168 216 275 340 400
#     4  11  21  39  65  94 127 180 227 278 343 407
#     4  10  20  38  62  91 129 173 220 272 341 404
#     4   9  17  35  63  90 126 172 206 274 339 401
#     4  10  24  40  62  92 132 174 224 292 332 400
#
# _framework density 24.087959000000001
#
# number of rings (size 3 to 8) (size 9 to 14) (size 15 to 20)
#    0.000    2.222    2.222    0.667    0.000    0.889 
#    0.000   16.667    0.000    0.000    0.000    0.000 
#    0.000    0.000    0.000    0.000    0.000    0.000 
#
# Total GULP energy -446177.474029 kJ/mol
# GULP energy per Si atom -12393.818723 kJ/mol
# Density = 2.403313 g / cm^3
# Si number density = 24.087959 Si / 1000 Ang^3
#
#
#
# Elastic Constant Matrix: (Units=GPa)
#
#
# Indices 1 2 3 4 5 6 
#
# 1 182.0032 24.9524 26.0385 0.0000 0.0000 0.0000
# 2 24.9524 41.4582 0.5919 0.0000 0.0000 0.0000
# 3 26.0385 0.5919 106.8044 0.0000 0.0000 0.0000
# 4 0.0000 0.0000 0.0000 15.9693 0.0000 0.0000
# 5 0.0000 0.0000 0.0000 0.0000 32.9016 0.0000
# 6 0.0000 0.0000 0.0000 0.0000 0.0000 39.0482
#
#
#
# Elastic Compliance Matrix: (Units=1/GPa)
#
#
# Indices 1 2 3 4 5 6 
#
# 1 0.006219 -0.003721 -0.001495 0.000000 0.000000 0.000000
# 2 -0.003721 0.026350 0.000761 0.000000 0.000000 0.000000
# 3 -0.001495 0.000761 0.009723 0.000000 0.000000 0.000000
# 4 0.000000 0.000000 0.000000 0.062620 0.000000 0.000000
# 5 0.000000 0.000000 0.000000 0.000000 0.030394 0.000000
# 6 0.000000 0.000000 0.000000 0.000000 0.000000 0.025609
#
#
# Mechanical properties :
#
#
# Convention : Reuss Voigt Hill
#
# Bulk Modulus (GPa) = 29.95783 48.15903 39.05843
# Shear Modulus (GPa) = 27.63155 36.16268 31.89711
#
# Velocity S-wave (km/s) = 3.39058 3.87883 3.64289
# Velocity P-wave (km/s) = 5.27180 6.33221 5.82618
#
# Compressibility (1/GPa) = 0.03338026
#
# Stress axis : x y z
#
# Youngs Moduli (GPa) = 160.80902 37.95119 102.84600
#
# Poissons Ratio (x) = 0.14123 0.15380
# Poissons Ratio (y) = 0.59844 -0.07829
# Poissons Ratio (z) = 0.24048 -0.02889
#
# Static dielectric constant tensor:
#      x y z
#    x 4.799670 0.000000 0.000000 
#    y 0.000000 3.914230 0.000000 
#    z 0.000000 0.000000 4.405190 
# 
# 
# High freq. dielectric constant tensor:
#      x y z
#    x 1.968770 0.000000 0.000000 
#    y 0.000000 1.925930 0.000000 
#    z 0.000000 0.000000 1.959910 
# 
# From -- ./inp_files/29310.got.cif
#   From: 2010.03.12/outbox.cif.g09.slc.cpg/sg73_15_cif.got.tgz:29310.got - 2010.04.16 15:25:48.
