data_PCOD8295289
_publ_section_title
;
Structure prediction by ZEFSAII (Michael W. Deem and Ramdas Pophale) SiO2 
 PCOD8295289
Probable space group: I B A M
;
_chemical_formula_sum "Si O2"
_cell_formula_units_Z 64
_cell_length_a 12.494520
_cell_length_b 14.092487
_cell_length_c 18.889314
_cell_angle_alpha 90.000000
_cell_angle_beta 90.000000
_cell_angle_gamma 90.000000
_cell_volume 3326.008888
_symmetry_space_group_name_H-M "I B A M"
_symmetry_group_IT_number 72
_symmetry_cell_setting 'orthorhombic'
loop_
_space_group_symop_operation_xyz
x,y,z
-x,-y,z
x,-y,1/2-z
-x,y,1/2-z
-x,-y,-z
x,y,-z
-x,y,1/2+z
x,-y,1/2+z
1/2+x,1/2+y,1/2+z
1/2-x,1/2-y,1/2+z
1/2+x,1/2-y,-z
1/2-x,1/2+y,-z
1/2-x,1/2-y,1/2-z
1/2+x,1/2+y,1/2-z
1/2-x,1/2+y,z
1/2+x,1/2-y,z
loop_
_atom_site_type_symbol
_atom_site_label
_atom_site_fract_x
_atom_site_fract_y
_atom_site_fract_z
Si Si1 0.000000 0.000000 0.862032
Si Si2 0.711093 0.405936 0.917857
Si Si3 0.623291 0.973889 0.669935
Si Si4 0.000000 0.141251 0.250000
Si Si5 0.322761 0.758550 0.818484
O O1 0.059094 0.924450 0.809163
O O2 0.906942 0.952128 0.908394
O O3 0.802263 0.470143 0.883732
O O4 0.723767 0.300780 0.884572
O O5 0.735596 0.396088 0.000000
O O6 0.648446 0.863744 0.656959
O O7 0.500000 0.000000 0.654081
O O8 0.654139 0.000000 0.750000
O O9 0.930083 0.208080 0.297225
O O10 0.250000 0.750000 0.750000
#
# Coordination Sequence:
#
# PCOD8295289 Si02
#       5
#     8  16  16   8  16
#     4   9  19  36  62  88 126 160 208 264 320 370
#     4  11  24  41  62  93 129 165 209 263 321 378
#     4  11  23  41  67  96 126 167 213 263 316 380
#     4   9  18  32  59  94 114 156 207 262 303 364
#     4  11  21  37  64  91 124 162 211 253 308 374
#
# _framework density 19.242281999999999
#
# number of rings (size 3 to 8) (size 9 to 14) (size 15 to 20)
#    0.000    1.500    2.500    3.375    3.500    1.500 
#    0.000    0.000    0.000    0.000    0.000    0.000 
#    0.000    0.000    0.000    0.000    0.000    0.000 
#
# Total GULP energy -396554.713438 kJ/mol
# GULP energy per Si atom -12392.334795 kJ/mol
# Density = 1.919849 g / cm^3
# Si number density = 19.242282 Si / 1000 Ang^3
#
#
#
# Elastic Constant Matrix: (Units=GPa)
#
#
# Indices 1 2 3 4 5 6 
#
# 1 82.1757 53.6146 57.8162 0.0000 0.0000 0.0000
# 2 53.6146 178.9581 74.8163 0.0000 0.0000 0.0000
# 3 57.8162 74.8163 160.3411 0.0000 0.0000 0.0000
# 4 0.0000 0.0000 0.0000 35.6683 0.0000 0.0000
# 5 0.0000 0.0000 0.0000 0.0000 19.8830 0.0000
# 6 0.0000 0.0000 0.0000 0.0000 0.0000 72.9357
#
#
#
# Elastic Compliance Matrix: (Units=1/GPa)
#
#
# Indices 1 2 3 4 5 6 
#
# 1 0.017730 -0.003279 -0.004863 0.000000 0.000000 0.000000
# 2 -0.003279 0.007548 -0.002340 0.000000 0.000000 0.000000
# 3 -0.004863 -0.002340 0.009082 0.000000 0.000000 0.000000
# 4 0.000000 0.000000 0.000000 0.028036 0.000000 0.000000
# 5 0.000000 0.000000 0.000000 0.000000 0.050294 0.000000
# 6 0.000000 0.000000 0.000000 0.000000 0.000000 0.013711
#
#
# Mechanical properties :
#
#
# Convention : Reuss Voigt Hill
#
# Bulk Modulus (GPa) = 74.64478 88.21879 81.43179
# Shear Modulus (GPa) = 32.93153 41.37926 37.15540
#
# Velocity S-wave (km/s) = 4.14141 4.64231 4.39900
# Velocity P-wave (km/s) = 7.85778 8.64179 8.25909
#
# Compressibility (1/GPa) = 0.01339678
#
# Stress axis : x y z
#
# Youngs Moduli (GPa) = 56.40256 132.47879 110.10632
#
# Poissons Ratio (x) = 0.43434 0.53547
# Poissons Ratio (y) = 0.18492 0.25764
# Poissons Ratio (z) = 0.27430 0.30999
#
# Static dielectric constant tensor:
#      x y z
#    x 3.391320 0.000000 0.000000 
#    y 0.000000 4.068270 0.000000 
#    z 0.000000 0.000000 3.179700 
# 
# 
# High freq. dielectric constant tensor:
#      x y z
#    x 1.745150 0.000000 0.000000 
#    y 0.000000 1.768330 0.000000 
#    z 0.000000 0.000000 1.736770 
# 
# From -- ./inp_files/28855.got.cif
#   From: 2010.03.12/outbox.cif.g09.slc.cpg/sg72_15_cif.got.tgz:28855.got - 2010.04.16 14:54:00.
