data_PCOD8295813
_publ_section_title
;
Structure prediction by ZEFSAII (Michael W. Deem and Ramdas Pophale) SiO2 
 PCOD8295813
Probable space group: I B C A 
;
_chemical_formula_sum "Si O2"
_cell_formula_units_Z 120
_cell_length_a 25.832613
_cell_length_b 9.704292
_cell_length_c 29.389955
_cell_angle_alpha 90.000000
_cell_angle_beta 90.000000
_cell_angle_gamma 90.000000
_cell_volume 7367.686105
_symmetry_space_group_name_H-M "I B C A "
_symmetry_group_IT_number 73
_symmetry_cell_setting 'orthorhombic'
loop_
_space_group_symop_operation_xyz
x,y,z
-x,1/2-y,z
x,-y,1/2-z
1/2-x,y,-z
-x,-y,-z
x,1/2+y,-z
-x,y,1/2+z
1/2+x,-y,z
1/2+x,1/2+y,1/2+z
1/2-x,-y,1/2+z
1/2+x,1/2-y,-z
-x,1/2+y,1/2-z
1/2-x,1/2-y,1/2-z
1/2+x,y,1/2-z
1/2-x,1/2+y,z
x,1/2-y,1/2+z
loop_
_atom_site_type_symbol
_atom_site_label
_atom_site_fract_x
_atom_site_fract_y
_atom_site_fract_z
Si Si1 0.907733 0.413449 0.638685
Si Si2 0.500000 0.414752 0.796259
Si Si3 0.938586 0.905204 0.459643
Si Si4 0.750000 0.000000 0.750000
Si Si5 0.938585 0.094799 0.540357
Si Si6 0.294528 0.094959 0.337019
Si Si7 0.794529 0.905041 0.837019
Si Si8 0.407733 0.413448 0.361316
O O1 0.920501 0.469796 0.588378
O O2 0.850930 0.467579 0.652421
O O3 0.909938 0.250001 0.637499
O O4 0.949751 0.463757 0.675339
O O5 0.500000 0.250000 0.786941
O O6 0.500001 0.500000 0.750000
O O7 0.550249 0.463757 0.824662
O O8 0.917132 0.750002 0.466267
O O9 0.000000 0.903794 0.460490
O O10 0.916033 0.000003 0.499999
O O11 0.713591 0.094495 0.782208
O O12 0.786410 0.094495 0.717792
O O13 0.920500 0.030207 0.588377
O O14 0.289463 0.250000 0.355899
O O15 0.250000 0.000000 0.360495
O O16 0.850931 0.967578 0.847580
#
# Coordination Sequence:
#
# PCOD8295813 Si02
#       8
#    16  16  16   8  16  16  16  16
#     4   9  17  32  50  69  96 131 160 188 236 299
#     4  10  20  32  47  68  98 132 163 188 231 286
#     4   9  16  29  50  72  94 122 156 194 236 285
#     4   8  18  28  46  66  92 112 170 200 232 256
#     4   9  16  29  50  72  94 122 156 194 236 285
#     4   9  18  30  47  67  91 120 158 199 234 271
#     4   9  18  30  47  67  91 120 158 199 234 271
#     4   9  17  32  50  69  96 131 160 188 236 299
#
# _framework density 16.287337999999998
#
# number of rings (size 3 to 8) (size 9 to 14) (size 15 to 20)
#    0.800    2.133    1.333    0.400    1.867    0.000 
#    0.000    4.000    0.000    0.800    0.000    5.600 
#    0.000    0.000    0.000    0.000    0.000    0.000 
#
# Total GULP energy -743481.826527 kJ/mol
# GULP energy per Si atom -12391.363775 kJ/mol
# Density = 1.625027 g / cm^3
# Si number density = 16.287338 Si / 1000 Ang^3
#
#
#
# Elastic Constant Matrix: (Units=GPa)
#
#
# Indices 1 2 3 4 5 6 
#
# 1 111.9300 36.4203 50.0322 0.0000 0.0000 0.0000
# 2 36.4203 54.0718 37.9707 0.0000 0.0000 0.0000
# 3 50.0322 37.9707 131.4791 0.0000 0.0000 0.0000
# 4 0.0000 0.0000 0.0000 25.4731 0.0000 0.0000
# 5 0.0000 0.0000 0.0000 0.0000 25.5530 0.0000
# 6 0.0000 0.0000 0.0000 0.0000 0.0000 19.6475
#
#
#
# Elastic Compliance Matrix: (Units=1/GPa)
#
#
# Indices 1 2 3 4 5 6 
#
# 1 0.012241 -0.006239 -0.002856 0.000000 0.000000 0.000000
# 2 -0.006239 0.026379 -0.005244 0.000000 0.000000 0.000000
# 3 -0.002856 -0.005244 0.010207 0.000000 0.000000 0.000000
# 4 0.000000 0.000000 0.000000 0.039257 0.000000 0.000000
# 5 0.000000 0.000000 0.000000 0.000000 0.039134 0.000000
# 6 0.000000 0.000000 0.000000 0.000000 0.000000 0.050897
#
#
# Mechanical properties :
#
#
# Convention : Reuss Voigt Hill
#
# Bulk Modulus (GPa) = 49.63230 60.70305 55.16768
# Shear Modulus (GPa) = 23.41808 25.67190 24.54499
#
# Velocity S-wave (km/s) = 3.79596 3.97443 3.88622
# Velocity P-wave (km/s) = 7.05347 7.64280 7.35404
#
# Compressibility (1/GPa) = 0.02014817
#
# Stress axis : x y z
#
# Youngs Moduli (GPa) = 81.69235 37.90921 97.97119
#
# Poissons Ratio (x) = 0.23653 0.27983
# Poissons Ratio (y) = 0.50970 0.51375
# Poissons Ratio (z) = 0.23333 0.19879
#
# Static dielectric constant tensor:
#      x y z
#    x 3.110330 0.000000 0.000000 
#    y 0.000000 2.858860 0.000000 
#    z 0.000000 0.000000 3.079390 
# 
# 
# High freq. dielectric constant tensor:
#      x y z
#    x 1.617630 0.000000 0.000000 
#    y 0.000000 1.599380 0.000000 
#    z 0.000000 0.000000 1.617020 
# 
# From -- ./inp_files/33062.got.cif
#   From: 2010.03.12/outbox.cif.g09.slc.cpg/sg73_17_cif.got.tgz:33062.got - 2010.04.16 15:25:48.
