data_PCOD8295435
_publ_section_title
;
Structure prediction by ZEFSAII (Michael W. Deem and Ramdas Pophale) SiO2 
 PCOD8295435
Probable space group: I B A M
;
_chemical_formula_sum "Si O2"
_cell_formula_units_Z 88
_cell_length_a 13.778424
_cell_length_b 20.045628
_cell_length_c 14.665951
_cell_angle_alpha 90.000000
_cell_angle_beta 90.000000
_cell_angle_gamma 90.000000
_cell_volume 4050.694043
_symmetry_space_group_name_H-M "I B A M"
_symmetry_group_IT_number 72
_symmetry_cell_setting 'orthorhombic'
loop_
_space_group_symop_operation_xyz
x,y,z
-x,-y,z
x,-y,1/2-z
-x,y,1/2-z
-x,-y,-z
x,y,-z
-x,y,1/2+z
x,-y,1/2+z
1/2+x,1/2+y,1/2+z
1/2-x,1/2-y,1/2+z
1/2+x,1/2-y,-z
1/2-x,1/2+y,-z
1/2-x,1/2-y,1/2-z
1/2+x,1/2+y,1/2-z
1/2-x,1/2+y,z
1/2+x,1/2-y,z
loop_
_atom_site_type_symbol
_atom_site_label
_atom_site_fract_x
_atom_site_fract_y
_atom_site_fract_z
Si Si1 0.053030 0.062989 0.653555
Si Si2 0.518309 0.667689 0.000000
Si Si3 0.624956 0.888875 0.845217
Si Si4 0.093384 0.625011 0.360088
Si Si5 0.366941 0.766622 0.000000
Si Si6 0.837803 0.286509 0.000000
Si Si7 0.244022 0.483540 0.897453
O O1 0.044548 0.127510 0.590607
O O2 0.165998 0.042520 0.663923
O O3 0.000000 0.077709 0.750000
O O4 0.000000 0.000000 0.606418
O O5 0.568997 0.739657 0.000000
O O6 0.405603 0.689833 0.000000
O O7 0.513976 0.906984 0.870479
O O8 0.625973 0.861099 0.743052
O O9 0.693277 0.953676 0.849289
O O10 0.666328 0.832070 0.910513
O O11 0.095876 0.695877 0.409859
O O12 0.166205 0.574760 0.408423
O O13 0.251465 0.764109 0.000000
O O14 0.279496 0.502079 0.000000
#
# Coordination Sequence:
#
# PCOD8295435 Si02
#       7
#    16   8  16  16   8   8  16
#     4  11  28  47  71 106 145 183 241 305 363 429
#     4  12  25  47  72  98 144 191 245 291 361 424
#     4  11  25  43  73 107 147 189 241 301 366 431
#     4  11  24  46  68 108 150 187 238 301 363 434
#     4  12  26  42  71  99 141 198 239 296 358 428
#     4  12  26  45  69 103 139 193 250 296 354 432
#     4  12  24  43  77 105 143 190 240 304 372 422
#
# _framework density 21.724671000000001
#
# number of rings (size 3 to 8) (size 9 to 14) (size 15 to 20)
#    0.000    0.545    4.545    2.455    7.636    4.364 
#    0.000    0.000    0.000    0.000    0.000    0.000 
#    0.000    0.000    0.000    0.000    0.000    0.000 
#
# Total GULP energy -545694.357719 kJ/mol
# GULP energy per Si atom -12402.144494 kJ/mol
# Density = 2.167522 g / cm^3
# Si number density = 21.724671 Si / 1000 Ang^3
#
#
#
# Elastic Constant Matrix: (Units=GPa)
#
#
# Indices 1 2 3 4 5 6 
#
# 1 124.8417 46.6885 57.9904 0.0000 0.0000 0.0000
# 2 46.6885 122.3167 53.9610 0.0000 0.0000 0.0000
# 3 57.9904 53.9610 152.3536 0.0001 -0.0001 0.0000
# 4 0.0000 0.0000 0.0001 8.5590 0.0000 0.0000
# 5 0.0000 0.0000 -0.0001 0.0000 29.7706 0.0000
# 6 0.0000 0.0000 0.0000 0.0000 0.0000 43.7876
#
#
#
# Elastic Compliance Matrix: (Units=1/GPa)
#
#
# Indices 1 2 3 4 5 6 
#
# 1 0.010401 -0.002635 -0.003026 0.000000 0.000000 0.000000
# 2 -0.002635 0.010357 -0.002665 0.000000 0.000000 0.000000
# 3 -0.003026 -0.002665 0.008659 0.000000 0.000000 0.000000
# 4 0.000000 0.000000 0.000000 0.116836 0.000000 0.000000
# 5 0.000000 0.000000 0.000000 0.000000 0.033590 0.000000
# 6 0.000000 0.000000 0.000000 0.000000 0.000000 0.022838
#
#
# Mechanical properties :
#
#
# Convention : Reuss Voigt Hill
#
# Bulk Modulus (GPa) = 78.33769 79.64353 78.99061
# Shear Modulus (GPa) = 22.36250 32.48159 27.42205
#
# Velocity S-wave (km/s) = 3.21184 3.87091 3.55668
# Velocity P-wave (km/s) = 7.06344 7.53117 7.30105
#
# Compressibility (1/GPa) = 0.01276525
#
# Stress axis : x y z
#
# Youngs Moduli (GPa) = 96.14329 96.55102 115.48291
#
# Poissons Ratio (x) = 0.25445 0.34940
# Poissons Ratio (y) = 0.25337 0.30779
# Poissons Ratio (z) = 0.29089 0.25733
#
# Static dielectric constant tensor:
#      x y z
#    x 4.087970 0.000000 0.000000 
#    y 0.000000 3.796250 0.000000 
#    z 0.000000 0.000000 3.912140 
# 
# 
# High freq. dielectric constant tensor:
#      x y z
#    x 1.869950 0.000000 0.000000 
#    y 0.000000 1.846130 0.000000 
#    z 0.000000 0.000000 1.863420 
# 
# From -- ./inp_files/21739.got.cif
#   From: 2010.03.12/outbox.cif.g09.slc.cpg/sg72_11_cif.got.tgz:21739.got - 2010.04.16 14:54:00.
