data_PCOD8295837
_publ_section_title
;
Structure prediction by ZEFSAII (Michael W. Deem and Ramdas Pophale) SiO2 
 PCOD8295837
Probable space group: I B C A 
;
_chemical_formula_sum "Si O2"
_cell_formula_units_Z 120
_cell_length_a 24.963912
_cell_length_b 17.674351
_cell_length_c 13.158735
_cell_angle_alpha 90.000000
_cell_angle_beta 90.000000
_cell_angle_gamma 90.000000
_cell_volume 5805.909466
_symmetry_space_group_name_H-M "I B C A "
_symmetry_group_IT_number 73
_symmetry_cell_setting 'orthorhombic'
loop_
_space_group_symop_operation_xyz
x,y,z
-x,1/2-y,z
x,-y,1/2-z
1/2-x,y,-z
-x,-y,-z
x,1/2+y,-z
-x,y,1/2+z
1/2+x,-y,z
1/2+x,1/2+y,1/2+z
1/2-x,-y,1/2+z
1/2+x,1/2-y,-z
-x,1/2+y,1/2-z
1/2-x,1/2-y,1/2-z
1/2+x,y,1/2-z
1/2-x,1/2+y,z
x,1/2-y,1/2+z
loop_
_atom_site_type_symbol
_atom_site_label
_atom_site_fract_x
_atom_site_fract_y
_atom_site_fract_z
Si Si1 0.750000 0.873233 0.000000
Si Si2 0.889664 0.143808 0.369700
Si Si3 0.636149 0.873573 0.392823
Si Si4 0.474013 0.821599 0.215298
Si Si5 0.351397 0.034781 0.975290
Si Si6 0.059901 0.766230 0.997780
Si Si7 0.794957 0.762011 0.165494
Si Si8 0.572695 0.423913 0.797717
O O1 0.705091 0.926396 0.051149
O O2 0.772425 0.818018 0.082991
O O3 0.939533 0.130014 0.294956
O O4 0.868000 0.062452 0.410107
O O5 0.903838 0.193777 0.470663
O O6 0.848020 0.191879 0.298670
O O7 0.583872 0.838949 0.445857
O O8 0.687297 0.817914 0.383851
O O9 0.617749 0.892396 0.278771
O O10 0.655044 0.944623 0.461737
O O11 0.500000 0.750000 0.274752
O O12 0.439432 0.786063 0.122301
O O13 0.522657 0.871655 0.173492
O O14 0.398445 0.062038 0.903067
O O15 0.000000 0.750000 0.035343
O O16 0.750000 0.750000 0.250000
O O17 0.548329 0.500000 0.750000
#
# Coordination Sequence:
#
# PCOD8295837 Si02
#       8
#     8  16  16  16  16  16  16  16
#     4  10  22  38  60  84 112 148 190 244 300 352
#     4  10  21  36  56  83 117 151 190 242 296 352
#     4  10  21  37  59  84 114 150 192 240 291 354
#     4  11  21  34  55  82 115 153 194 238 285 347
#     4  10  21  39  58  83 116 152 193 242 298 358
#     4  10  20  34  55  84 114 152 194 236 285 344
#     4  10  21  37  60  86 109 145 193 241 295 352
#     4  10  21  35  55  82 113 150 189 233 287 350
#
# _framework density 20.668596000000001
#
# number of rings (size 3 to 8) (size 9 to 14) (size 15 to 20)
#    0.000    1.867    0.000    5.200    0.000    4.800 
#    0.000    3.333    0.000    3.200    0.000    0.000 
#    0.000    0.000    0.000    0.000    0.000    0.000 
#
# Total GULP energy -743536.899268 kJ/mol
# GULP energy per Si atom -12392.281654 kJ/mol
# Density = 2.062155 g / cm^3
# Si number density = 20.668596 Si / 1000 Ang^3
#
#
#
# Elastic Constant Matrix: (Units=GPa)
#
#
# Indices 1 2 3 4 5 6 
#
# 1 108.4045 60.2809 31.6278 0.0000 0.0000 0.0000
# 2 60.2809 132.3599 35.7249 0.0000 0.0000 0.0000
# 3 31.6278 35.7249 61.9241 0.0000 0.0000 0.0000
# 4 0.0000 0.0000 0.0000 -5.3171 0.0000 0.0000
# 5 0.0000 0.0000 0.0000 0.0000 28.0141 0.0000
# 6 0.0000 0.0000 0.0000 0.0000 0.0000 -123.3916
#
#
#
# Elastic Compliance Matrix: (Units=1/GPa)
#
#
# Indices 1 2 3 4 5 6 
#
# 1 0.013082 -0.004921 -0.003843 0.000000 0.000000 0.000000
# 2 -0.004921 0.010800 -0.003717 0.000000 0.000000 0.000000
# 3 -0.003843 -0.003717 0.020256 0.000000 0.000000 0.000000
# 4 0.000000 0.000000 0.000000 -0.188071 0.000000 0.000000
# 5 0.000000 0.000000 0.000000 0.000000 0.035696 0.000000
# 6 0.000000 0.000000 0.000000 0.000000 0.000000 -0.008104
#
#
# Mechanical properties :
#
#
# Convention : Reuss Voigt Hill
#
# Bulk Modulus (GPa) = 52.14804 61.99508 57.07156
# Shear Modulus (GPa) = -58.83229 -8.46860 -33.65044
#
# Velocity S-wave (km/s) = -5.34101 -2.02638 -4.03934
# Velocity P-wave (km/s) = 3.57069 4.95832 2.43261
#
# Compressibility (1/GPa) = 0.01917618
#
# Stress axis : x y z
#
# Youngs Moduli (GPa) = 76.43947 92.59663 49.36815
#
# Poissons Ratio (x) = 0.45565 0.18972
# Poissons Ratio (y) = 0.37615 0.18351
# Poissons Ratio (z) = 0.29375 0.34419
#
# Static dielectric constant tensor:
#      x y z
#    x 6.268000 0.000000 0.000000 
#    y 0.000000 3.784990 0.000000 
#    z 0.000000 0.000000 3.484210 
# 
# 
# High freq. dielectric constant tensor:
#      x y z
#    x 1.812730 0.000000 0.000000 
#    y 0.000000 1.810400 0.000000 
#    z 0.000000 0.000000 1.796450 
# 
# From -- ./inp_files/19526.got.cif
#   From: 2010.03.12/outbox.cif.g09.slc.cpg/sg73_10_cif.got.tgz:19526.got - 2010.04.16 15:25:48.
