data_PCOD8295336
_publ_section_title
;
Structure prediction by ZEFSAII (Michael W. Deem and Ramdas Pophale) SiO2 
 PCOD8295336
Probable space group: I B A M
;
_chemical_formula_sum "Si O2"
_cell_formula_units_Z 64
_cell_length_a 21.697141
_cell_length_b 12.600680
_cell_length_c 10.872270
_cell_angle_alpha 90.000000
_cell_angle_beta 90.000000
_cell_angle_gamma 90.000000
_cell_volume 2972.464817
_symmetry_space_group_name_H-M "I B A M"
_symmetry_group_IT_number 72
_symmetry_cell_setting 'orthorhombic'
loop_
_space_group_symop_operation_xyz
x,y,z
-x,-y,z
x,-y,1/2-z
-x,y,1/2-z
-x,-y,-z
x,y,-z
-x,y,1/2+z
x,-y,1/2+z
1/2+x,1/2+y,1/2+z
1/2-x,1/2-y,1/2+z
1/2+x,1/2-y,-z
1/2-x,1/2+y,-z
1/2-x,1/2-y,1/2-z
1/2+x,1/2+y,1/2-z
1/2-x,1/2+y,z
1/2+x,1/2-y,z
loop_
_atom_site_type_symbol
_atom_site_label
_atom_site_fract_x
_atom_site_fract_y
_atom_site_fract_z
Si Si1 0.688337 0.642030 0.635456
Si Si2 0.402108 0.516811 0.000000
Si Si3 0.500000 0.198177 0.750000
Si Si4 0.287711 0.000000 0.250000
Si Si5 0.016466 0.828145 0.000000
Si Si6 0.122445 0.650044 0.640701
O O1 0.711546 0.678328 0.500000
O O2 0.638651 0.545687 0.621177
O O3 0.747138 0.599674 0.708206
O O4 0.656253 0.745007 0.697052
O O5 0.461365 0.589914 0.000000
O O6 0.419031 0.393183 0.000000
O O7 0.514077 0.264176 0.626799
O O8 0.560610 0.127835 0.779575
O O9 0.332445 0.048313 0.354587
O O10 0.102736 0.672037 0.500000
#
# Coordination Sequence:
#
# PCOD8295336 Si02
#       6
#    16   8   8   8   8  16
#     4   9  20  41  60  94 132 163 212 272 327 386
#     4   9  20  38  62 105 134 176 209 278 335 402
#     4  12  22  46  66 100 130 184 218 282 332 390
#     4  12  24  39  68  89 126 186 216 266 326 400
#     4  11  22  38  68 100 143 176 218 269 344 399
#     4  11  24  46  64  95 132 166 221 281 333 396
#
# _framework density 21.530954000000001
#
# number of rings (size 3 to 8) (size 9 to 14) (size 15 to 20)
#    0.750    0.750    3.750    1.500    3.500    2.500 
#    4.500    1.250    0.000    0.000    0.000    0.000 
#    0.000    0.000    0.000    0.000    0.000    0.000 
#
# Total GULP energy -396446.087553 kJ/mol
# GULP energy per Si atom -12388.940236 kJ/mol
# Density = 2.148195 g / cm^3
# Si number density = 21.530954 Si / 1000 Ang^3
#
#
#
# Elastic Constant Matrix: (Units=GPa)
#
#
# Indices 1 2 3 4 5 6 
#
# 1 139.8751 44.8723 40.0765 0.0000 0.0000 0.0000
# 2 44.8723 43.3445 16.6315 0.0000 0.0000 0.0000
# 3 40.0765 16.6315 89.3268 0.0000 0.0000 0.0000
# 4 0.0000 0.0000 0.0000 41.9168 0.0000 0.0000
# 5 0.0000 0.0000 0.0000 0.0000 24.7689 0.0000
# 6 0.0000 0.0000 0.0000 0.0000 0.0000 31.1948
#
#
#
# Elastic Compliance Matrix: (Units=1/GPa)
#
#
# Indices 1 2 3 4 5 6 
#
# 1 0.011478 -0.010669 -0.003163 0.000000 0.000000 0.000000
# 2 -0.010669 0.034763 -0.001686 0.000000 0.000000 0.000000
# 3 -0.003163 -0.001686 0.012928 0.000000 0.000000 0.000000
# 4 0.000000 0.000000 0.000000 0.023857 0.000000 0.000000
# 5 0.000000 0.000000 0.000000 0.000000 0.040373 0.000000
# 6 0.000000 0.000000 0.000000 0.000000 0.000000 0.032057
#
#
# Mechanical properties :
#
#
# Convention : Reuss Voigt Hill
#
# Bulk Modulus (GPa) = 35.54552 52.85635 44.20093
# Shear Modulus (GPa) = 25.52721 30.97382 28.25052
#
# Velocity S-wave (km/s) = 3.44700 3.79697 3.62621
# Velocity P-wave (km/s) = 5.69098 6.62004 6.17301
#
# Compressibility (1/GPa) = 0.02813294
#
# Stress axis : x y z
#
# Youngs Moduli (GPa) = 87.12149 28.76630 77.35200
#
# Poissons Ratio (x) = 0.30691 0.24469
# Poissons Ratio (y) = 0.92950 0.13039
# Poissons Ratio (z) = 0.27559 0.04849
#
# Static dielectric constant tensor:
#      x y z
#    x 4.090950 0.000000 0.000000 
#    y 0.000000 3.718950 0.000000 
#    z 0.000000 0.000000 3.518560 
# 
# 
# High freq. dielectric constant tensor:
#      x y z
#    x 1.857380 0.000000 0.000000 
#    y 0.000000 1.826540 0.000000 
#    z 0.000000 0.000000 1.822650 
# 
# From -- ./inp_files/13530.got.cif
#   From: 2010.03.12/outbox.cif.g09.slc.cpg/sg72_7_cif.got.tgz:13530.got - 2010.04.16 14:54:00.
