data_PCOD8295654
_publ_section_title
;
Structure prediction by ZEFSAII (Michael W. Deem and Ramdas Pophale) SiO2 
 PCOD8295654
Probable space group: I B C A 
;
_chemical_formula_sum "Si O2"
_cell_formula_units_Z 120
_cell_length_a 24.821220
_cell_length_b 17.226943
_cell_length_c 13.515030
_cell_angle_alpha 90.000000
_cell_angle_beta 90.000000
_cell_angle_gamma 90.000000
_cell_volume 5778.942253
_symmetry_space_group_name_H-M "I B C A "
_symmetry_group_IT_number 73
_symmetry_cell_setting 'orthorhombic'
loop_
_space_group_symop_operation_xyz
x,y,z
-x,1/2-y,z
x,-y,1/2-z
1/2-x,y,-z
-x,-y,-z
x,1/2+y,-z
-x,y,1/2+z
1/2+x,-y,z
1/2+x,1/2+y,1/2+z
1/2-x,-y,1/2+z
1/2+x,1/2-y,-z
-x,1/2+y,1/2-z
1/2-x,1/2-y,1/2-z
1/2+x,y,1/2-z
1/2-x,1/2+y,z
x,1/2-y,1/2+z
loop_
_atom_site_type_symbol
_atom_site_label
_atom_site_fract_x
_atom_site_fract_y
_atom_site_fract_z
Si Si1 0.703162 0.763786 0.920278
Si Si2 0.750000 0.511447 0.500000
Si Si3 0.952686 0.689575 0.965393
Si Si4 0.936579 0.916374 0.649112
Si Si5 0.271433 0.876052 0.677409
Si Si6 0.530688 0.415561 0.866135
Si Si7 0.625491 0.319992 0.930587
Si Si8 0.182231 0.592102 0.624887
O O1 0.729327 0.804069 0.823124
O O2 0.675498 0.683180 0.893920
O O3 0.750000 0.749792 0.000000
O O4 0.657382 0.820122 0.965462
O O5 0.754164 0.565167 0.596777
O O6 0.799593 0.453559 0.474446
O O7 0.901029 0.733443 0.916675
O O8 0.000000 0.750000 0.983004
O O9 0.972588 0.620387 0.893483
O O10 0.939959 0.652909 0.071622
O O11 0.956207 0.886594 0.755398
O O12 0.874635 0.944215 0.656977
O O13 0.972249 0.991660 0.620609
O O14 0.331791 0.843894 0.654215
O O15 0.274781 0.917374 0.784519
O O16 0.577754 0.382744 0.937492
#
# Coordination Sequence:
#
# PCOD8295654 Si02
#       8
#    16   8  16  16  16  16  16  16
#     4  10  20  38  58  84 125 165 206 257 306 366
#     4  12  24  36  60  92 132 158 208 262 296 376
#     4  10  22  38  63  89 121 159 202 269 327 368
#     4  11  22  38  63  91 123 163 215 256 317 396
#     4  11  22  39  62  88 128 168 208 258 310 372
#     4  10  22  38  60  90 123 157 209 262 318 390
#     4  10  18  38  59  89 120 160 205 254 315 366
#     4  12  23  38  62  94 122 171 216 255 310 378
#
# _framework density 20.765046000000002
#
# number of rings (size 3 to 8) (size 9 to 14) (size 15 to 20)
#    0.000    1.333    5.333    2.000    1.867    1.600 
#    0.000    0.000    0.000    0.000    6.933    0.000 
#    0.000    0.000    0.000    0.000    0.000    0.000 
#
# Total GULP energy -743515.751980 kJ/mol
# GULP energy per Si atom -12391.929200 kJ/mol
# Density = 2.071778 g / cm^3
# Si number density = 20.765046 Si / 1000 Ang^3
#
#
#
# Elastic Constant Matrix: (Units=GPa)
#
#
# Indices 1 2 3 4 5 6 
#
# 1 75.4120 19.9638 25.9573 0.0000 0.0000 0.0000
# 2 19.9638 85.7628 23.4709 0.0000 0.0000 0.0000
# 3 25.9573 23.4709 90.2802 0.0000 0.0000 0.0000
# 4 0.0000 0.0000 0.0000 28.9257 0.0000 0.0000
# 5 0.0000 0.0000 0.0000 0.0000 28.7144 0.0000
# 6 0.0000 0.0000 0.0000 0.0000 0.0000 23.3772
#
#
#
# Elastic Compliance Matrix: (Units=1/GPa)
#
#
# Indices 1 2 3 4 5 6 
#
# 1 0.015208 -0.002523 -0.003717 0.000000 0.000000 0.000000
# 2 -0.002523 0.012972 -0.002647 0.000000 0.000000 0.000000
# 3 -0.003717 -0.002647 0.012833 0.000000 0.000000 0.000000
# 4 0.000000 0.000000 0.000000 0.034571 0.000000 0.000000
# 5 0.000000 0.000000 0.000000 0.000000 0.034826 0.000000
# 6 0.000000 0.000000 0.000000 0.000000 0.000000 0.042777
#
#
# Mechanical properties :
#
#
# Convention : Reuss Voigt Hill
#
# Bulk Modulus (GPa) = 43.02960 43.35989 43.19474
# Shear Modulus (GPa) = 27.97890 28.34101 28.15995
#
# Velocity S-wave (km/s) = 3.67468 3.69838 3.68655
# Velocity P-wave (km/s) = 6.22668 6.25811 6.24241
#
# Compressibility (1/GPa) = 0.02323982
#
# Stress axis : x y z
#
# Youngs Moduli (GPa) = 65.75638 77.09063 77.92178
#
# Poissons Ratio (x) = 0.19449 0.28960
# Poissons Ratio (y) = 0.16590 0.20626
# Poissons Ratio (z) = 0.24439 0.20406
#
# Static dielectric constant tensor:
#      x y z
#    x 3.820260 0.000000 0.000000 
#    y 0.000000 3.973840 0.000000 
#    z 0.000000 0.000000 3.723570 
# 
# 
# High freq. dielectric constant tensor:
#      x y z
#    x 1.800580 0.000000 0.000000 
#    y 0.000000 1.826020 0.000000 
#    z 0.000000 0.000000 1.794800 
# 
# From -- ./inp_files/19882.got.cif
#   From: 2010.03.12/outbox.cif.g09.slc.cpg/sg73_10_cif.got.tgz:19882.got - 2010.04.16 15:25:48.
