data_PCOD8295864
_publ_section_title
;
Structure prediction by ZEFSAII (Michael W. Deem and Ramdas Pophale) SiO2 
 PCOD8295864
Probable space group: I B C A 
;
_chemical_formula_sum "Si O2"
_cell_formula_units_Z 120
_cell_length_a 19.748181
_cell_length_b 13.152360
_cell_length_c 23.965390
_cell_angle_alpha 90.000000
_cell_angle_beta 90.000000
_cell_angle_gamma 90.000000
_cell_volume 6224.655026
_symmetry_space_group_name_H-M "I B C A "
_symmetry_group_IT_number 73
_symmetry_cell_setting 'orthorhombic'
loop_
_space_group_symop_operation_xyz
x,y,z
-x,1/2-y,z
x,-y,1/2-z
1/2-x,y,-z
-x,-y,-z
x,1/2+y,-z
-x,y,1/2+z
1/2+x,-y,z
1/2+x,1/2+y,1/2+z
1/2-x,-y,1/2+z
1/2+x,1/2-y,-z
-x,1/2+y,1/2-z
1/2-x,1/2-y,1/2-z
1/2+x,y,1/2-z
1/2-x,1/2+y,z
x,1/2-y,1/2+z
loop_
_atom_site_type_symbol
_atom_site_label
_atom_site_fract_x
_atom_site_fract_y
_atom_site_fract_z
Si Si1 0.079630 0.760733 0.941546
Si Si2 0.627261 0.260509 0.174445
Si Si3 0.823989 0.464304 0.311684
Si Si4 0.182641 0.467678 0.312768
Si Si5 0.000000 0.250000 0.748616
Si Si6 0.428815 0.193777 0.057421
Si Si7 0.927735 0.527448 0.900458
Si Si8 0.060815 0.113391 0.152783
O O1 0.102781 0.878144 0.935682
O O2 0.098538 0.698637 0.885170
O O3 0.000000 0.750000 0.947992
O O4 0.111143 0.716671 0.999172
O O5 0.684186 0.344959 0.186511
O O6 0.560249 0.287796 0.210882
O O7 0.612646 0.260498 0.108701
O O8 0.659333 0.153721 0.189910
O O9 0.809998 0.500000 0.250000
O O10 0.751668 0.488132 0.341009
O O11 0.885465 0.525652 0.337374
O O12 0.169806 0.500000 0.250000
O O13 0.119259 0.506970 0.347846
O O14 0.030648 0.339430 0.709890
O O15 0.500000 0.250000 0.057695
O O16 0.435893 0.071849 0.061224
O O17 0.001466 0.559044 0.880172
#
# Coordination Sequence:
#
# PCOD8295864 Si02
#       8
#    16  16  16  16   8  16  16  16
#     4   9  20  35  56  87 117 152 197 248 298 354
#     4  11  23  39  59  88 125 155 197 255 301 358
#     4  11  24  38  58  89 124 160 197 245 301 368
#     4  10  24  39  59  85 118 166 198 238 302 366
#     4  12  20  36  60  92 124 154 192 254 300 366
#     4  10  20  35  56  87 118 151 198 248 308 348
#     4  10  20  37  60  85 114 158 199 246 297 359
#     4  11  21  36  59  91 120 155 197 248 301 354
#
# _framework density 19.278178
#
# number of rings (size 3 to 8) (size 9 to 14) (size 15 to 20)
#    0.000    1.600    4.000    1.600    1.867    9.600 
#    0.000    0.000    0.000   10.400    0.000    0.000 
#    0.000    0.000    0.000    0.000    0.000    0.000 
#
# Total GULP energy -743737.333955 kJ/mol
# GULP energy per Si atom -12395.622233 kJ/mol
# Density = 1.923430 g / cm^3
# Si number density = 19.278178 Si / 1000 Ang^3
#
#
#
# Elastic Constant Matrix: (Units=GPa)
#
#
# Indices 1 2 3 4 5 6 
#
# 1 65.1048 45.3280 22.8702 0.0000 0.0000 0.0000
# 2 45.3280 167.8757 53.7157 0.0000 0.0000 0.0000
# 3 22.8702 53.7157 103.7222 0.0000 0.0000 0.0000
# 4 0.0000 0.0000 0.0000 28.3259 0.0000 0.0000
# 5 0.0000 0.0000 0.0000 0.0000 33.1055 0.0000
# 6 0.0000 0.0000 0.0000 0.0000 0.0000 -2.0687
#
#
#
# Elastic Compliance Matrix: (Units=1/GPa)
#
#
# Indices 1 2 3 4 5 6 
#
# 1 0.019210 -0.004593 -0.001857 0.000000 0.000000 0.000000
# 2 -0.004593 0.008238 -0.003254 0.000000 0.000000 0.000000
# 3 -0.001857 -0.003254 0.011736 0.000000 0.000000 0.000000
# 4 0.000000 0.000000 0.000000 0.035303 0.000000 0.000000
# 5 0.000000 0.000000 0.000000 0.000000 0.030206 0.000000
# 6 0.000000 0.000000 0.000000 0.000000 0.000000 -0.483385
#
#
# Mechanical properties :
#
#
# Convention : Reuss Voigt Hill
#
# Bulk Modulus (GPa) = 50.56522 64.50340 57.53431
# Shear Modulus (GPa) = -14.17666 26.19179 6.00757
#
# Velocity S-wave (km/s) = -2.71472 3.68995 1.76721
# Velocity P-wave (km/s) = 4.05708 7.18931 5.83722
#
# Compressibility (1/GPa) = 0.01977644
#
# Stress axis : x y z
#
# Youngs Moduli (GPa) = 52.05690 121.39043 85.21060
#
# Poissons Ratio (x) = 0.55749 0.15826
# Poissons Ratio (y) = 0.23907 0.27724
# Poissons Ratio (z) = 0.09668 0.39496
#
# Static dielectric constant tensor:
#      x y z
#    x 3.451030 0.000000 0.000000 
#    y 0.000000 3.248270 0.000000 
#    z 0.000000 0.000000 4.267540 
# 
# 
# High freq. dielectric constant tensor:
#      x y z
#    x 1.721400 0.000000 0.000000 
#    y 0.000000 1.767080 0.000000 
#    z 0.000000 0.000000 1.753530 
# 
# From -- ./inp_files/30193.got.cif
#   From: 2010.03.12/outbox.cif.g09.slc.cpg/sg73_16_cif.got.tgz:30193.got - 2010.04.16 15:25:48.
