data_PCOD8295302
_publ_section_title
;
Structure prediction by ZEFSAII (Michael W. Deem and Ramdas Pophale) SiO2 
 PCOD8295302
Probable space group: I B A M
;
_chemical_formula_sum "Si O2"
_cell_formula_units_Z 48
_cell_length_a 14.015663
_cell_length_b 9.867548
_cell_length_c 17.230375
_cell_angle_alpha 90.000000
_cell_angle_beta 90.000000
_cell_angle_gamma 90.000000
_cell_volume 2382.964781
_symmetry_space_group_name_H-M "I B A M"
_symmetry_group_IT_number 72
_symmetry_cell_setting 'orthorhombic'
loop_
_space_group_symop_operation_xyz
x,y,z
-x,-y,z
x,-y,1/2-z
-x,y,1/2-z
-x,-y,-z
x,y,-z
-x,y,1/2+z
x,-y,1/2+z
1/2+x,1/2+y,1/2+z
1/2-x,1/2-y,1/2+z
1/2+x,1/2-y,-z
1/2-x,1/2+y,-z
1/2-x,1/2-y,1/2-z
1/2+x,1/2+y,1/2-z
1/2-x,1/2+y,z
1/2+x,1/2-y,z
loop_
_atom_site_type_symbol
_atom_site_label
_atom_site_fract_x
_atom_site_fract_y
_atom_site_fract_z
Si Si1 0.636567 0.573776 0.590994
Si Si2 0.801012 0.634906 0.700025
Si Si3 0.464034 0.678309 0.333973
O O1 0.643513 0.551379 0.500000
O O2 0.740104 0.612794 0.622360
O O3 0.606025 0.435362 0.632459
O O4 0.557649 0.690293 0.610811
O O5 0.812260 0.500000 0.750000
O O6 0.750000 0.750000 0.750000
O O7 0.906330 0.681090 0.672346
O O8 0.500000 0.631366 0.250000
#
# Coordination Sequence:
#
# PCOD8295302 Si02
#       3
#    16  16  16
#     4  11  23  40  65  97 131 171 213 267 328 384
#     4  12  23  43  68  94 128 171 221 266 314 386
#     4  11  21  40  67  91 125 167 221 258 313 386
#
# _framework density 20.142973999999999
#
# number of rings (size 3 to 8) (size 9 to 14) (size 15 to 20)
#    0.000    0.667    6.667    4.000    0.000    3.333 
#    0.000    0.000    0.000    2.000    0.000    0.000 
#    0.000    0.000    0.000    0.000    0.000    0.000 
#
# Total GULP energy -297556.685028 kJ/mol
# GULP energy per Si atom -12398.195210 kJ/mol
# Density = 2.009713 g / cm^3
# Si number density = 20.142974 Si / 1000 Ang^3
#
#
#
# Elastic Constant Matrix: (Units=GPa)
#
#
# Indices 1 2 3 4 5 6 
#
# 1 119.6091 65.5305 61.9859 0.0000 0.0000 0.0000
# 2 65.5305 118.2766 57.2808 0.0000 0.0000 0.0000
# 3 61.9859 57.2808 166.8396 0.0000 0.0000 0.0000
# 4 0.0000 0.0000 0.0000 10.5069 0.0000 0.0000
# 5 0.0000 0.0000 0.0000 0.0000 36.0208 0.0000
# 6 0.0000 0.0000 0.0000 0.0000 0.0000 27.0852
#
#
#
# Elastic Compliance Matrix: (Units=1/GPa)
#
#
# Indices 1 2 3 4 5 6 
#
# 1 0.013034 -0.005849 -0.002834 0.000000 0.000000 0.000000
# 2 -0.005849 0.012765 -0.002210 0.000000 0.000000 0.000000
# 3 -0.002834 -0.002210 0.007806 0.000000 0.000000 0.000000
# 4 0.000000 0.000000 0.000000 0.095175 0.000000 0.000000
# 5 0.000000 0.000000 0.000000 0.000000 0.027762 0.000000
# 6 0.000000 0.000000 0.000000 0.000000 0.000000 0.036920
#
#
# Mechanical properties :
#
#
# Convention : Reuss Voigt Hill
#
# Bulk Modulus (GPa) = 84.60942 86.03554 85.32248
# Shear Modulus (GPa) = 22.81151 29.38445 26.09798
#
# Velocity S-wave (km/s) = 3.36888 3.82356 3.60340
# Velocity P-wave (km/s) = 7.56493 7.89291 7.73066
#
# Compressibility (1/GPa) = 0.01181901
#
# Stress axis : x y z
#
# Youngs Moduli (GPa) = 76.72383 78.33723 128.11404
#
# Poissons Ratio (x) = 0.45816 0.36313
# Poissons Ratio (y) = 0.44873 0.28310
# Poissons Ratio (z) = 0.21747 0.17311
#
# Static dielectric constant tensor:
#      x y z
#    x 4.205580 0.000000 0.000000 
#    y 0.000000 3.716550 0.000000 
#    z 0.000000 0.000000 3.583010 
# 
# 
# High freq. dielectric constant tensor:
#      x y z
#    x 1.798940 0.000000 0.000000 
#    y 0.000000 1.766060 0.000000 
#    z 0.000000 0.000000 1.783180 
# 
# From -- ./inp_files/18005.got.cif
#   From: 2010.03.12/outbox.cif.g09.slc.cpg/sg72_10_cif.got.tgz:18005.got - 2010.04.16 14:54:00.
