data_PCOD8295091
_publ_section_title
;
Structure prediction by ZEFSAII (Michael W. Deem and Ramdas Pophale) SiO2 
 PCOD8295091
Probable space group: I B A M
;
_chemical_formula_sum "Si O2"
_cell_formula_units_Z 80
_cell_length_a 25.326897
_cell_length_b 11.462413
_cell_length_c 12.971979
_cell_angle_alpha 90.000000
_cell_angle_beta 90.000000
_cell_angle_gamma 90.000000
_cell_volume 3765.860892
_symmetry_space_group_name_H-M "I B A M"
_symmetry_group_IT_number 72
_symmetry_cell_setting 'orthorhombic'
loop_
_space_group_symop_operation_xyz
x,y,z
-x,-y,z
x,-y,1/2-z
-x,y,1/2-z
-x,-y,-z
x,y,-z
-x,y,1/2+z
x,-y,1/2+z
1/2+x,1/2+y,1/2+z
1/2-x,1/2-y,1/2+z
1/2+x,1/2-y,-z
1/2-x,1/2+y,-z
1/2-x,1/2-y,1/2-z
1/2+x,1/2+y,1/2-z
1/2-x,1/2+y,z
1/2+x,1/2-y,z
loop_
_atom_site_type_symbol
_atom_site_label
_atom_site_fract_x
_atom_site_fract_y
_atom_site_fract_z
Si Si1 0.093057 0.294060 0.374617
Si Si2 0.321821 0.631648 0.280393
Si Si3 0.377358 0.047643 0.378392
Si Si4 0.219659 0.696570 0.383002
Si Si5 0.982759 0.365761 0.387007
O O1 0.095570 0.283350 0.500000
O O2 0.123700 0.189012 0.319288
O O3 0.120367 0.415335 0.336059
O O4 0.031380 0.294561 0.334454
O O5 0.335213 0.500000 0.250000
O O6 0.278557 0.645990 0.370543
O O7 0.294048 0.688998 0.181472
O O8 0.387874 0.042891 0.500000
O O9 0.320309 0.094913 0.349144
O O10 0.424643 0.132220 0.332333
O O11 0.211202 0.734412 0.500000
O O12 0.976502 0.310644 0.500000
O O13 0.000000 0.500000 0.393605
#
# Coordination Sequence:
#
# PCOD8295091 Si02
#       5
#    16  16  16  16  16
#     4   9  17  32  58  88 120 151 188 240 301 356
#     4  11  25  39  55  82 116 156 204 245 286 360
#     4   8  15  30  57  88 115 145 186 239 300 355
#     4  10  23  40  59  80 109 152 196 248 303 350
#     4   7  11  24  50  86 117 141 174 226 289 349
#
# _framework density 21.243482
#
# number of rings (size 3 to 8) (size 9 to 14) (size 15 to 20)
#    0.000    3.000    0.000    3.000    5.600    1.600 
#    0.000    1.000    0.000    6.000    0.000    5.600 
#    0.000    0.000    0.000    0.000    0.000    0.000 
#
# Total GULP energy -495594.892301 kJ/mol
# GULP energy per Si atom -12389.872308 kJ/mol
# Density = 2.119513 g / cm^3
# Si number density = 21.243482 Si / 1000 Ang^3
#
#
#
# Elastic Constant Matrix: (Units=GPa)
#
#
# Indices 1 2 3 4 5 6 
#
# 1 153.4084 63.5820 30.8933 0.0000 0.0000 0.0000
# 2 63.5820 119.5439 20.2699 0.0000 0.0000 0.0000
# 3 30.8933 20.2699 45.9037 0.0000 0.0000 0.0000
# 4 0.0000 0.0000 0.0000 75.3030 0.0000 0.0000
# 5 0.0000 0.0000 0.0000 0.0000 19.3021 0.0000
# 6 0.0000 0.0000 0.0000 0.0000 0.0000 32.7405
#
#
#
# Elastic Compliance Matrix: (Units=1/GPa)
#
#
# Indices 1 2 3 4 5 6 
#
# 1 0.009085 -0.004103 -0.004303 0.000000 0.000000 0.000000
# 2 -0.004103 0.010895 -0.002050 0.000000 0.000000 0.000000
# 3 -0.004303 -0.002050 0.025586 0.000000 0.000000 0.000000
# 4 0.000000 0.000000 0.000000 0.013280 0.000000 0.000000
# 5 0.000000 0.000000 0.000000 0.000000 0.051808 0.000000
# 6 0.000000 0.000000 0.000000 0.000000 0.000000 0.030543
#
#
# Mechanical properties :
#
#
# Convention : Reuss Voigt Hill
#
# Bulk Modulus (GPa) = 40.55923 60.92737 50.74330
# Shear Modulus (GPa) = 29.35550 39.07651 34.21600
#
# Velocity S-wave (km/s) = 3.72137 4.29354 4.01766
# Velocity P-wave (km/s) = 6.13179 7.30220 6.74244
#
# Compressibility (1/GPa) = 0.02465530
#
# Stress axis : x y z
#
# Youngs Moduli (GPa) = 110.06584 91.78695 39.08433
#
# Poissons Ratio (x) = 0.37657 0.16818
# Poissons Ratio (y) = 0.45157 0.08011
# Poissons Ratio (z) = 0.47360 0.18814
#
# Static dielectric constant tensor:
#      x y z
#    x 4.257140 0.000000 0.000000 
#    y 0.000000 3.329640 0.000000 
#    z 0.000000 0.000000 3.971590 
# 
# 
# High freq. dielectric constant tensor:
#      x y z
#    x 1.850370 0.000000 0.000000 
#    y 0.000000 1.766650 0.000000 
#    z 0.000000 0.000000 1.859180 
# 
# From -- ./inp_files/20435.got.cif
#   From: 2010.03.12/outbox.cif.g09.slc.cpg/sg72_11_cif.got.tgz:20435.got - 2010.04.16 14:54:00.
