data_PCOD8295882
_publ_section_title
;
Structure prediction by ZEFSAII (Michael W. Deem and Ramdas Pophale) SiO2 
 PCOD8295882
Probable space group: I B C A 
;
_chemical_formula_sum "Si O2"
_cell_formula_units_Z 120
_cell_length_a 20.990293
_cell_length_b 18.216715
_cell_length_c 16.189702
_cell_angle_alpha 90.000000
_cell_angle_beta 90.000000
_cell_angle_gamma 90.000000
_cell_volume 6190.524113
_symmetry_space_group_name_H-M "I B C A "
_symmetry_group_IT_number 73
_symmetry_cell_setting 'orthorhombic'
loop_
_space_group_symop_operation_xyz
x,y,z
-x,1/2-y,z
x,-y,1/2-z
1/2-x,y,-z
-x,-y,-z
x,1/2+y,-z
-x,y,1/2+z
1/2+x,-y,z
1/2+x,1/2+y,1/2+z
1/2-x,-y,1/2+z
1/2+x,1/2-y,-z
-x,1/2+y,1/2-z
1/2-x,1/2-y,1/2-z
1/2+x,y,1/2-z
1/2-x,1/2+y,z
x,1/2-y,1/2+z
loop_
_atom_site_type_symbol
_atom_site_label
_atom_site_fract_x
_atom_site_fract_y
_atom_site_fract_z
Si Si1 0.619084 0.962346 0.382534
Si Si2 0.784294 0.500000 0.250000
Si Si3 0.426716 0.729714 0.997472
Si Si4 0.162774 0.422408 0.222280
Si Si5 0.890241 0.615384 0.952602
Si Si6 0.545043 0.150666 0.225683
Si Si7 0.913306 0.303435 0.818991
Si Si8 0.031567 0.903777 0.405702
O O1 0.641691 0.919645 0.465016
O O2 0.593624 0.904939 0.315586
O O3 0.674971 0.006209 0.334723
O O4 0.564652 0.018011 0.410152
O O5 0.738806 0.571869 0.240325
O O6 0.500000 0.750000 0.981003
O O7 0.390462 0.716808 0.910904
O O8 0.390296 0.796010 0.043277
O O9 0.422750 0.655734 0.050656
O O10 0.129965 0.500000 0.250000
O O11 0.150798 0.409877 0.125465
O O12 0.137659 0.355289 0.276037
O O13 0.962952 0.587569 0.947772
O O14 0.578900 0.229823 0.235868
O O15 0.481591 0.156490 0.170298
O O16 0.520380 0.121961 0.312713
#
# Coordination Sequence:
#
# PCOD8295882 Si02
#       8
#    16   8  16  16  16  16  16  16
#     4  12  23  41  63  90 130 164 212 266 322 381
#     4  10  26  46  60  88 118 178 224 268 312 352
#     4  10  20  36  56  96 135 161 194 246 327 404
#     4  10  25  41  64  87 121 171 225 269 305 371
#     4  11  22  39  62  96 127 162 213 262 329 383
#     4  11  20  35  63  94 129 167 190 256 335 403
#     4  11  20  38  61  94 132 163 198 252 335 392
#     4  11  22  32  62  96 128 160 202 255 327 401
#
# _framework density 19.384466
#
# number of rings (size 3 to 8) (size 9 to 14) (size 15 to 20)
#    0.400    0.800    5.333    2.000    7.467    0.533 
#    0.000    0.667    0.000    0.000    0.000    0.000 
#    0.000    0.000    0.000    0.000    0.000    0.000 
#
# Total GULP energy -743951.594157 kJ/mol
# GULP energy per Si atom -12399.193236 kJ/mol
# Density = 1.934035 g / cm^3
# Si number density = 19.384466 Si / 1000 Ang^3
#
#
#
# Elastic Constant Matrix: (Units=GPa)
#
#
# Indices 1 2 3 4 5 6 
#
# 1 68.9586 31.6523 27.7112 0.0000 0.0000 0.0000
# 2 31.6523 88.7440 36.6916 0.0000 0.0000 0.0000
# 3 27.7112 36.6916 118.1418 0.0000 0.0000 0.0000
# 4 0.0000 0.0000 0.0000 36.9907 0.0000 0.0000
# 5 0.0000 0.0000 0.0000 0.0000 40.2662 0.0000
# 6 0.0000 0.0000 0.0000 0.0000 0.0000 26.1319
#
#
#
# Elastic Compliance Matrix: (Units=1/GPa)
#
#
# Indices 1 2 3 4 5 6 
#
# 1 0.017988 -0.005360 -0.002555 0.000000 0.000000 0.000000
# 2 -0.005360 0.014525 -0.003254 0.000000 0.000000 0.000000
# 3 -0.002555 -0.003254 0.010074 0.000000 0.000000 0.000000
# 4 0.000000 0.000000 0.000000 0.027034 0.000000 0.000000
# 5 0.000000 0.000000 0.000000 0.000000 0.024835 0.000000
# 6 0.000000 0.000000 0.000000 0.000000 0.000000 0.038267
#
#
# Mechanical properties :
#
#
# Convention : Reuss Voigt Hill
#
# Bulk Modulus (GPa) = 49.38013 51.99496 50.68754
# Shear Modulus (GPa) = 30.90028 32.66371 31.78200
#
# Velocity S-wave (km/s) = 3.99692 4.10938 4.05354
# Velocity P-wave (km/s) = 6.84323 7.02832 6.93639
#
# Compressibility (1/GPa) = 0.02025106
#
# Stress axis : x y z
#
# Youngs Moduli (GPa) = 55.59218 68.84507 99.26286
#
# Poissons Ratio (x) = 0.36898 0.25359
# Poissons Ratio (y) = 0.29795 0.32301
# Poissons Ratio (z) = 0.14202 0.22403
#
# Static dielectric constant tensor:
#      x y z
#    x 3.133590 0.000000 0.000000 
#    y 0.000000 3.646190 0.000000 
#    z 0.000000 0.000000 3.637220 
# 
# 
# High freq. dielectric constant tensor:
#      x y z
#    x 1.706670 0.000000 0.000000 
#    y 0.000000 1.763580 0.000000 
#    z 0.000000 0.000000 1.769350 
# 
# From -- ./inp_files/19535.got.cif
#   From: 2010.03.12/outbox.cif.g09.slc.cpg/sg73_10_cif.got.tgz:19535.got - 2010.04.16 15:25:48.
