data_PCOD8295018
_publ_section_title
;
Structure prediction by ZEFSAII (Michael W. Deem and Ramdas Pophale) SiO2 
 PCOD8295018
Probable space group: I B A M
;
_chemical_formula_sum "Si O2"
_cell_formula_units_Z 60
_cell_length_a 13.188688
_cell_length_b 8.922598
_cell_length_c 22.200570
_cell_angle_alpha 90.000000
_cell_angle_beta 90.000000
_cell_angle_gamma 90.000000
_cell_volume 2612.504494
_symmetry_space_group_name_H-M "I B A M"
_symmetry_group_IT_number 72
_symmetry_cell_setting 'orthorhombic'
loop_
_space_group_symop_operation_xyz
x,y,z
-x,-y,z
x,-y,1/2-z
-x,y,1/2-z
-x,-y,-z
x,y,-z
-x,y,1/2+z
x,-y,1/2+z
1/2+x,1/2+y,1/2+z
1/2-x,1/2-y,1/2+z
1/2+x,1/2-y,-z
1/2-x,1/2+y,-z
1/2-x,1/2-y,1/2-z
1/2+x,1/2+y,1/2-z
1/2-x,1/2+y,z
1/2+x,1/2-y,z
loop_
_atom_site_type_symbol
_atom_site_label
_atom_site_fract_x
_atom_site_fract_y
_atom_site_fract_z
Si Si1 0.292321 0.439130 0.375885
Si Si2 0.685114 0.165280 0.199081
Si Si3 0.000000 0.000000 0.907993
Si Si4 0.170897 0.471372 0.500000
Si Si5 0.480385 0.241865 0.500000
Si Si6 0.000000 0.500000 0.750000
O O1 0.313140 0.265211 0.361411
O O2 0.229920 0.504637 0.319815
O O3 0.398109 0.531747 0.370898
O O4 0.240805 0.456214 0.441151
O O5 0.750000 0.250000 0.250000
O O6 0.569684 0.119518 0.214205
O O7 0.027843 0.150783 0.943175
O O8 0.087832 0.341145 0.500000
O O9 0.115119 0.631053 0.500000
#
# Coordination Sequence:
#
# PCOD8295018 Si02
#       6
#    16  16   8   8   8   4
#     4  12  26  45  75 108 153 193 254 319 386 464
#     4  12  27  52  75 109 146 200 259 323 380 455
#     4  11  24  38  65 106 144 196 243 305 376 452
#     4  11  24  45  72 105 149 198 242 309 385 465
#     4  10  22  42  64 100 151 197 248 288 374 464
#     4  12  28  52  86 108 152 200 274 324 402 458
#
# _framework density 22.966467000000002
#
# number of rings (size 3 to 8) (size 9 to 14) (size 15 to 20)
#    0.000    0.533    2.667    4.800    3.733    7.467 
#    0.000    0.000    0.000    0.800    0.000    0.000 
#    0.000    0.000    0.000    0.000    0.000    0.000 
#
# Total GULP energy -371796.140660 kJ/mol
# GULP energy per Si atom -12393.204689 kJ/mol
# Density = 2.291419 g / cm^3
# Si number density = 22.966467 Si / 1000 Ang^3
#
#
#
# Elastic Constant Matrix: (Units=GPa)
#
#
# Indices 1 2 3 4 5 6 
#
# 1 191.2384 57.4326 60.8820 0.0000 0.0000 0.0000
# 2 57.4326 141.1957 48.5950 0.0000 0.0000 0.0000
# 3 60.8820 48.5950 98.6719 0.0000 0.0000 0.0000
# 4 0.0000 0.0000 0.0000 50.1098 0.0000 0.0000
# 5 0.0000 0.0000 0.0000 0.0000 46.7737 0.0000
# 6 0.0000 0.0000 0.0000 0.0000 0.0000 44.9811
#
#
#
# Elastic Compliance Matrix: (Units=1/GPa)
#
#
# Indices 1 2 3 4 5 6 
#
# 1 0.006791 -0.001590 -0.003407 0.000000 0.000000 0.000000
# 2 -0.001590 0.008900 -0.003402 0.000000 0.000000 0.000000
# 3 -0.003407 -0.003402 0.013913 0.000000 0.000000 0.000000
# 4 0.000000 0.000000 0.000000 0.019956 0.000000 0.000000
# 5 0.000000 0.000000 0.000000 0.000000 0.021380 0.000000
# 6 0.000000 0.000000 0.000000 0.000000 0.000000 0.022232
#
#
# Mechanical properties :
#
#
# Convention : Reuss Voigt Hill
#
# Bulk Modulus (GPa) = 78.09405 84.99168 81.54286
# Shear Modulus (GPa) = 43.76821 45.98600 44.87711
#
# Velocity S-wave (km/s) = 4.37022 4.47957 4.42523
# Velocity P-wave (km/s) = 7.71637 7.99016 7.85446
#
# Compressibility (1/GPa) = 0.01280507
#
# Stress axis : x y z
#
# Youngs Moduli (GPa) = 147.24818 112.36028 71.87732
#
# Poissons Ratio (x) = 0.17862 0.24491
# Poissons Ratio (y) = 0.23408 0.24455
# Poissons Ratio (z) = 0.50173 0.38228
#
# Static dielectric constant tensor:
#      x y z
#    x 4.585530 0.000000 0.000000 
#    y 0.000000 4.333410 0.000000 
#    z 0.000000 0.000000 3.961220 
# 
# 
# High freq. dielectric constant tensor:
#      x y z
#    x 1.927140 0.000000 0.000000 
#    y 0.000000 1.927860 0.000000 
#    z 0.000000 0.000000 1.902950 
# 
# From -- ./inp_files/46922.got.cif
#   From: 2010.03.12/outbox.cif.g09.slc.cpg/sg72_24_cif.got.tgz:46922.got - 2010.04.16 14:54:00.
