data_PCOD8295430
_publ_section_title
;
Structure prediction by ZEFSAII (Michael W. Deem and Ramdas Pophale) SiO2 
 PCOD8295430
Probable space group: I B A M
;
_chemical_formula_sum "Si O2"
_cell_formula_units_Z 68
_cell_length_a 16.220832
_cell_length_b 21.340571
_cell_length_c 8.913815
_cell_angle_alpha 90.000000
_cell_angle_beta 90.000000
_cell_angle_gamma 90.000000
_cell_volume 3085.622397
_symmetry_space_group_name_H-M "I B A M"
_symmetry_group_IT_number 72
_symmetry_cell_setting 'orthorhombic'
loop_
_space_group_symop_operation_xyz
x,y,z
-x,-y,z
x,-y,1/2-z
-x,y,1/2-z
-x,-y,-z
x,y,-z
-x,y,1/2+z
x,-y,1/2+z
1/2+x,1/2+y,1/2+z
1/2-x,1/2-y,1/2+z
1/2+x,1/2-y,-z
1/2-x,1/2+y,-z
1/2-x,1/2-y,1/2-z
1/2+x,1/2+y,1/2-z
1/2-x,1/2+y,z
1/2+x,1/2-y,z
loop_
_atom_site_type_symbol
_atom_site_label
_atom_site_fract_x
_atom_site_fract_y
_atom_site_fract_z
Si Si1 0.334764 0.724653 0.678355
Si Si2 0.421080 0.833405 0.173275
Si Si3 0.138121 0.905385 0.331779
Si Si4 0.297342 0.943345 0.172132
Si Si5 0.500000 0.500000 0.250000
O O1 0.323412 0.723305 0.500000
O O2 0.250000 0.750000 0.750000
O O3 0.406487 0.771199 0.730188
O O4 0.367644 0.656845 0.729948
O O5 0.500000 0.866598 0.250000
O O6 0.342689 0.877838 0.190062
O O7 0.437818 0.817460 0.000000
O O8 0.157385 0.883010 0.500000
O O9 0.213208 0.944089 0.264764
O O10 0.058357 0.951318 0.340083
O O11 0.349502 0.000000 0.250000
O O12 0.279376 0.958580 0.000000
#
# Coordination Sequence:
#
# PCOD8295430 Si02
#       5
#    16  16  16  16   4
#     4  12  25  44  72 103 139 184 237 293 358 426
#     4  11  25  45  69 101 140 181 233 293 356 421
#     4  12  26  45  71 101 141 187 237 291 353 425
#     4  11  24  43  70 100 136 180 231 286 349 420
#     4  12  30  48  72 106 152 192 244 292 362 440
#
# _framework density 22.037693999999998
#
# number of rings (size 3 to 8) (size 9 to 14) (size 15 to 20)
#    0.000    0.471    3.529    4.588    1.647    6.118 
#    0.000    2.353    0.000    0.000    0.000    0.000 
#    0.000    0.000    0.000    0.000    0.000    0.000 
#
# Total GULP energy -421413.332707 kJ/mol
# GULP energy per Si atom -12394.509785 kJ/mol
# Density = 2.198754 g / cm^3
# Si number density = 22.037694 Si / 1000 Ang^3
#
#
#
# Elastic Constant Matrix: (Units=GPa)
#
#
# Indices 1 2 3 4 5 6 
#
# 1 100.2439 31.3790 57.9116 0.0000 0.0000 0.0000
# 2 31.3790 133.0640 73.2968 0.0000 0.0000 0.0000
# 3 57.9116 73.2968 203.6593 0.0000 0.0000 0.0000
# 4 0.0000 0.0000 0.0000 37.0498 0.0000 0.0000
# 5 0.0000 0.0000 0.0000 0.0000 30.7066 0.0000
# 6 0.0000 0.0000 0.0000 0.0000 0.0000 30.3323
#
#
#
# Elastic Compliance Matrix: (Units=1/GPa)
#
#
# Indices 1 2 3 4 5 6 
#
# 1 0.012087 -0.001194 -0.003007 0.000000 0.000000 0.000000
# 2 -0.001194 0.009491 -0.003076 0.000000 0.000000 0.000000
# 3 -0.003007 -0.003076 0.006873 0.000000 0.000000 0.000000
# 4 0.000000 0.000000 0.000000 0.026991 0.000000 0.000000
# 5 0.000000 0.000000 0.000000 0.000000 0.032566 0.000000
# 6 0.000000 0.000000 0.000000 0.000000 0.000000 0.032968
#
#
# Mechanical properties :
#
#
# Convention : Reuss Voigt Hill
#
# Bulk Modulus (GPa) = 71.96565 84.68246 78.32405
# Shear Modulus (GPa) = 35.67287 37.90972 36.79129
#
# Velocity S-wave (km/s) = 4.02770 4.15205 4.09035
# Velocity P-wave (km/s) = 7.37268 7.84192 7.61092
#
# Compressibility (1/GPa) = 0.01389552
#
# Stress axis : x y z
#
# Youngs Moduli (GPa) = 82.73581 105.35938 145.50705
#
# Poissons Ratio (x) = 0.12577 0.43758
# Poissons Ratio (y) = 0.09876 0.44765
# Poissons Ratio (z) = 0.24881 0.32414
#
# Static dielectric constant tensor:
#      x y z
#    x 3.952480 0.000000 0.000000 
#    y 0.000000 4.201690 0.000000 
#    z 0.000000 0.000000 3.941990 
# 
# 
# High freq. dielectric constant tensor:
#      x y z
#    x 1.860130 0.000000 0.000000 
#    y 0.000000 1.888700 0.000000 
#    z 0.000000 0.000000 1.878320 
# 
# From -- ./inp_files/4406.got.cif
#   From: 2010.03.12/outbox.cif.g09.slc.cpg/sg72_3_cif.got.tgz:4406.got - 2010.04.16 14:54:00.
