data_PCOD8295738
_publ_section_title
;
Structure prediction by ZEFSAII (Michael W. Deem and Ramdas Pophale) SiO2 
 PCOD8295738
Probable space group: I B C A 
;
_chemical_formula_sum "Si O2"
_cell_formula_units_Z 120
_cell_length_a 25.978745
_cell_length_b 29.683195
_cell_length_c 7.955094
_cell_angle_alpha 90.000000
_cell_angle_beta 90.000000
_cell_angle_gamma 90.000000
_cell_volume 6134.428769
_symmetry_space_group_name_H-M "I B C A "
_symmetry_group_IT_number 73
_symmetry_cell_setting 'orthorhombic'
loop_
_space_group_symop_operation_xyz
x,y,z
-x,1/2-y,z
x,-y,1/2-z
1/2-x,y,-z
-x,-y,-z
x,1/2+y,-z
-x,y,1/2+z
1/2+x,-y,z
1/2+x,1/2+y,1/2+z
1/2-x,-y,1/2+z
1/2+x,1/2-y,-z
-x,1/2+y,1/2-z
1/2-x,1/2-y,1/2-z
1/2+x,y,1/2-z
1/2-x,1/2+y,z
x,1/2-y,1/2+z
loop_
_atom_site_type_symbol
_atom_site_label
_atom_site_fract_x
_atom_site_fract_y
_atom_site_fract_z
Si Si1 0.750000 0.362183 0.000000
Si Si2 0.883876 0.194798 0.253612
Si Si3 0.521991 0.102609 0.002728
Si Si4 0.439795 0.051542 0.200620
Si Si5 0.362819 0.111305 0.039716
Si Si6 0.267125 0.298095 0.809888
Si Si7 0.563917 0.846520 0.198487
Si Si8 0.442259 0.755468 0.538625
O O1 0.800970 0.393147 0.976135
O O2 0.745366 0.333014 0.829228
O O3 0.883823 0.142945 0.308348
O O4 0.827952 0.206562 0.188809
O O5 0.900856 0.226085 0.408086
O O6 0.923964 0.206318 0.104395
O O7 0.493116 0.062586 0.104495
O O8 0.557052 0.134812 0.115805
O O9 0.560739 0.080279 0.871451
O O10 0.479783 0.135024 0.924425
O O11 0.389835 0.063599 0.084168
O O12 0.436879 0.000000 0.250000
O O13 0.381582 0.133701 0.865781
O O14 0.250000 0.250000 0.750000
O O15 0.250000 0.310954 0.000000
O O16 0.559767 0.792000 0.194047
O O17 0.500000 0.750000 0.465859
#
# Coordination Sequence:
#
# PCOD8295738 Si02
#       8
#     8  16  16  16  16  16  16  16
#     4  10  22  42  60  82 122 152 198 256 310 358
#     4  10  23  37  48  81 113 149 201 239 282 344
#     4   9  19  34  55  85 117 147 189 232 286 351
#     4  10  19  35  62  89 115 148 187 239 300 365
#     4   9  21  40  56  79 113 150 190 245 308 343
#     4  11  21  37  62  86 113 153 207 262 308 338
#     4   9  20  33  52  76 113 155 187 231 276 336
#     4  11  23  32  51  74 114 163 196 227 275 339
#
# _framework density 19.561723000000001
#
# number of rings (size 3 to 8) (size 9 to 14) (size 15 to 20)
#    0.000    2.133    0.667    1.600   13.067    0.000 
#    4.800    0.000    0.000    1.600    0.000    0.000 
#    0.000    0.000    0.000    0.000    0.000    0.000 
#
# Total GULP energy -743584.508846 kJ/mol
# GULP energy per Si atom -12393.075147 kJ/mol
# Density = 1.951720 g / cm^3
# Si number density = 19.561723 Si / 1000 Ang^3
#
#
#
# Elastic Constant Matrix: (Units=GPa)
#
#
# Indices 1 2 3 4 5 6 
#
# 1 107.5466 28.7166 37.3248 0.0000 0.0000 0.0000
# 2 28.7166 49.9255 5.5546 0.0000 0.0000 0.0000
# 3 37.3248 5.5546 81.4555 0.0000 0.0000 0.0000
# 4 0.0000 0.0000 0.0000 19.3195 0.0000 0.0000
# 5 0.0000 0.0000 0.0000 0.0000 27.0535 0.0000
# 6 0.0000 0.0000 0.0000 0.0000 0.0000 16.6092
#
#
#
# Elastic Compliance Matrix: (Units=1/GPa)
#
#
# Indices 1 2 3 4 5 6 
#
# 1 0.013052 -0.006894 -0.005510 0.000000 0.000000 0.000000
# 2 -0.006894 0.023824 0.001534 0.000000 0.000000 0.000000
# 3 -0.005510 0.001534 0.014697 0.000000 0.000000 0.000000
# 4 0.000000 0.000000 0.000000 0.051761 0.000000 0.000000
# 5 0.000000 0.000000 0.000000 0.000000 0.036964 0.000000
# 6 0.000000 0.000000 0.000000 0.000000 0.000000 0.060208
#
#
# Mechanical properties :
#
#
# Convention : Reuss Voigt Hill
#
# Bulk Modulus (GPa) = 33.52002 42.45773 37.98887
# Shear Modulus (GPa) = 21.53409 23.75189 22.64299
#
# Velocity S-wave (km/s) = 3.32147 3.48832 3.40592
# Velocity P-wave (km/s) = 5.64644 6.16248 5.91009
#
# Compressibility (1/GPa) = 0.02983292
#
# Stress axis : x y z
#
# Youngs Moduli (GPa) = 76.61950 41.97361 68.04114
#
# Poissons Ratio (x) = 0.28937 0.37493
# Poissons Ratio (y) = 0.52822 -0.10440
# Poissons Ratio (z) = 0.42220 -0.06440
#
# Static dielectric constant tensor:
#      x y z
#    x 3.456240 0.000000 0.000000 
#    y 0.000000 3.366900 0.000000 
#    z 0.000000 0.000000 3.840550 
# 
# 
# High freq. dielectric constant tensor:
#      x y z
#    x 1.754780 0.000000 0.000000 
#    y 0.000000 1.732660 0.000000 
#    z 0.000000 0.000000 1.772700 
# 
# From -- ./inp_files/8107.got.cif
#   From: 2010.03.12/outbox.cif.g09.slc.cpg/sg73_5_cif.got.tgz:8107.got - 2010.04.16 15:25:48.
