data_PCOD8295744
_publ_section_title
;
Structure prediction by ZEFSAII (Michael W. Deem and Ramdas Pophale) SiO2 
 PCOD8295744
Probable space group: I B C A 
;
_chemical_formula_sum "Si O2"
_cell_formula_units_Z 120
_cell_length_a 26.793919
_cell_length_b 14.603409
_cell_length_c 14.647386
_cell_angle_alpha 90.000000
_cell_angle_beta 90.000000
_cell_angle_gamma 90.000000
_cell_volume 5731.266660
_symmetry_space_group_name_H-M "I B C A "
_symmetry_group_IT_number 73
_symmetry_cell_setting 'orthorhombic'
loop_
_space_group_symop_operation_xyz
x,y,z
-x,1/2-y,z
x,-y,1/2-z
1/2-x,y,-z
-x,-y,-z
x,1/2+y,-z
-x,y,1/2+z
1/2+x,-y,z
1/2+x,1/2+y,1/2+z
1/2-x,-y,1/2+z
1/2+x,1/2-y,-z
-x,1/2+y,1/2-z
1/2-x,1/2-y,1/2-z
1/2+x,y,1/2-z
1/2-x,1/2+y,z
x,1/2-y,1/2+z
loop_
_atom_site_type_symbol
_atom_site_label
_atom_site_fract_x
_atom_site_fract_y
_atom_site_fract_z
Si Si1 0.037745 0.384702 0.969930
Si Si2 0.061474 0.556395 0.077979
Si Si3 0.000000 0.750000 0.377704
Si Si4 0.137900 0.329951 0.885449
Si Si5 0.307791 0.973810 0.994010
Si Si6 0.392613 0.236452 0.806407
Si Si7 0.135040 0.559754 0.324759
Si Si8 0.853303 0.332311 0.004015
O O1 0.057503 0.485278 0.994154
O O2 0.017692 0.335096 0.060866
O O3 0.082117 0.327446 0.926547
O O4 0.992176 0.398481 0.898091
O O5 0.085319 0.502941 0.162707
O O6 0.095263 0.638341 0.042179
O O7 0.047600 0.779611 0.315478
O O8 0.131769 0.319621 0.777050
O O9 0.167653 0.424263 0.905788
O O10 0.167845 0.247302 0.936510
O O11 0.334296 0.930239 0.082421
O O12 0.250000 0.950240 0.000000
O O13 0.314955 0.083093 0.989696
O O14 0.381256 0.342617 0.786662
O O15 0.362879 0.206215 0.895721
O O16 0.166449 0.500000 0.250000
#
# Coordination Sequence:
#
# PCOD8295744 Si02
#       8
#    16  16   8  16  16  16  16  16
#     4  11  19  37  61  90 135 179 224 267 326 390
#     4  10  19  35  65  89 127 180 218 264 325 386
#     4  12  20  36  60  94 142 188 224 282 312 408
#     4  12  24  44  70  95 135 185 219 282 345 403
#     4  11  25  49  72  96 130 173 224 289 360 412
#     4  12  24  39  66 101 141 179 229 271 340 401
#     4  11  22  44  67  97 134 175 226 279 333 406
#     4  11  21  44  68  95 134 172 219 283 340 404
#
# _framework density 20.93778
#
# number of rings (size 3 to 8) (size 9 to 14) (size 15 to 20)
#    0.000    0.800    8.000    1.600    0.000    3.733 
#    2.400    0.667    0.000    0.000    0.000    0.000 
#    0.000    0.000    0.000    0.000    0.000    0.000 
#
# Total GULP energy -743820.032623 kJ/mol
# GULP energy per Si atom -12397.000544 kJ/mol
# Density = 2.089012 g / cm^3
# Si number density = 20.937780 Si / 1000 Ang^3
#
#
#
# Elastic Constant Matrix: (Units=GPa)
#
#
# Indices 1 2 3 4 5 6 
#
# 1 85.0546 19.4169 22.4458 0.0000 0.0000 0.0000
# 2 19.4169 77.7078 5.1844 0.0000 0.0000 0.0000
# 3 22.4458 5.1844 78.2452 0.0000 0.0000 0.0000
# 4 0.0000 0.0000 0.0000 39.4989 0.0000 0.0000
# 5 0.0000 0.0000 0.0000 0.0000 6.5870 0.0000
# 6 0.0000 0.0000 0.0000 0.0000 0.0000 19.4115
#
#
#
# Elastic Compliance Matrix: (Units=1/GPa)
#
#
# Indices 1 2 3 4 5 6 
#
# 1 0.013430 -0.003112 -0.003646 0.000000 0.000000 0.000000
# 2 -0.003112 0.013647 -0.000011 0.000000 0.000000 0.000000
# 3 -0.003646 -0.000011 0.013827 0.000000 0.000000 0.000000
# 4 0.000000 0.000000 0.000000 0.025317 0.000000 0.000000
# 5 0.000000 0.000000 0.000000 0.000000 0.151815 0.000000
# 6 0.000000 0.000000 0.000000 0.000000 0.000000 0.051516
#
#
# Mechanical properties :
#
#
# Convention : Reuss Voigt Hill
#
# Bulk Modulus (GPa) = 36.54458 37.23352 36.88905
# Shear Modulus (GPa) = 17.11077 26.03017 21.57047
#
# Velocity S-wave (km/s) = 2.86181 3.52975 3.21318
# Velocity P-wave (km/s) = 5.33026 5.86803 5.60560
#
# Compressibility (1/GPa) = 0.02736384
#
# Stress axis : x y z
#
# Youngs Moduli (GPa) = 74.46036 73.27511 72.32171
#
# Poissons Ratio (x) = 0.22807 0.26371
# Poissons Ratio (y) = 0.23176 0.00082
# Poissons Ratio (z) = 0.27151 0.00083
#
# Static dielectric constant tensor:
#      x y z
#    x 3.648540 0.000000 0.000000 
#    y 0.000000 3.925300 0.000000 
#    z 0.000000 0.000000 3.681180 
# 
# 
# High freq. dielectric constant tensor:
#      x y z
#    x 1.791790 0.000000 0.000000 
#    y 0.000000 1.839250 0.000000 
#    z 0.000000 0.000000 1.805800 
# 
# From -- ./inp_files/20156.got.cif
#   From: 2010.03.12/outbox.cif.g09.slc.cpg/sg73_11_cif.got.tgz:20156.got - 2010.04.16 15:25:48.
