data_PCOD8295545
_publ_section_title
;
Structure prediction by ZEFSAII (Michael W. Deem and Ramdas Pophale) SiO2 
 PCOD8295545
Probable space group: I B C A 
;
_chemical_formula_sum "Si O2"
_cell_formula_units_Z 120
_cell_length_a 20.295098
_cell_length_b 14.442095
_cell_length_c 21.750458
_cell_angle_alpha 90.000000
_cell_angle_beta 90.000000
_cell_angle_gamma 90.000000
_cell_volume 6375.140442
_symmetry_space_group_name_H-M "I B C A "
_symmetry_group_IT_number 73
_symmetry_cell_setting 'orthorhombic'
loop_
_space_group_symop_operation_xyz
x,y,z
-x,1/2-y,z
x,-y,1/2-z
1/2-x,y,-z
-x,-y,-z
x,1/2+y,-z
-x,y,1/2+z
1/2+x,-y,z
1/2+x,1/2+y,1/2+z
1/2-x,-y,1/2+z
1/2+x,1/2-y,-z
-x,1/2+y,1/2-z
1/2-x,1/2-y,1/2-z
1/2+x,y,1/2-z
1/2-x,1/2+y,z
x,1/2-y,1/2+z
loop_
_atom_site_type_symbol
_atom_site_label
_atom_site_fract_x
_atom_site_fract_y
_atom_site_fract_z
Si Si1 0.925903 0.271652 0.918721
Si Si2 0.783021 0.750117 0.935977
Si Si3 0.068939 0.950701 0.494081
Si Si4 0.688950 0.242184 0.670111
Si Si5 0.384829 0.871818 0.624779
Si Si6 0.101956 0.361087 0.022877
Si Si7 0.790282 0.896222 0.769235
Si Si8 0.500000 0.250000 0.402243
O O1 0.922821 0.356893 0.967134
O O2 0.882264 0.289820 0.857130
O O3 0.000000 0.250000 0.896600
O O4 0.896609 0.183548 0.954846
O O5 0.729452 0.718473 0.887123
O O6 0.821826 0.839742 0.914021
O O7 0.835438 0.668320 0.937993
O O8 0.750000 0.775804 0.000000
O O9 0.081361 0.944166 0.420876
O O10 0.116368 0.029619 0.521200
O O11 0.000000 0.000000 0.500000
O O12 0.726433 0.153986 0.700609
O O13 0.682688 0.329229 0.715684
O O14 0.354793 0.910846 0.687602
O O15 0.441022 0.793297 0.638905
O O16 0.031960 0.329704 0.053958
O O17 0.768392 0.000000 0.750000
#
# Coordination Sequence:
#
# PCOD8295545 Si02
#       8
#    16  16  16  16  16  16  16   8
#     4  12  21  37  61  89 128 156 190 244 308 374
#     4  10  18  34  59  85 117 151 191 243 304 370
#     4  12  20  32  57  93 128 158 190 238 315 372
#     4  10  23  43  62  86 119 160 208 258 304 354
#     4  10  20  34  58  83 115 160 203 244 298 365
#     4  11  19  31  54  89 123 152 183 234 308 370
#     4  10  24  43  65  83 116 165 216 261 302 349
#     4  10  16  36  54  80 124 158 188 240 304 370
#
# _framework density 18.823115999999999
#
# number of rings (size 3 to 8) (size 9 to 14) (size 15 to 20)
#    0.000    1.333    7.333    0.000    1.867    1.067 
#    1.200    2.000    0.000    0.800    0.000    0.000 
#    0.000    0.000    0.000    0.000    0.000    0.000 
#
# Total GULP energy -743315.989169 kJ/mol
# GULP energy per Si atom -12388.599819 kJ/mol
# Density = 1.878027 g / cm^3
# Si number density = 18.823116 Si / 1000 Ang^3
#
#
#
# Elastic Constant Matrix: (Units=GPa)
#
#
# Indices 1 2 3 4 5 6 
#
# 1 106.5400 33.9282 54.5986 0.0000 0.0000 0.0000
# 2 33.9282 106.5683 39.4145 0.0000 0.0000 0.0000
# 3 54.5986 39.4145 103.9312 0.0000 0.0000 0.0000
# 4 0.0000 0.0000 0.0000 17.4023 0.0000 0.0000
# 5 0.0000 0.0000 0.0000 0.0000 32.3464 0.0000
# 6 0.0000 0.0000 0.0000 0.0000 0.0000 15.7834
#
#
#
# Elastic Compliance Matrix: (Units=1/GPa)
#
#
# Indices 1 2 3 4 5 6 
#
# 1 0.013167 -0.001900 -0.006196 0.000000 0.000000 0.000000
# 2 -0.001900 0.011189 -0.003245 0.000000 0.000000 0.000000
# 3 -0.006196 -0.003245 0.014107 0.000000 0.000000 0.000000
# 4 0.000000 0.000000 0.000000 0.057464 0.000000 0.000000
# 5 0.000000 0.000000 0.000000 0.000000 0.030915 0.000000
# 6 0.000000 0.000000 0.000000 0.000000 0.000000 0.063358
#
#
# Mechanical properties :
#
#
# Convention : Reuss Voigt Hill
#
# Bulk Modulus (GPa) = 63.37105 63.65801 63.51453
# Shear Modulus (GPa) = 22.92081 25.71298 24.31689
#
# Velocity S-wave (km/s) = 3.49333 3.70000 3.59815
# Velocity P-wave (km/s) = 7.07184 7.22120 7.14691
#
# Compressibility (1/GPa) = 0.01578008
#
# Stress axis : x y z
#
# Youngs Moduli (GPa) = 75.94922 89.37540 70.88436
#
# Poissons Ratio (x) = 0.16983 0.43922
# Poissons Ratio (y) = 0.14432 0.23002
# Poissons Ratio (z) = 0.47060 0.29002
#
# Static dielectric constant tensor:
#      x y z
#    x 3.736350 0.000000 0.000000 
#    y 0.000000 -3.993480 0.000000 
#    z 0.000000 0.000000 3.285910 
# 
# 
# High freq. dielectric constant tensor:
#      x y z
#    x 1.744190 0.000000 0.000000 
#    y 0.000000 1.721320 0.000000 
#    z 0.000000 0.000000 1.711120 
# 
# From -- ./inp_files/27004.got.cif
#   From: 2010.03.12/outbox.cif.g09.slc.cpg/sg73_14_cif.got.tgz:27004.got - 2010.04.16 15:25:48.
