data_PCOD8295754
_publ_section_title
;
Structure prediction by ZEFSAII (Michael W. Deem and Ramdas Pophale) SiO2 
 PCOD8295754
Probable space group: I B C A 
;
_chemical_formula_sum "Si O2"
_cell_formula_units_Z 96
_cell_length_a 22.653123
_cell_length_b 11.115640
_cell_length_c 18.288394
_cell_angle_alpha 90.000000
_cell_angle_beta 90.000000
_cell_angle_gamma 90.000000
_cell_volume 4605.090034
_symmetry_space_group_name_H-M "I B C A "
_symmetry_group_IT_number 73
_symmetry_cell_setting 'orthorhombic'
loop_
_space_group_symop_operation_xyz
x,y,z
-x,1/2-y,z
x,-y,1/2-z
1/2-x,y,-z
-x,-y,-z
x,1/2+y,-z
-x,y,1/2+z
1/2+x,-y,z
1/2+x,1/2+y,1/2+z
1/2-x,-y,1/2+z
1/2+x,1/2-y,-z
-x,1/2+y,1/2-z
1/2-x,1/2-y,1/2-z
1/2+x,y,1/2-z
1/2-x,1/2+y,z
x,1/2-y,1/2+z
loop_
_atom_site_type_symbol
_atom_site_label
_atom_site_fract_x
_atom_site_fract_y
_atom_site_fract_z
Si Si1 0.343704 0.854088 0.064011
Si Si2 0.268576 0.358788 0.417672
Si Si3 0.875055 0.972727 0.582494
Si Si4 0.932729 0.746938 0.640229
Si Si5 0.941196 0.315293 0.027824
Si Si6 0.339392 0.061856 0.174583
O O1 0.282707 0.784250 0.081633
O O2 0.391841 0.751560 0.073896
O O3 0.359298 0.959941 0.118651
O O4 0.343625 0.898328 0.981259
O O5 0.250000 0.400822 0.500000
O O6 0.323217 0.440299 0.387711
O O7 0.215852 0.369283 0.360320
O O8 0.902209 0.879678 0.641982
O O9 0.932670 0.045103 0.550943
O O10 0.933356 0.695085 0.558573
O O11 0.893014 0.655705 0.688144
O O12 0.000000 0.750000 0.671263
O O13 0.000000 0.250000 0.054392
O O14 0.320869 0.000000 0.250000
#
# Coordination Sequence:
#
# PCOD8295754 Si02
#       6
#    16  16  16  16  16  16
#     4  10  21  36  57  89 124 156 207 253 316 382
#     4  11  22  38  64  93 122 168 204 266 325 376
#     4  10  19  36  62  97 126 154 210 264 318 388
#     4  10  22  38  63  90 123 167 207 261 328 380
#     4   9  18  32  62  98 123 153 200 271 327 367
#     4  12  26  42  61  89 126 171 213 260 321 388
#
# _framework density 20.846498
#
# number of rings (size 3 to 8) (size 9 to 14) (size 15 to 20)
#    0.000    1.667    3.333    2.000    7.000    2.667 
#    0.000    0.833    0.000    0.000    0.000    0.000 
#    0.000    0.000    0.000    0.000    0.000    0.000 
#
# Total GULP energy -594875.755726 kJ/mol
# GULP energy per Si atom -12393.244911 kJ/mol
# Density = 2.079905 g / cm^3
# Si number density = 20.846498 Si / 1000 Ang^3
#
#
#
# Elastic Constant Matrix: (Units=GPa)
#
#
# Indices 1 2 3 4 5 6 
#
# 1 120.7421 47.6631 33.7815 0.0000 0.0000 0.0000
# 2 47.6631 109.0853 10.7474 0.0000 0.0000 0.0000
# 3 33.7815 10.7474 28.1095 0.0000 0.0000 0.0000
# 4 0.0000 0.0000 0.0000 6.8261 0.0000 0.0000
# 5 0.0000 0.0000 0.0000 0.0000 9.3897 0.0000
# 6 0.0000 0.0000 0.0000 0.0000 0.0000 23.3835
#
#
#
# Elastic Compliance Matrix: (Units=1/GPa)
#
#
# Indices 1 2 3 4 5 6 
#
# 1 0.014568 -0.004822 -0.015664 0.000000 0.000000 0.000000
# 2 -0.004822 0.011122 0.001543 0.000000 0.000000 0.000000
# 3 -0.015664 0.001543 0.053810 0.000000 0.000000 0.000000
# 4 0.000000 0.000000 0.000000 0.146496 0.000000 0.000000
# 5 0.000000 0.000000 0.000000 0.000000 0.106500 0.000000
# 6 0.000000 0.000000 0.000000 0.000000 0.000000 0.042765
#
#
# Mechanical properties :
#
#
# Convention : Reuss Voigt Hill
#
# Bulk Modulus (GPa) = 24.03073 49.14677 36.58875
# Shear Modulus (GPa) = 11.70906 18.96953 15.33929
#
# Velocity S-wave (km/s) = 2.37255 3.01983 2.71555
# Velocity P-wave (km/s) = 4.36553 5.98213 5.23659
#
# Compressibility (1/GPa) = 0.04161338
#
# Stress axis : x y z
#
# Youngs Moduli (GPa) = 68.64290 89.91132 18.58385
#
# Poissons Ratio (x) = 0.43356 0.29110
# Poissons Ratio (y) = 0.33100 -0.02867
# Poissons Ratio (z) = 1.07523 -0.13870
#
# Static dielectric constant tensor:
#      x y z
#    x 4.210480 0.000000 0.000000 
#    y 0.000000 4.482900 0.000000 
#    z 0.000000 0.000000 3.242270 
# 
# 
# High freq. dielectric constant tensor:
#      x y z
#    x 1.825890 0.000000 0.000000 
#    y 0.000000 1.839810 0.000000 
#    z 0.000000 0.000000 1.747200 
# 
# From -- ./inp_files/12015.got.cif
#   From: 2010.03.12/outbox.cif.g09.slc.cpg/sg73_7_cif.got.tgz:12015.got - 2010.04.16 15:25:48.
