data_PCOD8295834
_publ_section_title
;
Structure prediction by ZEFSAII (Michael W. Deem and Ramdas Pophale) SiO2 
 PCOD8295834
Probable space group: I B C A 
;
_chemical_formula_sum "Si O2"
_cell_formula_units_Z 104
_cell_length_a 22.804994
_cell_length_b 26.427230
_cell_length_c 8.777724
_cell_angle_alpha 90.000000
_cell_angle_beta 90.000000
_cell_angle_gamma 90.000000
_cell_volume 5290.095690
_symmetry_space_group_name_H-M "I B C A "
_symmetry_group_IT_number 73
_symmetry_cell_setting 'orthorhombic'
loop_
_space_group_symop_operation_xyz
x,y,z
-x,1/2-y,z
x,-y,1/2-z
1/2-x,y,-z
-x,-y,-z
x,1/2+y,-z
-x,y,1/2+z
1/2+x,-y,z
1/2+x,1/2+y,1/2+z
1/2-x,-y,1/2+z
1/2+x,1/2-y,-z
-x,1/2+y,1/2-z
1/2-x,1/2-y,1/2-z
1/2+x,y,1/2-z
1/2-x,1/2+y,z
x,1/2-y,1/2+z
loop_
_atom_site_type_symbol
_atom_site_label
_atom_site_fract_x
_atom_site_fract_y
_atom_site_fract_z
Si Si1 0.987324 0.914659 0.247789
Si Si2 0.560723 0.814106 0.263823
Si Si3 0.500000 0.250000 0.482513
Si Si4 0.237462 0.553838 0.177060
Si Si5 0.345714 0.609443 0.262936
Si Si6 0.424855 0.044929 0.539886
Si Si7 0.882963 0.064060 0.443779
O O1 0.962692 0.927334 0.411988
O O2 0.934971 0.904204 0.130066
O O3 0.024006 0.864228 0.261178
O O4 0.030460 0.959131 0.183886
O O5 0.540083 0.787370 0.418425
O O6 0.629910 0.832298 0.274545
O O7 0.548650 0.778035 0.120530
O O8 0.254500 0.500000 0.250000
O O9 0.275061 0.599846 0.255898
O O10 0.168407 0.566078 0.184704
O O11 0.250000 0.548645 0.000000
O O12 0.368951 0.577993 0.408135
O O13 0.368705 0.587771 0.104209
O O14 0.402150 0.993204 0.472047
#
# Coordination Sequence:
#
# PCOD8295834 Si02
#       7
#    16  16   8  16  16  16  16
#     4  11  21  33  51  78 113 145 180 223 266 322
#     4  10  20  35  54  81 102 130 168 216 285 346
#     4  10  20  36  58  78 104 126 160 222 294 364
#     4  10  20  34  52  75 108 152 195 225 251 290
#     4  10  20  35  53  74 106 142 184 230 265 311
#     4  11  21  33  50  76 115 156 187 219 259 308
#     4  11  21  33  49  77 113 156 192 218 250 299
#
# _framework density 19.659379999999999
#
# number of rings (size 3 to 8) (size 9 to 14) (size 15 to 20)
#    0.000    1.538    0.000    8.769    0.000    2.462 
#    0.000    0.000    0.000    0.000    0.000   29.077 
#    0.000    0.000    0.000    0.000    0.000    0.000 
#
# Total GULP energy -644306.054599 kJ/mol
# GULP energy per Si atom -12390.501050 kJ/mol
# Density = 1.961463 g / cm^3
# Si number density = 19.659380 Si / 1000 Ang^3
#
#
#
# Elastic Constant Matrix: (Units=GPa)
#
#
# Indices 1 2 3 4 5 6 
#
# 1 104.8229 25.3117 16.4735 0.0000 0.0000 0.0000
# 2 25.3117 51.4408 11.9175 0.0000 0.0000 0.0000
# 3 16.4735 11.9175 68.9718 0.0000 0.0000 0.0000
# 4 0.0000 0.0000 0.0000 29.3169 0.0000 0.0000
# 5 0.0000 0.0000 0.0000 0.0000 16.9559 0.0000
# 6 0.0000 0.0000 0.0000 0.0000 0.0000 12.6309
#
#
#
# Elastic Compliance Matrix: (Units=1/GPa)
#
#
# Indices 1 2 3 4 5 6 
#
# 1 0.011029 -0.005018 -0.001767 0.000000 0.000000 0.000000
# 2 -0.005018 0.022533 -0.002695 0.000000 0.000000 0.000000
# 3 -0.001767 -0.002695 0.015386 0.000000 0.000000 0.000000
# 4 0.000000 0.000000 0.000000 0.034110 0.000000 0.000000
# 5 0.000000 0.000000 0.000000 0.000000 0.058977 0.000000
# 6 0.000000 0.000000 0.000000 0.000000 0.000000 0.079171
#
#
# Mechanical properties :
#
#
# Convention : Reuss Voigt Hill
#
# Bulk Modulus (GPa) = 33.34554 36.96010 35.15282
# Shear Modulus (GPa) = 19.98701 23.21625 21.60163
#
# Velocity S-wave (km/s) = 3.19198 3.44019 3.31840
# Velocity P-wave (km/s) = 5.53023 5.88395 5.70983
#
# Compressibility (1/GPa) = 0.02998902
#
# Stress axis : x y z
#
# Youngs Moduli (GPa) = 90.66818 44.37911 64.99218
#
# Poissons Ratio (x) = 0.22267 0.11486
# Poissons Ratio (y) = 0.45493 0.17516
# Poissons Ratio (z) = 0.16024 0.11960
#
# Static dielectric constant tensor:
#      x y z
#    x 4.494720 0.000000 0.000000 
#    y 0.000000 3.841250 0.000000 
#    z 0.000000 0.000000 2.555390 
# 
# 
# High freq. dielectric constant tensor:
#      x y z
#    x 1.764610 0.000000 0.000000 
#    y 0.000000 1.727240 0.000000 
#    z 0.000000 0.000000 1.787400 
# 
# From -- ./inp_files/7312.got.cif
#   From: 2010.03.12/outbox.cif.g09.slc.cpg/sg73_4_cif.got.tgz:7312.got - 2010.04.16 15:25:48.
