data_PCOD8295554
_publ_section_title
;
Structure prediction by ZEFSAII (Michael W. Deem and Ramdas Pophale) SiO2 
 PCOD8295554
Probable space group: I B C A 
;
_chemical_formula_sum "Si O2"
_cell_formula_units_Z 96
_cell_length_a 5.273143
_cell_length_b 32.509753
_cell_length_c 32.860666
_cell_angle_alpha 90.000000
_cell_angle_beta 90.000000
_cell_angle_gamma 90.000000
_cell_volume 5633.257194
_symmetry_space_group_name_H-M "I B C A "
_symmetry_group_IT_number 73
_symmetry_cell_setting 'orthorhombic'
loop_
_space_group_symop_operation_xyz
x,y,z
-x,1/2-y,z
x,-y,1/2-z
1/2-x,y,-z
-x,-y,-z
x,1/2+y,-z
-x,y,1/2+z
1/2+x,-y,z
1/2+x,1/2+y,1/2+z
1/2-x,-y,1/2+z
1/2+x,1/2-y,-z
-x,1/2+y,1/2-z
1/2-x,1/2-y,1/2-z
1/2+x,y,1/2-z
1/2-x,1/2+y,z
x,1/2-y,1/2+z
loop_
_atom_site_type_symbol
_atom_site_label
_atom_site_fract_x
_atom_site_fract_y
_atom_site_fract_z
Si Si1 0.000000 0.250000 0.973449
Si Si2 0.613740 0.095263 0.041008
Si Si3 0.493565 0.701139 0.634359
Si Si4 0.750000 0.966761 0.000000
Si Si5 0.998566 0.798663 0.771546
Si Si6 0.507261 0.823425 0.911662
Si Si7 0.700327 0.016141 0.076532
O O1 0.009430 0.209663 0.946818
O O2 0.250000 0.251860 0.000000
O O3 0.508532 0.132494 0.067372
O O4 0.779670 0.064423 0.070142
O O5 0.750000 0.111906 0.000000
O O6 0.393036 0.064764 0.029121
O O7 0.500000 0.750000 0.626980
O O8 0.507063 0.689210 0.681413
O O9 0.731152 0.679476 0.612964
O O10 0.231030 0.683436 0.617628
O O11 0.598350 0.996090 0.032321
O O12 0.750082 0.817335 0.749540
O O13 0.000000 0.750000 0.766047
O O14 0.431219 0.007621 0.099844
#
# Coordination Sequence:
#
# PCOD8295554 Si02
#       7
#     8  16  16   8  16  16  16
#     4  12  24  40  50  60  84 128 194 232 246 272
#     4  11  21  32  48  70  91 121 176 227 244 292
#     4  11  21  40  53  69 102 132 159 199 260 318
#     4  10  18  32  50  68  90 118 162 220 272 302
#     4   9  17  30  55  82  95 113 152 197 235 296
#     4  12  25  35  52  68  94 136 171 213 273 278
#     4  10  17  31  49  67  90 114 149 209 264 314
#
# _framework density 17.041650000000001
#
# number of rings (size 3 to 8) (size 9 to 14) (size 15 to 20)
#    0.000    1.333    4.167    3.500    3.500    2.667 
#    0.000    0.000    0.000    0.000    0.000    0.000 
#    0.000    0.000    0.000    0.000    0.000  233.333 
#
# Total GULP energy -594816.899338 kJ/mol
# GULP energy per Si atom -12392.018736 kJ/mol
# Density = 1.700286 g / cm^3
# Si number density = 17.041650 Si / 1000 Ang^3
#
#
#
# Elastic Constant Matrix: (Units=GPa)
#
#
# Indices 1 2 3 4 5 6 
#
# 1 105.0178 13.9115 37.5637 0.0000 0.0000 0.0000
# 2 13.9115 95.9140 34.8710 0.0000 0.0000 0.0000
# 3 37.5637 34.8710 77.0373 0.0000 0.0000 0.0000
# 4 0.0000 0.0000 0.0000 17.9710 0.0000 0.0000
# 5 0.0000 0.0000 0.0000 0.0000 27.8198 0.0000
# 6 0.0000 0.0000 0.0000 0.0000 0.0000 -31.7259
#
#
#
# Elastic Compliance Matrix: (Units=1/GPa)
#
#
# Indices 1 2 3 4 5 6 
#
# 1 0.011550 0.000446 -0.005833 0.000000 0.000000 0.000000
# 2 0.000446 0.012497 -0.005874 0.000000 0.000000 0.000000
# 3 -0.005833 -0.005874 0.018484 0.000000 0.000000 0.000000
# 4 0.000000 0.000000 0.000000 0.055645 0.000000 0.000000
# 5 0.000000 0.000000 0.000000 0.000000 0.035946 0.000000
# 6 0.000000 0.000000 0.000000 0.000000 0.000000 -0.031520
#
#
# Mechanical properties :
#
#
# Convention : Reuss Voigt Hill
#
# Bulk Modulus (GPa) = 49.98243 50.07353 50.02798
# Shear Modulus (GPa) = 37.93788 15.58782 26.76285
#
# Velocity S-wave (km/s) = 4.72337 3.02766 3.96717
# Velocity P-wave (km/s) = 7.69026 6.45516 7.09962
#
# Compressibility (1/GPa) = 0.02000703
#
# Stress axis : x y z
#
# Youngs Moduli (GPa) = 86.58225 80.01938 54.10080
#
# Poissons Ratio (x) = -0.03566 0.31559
# Poissons Ratio (y) = -0.03858 0.31779
# Poissons Ratio (z) = 0.50507 0.47004
#
# Static dielectric constant tensor:
#      x y z
#    x 2.876720 0.000000 0.000000 
#    y 0.000000 3.085250 0.000000 
#    z 0.000000 0.000000 2.922270 
# 
# 
# High freq. dielectric constant tensor:
#      x y z
#    x 1.688930 0.000000 0.000000 
#    y 0.000000 1.636640 0.000000 
#    z 0.000000 0.000000 1.612450 
# 
# From -- ./inp_files/33335.got.cif
#   From: 2010.03.12/outbox.cif.g09.slc.cpg/sg73_17_cif.got.tgz:33335.got - 2010.04.16 15:25:48.
