data_PCOD8295360
_publ_section_title
;
Structure prediction by ZEFSAII (Michael W. Deem and Ramdas Pophale) SiO2 
 PCOD8295360
Probable space group: I B A M
;
_chemical_formula_sum "Si O2"
_cell_formula_units_Z 64
_cell_length_a 12.064120
_cell_length_b 15.278033
_cell_length_c 15.813513
_cell_angle_alpha 90.000000
_cell_angle_beta 90.000000
_cell_angle_gamma 90.000000
_cell_volume 2914.683833
_symmetry_space_group_name_H-M "I B A M"
_symmetry_group_IT_number 72
_symmetry_cell_setting 'orthorhombic'
loop_
_space_group_symop_operation_xyz
x,y,z
-x,-y,z
x,-y,1/2-z
-x,y,1/2-z
-x,-y,-z
x,y,-z
-x,y,1/2+z
x,-y,1/2+z
1/2+x,1/2+y,1/2+z
1/2-x,1/2-y,1/2+z
1/2+x,1/2-y,-z
1/2-x,1/2+y,-z
1/2-x,1/2-y,1/2-z
1/2+x,1/2+y,1/2-z
1/2-x,1/2+y,z
1/2+x,1/2-y,z
loop_
_atom_site_type_symbol
_atom_site_label
_atom_site_fract_x
_atom_site_fract_y
_atom_site_fract_z
Si Si1 0.629000 0.015799 0.500000
Si Si2 0.325106 0.068507 0.324865
Si Si3 0.354394 0.695248 0.364143
Si Si4 0.500000 0.184292 0.250000
Si Si5 0.250452 0.688764 0.000000
Si Si6 0.006326 0.105585 0.000000
O O1 0.684445 0.974199 0.417175
O O2 0.500000 0.000000 0.500000
O O3 0.650811 0.119036 0.500000
O O4 0.215317 0.125518 0.310618
O O5 0.437867 0.124697 0.319452
O O6 0.327059 0.000000 0.250000
O O7 0.410307 0.758477 0.297518
O O8 0.264944 0.749617 0.418750
O O9 0.447261 0.644891 0.417840
O O10 0.367182 0.638738 0.000000
O O11 0.000000 0.000000 0.000000
#
# Coordination Sequence:
#
# PCOD8295360 Si02
#       6
#     8  16  16   8   8   8
#     4  12  24  42  70  98 132 178 226 285 346 405
#     4  12  25  44  67 100 135 174 227 282 340 410
#     4  11  25  42  66  95 132 178 221 280 345 411
#     4  12  25  42  65  96 134 178 226 278 343 418
#     4  11  22  43  68  97 133 174 226 283 339 410
#     4  11  24  43  67  97 130 172 228 282 344 417
#
# _framework density 21.957785000000001
#
# number of rings (size 3 to 8) (size 9 to 14) (size 15 to 20)
#    0.000    0.500    0.000   10.125    0.000    7.000 
#    0.000    0.000    0.000    0.000    0.000    0.000 
#    0.000    0.000    0.000    0.000    0.000    0.000 
#
# Total GULP energy -397003.806805 kJ/mol
# GULP energy per Si atom -12406.368963 kJ/mol
# Density = 2.190781 g / cm^3
# Si number density = 21.957785 Si / 1000 Ang^3
#
#
#
# Elastic Constant Matrix: (Units=GPa)
#
#
# Indices 1 2 3 4 5 6 
#
# 1 121.9514 49.1571 26.7668 0.0000 0.0000 0.0000
# 2 49.1571 125.7938 45.6184 0.0000 0.0000 0.0000
# 3 26.7668 45.6184 124.0725 0.0000 0.0000 0.0000
# 4 0.0000 0.0000 0.0000 12.1463 0.0000 0.0000
# 5 0.0000 0.0000 0.0000 0.0000 78.7942 0.0000
# 6 0.0000 0.0000 0.0000 0.0000 0.0000 51.1666
#
#
#
# Elastic Compliance Matrix: (Units=1/GPa)
#
#
# Indices 1 2 3 4 5 6 
#
# 1 0.009804 -0.003536 -0.000815 0.000000 0.000000 0.000000
# 2 -0.003536 0.010448 -0.003079 0.000000 0.000000 0.000000
# 3 -0.000815 -0.003079 0.009368 0.000000 0.000000 0.000000
# 4 0.000000 0.000000 0.000000 0.082330 0.000000 0.000000
# 5 0.000000 0.000000 0.000000 0.000000 0.012691 0.000000
# 6 0.000000 0.000000 0.000000 0.000000 0.000000 0.019544
#
#
# Mechanical properties :
#
#
# Convention : Reuss Voigt Hill
#
# Bulk Modulus (GPa) = 67.74778 68.32248 68.03513
# Shear Modulus (GPa) = 30.49473 45.10645 37.80059
#
# Velocity S-wave (km/s) = 3.73069 4.53728 4.15361
# Velocity P-wave (km/s) = 7.03406 7.65717 7.35222
#
# Compressibility (1/GPa) = 0.01476063
#
# Stress axis : x y z
#
# Youngs Moduli (GPa) = 101.99872 95.71621 106.75127
#
# Poissons Ratio (x) = 0.33841 0.08702
# Poissons Ratio (y) = 0.36062 0.32864
# Poissons Ratio (z) = 0.08314 0.29467
#
# Static dielectric constant tensor:
#      x y z
#    x 3.979140 0.000000 0.000000 
#    y 0.000000 4.299690 0.000000 
#    z 0.000000 0.000000 4.681580 
# 
# 
# High freq. dielectric constant tensor:
#      x y z
#    x 1.874940 0.000000 0.000000 
#    y 0.000000 1.885650 0.000000 
#    z 0.000000 0.000000 1.867000 
# 
# From -- ./inp_files/28866.got.cif
#   From: 2010.03.12/outbox.cif.g09.slc.cpg/sg72_15_cif.got.tgz:28866.got - 2010.04.16 14:54:00.
