data_PCOD8295037
_publ_section_title
;
Structure prediction by ZEFSAII (Michael W. Deem and Ramdas Pophale) SiO2 
 PCOD8295037
Probable space group: I B A M
;
_chemical_formula_sum "Si O2"
_cell_formula_units_Z 64
_cell_length_a 15.858417
_cell_length_b 8.598178
_cell_length_c 18.525306
_cell_angle_alpha 90.000000
_cell_angle_beta 90.000000
_cell_angle_gamma 90.000000
_cell_volume 2525.990167
_symmetry_space_group_name_H-M "I B A M"
_symmetry_group_IT_number 72
_symmetry_cell_setting 'orthorhombic'
loop_
_space_group_symop_operation_xyz
x,y,z
-x,-y,z
x,-y,1/2-z
-x,y,1/2-z
-x,-y,-z
x,y,-z
-x,y,1/2+z
x,-y,1/2+z
1/2+x,1/2+y,1/2+z
1/2-x,1/2-y,1/2+z
1/2+x,1/2-y,-z
1/2-x,1/2+y,-z
1/2-x,1/2-y,1/2-z
1/2+x,1/2+y,1/2-z
1/2-x,1/2+y,z
1/2+x,1/2-y,z
loop_
_atom_site_type_symbol
_atom_site_label
_atom_site_fract_x
_atom_site_fract_y
_atom_site_fract_z
Si Si1 0.431259 0.612421 0.640419
Si Si2 0.044963 0.351640 0.919456
Si Si3 0.681027 0.156368 0.707913
Si Si4 0.807349 0.138823 0.585421
O O1 0.500000 0.500000 0.677899
O O2 0.479400 0.709301 0.578459
O O3 0.400067 0.732099 0.702082
O O4 0.354306 0.522186 0.603518
O O5 0.000000 0.500000 0.878437
O O6 0.134236 0.286229 0.887067
O O7 0.065795 0.406124 0.000000
O O8 0.750000 0.250000 0.750000
O O9 0.718216 0.129322 0.627057
O O10 0.655833 0.000000 0.750000
O O11 0.789974 0.149496 0.500000
#
# Coordination Sequence:
#
# PCOD8295037 Si02
#       4
#    16  16  16  16
#     4  10  22  44  72 100 144 193 250 304 372 440
#     4   9  19  36  64 102 142 186 248 314 361 430
#     4  12  26  47  71 104 156 196 241 310 374 451
#     4  10  22  42  69 103 143 196 254 309 377 442
#
# _framework density 25.336599
#
# number of rings (size 3 to 8) (size 9 to 14) (size 15 to 20)
#    0.000    1.750    2.500    0.750    3.500    5.000 
#    0.000    8.750    0.000    0.000    0.000    0.000 
#    0.000    1.000    0.000    0.000    0.000    0.000 
#
# Total GULP energy -396526.202421 kJ/mol
# GULP energy per Si atom -12391.443826 kJ/mol
# Density = 2.527893 g / cm^3
# Si number density = 25.336599 Si / 1000 Ang^3
#
#
#
# Elastic Constant Matrix: (Units=GPa)
#
#
# Indices 1 2 3 4 5 6 
#
# 1 96.6877 61.1564 38.3451 0.0000 0.0000 0.0000
# 2 61.1564 174.8139 50.9386 0.0000 0.0000 0.0000
# 3 38.3451 50.9386 91.1151 0.0000 0.0000 0.0000
# 4 0.0000 0.0000 0.0000 40.1651 0.0000 0.0000
# 5 0.0000 0.0000 0.0000 0.0000 18.9321 0.0000
# 6 0.0000 0.0000 0.0000 0.0000 0.0000 54.5451
#
#
#
# Elastic Compliance Matrix: (Units=1/GPa)
#
#
# Indices 1 2 3 4 5 6 
#
# 1 0.014333 -0.003890 -0.003857 0.000000 0.000000 0.000000
# 2 -0.003890 0.007889 -0.002773 0.000000 0.000000 0.000000
# 3 -0.003857 -0.002773 0.014149 0.000000 0.000000 0.000000
# 4 0.000000 0.000000 0.000000 0.024897 0.000000 0.000000
# 5 0.000000 0.000000 0.000000 0.000000 0.052820 0.000000
# 6 0.000000 0.000000 0.000000 0.000000 0.000000 0.018333
#
#
# Mechanical properties :
#
#
# Convention : Reuss Voigt Hill
#
# Bulk Modulus (GPa) = 65.23285 73.72188 69.47737
# Shear Modulus (GPa) = 31.53108 36.87356 34.20232
#
# Velocity S-wave (km/s) = 3.53156 3.81904 3.67811
# Velocity P-wave (km/s) = 6.51395 6.97187 6.74680
#
# Compressibility (1/GPa) = 0.01532970
#
# Stress axis : x y z
#
# Youngs Moduli (GPa) = 69.76965 126.75075 70.67705
#
# Poissons Ratio (x) = 0.49310 0.27260
# Poissons Ratio (y) = 0.27142 0.19602
# Poissons Ratio (z) = 0.26910 0.35154
#
# Static dielectric constant tensor:
#      x y z
#    x -2.310790 0.000000 0.000000 
#    y 0.000000 5.039020 0.000000 
#    z 0.000000 0.000000 4.241230 
# 
# 
# High freq. dielectric constant tensor:
#      x y z
#    x 2.008440 0.000000 0.000000 
#    y 0.000000 2.031800 0.000000 
#    z 0.000000 0.000000 1.982040 
# 
# From -- ./inp_files/38631.got.cif
#   From: 2010.03.12/outbox.cif.g09.slc.cpg/sg72_20_cif.got.tgz:38631.got - 2010.04.16 14:54:00.
