data_PCOD8295826
_publ_section_title
;
Structure prediction by ZEFSAII (Michael W. Deem and Ramdas Pophale) SiO2 
 PCOD8295826
Probable space group: I B C A 
;
_chemical_formula_sum "Si O2"
_cell_formula_units_Z 88
_cell_length_a 25.396042
_cell_length_b 9.006002
_cell_length_c 20.510717
_cell_angle_alpha 90.000000
_cell_angle_beta 90.000000
_cell_angle_gamma 90.000000
_cell_volume 4691.145661
_symmetry_space_group_name_H-M "I B C A "
_symmetry_group_IT_number 73
_symmetry_cell_setting 'orthorhombic'
loop_
_space_group_symop_operation_xyz
x,y,z
-x,1/2-y,z
x,-y,1/2-z
1/2-x,y,-z
-x,-y,-z
x,1/2+y,-z
-x,y,1/2+z
1/2+x,-y,z
1/2+x,1/2+y,1/2+z
1/2-x,-y,1/2+z
1/2+x,1/2-y,-z
-x,1/2+y,1/2-z
1/2-x,1/2-y,1/2-z
1/2+x,y,1/2-z
1/2-x,1/2+y,z
x,1/2-y,1/2+z
loop_
_atom_site_type_symbol
_atom_site_label
_atom_site_fract_x
_atom_site_fract_y
_atom_site_fract_z
Si Si1 0.050594 0.336226 0.677464
Si Si2 0.250000 0.958039 0.000000
Si Si3 0.157762 0.337758 0.337071
Si Si4 0.265420 0.791239 0.591546
Si Si5 0.447725 0.170467 0.667243
Si Si6 0.344148 0.684216 0.686941
O O1 0.048813 0.336601 0.755225
O O2 0.053776 0.498980 0.644494
O O3 0.101767 0.244697 0.657712
O O4 0.000000 0.250000 0.649284
O O5 0.282206 0.064572 0.950682
O O6 0.217039 0.849491 0.952828
O O7 0.203668 0.287883 0.387215
O O8 0.102711 0.262660 0.359550
O O9 0.156588 0.514826 0.335522
O O10 0.166172 0.285899 0.262911
O O11 0.298300 0.785205 0.657052
O O12 0.500000 0.250000 0.639192
#
# Coordination Sequence:
#
# PCOD8295826 Si02
#       6
#    16   8  16  16  16  16
#     4   9  17  29  47  74 109 144 175 206 254 321
#     4  10  24  38  58  70 102 142 192 220 264 304
#     4  10  20  33  53  81 113 142 170 216 272 321
#     4  11  21  40  54  80 103 141 180 226 262 321
#     4   9  17  29  47  74 109 144 175 206 254 321
#     4  10  20  33  53  81 113 142 170 216 272 321
#
# _framework density 18.758744
#
# number of rings (size 3 to 8) (size 9 to 14) (size 15 to 20)
#    0.000    2.182    1.818    1.636    2.545    4.364 
#    0.000    0.000    0.000    0.000    0.000    7.636 
#    0.000    0.000    0.000    0.000    0.000    0.000 
#
# Total GULP energy -545110.777768 kJ/mol
# GULP energy per Si atom -12388.881313 kJ/mol
# Density = 1.871605 g / cm^3
# Si number density = 18.758744 Si / 1000 Ang^3
#
#
#
# Elastic Constant Matrix: (Units=GPa)
#
#
# Indices 1 2 3 4 5 6 
#
# 1 124.6039 34.4095 36.2365 0.0000 0.0000 0.0000
# 2 34.4095 99.8462 34.2767 0.0000 0.0000 0.0000
# 3 36.2365 34.2767 51.5846 0.0000 0.0000 0.0000
# 4 0.0000 0.0000 0.0000 18.7638 0.0000 0.0000
# 5 0.0000 0.0000 0.0000 0.0000 1.6277 0.0000
# 6 0.0000 0.0000 0.0000 0.0000 0.0000 25.8887
#
#
#
# Elastic Compliance Matrix: (Units=1/GPa)
#
#
# Indices 1 2 3 4 5 6 
#
# 1 0.010229 -0.001371 -0.006274 0.000000 0.000000 0.000000
# 2 -0.001371 0.013159 -0.007781 0.000000 0.000000 0.000000
# 3 -0.006274 -0.007781 0.028963 0.000000 0.000000 0.000000
# 4 0.000000 0.000000 0.000000 0.053294 0.000000 0.000000
# 5 0.000000 0.000000 0.000000 0.000000 0.614355 0.000000
# 6 0.000000 0.000000 0.000000 0.000000 0.000000 0.038627
#
#
# Mechanical properties :
#
#
# Convention : Reuss Voigt Hill
#
# Bulk Modulus (GPa) = 46.51429 53.98667 50.25048
# Shear Modulus (GPa) = 6.27632 20.66352 13.46992
#
# Velocity S-wave (km/s) = 1.83114 3.32255 2.68257
# Velocity P-wave (km/s) = 5.41486 6.60008 6.03663
#
# Compressibility (1/GPa) = 0.02149877
#
# Stress axis : x y z
#
# Youngs Moduli (GPa) = 97.76409 75.99373 34.52673
#
# Poissons Ratio (x) = 0.10420 0.21663
# Poissons Ratio (y) = 0.13405 0.26864
# Poissons Ratio (z) = 0.61339 0.59128
#
# Static dielectric constant tensor:
#      x y z
#    x 3.450510 0.000000 0.000000 
#    y 0.000000 3.710570 0.000000 
#    z 0.000000 0.000000 3.151040 
# 
# 
# High freq. dielectric constant tensor:
#      x y z
#    x 1.716730 0.000000 0.000000 
#    y 0.000000 1.750150 0.000000 
#    z 0.000000 0.000000 1.683060 
# 
# From -- ./inp_files/27204.got.cif
#   From: 2010.03.12/outbox.cif.g09.slc.cpg/sg73_14_cif.got.tgz:27204.got - 2010.04.16 15:25:48.
