data_PCOD8295411
_publ_section_title
;
Structure prediction by ZEFSAII (Michael W. Deem and Ramdas Pophale) SiO2 
 PCOD8295411
Probable space group: I B A M
;
_chemical_formula_sum "Si O2"
_cell_formula_units_Z 112
_cell_length_a 14.044262
_cell_length_b 24.347014
_cell_length_c 17.137330
_cell_angle_alpha 90.000000
_cell_angle_beta 90.000000
_cell_angle_gamma 90.000000
_cell_volume 5859.867389
_symmetry_space_group_name_H-M "I B A M"
_symmetry_group_IT_number 72
_symmetry_cell_setting 'orthorhombic'
loop_
_space_group_symop_operation_xyz
x,y,z
-x,-y,z
x,-y,1/2-z
-x,y,1/2-z
-x,-y,-z
x,y,-z
-x,y,1/2+z
x,-y,1/2+z
1/2+x,1/2+y,1/2+z
1/2-x,1/2-y,1/2+z
1/2+x,1/2-y,-z
1/2-x,1/2+y,-z
1/2-x,1/2-y,1/2-z
1/2+x,1/2+y,1/2-z
1/2-x,1/2+y,z
1/2+x,1/2-y,z
loop_
_atom_site_type_symbol
_atom_site_label
_atom_site_fract_x
_atom_site_fract_y
_atom_site_fract_z
Si Si1 0.980382 0.723776 0.660592
Si Si2 0.490911 0.336435 0.912267
Si Si3 0.682874 0.394884 0.359913
Si Si4 0.891221 0.991834 0.089575
Si Si5 0.352180 0.610918 0.179932
Si Si6 0.239421 0.277791 0.665464
Si Si7 0.656297 0.821552 0.591254
O O1 0.012878 0.773850 0.606431
O O2 0.870579 0.710311 0.645843
O O3 0.000000 0.739471 0.750000
O O4 0.052002 0.676015 0.632445
O O5 0.379007 0.347904 0.902792
O O6 0.541769 0.375616 0.849780
O O7 0.525269 0.349690 0.000000
O O8 0.668426 0.452360 0.402793
O O9 0.651805 0.400482 0.270869
O O10 0.790280 0.373234 0.368960
O O11 0.829448 0.946350 0.136498
O O12 0.895715 0.973338 0.000000
O O13 0.000000 0.000000 0.120986
O O14 0.285546 0.662190 0.157752
O O15 0.250000 0.250000 0.750000
O O16 0.288609 0.236129 0.605277
O O17 0.645235 0.831655 0.500000
#
# Coordination Sequence:
#
# PCOD8295411 Si02
#       7
#    16  16  16  16  16  16  16
#     4  12  22  38  60  88 125 164 211 256 317 388
#     4  12  22  33  55  88 125 163 205 260 318 383
#     4  12  23  40  60  85 124 171 213 254 321 392
#     4  11  24  40  60  89 127 167 212 269 329 385
#     4  12  23  38  62  91 122 164 216 260 320 388
#     4  12  22  41  64  93 126 167 204 263 322 376
#     4  12  25  39  60  90 125 167 210 256 323 391
#
# _framework density 19.113060999999998
#
# number of rings (size 3 to 8) (size 9 to 14) (size 15 to 20)
#    0.000    0.143    7.143    3.857    0.000    1.714 
#    0.000    0.000    0.000    0.857    0.000    5.000 
#    0.000    0.000    0.000    0.000    0.000    0.000 
#
# Total GULP energy -694399.116175 kJ/mol
# GULP energy per Si atom -12399.984217 kJ/mol
# Density = 1.906956 g / cm^3
# Si number density = 19.113061 Si / 1000 Ang^3
#
#
#
# Elastic Constant Matrix: (Units=GPa)
#
#
# Indices 1 2 3 4 5 6 
#
# 1 113.9989 37.9071 33.3160 -0.0001 0.0000 0.0000
# 2 37.9071 100.7536 29.6195 -0.0010 0.0001 0.0000
# 3 33.3160 29.6195 125.3344 -0.0014 0.0001 -0.0001
# 4 -0.0001 -0.0010 -0.0014 22.2805 0.0001 0.0000
# 5 0.0000 0.0001 0.0001 0.0001 18.6009 0.0000
# 6 0.0000 0.0000 -0.0001 0.0000 0.0000 30.7110
#
#
#
# Elastic Compliance Matrix: (Units=1/GPa)
#
#
# Indices 1 2 3 4 5 6 
#
# 1 0.010469 -0.003354 -0.001990 0.000000 0.000000 0.000000
# 2 -0.003354 0.011741 -0.001883 0.000000 0.000000 0.000000
# 3 -0.001990 -0.001883 0.008953 0.000000 0.000000 0.000000
# 4 0.000000 0.000000 0.000000 0.044882 0.000000 0.000000
# 5 0.000000 0.000000 0.000000 0.000000 0.053761 0.000000
# 6 0.000000 0.000000 0.000000 0.000000 0.000000 0.032562
#
#
# Mechanical properties :
#
#
# Convention : Reuss Voigt Hill
#
# Bulk Modulus (GPa) = 59.85130 60.19693 60.02411
# Shear Modulus (GPa) = 27.41373 30.26809 28.84091
#
# Velocity S-wave (km/s) = 3.79131 3.98381 3.88875
# Velocity P-wave (km/s) = 7.10969 7.26116 7.18583
#
# Compressibility (1/GPa) = 0.01670808
#
# Stress axis : x y z
#
# Youngs Moduli (GPa) = 95.52173 85.17478 111.69793
#
# Poissons Ratio (x) = 0.28565 0.22231
# Poissons Ratio (y) = 0.32035 0.21034
# Poissons Ratio (z) = 0.19011 0.16039
#
# Static dielectric constant tensor:
#      x y z
#    x 3.549800 0.000000 0.000000 
#    y 0.000000 3.465810 0.000000 
#    z 0.000000 0.000000 3.532580 
# 
# 
# High freq. dielectric constant tensor:
#      x y z
#    x 1.729000 0.000000 0.000000 
#    y 0.000000 1.729070 0.000000 
#    z 0.000000 0.000000 1.754680 
# 
# From -- ./inp_files/22128.got.cif
#   From: 2010.03.12/outbox.cif.g09.slc.cpg/sg72_12_cif.got.tgz:22128.got - 2010.04.16 14:54:00.
