data_PCOD8295619
_publ_section_title
;
Structure prediction by ZEFSAII (Michael W. Deem and Ramdas Pophale) SiO2 
 PCOD8295619
Probable space group: I B C A 
;
_chemical_formula_sum "Si O2"
_cell_formula_units_Z 104
_cell_length_a 18.329840
_cell_length_b 30.178418
_cell_length_c 8.679332
_cell_angle_alpha 90.000000
_cell_angle_beta 90.000000
_cell_angle_gamma 90.000000
_cell_volume 4801.107662
_symmetry_space_group_name_H-M "I B C A "
_symmetry_group_IT_number 73
_symmetry_cell_setting 'orthorhombic'
loop_
_space_group_symop_operation_xyz
x,y,z
-x,1/2-y,z
x,-y,1/2-z
1/2-x,y,-z
-x,-y,-z
x,1/2+y,-z
-x,y,1/2+z
1/2+x,-y,z
1/2+x,1/2+y,1/2+z
1/2-x,-y,1/2+z
1/2+x,1/2-y,-z
-x,1/2+y,1/2-z
1/2-x,1/2-y,1/2-z
1/2+x,y,1/2-z
1/2-x,1/2+y,z
x,1/2-y,1/2+z
loop_
_atom_site_type_symbol
_atom_site_label
_atom_site_fract_x
_atom_site_fract_y
_atom_site_fract_z
Si Si1 0.137794 0.191670 0.306999
Si Si2 0.163535 0.221392 0.972522
Si Si3 0.381955 0.891247 0.974054
Si Si4 0.792681 0.846136 0.260787
Si Si5 0.359312 0.048627 0.788230
Si Si6 0.250000 0.412270 0.500000
Si Si7 0.979576 0.033754 0.129952
O O1 0.124619 0.233317 0.419934
O O2 0.087207 0.150411 0.369093
O O3 0.222650 0.179344 0.324260
O O4 0.122921 0.203401 0.126850
O O5 0.153342 0.187105 0.831129
O O6 0.250000 0.227507 0.000000
O O7 0.334364 0.920206 0.853842
O O8 0.331577 0.868143 0.096929
O O9 0.437113 0.923557 0.065429
O O10 0.770482 0.884102 0.145345
O O11 0.320779 0.059572 0.950325
O O12 0.446822 0.053401 0.795687
O O13 0.332666 0.000000 0.750000
O O14 0.937933 0.000000 0.250000
O O15 0.000000 0.000000 0.000000
#
# Coordination Sequence:
#
# PCOD8295619 Si02
#       7
#    16  16  16  16  16   8  16
#     4  11  20  36  58  97 141 174 221 273 324 399
#     4  10  18  34  58  92 144 181 217 264 328 402
#     4  12  23  38  68  94 129 172 224 277 325 388
#     4  11  21  35  58  97 138 174 213 269 332 392
#     4  11  25  45  63  91 131 170 224 283 337 399
#     4  12  24  40  62  96 136 170 212 278 340 396
#     4  11  24  48  70  91 123 173 236 276 321 395
#
# _framework density 21.661667999999999
#
# number of rings (size 3 to 8) (size 9 to 14) (size 15 to 20)
#    0.000    0.923    6.923    4.154    2.154    1.231 
#    0.000    0.000    0.000    0.000    0.000   22.615 
#    0.000    0.000    0.000    0.000    0.000    0.000 
#
# Total GULP energy -644178.690462 kJ/mol
# GULP energy per Si atom -12388.051740 kJ/mol
# Density = 2.161237 g / cm^3
# Si number density = 21.661668 Si / 1000 Ang^3
#
#
#
# Elastic Constant Matrix: (Units=GPa)
#
#
# Indices 1 2 3 4 5 6 
#
# 1 34.6052 35.5691 29.2437 -0.0004 0.0002 0.0004
# 2 35.5691 161.7375 78.0464 0.0004 0.0020 0.0009
# 3 29.2437 78.0464 144.8476 0.0279 -0.0010 0.0013
# 4 -0.0004 0.0004 0.0279 67.0581 -0.0033 0.0011
# 5 0.0002 0.0020 -0.0010 -0.0033 16.9369 -0.0022
# 6 0.0004 0.0009 0.0013 0.0011 -0.0022 16.6122
#
#
#
# Elastic Compliance Matrix: (Units=1/GPa)
#
#
# Indices 1 2 3 4 5 6 
#
# 1 0.039337 -0.006512 -0.004433 0.000002 0.000000 0.000000
# 2 -0.006512 0.009433 -0.003768 0.000001 -0.000001 0.000000
# 3 -0.004433 -0.003768 0.009829 -0.000004 0.000001 0.000000
# 4 0.000002 0.000001 -0.000004 0.014912 0.000003 -0.000001
# 5 0.000000 -0.000001 0.000001 0.000003 0.059043 0.000008
# 6 0.000000 0.000000 0.000000 -0.000001 0.000008 0.060197
#
#
# Mechanical properties :
#
#
# Convention : Reuss Voigt Hill
#
# Bulk Modulus (GPa) = 34.27806 69.65650 51.96728
# Shear Modulus (GPa) = 21.56090 33.34352 27.45221
#
# Velocity S-wave (km/s) = 3.15834 3.92763 3.56380
# Velocity P-wave (km/s) = 5.39989 7.26600 6.40131
#
# Compressibility (1/GPa) = 0.02917318
#
# Stress axis : x y z
#
# Youngs Moduli (GPa) = 25.42151 106.00858 101.73799
#
# Poissons Ratio (x) = 0.69029 0.45103
# Poissons Ratio (y) = 0.16554 0.38336
# Poissons Ratio (z) = 0.11270 0.39945
#
# Static dielectric constant tensor:
#      x y z
#    x 3.037030 0.000010 0.000000 
#    y 0.000010 4.051210 -0.000360 
#    z 0.000000 -0.000360 4.058280 
# 
# 
# High freq. dielectric constant tensor:
#      x y z
#    x 1.771950 0.000000 0.000000 
#    y 0.000000 1.879050 0.000000 
#    z 0.000000 0.000000 1.885310 
# 
# From -- ./inp_files/6696.got.cif
#   From: 2010.03.12/outbox.cif.g09.slc.cpg/sg73_4_cif.got.tgz:6696.got - 2010.04.16 15:25:48.
