data_PCOD8295295
_publ_section_title
;
Structure prediction by ZEFSAII (Michael W. Deem and Ramdas Pophale) SiO2 
 PCOD8295295
Probable space group: I B A M
;
_chemical_formula_sum "Si O2"
_cell_formula_units_Z 104
_cell_length_a 16.338733
_cell_length_b 19.738937
_cell_length_c 15.172957
_cell_angle_alpha 90.000000
_cell_angle_beta 90.000000
_cell_angle_gamma 90.000000
_cell_volume 4893.418548
_symmetry_space_group_name_H-M "I B A M"
_symmetry_group_IT_number 72
_symmetry_cell_setting 'orthorhombic'
loop_
_space_group_symop_operation_xyz
x,y,z
-x,-y,z
x,-y,1/2-z
-x,y,1/2-z
-x,-y,-z
x,y,-z
-x,y,1/2+z
x,-y,1/2+z
1/2+x,1/2+y,1/2+z
1/2-x,1/2-y,1/2+z
1/2+x,1/2-y,-z
1/2-x,1/2+y,-z
1/2-x,1/2-y,1/2-z
1/2+x,1/2+y,1/2-z
1/2-x,1/2+y,z
1/2+x,1/2-y,z
loop_
_atom_site_type_symbol
_atom_site_label
_atom_site_fract_x
_atom_site_fract_y
_atom_site_fract_z
Si Si1 0.708456 0.974361 0.598766
Si Si2 0.293996 0.877378 0.346253
Si Si3 0.069600 0.739637 0.604247
Si Si4 0.829456 0.115817 0.795675
Si Si5 0.259709 0.263590 0.096395
Si Si6 0.500000 0.339766 0.250000
Si Si7 0.923501 0.394418 0.699102
O O1 0.715617 0.946467 0.500000
O O2 0.788778 0.947106 0.650848
O O3 0.623804 0.949446 0.641198
O O4 0.697914 0.055008 0.596347
O O5 0.204813 0.883882 0.302732
O O6 0.299572 0.811009 0.406553
O O7 0.360599 0.866166 0.270673
O O8 0.048658 0.750777 0.500000
O O9 0.165721 0.743064 0.623390
O O10 0.041380 0.665179 0.636322
O O11 0.025691 0.795052 0.665398
O O12 0.807103 0.188124 0.837537
O O13 0.927531 0.111197 0.785764
O O14 0.267816 0.296226 0.000000
O O15 0.000000 0.428355 0.750000
#
# Coordination Sequence:
#
# PCOD8295295 Si02
#       7
#    16  16  16  16  16   8  16
#     4  11  24  44  67  93 126 170 224 275 326 399
#     4  11  22  40  64  91 124 169 219 259 327 392
#     4  11  22  38  63  97 133 171 215 272 330 389
#     4  11  22  40  66  91 124 174 217 259 332 397
#     4  11  21  38  65  94 124 161 214 271 319 383
#     4  12  24  40  63 100 139 170 214 282 338 392
#     4  11  22  39  64  92 129 176 216 260 327 395
#
# _framework density 21.253036000000002
#
# number of rings (size 3 to 8) (size 9 to 14) (size 15 to 20)
#    0.000    0.923    5.385    4.615    0.000    2.462 
#    0.000    4.615    0.000    0.923    0.000    0.000 
#    0.000    0.000    0.000    0.000    0.000    0.000 
#
# Total GULP energy -644620.445110 kJ/mol
# GULP energy per Si atom -12396.547021 kJ/mol
# Density = 2.120466 g / cm^3
# Si number density = 21.253036 Si / 1000 Ang^3
#
#
#
# Elastic Constant Matrix: (Units=GPa)
#
#
# Indices 1 2 3 4 5 6 
#
# 1 78.6432 -3.1333 34.4715 0.0000 0.0000 0.0000
# 2 -3.1333 87.5873 10.9517 0.0000 0.0000 0.0000
# 3 34.4715 10.9517 103.0164 0.0000 0.0000 0.0000
# 4 0.0000 0.0000 0.0000 11.1742 0.0000 0.0000
# 5 0.0000 0.0000 0.0000 0.0000 23.2179 0.0000
# 6 0.0000 0.0000 0.0000 0.0000 0.0000 18.8138
#
#
#
# Elastic Compliance Matrix: (Units=1/GPa)
#
#
# Indices 1 2 3 4 5 6 
#
# 1 0.015021 0.001182 -0.005152 0.000000 0.000000 0.000000
# 2 0.001182 0.011664 -0.001635 0.000000 0.000000 0.000000
# 3 -0.005152 -0.001635 0.011605 0.000000 0.000000 0.000000
# 4 0.000000 0.000000 0.000000 0.089492 0.000000 0.000000
# 5 0.000000 0.000000 0.000000 0.000000 0.043070 0.000000
# 6 0.000000 0.000000 0.000000 0.000000 0.000000 0.053152
#
#
# Mechanical properties :
#
#
# Convention : Reuss Voigt Hill
#
# Bulk Modulus (GPa) = 36.92987 39.31408 38.12198
# Shear Modulus (GPa) = 20.47147 25.77165 23.12156
#
# Velocity S-wave (km/s) = 3.10695 3.48603 3.30194
# Velocity P-wave (km/s) = 5.50317 5.89419 5.70203
#
# Compressibility (1/GPa) = 0.02707835
#
# Stress axis : x y z
#
# Youngs Moduli (GPa) = 66.57361 85.73444 86.16978
#
# Poissons Ratio (x) = -0.10130 0.44394
# Poissons Ratio (y) = -0.07866 0.14092
# Poissons Ratio (z) = 0.34298 0.14021
#
# Static dielectric constant tensor:
#      x y z
#    x 3.912990 0.000000 0.000000 
#    y 0.000000 3.705170 0.000000 
#    z 0.000000 0.000000 3.911870 
# 
# 
# High freq. dielectric constant tensor:
#      x y z
#    x 1.822720 0.000000 0.000000 
#    y 0.000000 1.826710 0.000000 
#    z 0.000000 0.000000 1.839120 
# 
# From -- ./inp_files/23381.got.cif
#   From: 2010.03.12/outbox.cif.g09.slc.cpg/sg72_12_cif.got.tgz:23381.got - 2010.04.16 14:54:00.
