data_PCOD8295684
_publ_section_title
;
Structure prediction by ZEFSAII (Michael W. Deem and Ramdas Pophale) SiO2 
 PCOD8295684
Probable space group: I B C A 
;
_chemical_formula_sum "Si O2"
_cell_formula_units_Z 96
_cell_length_a 8.496725
_cell_length_b 23.012312
_cell_length_c 24.856329
_cell_angle_alpha 90.000000
_cell_angle_beta 90.000000
_cell_angle_gamma 90.000000
_cell_volume 4860.140279
_symmetry_space_group_name_H-M "I B C A "
_symmetry_group_IT_number 73
_symmetry_cell_setting 'orthorhombic'
loop_
_space_group_symop_operation_xyz
x,y,z
-x,1/2-y,z
x,-y,1/2-z
1/2-x,y,-z
-x,-y,-z
x,1/2+y,-z
-x,y,1/2+z
1/2+x,-y,z
1/2+x,1/2+y,1/2+z
1/2-x,-y,1/2+z
1/2+x,1/2-y,-z
-x,1/2+y,1/2-z
1/2-x,1/2-y,1/2-z
1/2+x,y,1/2-z
1/2-x,1/2+y,z
x,1/2-y,1/2+z
loop_
_atom_site_type_symbol
_atom_site_label
_atom_site_fract_x
_atom_site_fract_y
_atom_site_fract_z
Si Si1 0.796364 0.699651 0.818004
Si Si2 0.673217 0.012966 0.389068
Si Si3 0.088197 0.641879 0.472680
Si Si4 0.943788 0.951437 0.040692
Si Si5 0.500000 0.750000 0.773777
Si Si6 0.500000 0.750000 0.592990
Si Si7 0.393565 0.079989 0.364414
O O1 0.609067 0.708773 0.811186
O O2 0.839091 0.632923 0.828184
O O3 0.885014 0.711601 0.762396
O O4 0.850252 0.741659 0.867180
O O5 0.579361 0.063953 0.356819
O O6 0.760930 0.042870 0.440909
O O7 0.549022 0.963471 0.406731
O O8 0.793462 0.978006 0.350585
O O9 0.250000 0.664889 0.500000
O O10 0.976246 0.612904 0.517547
O O11 0.988490 0.693789 0.445162
O O12 0.133605 0.594030 0.427779
O O13 0.000000 0.000000 0.000000
#
# Coordination Sequence:
#
# PCOD8295684 Si02
#       7
#    16  16  16  16   8   8  16
#     4   9  19  40  65  94 107 141 181 248 299 364
#     4  10  19  30  51  80 112 160 196 244 272 326
#     4  11  19  34  51  70 114 162 202 252 274 332
#     4  11  17  29  51  75 103 155 221 234 267 317
#     4   9  18  40  79  86 104 134 193 232 300 387
#     4   9  22  38  51  78 122 150 191 248 304 331
#     4  10  20  33  54  80 123 146 194 243 284 334
#
# _framework density 19.752517000000001
#
# number of rings (size 3 to 8) (size 9 to 14) (size 15 to 20)
#    0.000    2.000    5.000    0.500    0.000    0.000 
#    6.000   16.667    0.000    3.000    0.000    0.000 
#    0.000    0.000    0.000    0.000    0.000    0.000 
#
# Total GULP energy -594818.840580 kJ/mol
# GULP energy per Si atom -12392.059179 kJ/mol
# Density = 1.970756 g / cm^3
# Si number density = 19.752517 Si / 1000 Ang^3
#
#
#
# Elastic Constant Matrix: (Units=GPa)
#
#
# Indices 1 2 3 4 5 6 
#
# 1 136.1648 71.4204 40.2436 0.0000 0.0000 0.0000
# 2 71.4204 121.9566 44.2994 0.0000 0.0000 0.0000
# 3 40.2436 44.2994 48.4362 0.0000 0.0000 0.0000
# 4 0.0000 0.0000 0.0000 29.9061 0.0000 0.0000
# 5 0.0000 0.0000 0.0000 0.0000 21.8880 0.0000
# 6 0.0000 0.0000 0.0000 0.0000 0.0000 36.6333
#
#
#
# Elastic Compliance Matrix: (Units=1/GPa)
#
#
# Indices 1 2 3 4 5 6 
#
# 1 0.011362 -0.004829 -0.005023 0.000000 0.000000 0.000000
# 2 -0.004829 0.014331 -0.009095 0.000000 0.000000 0.000000
# 3 -0.005023 -0.009095 0.033138 0.000000 0.000000 0.000000
# 4 0.000000 0.000000 0.000000 0.033438 0.000000 0.000000
# 5 0.000000 0.000000 0.000000 0.000000 0.045687 0.000000
# 6 0.000000 0.000000 0.000000 0.000000 0.000000 0.027298
#
#
# Mechanical properties :
#
#
# Convention : Reuss Voigt Hill
#
# Bulk Modulus (GPa) = 47.76512 68.72050 58.24281
# Shear Modulus (GPa) = 23.79519 27.72509 25.76014
#
# Velocity S-wave (km/s) = 3.47460 3.75056 3.61521
# Velocity P-wave (km/s) = 6.35070 7.32270 6.85395
#
# Compressibility (1/GPa) = 0.02093578
#
# Stress axis : x y z
#
# Youngs Moduli (GPa) = 88.01645 69.77765 30.17705
#
# Poissons Ratio (x) = 0.33695 0.15159
# Poissons Ratio (y) = 0.42502 0.27446
# Poissons Ratio (z) = 0.44214 0.63464
#
# Static dielectric constant tensor:
#      x y z
#    x 3.909890 0.000000 0.000000 
#    y 0.000000 3.554350 0.000000 
#    z 0.000000 0.000000 3.325520 
# 
# 
# High freq. dielectric constant tensor:
#      x y z
#    x 1.777580 0.000000 0.000000 
#    y 0.000000 1.756320 0.000000 
#    z 0.000000 0.000000 1.728460 
# 
# From -- ./inp_files/31219.got.cif
#   From: 2010.03.12/outbox.cif.g09.slc.cpg/sg73_16_cif.got.tgz:31219.got - 2010.04.16 15:25:48.
