data_PCOD8295349
_publ_section_title
;
Structure prediction by ZEFSAII (Michael W. Deem and Ramdas Pophale) SiO2 
 PCOD8295349
Probable space group: I B A M
;
_chemical_formula_sum "Si O2"
_cell_formula_units_Z 80
_cell_length_a 10.581878
_cell_length_b 15.621420
_cell_length_c 22.015802
_cell_angle_alpha 90.000000
_cell_angle_beta 90.000000
_cell_angle_gamma 90.000000
_cell_volume 3639.299267
_symmetry_space_group_name_H-M "I B A M"
_symmetry_group_IT_number 72
_symmetry_cell_setting 'orthorhombic'
loop_
_space_group_symop_operation_xyz
x,y,z
-x,-y,z
x,-y,1/2-z
-x,y,1/2-z
-x,-y,-z
x,y,-z
-x,y,1/2+z
x,-y,1/2+z
1/2+x,1/2+y,1/2+z
1/2-x,1/2-y,1/2+z
1/2+x,1/2-y,-z
1/2-x,1/2+y,-z
1/2-x,1/2-y,1/2-z
1/2+x,1/2+y,1/2-z
1/2-x,1/2+y,z
1/2+x,1/2-y,z
loop_
_atom_site_type_symbol
_atom_site_label
_atom_site_fract_x
_atom_site_fract_y
_atom_site_fract_z
Si Si1 0.867928 0.683073 0.931844
Si Si2 0.215176 0.382373 0.697102
Si Si3 0.389171 0.257984 0.883372
Si Si4 0.874045 0.444428 0.677326
Si Si5 0.513074 0.593356 0.680217
O O1 0.739482 0.736661 0.921711
O O2 0.882979 0.604586 0.885762
O O3 0.989011 0.745669 0.926171
O O4 0.865756 0.645685 0.000000
O O5 0.114566 0.322330 0.662964
O O6 0.227768 0.479760 0.672157
O O7 0.170443 0.381275 0.767885
O O8 0.355624 0.351463 0.678668
O O9 0.403009 0.346493 0.846374
O O10 0.000000 0.500000 0.692952
O O11 0.500000 0.500000 0.647096
O O12 0.500000 0.573844 0.750000
#
# Coordination Sequence:
#
# PCOD8295349 Si02
#       5
#    16  16  16  16  16
#     4  12  27  47  67  97 138 187 243 290 341 423
#     4  11  22  41  67 109 138 169 229 291 362 434
#     4  12  25  44  73  97 137 186 233 298 356 415
#     4  11  23  41  69 103 145 178 220 293 362 428
#     4  11  23  40  65  99 142 175 218 279 358 429
#
# _framework density 21.982254999999999
#
# number of rings (size 3 to 8) (size 9 to 14) (size 15 to 20)
#    0.000    0.600    4.000    6.600    2.800    2.000 
#    0.000    0.000    0.000    2.400    0.000    0.000 
#    0.000    0.000    0.000    0.000    0.000    0.000 
#
# Total GULP energy -495654.375217 kJ/mol
# GULP energy per Si atom -12391.359380 kJ/mol
# Density = 2.193222 g / cm^3
# Si number density = 21.982255 Si / 1000 Ang^3
#
#
#
# Elastic Constant Matrix: (Units=GPa)
#
#
# Indices 1 2 3 4 5 6 
#
# 1 142.8534 15.3597 45.8180 0.0000 0.0000 0.0000
# 2 15.3597 88.9115 62.3710 0.0000 0.0000 0.0000
# 3 45.8180 62.3710 133.4039 0.0000 0.0000 0.0000
# 4 0.0000 0.0000 0.0000 18.4787 0.0000 0.0000
# 5 0.0000 0.0000 0.0000 0.0000 15.2774 0.0000
# 6 0.0000 0.0000 0.0000 0.0000 0.0000 39.5888
#
#
#
# Elastic Compliance Matrix: (Units=1/GPa)
#
#
# Indices 1 2 3 4 5 6 
#
# 1 0.007905 0.000802 -0.003090 0.000000 0.000000 0.000000
# 2 0.000802 0.016818 -0.008138 0.000000 0.000000 0.000000
# 3 -0.003090 -0.008138 0.012362 0.000000 0.000000 0.000000
# 4 0.000000 0.000000 0.000000 0.054116 0.000000 0.000000
# 5 0.000000 0.000000 0.000000 0.000000 0.065456 0.000000
# 6 0.000000 0.000000 0.000000 0.000000 0.000000 0.025260
#
#
# Mechanical properties :
#
#
# Convention : Reuss Voigt Hill
#
# Bulk Modulus (GPa) = 61.60546 68.02956 64.81751
# Shear Modulus (GPa) = 24.01766 30.77698 27.39732
#
# Velocity S-wave (km/s) = 3.30903 3.74583 3.53418
# Velocity P-wave (km/s) = 6.53341 7.05145 6.79737
#
# Compressibility (1/GPa) = 0.01623233
#
# Stress axis : x y z
#
# Youngs Moduli (GPa) = 126.50208 59.46181 80.89182
#
# Poissons Ratio (x) = -0.04769 0.24995
# Poissons Ratio (y) = -0.10145 0.65832
# Poissons Ratio (z) = 0.39089 0.48391
#
# Static dielectric constant tensor:
#      x y z
#    x 4.689640 0.000000 0.000000 
#    y 0.000000 4.069400 0.000000 
#    z 0.000000 0.000000 3.545370 
# 
# 
# High freq. dielectric constant tensor:
#      x y z
#    x 1.899570 0.000000 0.000000 
#    y 0.000000 1.862340 0.000000 
#    z 0.000000 0.000000 1.823450 
# 
# From -- ./inp_files/43117.got.cif
#   From: 2010.03.12/outbox.cif.g09.slc.cpg/sg72_22_cif.got.tgz:43117.got - 2010.04.16 14:54:00.
