data_PCOD8295604
_publ_section_title
;
Structure prediction by ZEFSAII (Michael W. Deem and Ramdas Pophale) SiO2 
 PCOD8295604
Probable space group: I B C A 
;
_chemical_formula_sum "Si O2"
_cell_formula_units_Z 120
_cell_length_a 20.431240
_cell_length_b 20.580714
_cell_length_c 14.621007
_cell_angle_alpha 90.000000
_cell_angle_beta 90.000000
_cell_angle_gamma 90.000000
_cell_volume 6147.980027
_symmetry_space_group_name_H-M "I B C A "
_symmetry_group_IT_number 73
_symmetry_cell_setting 'orthorhombic'
loop_
_space_group_symop_operation_xyz
x,y,z
-x,1/2-y,z
x,-y,1/2-z
1/2-x,y,-z
-x,-y,-z
x,1/2+y,-z
-x,y,1/2+z
1/2+x,-y,z
1/2+x,1/2+y,1/2+z
1/2-x,-y,1/2+z
1/2+x,1/2-y,-z
-x,1/2+y,1/2-z
1/2-x,1/2-y,1/2-z
1/2+x,y,1/2-z
1/2-x,1/2+y,z
x,1/2-y,1/2+z
loop_
_atom_site_type_symbol
_atom_site_label
_atom_site_fract_x
_atom_site_fract_y
_atom_site_fract_z
Si Si1 0.434268 0.397851 0.089230
Si Si2 0.585597 0.121777 0.575731
Si Si3 0.250000 0.068636 0.500000
Si Si4 0.363540 0.477819 0.436220
Si Si5 0.572677 0.427090 0.268215
Si Si6 0.926161 0.391750 0.206692
Si Si7 0.072775 0.276132 0.567872
Si Si8 0.139761 0.148098 0.574850
O O1 0.509002 0.388669 0.063987
O O2 0.424041 0.473427 0.068217
O O3 0.407172 0.377029 0.189039
O O4 0.391878 0.351993 0.025131
O O5 0.628596 0.066260 0.526358
O O6 0.598382 0.119231 0.684753
O O7 0.600999 0.190077 0.525026
O O8 0.212987 0.118907 0.568470
O O9 0.297308 0.020805 0.558198
O O10 0.369852 0.434756 0.343480
O O11 0.597052 0.500000 0.250000
O O12 0.495078 0.429010 0.283713
O O13 0.603442 0.401622 0.360092
O O14 0.935224 0.325726 0.151281
O O15 0.126906 0.223135 0.602950
O O16 0.000000 0.250000 0.547699
#
# Coordination Sequence:
#
# PCOD8295604 Si02
#       8
#    16  16   8  16  16  16  16  16
#     4  10  18  32  57  89 120 145 179 237 308 362
#     4  10  20  33  59  93 116 153 188 242 312 360
#     4  10  24  40  62  78 110 174 202 252 292 344
#     4  10  19  37  55  81 118 149 200 240 292 350
#     4  11  20  34  59  94 128 151 187 250 317 365
#     4  10  20  33  58  92 117 148 182 244 311 357
#     4  11  20  38  57  85 122 157 192 242 297 366
#     4  11  22  40  56  81 121 160 206 236 293 353
#
# _framework density 19.518605999999998
#
# number of rings (size 3 to 8) (size 9 to 14) (size 15 to 20)
#    0.000    1.600    2.667    4.800    0.000    1.067 
#    0.000   10.667    0.000    4.000    0.000    0.000 
#    0.000    0.000    0.000    0.000    0.000    0.000 
#
# Total GULP energy -743355.097923 kJ/mol
# GULP energy per Si atom -12389.251632 kJ/mol
# Density = 1.947418 g / cm^3
# Si number density = 19.518606 Si / 1000 Ang^3
#
#
#
# Elastic Constant Matrix: (Units=GPa)
#
#
# Indices 1 2 3 4 5 6 
#
# 1 59.8842 28.3512 34.3026 0.0000 0.0000 0.0000
# 2 28.3512 117.3387 33.0445 0.0000 0.0000 0.0000
# 3 34.3026 33.0445 90.7399 0.0000 0.0000 0.0000
# 4 0.0000 0.0000 0.0000 24.0251 0.0000 0.0000
# 5 0.0000 0.0000 0.0000 0.0000 8.5780 0.0000
# 6 0.0000 0.0000 0.0000 0.0000 0.0000 35.3443
#
#
#
# Elastic Compliance Matrix: (Units=1/GPa)
#
#
# Indices 1 2 3 4 5 6 
#
# 1 0.022458 -0.003382 -0.007258 0.000000 0.000000 0.000000
# 2 -0.003382 0.010006 -0.002365 0.000000 0.000000 0.000000
# 3 -0.007258 -0.002365 0.014626 0.000000 0.000000 0.000000
# 4 0.000000 0.000000 0.000000 0.041623 0.000000 0.000000
# 5 0.000000 0.000000 0.000000 0.000000 0.116578 0.000000
# 6 0.000000 0.000000 0.000000 0.000000 0.000000 0.028293
#
#
# Mechanical properties :
#
#
# Convention : Reuss Voigt Hill
#
# Bulk Modulus (GPa) = 47.44258 51.03994 49.24126
# Shear Modulus (GPa) = 18.75333 25.07379 21.91356
#
# Velocity S-wave (km/s) = 3.10303 3.58803 3.35431
# Velocity P-wave (km/s) = 6.09897 6.58570 6.34700
#
# Compressibility (1/GPa) = 0.02107811
#
# Stress axis : x y z
#
# Youngs Moduli (GPa) = 44.52820 99.94405 68.37333
#
# Poissons Ratio (x) = 0.33803 0.49626
# Poissons Ratio (y) = 0.15060 0.16171
# Poissons Ratio (z) = 0.32319 0.23638
#
# Static dielectric constant tensor:
#      x y z
#    x 3.303340 0.000000 0.000000 
#    y 0.000000 3.755250 0.000000 
#    z 0.000000 0.000000 3.819920 
# 
# 
# High freq. dielectric constant tensor:
#      x y z
#    x 1.718000 0.000000 0.000000 
#    y 0.000000 1.765520 0.000000 
#    z 0.000000 0.000000 1.769430 
# 
# From -- ./inp_files/18972.got.cif
#   From: 2010.03.12/outbox.cif.g09.slc.cpg/sg73_10_cif.got.tgz:18972.got - 2010.04.16 15:25:48.
