data_PCOD8295474
_publ_section_title
;
Structure prediction by ZEFSAII (Michael W. Deem and Ramdas Pophale) SiO2 
 PCOD8295474
Probable space group: I B A M
;
_chemical_formula_sum "Si O2"
_cell_formula_units_Z 72
_cell_length_a 7.746260
_cell_length_b 17.026286
_cell_length_c 21.406874
_cell_angle_alpha 90.000000
_cell_angle_beta 90.000000
_cell_angle_gamma 90.000000
_cell_volume 2823.353429
_symmetry_space_group_name_H-M "I B A M"
_symmetry_group_IT_number 72
_symmetry_cell_setting 'orthorhombic'
loop_
_space_group_symop_operation_xyz
x,y,z
-x,-y,z
x,-y,1/2-z
-x,y,1/2-z
-x,-y,-z
x,y,-z
-x,y,1/2+z
x,-y,1/2+z
1/2+x,1/2+y,1/2+z
1/2-x,1/2-y,1/2+z
1/2+x,1/2-y,-z
1/2-x,1/2+y,-z
1/2-x,1/2-y,1/2-z
1/2+x,1/2+y,1/2-z
1/2-x,1/2+y,z
1/2+x,1/2-y,z
loop_
_atom_site_type_symbol
_atom_site_label
_atom_site_fract_x
_atom_site_fract_y
_atom_site_fract_z
Si Si1 0.699701 0.623302 0.500000
Si Si2 0.636642 0.836950 0.385099
Si Si3 0.653644 0.560761 0.635101
Si Si4 0.459171 0.706011 0.680497
Si Si5 0.000000 0.500000 0.634702
Si Si6 0.352363 0.721267 0.500000
O O1 0.695990 0.567627 0.560818
O O2 0.542268 0.685269 0.500000
O O3 0.866678 0.682387 0.500000
O O4 0.477330 0.779411 0.367986
O O5 0.751804 0.808247 0.440717
O O6 0.769783 0.833194 0.325748
O O7 0.567316 0.923449 0.403064
O O8 0.500000 0.500000 0.645895
O O9 0.608225 0.643888 0.664018
O O10 0.827722 0.529794 0.671102
O O11 0.500000 0.735411 0.750000
#
# Coordination Sequence:
#
# PCOD8295474 Si02
#       6
#     8  16  16  16   8   8
#     4  12  25  41  74 107 151 191 238 316 380 453
#     4  12  25  47  74 113 147 195 253 305 382 448
#     4  12  25  49  72 111 150 194 248 311 379 450
#     4  12  26  50  76 104 152 203 254 311 369 452
#     4  12  28  47  77 112 152 190 247 309 382 456
#     4  12  22  43  74 111 147 190 250 309 372 464
#
# _framework density 25.501588999999999
#
# number of rings (size 3 to 8) (size 9 to 14) (size 15 to 20)
#    0.000    0.000    6.667    2.333    3.111    2.222 
#    0.000    3.889    0.000    0.000    0.000    0.000 
#    0.000    0.000    0.000    0.000    0.000    0.000 
#
# Total GULP energy -446143.136228 kJ/mol
# GULP energy per Si atom -12392.864895 kJ/mol
# Density = 2.544355 g / cm^3
# Si number density = 25.501589 Si / 1000 Ang^3
#
#
#
# Elastic Constant Matrix: (Units=GPa)
#
#
# Indices 1 2 3 4 5 6 
#
# 1 153.6304 43.6363 -0.0077 0.0000 0.0000 0.0000
# 2 43.6363 159.9519 11.9354 0.0000 0.0000 0.0000
# 3 -0.0077 11.9354 50.2252 0.0000 0.0000 0.0000
# 4 0.0000 0.0000 0.0000 15.0751 0.0000 0.0000
# 5 0.0000 0.0000 0.0000 0.0000 1.6797 0.0000
# 6 0.0000 0.0000 0.0000 0.0000 0.0000 45.5230
#
#
#
# Elastic Compliance Matrix: (Units=1/GPa)
#
#
# Indices 1 2 3 4 5 6 
#
# 1 0.007067 -0.001963 0.000467 0.000000 0.000000 0.000000
# 2 -0.001963 0.006910 -0.001642 0.000000 0.000000 0.000000
# 3 0.000467 -0.001642 0.020301 0.000000 0.000000 0.000000
# 4 0.000000 0.000000 0.000000 0.066335 0.000000 0.000000
# 5 0.000000 0.000000 0.000000 0.000000 0.595345 0.000000
# 6 0.000000 0.000000 0.000000 0.000000 0.000000 0.021967
#
#
# Mechanical properties :
#
#
# Convention : Reuss Voigt Hill
#
# Bulk Modulus (GPa) = 35.71169 52.77062 44.24115
# Shear Modulus (GPa) = 6.81633 33.00512 19.91073
#
# Velocity S-wave (km/s) = 1.63668 3.60145 2.79725
# Velocity P-wave (km/s) = 4.19592 6.16701 5.27436
#
# Compressibility (1/GPa) = 0.02800204
#
# Stress axis : x y z
#
# Youngs Moduli (GPa) = 141.51016 144.72039 49.25944
#
# Poissons Ratio (x) = 0.28405 -0.02303
# Poissons Ratio (y) = 0.27775 0.08090
# Poissons Ratio (z) = -0.06616 0.23768
#
# Static dielectric constant tensor:
#      x y z
#    x 5.505790 0.000000 0.000000 
#    y 0.000000 4.796910 0.000000 
#    z 0.000000 0.000000 4.664640 
# 
# 
# High freq. dielectric constant tensor:
#      x y z
#    x 2.049420 0.000000 0.000000 
#    y 0.000000 2.029260 0.000000 
#    z 0.000000 0.000000 1.979580 
# 
# From -- ./inp_files/42114.got.cif
#   From: 2010.03.12/outbox.cif.g09.slc.cpg/sg72_22_cif.got.tgz:42114.got - 2010.04.16 14:54:00.
