data_PCOD8295553
_publ_section_title
;
Structure prediction by ZEFSAII (Michael W. Deem and Ramdas Pophale) SiO2 
 PCOD8295553
Probable space group: I B C A 
;
_chemical_formula_sum "Si O2"
_cell_formula_units_Z 88
_cell_length_a 26.652340
_cell_length_b 5.298903
_cell_length_c 35.367082
_cell_angle_alpha 90.000000
_cell_angle_beta 90.000000
_cell_angle_gamma 90.000000
_cell_volume 4994.828070
_symmetry_space_group_name_H-M "I B C A "
_symmetry_group_IT_number 73
_symmetry_cell_setting 'orthorhombic'
loop_
_space_group_symop_operation_xyz
x,y,z
-x,1/2-y,z
x,-y,1/2-z
1/2-x,y,-z
-x,-y,-z
x,1/2+y,-z
-x,y,1/2+z
1/2+x,-y,z
1/2+x,1/2+y,1/2+z
1/2-x,-y,1/2+z
1/2+x,1/2-y,-z
-x,1/2+y,1/2-z
1/2-x,1/2-y,1/2-z
1/2+x,y,1/2-z
1/2-x,1/2+y,z
x,1/2-y,1/2+z
loop_
_atom_site_type_symbol
_atom_site_label
_atom_site_fract_x
_atom_site_fract_y
_atom_site_fract_z
Si Si1 0.865815 0.359944 0.287775
Si Si2 0.559429 0.750062 0.606044
Si Si3 0.210021 0.500000 0.250000
Si Si4 0.230377 0.441940 0.821397
Si Si5 0.059401 0.750433 0.149662
Si Si6 0.559855 0.752168 0.521005
O O1 0.884547 0.500000 0.250000
O O2 0.828642 0.138127 0.277465
O O3 0.828622 0.519449 0.316041
O O4 0.915096 0.262659 0.309228
O O5 0.500000 0.750000 0.604016
O O6 0.577553 0.493038 0.625872
O O7 0.581268 0.758498 0.563626
O O8 0.577865 0.996703 0.628769
O O9 0.245652 0.346366 0.220125
O O10 0.259007 0.673649 0.842860
O O11 0.000000 0.750000 0.156100
O O12 0.500000 0.750000 0.521100
O O13 0.580096 0.499995 0.500579
#
# Coordination Sequence:
#
# PCOD8295553 Si02
#       6
#    16  16   8  16  16  16
#     4  11  20  32  49  66  85 116 163 208 233 275
#     4   9  18  34  47  60  92 123 152 188 227 277
#     4  10  18  32  48  68  92 100 144 204 256 302
#     4  10  17  30  48  69  88 103 131 193 247 307
#     4  10  22  35  45  61  88 132 165 190 231 268
#     4   9  15  24  45  72  87 105 143 189 226 261
#
# _framework density 17.618226
#
# number of rings (size 3 to 8) (size 9 to 14) (size 15 to 20)
#    0.000    2.182    2.727    2.182    2.545    4.364 
#    1.636    0.000    0.000    0.000    0.000    0.000 
#    0.000    0.000    0.000    0.000    0.000  254.545 
#
# Total GULP energy -545129.823526 kJ/mol
# GULP energy per Si atom -12389.314171 kJ/mol
# Density = 1.757813 g / cm^3
# Si number density = 17.618226 Si / 1000 Ang^3
#
#
#
# Elastic Constant Matrix: (Units=GPa)
#
#
# Indices 1 2 3 4 5 6 
#
# 1 48.0358 27.2260 40.0157 0.0000 0.0000 0.0000
# 2 27.2260 143.4067 51.5688 0.0000 0.0000 0.0000
# 3 40.0157 51.5688 93.2268 0.0000 0.0000 0.0000
# 4 0.0000 0.0000 0.0000 25.8013 0.0000 0.0000
# 5 0.0000 0.0000 0.0000 0.0000 2.5575 0.0000
# 6 0.0000 0.0000 0.0000 0.0000 0.0000 -148.4914
#
#
#
# Elastic Compliance Matrix: (Units=1/GPa)
#
#
# Indices 1 2 3 4 5 6 
#
# 1 0.032643 -0.001447 -0.013211 0.000000 0.000000 0.000000
# 2 -0.001447 0.008769 -0.004230 0.000000 0.000000 0.000000
# 3 -0.013211 -0.004230 0.018737 0.000000 0.000000 0.000000
# 4 0.000000 0.000000 0.000000 0.038758 0.000000 0.000000
# 5 0.000000 0.000000 0.000000 0.000000 0.391010 0.000000
# 6 0.000000 0.000000 0.000000 0.000000 0.000000 -0.006734
#
#
# Mechanical properties :
#
#
# Convention : Reuss Voigt Hill
#
# Bulk Modulus (GPa) = 44.69482 58.03225 51.36354
# Shear Modulus (GPa) = 9.46227 -12.96927 -1.75350
#
# Velocity S-wave (km/s) = 2.32000 -2.71611 -0.99872
# Velocity P-wave (km/s) = 5.70965 4.81393 5.28082
#
# Compressibility (1/GPa) = 0.02237396
#
# Stress axis : x y z
#
# Youngs Moduli (GPa) = 30.63422 114.04126 53.37101
#
# Poissons Ratio (x) = 0.16498 0.70510
# Poissons Ratio (y) = 0.04432 0.22573
# Poissons Ratio (z) = 0.40472 0.48234
#
# Static dielectric constant tensor:
#      x y z
#    x 2.872710 0.000000 0.000000 
#    y 0.000000 3.602070 0.000000 
#    z 0.000000 0.000000 3.045800 
# 
# 
# High freq. dielectric constant tensor:
#      x y z
#    x 1.631600 0.000000 0.000000 
#    y 0.000000 1.708950 0.000000 
#    z 0.000000 0.000000 1.641230 
# 
# From -- ./inp_files/2297.got.cif
#   From: 2010.03.12/outbox.cif.g09.slc.cpg/sg73_2_cif.got.tgz:2297.got - 2010.04.16 15:25:48.
