data_PCOD8295081
_publ_section_title
;
Structure prediction by ZEFSAII (Michael W. Deem and Ramdas Pophale) SiO2 
 PCOD8295081
Probable space group: I B A M
;
_chemical_formula_sum "Si O2"
_cell_formula_units_Z 72
_cell_length_a 10.446529
_cell_length_b 13.902777
_cell_length_c 24.218779
_cell_angle_alpha 90.000000
_cell_angle_beta 90.000000
_cell_angle_gamma 90.000000
_cell_volume 3517.432850
_symmetry_space_group_name_H-M "I B A M"
_symmetry_group_IT_number 72
_symmetry_cell_setting 'orthorhombic'
loop_
_space_group_symop_operation_xyz
x,y,z
-x,-y,z
x,-y,1/2-z
-x,y,1/2-z
-x,-y,-z
x,y,-z
-x,y,1/2+z
x,-y,1/2+z
1/2+x,1/2+y,1/2+z
1/2-x,1/2-y,1/2+z
1/2+x,1/2-y,-z
1/2-x,1/2+y,-z
1/2-x,1/2-y,1/2-z
1/2+x,1/2+y,1/2-z
1/2-x,1/2+y,z
1/2+x,1/2-y,z
loop_
_atom_site_type_symbol
_atom_site_label
_atom_site_fract_x
_atom_site_fract_y
_atom_site_fract_z
Si Si1 0.386329 0.781975 0.399389
Si Si2 0.340491 0.836464 0.938197
Si Si3 0.875345 0.206240 0.777424
Si Si4 0.644173 0.012820 0.359125
Si Si5 0.697590 0.500000 0.750000
O O1 0.531927 0.776458 0.421708
O O2 0.283873 0.731891 0.439464
O O3 0.378113 0.726881 0.341696
O O4 0.341398 0.892104 0.395798
O O5 0.311740 0.922827 0.895899
O O6 0.359896 0.877601 0.000000
O O7 0.750000 0.250000 0.750000
O O8 0.886012 0.092184 0.766538
O O9 0.000000 0.255695 0.750000
O O10 0.500000 0.000000 0.339569
O O11 0.720487 0.027317 0.303201
#
# Coordination Sequence:
#
# PCOD8295081 Si02
#       5
#    16  16  16  16   8
#     4  11  23  42  66  94 128 170 220 270 328 390
#     4  11  24  44  67  94 128 172 224 278 326 388
#     4  12  25  40  65  96 133 171 212 265 328 399
#     4  10  23  38  65  96 129 167 219 268 327 396
#     4  12  22  40  62  98 133 174 203 276 331 396
#
# _framework density 20.469474000000002
#
# number of rings (size 3 to 8) (size 9 to 14) (size 15 to 20)
#    0.000    0.889    4.444    2.667    3.111    4.889 
#    0.000    1.111    0.000    2.667    0.000    0.000 
#    0.000    0.000    0.000    0.000    0.000    0.000 
#
# Total GULP energy -446394.587422 kJ/mol
# GULP energy per Si atom -12399.849651 kJ/mol
# Density = 2.042288 g / cm^3
# Si number density = 20.469474 Si / 1000 Ang^3
#
#
#
# Elastic Constant Matrix: (Units=GPa)
#
#
# Indices 1 2 3 4 5 6 
#
# 1 103.8012 36.8191 24.6434 0.0000 0.0000 0.0000
# 2 36.8191 99.6816 9.0101 0.0000 0.0000 0.0000
# 3 24.6434 9.0101 97.9778 0.0000 0.0000 0.0000
# 4 0.0000 0.0000 0.0000 20.5377 0.0000 0.0000
# 5 0.0000 0.0000 0.0000 0.0000 42.4327 0.0000
# 6 0.0000 0.0000 0.0000 0.0000 0.0000 31.6812
#
#
#
# Elastic Compliance Matrix: (Units=1/GPa)
#
#
# Indices 1 2 3 4 5 6 
#
# 1 0.011692 -0.004087 -0.002565 0.000000 0.000000 0.000000
# 2 -0.004087 0.011545 -0.000034 0.000000 0.000000 0.000000
# 3 -0.002565 -0.000034 0.010855 0.000000 0.000000 0.000000
# 4 0.000000 0.000000 0.000000 0.048691 0.000000 0.000000
# 5 0.000000 0.000000 0.000000 0.000000 0.023567 0.000000
# 6 0.000000 0.000000 0.000000 0.000000 0.000000 0.031564
#
#
# Mechanical properties :
#
#
# Convention : Reuss Voigt Hill
#
# Bulk Modulus (GPa) = 48.26189 49.15619 48.70904
# Shear Modulus (GPa) = 31.60718 34.32952 32.96835
#
# Velocity S-wave (km/s) = 3.93378 4.09969 4.01759
# Velocity P-wave (km/s) = 6.65293 6.81737 6.73565
#
# Compressibility (1/GPa) = 0.02072028
#
# Stress axis : x y z
#
# Youngs Moduli (GPa) = 85.52533 86.62079 92.12643
#
# Poissons Ratio (x) = 0.35402 0.23631
# Poissons Ratio (y) = 0.34954 0.00310
# Poissons Ratio (z) = 0.21938 0.00292
#
# Static dielectric constant tensor:
#      x y z
#    x 3.175480 0.000000 0.000000 
#    y 0.000000 4.023710 0.000000 
#    z 0.000000 0.000000 3.624310 
# 
# 
# High freq. dielectric constant tensor:
#      x y z
#    x 1.807280 0.000000 0.000000 
#    y 0.000000 1.804150 0.000000 
#    z 0.000000 0.000000 1.803210 
# 
# From -- ./inp_files/47045.got.cif
#   From: 2010.03.12/outbox.cif.g09.slc.cpg/sg72_24_cif.got.tgz:47045.got - 2010.04.16 14:54:00.
