data_PCOD8295260
_publ_section_title
;
Structure prediction by ZEFSAII (Michael W. Deem and Ramdas Pophale) SiO2 
 PCOD8295260
Probable space group: I B A M
;
_chemical_formula_sum "Si O2"
_cell_formula_units_Z 56
_cell_length_a 4.972464
_cell_length_b 33.381174
_cell_length_c 14.554655
_cell_angle_alpha 90.000000
_cell_angle_beta 90.000000
_cell_angle_gamma 90.000000
_cell_volume 2415.878949
_symmetry_space_group_name_H-M "I B A M"
_symmetry_group_IT_number 72
_symmetry_cell_setting 'orthorhombic'
loop_
_space_group_symop_operation_xyz
x,y,z
-x,-y,z
x,-y,1/2-z
-x,y,1/2-z
-x,-y,-z
x,y,-z
-x,y,1/2+z
x,-y,1/2+z
1/2+x,1/2+y,1/2+z
1/2-x,1/2-y,1/2+z
1/2+x,1/2-y,-z
1/2-x,1/2+y,-z
1/2-x,1/2-y,1/2-z
1/2+x,1/2+y,1/2-z
1/2-x,1/2+y,z
1/2+x,1/2-y,z
loop_
_atom_site_type_symbol
_atom_site_label
_atom_site_fract_x
_atom_site_fract_y
_atom_site_fract_z
Si Si1 0.404354 0.340193 0.650360
Si Si2 0.261695 0.525816 0.394640
Si Si3 0.906113 0.610699 0.104055
Si Si4 0.139329 0.223234 0.000000
O O1 0.500000 0.325385 0.750000
O O2 0.657915 0.359090 0.598987
O O3 0.302210 0.302670 0.591125
O O4 0.158387 0.371774 0.661514
O O5 0.500000 0.500000 0.346332
O O6 0.345150 0.533821 0.500000
O O7 0.200860 0.569261 0.349591
O O8 0.000000 0.500000 0.383967
O O9 0.011081 0.603099 0.000000
O O10 0.334869 0.261247 0.000000
#
# Coordination Sequence:
#
# PCOD8295260 Si02
#       4
#    16  16  16   8
#     4  12  25  43  68 100 133 173 222 274 333 404
#     4   9  17  29  52  90 127 167 220 269 314 371
#     4  11  20  39  66  93 134 180 224 274 332 394
#     4  12  26  46  72  98 132 168 216 272 342 412
#
# _framework density 23.179970999999998
#
# number of rings (size 3 to 8) (size 9 to 14) (size 15 to 20)
#    0.000    1.143    2.857    4.286    0.000    5.714 
#    0.000    0.000    0.000   12.857    0.000    0.000 
#    0.000    0.000    0.000    0.286    0.000    0.000 
#
# Total GULP energy -347253.644837 kJ/mol
# GULP energy per Si atom -12401.915887 kJ/mol
# Density = 2.312721 g / cm^3
# Si number density = 23.179971 Si / 1000 Ang^3
#
#
#
# Elastic Constant Matrix: (Units=GPa)
#
#
# Indices 1 2 3 4 5 6 
#
# 1 132.5976 41.7406 25.9764 0.0000 0.0000 0.0000
# 2 41.7406 129.7610 48.4047 0.0000 0.0000 0.0000
# 3 25.9764 48.4047 82.0871 0.0000 0.0000 0.0000
# 4 0.0000 0.0000 0.0000 7.2720 0.0000 0.0000
# 5 0.0000 0.0000 0.0000 0.0000 28.2722 0.0000
# 6 0.0000 0.0000 0.0000 0.0000 0.0000 48.7839
#
#
#
# Elastic Compliance Matrix: (Units=1/GPa)
#
#
# Indices 1 2 3 4 5 6 
#
# 1 0.008512 -0.002222 -0.001383 0.000000 0.000000 0.000000
# 2 -0.002222 0.010460 -0.005465 0.000000 0.000000 0.000000
# 3 -0.001383 -0.005465 0.015842 0.000000 0.000000 0.000000
# 4 0.000000 0.000000 0.000000 0.137514 0.000000 0.000000
# 5 0.000000 0.000000 0.000000 0.000000 0.035370 0.000000
# 6 0.000000 0.000000 0.000000 0.000000 0.000000 0.020499
#
#
# Mechanical properties :
#
#
# Convention : Reuss Voigt Hill
#
# Bulk Modulus (GPa) = 59.97370 64.07657 62.02514
# Shear Modulus (GPa) = 19.84952 32.08722 25.96837
#
# Velocity S-wave (km/s) = 2.92947 3.72461 3.35071
# Velocity P-wave (km/s) = 6.11324 6.79706 6.46420
#
# Compressibility (1/GPa) = 0.01667397
#
# Stress axis : x y z
#
# Youngs Moduli (GPa) = 117.47972 95.60453 63.12201
#
# Poissons Ratio (x) = 0.21244 0.08732
# Poissons Ratio (y) = 0.26105 0.34494
# Poissons Ratio (z) = 0.16251 0.52245
#
# Static dielectric constant tensor:
#      x y z
#    x 4.176110 0.000000 0.000000 
#    y 0.000000 4.159550 0.000000 
#    z 0.000000 0.000000 3.809940 
# 
# 
# High freq. dielectric constant tensor:
#      x y z
#    x 1.929700 0.000000 0.000000 
#    y 0.000000 1.915660 0.000000 
#    z 0.000000 0.000000 1.890360 
# 
# From -- ./inp_files/17550.got.cif
#   From: 2010.03.12/outbox.cif.g09.slc.cpg/sg72_9_cif.got.tgz:17550.got - 2010.04.16 14:54:00.
