data_PCOD8295879
_publ_section_title
;
Structure prediction by ZEFSAII (Michael W. Deem and Ramdas Pophale) SiO2 
 PCOD8295879
Probable space group: I B C A 
;
_chemical_formula_sum "Si O2"
_cell_formula_units_Z 80
_cell_length_a 8.007117
_cell_length_b 22.823064
_cell_length_c 20.511595
_cell_angle_alpha 90.000000
_cell_angle_beta 90.000000
_cell_angle_gamma 90.000000
_cell_volume 3748.431298
_symmetry_space_group_name_H-M "I B C A "
_symmetry_group_IT_number 73
_symmetry_cell_setting 'orthorhombic'
loop_
_space_group_symop_operation_xyz
x,y,z
-x,1/2-y,z
x,-y,1/2-z
1/2-x,y,-z
-x,-y,-z
x,1/2+y,-z
-x,y,1/2+z
1/2+x,-y,z
1/2+x,1/2+y,1/2+z
1/2-x,-y,1/2+z
1/2+x,1/2-y,-z
-x,1/2+y,1/2-z
1/2-x,1/2-y,1/2-z
1/2+x,y,1/2-z
1/2-x,1/2+y,z
x,1/2-y,1/2+z
loop_
_atom_site_type_symbol
_atom_site_label
_atom_site_fract_x
_atom_site_fract_y
_atom_site_fract_z
Si Si1 0.776815 0.500000 0.750000
Si Si2 0.519458 0.073027 0.321808
Si Si3 0.500000 0.750000 0.603107
Si Si4 0.698905 0.182913 0.796303
Si Si5 0.945546 0.810517 0.162908
Si Si6 0.185439 0.637118 0.930453
O O1 0.675676 0.556275 0.724371
O O2 0.887011 0.520214 0.812808
O O3 0.439241 0.132226 0.296011
O O4 0.577840 0.084847 0.396563
O O5 0.653663 0.770204 0.647910
O O6 0.426894 0.803893 0.560085
O O7 0.677250 0.209109 0.723025
O O8 0.884814 0.158287 0.810622
O O9 0.848684 0.852717 0.114049
O O10 0.000000 0.750000 0.127768
O O11 0.250000 0.614772 0.000000
#
# Coordination Sequence:
#
# PCOD8295879 Si02
#       6
#     8  16   8  16  16  16
#     4  10  20  42  70  94 118 146 204 274 348 356
#     4  10  22  39  65  94 120 156 198 265 318 378
#     4  10  20  36  56  82 122 160 198 246 294 362
#     4  11  20  35  59  93 121 151 197 254 314 361
#     4  12  21  33  56  88 126 163 197 241 299 354
#     4  11  25  40  57  85 127 170 214 240 292 375
#
# _framework density 21.34226
#
# number of rings (size 3 to 8) (size 9 to 14) (size 15 to 20)
#    0.000    1.200    3.000    5.400    1.400    1.600 
#    0.000    4.000    0.000    0.000    0.000    0.000 
#    0.000    0.000    0.000    0.000    0.000    0.000 
#
# Total GULP energy -495792.081173 kJ/mol
# GULP energy per Si atom -12394.802029 kJ/mol
# Density = 2.129368 g / cm^3
# Si number density = 21.342260 Si / 1000 Ang^3
#
#
#
# Elastic Constant Matrix: (Units=GPa)
#
#
# Indices 1 2 3 4 5 6 
#
# 1 123.4217 27.1903 46.1528 0.0000 0.0000 0.0000
# 2 27.1903 68.7897 22.7146 0.0000 0.0000 0.0000
# 3 46.1528 22.7146 90.6774 0.0000 0.0000 0.0000
# 4 0.0000 0.0000 0.0000 23.6152 0.0000 0.0000
# 5 0.0000 0.0000 0.0000 0.0000 22.2210 0.0000
# 6 0.0000 0.0000 0.0000 0.0000 0.0000 27.6812
#
#
#
# Elastic Compliance Matrix: (Units=1/GPa)
#
#
# Indices 1 2 3 4 5 6 
#
# 1 0.010410 -0.002578 -0.004653 0.000000 0.000000 0.000000
# 2 -0.002578 0.016487 -0.002817 0.000000 0.000000 0.000000
# 3 -0.004653 -0.002817 0.014102 0.000000 0.000000 0.000000
# 4 0.000000 0.000000 0.000000 0.042346 0.000000 0.000000
# 5 0.000000 0.000000 0.000000 0.000000 0.045003 0.000000
# 6 0.000000 0.000000 0.000000 0.000000 0.000000 0.036126
#
#
# Mechanical properties :
#
#
# Convention : Reuss Voigt Hill
#
# Bulk Modulus (GPa) = 47.84338 52.77824 50.31081
# Shear Modulus (GPa) = 26.10462 27.15887 26.63174
#
# Velocity S-wave (km/s) = 3.50114 3.57114 3.53631
# Velocity P-wave (km/s) = 6.22975 6.46430 6.34811
#
# Compressibility (1/GPa) = 0.02090153
#
# Stress axis : x y z
#
# Youngs Moduli (GPa) = 96.05973 60.65531 70.91197
#
# Poissons Ratio (x) = 0.15640 0.32993
# Poissons Ratio (y) = 0.24769 0.19979
# Poissons Ratio (z) = 0.44693 0.17090
#
# Static dielectric constant tensor:
#      x y z
#    x 4.187610 0.000000 0.000000 
#    y 0.000000 3.682900 0.000000 
#    z 0.000000 0.000000 3.425730 
# 
# 
# High freq. dielectric constant tensor:
#      x y z
#    x 1.867510 0.000000 0.000000 
#    y 0.000000 1.822160 0.000000 
#    z 0.000000 0.000000 1.788010 
# 
# From -- ./inp_files/6397.got.cif
#   From: 2010.03.12/outbox.cif.g09.slc.cpg/sg73_4_cif.got.tgz:6397.got - 2010.04.16 15:25:48.
