data_PCOD8295287
_publ_section_title
;
Structure prediction by ZEFSAII (Michael W. Deem and Ramdas Pophale) SiO2 
 PCOD8295287
Probable space group: I B A M
;
_chemical_formula_sum "Si O2"
_cell_formula_units_Z 68
_cell_length_a 8.269810
_cell_length_b 20.598783
_cell_length_c 18.133251
_cell_angle_alpha 90.000000
_cell_angle_beta 90.000000
_cell_angle_gamma 90.000000
_cell_volume 3088.963434
_symmetry_space_group_name_H-M "I B A M"
_symmetry_group_IT_number 72
_symmetry_cell_setting 'orthorhombic'
loop_
_space_group_symop_operation_xyz
x,y,z
-x,-y,z
x,-y,1/2-z
-x,y,1/2-z
-x,-y,-z
x,y,-z
-x,y,1/2+z
x,-y,1/2+z
1/2+x,1/2+y,1/2+z
1/2-x,1/2-y,1/2+z
1/2+x,1/2-y,-z
1/2-x,1/2+y,-z
1/2-x,1/2-y,1/2-z
1/2+x,1/2+y,1/2-z
1/2-x,1/2+y,z
1/2+x,1/2-y,z
loop_
_atom_site_type_symbol
_atom_site_label
_atom_site_fract_x
_atom_site_fract_y
_atom_site_fract_z
Si Si1 0.749349 0.098455 0.713369
Si Si2 0.946521 0.280199 0.176041
Si Si3 0.755531 0.318935 0.416709
Si Si4 0.555530 0.571581 0.139091
Si Si5 0.500000 0.000000 0.250000
O O1 0.672388 0.169298 0.716806
O O2 0.609604 0.045330 0.696464
O O3 0.882481 0.106227 0.649499
O O4 0.837486 0.927410 0.713097
O O5 0.864803 0.233976 0.117235
O O6 0.000000 0.239593 0.250000
O O7 0.084273 0.320721 0.133035
O O8 0.800123 0.299275 0.500000
O O9 0.662940 0.388512 0.419639
O O10 0.500000 0.500000 0.113033
#
# Coordination Sequence:
#
# PCOD8295287 Si02
#       5
#    16  16  16  16   4
#     4  11  21  36  67 102 134 168 224 292 335 396
#     4  12  24  43  70 102 135 183 236 295 343 411
#     4  12  27  45  67 100 146 185 230 287 357 420
#     4  11  22  41  66 101 139 183 227 278 350 410
#     4  12  16  34  56 100 142 158 206 284 350 378
#
# _framework density 22.013857000000002
#
# number of rings (size 3 to 8) (size 9 to 14) (size 15 to 20)
#    0.000    0.471    5.882    3.529    3.294    0.471 
#    0.000    1.176    0.000    1.412    0.000    0.000 
#    0.000    0.000    0.000    0.000    0.000    0.000 
#
# Total GULP energy -421237.688397 kJ/mol
# GULP energy per Si atom -12389.343776 kJ/mol
# Density = 2.196375 g / cm^3
# Si number density = 22.013857 Si / 1000 Ang^3
#
#
#
# Elastic Constant Matrix: (Units=GPa)
#
#
# Indices 1 2 3 4 5 6 
#
# 1 114.7042 30.4166 27.5840 0.0000 0.0000 0.0000
# 2 30.4166 102.5550 21.3714 0.0000 0.0000 0.0000
# 3 27.5840 21.3714 112.5070 0.0000 0.0000 0.0000
# 4 0.0000 0.0000 0.0000 13.6064 0.0000 0.0000
# 5 0.0000 0.0000 0.0000 0.0000 20.7997 0.0000
# 6 0.0000 0.0000 0.0000 0.0000 0.0000 33.7072
#
#
#
# Elastic Compliance Matrix: (Units=1/GPa)
#
#
# Indices 1 2 3 4 5 6 
#
# 1 0.009852 -0.002518 -0.001937 0.000000 0.000000 0.000000
# 2 -0.002518 0.010796 -0.001433 0.000000 0.000000 0.000000
# 3 -0.001937 -0.001433 0.009636 0.000000 0.000000 0.000000
# 4 0.000000 0.000000 0.000000 0.073495 0.000000 0.000000
# 5 0.000000 0.000000 0.000000 0.000000 0.048078 0.000000
# 6 0.000000 0.000000 0.000000 0.000000 0.000000 0.029667
#
#
# Mechanical properties :
#
#
# Convention : Reuss Voigt Hill
#
# Bulk Modulus (GPa) = 54.03586 54.27894 54.15740
# Shear Modulus (GPa) = 25.06647 30.31560 27.69104
#
# Velocity S-wave (km/s) = 3.37808 3.71497 3.55052
# Velocity P-wave (km/s) = 6.30990 6.56594 6.43919
#
# Compressibility (1/GPa) = 0.01850623
#
# Stress axis : x y z
#
# Youngs Moduli (GPa) = 101.50570 92.62299 103.78244
#
# Poissons Ratio (x) = 0.23325 0.20103
# Poissons Ratio (y) = 0.25561 0.14877
# Poissons Ratio (z) = 0.19662 0.13277
#
# Static dielectric constant tensor:
#      x y z
#    x 4.566280 0.000000 0.000000 
#    y 0.000000 3.989860 0.000000 
#    z 0.000000 0.000000 3.536290 
# 
# 
# High freq. dielectric constant tensor:
#      x y z
#    x 1.896660 0.000000 0.000000 
#    y 0.000000 1.871630 0.000000 
#    z 0.000000 0.000000 1.814150 
# 
# From -- ./inp_files/27755.got.cif
#   From: 2010.03.12/outbox.cif.g09.slc.cpg/sg72_14_cif.got.tgz:27755.got - 2010.04.16 14:54:00.
