data_PCOD8295173
_publ_section_title
;
Structure prediction by ZEFSAII (Michael W. Deem and Ramdas Pophale) SiO2 
 PCOD8295173
Probable space group: I B A M
;
_chemical_formula_sum "Si O2"
_cell_formula_units_Z 60
_cell_length_a 11.533863
_cell_length_b 24.410736
_cell_length_c 9.790273
_cell_angle_alpha 90.000000
_cell_angle_beta 90.000000
_cell_angle_gamma 90.000000
_cell_volume 2756.452193
_symmetry_space_group_name_H-M "I B A M"
_symmetry_group_IT_number 72
_symmetry_cell_setting 'orthorhombic'
loop_
_space_group_symop_operation_xyz
x,y,z
-x,-y,z
x,-y,1/2-z
-x,y,1/2-z
-x,-y,-z
x,y,-z
-x,y,1/2+z
x,-y,1/2+z
1/2+x,1/2+y,1/2+z
1/2-x,1/2-y,1/2+z
1/2+x,1/2-y,-z
1/2-x,1/2+y,-z
1/2-x,1/2-y,1/2-z
1/2+x,1/2+y,1/2-z
1/2-x,1/2+y,z
1/2+x,1/2-y,z
loop_
_atom_site_type_symbol
_atom_site_label
_atom_site_fract_x
_atom_site_fract_y
_atom_site_fract_z
Si Si1 0.472370 0.162884 0.000000
Si Si2 0.239846 0.635837 0.500000
Si Si3 0.626375 0.339433 0.234870
Si Si4 0.000000 0.264047 0.250000
Si Si5 0.000000 0.000000 0.750000
Si Si6 0.654625 0.523613 0.000000
Si Si7 0.247475 0.597522 0.000000
O O1 0.604431 0.145664 0.000000
O O2 0.443966 0.198593 0.866769
O O3 0.390669 0.108851 0.000000
O O4 0.301568 0.663790 0.372909
O O5 0.249951 0.570379 0.500000
O O6 0.500000 0.368974 0.250000
O O7 0.601302 0.276070 0.189110
O O8 0.698643 0.374416 0.130511
O O9 0.919411 0.966891 0.640608
O O10 0.723138 0.466425 0.000000
#
# Coordination Sequence:
#
# PCOD8295173 Si02
#       7
#     8   8  16   8   4   8   8
#     4  12  26  43  64  98 124 185 218 246 312 402
#     4  12  25  42  67  93 137 168 217 259 318 383
#     4  10  24  42  66  97 128 164 208 273 331 371
#     4  10  24  43  66  98 128 164 218 269 330 364
#     4  10  24  36  68  92 124 150 224 240 350 358
#     4  11  26  41  64  98 128 173 197 282 304 382
#     4  12  25  42  67  93 137 168 217 259 318 383
#
# _framework density 21.767109999999999
#
# number of rings (size 3 to 8) (size 9 to 14) (size 15 to 20)
#    0.800    0.267    0.000    5.600   11.200    6.933 
#    0.000    0.000    0.000    6.400    0.000    0.000 
#    0.000    0.000    0.000    0.000    0.000    0.000 
#
# Total GULP energy -371761.055699 kJ/mol
# GULP energy per Si atom -12392.035190 kJ/mol
# Density = 2.171757 g / cm^3
# Si number density = 21.767110 Si / 1000 Ang^3
#
#
#
# Elastic Constant Matrix: (Units=GPa)
#
#
# Indices 1 2 3 4 5 6 
#
# 1 142.0134 34.1979 17.2810 -0.0003 -0.0001 0.0001
# 2 34.1979 114.7078 13.8461 -0.0002 -0.0001 -0.0001
# 3 17.2810 13.8461 120.4816 -0.0009 0.0001 0.0006
# 4 -0.0003 -0.0002 -0.0009 40.5359 -0.0001 0.0002
# 5 -0.0001 -0.0001 0.0001 -0.0001 28.1218 0.0000
# 6 0.0001 -0.0001 0.0006 0.0002 0.0000 17.9214
#
#
#
# Elastic Compliance Matrix: (Units=1/GPa)
#
#
# Indices 1 2 3 4 5 6 
#
# 1 0.007671 -0.002184 -0.000849 0.000000 0.000000 0.000000
# 2 -0.002184 0.009462 -0.000774 0.000000 0.000000 0.000000
# 3 -0.000849 -0.000774 0.008511 0.000000 0.000000 0.000000
# 4 0.000000 0.000000 0.000000 0.024669 0.000000 0.000000
# 5 0.000000 0.000000 0.000000 0.000000 0.035560 0.000000
# 6 0.000000 0.000000 0.000000 0.000000 0.000000 0.055799
#
#
# Mechanical properties :
#
#
# Convention : Reuss Voigt Hill
#
# Bulk Modulus (GPa) = 55.46726 56.42807 55.94767
# Shear Modulus (GPa) = 32.19623 38.10768 35.15195
#
# Velocity S-wave (km/s) = 3.85011 4.18868 4.02296
# Velocity P-wave (km/s) = 6.73067 7.02660 6.88023
#
# Compressibility (1/GPa) = 0.01802865
#
# Stress axis : x y z
#
# Youngs Moduli (GPa) = 130.36183 105.68032 117.49787
#
# Poissons Ratio (x) = 0.23085 0.09978
# Poissons Ratio (y) = 0.28477 0.09096
# Poissons Ratio (z) = 0.11071 0.08181
#
# Static dielectric constant tensor:
#      x y z
#    x 3.932530 0.000000 0.000000 
#    y 0.000000 3.815670 0.000000 
#    z 0.000000 0.000000 4.105780 
# 
# 
# High freq. dielectric constant tensor:
#      x y z
#    x 1.847420 0.000000 0.000000 
#    y 0.000000 1.852580 0.000000 
#    z 0.000000 0.000000 1.867740 
# 
# From -- ./inp_files/2456.got.cif
#   From: 2010.03.12/outbox.cif.g09.slc.cpg/sg72_2_cif.got.tgz:2456.got - 2010.04.16 14:54:00.
