data_PCOD8295381
_publ_section_title
;
Structure prediction by ZEFSAII (Michael W. Deem and Ramdas Pophale) SiO2 
 PCOD8295381
Probable space group: I B A M
;
_chemical_formula_sum "Si O2"
_cell_formula_units_Z 112
_cell_length_a 12.259162
_cell_length_b 30.582160
_cell_length_c 14.687244
_cell_angle_alpha 90.000000
_cell_angle_beta 90.000000
_cell_angle_gamma 90.000000
_cell_volume 5506.418937
_symmetry_space_group_name_H-M "I B A M"
_symmetry_group_IT_number 72
_symmetry_cell_setting 'orthorhombic'
loop_
_space_group_symop_operation_xyz
x,y,z
-x,-y,z
x,-y,1/2-z
-x,y,1/2-z
-x,-y,-z
x,y,-z
-x,y,1/2+z
x,-y,1/2+z
1/2+x,1/2+y,1/2+z
1/2-x,1/2-y,1/2+z
1/2+x,1/2-y,-z
1/2-x,1/2+y,-z
1/2-x,1/2-y,1/2-z
1/2+x,1/2+y,1/2-z
1/2-x,1/2+y,z
1/2+x,1/2-y,z
loop_
_atom_site_type_symbol
_atom_site_label
_atom_site_fract_x
_atom_site_fract_y
_atom_site_fract_z
Si Si1 0.881498 0.491011 0.394295
Si Si2 0.983325 0.741233 0.398389
Si Si3 0.709700 0.900841 0.603645
Si Si4 0.629265 0.373766 0.242489
Si Si5 0.012581 0.355561 0.355426
Si Si6 0.716378 0.916929 0.895752
Si Si7 0.142752 0.225781 0.228154
O O1 0.900603 0.480642 0.500000
O O2 0.824604 0.447780 0.352414
O O3 0.803727 0.532000 0.377610
O O4 0.000000 0.500000 0.348870
O O5 0.964162 0.760251 0.500000
O O6 0.926463 0.770505 0.320981
O O7 0.950927 0.690246 0.400038
O O8 0.106825 0.748437 0.364045
O O9 0.751835 0.905098 0.500000
O O10 0.809769 0.881475 0.661529
O O11 0.602812 0.870291 0.603783
O O12 0.500000 0.383170 0.250000
O O13 0.680892 0.404711 0.165876
O O14 0.654823 0.325202 0.207240
O O15 0.000000 0.346273 0.250000
O O16 0.105642 0.391078 0.372836
O O17 0.748189 0.908274 0.000000
O O18 0.250000 0.250000 0.250000
#
# Coordination Sequence:
#
# PCOD8295381 Si02
#       7
#    16  16  16  16  16  16  16
#     4   9  18  37  65 102 139 161 200 268 330 389
#     4  11  23  40  64  92 122 161 206 258 324 384
#     4  11  23  40  67  99 132 172 214 262 327 392
#     4  12  26  45  62  89 131 178 223 269 316 377
#     4  12  20  38  64 102 140 162 201 269 333 396
#     4  11  23  40  67  99 132 172 214 262 327 392
#     4  11  23  44  66  87 125 160 214 278 320 368
#
# _framework density 20.339898999999999
#
# number of rings (size 3 to 8) (size 9 to 14) (size 15 to 20)
#    0.000    1.000    5.714    3.000    0.000    2.857 
#    0.000    2.857    0.000    2.571    0.000    0.000 
#    0.000    0.000    0.000    0.000    0.000    0.000 
#
# Total GULP energy -694202.668143 kJ/mol
# GULP energy per Si atom -12396.476217 kJ/mol
# Density = 2.029360 g / cm^3
# Si number density = 20.339899 Si / 1000 Ang^3
#
#
#
# Elastic Constant Matrix: (Units=GPa)
#
#
# Indices 1 2 3 4 5 6 
#
# 1 102.4096 14.1476 21.4886 0.0000 0.0000 0.0000
# 2 14.1476 84.1998 10.0221 -0.0004 0.0003 -0.0002
# 3 21.4886 10.0221 116.7657 -0.0024 0.0015 -0.0007
# 4 0.0000 -0.0004 -0.0024 25.4853 0.0004 -0.0002
# 5 0.0000 0.0003 0.0015 0.0004 24.3387 -0.0001
# 6 0.0000 -0.0002 -0.0007 -0.0002 -0.0001 27.9445
#
#
#
# Elastic Compliance Matrix: (Units=1/GPa)
#
#
# Indices 1 2 3 4 5 6 
#
# 1 0.010348 -0.001528 -0.001773 0.000000 0.000000 0.000000
# 2 -0.001528 0.012225 -0.000768 0.000000 0.000000 0.000000
# 3 -0.001773 -0.000768 0.008956 0.000001 -0.000001 0.000000
# 4 0.000000 0.000000 0.000001 0.039238 -0.000001 0.000000
# 5 0.000000 0.000000 -0.000001 -0.000001 0.041087 0.000000
# 6 0.000000 0.000000 0.000000 0.000000 0.000000 0.035785
#
#
# Mechanical properties :
#
#
# Convention : Reuss Voigt Hill
#
# Bulk Modulus (GPa) = 42.75158 43.85464 43.30311
# Shear Modulus (GPa) = 30.56721 32.73484 31.65103
#
# Velocity S-wave (km/s) = 3.88083 4.01607 3.94903
# Velocity P-wave (km/s) = 6.41446 6.56604 6.49069
#
# Compressibility (1/GPa) = 0.02339095
#
# Stress axis : x y z
#
# Youngs Moduli (GPa) = 96.63878 81.80213 111.65184
#
# Poissons Ratio (x) = 0.12496 0.19798
# Poissons Ratio (y) = 0.14763 0.08576
# Poissons Ratio (z) = 0.17136 0.06283
#
# Static dielectric constant tensor:
#      x y z
#    x 3.767780 0.000000 0.000000 
#    y 0.000000 3.748270 0.000000 
#    z 0.000000 0.000000 3.763020 
# 
# 
# High freq. dielectric constant tensor:
#      x y z
#    x 1.777600 0.000000 0.000000 
#    y 0.000000 1.803400 0.000000 
#    z 0.000000 0.000000 1.800450 
# 
# From -- ./inp_files/20703.got.cif
#   From: 2010.03.12/outbox.cif.g09.slc.cpg/sg72_11_cif.got.tgz:20703.got - 2010.04.16 14:54:00.
