data_PCOD8295374
_publ_section_title
;
Structure prediction by ZEFSAII (Michael W. Deem and Ramdas Pophale) SiO2 
 PCOD8295374
Probable space group: I B A M
;
_chemical_formula_sum "Si O2"
_cell_formula_units_Z 88
_cell_length_a 14.100037
_cell_length_b 19.980001
_cell_length_c 14.602544
_cell_angle_alpha 90.000000
_cell_angle_beta 90.000000
_cell_angle_gamma 90.000000
_cell_volume 4113.810492
_symmetry_space_group_name_H-M "I B A M"
_symmetry_group_IT_number 72
_symmetry_cell_setting 'orthorhombic'
loop_
_space_group_symop_operation_xyz
x,y,z
-x,-y,z
x,-y,1/2-z
-x,y,1/2-z
-x,-y,-z
x,y,-z
-x,y,1/2+z
x,-y,1/2+z
1/2+x,1/2+y,1/2+z
1/2-x,1/2-y,1/2+z
1/2+x,1/2-y,-z
1/2-x,1/2+y,-z
1/2-x,1/2-y,1/2-z
1/2+x,1/2+y,1/2-z
1/2-x,1/2+y,z
1/2+x,1/2-y,z
loop_
_atom_site_type_symbol
_atom_site_label
_atom_site_fract_x
_atom_site_fract_y
_atom_site_fract_z
Si Si1 0.377846 0.237481 0.101138
Si Si2 0.544142 0.329092 0.153979
Si Si3 0.751736 0.500000 0.750000
Si Si4 0.900922 0.027336 0.396502
Si Si5 0.173489 0.716400 0.606643
Si Si6 0.106294 0.379434 0.250023
O O1 0.463769 0.290175 0.097511
O O2 0.285577 0.281826 0.122446
O O3 0.390463 0.178466 0.173697
O O4 0.369112 0.204623 0.000000
O O5 0.500000 0.351621 0.250000
O O6 0.590524 0.392462 0.104268
O O7 0.631337 0.278190 0.164963
O O8 0.684206 0.505137 0.838425
O O9 0.817308 0.563650 0.730513
O O10 0.883048 0.002954 0.500000
O O11 0.000000 0.000000 0.357604
O O12 0.144319 0.719860 0.500000
O O13 0.130365 0.649046 0.649481
O O14 0.000000 0.409642 0.250000
#
# Coordination Sequence:
#
# PCOD8295374 Si02
#       6
#    16  16   8  16  16  16
#     4  11  23  39  67 102 135 173 221 283 348 408
#     4  12  22  40  69 100 139 174 218 278 342 404
#     4  12  28  46  70  92 140 184 238 276 340 410
#     4  11  26  46  69 102 140 181 227 278 340 413
#     4  11  23  39  64  98 133 174 221 278 341 405
#     4  12  25  45  66  97 130 182 231 287 334 407
#
# _framework density 21.391359000000001
#
# number of rings (size 3 to 8) (size 9 to 14) (size 15 to 20)
#    0.000    0.545    3.636    4.909    5.091    2.909 
#    0.000    0.000    0.000    3.273    0.000    0.000 
#    0.000    0.000    0.000    0.000    0.000    0.000 
#
# Total GULP energy -545605.307436 kJ/mol
# GULP energy per Si atom -12400.120624 kJ/mol
# Density = 2.134267 g / cm^3
# Si number density = 21.391359 Si / 1000 Ang^3
#
#
#
# Elastic Constant Matrix: (Units=GPa)
#
#
# Indices 1 2 3 4 5 6 
#
# 1 144.0101 32.2906 37.9868 0.0001 0.0000 0.0000
# 2 32.2906 59.0407 13.8664 -0.0007 -0.0002 -0.0001
# 3 37.9868 13.8664 103.5100 -0.0008 -0.0004 -0.0004
# 4 0.0001 -0.0007 -0.0008 20.9265 -0.0004 -0.0003
# 5 0.0000 -0.0002 -0.0004 -0.0004 27.0215 0.0000
# 6 0.0000 -0.0001 -0.0004 -0.0003 0.0000 41.0884
#
#
#
# Elastic Compliance Matrix: (Units=1/GPa)
#
#
# Indices 1 2 3 4 5 6 
#
# 1 0.008538 -0.004061 -0.002589 0.000000 0.000000 0.000000
# 2 -0.004061 0.019420 -0.001111 0.000001 0.000000 0.000000
# 3 -0.002589 -0.001111 0.010760 0.000000 0.000000 0.000000
# 4 0.000000 0.000001 0.000000 0.047786 0.000001 0.000000
# 5 0.000000 0.000000 0.000000 0.000001 0.037008 0.000000
# 6 0.000000 0.000000 0.000000 0.000000 0.000000 0.024338
#
#
# Mechanical properties :
#
#
# Convention : Reuss Voigt Hill
#
# Bulk Modulus (GPa) = 43.11429 52.76096 47.93762
# Shear Modulus (GPa) = 29.22218 32.63508 30.92863
#
# Velocity S-wave (km/s) = 3.70005 3.91016 3.80655
# Velocity P-wave (km/s) = 6.20102 6.71594 6.46361
#
# Compressibility (1/GPa) = 0.02319417
#
# Stress axis : x y z
#
# Youngs Moduli (GPa) = 117.12963 51.49438 92.93758
#
# Poissons Ratio (x) = 0.20913 0.24063
# Poissons Ratio (y) = 0.47570 0.10326
# Poissons Ratio (z) = 0.30326 0.05721
#
# Static dielectric constant tensor:
#      x y z
#    x 4.128920 0.000000 0.000000 
#    y 0.000000 3.766070 0.000000 
#    z 0.000000 0.000000 4.038100 
# 
# 
# High freq. dielectric constant tensor:
#      x y z
#    x 1.859260 0.000000 0.000000 
#    y 0.000000 1.819380 0.000000 
#    z 0.000000 0.000000 1.848490 
# 
# From -- ./inp_files/21711.got.cif
#   From: 2010.03.12/outbox.cif.g09.slc.cpg/sg72_11_cif.got.tgz:21711.got - 2010.04.16 14:54:00.
