data_PCOD8295460
_publ_section_title
;
Structure prediction by ZEFSAII (Michael W. Deem and Ramdas Pophale) SiO2 
 PCOD8295460
Probable space group: I B A M
;
_chemical_formula_sum "Si O2"
_cell_formula_units_Z 68
_cell_length_a 17.413199
_cell_length_b 21.854867
_cell_length_c 10.141827
_cell_angle_alpha 90.000000
_cell_angle_beta 90.000000
_cell_angle_gamma 90.000000
_cell_volume 3859.605612
_symmetry_space_group_name_H-M "I B A M"
_symmetry_group_IT_number 72
_symmetry_cell_setting 'orthorhombic'
loop_
_space_group_symop_operation_xyz
x,y,z
-x,-y,z
x,-y,1/2-z
-x,y,1/2-z
-x,-y,-z
x,y,-z
-x,y,1/2+z
x,-y,1/2+z
1/2+x,1/2+y,1/2+z
1/2-x,1/2-y,1/2+z
1/2+x,1/2-y,-z
1/2-x,1/2+y,-z
1/2-x,1/2-y,1/2-z
1/2+x,1/2+y,1/2-z
1/2-x,1/2+y,z
1/2+x,1/2-y,z
loop_
_atom_site_type_symbol
_atom_site_label
_atom_site_fract_x
_atom_site_fract_y
_atom_site_fract_z
Si Si1 0.147474 0.218755 0.148090
Si Si2 0.211359 0.551134 0.154080
Si Si3 0.500000 0.500000 0.750000
Si Si4 0.124431 0.911585 0.650527
Si Si5 0.173970 0.313525 0.354657
O O1 0.106229 0.156845 0.205390
O O2 0.127087 0.274844 0.245501
O O3 0.237539 0.205084 0.148287
O O4 0.119693 0.236005 0.000000
O O5 0.173555 0.500000 0.250000
O O6 0.298376 0.559551 0.211125
O O7 0.164943 0.614239 0.174328
O O8 0.209284 0.530530 0.000000
O O9 0.447609 0.543290 0.839387
O O10 0.145978 0.899675 0.500000
O O11 0.140270 0.298719 0.500000
#
# Coordination Sequence:
#
# PCOD8295460 Si02
#       5
#    16  16   4  16  16
#     4   8  14  26  40  53  72  96 126 165 205 241
#     4   9  16  27  39  56  81 106 131 165 202 242
#     4  12  18  28  44  54  76 112 148 172 202 242
#     4   9  18  29  39  53  75 103 138 177 208 232
#     4   8  14  24  39  56  75  95 123 162 202 240
#
# _framework density 17.618379000000001
#
# number of rings (size 3 to 8) (size 9 to 14) (size 15 to 20)
#    0.000    3.294    1.176    3.176    0.000    0.941 
#    0.000    5.882    0.000    0.000    0.000    0.000 
#    0.000    0.000    0.000    1.059    0.000   16.941 
#
# Total GULP energy -421194.615509 kJ/mol
# GULP energy per Si atom -12388.076927 kJ/mol
# Density = 1.757828 g / cm^3
# Si number density = 17.618379 Si / 1000 Ang^3
#
#
#
# Elastic Constant Matrix: (Units=GPa)
#
#
# Indices 1 2 3 4 5 6 
#
# 1 15.2735 17.7469 6.4766 0.0000 0.0000 0.0000
# 2 17.7469 149.3080 84.7654 0.0000 0.0000 0.0000
# 3 6.4766 84.7654 101.1850 0.0000 0.0000 0.0000
# 4 0.0000 0.0000 0.0000 36.2901 0.0000 0.0000
# 5 0.0000 0.0000 0.0000 0.0000 8.3143 0.0000
# 6 0.0000 0.0000 0.0000 0.0000 0.0000 23.2708
#
#
#
# Elastic Compliance Matrix: (Units=1/GPa)
#
#
# Indices 1 2 3 4 5 6 
#
# 1 0.077399 -0.012180 0.005249 0.000000 0.000000 0.000000
# 2 -0.012180 0.014688 -0.011525 0.000000 0.000000 0.000000
# 3 0.005249 -0.011525 0.019202 0.000000 0.000000 0.000000
# 4 0.000000 0.000000 0.000000 0.027556 0.000000 0.000000
# 5 0.000000 0.000000 0.000000 0.000000 0.120274 0.000000
# 6 0.000000 0.000000 0.000000 0.000000 0.000000 0.042972
#
#
# Mechanical properties :
#
#
# Convention : Reuss Voigt Hill
#
# Bulk Modulus (GPa) = 13.44488 53.74936 33.59712
# Shear Modulus (GPa) = 13.74396 24.02688 18.88542
#
# Velocity S-wave (km/s) = 2.79604 3.69689 3.27756
# Velocity P-wave (km/s) = 4.25106 6.98545 5.78221
#
# Compressibility (1/GPa) = 0.07437776
#
# Stress axis : x y z
#
# Youngs Moduli (GPa) = 12.92003 68.08084 52.07807
#
# Poissons Ratio (x) = 0.82921 -0.27337
# Poissons Ratio (y) = 0.15736 0.60021
# Poissons Ratio (z) = -0.06782 0.78465
#
# Static dielectric constant tensor:
#      x y z
#    x 2.597170 0.000000 0.000000 
#    y 0.000000 3.548390 0.000000 
#    z 0.000000 0.000000 3.310790 
# 
# 
# High freq. dielectric constant tensor:
#      x y z
#    x 1.603610 0.000000 0.000000 
#    y 0.000000 1.694820 0.000000 
#    z 0.000000 0.000000 1.671910 
# 
# From -- ./inp_files/6723.got.cif
#   From: 2010.03.12/outbox.cif.g09.slc.cpg/sg72_4_cif.got.tgz:6723.got - 2010.04.16 14:54:00.
