data_PCOD8295566
_publ_section_title
;
Structure prediction by ZEFSAII (Michael W. Deem and Ramdas Pophale) SiO2 
 PCOD8295566
Probable space group: I B C A 
;
_chemical_formula_sum "Si O2"
_cell_formula_units_Z 88
_cell_length_a 24.393494
_cell_length_b 13.170723
_cell_length_c 13.409469
_cell_angle_alpha 90.000000
_cell_angle_beta 90.000000
_cell_angle_gamma 90.000000
_cell_volume 4308.193563
_symmetry_space_group_name_H-M "I B C A "
_symmetry_group_IT_number 73
_symmetry_cell_setting 'orthorhombic'
loop_
_space_group_symop_operation_xyz
x,y,z
-x,1/2-y,z
x,-y,1/2-z
1/2-x,y,-z
-x,-y,-z
x,1/2+y,-z
-x,y,1/2+z
1/2+x,-y,z
1/2+x,1/2+y,1/2+z
1/2-x,-y,1/2+z
1/2+x,1/2-y,-z
-x,1/2+y,1/2-z
1/2-x,1/2-y,1/2-z
1/2+x,y,1/2-z
1/2-x,1/2+y,z
x,1/2-y,1/2+z
loop_
_atom_site_type_symbol
_atom_site_label
_atom_site_fract_x
_atom_site_fract_y
_atom_site_fract_z
Si Si1 0.629339 0.891534 0.198883
Si Si2 0.162668 0.704609 0.605721
Si Si3 0.250000 0.076234 0.500000
Si Si4 0.339372 0.420575 0.519424
Si Si5 0.013192 0.551195 0.847737
Si Si6 0.427984 0.422881 0.998217
O O1 0.649508 0.807201 0.277081
O O2 0.665231 0.888081 0.097739
O O3 0.564727 0.875104 0.175589
O O4 0.637822 0.000000 0.250000
O O5 0.219504 0.647243 0.580936
O O6 0.168599 0.823709 0.588733
O O7 0.114239 0.663251 0.533783
O O8 0.293623 0.001962 0.447519
O O9 0.397585 0.474155 0.537354
O O10 0.987144 0.500000 0.750000
O O11 0.966060 0.614574 0.906291
O O12 0.033188 0.453210 0.910454
#
# Coordination Sequence:
#
# PCOD8295566 Si02
#       6
#    16  16   8  16  16  16
#     4  10  17  39  65  80 115 173 196 228 310 372
#     4  11  20  38  64  85 121 159 199 254 303 356
#     4  10  20  38  62  86 114 158 190 248 316 356
#     4  10  21  37  60  90 120 152 209 250 295 366
#     4   9  15  32  60  79 109 162 198 229 290 355
#     4   9  18  33  58  82 116 159 196 245 292 341
#
# _framework density 20.426193000000001
#
# number of rings (size 3 to 8) (size 9 to 14) (size 15 to 20)
#    0.000    2.182    7.273    0.545    0.000    0.000 
#    3.273   13.636   12.000    0.000    0.000    0.000 
#    0.000    0.000    0.000    0.000    0.000    0.000 
#
# Total GULP energy -545382.388009 kJ/mol
# GULP energy per Si atom -12395.054273 kJ/mol
# Density = 2.037970 g / cm^3
# Si number density = 20.426193 Si / 1000 Ang^3
#
#
#
# Elastic Constant Matrix: (Units=GPa)
#
#
# Indices 1 2 3 4 5 6 
#
# 1 82.4387 13.7263 43.2943 0.0000 0.0000 0.0000
# 2 13.7263 80.0628 12.9100 0.0000 0.0000 0.0000
# 3 43.2943 12.9100 86.7335 0.0000 0.0000 0.0000
# 4 0.0000 0.0000 0.0000 27.5951 0.0000 0.0000
# 5 0.0000 0.0000 0.0000 0.0000 26.8705 0.0000
# 6 0.0000 0.0000 0.0000 0.0000 0.0000 11.7355
#
#
#
# Elastic Compliance Matrix: (Units=1/GPa)
#
#
# Indices 1 2 3 4 5 6 
#
# 1 0.016625 -0.001549 -0.008068 0.000000 0.000000 0.000000
# 2 -0.001549 0.012942 -0.001153 0.000000 0.000000 0.000000
# 3 -0.008068 -0.001153 0.015729 0.000000 0.000000 0.000000
# 4 0.000000 0.000000 0.000000 0.036238 0.000000 0.000000
# 5 0.000000 0.000000 0.000000 0.000000 0.037216 0.000000
# 6 0.000000 0.000000 0.000000 0.000000 0.000000 0.085211
#
#
# Mechanical properties :
#
#
# Convention : Reuss Voigt Hill
#
# Bulk Modulus (GPa) = 42.09697 43.23290 42.66493
# Shear Modulus (GPa) = 21.42062 25.19385 23.30723
#
# Velocity S-wave (km/s) = 3.24185 3.51580 3.38160
# Velocity P-wave (km/s) = 5.88786 6.13942 6.01496
#
# Compressibility (1/GPa) = 0.02375468
#
# Stress axis : x y z
#
# Youngs Moduli (GPa) = 60.14905 77.26943 63.57871
#
# Poissons Ratio (x) = 0.11972 0.51296
# Poissons Ratio (y) = 0.09319 0.07330
# Poissons Ratio (z) = 0.48529 0.08909
#
# Static dielectric constant tensor:
#      x y z
#    x 3.913780 0.000000 0.000000 
#    y 0.000000 3.331620 0.000000 
#    z 0.000000 0.000000 3.958520 
# 
# 
# High freq. dielectric constant tensor:
#      x y z
#    x 1.799830 0.000000 0.000000 
#    y 0.000000 1.766490 0.000000 
#    z 0.000000 0.000000 1.787380 
# 
# From -- ./inp_files/19334.got.cif
#   From: 2010.03.12/outbox.cif.g09.slc.cpg/sg73_10_cif.got.tgz:19334.got - 2010.04.16 15:25:48.
