data_PCOD8295014
_publ_section_title
;
Structure prediction by ZEFSAII (Michael W. Deem and Ramdas Pophale) SiO2 
 PCOD8295014
Probable space group: I B A M
;
_chemical_formula_sum "Si O2"
_cell_formula_units_Z 88
_cell_length_a 11.629819
_cell_length_b 25.123939
_cell_length_c 14.687837
_cell_angle_alpha 90.000000
_cell_angle_beta 90.000000
_cell_angle_gamma 90.000000
_cell_volume 4291.593019
_symmetry_space_group_name_H-M "I B A M"
_symmetry_group_IT_number 72
_symmetry_cell_setting 'orthorhombic'
loop_
_space_group_symop_operation_xyz
x,y,z
-x,-y,z
x,-y,1/2-z
-x,y,1/2-z
-x,-y,-z
x,y,-z
-x,y,1/2+z
x,-y,1/2+z
1/2+x,1/2+y,1/2+z
1/2-x,1/2-y,1/2+z
1/2+x,1/2-y,-z
1/2-x,1/2+y,-z
1/2-x,1/2-y,1/2-z
1/2+x,1/2+y,1/2-z
1/2-x,1/2+y,z
1/2+x,1/2-y,z
loop_
_atom_site_type_symbol
_atom_site_label
_atom_site_fract_x
_atom_site_fract_y
_atom_site_fract_z
Si Si1 0.447083 0.111478 0.500000
Si Si2 0.030863 0.685851 0.153455
Si Si3 0.707666 0.442550 0.500000
Si Si4 0.007775 0.195873 0.103545
Si Si5 0.763626 0.864851 0.850220
Si Si6 0.179970 0.442160 0.500000
Si Si7 0.106858 0.899502 0.186306
O O1 0.463761 0.148515 0.585816
O O2 0.313877 0.097142 0.500000
O O3 0.539244 0.062213 0.500000
O O4 0.168044 0.681212 0.143765
O O5 0.000000 0.661780 0.250000
O O6 0.986927 0.746085 0.146836
O O7 0.768620 0.499288 0.500000
O O8 0.631633 0.434360 0.593718
O O9 0.126219 0.164374 0.110038
O O10 0.915137 0.161216 0.157166
O O11 0.968003 0.201487 0.000000
O O12 0.782307 0.892487 0.751292
O O13 0.728539 0.914410 0.911006
O O14 0.000000 0.922050 0.250000
#
# Coordination Sequence:
#
# PCOD8295014 Si02
#       7
#     8  16   8  16  16   8  16
#     4  10  23  40  62  96 126 160 209 255 301 372
#     4  11  22  38  61  92 124 163 205 243 302 377
#     4  12  23  42  68  92 123 161 210 268 308 356
#     4  11  21  39  60  89 125 162 205 246 305 370
#     4  10  22  42  61  84 128 166 195 255 315 363
#     4  10  23  42  66  88 123 165 205 255 323 362
#     4  10  23  41  64  93 125 161 209 254 305 369
#
# _framework density 20.505205
#
# number of rings (size 3 to 8) (size 9 to 14) (size 15 to 20)
#    0.000    1.455    2.727    3.000    0.000    5.091 
#    0.000   10.000    0.000    3.273    0.000    0.000 
#    0.000    0.000    0.000    0.000    0.000    0.000 
#
# Total GULP energy -545244.860246 kJ/mol
# GULP energy per Si atom -12391.928642 kJ/mol
# Density = 2.045853 g / cm^3
# Si number density = 20.505205 Si / 1000 Ang^3
#
#
#
# Elastic Constant Matrix: (Units=GPa)
#
#
# Indices 1 2 3 4 5 6 
#
# 1 73.7014 14.8780 33.1435 0.0000 0.0000 0.0000
# 2 14.8780 73.8454 22.6696 0.0000 0.0000 0.0000
# 3 33.1435 22.6696 154.5907 -0.0002 -0.0001 0.0000
# 4 0.0000 0.0000 -0.0002 26.5607 0.0000 0.0000
# 5 0.0000 0.0000 -0.0001 0.0000 31.1828 0.0000
# 6 0.0000 0.0000 0.0000 0.0000 0.0000 14.0918
#
#
#
# Elastic Compliance Matrix: (Units=1/GPa)
#
#
# Indices 1 2 3 4 5 6 
#
# 1 0.015344 -0.002180 -0.002970 0.000000 0.000000 0.000000
# 2 -0.002180 0.014490 -0.001658 0.000000 0.000000 0.000000
# 3 -0.002970 -0.001658 0.007349 0.000000 0.000000 0.000000
# 4 0.000000 0.000000 0.000000 0.037650 0.000000 0.000000
# 5 0.000000 0.000000 0.000000 0.000000 0.032069 0.000000
# 6 0.000000 0.000000 0.000000 0.000000 0.000000 0.070963
#
#
# Mechanical properties :
#
#
# Convention : Reuss Voigt Hill
#
# Bulk Modulus (GPa) = 42.43075 49.27996 45.85536
# Shear Modulus (GPa) = 25.08349 29.79682 27.44015
#
# Velocity S-wave (km/s) = 3.50133 3.81614 3.66212
# Velocity P-wave (km/s) = 6.08961 6.59562 6.34766
#
# Compressibility (1/GPa) = 0.02356781
#
# Stress axis : x y z
#
# Youngs Moduli (GPa) = 65.17257 69.01408 136.08187
#
# Poissons Ratio (x) = 0.15043 0.40417
# Poissons Ratio (y) = 0.14205 0.22556
# Poissons Ratio (z) = 0.19356 0.11439
#
# Static dielectric constant tensor:
#      x y z
#    x 3.884570 0.000000 0.000000 
#    y 0.000000 3.480270 0.000000 
#    z 0.000000 0.000000 3.805030 
# 
# 
# High freq. dielectric constant tensor:
#      x y z
#    x 1.801050 0.000000 0.000000 
#    y 0.000000 1.783990 0.000000 
#    z 0.000000 0.000000 1.829140 
# 
# From -- ./inp_files/20339.got.cif
#   From: 2010.03.12/outbox.cif.g09.slc.cpg/sg72_11_cif.got.tgz:20339.got - 2010.04.16 14:54:00.
