data_PCOD8295183
_publ_section_title
;
Structure prediction by ZEFSAII (Michael W. Deem and Ramdas Pophale) SiO2 
 PCOD8295183
Probable space group: I B A M
;
_chemical_formula_sum "Si O2"
_cell_formula_units_Z 72
_cell_length_a 15.393223
_cell_length_b 9.273460
_cell_length_c 24.406700
_cell_angle_alpha 90.000000
_cell_angle_beta 90.000000
_cell_angle_gamma 90.000000
_cell_volume 3484.018296
_symmetry_space_group_name_H-M "I B A M"
_symmetry_group_IT_number 72
_symmetry_cell_setting 'orthorhombic'
loop_
_space_group_symop_operation_xyz
x,y,z
-x,-y,z
x,-y,1/2-z
-x,y,1/2-z
-x,-y,-z
x,y,-z
-x,y,1/2+z
x,-y,1/2+z
1/2+x,1/2+y,1/2+z
1/2-x,1/2-y,1/2+z
1/2+x,1/2-y,-z
1/2-x,1/2+y,-z
1/2-x,1/2-y,1/2-z
1/2+x,1/2+y,1/2-z
1/2-x,1/2+y,z
1/2+x,1/2-y,z
loop_
_atom_site_type_symbol
_atom_site_label
_atom_site_fract_x
_atom_site_fract_y
_atom_site_fract_z
Si Si1 0.000000 0.500000 0.607467
Si Si2 0.623173 0.891092 0.699355
Si Si3 0.842843 0.347170 0.937118
Si Si4 0.225070 0.066147 0.623586
Si Si5 0.406256 0.569826 0.197304
O O1 0.930479 0.424791 0.645414
O O2 0.945164 0.613759 0.570682
O O3 0.722625 0.891321 0.678876
O O4 0.589274 0.735295 0.715984
O O5 0.607682 0.000000 0.750000
O O6 0.817833 0.209570 0.900844
O O7 0.783189 0.483878 0.921134
O O8 0.825904 0.308828 0.000000
O O9 0.149386 0.956448 0.642479
O O10 0.500000 0.500000 0.187495
O O11 0.360301 0.500000 0.250000
#
# Coordination Sequence:
#
# PCOD8295183 Si02
#       5
#     8  16  16  16  16
#     4  10  24  40  68  92 130 168 218 270 324 394
#     4  11  24  40  65  96 132 173 215 260 331 402
#     4  11  23  43  68  94 126 173 224 277 328 380
#     4  11  23  42  66  92 131 169 218 273 325 392
#     4  11  25  39  62  94 133 170 210 264 325 393
#
# _framework density 20.665793000000001
#
# number of rings (size 3 to 8) (size 9 to 14) (size 15 to 20)
#    0.000    1.111    2.222    3.333   12.444    1.778 
#    0.000    0.000    0.000    2.667    0.000    0.000 
#    0.000    0.000    0.000    0.000    0.000    0.000 
#
# Total GULP energy -446257.998960 kJ/mol
# GULP energy per Si atom -12396.055527 kJ/mol
# Density = 2.061876 g / cm^3
# Si number density = 20.665793 Si / 1000 Ang^3
#
#
#
# Elastic Constant Matrix: (Units=GPa)
#
#
# Indices 1 2 3 4 5 6 
#
# 1 107.3640 44.6954 43.3193 0.0000 0.0000 0.0000
# 2 44.6954 145.7658 39.0660 0.0000 0.0000 0.0000
# 3 43.3193 39.0660 96.5651 0.0000 0.0000 0.0000
# 4 0.0000 0.0000 0.0000 28.2553 0.0000 0.0000
# 5 0.0000 0.0000 0.0000 0.0000 31.3360 0.0000
# 6 0.0000 0.0000 0.0000 0.0000 0.0000 26.3665
#
#
#
# Elastic Compliance Matrix: (Units=1/GPa)
#
#
# Indices 1 2 3 4 5 6 
#
# 1 0.012158 -0.002542 -0.004426 0.000000 0.000000 0.000000
# 2 -0.002542 0.008226 -0.002188 0.000000 0.000000 0.000000
# 3 -0.004426 -0.002188 0.013226 0.000000 0.000000 0.000000
# 4 0.000000 0.000000 0.000000 0.035392 0.000000 0.000000
# 5 0.000000 0.000000 0.000000 0.000000 0.031912 0.000000
# 6 0.000000 0.000000 0.000000 0.000000 0.000000 0.037927
#
#
# Mechanical properties :
#
#
# Convention : Reuss Voigt Hill
#
# Bulk Modulus (GPa) = 65.36079 67.09513 66.22796
# Shear Modulus (GPa) = 30.81643 32.03250 31.42447
#
# Velocity S-wave (km/s) = 3.86577 3.94131 3.90372
# Velocity P-wave (km/s) = 7.18483 7.29720 7.24123
#
# Compressibility (1/GPa) = 0.01529969
#
# Stress axis : x y z
#
# Youngs Moduli (GPa) = 82.25057 121.56589 75.60786
#
# Poissons Ratio (x) = 0.30900 0.33462
# Poissons Ratio (y) = 0.20906 0.16540
# Poissons Ratio (z) = 0.36402 0.26594
#
# Static dielectric constant tensor:
#      x y z
#    x 4.012680 0.000000 0.000000 
#    y 0.000000 3.724810 0.000000 
#    z 0.000000 0.000000 3.846360 
# 
# 
# High freq. dielectric constant tensor:
#      x y z
#    x 1.821950 0.000000 0.000000 
#    y 0.000000 1.812580 0.000000 
#    z 0.000000 0.000000 1.801690 
# 
# From -- ./inp_files/42066.got.cif
#   From: 2010.03.12/outbox.cif.g09.slc.cpg/sg72_22_cif.got.tgz:42066.got - 2010.04.16 14:54:00.
