data_PCOD8295627
_publ_section_title
;
Structure prediction by ZEFSAII (Michael W. Deem and Ramdas Pophale) SiO2 
 PCOD8295627
Probable space group: I B C A 
;
_chemical_formula_sum "Si O2"
_cell_formula_units_Z 104
_cell_length_a 9.611742
_cell_length_b 18.317899
_cell_length_c 27.219676
_cell_angle_alpha 90.000000
_cell_angle_beta 90.000000
_cell_angle_gamma 90.000000
_cell_volume 4792.484494
_symmetry_space_group_name_H-M "I B C A "
_symmetry_group_IT_number 73
_symmetry_cell_setting 'orthorhombic'
loop_
_space_group_symop_operation_xyz
x,y,z
-x,1/2-y,z
x,-y,1/2-z
1/2-x,y,-z
-x,-y,-z
x,1/2+y,-z
-x,y,1/2+z
1/2+x,-y,z
1/2+x,1/2+y,1/2+z
1/2-x,-y,1/2+z
1/2+x,1/2-y,-z
-x,1/2+y,1/2-z
1/2-x,1/2-y,1/2-z
1/2+x,y,1/2-z
1/2-x,1/2+y,z
x,1/2-y,1/2+z
loop_
_atom_site_type_symbol
_atom_site_label
_atom_site_fract_x
_atom_site_fract_y
_atom_site_fract_z
Si Si1 0.250000 0.224664 0.500000
Si Si2 0.705970 0.390590 0.570410
Si Si3 0.750000 0.020597 0.500000
Si Si4 0.924718 0.000000 0.250000
Si Si5 0.673018 0.177589 0.649413
Si Si6 0.097184 0.351088 0.455835
Si Si7 0.821567 0.906958 0.776210
Si Si8 0.136609 0.154586 0.329674
O O1 0.193969 0.169081 0.543574
O O2 0.122899 0.278788 0.487692
O O3 0.716148 0.471146 0.547502
O O4 0.560784 0.350296 0.559752
O O5 0.716359 0.396063 0.629586
O O6 0.876883 0.074075 0.486080
O O7 0.816377 0.956804 0.215271
O O8 0.031387 0.949352 0.281746
O O9 0.693961 0.154227 0.592901
O O10 0.808327 0.150831 0.679872
O O11 0.529505 0.143195 0.670490
O O12 0.673473 0.263773 0.655828
O O13 0.806704 0.867838 0.723437
#
# Coordination Sequence:
#
# PCOD8295627 Si02
#       8
#     8  16   8   8  16  16  16  16
#     4  10  18  34  64  82 116 156 198 248 300 376
#     4  10  20  37  59  88 123 160 207 252 313 374
#     4  10  22  34  60  90 116 166 206 258 308 366
#     4  10  24  38  62  86 124 176 196 252 320 366
#     4  10  20  37  64  91 119 166 207 262 320 377
#     4  10  20  37  59  88 123 160 207 252 313 374
#     4  11  21  42  62  92 125 167 210 254 310 388
#     4  10  20  37  64  91 119 166 207 262 320 377
#
# _framework density 21.700644
#
# number of rings (size 3 to 8) (size 9 to 14) (size 15 to 20)
#    0.000    1.846    3.077    1.385    0.000    2.462 
#    0.000    0.000   16.923    0.000    0.000    0.000 
#    0.000    0.000    0.000    0.000    0.000    0.000 
#
# Total GULP energy -644240.518240 kJ/mol
# GULP energy per Si atom -12389.240735 kJ/mol
# Density = 2.165125 g / cm^3
# Si number density = 21.700644 Si / 1000 Ang^3
#
#
#
# Elastic Constant Matrix: (Units=GPa)
#
#
# Indices 1 2 3 4 5 6 
#
# 1 67.0596 14.7546 12.7479 0.0000 0.0000 0.0000
# 2 14.7546 109.1710 36.9176 0.0000 0.0000 0.0000
# 3 12.7479 36.9176 108.5068 0.0000 0.0000 0.0000
# 4 0.0000 0.0000 0.0000 23.0486 0.0000 0.0000
# 5 0.0000 0.0000 0.0000 0.0000 25.1624 0.0000
# 6 0.0000 0.0000 0.0000 0.0000 0.0000 25.7416
#
#
#
# Elastic Compliance Matrix: (Units=1/GPa)
#
#
# Indices 1 2 3 4 5 6 
#
# 1 0.015519 -0.001673 -0.001254 0.000000 0.000000 0.000000
# 2 -0.001673 0.010531 -0.003387 0.000000 0.000000 0.000000
# 3 -0.001254 -0.003387 0.010516 0.000000 0.000000 0.000000
# 4 0.000000 0.000000 0.000000 0.043386 0.000000 0.000000
# 5 0.000000 0.000000 0.000000 0.000000 0.039742 0.000000
# 6 0.000000 0.000000 0.000000 0.000000 0.000000 0.038848
#
#
# Mechanical properties :
#
#
# Convention : Reuss Voigt Hill
#
# Bulk Modulus (GPa) = 41.77459 45.95307 43.86383
# Shear Modulus (GPa) = 27.90985 29.47835 28.69410
#
# Velocity S-wave (km/s) = 3.59016 3.68966 3.64025
# Velocity P-wave (km/s) = 6.03969 6.27482 6.15837
#
# Compressibility (1/GPa) = 0.02393800
#
# Stress axis : x y z
#
# Youngs Moduli (GPa) = 64.43867 94.95512 95.09749
#
# Poissons Ratio (x) = 0.15889 0.11924
# Poissons Ratio (y) = 0.10783 0.32205
# Poissons Ratio (z) = 0.08080 0.32157
#
# Static dielectric constant tensor:
#      x y z
#    x 3.735250 0.000000 0.000000 
#    y 0.000000 4.005790 0.000000 
#    z 0.000000 0.000000 4.056660 
# 
# 
# High freq. dielectric constant tensor:
#      x y z
#    x 1.823470 0.000000 0.000000 
#    y 0.000000 1.867770 0.000000 
#    z 0.000000 0.000000 1.845260 
# 
# From -- ./inp_files/34110.got.cif
#   From: 2010.03.12/outbox.cif.g09.slc.cpg/sg73_18_cif.got.tgz:34110.got - 2010.04.16 15:25:48.
