data_PCOD8295177
_publ_section_title
;
Structure prediction by ZEFSAII (Michael W. Deem and Ramdas Pophale) SiO2 
 PCOD8295177
Probable space group: I B A M
;
_chemical_formula_sum "Si O2"
_cell_formula_units_Z 88
_cell_length_a 24.815338
_cell_length_b 9.197418
_cell_length_c 18.950751
_cell_angle_alpha 90.000000
_cell_angle_beta 90.000000
_cell_angle_gamma 90.000000
_cell_volume 4325.263246
_symmetry_space_group_name_H-M "I B A M"
_symmetry_group_IT_number 72
_symmetry_cell_setting 'orthorhombic'
loop_
_space_group_symop_operation_xyz
x,y,z
-x,-y,z
x,-y,1/2-z
-x,y,1/2-z
-x,-y,-z
x,y,-z
-x,y,1/2+z
x,-y,1/2+z
1/2+x,1/2+y,1/2+z
1/2-x,1/2-y,1/2+z
1/2+x,1/2-y,-z
1/2-x,1/2+y,-z
1/2-x,1/2-y,1/2-z
1/2+x,1/2+y,1/2-z
1/2-x,1/2+y,z
1/2+x,1/2-y,z
loop_
_atom_site_type_symbol
_atom_site_label
_atom_site_fract_x
_atom_site_fract_y
_atom_site_fract_z
Si Si1 0.229596 0.744568 0.653453
Si Si2 0.252172 0.000000 0.250000
Si Si3 0.342743 0.690929 0.582390
Si Si4 0.135168 0.856381 0.578821
Si Si5 0.558854 0.823324 0.672194
Si Si6 0.434857 0.154006 0.833660
O O1 0.213637 0.593776 0.693291
O O2 0.290774 0.746542 0.625507
O O3 0.188749 0.758484 0.588581
O O4 0.217765 0.878940 0.707279
O O5 0.336596 0.731411 0.500000
O O6 0.348231 0.520470 0.594289
O O7 0.396587 0.761000 0.613195
O O8 0.113638 0.835805 0.500000
O O9 0.088847 0.803090 0.630494
O O10 0.579654 0.814972 0.752487
O O11 0.496108 0.791823 0.659203
O O12 0.571368 0.985396 0.645160
#
# Coordination Sequence:
#
# PCOD8295177 Si02
#       6
#    16   8  16  16  16  16
#     4  11  23  42  60  94 122 158 196 254 296 356
#     4  10  24  38  66  90 118 158 202 248 302 348
#     4  11  25  41  59  86 126 165 198 242 298 360
#     4  11  25  41  59  86 126 165 198 242 298 360
#     4   9  21  41  65  91 118 152 200 254 302 352
#     4   9  21  41  65  91 118 152 200 254 302 352
#
# _framework density 20.345583999999999
#
# number of rings (size 3 to 8) (size 9 to 14) (size 15 to 20)
#    0.000    1.818    1.818    1.636    7.636    2.909 
#    0.000    5.455    0.000    0.000    0.000    0.000 
#    0.000    0.000    0.000    0.000    0.000    0.000 
#
# Total GULP energy -545415.273078 kJ/mol
# GULP energy per Si atom -12395.801661 kJ/mol
# Density = 2.029928 g / cm^3
# Si number density = 20.345584 Si / 1000 Ang^3
#
#
#
# Elastic Constant Matrix: (Units=GPa)
#
#
# Indices 1 2 3 4 5 6 
#
# 1 91.0821 33.5238 48.2239 0.0000 0.0000 0.0000
# 2 33.5238 85.1055 48.2932 0.0000 0.0000 0.0000
# 3 48.2239 48.2932 95.0545 0.0000 0.0000 0.0000
# 4 0.0000 0.0000 0.0000 34.5784 0.0000 0.0000
# 5 0.0000 0.0000 0.0000 0.0000 28.3296 0.0000
# 6 0.0000 0.0000 0.0000 0.0000 0.0000 29.6292
#
#
#
# Elastic Compliance Matrix: (Units=1/GPa)
#
#
# Indices 1 2 3 4 5 6 
#
# 1 0.015320 -0.002282 -0.006613 0.000000 0.000000 0.000000
# 2 -0.002282 0.016850 -0.007403 0.000000 0.000000 0.000000
# 3 -0.006613 -0.007403 0.017636 0.000000 0.000000 0.000000
# 4 0.000000 0.000000 0.000000 0.028920 0.000000 0.000000
# 5 0.000000 0.000000 0.000000 0.000000 0.035299 0.000000
# 6 0.000000 0.000000 0.000000 0.000000 0.000000 0.033750
#
#
# Mechanical properties :
#
#
# Convention : Reuss Voigt Hill
#
# Bulk Modulus (GPa) = 58.10443 59.03600 58.57022
# Shear Modulus (GPa) = 26.86606 27.92087 27.39347
#
# Velocity S-wave (km/s) = 3.63779 3.70852 3.67332
# Velocity P-wave (km/s) = 6.80187 6.88601 6.84407
#
# Compressibility (1/GPa) = 0.01721039
#
# Stress axis : x y z
#
# Youngs Moduli (GPa) = 65.27252 59.34756 56.70137
#
# Poissons Ratio (x) = 0.13545 0.37496
# Poissons Ratio (y) = 0.14897 0.41975
# Poissons Ratio (z) = 0.43164 0.43934
#
# Static dielectric constant tensor:
#      x y z
#    x 3.479940 0.000000 0.000000 
#    y 0.000000 3.762470 0.000000 
#    z 0.000000 0.000000 3.750300 
# 
# 
# High freq. dielectric constant tensor:
#      x y z
#    x 1.787420 0.000000 0.000000 
#    y 0.000000 1.801430 0.000000 
#    z 0.000000 0.000000 1.798050 
# 
# From -- ./inp_files/40148.got.cif
#   From: 2010.03.12/outbox.cif.g09.slc.cpg/sg72_21_cif.got.tgz:40148.got - 2010.04.16 14:54:00.
