data_PCOD8295662
_publ_section_title
;
Structure prediction by ZEFSAII (Michael W. Deem and Ramdas Pophale) SiO2 
 PCOD8295662
Probable space group: I B C A 
;
_chemical_formula_sum "Si O2"
_cell_formula_units_Z 56
_cell_length_a 13.193147
_cell_length_b 12.204323
_cell_length_c 14.878836
_cell_angle_alpha 90.000000
_cell_angle_beta 90.000000
_cell_angle_gamma 90.000000
_cell_volume 2395.692380
_symmetry_space_group_name_H-M "I B C A "
_symmetry_group_IT_number 73
_symmetry_cell_setting 'orthorhombic'
loop_
_space_group_symop_operation_xyz
x,y,z
-x,1/2-y,z
x,-y,1/2-z
1/2-x,y,-z
-x,-y,-z
x,1/2+y,-z
-x,y,1/2+z
1/2+x,-y,z
1/2+x,1/2+y,1/2+z
1/2-x,-y,1/2+z
1/2+x,1/2-y,-z
-x,1/2+y,1/2-z
1/2-x,1/2-y,1/2-z
1/2+x,y,1/2-z
1/2-x,1/2+y,z
x,1/2-y,1/2+z
loop_
_atom_site_type_symbol
_atom_site_label
_atom_site_fract_x
_atom_site_fract_y
_atom_site_fract_z
Si Si1 0.500232 0.088919 0.134275
Si Si2 0.960963 0.364999 0.064431
Si Si3 0.836088 0.247137 0.823713
Si Si4 0.250000 0.800898 0.500000
O O1 0.586501 0.147505 0.194863
O O2 0.392343 0.134235 0.170024
O O3 0.507309 0.956857 0.138778
O O4 0.519914 0.120933 0.029899
O O5 0.000000 0.250000 0.106620
O O6 0.840775 0.373776 0.043362
O O7 0.750000 0.250000 0.750000
O O8 0.787898 0.222362 0.920768
#
# Coordination Sequence:
#
# PCOD8295662 Si02
#       4
#    16  16  16   8
#     4   9  19  39  64 100 135 174 232 284 361 414
#     4  10  18  38  67  96 138 181 227 295 349 430
#     4  10  20  41  67  95 136 169 230 295 337 422
#     4  10  20  38  66 100 124 182 230 272 362 416
#
# _framework density 23.375288000000001
#
# number of rings (size 3 to 8) (size 9 to 14) (size 15 to 20)
#    0.000    2.286    5.714    0.000    0.000    1.143 
#   10.286    1.429    0.000    0.000    0.000    0.000 
#    0.000    0.000    0.000    0.000    0.000    0.000 
#
# Total GULP energy -347021.046063 kJ/mol
# GULP energy per Si atom -12393.608788 kJ/mol
# Density = 2.332208 g / cm^3
# Si number density = 23.375288 Si / 1000 Ang^3
#
#
#
# Elastic Constant Matrix: (Units=GPa)
#
#
# Indices 1 2 3 4 5 6 
#
# 1 166.5118 77.8347 60.4662 0.0000 0.0000 0.0000
# 2 77.8347 196.2668 41.3304 0.0000 0.0000 0.0000
# 3 60.4662 41.3304 68.0090 0.0000 0.0000 0.0000
# 4 0.0000 0.0000 0.0000 32.8539 0.0000 0.0000
# 5 0.0000 0.0000 0.0000 0.0000 45.0170 0.0000
# 6 0.0000 0.0000 0.0000 0.0000 0.0000 22.8427
#
#
#
# Elastic Compliance Matrix: (Units=1/GPa)
#
#
# Indices 1 2 3 4 5 6 
#
# 1 0.009719 -0.002333 -0.007223 0.000000 0.000000 0.000000
# 2 -0.002333 0.006403 -0.001817 0.000000 0.000000 0.000000
# 3 -0.007223 -0.001817 0.022230 0.000000 0.000000 0.000000
# 4 0.000000 0.000000 0.000000 0.030438 0.000000 0.000000
# 5 0.000000 0.000000 0.000000 0.000000 0.022214 0.000000
# 6 0.000000 0.000000 0.000000 0.000000 0.000000 0.043778
#
#
# Mechanical properties :
#
#
# Convention : Reuss Voigt Hill
#
# Bulk Modulus (GPa) = 64.07886 87.78335 75.93110
# Shear Modulus (GPa) = 30.72567 36.88650 33.80608
#
# Velocity S-wave (km/s) = 3.62947 3.97673 3.80706
# Velocity P-wave (km/s) = 6.71093 7.66298 7.20271
#
# Compressibility (1/GPa) = 0.01560577
#
# Stress axis : x y z
#
# Youngs Moduli (GPa) = 102.88785 156.17651 44.98391
#
# Poissons Ratio (x) = 0.36441 0.32493
# Poissons Ratio (y) = 0.24007 0.08172
# Poissons Ratio (z) = 0.74319 0.28372
#
# Static dielectric constant tensor:
#      x y z
#    x 4.367730 0.000000 0.000000 
#    y 0.000000 4.238120 0.000000 
#    z 0.000000 0.000000 3.986170 
# 
# 
# High freq. dielectric constant tensor:
#      x y z
#    x 1.929330 0.000000 0.000000 
#    y 0.000000 1.898870 0.000000 
#    z 0.000000 0.000000 1.915940 
# 
# From -- ./inp_files/10301.got.cif
#   From: 2010.03.12/outbox.cif.g09.slc.cpg/sg73_6_cif.got.tgz:10301.got - 2010.04.16 15:25:48.
