data_PCOD8295641
_publ_section_title
;
Structure prediction by ZEFSAII (Michael W. Deem and Ramdas Pophale) SiO2 
 PCOD8295641
Probable space group: I B C A 
;
_chemical_formula_sum "Si O2"
_cell_formula_units_Z 120
_cell_length_a 30.714828
_cell_length_b 21.270108
_cell_length_c 9.254271
_cell_angle_alpha 90.000000
_cell_angle_beta 90.000000
_cell_angle_gamma 90.000000
_cell_volume 6045.886583
_symmetry_space_group_name_H-M "I B C A "
_symmetry_group_IT_number 73
_symmetry_cell_setting 'orthorhombic'
loop_
_space_group_symop_operation_xyz
x,y,z
-x,1/2-y,z
x,-y,1/2-z
1/2-x,y,-z
-x,-y,-z
x,1/2+y,-z
-x,y,1/2+z
1/2+x,-y,z
1/2+x,1/2+y,1/2+z
1/2-x,-y,1/2+z
1/2+x,1/2-y,-z
-x,1/2+y,1/2-z
1/2-x,1/2-y,1/2-z
1/2+x,y,1/2-z
1/2-x,1/2+y,z
x,1/2-y,1/2+z
loop_
_atom_site_type_symbol
_atom_site_label
_atom_site_fract_x
_atom_site_fract_y
_atom_site_fract_z
Si Si1 0.271267 0.121910 0.341141
Si Si2 0.898141 0.768920 0.527252
Si Si3 0.133286 0.579548 0.034076
Si Si4 0.326790 0.000000 0.250000
Si Si5 0.518262 0.318458 0.672144
Si Si6 0.217482 0.057235 0.135610
Si Si7 0.850351 0.692390 0.749252
Si Si8 0.552606 0.143153 0.459642
O O1 0.250000 0.125665 0.500000
O O2 0.233672 0.119196 0.220824
O O3 0.300363 0.183504 0.303005
O O4 0.297396 0.056833 0.310515
O O5 0.936483 0.812495 0.587532
O O6 0.861460 0.754039 0.651400
O O7 0.877858 0.807560 0.396105
O O8 0.917954 0.705374 0.462519
O O9 0.141278 0.514823 0.117351
O O10 0.136243 0.633721 0.153254
O O11 0.170580 0.582115 0.913482
O O12 0.085044 0.583083 0.965711
O O13 0.500000 0.250000 0.715255
O O14 0.482217 0.357854 0.587324
O O15 0.525625 0.359739 0.813240
O O16 0.213405 0.000000 0.250000
O O17 0.250000 0.040067 0.000000
#
# Coordination Sequence:
#
# PCOD8295641 Si02
#       8
#    16  16  16   8  16  16  16  16
#     4  11  22  37  61  90 117 158 207 252 302 352
#     4  10  19  36  59  82 121 157 194 244 296 353
#     4  10  22  36  60  89 120 155 194 250 309 357
#     4  10  18  36  60  84 112 150 196 254 308 344
#     4  10  19  33  59  88 113 151 198 247 294 347
#     4  12  20  37  65  91 119 148 200 257 297 343
#     4  10  21  37  58  85 124 160 197 248 301 357
#     4  10  21  34  57  89 118 147 196 245 299 350
#
# _framework density 19.848206000000001
#
# number of rings (size 3 to 8) (size 9 to 14) (size 15 to 20)
#    0.000    1.600    4.667    2.400    3.733    1.067 
#    0.000    0.667    0.000    0.800    0.000    0.000 
#    0.000    0.000    0.000    0.000    0.000    0.000 
#
# Total GULP energy -743357.783922 kJ/mol
# GULP energy per Si atom -12389.296399 kJ/mol
# Density = 1.980303 g / cm^3
# Si number density = 19.848206 Si / 1000 Ang^3
#
#
#
# Elastic Constant Matrix: (Units=GPa)
#
#
# Indices 1 2 3 4 5 6 
#
# 1 150.0931 46.2072 88.3043 0.0000 0.0000 0.0000
# 2 46.2072 24.8653 27.3674 0.0000 0.0000 0.0000
# 3 88.3043 27.3674 149.6123 0.0000 0.0000 0.0000
# 4 0.0000 0.0000 0.0000 21.2037 0.0000 0.0000
# 5 0.0000 0.0000 0.0000 0.0000 37.0522 0.0000
# 6 0.0000 0.0000 0.0000 0.0000 0.0000 22.4353
#
#
#
# Elastic Compliance Matrix: (Units=1/GPa)
#
#
# Indices 1 2 3 4 5 6 
#
# 1 0.019051 -0.028831 -0.005970 0.000000 0.000000 0.000000
# 2 -0.028831 0.093987 -0.000175 0.000000 0.000000 0.000000
# 3 -0.005970 -0.000175 0.010240 0.000000 0.000000 0.000000
# 4 0.000000 0.000000 0.000000 0.047162 0.000000 0.000000
# 5 0.000000 0.000000 0.000000 0.000000 0.026989 0.000000
# 6 0.000000 0.000000 0.000000 0.000000 0.000000 0.044573
#
#
# Mechanical properties :
#
#
# Convention : Reuss Voigt Hill
#
# Bulk Modulus (GPa) = 18.75338 72.03650 45.39494
# Shear Modulus (GPa) = 15.16388 26.98434 21.07411
#
# Velocity S-wave (km/s) = 2.76704 3.69119 3.26201
# Velocity P-wave (km/s) = 4.43594 7.38505 6.09166
#
# Compressibility (1/GPa) = 0.05332373
#
# Stress axis : x y z
#
# Youngs Moduli (GPa) = 52.49042 10.63972 97.65709
#
# Poissons Ratio (x) = 0.30676 0.58306
# Poissons Ratio (y) = 1.51338 0.01713
# Poissons Ratio (z) = 0.31339 0.00187
#
# Static dielectric constant tensor:
#      x y z
#    x 4.095120 0.000000 0.000000 
#    y 0.000000 3.403260 0.000000 
#    z 0.000000 0.000000 3.982020 
# 
# 
# High freq. dielectric constant tensor:
#      x y z
#    x 1.777820 0.000000 0.000000 
#    y 0.000000 1.719390 0.000000 
#    z 0.000000 0.000000 1.795240 
# 
# From -- ./inp_files/8600.got.cif
#   From: 2010.03.12/outbox.cif.g09.slc.cpg/sg73_5_cif.got.tgz:8600.got - 2010.04.16 15:25:48.
