data_PCOD8295072
_publ_section_title
;
Structure prediction by ZEFSAII (Michael W. Deem and Ramdas Pophale) SiO2 
 PCOD8295072
Probable space group: I B A M
;
_chemical_formula_sum "Si O2"
_cell_formula_units_Z 116
_cell_length_a 12.258488
_cell_length_b 18.602155
_cell_length_c 23.299927
_cell_angle_alpha 90.000000
_cell_angle_beta 90.000000
_cell_angle_gamma 90.000000
_cell_volume 5313.182400
_symmetry_space_group_name_H-M "I B A M"
_symmetry_group_IT_number 72
_symmetry_cell_setting 'orthorhombic'
loop_
_space_group_symop_operation_xyz
x,y,z
-x,-y,z
x,-y,1/2-z
-x,y,1/2-z
-x,-y,-z
x,y,-z
-x,y,1/2+z
x,-y,1/2+z
1/2+x,1/2+y,1/2+z
1/2-x,1/2-y,1/2+z
1/2+x,1/2-y,-z
1/2-x,1/2+y,-z
1/2-x,1/2-y,1/2-z
1/2+x,1/2+y,1/2-z
1/2-x,1/2+y,z
1/2+x,1/2-y,z
loop_
_atom_site_type_symbol
_atom_site_label
_atom_site_fract_x
_atom_site_fract_y
_atom_site_fract_z
Si Si1 0.612405 0.080501 0.769293
Si Si2 0.306556 0.675632 0.751861
Si Si3 0.454492 0.180602 0.564255
Si Si4 0.095596 0.900474 0.154862
Si Si5 0.821396 0.395116 0.932232
Si Si6 0.891131 0.173513 0.625426
Si Si7 0.316285 0.058422 0.394522
Si Si8 0.000000 0.000000 0.250000
O O1 0.500000 0.119630 0.750000
O O2 0.714699 0.115628 0.737845
O O3 0.621183 0.082797 0.837425
O O4 0.609980 0.000000 0.750000
O O5 0.250000 0.750000 0.750000
O O6 0.363078 0.669573 0.689339
O O7 0.388170 0.672456 0.805348
O O8 0.465777 0.211539 0.500000
O O9 0.571900 0.150599 0.585096
O O10 0.414009 0.245882 0.604126
O O11 0.365664 0.115896 0.560772
O O12 0.185933 0.932935 0.112114
O O13 0.076542 0.954953 0.207729
O O14 0.993357 0.880244 0.114004
O O15 0.717149 0.358715 0.902574
O O16 0.841324 0.476841 0.912087
O O17 0.801358 0.394833 0.000000
#
# Coordination Sequence:
#
# PCOD8295072 Si02
#       8
#    16  16  16  16  16  16  16   4
#     4  10  23  37  60  98 134 173 219 271 332 402
#     4  11  24  40  62  96 138 176 218 269 329 407
#     4  11  27  47  71  98 136 180 232 295 354 407
#     4  11  25  42  67 103 138 184 220 271 337 415
#     4  11  26  47  72  99 132 178 237 291 345 410
#     4  12  24  45  70  99 137 183 228 277 351 402
#     4  11  24  43  71 102 136 182 230 285 351 403
#     4  12  20  44  64  92 148 184 226 260 332 406
#
# _framework density 21.832488999999999
#
# number of rings (size 3 to 8) (size 9 to 14) (size 15 to 20)
#    0.000    0.966    1.379    4.552   13.517    2.207 
#    0.000    2.759    0.000    0.000    0.000    0.000 
#    0.000    0.000    0.000    0.000    0.000    0.000 
#
# Total GULP energy -719114.749958 kJ/mol
# GULP energy per Si atom -12398.530172 kJ/mol
# Density = 2.178280 g / cm^3
# Si number density = 21.832489 Si / 1000 Ang^3
#
#
#
# Elastic Constant Matrix: (Units=GPa)
#
#
# Indices 1 2 3 4 5 6 
#
# 1 141.6376 44.3453 30.3268 0.0000 0.0000 0.0000
# 2 44.3453 108.7197 22.7289 0.0000 0.0000 0.0000
# 3 30.3268 22.7289 65.0485 0.0000 0.0000 0.0000
# 4 0.0000 0.0000 0.0000 30.7240 0.0000 0.0000
# 5 0.0000 0.0000 0.0000 0.0000 35.3297 0.0000
# 6 0.0000 0.0000 0.0000 0.0000 0.0000 44.2537
#
#
#
# Elastic Compliance Matrix: (Units=1/GPa)
#
#
# Indices 1 2 3 4 5 6 
#
# 1 0.008606 -0.002882 -0.003005 0.000000 0.000000 0.000000
# 2 -0.002882 0.010888 -0.002461 0.000000 0.000000 0.000000
# 3 -0.003005 -0.002461 0.017634 0.000000 0.000000 0.000000
# 4 0.000000 0.000000 0.000000 0.032548 0.000000 0.000000
# 5 0.000000 0.000000 0.000000 0.000000 0.028305 0.000000
# 6 0.000000 0.000000 0.000000 0.000000 0.000000 0.022597
#
#
# Mechanical properties :
#
#
# Convention : Reuss Voigt Hill
#
# Bulk Modulus (GPa) = 48.94290 56.68977 52.81633
# Shear Modulus (GPa) = 34.70182 36.59511 35.64847
#
# Velocity S-wave (km/s) = 3.99113 4.09856 4.04520
# Velocity P-wave (km/s) = 6.61097 6.95843 6.78692
#
# Compressibility (1/GPa) = 0.02043197
#
# Stress axis : x y z
#
# Youngs Moduli (GPa) = 116.19680 91.84461 56.70835
#
# Poissons Ratio (x) = 0.26470 0.17043
# Poissons Ratio (y) = 0.33488 0.13955
# Poissons Ratio (z) = 0.34921 0.22601
#
# Static dielectric constant tensor:
#      x y z
#    x 3.652350 0.000000 0.000000 
#    y 0.000000 3.889810 0.000000 
#    z 0.000000 0.000000 4.567320 
# 
# 
# High freq. dielectric constant tensor:
#      x y z
#    x 1.877070 0.000000 0.000000 
#    y 0.000000 1.863440 0.000000 
#    z 0.000000 0.000000 1.849740 
# 
# From -- ./inp_files/44539.got.cif
#   From: 2010.03.12/outbox.cif.g09.slc.cpg/sg72_23_cif.got.tgz:44539.got - 2010.04.16 14:54:00.
