data_PCOD8295703
_publ_section_title
;
Structure prediction by ZEFSAII (Michael W. Deem and Ramdas Pophale) SiO2 
 PCOD8295703
Probable space group: I B C A 
;
_chemical_formula_sum "Si O2"
_cell_formula_units_Z 96
_cell_length_a 17.108771
_cell_length_b 19.553902
_cell_length_c 15.185905
_cell_angle_alpha 90.000000
_cell_angle_beta 90.000000
_cell_angle_gamma 90.000000
_cell_volume 5080.341732
_symmetry_space_group_name_H-M "I B C A "
_symmetry_group_IT_number 73
_symmetry_cell_setting 'orthorhombic'
loop_
_space_group_symop_operation_xyz
x,y,z
-x,1/2-y,z
x,-y,1/2-z
1/2-x,y,-z
-x,-y,-z
x,1/2+y,-z
-x,y,1/2+z
1/2+x,-y,z
1/2+x,1/2+y,1/2+z
1/2-x,-y,1/2+z
1/2+x,1/2-y,-z
-x,1/2+y,1/2-z
1/2-x,1/2-y,1/2-z
1/2+x,y,1/2-z
1/2-x,1/2+y,z
x,1/2-y,1/2+z
loop_
_atom_site_type_symbol
_atom_site_label
_atom_site_fract_x
_atom_site_fract_y
_atom_site_fract_z
Si Si1 0.481803 0.079135 0.740757
Si Si2 0.191404 0.945123 0.185889
Si Si3 0.475401 0.901509 0.444761
Si Si4 0.967720 0.677714 0.894994
Si Si5 0.878254 0.988315 0.513628
Si Si6 0.196880 0.367826 0.081380
O O1 0.388309 0.083796 0.727907
O O2 0.526932 0.117117 0.659430
O O3 0.504675 0.117894 0.829934
O O4 0.508125 0.000000 0.750000
O O5 0.181413 0.987560 0.094871
O O6 0.248111 0.880396 0.166712
O O7 0.231989 0.000000 0.250000
O O8 0.498468 0.837840 0.506939
O O9 0.541087 0.959853 0.447566
O O10 0.393180 0.935208 0.476295
O O11 0.873034 0.684953 0.897959
O O12 0.000000 0.750000 0.862013
O O13 0.845413 0.940016 0.437423
O O14 0.250000 0.341085 0.000000
#
# Coordination Sequence:
#
# PCOD8295703 Si02
#       6
#    16  16  16  16  16  16
#     4  10  19  33  57  85 112 145 188 233 277 329
#     4   9  16  27  48  77 110 140 171 222 284 335
#     4   9  16  30  52  75 106 140 174 222 272 315
#     4  11  23  37  55  81 112 149 195 236 272 332
#     4   8  14  27  49  77 101 129 172 216 266 326
#     4   9  18  33  53  77 106 142 178 223 282 336
#
# _framework density 18.896367000000001
#
# number of rings (size 3 to 8) (size 9 to 14) (size 15 to 20)
#    0.000    2.667    0.000    6.000    0.000    2.667 
#    0.000    0.833    0.000    7.000    0.000    0.000 
#    0.000    0.000    0.000    0.000    0.000    0.000 
#
# Total GULP energy -594856.263326 kJ/mol
# GULP energy per Si atom -12392.838819 kJ/mol
# Density = 1.885336 g / cm^3
# Si number density = 18.896367 Si / 1000 Ang^3
#
#
#
# Elastic Constant Matrix: (Units=GPa)
#
#
# Indices 1 2 3 4 5 6 
#
# 1 87.4829 30.5665 21.3727 0.0000 0.0000 0.0000
# 2 30.5665 72.3883 28.1797 0.0000 0.0000 0.0000
# 3 21.3727 28.1797 91.1701 0.0000 0.0000 0.0000
# 4 0.0000 0.0000 0.0000 16.3275 0.0000 0.0000
# 5 0.0000 0.0000 0.0000 0.0000 27.2202 0.0000
# 6 0.0000 0.0000 0.0000 0.0000 0.0000 22.6698
#
#
#
# Elastic Compliance Matrix: (Units=1/GPa)
#
#
# Indices 1 2 3 4 5 6 
#
# 1 0.013613 -0.005122 -0.001608 0.000000 0.000000 0.000000
# 2 -0.005122 0.017631 -0.004249 0.000000 0.000000 0.000000
# 3 -0.001608 -0.004249 0.012659 0.000000 0.000000 0.000000
# 4 0.000000 0.000000 0.000000 0.061247 0.000000 0.000000
# 5 0.000000 0.000000 0.000000 0.000000 0.036737 0.000000
# 6 0.000000 0.000000 0.000000 0.000000 0.000000 0.044112
#
#
# Mechanical properties :
#
#
# Convention : Reuss Voigt Hill
#
# Bulk Modulus (GPa) = 45.56856 45.69768 45.63312
# Shear Modulus (GPa) = 23.22636 24.63831 23.93234
#
# Velocity S-wave (km/s) = 3.50972 3.61482 3.56266
# Velocity P-wave (km/s) = 6.37115 6.45433 6.41287
#
# Compressibility (1/GPa) = 0.02194495
#
# Stress axis : x y z
#
# Youngs Moduli (GPa) = 73.45692 56.71709 78.99665
#
# Poissons Ratio (x) = 0.29053 0.12703
# Poissons Ratio (y) = 0.37627 0.33565
# Poissons Ratio (z) = 0.11812 0.24098
#
# Static dielectric constant tensor:
#      x y z
#    x 3.649430 0.000000 0.000000 
#    y 0.000000 2.911190 0.000000 
#    z 0.000000 0.000000 3.685010 
# 
# 
# High freq. dielectric constant tensor:
#      x y z
#    x 1.727100 0.000000 0.000000 
#    y 0.000000 1.670620 0.000000 
#    z 0.000000 0.000000 1.743330 
# 
# From -- ./inp_files/22715.got.cif
#   From: 2010.03.12/outbox.cif.g09.slc.cpg/sg73_12_cif.got.tgz:22715.got - 2010.04.16 15:25:48.
