data_PCOD8295804
_publ_section_title
;
Structure prediction by ZEFSAII (Michael W. Deem and Ramdas Pophale) SiO2 
 PCOD8295804
Probable space group: I B C A 
;
_chemical_formula_sum "Si O2"
_cell_formula_units_Z 72
_cell_length_a 18.144570
_cell_length_b 12.675473
_cell_length_c 14.250572
_cell_angle_alpha 90.000000
_cell_angle_beta 90.000000
_cell_angle_gamma 90.000000
_cell_volume 3277.503406
_symmetry_space_group_name_H-M "I B C A "
_symmetry_group_IT_number 73
_symmetry_cell_setting 'orthorhombic'
loop_
_space_group_symop_operation_xyz
x,y,z
-x,1/2-y,z
x,-y,1/2-z
1/2-x,y,-z
-x,-y,-z
x,1/2+y,-z
-x,y,1/2+z
1/2+x,-y,z
1/2+x,1/2+y,1/2+z
1/2-x,-y,1/2+z
1/2+x,1/2-y,-z
-x,1/2+y,1/2-z
1/2-x,1/2-y,1/2-z
1/2+x,y,1/2-z
1/2-x,1/2+y,z
x,1/2-y,1/2+z
loop_
_atom_site_type_symbol
_atom_site_label
_atom_site_fract_x
_atom_site_fract_y
_atom_site_fract_z
Si Si1 0.565538 0.934218 0.960984
Si Si2 0.344948 0.399693 0.856492
Si Si3 0.487862 0.886608 0.266063
Si Si4 0.215403 0.500000 0.750000
Si Si5 0.882183 0.170966 0.645248
O O1 0.531857 0.864641 0.874838
O O2 0.631519 0.016392 0.936388
O O3 0.589479 0.857214 0.042674
O O4 0.500000 0.000000 0.000000
O O5 0.408886 0.399680 0.780525
O O6 0.265480 0.432171 0.819403
O O7 0.336938 0.276300 0.881648
O O8 0.548612 0.806087 0.218919
O O9 0.528327 0.000000 0.250000
O O10 0.168779 0.419005 0.688212
#
# Coordination Sequence:
#
# PCOD8295804 Si02
#       5
#    16  16  16   8  16
#     4  11  21  42  69 102 136 167 225 287 328 395
#     4  11  24  46  67  97 138 178 220 280 337 393
#     4  10  19  43  67  97 135 169 219 287 329 379
#     4  12  24  48  68  92 148 180 216 282 334 402
#     4  12  24  44  71 102 131 183 229 267 342 407
#
# _framework density 21.967939999999999
#
# number of rings (size 3 to 8) (size 9 to 14) (size 15 to 20)
#    0.000    0.889    8.889    1.333    0.000    0.889 
#   12.000    2.222    0.000    0.000    0.000    0.000 
#    0.000    0.000    0.000    0.000    0.000    0.000 
#
# Total GULP energy -445972.959661 kJ/mol
# GULP energy per Si atom -12388.137768 kJ/mol
# Density = 2.191794 g / cm^3
# Si number density = 21.967940 Si / 1000 Ang^3
#
#
#
# Elastic Constant Matrix: (Units=GPa)
#
#
# Indices 1 2 3 4 5 6 
#
# 1 106.1130 36.3048 49.7137 0.0000 0.0000 0.0000
# 2 36.3048 115.4978 40.9793 0.0000 0.0000 0.0000
# 3 49.7137 40.9793 142.6285 0.0000 0.0000 0.0000
# 4 0.0000 0.0000 0.0000 23.4994 0.0000 0.0000
# 5 0.0000 0.0000 0.0000 0.0000 19.2618 0.0000
# 6 0.0000 0.0000 0.0000 0.0000 0.0000 38.4761
#
#
#
# Elastic Compliance Matrix: (Units=1/GPa)
#
#
# Indices 1 2 3 4 5 6 
#
# 1 0.011889 -0.002524 -0.003419 0.000000 0.000000 0.000000
# 2 -0.002524 0.010177 -0.002044 0.000000 0.000000 0.000000
# 3 -0.003419 -0.002044 0.008790 0.000000 0.000000 0.000000
# 4 0.000000 0.000000 0.000000 0.042554 0.000000 0.000000
# 5 0.000000 0.000000 0.000000 0.000000 0.051916 0.000000
# 6 0.000000 0.000000 0.000000 0.000000 0.000000 0.025990
#
#
# Mechanical properties :
#
#
# Convention : Reuss Voigt Hill
#
# Bulk Modulus (GPa) = 67.19518 68.69276 67.94397
# Shear Modulus (GPa) = 29.02726 32.06356 30.54541
#
# Velocity S-wave (km/s) = 3.63898 3.82457 3.73292
# Velocity P-wave (km/s) = 6.95057 7.13025 7.04099
#
# Compressibility (1/GPa) = 0.01488202
#
# Stress axis : x y z
#
# Youngs Moduli (GPa) = 84.10982 98.26193 113.76339
#
# Poissons Ratio (x) = 0.24803 0.38893
# Poissons Ratio (y) = 0.21231 0.23255
# Poissons Ratio (z) = 0.28755 0.20086
#
# Static dielectric constant tensor:
#      x y z
#    x -22.217250 0.000000 0.000000 
#    y 0.000000 4.931740 0.000000 
#    z 0.000000 0.000000 3.759080 
# 
# 
# High freq. dielectric constant tensor:
#      x y z
#    x 1.861630 0.000000 0.000000 
#    y 0.000000 1.887320 0.000000 
#    z 0.000000 0.000000 1.857090 
# 
# From -- ./inp_files/17764.got.cif
#   From: 2010.03.12/outbox.cif.g09.slc.cpg/sg73_9_cif.got.tgz:17764.got - 2010.04.16 15:25:48.
