data_PCOD8295925
_publ_section_title
;
Structure prediction by ZEFSAII (Michael W. Deem and Ramdas Pophale) SiO2 
 PCOD8295925
Probable space group: I B C A 
;
_chemical_formula_sum "Si O2"
_cell_formula_units_Z 120
_cell_length_a 13.616444
_cell_length_b 16.504457
_cell_length_c 24.850558
_cell_angle_alpha 90.000000
_cell_angle_beta 90.000000
_cell_angle_gamma 90.000000
_cell_volume 5584.715961
_symmetry_space_group_name_H-M "I B C A "
_symmetry_group_IT_number 73
_symmetry_cell_setting 'orthorhombic'
loop_
_space_group_symop_operation_xyz
x,y,z
-x,1/2-y,z
x,-y,1/2-z
1/2-x,y,-z
-x,-y,-z
x,1/2+y,-z
-x,y,1/2+z
1/2+x,-y,z
1/2+x,1/2+y,1/2+z
1/2-x,-y,1/2+z
1/2+x,1/2-y,-z
-x,1/2+y,1/2-z
1/2-x,1/2-y,1/2-z
1/2+x,y,1/2-z
1/2-x,1/2+y,z
x,1/2-y,1/2+z
loop_
_atom_site_type_symbol
_atom_site_label
_atom_site_fract_x
_atom_site_fract_y
_atom_site_fract_z
Si Si1 0.049785 0.967025 0.692333
Si Si2 0.598391 0.792266 0.055916
Si Si3 0.900832 0.589822 0.350819
Si Si4 0.712750 0.486846 0.109970
Si Si5 0.250000 0.604300 0.000000
Si Si6 0.717614 0.330820 0.373307
Si Si7 0.112008 0.738674 0.786788
Si Si8 0.577521 0.810521 0.327735
O O1 0.975533 0.890837 0.696128
O O2 0.090118 0.000000 0.750000
O O3 0.135759 0.943104 0.650323
O O4 0.995373 0.045364 0.670382
O O5 0.500000 0.750000 0.032742
O O6 0.562108 0.858417 0.098522
O O7 0.676578 0.731704 0.083133
O O8 0.655690 0.838967 0.009302
O O9 0.820259 0.522929 0.365221
O O10 0.852462 0.650711 0.307417
O O11 0.714768 0.449605 0.050277
O O12 0.685559 0.580968 0.106947
O O13 0.675200 0.310778 0.313765
O O14 0.836501 0.328416 0.370211
O O15 0.122627 0.741013 0.722482
O O16 0.000000 0.750000 0.805949
O O17 0.500000 0.750000 0.356493
#
# Coordination Sequence:
#
# PCOD8295925 Si02
#       8
#    16  16  16  16   8  16  16  16
#     4  12  24  41  65  99 141 180 228 282 349 418
#     4  10  22  45  73  96 127 176 228 288 352 412
#     4  10  20  41  63  91 132 178 222 272 331 415
#     4  11  25  43  69  97 133 179 231 285 348 412
#     4  10  26  50  70 100 136 172 236 296 350 416
#     4  11  22  41  67  96 131 180 230 277 343 425
#     4  10  20  37  61  90 135 180 226 267 329 410
#     4  11  25  37  58  99 143 182 222 278 340 406
#
# _framework density 21.487217000000001
#
# number of rings (size 3 to 8) (size 9 to 14) (size 15 to 20)
#    0.000    1.333    2.667    3.600    7.467    2.133 
#    2.400    6.000    0.000    0.000    0.000    0.000 
#    0.000    0.000    0.000    0.000    0.000    0.000 
#
# Total GULP energy -743863.999904 kJ/mol
# GULP energy per Si atom -12397.733332 kJ/mol
# Density = 2.143831 g / cm^3
# Si number density = 21.487217 Si / 1000 Ang^3
#
#
#
# Elastic Constant Matrix: (Units=GPa)
#
#
# Indices 1 2 3 4 5 6 
#
# 1 98.2719 41.4061 57.9766 0.0000 0.0000 0.0000
# 2 41.4061 114.5244 40.6084 0.0000 0.0000 0.0000
# 3 57.9766 40.6084 103.6879 0.0000 0.0000 0.0000
# 4 0.0000 0.0000 0.0000 19.4161 0.0000 0.0000
# 5 0.0000 0.0000 0.0000 0.0000 32.8895 0.0000
# 6 0.0000 0.0000 0.0000 0.0000 0.0000 36.7283
#
#
#
# Elastic Compliance Matrix: (Units=1/GPa)
#
#
# Indices 1 2 3 4 5 6 
#
# 1 0.016049 -0.003043 -0.007782 0.000000 0.000000 0.000000
# 2 -0.003043 0.010717 -0.002496 0.000000 0.000000 0.000000
# 3 -0.007782 -0.002496 0.014973 0.000000 0.000000 0.000000
# 4 0.000000 0.000000 0.000000 0.051504 0.000000 0.000000
# 5 0.000000 0.000000 0.000000 0.000000 0.030405 0.000000
# 6 0.000000 0.000000 0.000000 0.000000 0.000000 0.027227
#
#
# Mechanical properties :
#
#
# Convention : Reuss Voigt Hill
#
# Bulk Modulus (GPa) = 66.23610 66.27406 66.25508
# Shear Modulus (GPa) = 27.39000 29.57299 28.48150
#
# Velocity S-wave (km/s) = 3.57418 3.71389 3.64470
# Velocity P-wave (km/s) = 6.92284 7.02147 6.97233
#
# Compressibility (1/GPa) = 0.01509751
#
# Stress axis : x y z
#
# Youngs Moduli (GPa) = 62.30866 93.31043 66.78713
#
# Poissons Ratio (x) = 0.28396 0.51973
# Poissons Ratio (y) = 0.18962 0.16667
# Poissons Ratio (z) = 0.48488 0.23286
#
# Static dielectric constant tensor:
#      x y z
#    x 3.973710 0.000000 0.000000 
#    y 0.000000 3.973500 0.000000 
#    z 0.000000 0.000000 3.629020 
# 
# 
# High freq. dielectric constant tensor:
#      x y z
#    x 1.846810 0.000000 0.000000 
#    y 0.000000 1.856620 0.000000 
#    z 0.000000 0.000000 1.816220 
# 
# From -- ./inp_files/31838.got.cif
#   From: 2010.03.12/outbox.cif.g09.slc.cpg/sg73_16_cif.got.tgz:31838.got - 2010.04.16 15:25:48.
