data_PCOD8295571
_publ_section_title
;
Structure prediction by ZEFSAII (Michael W. Deem and Ramdas Pophale) SiO2 
 PCOD8295571
Probable space group: I B C A 
;
_chemical_formula_sum "Si O2"
_cell_formula_units_Z 104
_cell_length_a 27.059093
_cell_length_b 9.113037
_cell_length_c 21.921599
_cell_angle_alpha 90.000000
_cell_angle_beta 90.000000
_cell_angle_gamma 90.000000
_cell_volume 5405.658402
_symmetry_space_group_name_H-M "I B C A "
_symmetry_group_IT_number 73
_symmetry_cell_setting 'orthorhombic'
loop_
_space_group_symop_operation_xyz
x,y,z
-x,1/2-y,z
x,-y,1/2-z
1/2-x,y,-z
-x,-y,-z
x,1/2+y,-z
-x,y,1/2+z
1/2+x,-y,z
1/2+x,1/2+y,1/2+z
1/2-x,-y,1/2+z
1/2+x,1/2-y,-z
-x,1/2+y,1/2-z
1/2-x,1/2-y,1/2-z
1/2+x,y,1/2-z
1/2-x,1/2+y,z
x,1/2-y,1/2+z
loop_
_atom_site_type_symbol
_atom_site_label
_atom_site_fract_x
_atom_site_fract_y
_atom_site_fract_z
Si Si1 0.554589 0.689340 0.511737
Si Si2 0.512832 0.583820 0.192244
Si Si3 0.684440 0.564008 0.043614
Si Si4 0.103027 0.160708 0.622764
Si Si5 0.902737 0.045950 0.681981
Si Si6 0.603681 0.414720 0.556380
Si Si7 0.250000 0.186854 0.000000
O O1 0.500000 0.750000 0.523052
O O2 0.591739 0.751093 0.562103
O O3 0.560877 0.515215 0.522270
O O4 0.578887 0.751354 0.448623
O O5 0.500000 0.750000 0.209852
O O6 0.534779 0.500000 0.250000
O O7 0.554929 0.564900 0.140796
O O8 0.461154 0.514357 0.171033
O O9 0.650811 0.562520 0.105584
O O10 0.716532 0.415536 0.043844
O O11 0.654002 0.566556 0.980683
O O12 0.718205 0.709775 0.045000
O O13 0.112626 0.282610 0.675587
O O14 0.885471 0.000000 0.750000
O O15 0.880964 0.948910 0.626465
#
# Coordination Sequence:
#
# PCOD8295571 Si02
#       7
#    16  16  16  16  16  16   8
#     4  10  18  29  46  70 104 140 167 206 255 294
#     4   9  17  31  48  70 104 146 183 210 238 280
#     4  10  20  35  56  81 101 128 164 214 278 329
#     4   9  17  31  50  71 101 135 172 209 252 307
#     4   9  17  31  49  72 107 151 182 203 234 283
#     4  10  19  32  49  74 104 133 174 212 249 307
#     4  10  20  36  56  80 104 122 158 214 284 346
#
# _framework density 19.239099
#
# number of rings (size 3 to 8) (size 9 to 14) (size 15 to 20)
#    0.000    2.462    0.000    5.538    0.000    1.231 
#    0.000   20.000    0.000    0.000    0.000   28.000 
#    0.000    0.000    0.000    0.000    0.000    0.000 
#
# Total GULP energy -644207.220016 kJ/mol
# GULP energy per Si atom -12388.600385 kJ/mol
# Density = 1.919531 g / cm^3
# Si number density = 19.239099 Si / 1000 Ang^3
#
#
#
# Elastic Constant Matrix: (Units=GPa)
#
#
# Indices 1 2 3 4 5 6 
#
# 1 83.1022 26.8669 30.8645 0.0000 0.0000 0.0000
# 2 26.8669 57.4141 27.0462 0.0000 0.0000 0.0000
# 3 30.8645 27.0462 98.5128 0.0000 0.0000 0.0000
# 4 0.0000 0.0000 0.0000 26.0490 0.0000 0.0000
# 5 0.0000 0.0000 0.0000 0.0000 20.9842 0.0000
# 6 0.0000 0.0000 0.0000 0.0000 0.0000 26.0870
#
#
#
# Elastic Compliance Matrix: (Units=1/GPa)
#
#
# Indices 1 2 3 4 5 6 
#
# 1 0.015000 -0.005519 -0.003184 0.000000 0.000000 0.000000
# 2 -0.005519 0.022035 -0.004320 0.000000 0.000000 0.000000
# 3 -0.003184 -0.004320 0.012335 0.000000 0.000000 0.000000
# 4 0.000000 0.000000 0.000000 0.038389 0.000000 0.000000
# 5 0.000000 0.000000 0.000000 0.000000 0.047655 0.000000
# 6 0.000000 0.000000 0.000000 0.000000 0.000000 0.038333
#
#
# Mechanical properties :
#
#
# Convention : Reuss Voigt Hill
#
# Bulk Modulus (GPa) = 42.87762 45.39826 44.13794
# Shear Modulus (GPa) = 24.08819 24.90747 24.49783
#
# Velocity S-wave (km/s) = 3.54226 3.60200 3.57225
# Velocity P-wave (km/s) = 6.25022 6.39901 6.32505
#
# Compressibility (1/GPa) = 0.02332219
#
# Stress axis : x y z
#
# Youngs Moduli (GPa) = 66.66446 45.38157 81.07135
#
# Poissons Ratio (x) = 0.25048 0.25816
# Poissons Ratio (y) = 0.36795 0.35027
# Poissons Ratio (z) = 0.21229 0.19607
#
# Static dielectric constant tensor:
#      x y z
#    x 3.493310 0.000000 0.000000 
#    y 0.000000 4.005620 0.000000 
#    z 0.000000 0.000000 3.424480 
# 
# 
# High freq. dielectric constant tensor:
#      x y z
#    x 1.729420 0.000000 0.000000 
#    y 0.000000 1.749290 0.000000 
#    z 0.000000 0.000000 1.716300 
# 
# From -- ./inp_files/28497.got.cif
#   From: 2010.03.12/outbox.cif.g09.slc.cpg/sg73_15_cif.got.tgz:28497.got - 2010.04.16 15:25:48.
