data_PCOD8295313
_publ_section_title
;
Structure prediction by ZEFSAII (Michael W. Deem and Ramdas Pophale) SiO2 
 PCOD8295313
Probable space group: I B A M
;
_chemical_formula_sum "Si O2"
_cell_formula_units_Z 80
_cell_length_a 18.747352
_cell_length_b 14.022845
_cell_length_c 16.030597
_cell_angle_alpha 90.000000
_cell_angle_beta 90.000000
_cell_angle_gamma 90.000000
_cell_volume 4214.303062
_symmetry_space_group_name_H-M "I B A M"
_symmetry_group_IT_number 72
_symmetry_cell_setting 'orthorhombic'
loop_
_space_group_symop_operation_xyz
x,y,z
-x,-y,z
x,-y,1/2-z
-x,y,1/2-z
-x,-y,-z
x,y,-z
-x,y,1/2+z
x,-y,1/2+z
1/2+x,1/2+y,1/2+z
1/2-x,1/2-y,1/2+z
1/2+x,1/2-y,-z
1/2-x,1/2+y,-z
1/2-x,1/2-y,1/2-z
1/2+x,1/2+y,1/2-z
1/2-x,1/2+y,z
1/2+x,1/2-y,z
loop_
_atom_site_type_symbol
_atom_site_label
_atom_site_fract_x
_atom_site_fract_y
_atom_site_fract_z
Si Si1 0.661592 0.897784 0.254778
Si Si2 0.317016 0.606086 0.672028
Si Si3 0.136465 0.789893 0.666161
Si Si4 0.209036 0.293560 0.593316
Si Si5 0.574904 0.538381 0.596839
O O1 0.737201 0.919271 0.299336
O O2 0.618265 0.820847 0.311762
O O3 0.668962 0.858689 0.160859
O O4 0.620933 0.000000 0.250000
O O5 0.357717 0.655005 0.747499
O O6 0.316706 0.683705 0.597801
O O7 0.358268 0.510893 0.643921
O O8 0.207503 0.795250 0.611935
O O9 0.076577 0.846949 0.613441
O O10 0.194203 0.332602 0.500000
O O11 0.500000 0.500000 0.632109
O O12 0.581797 0.515124 0.500000
#
# Coordination Sequence:
#
# PCOD8295313 Si02
#       5
#    16  16  16  16  16
#     4   9  17  30  48  70  97 127 163 208 252 296
#     4   9  17  30  47  68  95 129 165 199 247 303
#     4   9  18  30  45  67  95 127 163 200 242 296
#     4   9  16  28  47  69  95 126 163 210 254 294
#     4  11  22  33  47  71 103 135 167 205 250 303
#
# _framework density 18.982972
#
# number of rings (size 3 to 8) (size 9 to 14) (size 15 to 20)
#    0.000    2.600    0.000    6.600    0.000    1.600 
#    0.000    5.000    0.000    0.000    0.000   11.200 
#    0.000   14.400    0.000    0.000    0.000    0.000 
#
# Total GULP energy -495591.505384 kJ/mol
# GULP energy per Si atom -12389.787635 kJ/mol
# Density = 1.893977 g / cm^3
# Si number density = 18.982972 Si / 1000 Ang^3
#
#
#
# Elastic Constant Matrix: (Units=GPa)
#
#
# Indices 1 2 3 4 5 6 
#
# 1 42.4587 34.0509 16.2712 0.0000 0.0000 0.0000
# 2 34.0509 158.1749 33.7362 0.0000 0.0000 0.0000
# 3 16.2712 33.7362 86.4966 0.0000 0.0000 0.0000
# 4 0.0000 0.0000 0.0000 26.5328 0.0000 0.0000
# 5 0.0000 0.0000 0.0000 0.0000 13.4883 0.0000
# 6 0.0000 0.0000 0.0000 0.0000 0.0000 20.0703
#
#
#
# Elastic Compliance Matrix: (Units=1/GPa)
#
#
# Indices 1 2 3 4 5 6 
#
# 1 0.029321 -0.005602 -0.003331 0.000000 0.000000 0.000000
# 2 -0.005602 0.007966 -0.002053 0.000000 0.000000 0.000000
# 3 -0.003331 -0.002053 0.012989 0.000000 0.000000 0.000000
# 4 0.000000 0.000000 0.000000 0.037689 0.000000 0.000000
# 5 0.000000 0.000000 0.000000 0.000000 0.074138 0.000000
# 6 0.000000 0.000000 0.000000 0.000000 0.000000 0.049825
#
#
# Mechanical properties :
#
#
# Convention : Reuss Voigt Hill
#
# Bulk Modulus (GPa) = 35.33057 50.58300 42.95678
# Shear Modulus (GPa) = 20.54788 25.55641 23.05214
#
# Velocity S-wave (km/s) = 3.29361 3.67315 3.48855
# Velocity P-wave (km/s) = 5.75465 6.68534 6.23737
#
# Compressibility (1/GPa) = 0.02830410
#
# Stress axis : x y z
#
# Youngs Moduli (GPa) = 34.10508 125.53488 76.99086
#
# Poissons Ratio (x) = 0.70320 0.25645
# Poissons Ratio (y) = 0.19104 0.15808
# Poissons Ratio (z) = 0.11360 0.25775
#
# Static dielectric constant tensor:
#      x y z
#    x 3.039840 0.000000 0.000000 
#    y 0.000000 3.861300 0.000000 
#    z 0.000000 0.000000 3.480160 
# 
# 
# High freq. dielectric constant tensor:
#      x y z
#    x 1.671060 0.000000 0.000000 
#    y 0.000000 1.750100 0.000000 
#    z 0.000000 0.000000 1.740470 
# 
# From -- ./inp_files/21553.got.cif
#   From: 2010.03.12/outbox.cif.g09.slc.cpg/sg72_11_cif.got.tgz:21553.got - 2010.04.16 14:54:00.
