data_PCOD8295375
_publ_section_title
;
Structure prediction by ZEFSAII (Michael W. Deem and Ramdas Pophale) SiO2 
 PCOD8295375
Probable space group: I B A M
;
_chemical_formula_sum "Si O2"
_cell_formula_units_Z 96
_cell_length_a 22.511363
_cell_length_b 10.979182
_cell_length_c 18.672692
_cell_angle_alpha 90.000000
_cell_angle_beta 90.000000
_cell_angle_gamma 90.000000
_cell_volume 4615.074426
_symmetry_space_group_name_H-M "I B A M"
_symmetry_group_IT_number 72
_symmetry_cell_setting 'orthorhombic'
loop_
_space_group_symop_operation_xyz
x,y,z
-x,-y,z
x,-y,1/2-z
-x,y,1/2-z
-x,-y,-z
x,y,-z
-x,y,1/2+z
x,-y,1/2+z
1/2+x,1/2+y,1/2+z
1/2-x,1/2-y,1/2+z
1/2+x,1/2-y,-z
1/2-x,1/2+y,-z
1/2-x,1/2-y,1/2-z
1/2+x,1/2+y,1/2-z
1/2-x,1/2+y,z
1/2+x,1/2-y,z
loop_
_atom_site_type_symbol
_atom_site_label
_atom_site_fract_x
_atom_site_fract_y
_atom_site_fract_z
Si Si1 0.526253 0.717733 0.823396
Si Si2 0.781058 0.256756 0.172771
Si Si3 0.128427 0.955912 0.830634
Si Si4 0.112390 0.430307 0.679293
Si Si5 0.171426 0.178480 0.079573
Si Si6 0.932925 0.641188 0.080827
O O1 0.500000 0.663028 0.750000
O O2 0.568307 0.612703 0.857300
O O3 0.566482 0.828336 0.796460
O O4 0.478791 0.767393 0.880278
O O5 0.750000 0.250000 0.250000
O O6 0.814408 0.129764 0.160986
O O7 0.825752 0.368604 0.156602
O O8 0.731488 0.274660 0.113906
O O9 0.121000 0.000000 0.750000
O O10 0.137554 0.072445 0.879244
O O11 0.129942 0.500000 0.750000
O O12 0.078793 0.512212 0.619890
O O13 0.130340 0.295958 0.078585
O O14 0.185154 0.131132 0.000000
O O15 0.956291 0.615605 0.000000
#
# Coordination Sequence:
#
# PCOD8295375 Si02
#       6
#    16  16  16  16  16  16
#     4  11  23  41  65  97 131 168 218 269 322 384
#     4  11  24  41  67  97 129 170 222 271 322 387
#     4  11  24  42  67  97 129 173 222 269 321 392
#     4  11  23  39  66  97 128 167 213 268 328 380
#     4  11  26  44  64  96 132 172 218 267 328 387
#     4  11  25  43  65  96 132 171 216 267 328 392
#
# _framework density 20.801397000000001
#
# number of rings (size 3 to 8) (size 9 to 14) (size 15 to 20)
#    0.000    1.000    3.333    2.500    4.667    5.667 
#    0.000    5.000    0.000    0.000    0.000    0.000 
#    0.000    0.000    0.000    0.000    0.000    0.000 
#
# Total GULP energy -595135.882317 kJ/mol
# GULP energy per Si atom -12398.664215 kJ/mol
# Density = 2.075405 g / cm^3
# Si number density = 20.801397 Si / 1000 Ang^3
#
#
#
# Elastic Constant Matrix: (Units=GPa)
#
#
# Indices 1 2 3 4 5 6 
#
# 1 110.8955 24.1128 28.2781 0.0000 0.0000 0.0000
# 2 24.1128 79.6472 18.0774 0.0000 0.0000 0.0000
# 3 28.2781 18.0774 112.1645 0.0000 0.0000 0.0000
# 4 0.0000 0.0000 0.0000 26.1791 0.0000 0.0000
# 5 0.0000 0.0000 0.0000 0.0000 24.4736 0.0000
# 6 0.0000 0.0000 0.0000 0.0000 0.0000 36.7348
#
#
#
# Elastic Compliance Matrix: (Units=1/GPa)
#
#
# Indices 1 2 3 4 5 6 
#
# 1 0.010123 -0.002580 -0.002136 0.000000 0.000000 0.000000
# 2 -0.002580 0.013690 -0.001556 0.000000 0.000000 0.000000
# 3 -0.002136 -0.001556 0.009705 0.000000 0.000000 0.000000
# 4 0.000000 0.000000 0.000000 0.038198 0.000000 0.000000
# 5 0.000000 0.000000 0.000000 0.000000 0.040860 0.000000
# 6 0.000000 0.000000 0.000000 0.000000 0.000000 0.027222
#
#
# Mechanical properties :
#
#
# Convention : Reuss Voigt Hill
#
# Bulk Modulus (GPa) = 47.67973 49.29378 48.48675
# Shear Modulus (GPa) = 31.38062 32.96009 32.17035
#
# Velocity S-wave (km/s) = 3.88826 3.98491 3.93688
# Velocity P-wave (km/s) = 6.56729 6.70235 6.63516
#
# Compressibility (1/GPa) = 0.02097327
#
# Stress axis : x y z
#
# Youngs Moduli (GPa) = 98.78262 73.04843 103.04119
#
# Poissons Ratio (x) = 0.18846 0.22014
# Poissons Ratio (y) = 0.25485 0.16032
# Poissons Ratio (z) = 0.21104 0.11366
#
# Static dielectric constant tensor:
#      x y z
#    x 4.077020 0.000000 0.000000 
#    y 0.000000 3.948840 0.000000 
#    z 0.000000 0.000000 3.770060 
# 
# 
# High freq. dielectric constant tensor:
#      x y z
#    x 1.834960 0.000000 0.000000 
#    y 0.000000 1.827170 0.000000 
#    z 0.000000 0.000000 1.802260 
# 
# From -- ./inp_files/39689.got.cif
#   From: 2010.03.12/outbox.cif.g09.slc.cpg/sg72_20_cif.got.tgz:39689.got - 2010.04.16 14:54:00.
