data_PCOD8295310
_publ_section_title
;
Structure prediction by ZEFSAII (Michael W. Deem and Ramdas Pophale) SiO2 
 PCOD8295310
Probable space group: I B A M
;
_chemical_formula_sum "Si O2"
_cell_formula_units_Z 56
_cell_length_a 15.486992
_cell_length_b 10.683360
_cell_length_c 14.226110
_cell_angle_alpha 90.000000
_cell_angle_beta 90.000000
_cell_angle_gamma 90.000000
_cell_volume 2353.754155
_symmetry_space_group_name_H-M "I B A M"
_symmetry_group_IT_number 72
_symmetry_cell_setting 'orthorhombic'
loop_
_space_group_symop_operation_xyz
x,y,z
-x,-y,z
x,-y,1/2-z
-x,y,1/2-z
-x,-y,-z
x,y,-z
-x,y,1/2+z
x,-y,1/2+z
1/2+x,1/2+y,1/2+z
1/2-x,1/2-y,1/2+z
1/2+x,1/2-y,-z
1/2-x,1/2+y,-z
1/2-x,1/2-y,1/2-z
1/2+x,1/2+y,1/2-z
1/2-x,1/2+y,z
1/2+x,1/2-y,z
loop_
_atom_site_type_symbol
_atom_site_label
_atom_site_fract_x
_atom_site_fract_y
_atom_site_fract_z
Si Si1 0.236518 0.048201 0.000000
Si Si2 0.296301 0.631435 0.799185
Si Si3 0.466844 0.256733 0.343845
Si Si4 0.933167 0.111305 0.000000
Si Si5 0.584962 0.918195 0.500000
O O1 0.230541 0.133885 0.908325
O O2 0.165040 0.936712 0.000000
O O3 0.332307 0.000812 0.000000
O O4 0.270028 0.500000 0.750000
O O5 0.250000 0.750000 0.750000
O O6 0.400853 0.639047 0.802386
O O7 0.500000 0.186213 0.250000
O O8 0.546990 0.309336 0.405664
O O9 0.410852 0.163348 0.406014
O O10 0.000000 0.000000 0.000000
O O11 0.500000 0.000000 0.500000
#
# Coordination Sequence:
#
# PCOD8295310 Si02
#       5
#     8  16  16   8   8
#     4  12  25  50  80 106 163 192 266 328 386 472
#     4  12  27  46  78 119 153 207 261 320 400 467
#     4  11  25  45  74 110 155 194 266 324 384 468
#     4  11  21  45  73 110 144 196 253 332 399 440
#     4  11  28  51  69 108 153 219 252 312 410 470
#
# _framework density 23.791779999999999
#
# number of rings (size 3 to 8) (size 9 to 14) (size 15 to 20)
#    0.000    0.571    2.857    4.286    4.000    1.714 
#    5.143    0.000    0.000    0.000    0.000    0.000 
#    0.000    0.000    0.000    0.000    0.000    0.000 
#
# Total GULP energy -347083.937202 kJ/mol
# GULP energy per Si atom -12395.854900 kJ/mol
# Density = 2.373763 g / cm^3
# Si number density = 23.791780 Si / 1000 Ang^3
#
#
#
# Elastic Constant Matrix: (Units=GPa)
#
#
# Indices 1 2 3 4 5 6 
#
# 1 147.2725 32.1338 41.9703 0.0000 0.0000 0.0000
# 2 32.1338 97.7421 52.3693 0.0000 0.0000 0.0000
# 3 41.9703 52.3693 226.7055 0.0000 0.0000 0.0000
# 4 0.0000 0.0000 0.0000 14.7379 0.0000 0.0000
# 5 0.0000 0.0000 0.0000 0.0000 27.5921 0.0000
# 6 0.0000 0.0000 0.0000 0.0000 0.0000 32.0625
#
#
#
# Elastic Compliance Matrix: (Units=1/GPa)
#
#
# Indices 1 2 3 4 5 6 
#
# 1 0.007484 -0.001961 -0.000933 0.000000 0.000000 0.000000
# 2 -0.001961 0.012190 -0.002453 0.000000 0.000000 0.000000
# 3 -0.000933 -0.002453 0.005150 0.000000 0.000000 0.000000
# 4 0.000000 0.000000 0.000000 0.067852 0.000000 0.000000
# 5 0.000000 0.000000 0.000000 0.000000 0.036242 0.000000
# 6 0.000000 0.000000 0.000000 0.000000 0.000000 0.031189
#
#
# Mechanical properties :
#
#
# Convention : Reuss Voigt Hill
#
# Bulk Modulus (GPa) = 70.76362 80.51855 75.64108
# Shear Modulus (GPa) = 28.48836 37.89494 33.19165
#
# Velocity S-wave (km/s) = 3.46411 3.99529 3.73914
# Velocity P-wave (km/s) = 6.76812 7.42964 7.10658
#
# Compressibility (1/GPa) = 0.01413155
#
# Stress axis : x y z
#
# Youngs Moduli (GPa) = 133.62365 82.03556 194.16448
#
# Poissons Ratio (x) = 0.16085 0.18107
# Poissons Ratio (y) = 0.26200 0.47626
# Poissons Ratio (z) = 0.12461 0.20122
#
# Static dielectric constant tensor:
#      x y z
#    x 4.063880 0.000000 0.000000 
#    y 0.000000 4.210270 0.000000 
#    z 0.000000 0.000000 4.666630 
# 
# 
# High freq. dielectric constant tensor:
#      x y z
#    x 1.947830 0.000000 0.000000 
#    y 0.000000 1.924600 0.000000 
#    z 0.000000 0.000000 1.973710 
# 
# From -- ./inp_files/19453.got.cif
#   From: 2010.03.12/outbox.cif.g09.slc.cpg/sg72_10_cif.got.tgz:19453.got - 2010.04.16 14:54:00.
