data_PCOD8295681
_publ_section_title
;
Structure prediction by ZEFSAII (Michael W. Deem and Ramdas Pophale) SiO2 
 PCOD8295681
Probable space group: I B C A 
;
_chemical_formula_sum "Si O2"
_cell_formula_units_Z 88
_cell_length_a 18.840105
_cell_length_b 13.936893
_cell_length_c 17.485522
_cell_angle_alpha 90.000000
_cell_angle_beta 90.000000
_cell_angle_gamma 90.000000
_cell_volume 4591.217706
_symmetry_space_group_name_H-M "I B C A "
_symmetry_group_IT_number 73
_symmetry_cell_setting 'orthorhombic'
loop_
_space_group_symop_operation_xyz
x,y,z
-x,1/2-y,z
x,-y,1/2-z
1/2-x,y,-z
-x,-y,-z
x,1/2+y,-z
-x,y,1/2+z
1/2+x,-y,z
1/2+x,1/2+y,1/2+z
1/2-x,-y,1/2+z
1/2+x,1/2-y,-z
-x,1/2+y,1/2-z
1/2-x,1/2-y,1/2-z
1/2+x,y,1/2-z
1/2-x,1/2+y,z
x,1/2-y,1/2+z
loop_
_atom_site_type_symbol
_atom_site_label
_atom_site_fract_x
_atom_site_fract_y
_atom_site_fract_z
Si Si1 0.813208 0.351998 0.449178
Si Si2 0.000000 0.250000 0.129940
Si Si3 0.084530 0.576725 0.316854
Si Si4 0.361533 0.689374 0.047978
Si Si5 0.281479 0.793783 0.175541
Si Si6 0.916763 0.994001 0.487087
O O1 0.750000 0.398400 0.500000
O O2 0.829042 0.243773 0.475639
O O3 0.784624 0.350670 0.362796
O O4 0.886607 0.407789 0.461395
O O5 0.019995 0.344538 0.180564
O O6 0.063301 0.231256 0.072165
O O7 0.068070 0.500000 0.250000
O O8 0.157234 0.632421 0.300395
O O9 0.094887 0.521277 0.396967
O O10 0.309492 0.707904 0.120470
O O11 0.371017 0.581542 0.020157
O O12 0.250000 0.750000 0.250000
O O13 0.000000 0.000000 0.500000
#
# Coordination Sequence:
#
# PCOD8295681 Si02
#       6
#    16   8  16  16  16  16
#     4  10  20  40  62  91 122 167 215 261 319 377
#     4  10  18  46  62  86 134 162 206 266 322 386
#     4  11  24  42  65  95 133 172 212 274 331 389
#     4  10  20  37  66  88 123 166 208 264 315 379
#     4  10  23  43  61  92 134 170 214 269 330 376
#     4  12  22  40  67  97 126 167 221 264 324 398
#
# _framework density 19.167027999999998
#
# number of rings (size 3 to 8) (size 9 to 14) (size 15 to 20)
#    0.000    1.455    7.273    0.000    2.545    3.636 
#    6.545    0.909    0.000    0.000    0.000    0.000 
#    0.000    0.000    0.000    0.000    0.000    0.000 
#
# Total GULP energy -545245.382675 kJ/mol
# GULP energy per Si atom -12391.940515 kJ/mol
# Density = 1.912340 g / cm^3
# Si number density = 19.167028 Si / 1000 Ang^3
#
#
#
# Elastic Constant Matrix: (Units=GPa)
#
#
# Indices 1 2 3 4 5 6 
#
# 1 109.1411 28.7489 39.1152 0.0000 0.0000 0.0000
# 2 28.7489 98.8542 39.0909 0.0000 0.0000 0.0000
# 3 39.1152 39.0909 80.6805 0.0000 0.0000 0.0000
# 4 0.0000 0.0000 0.0000 31.8328 0.0000 0.0000
# 5 0.0000 0.0000 0.0000 0.0000 23.2142 0.0000
# 6 0.0000 0.0000 0.0000 0.0000 0.0000 36.4696
#
#
#
# Elastic Compliance Matrix: (Units=1/GPa)
#
#
# Indices 1 2 3 4 5 6 
#
# 1 0.011239 -0.001378 -0.004781 0.000000 0.000000 0.000000
# 2 -0.001378 0.012682 -0.005477 0.000000 0.000000 0.000000
# 3 -0.004781 -0.005477 0.017366 0.000000 0.000000 0.000000
# 4 0.000000 0.000000 0.000000 0.031414 0.000000 0.000000
# 5 0.000000 0.000000 0.000000 0.000000 0.043077 0.000000
# 6 0.000000 0.000000 0.000000 0.000000 0.000000 0.027420
#
#
# Mechanical properties :
#
#
# Convention : Reuss Voigt Hill
#
# Bulk Modulus (GPa) = 55.50701 55.84287 55.67494
# Shear Modulus (GPa) = 28.98957 30.41803 29.70380
#
# Velocity S-wave (km/s) = 3.89327 3.98804 3.94094
# Velocity P-wave (km/s) = 7.01659 7.09958 7.05821
#
# Compressibility (1/GPa) = 0.01801574
#
# Stress axis : x y z
#
# Youngs Moduli (GPa) = 88.97632 78.84971 57.58317
#
# Poissons Ratio (x) = 0.10864 0.27532
# Poissons Ratio (y) = 0.12259 0.31537
# Poissons Ratio (z) = 0.42542 0.43184
#
# Static dielectric constant tensor:
#      x y z
#    x 3.635240 0.000000 0.000000 
#    y 0.000000 3.562050 0.000000 
#    z 0.000000 0.000000 3.395430 
# 
# 
# High freq. dielectric constant tensor:
#      x y z
#    x 1.761290 0.000000 0.000000 
#    y 0.000000 1.741520 0.000000 
#    z 0.000000 0.000000 1.730800 
# 
# From -- ./inp_files/21963.got.cif
#   From: 2010.03.12/outbox.cif.g09.slc.cpg/sg73_11_cif.got.tgz:21963.got - 2010.04.16 15:25:48.
