data_PCOD8295556
_publ_section_title
;
Structure prediction by ZEFSAII (Michael W. Deem and Ramdas Pophale) SiO2 
 PCOD8295556
Probable space group: I B C A 
;
_chemical_formula_sum "Si O2"
_cell_formula_units_Z 80
_cell_length_a 18.334830
_cell_length_b 14.450806
_cell_length_c 14.054203
_cell_angle_alpha 90.000000
_cell_angle_beta 90.000000
_cell_angle_gamma 90.000000
_cell_volume 3723.704251
_symmetry_space_group_name_H-M "I B C A "
_symmetry_group_IT_number 73
_symmetry_cell_setting 'orthorhombic'
loop_
_space_group_symop_operation_xyz
x,y,z
-x,1/2-y,z
x,-y,1/2-z
1/2-x,y,-z
-x,-y,-z
x,1/2+y,-z
-x,y,1/2+z
1/2+x,-y,z
1/2+x,1/2+y,1/2+z
1/2-x,-y,1/2+z
1/2+x,1/2-y,-z
-x,1/2+y,1/2-z
1/2-x,1/2-y,1/2-z
1/2+x,y,1/2-z
1/2-x,1/2+y,z
x,1/2-y,1/2+z
loop_
_atom_site_type_symbol
_atom_site_label
_atom_site_fract_x
_atom_site_fract_y
_atom_site_fract_z
Si Si1 0.428511 0.200611 0.831420
Si Si2 0.018854 0.468698 0.152397
Si Si3 0.665020 0.876036 0.012408
Si Si4 0.085277 0.752094 0.622518
Si Si5 0.092357 0.931755 0.030304
O O1 0.500000 0.250000 0.876434
O O2 0.453791 0.096233 0.808442
O O3 0.362584 0.195201 0.906287
O O4 0.402151 0.251896 0.735952
O O5 0.059359 0.500000 0.250000
O O6 0.982631 0.550363 0.089469
O O7 0.075021 0.416035 0.082181
O O8 0.648356 0.982562 0.038856
O O9 0.750000 0.861924 0.000000
O O10 0.622483 0.846462 0.915905
O O11 0.125110 0.663010 0.573488
O O12 0.000000 0.750000 0.596654
#
# Coordination Sequence:
#
# PCOD8295556 Si02
#       5
#    16  16  16  16  16
#     4  10  21  36  64  92 120 151 205 260 319 359
#     4  10  17  31  57  89 114 145 189 254 308 358
#     4  11  25  41  59  87 128 171 208 244 301 381
#     4  11  21  39  66  95 120 155 207 267 318 360
#     4  10  21  36  59  87 123 155 199 250 308 364
#
# _framework density 21.483982999999998
#
# number of rings (size 3 to 8) (size 9 to 14) (size 15 to 20)
#    0.000    1.600    2.000    5.400    2.800    1.600 
#    0.000    0.000    4.400    0.000    0.000    0.000 
#    0.000    0.000    0.000    0.000    0.000    0.000 
#
# Total GULP energy -495829.386949 kJ/mol
# GULP energy per Si atom -12395.734674 kJ/mol
# Density = 2.143508 g / cm^3
# Si number density = 21.483983 Si / 1000 Ang^3
#
#
#
# Elastic Constant Matrix: (Units=GPa)
#
#
# Indices 1 2 3 4 5 6 
#
# 1 115.1220 22.2960 43.7329 0.0000 0.0000 0.0000
# 2 22.2960 71.8645 9.5359 0.0000 0.0000 0.0000
# 3 43.7329 9.5359 134.4191 0.0000 0.0000 0.0000
# 4 0.0000 0.0000 0.0000 29.8334 0.0000 0.0000
# 5 0.0000 0.0000 0.0000 0.0000 14.2827 0.0000
# 6 0.0000 0.0000 0.0000 0.0000 0.0000 22.1991
#
#
#
# Elastic Compliance Matrix: (Units=1/GPa)
#
#
# Indices 1 2 3 4 5 6 
#
# 1 0.010447 -0.002817 -0.003199 0.000000 0.000000 0.000000
# 2 -0.002817 0.014807 -0.000134 0.000000 0.000000 0.000000
# 3 -0.003199 -0.000134 0.008490 0.000000 0.000000 0.000000
# 4 0.000000 0.000000 0.000000 0.033519 0.000000 0.000000
# 5 0.000000 0.000000 0.000000 0.000000 0.070015 0.000000
# 6 0.000000 0.000000 0.000000 0.000000 0.000000 0.045047
#
#
# Mechanical properties :
#
#
# Convention : Reuss Voigt Hill
#
# Bulk Modulus (GPa) = 46.63319 52.50392 49.56856
# Shear Modulus (GPa) = 24.78035 29.65242 27.21639
#
# Velocity S-wave (km/s) = 3.39991 3.71915 3.56311
# Velocity P-wave (km/s) = 6.09636 6.55244 6.32851
#
# Compressibility (1/GPa) = 0.02144395
#
# Stress axis : x y z
#
# Youngs Moduli (GPa) = 95.71866 67.53667 117.78892
#
# Poissons Ratio (x) = 0.19024 0.37683
# Poissons Ratio (y) = 0.26962 0.01578
# Poissons Ratio (z) = 0.30622 0.00905
#
# Static dielectric constant tensor:
#      x y z
#    x 3.229000 0.000000 0.000000 
#    y 0.000000 4.054650 0.000000 
#    z 0.000000 0.000000 3.997110 
# 
# 
# High freq. dielectric constant tensor:
#      x y z
#    x 1.765370 0.000000 0.000000 
#    y 0.000000 1.860040 0.000000 
#    z 0.000000 0.000000 1.857240 
# 
# From -- ./inp_files/16841.got.cif
#   From: 2010.03.12/outbox.cif.g09.slc.cpg/sg73_9_cif.got.tgz:16841.got - 2010.04.16 15:25:48.
