data_PCOD8295667
_publ_section_title
;
Structure prediction by ZEFSAII (Michael W. Deem and Ramdas Pophale) SiO2 
 PCOD8295667
Probable space group: I B C A 
;
_chemical_formula_sum "Si O2"
_cell_formula_units_Z 96
_cell_length_a 18.766324
_cell_length_b 12.339955
_cell_length_c 20.077369
_cell_angle_alpha 90.000000
_cell_angle_beta 90.000000
_cell_angle_gamma 90.000000
_cell_volume 4649.428646
_symmetry_space_group_name_H-M "I B C A "
_symmetry_group_IT_number 73
_symmetry_cell_setting 'orthorhombic'
loop_
_space_group_symop_operation_xyz
x,y,z
-x,1/2-y,z
x,-y,1/2-z
1/2-x,y,-z
-x,-y,-z
x,1/2+y,-z
-x,y,1/2+z
1/2+x,-y,z
1/2+x,1/2+y,1/2+z
1/2-x,-y,1/2+z
1/2+x,1/2-y,-z
-x,1/2+y,1/2-z
1/2-x,1/2-y,1/2-z
1/2+x,y,1/2-z
1/2-x,1/2+y,z
x,1/2-y,1/2+z
loop_
_atom_site_type_symbol
_atom_site_label
_atom_site_fract_x
_atom_site_fract_y
_atom_site_fract_z
Si Si1 0.179536 0.614689 0.219839
Si Si2 0.440405 0.821890 0.493687
Si Si3 0.172477 0.307454 0.682051
Si Si4 0.098784 0.511075 0.109992
Si Si5 0.475672 0.865426 0.642583
Si Si6 0.184284 0.686266 0.451378
O O1 0.159732 0.500000 0.250000
O O2 0.151566 0.710597 0.267197
O O3 0.264645 0.621241 0.212339
O O4 0.138007 0.609023 0.149650
O O5 0.500000 0.750000 0.456014
O O6 0.472618 0.857619 0.563665
O O7 0.370164 0.749227 0.501227
O O8 0.431014 0.932906 0.455261
O O9 0.103442 0.386027 0.672779
O O10 0.202372 0.262995 0.611512
O O11 0.153708 0.421380 0.083139
O O12 0.035049 0.458351 0.155590
O O13 0.500000 0.750000 0.672668
O O14 0.250000 0.657500 0.500000
#
# Coordination Sequence:
#
# PCOD8295667 Si02
#       6
#    16  16  16  16  16  16
#     4  11  22  42  64  87 126 168 212 261 312 370
#     4  10  21  39  59  90 129 163 197 260 317 372
#     4  10  22  42  64  88 127 166 210 262 312 375
#     4  12  22  39  65  92 124 168 209 254 321 382
#     4  10  18  39  65  89 123 164 205 253 321 372
#     4  11  22  38  63  95 123 162 208 256 314 381
#
# _framework density 20.647698999999999
#
# number of rings (size 3 to 8) (size 9 to 14) (size 15 to 20)
#    0.000    1.333    6.667    1.500    0.000    3.333 
#    0.000    5.000    0.000    0.000    0.000    0.000 
#    0.000    0.000    0.000    0.000    0.000    0.000 
#
# Total GULP energy -594860.702773 kJ/mol
# GULP energy per Si atom -12392.931308 kJ/mol
# Density = 2.060070 g / cm^3
# Si number density = 20.647699 Si / 1000 Ang^3
#
#
#
# Elastic Constant Matrix: (Units=GPa)
#
#
# Indices 1 2 3 4 5 6 
#
# 1 112.1055 31.7579 32.7385 0.0000 0.0000 0.0000
# 2 31.7579 60.8320 20.4486 0.0000 0.0000 0.0000
# 3 32.7385 20.4486 51.8556 0.0000 0.0000 0.0000
# 4 0.0000 0.0000 0.0000 26.4452 0.0000 0.0000
# 5 0.0000 0.0000 0.0000 0.0000 35.5066 0.0000
# 6 0.0000 0.0000 0.0000 0.0000 0.0000 16.1084
#
#
#
# Elastic Compliance Matrix: (Units=1/GPa)
#
#
# Indices 1 2 3 4 5 6 
#
# 1 0.011806 -0.004217 -0.005791 0.000000 0.000000 0.000000
# 2 -0.004217 0.020457 -0.005405 0.000000 0.000000 0.000000
# 3 -0.005791 -0.005405 0.025071 0.000000 0.000000 0.000000
# 4 0.000000 0.000000 0.000000 0.037814 0.000000 0.000000
# 5 0.000000 0.000000 0.000000 0.000000 0.028164 0.000000
# 6 0.000000 0.000000 0.000000 0.000000 0.000000 0.062079
#
#
# Mechanical properties :
#
#
# Convention : Reuss Voigt Hill
#
# Bulk Modulus (GPa) = 37.72172 43.85367 40.78769
# Shear Modulus (GPa) = 22.21707 24.93525 23.57616
#
# Velocity S-wave (km/s) = 3.28381 3.47890 3.38276
# Velocity P-wave (km/s) = 5.71724 6.11736 5.92068
#
# Compressibility (1/GPa) = 0.02650993
#
# Stress axis : x y z
#
# Youngs Moduli (GPa) = 84.70434 48.88327 39.88601
#
# Poissons Ratio (x) = 0.20613 0.23096
# Poissons Ratio (y) = 0.35718 0.21557
# Poissons Ratio (z) = 0.49049 0.26420
#
# Static dielectric constant tensor:
#      x y z
#    x 3.870860 0.000000 0.000000 
#    y 0.000000 3.750830 0.000000 
#    z 0.000000 0.000000 3.780120 
# 
# 
# High freq. dielectric constant tensor:
#      x y z
#    x 1.817480 0.000000 0.000000 
#    y 0.000000 1.793790 0.000000 
#    z 0.000000 0.000000 1.797140 
# 
# From -- ./inp_files/26908.got.cif
#   From: 2010.03.12/outbox.cif.g09.slc.cpg/sg73_14_cif.got.tgz:26908.got - 2010.04.16 15:25:48.
