data_PCOD8295150
_publ_section_title
;
Structure prediction by ZEFSAII (Michael W. Deem and Ramdas Pophale) SiO2 
 PCOD8295150
Probable space group: I B A M
;
_chemical_formula_sum "Si O2"
_cell_formula_units_Z 96
_cell_length_a 13.411495
_cell_length_b 16.109502
_cell_length_c 20.233395
_cell_angle_alpha 90.000000
_cell_angle_beta 90.000000
_cell_angle_gamma 90.000000
_cell_volume 4371.475685
_symmetry_space_group_name_H-M "I B A M"
_symmetry_group_IT_number 72
_symmetry_cell_setting 'orthorhombic'
loop_
_space_group_symop_operation_xyz
x,y,z
-x,-y,z
x,-y,1/2-z
-x,y,1/2-z
-x,-y,-z
x,y,-z
-x,y,1/2+z
x,-y,1/2+z
1/2+x,1/2+y,1/2+z
1/2-x,1/2-y,1/2+z
1/2+x,1/2-y,-z
1/2-x,1/2+y,-z
1/2-x,1/2-y,1/2-z
1/2+x,1/2+y,1/2-z
1/2-x,1/2+y,z
1/2+x,1/2-y,z
loop_
_atom_site_type_symbol
_atom_site_label
_atom_site_fract_x
_atom_site_fract_y
_atom_site_fract_z
Si Si1 0.579506 0.340195 0.500000
Si Si2 0.500000 0.808883 0.250000
Si Si3 0.397327 0.544281 0.375788
Si Si4 0.960983 0.687966 0.000000
Si Si5 0.268536 0.390469 0.623801
Si Si6 0.463964 0.907344 0.626100
Si Si7 0.610854 0.349480 0.255198
Si Si8 0.769343 0.229426 0.500000
O O1 0.580047 0.395909 0.435933
O O2 0.477983 0.287620 0.500000
O O3 0.660258 0.267321 0.500000
O O4 0.521940 0.867222 0.312264
O O5 0.402802 0.750452 0.265630
O O6 0.500000 0.500000 0.353807
O O7 0.316104 0.477374 0.399023
O O8 0.345894 0.600582 0.318103
O O9 0.008505 0.645011 0.062663
O O10 0.840701 0.688680 0.000000
O O11 0.153336 0.405307 0.639101
O O12 0.322317 0.362269 0.691009
O O13 0.285082 0.324154 0.566146
O O14 0.500000 0.000000 0.614958
O O15 0.500000 0.388255 0.250000
#
# Coordination Sequence:
#
# PCOD8295150 Si02
#       8
#     8   8  16   8  16  16  16   8
#     4  12  26  44  72 105 137 182 241 292 365 415
#     4  10  23  46  67 100 142 180 240 286 355 422
#     4  12  23  43  73 108 143 179 231 299 372 426
#     4  12  25  50  70  95 143 183 238 305 352 424
#     4  12  25  46  73 105 147 185 243 296 362 443
#     4  12  27  46  69  98 143 198 240 287 350 434
#     4  10  23  43  71 104 139 181 226 300 368 421
#     4  12  27  46  74 105 138 190 248 298 366 433
#
# _framework density 21.960547999999999
#
# number of rings (size 3 to 8) (size 9 to 14) (size 15 to 20)
#    0.500    0.000    3.333    4.750    2.333    3.333 
#    0.000    0.000    0.000    0.000    0.000    0.000 
#    0.000    0.000    0.000    0.000    0.000    0.000 
#
# Total GULP energy -595112.914819 kJ/mol
# GULP energy per Si atom -12398.185725 kJ/mol
# Density = 2.191056 g / cm^3
# Si number density = 21.960548 Si / 1000 Ang^3
#
#
#
# Elastic Constant Matrix: (Units=GPa)
#
#
# Indices 1 2 3 4 5 6 
#
# 1 84.7601 16.4923 17.9037 0.0000 0.0000 0.0000
# 2 16.4923 101.2062 34.5280 0.0000 0.0000 0.0000
# 3 17.9037 34.5280 146.1695 0.0000 0.0000 0.0000
# 4 0.0000 0.0000 0.0000 51.9173 0.0000 0.0000
# 5 0.0000 0.0000 0.0000 0.0000 34.6921 0.0000
# 6 0.0000 0.0000 0.0000 0.0000 0.0000 38.3895
#
#
#
# Elastic Compliance Matrix: (Units=1/GPa)
#
#
# Indices 1 2 3 4 5 6 
#
# 1 0.012353 -0.001628 -0.001129 0.000000 0.000000 0.000000
# 2 -0.001628 0.010961 -0.002390 0.000000 0.000000 0.000000
# 3 -0.001129 -0.002390 0.007544 0.000000 0.000000 0.000000
# 4 0.000000 0.000000 0.000000 0.019261 0.000000 0.000000
# 5 0.000000 0.000000 0.000000 0.000000 0.028825 0.000000
# 6 0.000000 0.000000 0.000000 0.000000 0.000000 0.026049
#
#
# Mechanical properties :
#
#
# Convention : Reuss Voigt Hill
#
# Bulk Modulus (GPa) = 48.62424 52.22043 50.42234
# Shear Modulus (GPa) = 40.93591 42.54722 41.74156
#
# Velocity S-wave (km/s) = 4.32217 4.40641 4.36449
# Velocity P-wave (km/s) = 6.86279 7.05120 6.95763
#
# Compressibility (1/GPa) = 0.02056588
#
# Stress axis : x y z
#
# Youngs Moduli (GPa) = 80.95095 91.22872 132.55324
#
# Poissons Ratio (x) = 0.14852 0.14959
# Poissons Ratio (y) = 0.13179 0.31679
# Poissons Ratio (z) = 0.09135 0.21803
#
# Static dielectric constant tensor:
#      x y z
#    x 4.017930 0.000000 0.000000 
#    y 0.000000 4.196420 0.000000 
#    z 0.000000 0.000000 4.010140 
# 
# 
# High freq. dielectric constant tensor:
#      x y z
#    x 1.856680 0.000000 0.000000 
#    y 0.000000 1.879200 0.000000 
#    z 0.000000 0.000000 1.875930 
# 
# From -- ./inp_files/38094.got.cif
#   From: 2010.03.12/outbox.cif.g09.slc.cpg/sg72_20_cif.got.tgz:38094.got - 2010.04.16 14:54:00.
