data_PCOD8295668
_publ_section_title
;
Structure prediction by ZEFSAII (Michael W. Deem and Ramdas Pophale) SiO2 
 PCOD8295668
Probable space group: I B C A 
;
_chemical_formula_sum "Si O2"
_cell_formula_units_Z 88
_cell_length_a 19.204430
_cell_length_b 11.298392
_cell_length_c 19.809252
_cell_angle_alpha 90.000000
_cell_angle_beta 90.000000
_cell_angle_gamma 90.000000
_cell_volume 4298.195221
_symmetry_space_group_name_H-M "I B C A "
_symmetry_group_IT_number 73
_symmetry_cell_setting 'orthorhombic'
loop_
_space_group_symop_operation_xyz
x,y,z
-x,1/2-y,z
x,-y,1/2-z
1/2-x,y,-z
-x,-y,-z
x,1/2+y,-z
-x,y,1/2+z
1/2+x,-y,z
1/2+x,1/2+y,1/2+z
1/2-x,-y,1/2+z
1/2+x,1/2-y,-z
-x,1/2+y,1/2-z
1/2-x,1/2-y,1/2-z
1/2+x,y,1/2-z
1/2-x,1/2+y,z
x,1/2-y,1/2+z
loop_
_atom_site_type_symbol
_atom_site_label
_atom_site_fract_x
_atom_site_fract_y
_atom_site_fract_z
Si Si1 0.397556 0.312703 0.915642
Si Si2 0.067568 0.000000 0.250000
Si Si3 0.190386 0.883103 0.794866
Si Si4 0.426155 0.818537 0.938473
Si Si5 0.656312 0.702423 0.810707
Si Si6 0.539709 0.923752 0.113345
O O1 0.350293 0.394796 0.866449
O O2 0.399514 0.176482 0.889683
O O3 0.472714 0.372882 0.922646
O O4 0.377125 0.309822 0.994773
O O5 0.117867 0.915272 0.209709
O O6 0.019911 0.940093 0.307202
O O7 0.262059 0.822950 0.817863
O O8 0.144175 0.800648 0.746344
O O9 0.203216 0.000000 0.750000
O O10 0.500000 0.750000 0.944383
O O11 0.379114 0.755537 0.880699
O O12 0.437343 0.956852 0.923200
#
# Coordination Sequence:
#
# PCOD8295668 Si02
#       6
#    16   8  16  16  16  16
#     4  11  23  39  62  94 124 162 206 265 315 377
#     4  10  18  40  58  82 118 162 202 254 320 362
#     4  11  24  40  65  90 127 162 217 262 308 378
#     4  11  24  39  63  90 128 166 207 257 326 378
#     4  10  23  40  61  88 121 164 208 255 316 368
#     4  10  22  38  62  86 130 156 206 259 321 373
#
# _framework density 20.473710000000001
#
# number of rings (size 3 to 8) (size 9 to 14) (size 15 to 20)
#    0.000    1.455    4.545    0.545    3.818    2.182 
#    0.000    0.000    0.000    4.364    0.000    0.000 
#    0.000    0.000    0.000    0.000    0.000    0.000 
#
# Total GULP energy -545236.663975 kJ/mol
# GULP energy per Si atom -12391.742363 kJ/mol
# Density = 2.042711 g / cm^3
# Si number density = 20.473710 Si / 1000 Ang^3
#
#
#
# Elastic Constant Matrix: (Units=GPa)
#
#
# Indices 1 2 3 4 5 6 
#
# 1 51.1327 8.7812 37.2095 0.0000 0.0000 0.0000
# 2 8.7812 74.9857 31.0283 0.0000 0.0000 0.0000
# 3 37.2095 31.0283 178.2801 0.0000 0.0000 0.0000
# 4 0.0000 0.0000 0.0000 26.3727 0.0000 0.0000
# 5 0.0000 0.0000 0.0000 0.0000 30.8925 0.0000
# 6 0.0000 0.0000 0.0000 0.0000 0.0000 20.3618
#
#
#
# Elastic Compliance Matrix: (Units=1/GPa)
#
#
# Indices 1 2 3 4 5 6 
#
# 1 0.023100 -0.000765 -0.004688 0.000000 0.000000 0.000000
# 2 -0.000765 0.014396 -0.002346 0.000000 0.000000 0.000000
# 3 -0.004688 -0.002346 0.006996 0.000000 0.000000 0.000000
# 4 0.000000 0.000000 0.000000 0.037918 0.000000 0.000000
# 5 0.000000 0.000000 0.000000 0.000000 0.032370 0.000000
# 6 0.000000 0.000000 0.000000 0.000000 0.000000 0.049112
#
#
# Mechanical properties :
#
#
# Convention : Reuss Voigt Hill
#
# Bulk Modulus (GPa) = 34.60964 50.93738 42.77351
# Shear Modulus (GPa) = 26.43804 30.68403 28.56103
#
# Velocity S-wave (km/s) = 3.59739 3.87551 3.73904
# Velocity P-wave (km/s) = 5.84774 6.70519 6.29109
#
# Compressibility (1/GPa) = 0.02889369
#
# Stress axis : x y z
#
# Youngs Moduli (GPa) = 43.29020 69.46294 142.94108
#
# Poissons Ratio (x) = 0.05316 0.67012
# Poissons Ratio (y) = 0.03313 0.33532
# Poissons Ratio (z) = 0.20295 0.16295
#
# Static dielectric constant tensor:
#      x y z
#    x 3.432270 0.000000 0.000000 
#    y 0.000000 3.811920 0.000000 
#    z 0.000000 0.000000 4.379300 
# 
# 
# High freq. dielectric constant tensor:
#      x y z
#    x 1.769010 0.000000 0.000000 
#    y 0.000000 1.802210 0.000000 
#    z 0.000000 0.000000 1.823610 
# 
# From -- ./inp_files/11904.got.cif
#   From: 2010.03.12/outbox.cif.g09.slc.cpg/sg73_6_cif.got.tgz:11904.got - 2010.04.16 15:25:48.
