data_PCOD8295152
_publ_section_title
;
Structure prediction by ZEFSAII (Michael W. Deem and Ramdas Pophale) SiO2 
 PCOD8295152
Probable space group: I B A M
;
_chemical_formula_sum "Si O2"
_cell_formula_units_Z 112
_cell_length_a 28.253734
_cell_length_b 11.794467
_cell_length_c 16.855837
_cell_angle_alpha 90.000000
_cell_angle_beta 90.000000
_cell_angle_gamma 90.000000
_cell_volume 5617.000915
_symmetry_space_group_name_H-M "I B A M"
_symmetry_group_IT_number 72
_symmetry_cell_setting 'orthorhombic'
loop_
_space_group_symop_operation_xyz
x,y,z
-x,-y,z
x,-y,1/2-z
-x,y,1/2-z
-x,-y,-z
x,y,-z
-x,y,1/2+z
x,-y,1/2+z
1/2+x,1/2+y,1/2+z
1/2-x,1/2-y,1/2+z
1/2+x,1/2-y,-z
1/2-x,1/2+y,-z
1/2-x,1/2-y,1/2-z
1/2+x,1/2+y,1/2-z
1/2-x,1/2+y,z
1/2+x,1/2-y,z
loop_
_atom_site_type_symbol
_atom_site_label
_atom_site_fract_x
_atom_site_fract_y
_atom_site_fract_z
Si Si1 0.394399 0.190870 0.591097
Si Si2 0.830876 0.127847 0.657757
Si Si3 0.654315 0.980408 0.842706
Si Si4 0.838805 0.133242 0.156220
Si Si5 0.493682 0.128407 0.657022
Si Si6 0.912632 0.706005 0.592837
Si Si7 0.230799 0.317801 0.406455
O O1 0.407779 0.178286 0.500000
O O2 0.373029 0.314064 0.608800
O O3 0.354788 0.099476 0.615017
O O4 0.441784 0.174466 0.640673
O O5 0.839841 0.149725 0.749905
O O6 0.781130 0.183705 0.635833
O O7 0.831396 0.996751 0.633188
O O8 0.661080 0.000000 0.750000
O O9 0.610107 0.897387 0.857811
O O10 0.702023 0.928211 0.878463
O O11 0.888710 0.176460 0.120480
O O12 0.796043 0.203501 0.118071
O O13 0.500000 0.135790 0.750000
O O14 0.531667 0.208212 0.612159
O O15 0.500000 0.000000 0.625724
O O16 0.903161 0.686759 0.500000
O O17 0.237822 0.321708 0.500000
#
# Coordination Sequence:
#
# PCOD8295152 Si02
#       7
#    16  16  16  16  16  16  16
#     4  12  24  38  60  96 133 160 201 265 320 366
#     4  11  25  42  65  90 123 167 212 262 316 373
#     4  11  22  37  61  89 127 164 209 254 309 375
#     4  10  23  44  66  86 122 166 217 257 308 380
#     4  11  22  38  65  95 130 168 207 255 314 378
#     4  11  22  40  65  93 126 169 211 258 317 380
#     4  11  24  40  63  91 123 165 212 261 315 376
#
# _framework density 19.939465999999999
#
# number of rings (size 3 to 8) (size 9 to 14) (size 15 to 20)
#    0.000    1.000    1.429    7.286    4.000    2.857 
#    0.000    0.714    0.000    4.286    0.000    0.000 
#    0.000    0.000    0.000    0.000    0.000    0.000 
#
# Total GULP energy -694790.415957 kJ/mol
# GULP energy per Si atom -12406.971714 kJ/mol
# Density = 1.989408 g / cm^3
# Si number density = 19.939466 Si / 1000 Ang^3
#
#
#
# Elastic Constant Matrix: (Units=GPa)
#
#
# Indices 1 2 3 4 5 6 
#
# 1 135.8489 57.5381 25.4813 0.0000 0.0000 0.0000
# 2 57.5381 104.4437 38.1109 0.0000 0.0000 0.0000
# 3 25.4813 38.1109 87.1498 0.0000 0.0000 0.0000
# 4 0.0000 0.0000 0.0000 55.5877 0.0000 0.0000
# 5 0.0000 0.0000 0.0000 0.0000 27.4446 0.0000
# 6 0.0000 0.0000 0.0000 0.0000 0.0000 22.8347
#
#
#
# Elastic Compliance Matrix: (Units=1/GPa)
#
#
# Indices 1 2 3 4 5 6 
#
# 1 0.009627 -0.005088 -0.000590 0.000000 0.000000 0.000000
# 2 -0.005088 0.014082 -0.004670 0.000000 0.000000 0.000000
# 3 -0.000590 -0.004670 0.013689 0.000000 0.000000 0.000000
# 4 0.000000 0.000000 0.000000 0.017990 0.000000 0.000000
# 5 0.000000 0.000000 0.000000 0.000000 0.036437 0.000000
# 6 0.000000 0.000000 0.000000 0.000000 0.000000 0.043793
#
#
# Mechanical properties :
#
#
# Convention : Reuss Voigt Hill
#
# Bulk Modulus (GPa) = 59.87484 63.30032 61.58758
# Shear Modulus (GPa) = 30.88688 34.92755 32.90722
#
# Velocity S-wave (km/s) = 3.94004 4.18985 4.06686
# Velocity P-wave (km/s) = 7.12686 7.43112 7.28058
#
# Compressibility (1/GPa) = 0.01670151
#
# Stress axis : x y z
#
# Youngs Moduli (GPa) = 103.87638 71.01353 73.05013
#
# Poissons Ratio (x) = 0.36134 0.04307
# Poissons Ratio (y) = 0.52855 0.34117
# Poissons Ratio (z) = 0.06125 0.33165
#
# Static dielectric constant tensor:
#      x y z
#    x 3.691110 0.000000 0.000000 
#    y 0.000000 3.502640 0.000000 
#    z 0.000000 0.000000 3.636620 
# 
# 
# High freq. dielectric constant tensor:
#      x y z
#    x 1.781710 0.000000 0.000000 
#    y 0.000000 1.769290 0.000000 
#    z 0.000000 0.000000 1.795430 
# 
# From -- ./inp_files/26366.got.cif
#   From: 2010.03.12/outbox.cif.g09.slc.cpg/sg72_14_cif.got.tgz:26366.got - 2010.04.16 14:54:00.
