data_PCOD8295715
_publ_section_title
;
Structure prediction by ZEFSAII (Michael W. Deem and Ramdas Pophale) SiO2 
 PCOD8295715
Probable space group: I B C A 
;
_chemical_formula_sum "Si O2"
_cell_formula_units_Z 72
_cell_length_a 20.499983
_cell_length_b 16.507508
_cell_length_c 10.641085
_cell_angle_alpha 90.000000
_cell_angle_beta 90.000000
_cell_angle_gamma 90.000000
_cell_volume 3600.981827
_symmetry_space_group_name_H-M "I B C A "
_symmetry_group_IT_number 73
_symmetry_cell_setting 'orthorhombic'
loop_
_space_group_symop_operation_xyz
x,y,z
-x,1/2-y,z
x,-y,1/2-z
1/2-x,y,-z
-x,-y,-z
x,1/2+y,-z
-x,y,1/2+z
1/2+x,-y,z
1/2+x,1/2+y,1/2+z
1/2-x,-y,1/2+z
1/2+x,1/2-y,-z
-x,1/2+y,1/2-z
1/2-x,1/2-y,1/2-z
1/2+x,y,1/2-z
1/2-x,1/2+y,z
x,1/2-y,1/2+z
loop_
_atom_site_type_symbol
_atom_site_label
_atom_site_fract_x
_atom_site_fract_y
_atom_site_fract_z
Si Si1 0.025251 0.160578 0.615439
Si Si2 0.435381 0.375707 0.155323
Si Si3 0.263811 0.855115 0.636890
Si Si4 0.340134 0.000000 0.750000
Si Si5 0.143496 0.730318 0.259596
O O1 0.024792 0.119257 0.476644
O O2 0.098520 0.166195 0.667809
O O3 0.000000 0.250000 0.594450
O O4 0.981287 0.114395 0.720089
O O5 0.386165 0.451893 0.151482
O O6 0.397550 0.288987 0.165042
O O7 0.250000 0.884039 0.500000
O O8 0.290618 0.935350 0.697571
O O9 0.318808 0.785668 0.639669
O O10 0.195634 0.824438 0.690034
#
# Coordination Sequence:
#
# PCOD8295715 Si02
#       5
#    16  16  16   8  16
#     4  10  19  34  59  85 109 140 186 236 282 329
#     4  10  21  37  57  83 114 147 185 231 280 332
#     4  10  20  36  57  80 113 150 187 232 281 333
#     4  10  24  38  50  78 118 154 186 226 272 332
#     4   9  19  35  59  86 106 139 190 238 283 331
#
# _framework density 19.994547000000001
#
# number of rings (size 3 to 8) (size 9 to 14) (size 15 to 20)
#    0.000    2.222    0.000    3.333    0.000    6.222 
#    0.000    3.333    0.000    0.000    0.000    0.000 
#    0.000    0.000    0.000    0.000    0.000    0.000 
#
# Total GULP energy -446069.801516 kJ/mol
# GULP energy per Si atom -12390.827820 kJ/mol
# Density = 1.994904 g / cm^3
# Si number density = 19.994547 Si / 1000 Ang^3
#
#
#
# Elastic Constant Matrix: (Units=GPa)
#
#
# Indices 1 2 3 4 5 6 
#
# 1 119.2716 37.8011 56.3517 0.0000 0.0000 0.0000
# 2 37.8011 72.7174 36.0864 0.0000 0.0000 0.0000
# 3 56.3517 36.0864 107.8912 0.0000 0.0000 0.0000
# 4 0.0000 0.0000 0.0000 3.9431 0.0000 0.0000
# 5 0.0000 0.0000 0.0000 0.0000 -6.0530 0.0000
# 6 0.0000 0.0000 0.0000 0.0000 0.0000 19.6291
#
#
#
# Elastic Compliance Matrix: (Units=1/GPa)
#
#
# Indices 1 2 3 4 5 6 
#
# 1 0.011917 -0.003724 -0.004978 0.000000 0.000000 0.000000
# 2 -0.003724 0.017653 -0.003959 0.000000 0.000000 0.000000
# 3 -0.004978 -0.003959 0.013193 0.000000 0.000000 0.000000
# 4 0.000000 0.000000 0.000000 0.253607 0.000000 0.000000
# 5 0.000000 0.000000 0.000000 0.000000 -0.165207 0.000000
# 6 0.000000 0.000000 0.000000 0.000000 0.000000 0.050945
#
#
# Mechanical properties :
#
#
# Convention : Reuss Voigt Hill
#
# Bulk Modulus (GPa) = 57.34336 62.26206 59.80271
# Shear Modulus (GPa) = 23.44735 14.81324 19.13029
#
# Velocity S-wave (km/s) = 3.42817 2.72483 3.09653
# Velocity P-wave (km/s) = 6.66420 6.41145 6.53905
#
# Compressibility (1/GPa) = 0.01743881
#
# Stress axis : x y z
#
# Youngs Moduli (GPa) = 83.91604 56.64908 75.79730
#
# Poissons Ratio (x) = 0.21097 0.37736
# Poissons Ratio (y) = 0.31251 0.30009
# Poissons Ratio (z) = 0.41777 0.22428
#
# Static dielectric constant tensor:
#      x y z
#    x 4.076070 0.000000 0.000000 
#    y 0.000000 3.607840 0.000000 
#    z 0.000000 0.000000 3.805990 
# 
# 
# High freq. dielectric constant tensor:
#      x y z
#    x 1.797480 0.000000 0.000000 
#    y 0.000000 1.763330 0.000000 
#    z 0.000000 0.000000 1.769020 
# 
# From -- ./inp_files/5366.got.cif
#   From: 2010.03.12/outbox.cif.g09.slc.cpg/sg73_3_cif.got.tgz:5366.got - 2010.04.16 15:25:48.
