data_PCOD8295462
_publ_section_title
;
Structure prediction by ZEFSAII (Michael W. Deem and Ramdas Pophale) SiO2 
 PCOD8295462
Probable space group: I B A M
;
_chemical_formula_sum "Si O2"
_cell_formula_units_Z 72
_cell_length_a 23.187725
_cell_length_b 8.817216
_cell_length_c 18.195583
_cell_angle_alpha 90.000000
_cell_angle_beta 90.000000
_cell_angle_gamma 90.000000
_cell_volume 3720.108413
_symmetry_space_group_name_H-M "I B A M"
_symmetry_group_IT_number 72
_symmetry_cell_setting 'orthorhombic'
loop_
_space_group_symop_operation_xyz
x,y,z
-x,-y,z
x,-y,1/2-z
-x,y,1/2-z
-x,-y,-z
x,y,-z
-x,y,1/2+z
x,-y,1/2+z
1/2+x,1/2+y,1/2+z
1/2-x,1/2-y,1/2+z
1/2+x,1/2-y,-z
1/2-x,1/2+y,-z
1/2-x,1/2-y,1/2-z
1/2+x,1/2+y,1/2-z
1/2-x,1/2+y,z
1/2+x,1/2-y,z
loop_
_atom_site_type_symbol
_atom_site_label
_atom_site_fract_x
_atom_site_fract_y
_atom_site_fract_z
Si Si1 0.063004 0.983507 0.369580
Si Si2 0.186790 0.017707 0.082747
Si Si3 0.437630 0.745610 0.250922
Si Si4 0.849968 0.500000 0.250000
Si Si5 0.767190 0.693698 0.830942
O O1 0.117477 0.004125 0.423122
O O2 0.073025 0.820262 0.330822
O O3 0.062685 0.109547 0.307448
O O4 0.000000 0.000000 0.410089
O O5 0.203319 0.172127 0.123988
O O6 0.212534 0.872543 0.125475
O O7 0.211354 0.022730 0.000000
O O8 0.500000 0.827316 0.250000
O O9 0.389005 0.861578 0.277081
O O10 0.811701 0.553844 0.180425
O O11 0.750000 0.750000 0.750000
#
# Coordination Sequence:
#
# PCOD8295462 Si02
#       5
#    16  16  16   8  16
#     4   9  19  36  59  85 117 156 198 248 295 355
#     4  12  25  41  60  89 126 160 201 253 310 365
#     4   9  18  32  56  91 120 146 199 254 295 346
#     4  12  19  32  60  86 115 152 198 246 302 346
#     4  12  24  40  62  88 118 162 207 247 297 368
#
# _framework density 19.354275000000001
#
# number of rings (size 3 to 8) (size 9 to 14) (size 15 to 20)
#    0.000    1.333    4.444    3.667    3.111    0.444 
#    0.000    0.000    0.000    0.000    0.000    3.111 
#    0.000    0.000    0.000    0.000    0.000    0.000 
#
# Total GULP energy -446165.859116 kJ/mol
# GULP energy per Si atom -12393.496087 kJ/mol
# Density = 1.931022 g / cm^3
# Si number density = 19.354275 Si / 1000 Ang^3
#
#
#
# Elastic Constant Matrix: (Units=GPa)
#
#
# Indices 1 2 3 4 5 6 
#
# 1 144.0579 51.3025 41.5994 0.0000 0.0000 0.0000
# 2 51.3025 78.1235 31.5648 0.0000 0.0000 0.0000
# 3 41.5994 31.5648 104.0133 0.0000 0.0000 0.0000
# 4 0.0000 0.0000 0.0000 16.6561 0.0000 0.0000
# 5 0.0000 0.0000 0.0000 0.0000 16.8793 0.0000
# 6 0.0000 0.0000 0.0000 0.0000 0.0000 39.3194
#
#
#
# Elastic Compliance Matrix: (Units=1/GPa)
#
#
# Indices 1 2 3 4 5 6 
#
# 1 0.009470 -0.005344 -0.002166 0.000000 0.000000 0.000000
# 2 -0.005344 0.017604 -0.003205 0.000000 0.000000 0.000000
# 3 -0.002166 -0.003205 0.011453 0.000000 0.000000 0.000000
# 4 0.000000 0.000000 0.000000 0.060038 0.000000 0.000000
# 5 0.000000 0.000000 0.000000 0.000000 0.059244 0.000000
# 6 0.000000 0.000000 0.000000 0.000000 0.000000 0.025433
#
#
# Mechanical properties :
#
#
# Convention : Reuss Voigt Hill
#
# Bulk Modulus (GPa) = 58.48646 63.90312 61.19479
# Shear Modulus (GPa) = 23.76744 28.01947 25.89346
#
# Velocity S-wave (km/s) = 3.50811 3.80901 3.66166
# Velocity P-wave (km/s) = 6.83327 7.24113 7.04016
#
# Compressibility (1/GPa) = 0.01709797
#
# Stress axis : x y z
#
# Youngs Moduli (GPa) = 105.59493 56.80375 87.31306
#
# Poissons Ratio (x) = 0.30355 0.18911
# Poissons Ratio (y) = 0.56428 0.27985
# Poissons Ratio (z) = 0.22870 0.18207
#
# Static dielectric constant tensor:
#      x y z
#    x 4.071010 0.000000 0.000000 
#    y 0.000000 3.605320 0.000000 
#    z 0.000000 0.000000 3.294580 
# 
# 
# High freq. dielectric constant tensor:
#      x y z
#    x 1.778090 0.000000 0.000000 
#    y 0.000000 1.753010 0.000000 
#    z 0.000000 0.000000 1.712540 
# 
# From -- ./inp_files/27961.got.cif
#   From: 2010.03.12/outbox.cif.g09.slc.cpg/sg72_14_cif.got.tgz:27961.got - 2010.04.16 14:54:00.
