data_PCOD8295153
_publ_section_title
;
Structure prediction by ZEFSAII (Michael W. Deem and Ramdas Pophale) SiO2 
 PCOD8295153
Probable space group: I B A M
;
_chemical_formula_sum "Si O2"
_cell_formula_units_Z 96
_cell_length_a 9.129923
_cell_length_b 29.130379
_cell_length_c 17.085059
_cell_angle_alpha 90.000000
_cell_angle_beta 90.000000
_cell_angle_gamma 90.000000
_cell_volume 4543.910124
_symmetry_space_group_name_H-M "I B A M"
_symmetry_group_IT_number 72
_symmetry_cell_setting 'orthorhombic'
loop_
_space_group_symop_operation_xyz
x,y,z
-x,-y,z
x,-y,1/2-z
-x,y,1/2-z
-x,-y,-z
x,y,-z
-x,y,1/2+z
x,-y,1/2+z
1/2+x,1/2+y,1/2+z
1/2-x,1/2-y,1/2+z
1/2+x,1/2-y,-z
1/2-x,1/2+y,-z
1/2-x,1/2-y,1/2-z
1/2+x,1/2+y,1/2-z
1/2-x,1/2+y,z
1/2+x,1/2-y,z
loop_
_atom_site_type_symbol
_atom_site_label
_atom_site_fract_x
_atom_site_fract_y
_atom_site_fract_z
Si Si1 0.870001 0.125218 0.706487
Si Si2 0.394909 0.872378 0.814621
Si Si3 0.629525 0.472065 0.830258
Si Si4 0.403121 0.701190 0.907954
Si Si5 0.255651 0.293029 0.091586
Si Si6 0.567744 0.950536 0.089355
O O1 0.740036 0.109243 0.763588
O O2 0.944002 0.077680 0.680469
O O3 0.823975 0.157903 0.634129
O O4 0.000000 0.153242 0.750000
O O5 0.500000 0.849036 0.750000
O O6 0.337551 0.834814 0.874504
O O7 0.477525 0.914176 0.858299
O O8 0.500000 0.500000 0.875388
O O9 0.667497 0.500000 0.750000
O O10 0.768676 0.459523 0.882119
O O11 0.574139 0.705182 0.884743
O O12 0.316217 0.745878 0.878150
O O13 0.383384 0.693628 0.000000
O O14 0.235817 0.296852 0.000000
O O15 0.500000 0.000000 0.096768
O O16 0.567885 0.932597 0.000000
#
# Coordination Sequence:
#
# PCOD8295153 Si02
#       6
#    16  16  16  16  16  16
#     4  12  23  42  65  99 129 171 224 274 332 404
#     4  12  25  42  67  97 131 177 221 279 342 392
#     4  11  23  41  69  96 134 174 216 271 339 402
#     4  10  24  43  66  95 132 176 221 275 340 406
#     4  10  23  44  66  92 132 178 221 274 340 406
#     4  11  26  44  65  97 131 175 228 276 332 406
#
# _framework density 21.127178000000001
#
# number of rings (size 3 to 8) (size 9 to 14) (size 15 to 20)
#    0.000    1.000    5.000    1.500    2.333    2.333 
#    0.000    0.000    0.000    0.000    0.000    0.000 
#    0.000    0.000    0.000    0.000    0.000    0.000 
#
# Total GULP energy -594683.339121 kJ/mol
# GULP energy per Si atom -12389.236232 kJ/mol
# Density = 2.107909 g / cm^3
# Si number density = 21.127178 Si / 1000 Ang^3
#
#
#
# Elastic Constant Matrix: (Units=GPa)
#
#
# Indices 1 2 3 4 5 6 
#
# 1 132.4355 53.9892 59.4519 -0.0001 0.0000 -0.0142
# 2 53.9892 150.0112 67.0693 -0.0001 0.0000 -0.0619
# 3 59.4519 67.0693 82.5821 -0.0007 -0.0001 -0.1785
# 4 -0.0001 -0.0001 -0.0007 21.7742 0.0000 -0.0660
# 5 0.0000 0.0000 -0.0001 0.0000 36.1844 -0.0049
# 6 -0.0142 -0.0619 -0.1785 -0.0660 -0.0049-3551.9480
#
#
#
# Elastic Compliance Matrix: (Units=1/GPa)
#
#
# Indices 1 2 3 4 5 6 
#
# 1 0.011199 -0.000669 -0.007519 0.000000 0.000000 0.000000
# 2 -0.000669 0.010507 -0.008052 0.000000 0.000000 0.000000
# 3 -0.007519 -0.008052 0.024061 0.000001 0.000000 -0.000001
# 4 0.000000 0.000000 0.000001 0.045926 0.000000 -0.000001
# 5 0.000000 0.000000 0.000000 0.000000 0.027636 0.000000
# 6 0.000000 0.000000 -0.000001 -0.000001 0.000000 -0.000282
#
#
# Mechanical properties :
#
#
# Convention : Reuss Voigt Hill
#
# Bulk Modulus (GPa) = 75.25543 80.67218 77.96381
# Shear Modulus (GPa) = 32.06038 -686.49664 -327.21813
#
# Velocity S-wave (km/s) = 3.89973 -18.04552 -12.45859
# Velocity P-wave (km/s) = 7.48163 19.89776 13.03737
#
# Compressibility (1/GPa) = 0.01328808
#
# Stress axis : x y z
#
# Youngs Moduli (GPa) = 89.29474 95.17750 41.56036
#
# Poissons Ratio (x) = 0.06365 0.31250
# Poissons Ratio (y) = 0.05971 0.33463
# Poissons Ratio (z) = 0.67142 0.76633
#
# Static dielectric constant tensor:
#      x y z
#    x 4.026160 0.000000 0.000000 
#    y 0.000000 3.717240 0.000000 
#    z 0.000000 0.000000 3.878440 
# 
# 
# High freq. dielectric constant tensor:
#      x y z
#    x 1.844250 0.000000 0.000000 
#    y 0.000000 1.836790 0.000000 
#    z 0.000000 0.000000 1.821900 
# 
# From -- ./inp_files/36056.got.cif
#   From: 2010.03.12/outbox.cif.g09.slc.cpg/sg72_19_cif.got.tgz:36056.got - 2010.04.16 14:54:00.
