data_PCOD8295008
_publ_section_title
;
Structure prediction by ZEFSAII (Michael W. Deem and Ramdas Pophale) SiO2 
 PCOD8295008
Probable space group: I B A M
;
_chemical_formula_sum "Si O2"
_cell_formula_units_Z 104
_cell_length_a 27.341453
_cell_length_b 20.788256
_cell_length_c 9.041131
_cell_angle_alpha 90.000000
_cell_angle_beta 90.000000
_cell_angle_gamma 90.000000
_cell_volume 5138.808203
_symmetry_space_group_name_H-M "I B A M"
_symmetry_group_IT_number 72
_symmetry_cell_setting 'orthorhombic'
loop_
_space_group_symop_operation_xyz
x,y,z
-x,-y,z
x,-y,1/2-z
-x,y,1/2-z
-x,-y,-z
x,y,-z
-x,y,1/2+z
x,-y,1/2+z
1/2+x,1/2+y,1/2+z
1/2-x,1/2-y,1/2+z
1/2+x,1/2-y,-z
1/2-x,1/2+y,-z
1/2-x,1/2-y,1/2-z
1/2+x,1/2+y,1/2-z
1/2-x,1/2+y,z
1/2+x,1/2-y,z
loop_
_atom_site_type_symbol
_atom_site_label
_atom_site_fract_x
_atom_site_fract_y
_atom_site_fract_z
Si Si1 0.872439 0.500000 0.750000
Si Si2 0.949778 0.395586 0.330904
Si Si3 0.791623 0.592682 0.660601
Si Si4 0.450951 0.232738 0.169332
Si Si5 0.319574 0.562871 0.170756
Si Si6 0.796224 0.281780 0.673859
Si Si7 0.138642 0.813777 0.168786
O O1 0.907974 0.450302 0.666543
O O2 0.834851 0.540048 0.647506
O O3 0.962739 0.379583 0.500000
O O4 0.929369 0.331051 0.251139
O O5 0.000000 0.418610 0.250000
O O6 0.789768 0.627628 0.500000
O O7 0.738775 0.562020 0.692183
O O8 0.800951 0.642789 0.791880
O O9 0.500000 0.253807 0.250000
O O10 0.418717 0.297812 0.174356
O O11 0.460139 0.212492 0.000000
O O12 0.341062 0.500000 0.250000
O O13 0.346038 0.622537 0.247016
O O14 0.334679 0.562495 0.000000
O O15 0.793908 0.270623 0.500000
O O16 0.750000 0.250000 0.750000
O O17 0.842259 0.247965 0.744641
O O18 0.158229 0.817596 0.000000
#
# Coordination Sequence:
#
# PCOD8295008 Si02
#       7
#     8  16  16  16  16  16  16
#     4  12  25  40  60  86 122 164 215 262 306 360
#     4  11  24  41  63  88 118 160 207 259 312 368
#     4  11  24  40  58  84 119 160 207 256 306 359
#     4  10  22  41  67  96 126 159 198 255 312 370
#     4  11  23  40  62  87 122 165 206 247 299 362
#     4  12  24  38  59  86 118 158 205 257 311 365
#     4  11  23  40  64  92 124 160 202 251 309 370
#
# _framework density 20.238156
#
# number of rings (size 3 to 8) (size 9 to 14) (size 15 to 20)
#    0.000    0.923    2.308    5.769    0.000    9.846 
#    0.000    0.000    0.000    0.462    0.000    3.231 
#    0.000    0.000    0.000    0.000    0.000    0.000 
#
# Total GULP energy -644493.937506 kJ/mol
# GULP energy per Si atom -12394.114183 kJ/mol
# Density = 2.019209 g / cm^3
# Si number density = 20.238156 Si / 1000 Ang^3
#
#
#
# Elastic Constant Matrix: (Units=GPa)
#
#
# Indices 1 2 3 4 5 6 
#
# 1 93.7656 56.3053 48.3149 0.0000 0.0000 0.0000
# 2 56.3053 105.0003 63.8037 0.0000 0.0000 0.0000
# 3 48.3149 63.8037 185.6339 0.0000 0.0000 0.0000
# 4 0.0000 0.0000 0.0000 32.4219 0.0000 0.0000
# 5 0.0000 0.0000 0.0000 0.0000 6.4457 0.0000
# 6 0.0000 0.0000 0.0000 0.0000 0.0000 34.9365
#
#
#
# Elastic Compliance Matrix: (Units=1/GPa)
#
#
# Indices 1 2 3 4 5 6 
#
# 1 0.016072 -0.007681 -0.001543 0.000000 0.000000 0.000000
# 2 -0.007681 0.015709 -0.003400 0.000000 0.000000 0.000000
# 3 -0.001543 -0.003400 0.006957 0.000000 0.000000 0.000000
# 4 0.000000 0.000000 0.000000 0.030843 0.000000 0.000000
# 5 0.000000 0.000000 0.000000 0.000000 0.155142 0.000000
# 6 0.000000 0.000000 0.000000 0.000000 0.000000 0.028623
#
#
# Mechanical properties :
#
#
# Convention : Reuss Voigt Hill
#
# Bulk Modulus (GPa) = 74.12941 80.13862 77.13401
# Shear Modulus (GPa) = 17.66213 29.15924 23.41068
#
# Velocity S-wave (km/s) = 2.95738 3.79991 3.40481
# Velocity P-wave (km/s) = 6.95482 7.67699 7.32481
#
# Compressibility (1/GPa) = 0.01348992
#
# Stress axis : x y z
#
# Youngs Moduli (GPa) = 62.21866 63.65923 143.73578
#
# Poissons Ratio (x) = 0.48896 0.22181
# Poissons Ratio (y) = 0.47790 0.48871
# Poissons Ratio (z) = 0.09601 0.21645
#
# Static dielectric constant tensor:
#      x y z
#    x 3.745140 0.000000 0.000000 
#    y 0.000000 3.543320 0.000000 
#    z 0.000000 0.000000 3.879070 
# 
# 
# High freq. dielectric constant tensor:
#      x y z
#    x 1.782930 0.000000 0.000000 
#    y 0.000000 1.784070 0.000000 
#    z 0.000000 0.000000 1.805780 
# 
# From -- ./inp_files/8159.got.cif
#   From: 2010.03.12/outbox.cif.g09.slc.cpg/sg72_5_cif.got.tgz:8159.got - 2010.04.16 14:54:00.
