data_PCOD8295074
_publ_section_title
;
Structure prediction by ZEFSAII (Michael W. Deem and Ramdas Pophale) SiO2 
 PCOD8295074
Probable space group: I B A M
;
_chemical_formula_sum "Si O2"
_cell_formula_units_Z 56
_cell_length_a 11.231595
_cell_length_b 15.973432
_cell_length_c 15.527497
_cell_angle_alpha 90.000000
_cell_angle_beta 90.000000
_cell_angle_gamma 90.000000
_cell_volume 2785.743502
_symmetry_space_group_name_H-M "I B A M"
_symmetry_group_IT_number 72
_symmetry_cell_setting 'orthorhombic'
loop_
_space_group_symop_operation_xyz
x,y,z
-x,-y,z
x,-y,1/2-z
-x,y,1/2-z
-x,-y,-z
x,y,-z
-x,y,1/2+z
x,-y,1/2+z
1/2+x,1/2+y,1/2+z
1/2-x,1/2-y,1/2+z
1/2+x,1/2-y,-z
1/2-x,1/2+y,-z
1/2-x,1/2-y,1/2-z
1/2+x,1/2+y,1/2-z
1/2-x,1/2+y,z
1/2+x,1/2-y,z
loop_
_atom_site_type_symbol
_atom_site_label
_atom_site_fract_x
_atom_site_fract_y
_atom_site_fract_z
Si Si1 0.988991 0.130779 0.500000
Si Si2 0.700449 0.500969 0.500000
Si Si3 0.500000 0.149410 0.250000
Si Si4 0.284386 0.937571 0.825261
Si Si5 0.077303 0.808930 0.826331
O O1 0.087965 0.059563 0.500000
O O2 0.004840 0.186413 0.584758
O O3 0.854791 0.094178 0.500000
O O4 0.780388 0.487109 0.415389
O O5 0.579939 0.090476 0.189739
O O6 0.588687 0.209167 0.306316
O O7 0.203977 0.854246 0.830543
O O8 0.240275 0.000000 0.750000
O O9 0.000000 0.852477 0.750000
#
# Coordination Sequence:
#
# PCOD8295074 Si02
#       5
#     8   8   8  16  16
#     4   9  16  35  57  93 118 151 194 266 305 362
#     4   9  20  33  60  91 119 147 209 253 313 352
#     4  10  23  38  55  84 124 158 198 240 311 376
#     4  11  21  39  61  85 119 161 201 256 302 371
#     4   9  20  35  60  84 120 153 204 251 308 363
#
# _framework density 20.102353999999998
#
# number of rings (size 3 to 8) (size 9 to 14) (size 15 to 20)
#    0.857    1.429    0.000    3.000    0.000    4.000 
#    0.000    4.286    0.000    0.000    0.000    0.000 
#    0.000    0.000    0.000    0.000    0.000    0.000 
#
# Total GULP energy -347044.172153 kJ/mol
# GULP energy per Si atom -12394.434720 kJ/mol
# Density = 2.005660 g / cm^3
# Si number density = 20.102354 Si / 1000 Ang^3
#
#
#
# Elastic Constant Matrix: (Units=GPa)
#
#
# Indices 1 2 3 4 5 6 
#
# 1 92.0967 33.4493 45.6775 0.0000 0.0000 0.0000
# 2 33.4493 65.2803 38.0355 0.0000 0.0000 0.0000
# 3 45.6775 38.0355 180.6301 0.0000 0.0000 0.0000
# 4 0.0000 0.0000 0.0000 22.1265 0.0000 0.0000
# 5 0.0000 0.0000 0.0000 0.0000 35.7140 0.0000
# 6 0.0000 0.0000 0.0000 0.0000 0.0000 37.3196
#
#
#
# Elastic Compliance Matrix: (Units=1/GPa)
#
#
# Indices 1 2 3 4 5 6 
#
# 1 0.014158 -0.005891 -0.002340 0.000000 0.000000 0.000000
# 2 -0.005891 0.019912 -0.002703 0.000000 0.000000 0.000000
# 3 -0.002340 -0.002703 0.006697 0.000000 0.000000 0.000000
# 4 0.000000 0.000000 0.000000 0.045195 0.000000 0.000000
# 5 0.000000 0.000000 0.000000 0.000000 0.028000 0.000000
# 6 0.000000 0.000000 0.000000 0.000000 0.000000 0.026796
#
#
# Mechanical properties :
#
#
# Convention : Reuss Voigt Hill
#
# Bulk Modulus (GPa) = 52.91278 63.59243 58.25261
# Shear Modulus (GPa) = 29.59865 33.75499 31.67682
#
# Velocity S-wave (km/s) = 3.84135 4.10220 3.97391
# Velocity P-wave (km/s) = 6.78627 7.35801 7.07791
#
# Compressibility (1/GPa) = 0.01889903
#
# Stress axis : x y z
#
# Youngs Moduli (GPa) = 70.62957 50.22028 149.31918
#
# Poissons Ratio (x) = 0.29587 0.34938
# Poissons Ratio (y) = 0.41611 0.40363
# Poissons Ratio (z) = 0.16526 0.13575
#
# Static dielectric constant tensor:
#      x y z
#    x 3.296390 0.000000 0.000000 
#    y 0.000000 3.466110 0.000000 
#    z 0.000000 0.000000 3.783730 
# 
# 
# High freq. dielectric constant tensor:
#      x y z
#    x 1.764170 0.000000 0.000000 
#    y 0.000000 1.772230 0.000000 
#    z 0.000000 0.000000 1.790020 
# 
# From -- ./inp_files/19657.got.cif
#   From: 2010.03.12/outbox.cif.g09.slc.cpg/sg72_10_cif.got.tgz:19657.got - 2010.04.16 14:54:00.
