data_PCOD8295770
_publ_section_title
;
Structure prediction by ZEFSAII (Michael W. Deem and Ramdas Pophale) SiO2 
 PCOD8295770
Probable space group: I B C A 
;
_chemical_formula_sum "Si O2"
_cell_formula_units_Z 120
_cell_length_a 24.952036
_cell_length_b 18.442958
_cell_length_c 14.233675
_cell_angle_alpha 90.000000
_cell_angle_beta 90.000000
_cell_angle_gamma 90.000000
_cell_volume 6550.185674
_symmetry_space_group_name_H-M "I B C A "
_symmetry_group_IT_number 73
_symmetry_cell_setting 'orthorhombic'
loop_
_space_group_symop_operation_xyz
x,y,z
-x,1/2-y,z
x,-y,1/2-z
1/2-x,y,-z
-x,-y,-z
x,1/2+y,-z
-x,y,1/2+z
1/2+x,-y,z
1/2+x,1/2+y,1/2+z
1/2-x,-y,1/2+z
1/2+x,1/2-y,-z
-x,1/2+y,1/2-z
1/2-x,1/2-y,1/2-z
1/2+x,y,1/2-z
1/2-x,1/2+y,z
x,1/2-y,1/2+z
loop_
_atom_site_type_symbol
_atom_site_label
_atom_site_fract_x
_atom_site_fract_y
_atom_site_fract_z
Si Si1 0.407175 0.828290 0.987357
Si Si2 0.906449 0.325892 0.902218
Si Si3 0.214272 0.674662 0.089474
Si Si4 0.892786 0.130798 0.194681
Si Si5 0.000633 0.567091 0.069126
Si Si6 0.710041 0.340301 0.583911
Si Si7 0.962934 0.500000 0.750000
Si Si8 0.725650 0.415189 0.266247
O O1 0.423646 0.750818 0.945241
O O2 0.448954 0.885267 0.948321
O O3 0.349884 0.854941 0.950474
O O4 0.407937 0.824103 0.101155
O O5 0.846747 0.347341 0.934710
O O6 0.908549 0.323280 0.787868
O O7 0.945285 0.386489 0.945419
O O8 0.216409 0.758328 0.121945
O O9 0.238636 0.623974 0.168922
O O10 0.250000 0.660057 0.000000
O O11 0.829630 0.114994 0.191166
O O12 0.924830 0.055358 0.193691
O O13 0.998533 0.539783 0.176364
O O14 0.000000 0.500000 0.000000
O O15 0.750000 0.355742 0.500000
O O16 0.724867 0.396452 0.665851
O O17 0.721760 0.500000 0.250000
#
# Coordination Sequence:
#
# PCOD8295770 Si02
#       8
#    16  16  16  16  16  16   8  16
#     4  11  21  40  62  89 116 155 201 249 296 350
#     4   9  22  40  61  91 113 150 209 239 287 356
#     4   9  20  39  60  85 117 157 194 241 288 347
#     4  10  19  37  66  82 116 159 200 239 283 358
#     4  11  22  40  62  85 119 157 195 248 297 357
#     4  10  20  37  59  85 117 152 193 242 293 344
#     4  10  20  40  58  86 114 156 200 236 296 360
#     4  11  21  35  57  89 119 156 196 237 288 357
#
# _framework density 18.320091000000001
#
# number of rings (size 3 to 8) (size 9 to 14) (size 15 to 20)
#    0.000    1.867    3.333    0.800    0.000    0.533 
#    6.000    1.333    0.000    0.000    0.000    0.000 
#    0.000    0.000    0.000    0.000    0.000    0.000 
#
# Total GULP energy -744112.379124 kJ/mol
# GULP energy per Si atom -12401.872985 kJ/mol
# Density = 1.827839 g / cm^3
# Si number density = 18.320091 Si / 1000 Ang^3
#
#
#
# Elastic Constant Matrix: (Units=GPa)
#
#
# Indices 1 2 3 4 5 6 
#
# 1 105.1660 52.2797 62.3323 0.0000 0.0000 0.0000
# 2 52.2797 109.1790 72.5442 0.0000 0.0000 0.0000
# 3 62.3323 72.5442 113.9117 0.0000 0.0000 0.0000
# 4 0.0000 0.0000 0.0000 31.6574 0.0000 0.0000
# 5 0.0000 0.0000 0.0000 0.0000 32.0128 0.0000
# 6 0.0000 0.0000 0.0000 0.0000 0.0000 26.8581
#
#
#
# Elastic Compliance Matrix: (Units=1/GPa)
#
#
# Indices 1 2 3 4 5 6 
#
# 1 0.014589 -0.002915 -0.006127 0.000000 0.000000 0.000000
# 2 -0.002915 0.016461 -0.008888 0.000000 0.000000 0.000000
# 3 -0.006127 -0.008888 0.017791 0.000000 0.000000 0.000000
# 4 0.000000 0.000000 0.000000 0.031588 0.000000 0.000000
# 5 0.000000 0.000000 0.000000 0.000000 0.031238 0.000000
# 6 0.000000 0.000000 0.000000 0.000000 0.000000 0.037233
#
#
# Mechanical properties :
#
#
# Convention : Reuss Voigt Hill
#
# Bulk Modulus (GPa) = 77.02900 78.06325 77.54612
# Shear Modulus (GPa) = 26.44294 27.51235 26.97765
#
# Velocity S-wave (km/s) = 3.80331 3.87946 3.84157
# Velocity P-wave (km/s) = 7.83737 7.92276 7.88018
#
# Compressibility (1/GPa) = 0.01298212
#
# Stress axis : x y z
#
# Youngs Moduli (GPa) = 68.54360 60.75112 56.20674
#
# Poissons Ratio (x) = 0.17709 0.34437
# Poissons Ratio (y) = 0.19980 0.49955
# Poissons Ratio (z) = 0.41995 0.53994
#
# Static dielectric constant tensor:
#      x y z
#    x 3.518210 0.000000 0.000000 
#    y 0.000000 3.529600 0.000000 
#    z 0.000000 0.000000 3.318980 
# 
# 
# High freq. dielectric constant tensor:
#      x y z
#    x 1.711700 0.000000 0.000000 
#    y 0.000000 1.708280 0.000000 
#    z 0.000000 0.000000 1.713410 
# 
# From -- ./inp_files/19532.got.cif
#   From: 2010.03.12/outbox.cif.g09.slc.cpg/sg73_10_cif.got.tgz:19532.got - 2010.04.16 15:25:48.
