data_PCOD8295992
_publ_section_title
;
Structure prediction by ZEFSAII (Michael W. Deem and Ramdas Pophale) SiO2 
 PCOD8295992
Probable space group: I B C A 
;
_chemical_formula_sum "Si O2"
_cell_formula_units_Z 96
_cell_length_a 18.948118
_cell_length_b 15.408404
_cell_length_c 15.689852
_cell_angle_alpha 90.000000
_cell_angle_beta 90.000000
_cell_angle_gamma 90.000000
_cell_volume 4580.813225
_symmetry_space_group_name_H-M "I B C A "
_symmetry_group_IT_number 73
_symmetry_cell_setting 'orthorhombic'
loop_
_space_group_symop_operation_xyz
x,y,z
-x,1/2-y,z
x,-y,1/2-z
1/2-x,y,-z
-x,-y,-z
x,1/2+y,-z
-x,y,1/2+z
1/2+x,-y,z
1/2+x,1/2+y,1/2+z
1/2-x,-y,1/2+z
1/2+x,1/2-y,-z
-x,1/2+y,1/2-z
1/2-x,1/2-y,1/2-z
1/2+x,y,1/2-z
1/2-x,1/2+y,z
x,1/2-y,1/2+z
loop_
_atom_site_type_symbol
_atom_site_label
_atom_site_fract_x
_atom_site_fract_y
_atom_site_fract_z
Si Si1 0.623182 0.835484 0.190390
Si Si2 0.280191 0.921737 0.815396
Si Si3 0.377376 0.357565 0.826880
Si Si4 0.553130 0.007750 0.574766
Si Si5 0.010999 0.153941 0.802610
Si Si6 0.678143 0.457779 0.957313
O O1 0.675789 0.842624 0.272855
O O2 0.626006 0.742177 0.143661
O O3 0.545372 0.858745 0.225815
O O4 0.645495 0.896934 0.114150
O O5 0.199114 0.898721 0.826492
O O6 0.287873 0.000000 0.750000
O O7 0.309369 0.949140 0.909276
O O8 0.432003 0.415499 0.881085
O O9 0.409125 0.352788 0.732114
O O10 0.508932 0.075546 0.631859
O O11 0.627316 0.040061 0.538419
O O12 0.500000 0.000000 0.500000
O O13 0.000000 0.250000 0.844333
O O14 0.750000 0.422317 0.000000
#
# Coordination Sequence:
#
# PCOD8295992 Si02
#       6
#    16  16  16  16  16  16
#     4  10  23  42  64  93 128 172 220 276 321 388
#     4  10  20  39  66  88 125 172 221 262 319 395
#     4  11  22  40  64  94 123 169 227 271 321 391
#     4  12  24  39  66  95 131 171 211 271 341 395
#     4  10  23  42  65  92 124 167 227 272 316 391
#     4  11  23  41  61  96 136 169 216 267 333 400
#
# _framework density 20.956976999999998
#
# number of rings (size 3 to 8) (size 9 to 14) (size 15 to 20)
#    0.000    1.333    1.667    4.000    2.333    4.000 
#    3.000    0.000    0.000    0.000    0.000    0.000 
#    0.000    0.000    0.000    0.000    0.000    0.000 
#
# Total GULP energy -594758.383771 kJ/mol
# GULP energy per Si atom -12390.799662 kJ/mol
# Density = 2.090928 g / cm^3
# Si number density = 20.956977 Si / 1000 Ang^3
#
#
#
# Elastic Constant Matrix: (Units=GPa)
#
#
# Indices 1 2 3 4 5 6 
#
# 1 96.3131 39.0493 20.4716 0.0000 0.0000 0.0000
# 2 39.0493 125.1335 54.1357 0.0000 0.0000 0.0000
# 3 20.4716 54.1357 67.4173 0.0000 0.0000 0.0000
# 4 0.0000 0.0000 0.0000 7.9501 0.0000 0.0000
# 5 0.0000 0.0000 0.0000 0.0000 39.2652 0.0000
# 6 0.0000 0.0000 0.0000 0.0000 0.0000 35.8930
#
#
#
# Elastic Compliance Matrix: (Units=1/GPa)
#
#
# Indices 1 2 3 4 5 6 
#
# 1 0.011928 -0.003303 -0.000970 0.000000 0.000000 0.000000
# 2 -0.003303 0.013160 -0.009564 0.000000 0.000000 0.000000
# 3 -0.000970 -0.009564 0.022808 0.000000 0.000000 0.000000
# 4 0.000000 0.000000 0.000000 0.125784 0.000000 0.000000
# 5 0.000000 0.000000 0.000000 0.000000 0.025468 0.000000
# 6 0.000000 0.000000 0.000000 0.000000 0.000000 0.027861
#
#
# Mechanical properties :
#
#
# Convention : Reuss Voigt Hill
#
# Bulk Modulus (GPa) = 49.45244 57.35300 53.40272
# Shear Modulus (GPa) = 19.12608 28.30216 23.71412
#
# Velocity S-wave (km/s) = 3.02426 3.67889 3.36752
# Velocity P-wave (km/s) = 5.98692 6.74330 6.37633
#
# Compressibility (1/GPa) = 0.02022145
#
# Stress axis : x y z
#
# Youngs Moduli (GPa) = 83.83634 75.98846 43.84480
#
# Poissons Ratio (x) = 0.25096 0.04253
# Poissons Ratio (y) = 0.27688 0.41935
# Poissons Ratio (z) = 0.08132 0.72679
#
# Static dielectric constant tensor:
#      x y z
#    x 3.775100 0.000000 0.000000 
#    y 0.000000 6.597150 0.000000 
#    z 0.000000 0.000000 3.773340 
# 
# 
# High freq. dielectric constant tensor:
#      x y z
#    x 1.843830 0.000000 0.000000 
#    y 0.000000 1.815300 0.000000 
#    z 0.000000 0.000000 1.811590 
# 
# From -- ./inp_files/17011.got.cif
#   From: 2010.03.12/outbox.cif.g09.slc.cpg/sg73_9_cif.got.tgz:17011.got - 2010.04.16 15:25:48.
