data_PCOD8295021
_publ_section_title
;
Structure prediction by ZEFSAII (Michael W. Deem and Ramdas Pophale) SiO2 
 PCOD8295021
Probable space group: I B A M
;
_chemical_formula_sum "Si O2"
_cell_formula_units_Z 64
_cell_length_a 12.465989
_cell_length_b 9.435798
_cell_length_c 24.437650
_cell_angle_alpha 90.000000
_cell_angle_beta 90.000000
_cell_angle_gamma 90.000000
_cell_volume 2874.516559
_symmetry_space_group_name_H-M "I B A M"
_symmetry_group_IT_number 72
_symmetry_cell_setting 'orthorhombic'
loop_
_space_group_symop_operation_xyz
x,y,z
-x,-y,z
x,-y,1/2-z
-x,y,1/2-z
-x,-y,-z
x,y,-z
-x,y,1/2+z
x,-y,1/2+z
1/2+x,1/2+y,1/2+z
1/2-x,1/2-y,1/2+z
1/2+x,1/2-y,-z
1/2-x,1/2+y,-z
1/2-x,1/2-y,1/2-z
1/2+x,1/2+y,1/2-z
1/2-x,1/2+y,z
1/2+x,1/2-y,z
loop_
_atom_site_type_symbol
_atom_site_label
_atom_site_fract_x
_atom_site_fract_y
_atom_site_fract_z
Si Si1 0.639590 0.255036 0.060968
Si Si2 0.160966 0.929618 0.195598
Si Si3 0.688150 0.151318 0.348612
Si Si4 0.000000 0.500000 0.098054
Si Si5 0.500000 0.500000 0.103578
O O1 0.736139 0.282269 0.103634
O O2 0.585079 0.098471 0.065281
O O3 0.549959 0.377126 0.066259
O O4 0.688989 0.264133 0.000000
O O5 0.184692 0.763036 0.201854
O O6 0.086438 0.930051 0.142765
O O7 0.109012 0.000000 0.250000
O O8 0.268429 0.011180 0.179894
O O9 0.568679 0.113500 0.367758
#
# Coordination Sequence:
#
# PCOD8295021 Si02
#       5
#    16  16  16   8   8
#     4  11  24  42  68  97 135 186 232 287 354 412
#     4  11  22  42  69  95 133 181 224 283 354 408
#     4  11  24  44  64 100 141 174 233 291 334 419
#     4  12  23  46  69  98 144 180 227 286 349 408
#     4  10  22  42  64  94 134 168 234 292 332 422
#
# _framework density 22.264613000000001
#
# number of rings (size 3 to 8) (size 9 to 14) (size 15 to 20)
#    0.000    1.000    5.000    1.875    0.000    2.000 
#    0.000    0.625    0.000    0.000    0.000    0.000 
#    0.000    0.000    0.000    0.000    0.000    0.000 
#
# Total GULP energy -396567.665048 kJ/mol
# GULP energy per Si atom -12392.739533 kJ/mol
# Density = 2.221394 g / cm^3
# Si number density = 22.264613 Si / 1000 Ang^3
#
#
#
# Elastic Constant Matrix: (Units=GPa)
#
#
# Indices 1 2 3 4 5 6 
#
# 1 85.9100 40.7099 16.3506 0.0000 0.0000 0.0000
# 2 40.7099 142.0165 41.3701 0.0000 0.0000 0.0000
# 3 16.3506 41.3701 93.3152 0.0000 0.0000 0.0000
# 4 0.0000 0.0000 0.0000 27.6271 0.0000 0.0000
# 5 0.0000 0.0000 0.0000 0.0000 666.7641 0.0000
# 6 0.0000 0.0000 0.0000 0.0000 0.0000 35.7648
#
#
#
# Elastic Compliance Matrix: (Units=1/GPa)
#
#
# Indices 1 2 3 4 5 6 
#
# 1 0.013515 -0.003657 -0.000747 0.000000 0.000000 0.000000
# 2 -0.003657 0.009075 -0.003383 0.000000 0.000000 0.000000
# 3 -0.000747 -0.003383 0.012347 0.000000 0.000000 0.000000
# 4 0.000000 0.000000 0.000000 0.036196 0.000000 0.000000
# 5 0.000000 0.000000 0.000000 0.000000 0.001500 0.000000
# 6 0.000000 0.000000 0.000000 0.000000 0.000000 0.027960
#
#
# Mechanical properties :
#
#
# Convention : Reuss Voigt Hill
#
# Bulk Modulus (GPa) = 51.64066 57.56697 54.60381
# Shear Modulus (GPa) = 40.77621 160.88527 100.83074
#
# Velocity S-wave (km/s) = 4.28417 8.50984 6.73690
# Velocity P-wave (km/s) = 6.90772 11.06655 9.22456
#
# Compressibility (1/GPa) = 0.01936459
#
# Stress axis : x y z
#
# Youngs Moduli (GPa) = 73.99197 110.19327 80.99217
#
# Poissons Ratio (x) = 0.40293 0.06050
# Poissons Ratio (y) = 0.27055 0.27396
# Poissons Ratio (z) = 0.05527 0.37274
#
# Static dielectric constant tensor:
#      x y z
#    x 3.918020 0.000000 0.000000 
#    y 0.000000 4.278580 0.000000 
#    z 0.000000 0.000000 3.821900 
# 
# 
# High freq. dielectric constant tensor:
#      x y z
#    x 1.871990 0.000000 0.000000 
#    y 0.000000 1.902810 0.000000 
#    z 0.000000 0.000000 1.859310 
# 
# From -- ./inp_files/43957.got.cif
#   From: 2010.03.12/outbox.cif.g09.slc.cpg/sg72_22_cif.got.tgz:43957.got - 2010.04.16 14:54:00.
