data_PCOD8295850
_publ_section_title
;
Structure prediction by ZEFSAII (Michael W. Deem and Ramdas Pophale) SiO2 
 PCOD8295850
Probable space group: I B C A 
;
_chemical_formula_sum "Si O2"
_cell_formula_units_Z 104
_cell_length_a 9.837068
_cell_length_b 23.840991
_cell_length_c 21.186374
_cell_angle_alpha 90.000000
_cell_angle_beta 90.000000
_cell_angle_gamma 90.000000
_cell_volume 4968.743889
_symmetry_space_group_name_H-M "I B C A "
_symmetry_group_IT_number 73
_symmetry_cell_setting 'orthorhombic'
loop_
_space_group_symop_operation_xyz
x,y,z
-x,1/2-y,z
x,-y,1/2-z
1/2-x,y,-z
-x,-y,-z
x,1/2+y,-z
-x,y,1/2+z
1/2+x,-y,z
1/2+x,1/2+y,1/2+z
1/2-x,-y,1/2+z
1/2+x,1/2-y,-z
-x,1/2+y,1/2-z
1/2-x,1/2-y,1/2-z
1/2+x,y,1/2-z
1/2-x,1/2+y,z
x,1/2-y,1/2+z
loop_
_atom_site_type_symbol
_atom_site_label
_atom_site_fract_x
_atom_site_fract_y
_atom_site_fract_z
Si Si1 0.628470 0.481742 0.540299
Si Si2 0.000000 0.250000 0.079065
Si Si3 0.191283 0.565046 0.857185
Si Si4 0.058059 0.642812 0.340110
Si Si5 0.654429 0.629409 0.896112
Si Si6 0.417633 0.000000 0.750000
Si Si7 0.446703 0.112933 0.202492
Si Si8 0.750000 0.712463 0.000000
O O1 0.750000 0.455082 0.500000
O O2 0.500000 0.500000 0.500000
O O3 0.697703 0.535030 0.575038
O O4 0.585569 0.429951 0.584482
O O5 0.002078 0.302184 0.125959
O O6 0.138597 0.249431 0.036828
O O7 0.186956 0.516950 0.804589
O O8 0.313856 0.607550 0.842139
O O9 0.048159 0.595094 0.854469
O O10 0.195186 0.620227 0.370719
O O11 0.080814 0.650836 0.264754
O O12 0.558070 0.647899 0.837935
O O13 0.658976 0.674691 0.952473
O O14 0.508602 0.051131 0.724690
#
# Coordination Sequence:
#
# PCOD8295850 Si02
#       8
#    16   8  16  16  16   8  16   8
#     4  12  24  37  57  90 131 177 215 250 306 381
#     4  10  24  48  72  94 118 172 218 282 332 386
#     4  11  23  37  59  96 129 168 211 262 307 395
#     4  10  23  43  66  92 126 163 214 275 335 382
#     4  11  22  42  64  90 131 172 207 260 327 389
#     4  10  20  34  60  84 134 172 210 246 320 382
#     4  11  22  37  62  96 129 168 212 262 322 390
#     4  10  24  46  74  88 126 172 222 270 332 396
#
# _framework density 20.930844
#
# number of rings (size 3 to 8) (size 9 to 14) (size 15 to 20)
#    0.000    1.231    2.308    4.154    6.462    1.231 
#    1.385    7.692    0.000    0.000    0.000    0.000 
#    0.000    0.000    0.000    0.000    0.000    0.000 
#
# Total GULP energy -644641.892662 kJ/mol
# GULP energy per Si atom -12396.959474 kJ/mol
# Density = 2.088320 g / cm^3
# Si number density = 20.930844 Si / 1000 Ang^3
#
#
#
# Elastic Constant Matrix: (Units=GPa)
#
#
# Indices 1 2 3 4 5 6 
#
# 1 113.1993 34.1150 51.4411 0.0000 0.0000 0.0000
# 2 34.1150 65.2354 50.1749 0.0000 0.0000 0.0000
# 3 51.4411 50.1749 128.4946 0.0000 0.0000 0.0000
# 4 0.0000 0.0000 0.0000 34.7782 0.0000 0.0000
# 5 0.0000 0.0000 0.0000 0.0000 41.2209 0.0000
# 6 0.0000 0.0000 0.0000 0.0000 0.0000 27.2588
#
#
#
# Elastic Compliance Matrix: (Units=1/GPa)
#
#
# Indices 1 2 3 4 5 6 
#
# 1 0.011326 -0.003481 -0.003175 0.000000 0.000000 0.000000
# 2 -0.003481 0.022979 -0.007579 0.000000 0.000000 0.000000
# 3 -0.003175 -0.007579 0.012013 0.000000 0.000000 0.000000
# 4 0.000000 0.000000 0.000000 0.028754 0.000000 0.000000
# 5 0.000000 0.000000 0.000000 0.000000 0.024260 0.000000
# 6 0.000000 0.000000 0.000000 0.000000 0.000000 0.036685
#
#
# Mechanical properties :
#
#
# Convention : Reuss Voigt Hill
#
# Bulk Modulus (GPa) = 56.03022 64.26571 60.14797
# Shear Modulus (GPa) = 29.33654 32.06481 30.70067
#
# Velocity S-wave (km/s) = 3.74785 3.91825 3.83399
# Velocity P-wave (km/s) = 6.74950 7.15826 6.95689
#
# Compressibility (1/GPa) = 0.01784751
#
# Stress axis : x y z
#
# Youngs Moduli (GPa) = 88.29407 43.51796 83.24275
#
# Poissons Ratio (x) = 0.15148 0.26429
# Poissons Ratio (y) = 0.30735 0.63093
# Poissons Ratio (z) = 0.28032 0.32984
#
# Static dielectric constant tensor:
#      x y z
#    x 4.002800 0.000000 0.000000 
#    y 0.000000 3.550710 0.000000 
#    z 0.000000 0.000000 4.634480 
# 
# 
# High freq. dielectric constant tensor:
#      x y z
#    x 1.827290 0.000000 0.000000 
#    y 0.000000 1.785540 0.000000 
#    z 0.000000 0.000000 1.842130 
# 
# From -- ./inp_files/24996.got.cif
#   From: 2010.03.12/outbox.cif.g09.slc.cpg/sg73_13_cif.got.tgz:24996.got - 2010.04.16 15:25:48.
