data_PCOD8295252
_publ_section_title
;
Structure prediction by ZEFSAII (Michael W. Deem and Ramdas Pophale) SiO2 
 PCOD8295252
Probable space group: I B A M
;
_chemical_formula_sum "Si O2"
_cell_formula_units_Z 80
_cell_length_a 15.553993
_cell_length_b 9.486347
_cell_length_c 24.862103
_cell_angle_alpha 90.000000
_cell_angle_beta 90.000000
_cell_angle_gamma 90.000000
_cell_volume 3668.417589
_symmetry_space_group_name_H-M "I B A M"
_symmetry_group_IT_number 72
_symmetry_cell_setting 'orthorhombic'
loop_
_space_group_symop_operation_xyz
x,y,z
-x,-y,z
x,-y,1/2-z
-x,y,1/2-z
-x,-y,-z
x,y,-z
-x,y,1/2+z
x,-y,1/2+z
1/2+x,1/2+y,1/2+z
1/2-x,1/2-y,1/2+z
1/2+x,1/2-y,-z
1/2-x,1/2+y,-z
1/2-x,1/2-y,1/2-z
1/2+x,1/2+y,1/2-z
1/2-x,1/2+y,z
1/2+x,1/2-y,z
loop_
_atom_site_type_symbol
_atom_site_label
_atom_site_fract_x
_atom_site_fract_y
_atom_site_fract_z
Si Si1 0.281135 0.074411 0.806853
Si Si2 0.778427 0.307347 0.377065
Si Si3 0.885207 0.886236 0.439384
Si Si4 0.944551 0.818760 0.900883
Si Si5 0.971293 0.347402 0.809789
O O1 0.214678 0.193647 0.827702
O O2 0.368960 0.161665 0.806215
O O3 0.256675 0.000000 0.750000
O O4 0.286239 0.961261 0.853598
O O5 0.691871 0.295531 0.412898
O O6 0.863073 0.281835 0.414125
O O7 0.858724 0.928951 0.500000
O O8 0.974944 0.797325 0.441928
O O9 0.907046 0.022224 0.402842
O O10 0.986139 0.779263 0.843195
O O11 0.000000 0.500000 0.832814
O O12 0.000000 0.325634 0.750000
#
# Coordination Sequence:
#
# PCOD8295252 Si02
#       5
#    16  16  16  16  16
#     4  12  23  41  65 100 140 176 217 268 332 400
#     4  12  24  42  70 101 134 177 224 275 332 404
#     4  11  26  46  67  94 131 175 227 288 344 392
#     4  11  22  43  68  94 134 176 222 278 342 403
#     4  11  20  37  66  95 131 178 215 269 333 394
#
# _framework density 21.807769
#
# number of rings (size 3 to 8) (size 9 to 14) (size 15 to 20)
#    0.000    0.600    8.000    1.800    0.000    1.600 
#    0.000    2.000    0.000    3.600    0.000    0.000 
#    0.000    0.000    0.000    0.000    0.000    0.000 
#
# Total GULP energy -495591.468884 kJ/mol
# GULP energy per Si atom -12389.786722 kJ/mol
# Density = 2.175813 g / cm^3
# Si number density = 21.807769 Si / 1000 Ang^3
#
#
#
# Elastic Constant Matrix: (Units=GPa)
#
#
# Indices 1 2 3 4 5 6 
#
# 1 124.9687 21.5256 37.9853 0.0000 0.0000 0.0000
# 2 21.5256 75.2408 49.4296 0.0000 0.0000 0.0000
# 3 37.9853 49.4296 95.3780 0.0000 0.0000 0.0000
# 4 0.0000 0.0000 0.0000 10.8507 0.0000 0.0000
# 5 0.0000 0.0000 0.0000 0.0000 17.1402 0.0000
# 6 0.0000 0.0000 0.0000 0.0000 0.0000 29.9295
#
#
#
# Elastic Compliance Matrix: (Units=1/GPa)
#
#
# Indices 1 2 3 4 5 6 
#
# 1 0.009110 -0.000338 -0.003453 0.000000 0.000000 0.000000
# 2 -0.000338 0.020164 -0.010316 0.000000 0.000000 0.000000
# 3 -0.003453 -0.010316 0.017206 0.000000 0.000000 0.000000
# 4 0.000000 0.000000 0.000000 0.092160 0.000000 0.000000
# 5 0.000000 0.000000 0.000000 0.000000 0.058342 0.000000
# 6 0.000000 0.000000 0.000000 0.000000 0.000000 0.033412
#
#
# Mechanical properties :
#
#
# Convention : Reuss Voigt Hill
#
# Bulk Modulus (GPa) = 54.74322 57.05204 55.89763
# Shear Modulus (GPa) = 18.88961 24.02720 21.45841
#
# Velocity S-wave (km/s) = 2.94630 3.32290 3.14025
# Velocity P-wave (km/s) = 6.06064 6.39846 6.23184
#
# Compressibility (1/GPa) = 0.01826710
#
# Stress axis : x y z
#
# Youngs Moduli (GPa) = 109.77248 49.59311 58.11992
#
# Poissons Ratio (x) = 0.01675 0.20069
# Poissons Ratio (y) = 0.03707 0.59954
# Poissons Ratio (z) = 0.37905 0.51158
#
# Static dielectric constant tensor:
#      x y z
#    x 2.922580 0.000000 0.000000 
#    y 0.000000 4.008980 0.000000 
#    z 0.000000 0.000000 5.608870 
# 
# 
# High freq. dielectric constant tensor:
#      x y z
#    x 1.882060 0.000000 0.000000 
#    y 0.000000 1.842860 0.000000 
#    z 0.000000 0.000000 1.831680 
# 
# From -- ./inp_files/48942.got.cif
#   From: 2010.03.12/outbox.cif.g09.slc.cpg/sg72_25_cif.got.tgz:48942.got - 2010.04.16 14:54:00.
