data_PCOD8295122
_publ_section_title
;
Structure prediction by ZEFSAII (Michael W. Deem and Ramdas Pophale) SiO2 
 PCOD8295122
Probable space group: I B A M
;
_chemical_formula_sum "Si O2"
_cell_formula_units_Z 96
_cell_length_a 21.828147
_cell_length_b 14.054349
_cell_length_c 13.727787
_cell_angle_alpha 90.000000
_cell_angle_beta 90.000000
_cell_angle_gamma 90.000000
_cell_volume 4211.415932
_symmetry_space_group_name_H-M "I B A M"
_symmetry_group_IT_number 72
_symmetry_cell_setting 'orthorhombic'
loop_
_space_group_symop_operation_xyz
x,y,z
-x,-y,z
x,-y,1/2-z
-x,y,1/2-z
-x,-y,-z
x,y,-z
-x,y,1/2+z
x,-y,1/2+z
1/2+x,1/2+y,1/2+z
1/2-x,1/2-y,1/2+z
1/2+x,1/2-y,-z
1/2-x,1/2+y,-z
1/2-x,1/2-y,1/2-z
1/2+x,1/2+y,1/2-z
1/2-x,1/2+y,z
1/2+x,1/2-y,z
loop_
_atom_site_type_symbol
_atom_site_label
_atom_site_fract_x
_atom_site_fract_y
_atom_site_fract_z
Si Si1 0.962315 0.639258 0.384116
Si Si2 0.566611 0.329676 0.276207
Si Si3 0.089745 0.441184 0.116261
Si Si4 0.213743 0.650516 0.387228
Si Si5 0.655976 0.659579 0.389054
Si Si6 0.834844 0.944181 0.385781
O O1 0.960705 0.647348 0.500000
O O2 0.935232 0.734915 0.340157
O O3 0.919780 0.550532 0.349625
O O4 0.032076 0.622257 0.346089
O O5 0.500000 0.370397 0.250000
O O6 0.598772 0.306516 0.174163
O O7 0.603072 0.411205 0.334144
O O8 0.153673 0.400471 0.158873
O O9 0.089270 0.436096 0.000000
O O10 0.215887 0.621617 0.500000
O O11 0.210983 0.764799 0.372949
O O12 0.277371 0.614158 0.340490
O O13 0.632689 0.663683 0.500000
O O14 0.678457 0.554356 0.360930
O O15 0.843062 0.926711 0.500000
#
# Coordination Sequence:
#
# PCOD8295122 Si02
#       6
#    16  16  16  16  16  16
#     4   9  18  35  61  94 130 161 198 250 304 361
#     4  12  25  40  60  88 120 159 206 254 300 354
#     4   8  15  32  61  95 128 162 196 239 303 373
#     4   9  18  37  65  91 119 157 196 239 301 370
#     4  10  23  43  63  86 119 158 199 246 300 358
#     4  10  23  42  64  91 121 153 196 250 304 364
#
# _framework density 22.795183000000002
#
# number of rings (size 3 to 8) (size 9 to 14) (size 15 to 20)
#    0.000    2.333    0.000    3.000    0.000    6.000 
#    0.000   14.167    0.000    0.000    0.000    2.333 
#    0.000    0.000    0.000    0.000    0.000    0.000 
#
# Total GULP energy -595219.381893 kJ/mol
# GULP energy per Si atom -12400.403789 kJ/mol
# Density = 2.274330 g / cm^3
# Si number density = 22.795183 Si / 1000 Ang^3
#
#
#
# Elastic Constant Matrix: (Units=GPa)
#
#
# Indices 1 2 3 4 5 6 
#
# 1 154.2645 89.1915 39.5529 0.0000 0.0000 0.0000
# 2 89.1915 163.2543 49.2408 0.0000 0.0000 0.0000
# 3 39.5529 49.2408 35.8280 0.0000 0.0000 0.0000
# 4 0.0000 0.0000 0.0000 32.5319 0.0000 0.0000
# 5 0.0000 0.0000 0.0000 0.0000 28.4411 0.0000
# 6 0.0000 0.0000 0.0000 0.0000 0.0000 33.8512
#
#
#
# Elastic Compliance Matrix: (Units=1/GPa)
#
#
# Indices 1 2 3 4 5 6 
#
# 1 0.010214 -0.003722 -0.006160 0.000000 0.000000 0.000000
# 2 -0.003722 0.011819 -0.012134 0.000000 0.000000 0.000000
# 3 -0.006160 -0.012134 0.051389 0.000000 0.000000 0.000000
# 4 0.000000 0.000000 0.000000 0.030739 0.000000 0.000000
# 5 0.000000 0.000000 0.000000 0.000000 0.035160 0.000000
# 6 0.000000 0.000000 0.000000 0.000000 0.000000 0.029541
#
#
# Mechanical properties :
#
#
# Convention : Reuss Voigt Hill
#
# Bulk Modulus (GPa) = 34.02729 78.81306 56.42017
# Shear Modulus (GPa) = 22.45258 30.65562 26.55410
#
# Velocity S-wave (km/s) = 3.14183 3.67117 3.41677
# Velocity P-wave (km/s) = 5.30295 7.25393 6.35377
#
# Compressibility (1/GPa) = 0.02938818
#
# Stress axis : x y z
#
# Youngs Moduli (GPa) = 97.90613 84.60989 19.45950
#
# Poissons Ratio (x) = 0.31493 0.11987
# Poissons Ratio (y) = 0.36442 0.23613
# Poissons Ratio (z) = 0.60311 1.02669
#
# Static dielectric constant tensor:
#      x y z
#    x 4.142770 0.000000 0.000000 
#    y 0.000000 4.131330 0.000000 
#    z 0.000000 0.000000 4.065590 
# 
# 
# High freq. dielectric constant tensor:
#      x y z
#    x 1.884250 0.000000 0.000000 
#    y 0.000000 1.906240 0.000000 
#    z 0.000000 0.000000 1.904170 
# 
# From -- ./inp_files/24109.got.cif
#   From: 2010.03.12/outbox.cif.g09.slc.cpg/sg72_13_cif.got.tgz:24109.got - 2010.04.16 14:54:00.
