data_PCOD8295520
_publ_section_title
;
Structure prediction by ZEFSAII (Michael W. Deem and Ramdas Pophale) SiO2 
 PCOD8295520
Probable space group: I B C A 
;
_chemical_formula_sum "Si O2"
_cell_formula_units_Z 88
_cell_length_a 13.917500
_cell_length_b 25.249522
_cell_length_c 10.697830
_cell_angle_alpha 90.000000
_cell_angle_beta 90.000000
_cell_angle_gamma 90.000000
_cell_volume 3759.326820
_symmetry_space_group_name_H-M "I B C A "
_symmetry_group_IT_number 73
_symmetry_cell_setting 'orthorhombic'
loop_
_space_group_symop_operation_xyz
x,y,z
-x,1/2-y,z
x,-y,1/2-z
1/2-x,y,-z
-x,-y,-z
x,1/2+y,-z
-x,y,1/2+z
1/2+x,-y,z
1/2+x,1/2+y,1/2+z
1/2-x,-y,1/2+z
1/2+x,1/2-y,-z
-x,1/2+y,1/2-z
1/2-x,1/2-y,1/2-z
1/2+x,y,1/2-z
1/2-x,1/2+y,z
x,1/2-y,1/2+z
loop_
_atom_site_type_symbol
_atom_site_label
_atom_site_fract_x
_atom_site_fract_y
_atom_site_fract_z
Si Si1 0.351268 0.971717 0.134623
Si Si2 0.835247 0.633166 0.401943
Si Si3 0.136230 0.485462 0.617780
Si Si4 0.179526 0.351938 0.208390
Si Si5 0.088952 0.789421 0.582190
Si Si6 0.250000 0.218686 0.500000
O O1 0.249026 0.001345 0.125532
O O2 0.346061 0.909962 0.160875
O O3 0.406985 0.000000 0.250000
O O4 0.406219 0.982445 0.002573
O O5 0.750000 0.629474 0.500000
O O6 0.886604 0.576606 0.397831
O O7 0.786731 0.648004 0.269245
O O8 0.911865 0.677388 0.450734
O O9 0.086293 0.500000 0.750000
O O10 0.096053 0.330357 0.301346
O O11 0.180171 0.315997 0.085691
O O12 0.185675 0.754971 0.589642
O O13 0.000000 0.750000 0.592750
#
# Coordination Sequence:
#
# PCOD8295520 Si02
#       6
#    16  16  16  16  16   8
#     4  10  16  28  53  92 135 166 214 269 348 444
#     4  10  17  34  58  90 136 173 220 280 337 424
#     4  10  16  25  51  96 144 166 212 265 351 452
#     4  11  21  37  61  98 134 173 231 289 353 433
#     4  11  25  43  64  89 130 193 245 300 357 413
#     4  12  24  40  64  94 130 174 240 304 360 424
#
# _framework density 23.408446999999999
#
# number of rings (size 3 to 8) (size 9 to 14) (size 15 to 20)
#    0.000    1.455    8.182    2.727    0.000    0.727 
#    0.000    0.000    0.000    0.000    0.000   16.545 
#    0.000    0.000    0.000    0.000    0.000    0.000 
#
# Total GULP energy -545307.862118 kJ/mol
# GULP energy per Si atom -12393.360503 kJ/mol
# Density = 2.335517 g / cm^3
# Si number density = 23.408447 Si / 1000 Ang^3
#
#
#
# Elastic Constant Matrix: (Units=GPa)
#
#
# Indices 1 2 3 4 5 6 
#
# 1 59.2698 32.7742 7.6528 0.0002 -0.0001 0.0000
# 2 32.7742 187.4847 64.9708 0.0009 -0.0001 0.0001
# 3 7.6528 64.9708 179.8353 0.0025 -0.0006 0.0000
# 4 0.0002 0.0009 0.0025 34.9652 -0.0002 0.0002
# 5 -0.0001 -0.0001 -0.0006 -0.0002 -0.2129 0.0001
# 6 0.0000 0.0001 0.0000 0.0002 0.0001 19.4151
#
#
#
# Elastic Compliance Matrix: (Units=1/GPa)
#
#
# Indices 1 2 3 4 5 6 
#
# 1 0.018708 -0.003423 0.000441 0.000000 -0.000004 0.000000
# 2 -0.003423 0.006723 -0.002283 0.000000 0.000003 0.000000
# 3 0.000441 -0.002283 0.006367 0.000000 -0.000017 0.000000
# 4 0.000000 0.000000 0.000000 0.028600 -0.000024 0.000000
# 5 -0.000004 0.000003 -0.000017 -0.000024 -4.697251 0.000015
# 6 0.000000 0.000000 0.000000 0.000000 0.000015 0.051506
#
#
# Mechanical properties :
#
#
# Convention : Reuss Voigt Hill
#
# Bulk Modulus (GPa) = 47.02222 70.82060 58.92141
# Shear Modulus (GPa) = -1.09464 32.24628 15.57582
#
# Velocity S-wave (km/s) = -0.68457 3.71556 2.58232
# Velocity P-wave (km/s) = 4.41661 6.98048 5.84096
#
# Compressibility (1/GPa) = 0.02126654
#
# Stress axis : x y z
#
# Youngs Moduli (GPa) = 53.45325 148.73385 157.06401
#
# Poissons Ratio (x) = 0.50912 -0.06919
# Poissons Ratio (y) = 0.18297 0.35863
# Poissons Ratio (z) = -0.02355 0.33961
#
# Static dielectric constant tensor:
#      x y z
#    x 3.678190 0.000000 0.000000 
#    y 0.000000 4.477550 0.000000 
#    z 0.000000 0.000000 5.539310 
# 
# 
# High freq. dielectric constant tensor:
#      x y z
#    x 1.867480 0.000000 0.000000 
#    y 0.000000 1.943330 0.000000 
#    z 0.000000 0.000000 1.943800 
# 
# From -- ./inp_files/10925.got.cif
#   From: 2010.03.12/outbox.cif.g09.slc.cpg/sg73_6_cif.got.tgz:10925.got - 2010.04.16 15:25:48.
