data_PCOD8295362
_publ_section_title
;
Structure prediction by ZEFSAII (Michael W. Deem and Ramdas Pophale) SiO2 
 PCOD8295362
Probable space group: I B A M
;
_chemical_formula_sum "Si O2"
_cell_formula_units_Z 48
_cell_length_a 10.827958
_cell_length_b 13.717283
_cell_length_c 14.035407
_cell_angle_alpha 90.000000
_cell_angle_beta 90.000000
_cell_angle_gamma 90.000000
_cell_volume 2084.681306
_symmetry_space_group_name_H-M "I B A M"
_symmetry_group_IT_number 72
_symmetry_cell_setting 'orthorhombic'
loop_
_space_group_symop_operation_xyz
x,y,z
-x,-y,z
x,-y,1/2-z
-x,y,1/2-z
-x,-y,-z
x,y,-z
-x,y,1/2+z
x,-y,1/2+z
1/2+x,1/2+y,1/2+z
1/2-x,1/2-y,1/2+z
1/2+x,1/2-y,-z
1/2-x,1/2+y,-z
1/2-x,1/2-y,1/2-z
1/2+x,1/2+y,1/2-z
1/2-x,1/2+y,z
1/2+x,1/2-y,z
loop_
_atom_site_type_symbol
_atom_site_label
_atom_site_fract_x
_atom_site_fract_y
_atom_site_fract_z
Si Si1 0.556896 0.692255 0.604653
Si Si2 0.563890 0.096793 0.848711
Si Si3 0.161645 0.897103 0.218921
O O1 0.588328 0.647306 0.500000
O O2 0.545437 0.808375 0.586854
O O3 0.426232 0.651166 0.640363
O O4 0.663424 0.669589 0.683963
O O5 0.500000 0.120349 0.750000
O O6 0.708130 0.080989 0.829342
O O7 0.500000 0.000000 0.895050
O O8 0.103891 0.000000 0.250000
#
# Coordination Sequence:
#
# PCOD8295362 Si02
#       3
#    16  16  16
#     4  11  25  42  66 100 133 169 214 266 327 386
#     4  11  22  43  70  93 125 173 221 263 322 380
#     4  11  23  43  69  94 131 174 216 266 320 384
#
# _framework density 23.025102
#
# number of rings (size 3 to 8) (size 9 to 14) (size 15 to 20)
#    0.000    1.000    6.667    3.000    0.000    4.667 
#    0.000    0.000    0.000    1.000    0.000    0.000 
#    0.000    0.000    0.000    0.000    0.000    0.000 
#
# Total GULP energy -297379.249382 kJ/mol
# GULP energy per Si atom -12390.802058 kJ/mol
# Density = 2.297270 g / cm^3
# Si number density = 23.025102 Si / 1000 Ang^3
#
#
#
# Elastic Constant Matrix: (Units=GPa)
#
#
# Indices 1 2 3 4 5 6 
#
# 1 153.4236 40.3943 18.6979 0.0000 0.0000 0.0000
# 2 40.3943 161.3285 29.0976 0.0000 0.0000 0.0000
# 3 18.6979 29.0976 126.6889 0.0000 0.0000 0.0000
# 4 0.0000 0.0000 0.0000 3.5905 0.0000 0.0000
# 5 0.0000 0.0000 0.0000 0.0000 0.9728 0.0000
# 6 0.0000 0.0000 0.0000 0.0000 0.0000 41.1444
#
#
#
# Elastic Compliance Matrix: (Units=1/GPa)
#
#
# Indices 1 2 3 4 5 6 
#
# 1 0.007031 -0.001641 -0.000661 0.000000 0.000000 0.000000
# 2 -0.001641 0.006850 -0.001331 0.000000 0.000000 0.000000
# 3 -0.000661 -0.001331 0.008297 0.000000 0.000000 0.000000
# 4 0.000000 0.000000 0.000000 0.278512 0.000000 0.000000
# 5 0.000000 0.000000 0.000000 0.000000 1.028012 0.000000
# 6 0.000000 0.000000 0.000000 0.000000 0.000000 0.024305
#
#
# Mechanical properties :
#
#
# Convention : Reuss Voigt Hill
#
# Bulk Modulus (GPa) = 67.06484 68.64672 67.85578
# Shear Modulus (GPa) = 3.66236 32.69163 18.17700
#
# Velocity S-wave (km/s) = 1.26256 3.77215 2.81275
# Velocity P-wave (km/s) = 5.59602 6.98933 6.33112
#
# Compressibility (1/GPa) = 0.01491094
#
# Stress axis : x y z
#
# Youngs Moduli (GPa) = 142.23707 145.99581 120.53196
#
# Poissons Ratio (x) = 0.23960 0.07963
# Poissons Ratio (y) = 0.23344 0.16042
# Poissons Ratio (z) = 0.09397 0.19431
#
# Static dielectric constant tensor:
#      x y z
#    x 4.037960 0.000000 0.000000 
#    y 0.000000 4.601920 0.000000 
#    z 0.000000 0.000000 3.768790 
# 
# 
# High freq. dielectric constant tensor:
#      x y z
#    x 1.903190 0.000000 0.000000 
#    y 0.000000 1.928800 0.000000 
#    z 0.000000 0.000000 1.890690 
# 
# From -- ./inp_files/19276.got.cif
#   From: 2010.03.12/outbox.cif.g09.slc.cpg/sg72_10_cif.got.tgz:19276.got - 2010.04.16 14:54:00.
