data_PCOD8295614
_publ_section_title
;
Structure prediction by ZEFSAII (Michael W. Deem and Ramdas Pophale) SiO2 
 PCOD8295614
Probable space group: I B C A 
;
_chemical_formula_sum "Si O2"
_cell_formula_units_Z 120
_cell_length_a 21.717760
_cell_length_b 14.477416
_cell_length_c 18.503753
_cell_angle_alpha 90.000000
_cell_angle_beta 90.000000
_cell_angle_gamma 90.000000
_cell_volume 5817.895360
_symmetry_space_group_name_H-M "I B C A "
_symmetry_group_IT_number 73
_symmetry_cell_setting 'orthorhombic'
loop_
_space_group_symop_operation_xyz
x,y,z
-x,1/2-y,z
x,-y,1/2-z
1/2-x,y,-z
-x,-y,-z
x,1/2+y,-z
-x,y,1/2+z
1/2+x,-y,z
1/2+x,1/2+y,1/2+z
1/2-x,-y,1/2+z
1/2+x,1/2-y,-z
-x,1/2+y,1/2-z
1/2-x,1/2-y,1/2-z
1/2+x,y,1/2-z
1/2-x,1/2+y,z
x,1/2-y,1/2+z
loop_
_atom_site_type_symbol
_atom_site_label
_atom_site_fract_x
_atom_site_fract_y
_atom_site_fract_z
Si Si1 0.730225 0.167934 0.170943
Si Si2 0.904571 0.683922 0.481405
Si Si3 0.893590 0.592845 0.338583
Si Si4 0.309824 0.656874 0.539890
Si Si5 0.405068 0.620202 0.326319
Si Si6 0.500000 0.750000 0.409906
Si Si7 0.245272 0.381468 0.676974
Si Si8 0.192023 0.950474 0.543643
O O1 0.788655 0.145016 0.122157
O O2 0.661709 0.146729 0.139172
O O3 0.731294 0.276736 0.183463
O O4 0.738976 0.095434 0.237823
O O5 0.927943 0.648735 0.402667
O O6 0.869627 0.781312 0.471406
O O7 0.960948 0.688819 0.535546
O O8 0.864889 0.610444 0.523694
O O9 0.917044 0.487630 0.341060
O O10 0.905777 0.638642 0.260308
O O11 0.821478 0.603711 0.359390
O O12 0.250000 0.700285 0.500000
O O13 0.324564 0.552909 0.515191
O O14 0.458353 0.682955 0.360552
O O15 0.293380 0.441612 0.630067
O O16 0.250000 0.910901 0.500000
#
# Coordination Sequence:
#
# PCOD8295614 Si02
#       8
#    16  16  16  16  16   8  16  16
#     4  10  19  34  63  94 132 159 206 246 311 388
#     4  12  25  42  61  94 122 167 210 265 311 381
#     4  10  21  41  68  91 125 158 215 260 319 379
#     4  11  22  36  60  94 130 166 196 248 321 383
#     4  10  23  42  66  94 119 171 214 263 313 385
#     4  12  28  44  68  84 120 166 222 274 320 364
#     4  10  18  33  60  98 128 168 190 247 309 381
#     4  11  21  35  62  92 132 164 195 251 315 389
#
# _framework density 20.626017000000001
#
# number of rings (size 3 to 8) (size 9 to 14) (size 15 to 20)
#    0.000    1.333    2.667    3.600    3.733    2.667 
#    0.000    0.000    0.000    0.000    0.000    0.000 
#    0.000    0.000    0.000    0.000    0.000    0.000 
#
# Total GULP energy -743590.426799 kJ/mol
# GULP energy per Si atom -12393.173780 kJ/mol
# Density = 2.057907 g / cm^3
# Si number density = 20.626017 Si / 1000 Ang^3
#
#
#
# Elastic Constant Matrix: (Units=GPa)
#
#
# Indices 1 2 3 4 5 6 
#
# 1 86.4984 37.3505 38.2427 0.0000 0.0000 0.0000
# 2 37.3505 79.9248 24.8754 0.0000 0.0000 0.0000
# 3 38.2427 24.8754 98.2707 0.0000 0.0000 0.0000
# 4 0.0000 0.0000 0.0000 24.3214 0.0000 0.0000
# 5 0.0000 0.0000 0.0000 0.0000 30.3241 0.0000
# 6 0.0000 0.0000 0.0000 0.0000 0.0000 9.4644
#
#
#
# Elastic Compliance Matrix: (Units=1/GPa)
#
#
# Indices 1 2 3 4 5 6 
#
# 1 0.016335 -0.006139 -0.004803 0.000000 0.000000 0.000000
# 2 -0.006139 0.015889 -0.001633 0.000000 0.000000 0.000000
# 3 -0.004803 -0.001633 0.012458 0.000000 0.000000 0.000000
# 4 0.000000 0.000000 0.000000 0.041116 0.000000 0.000000
# 5 0.000000 0.000000 0.000000 0.000000 0.032977 0.000000
# 6 0.000000 0.000000 0.000000 0.000000 0.000000 0.105659
#
#
# Mechanical properties :
#
#
# Convention : Reuss Voigt Hill
#
# Bulk Modulus (GPa) = 51.19611 51.73679 51.46645
# Shear Modulus (GPa) = 19.52399 23.77033 21.64716
#
# Velocity S-wave (km/s) = 3.07998 3.39845 3.24313
# Velocity P-wave (km/s) = 6.12563 6.36687 6.24741
#
# Compressibility (1/GPa) = 0.01953273
#
# Stress axis : x y z
#
# Youngs Moduli (GPa) = 61.21735 62.93729 80.26672
#
# Poissons Ratio (x) = 0.38637 0.38552
# Poissons Ratio (y) = 0.37581 0.13107
# Poissons Ratio (z) = 0.29403 0.10277
#
# Static dielectric constant tensor:
#      x y z
#    x 3.640240 0.000000 0.000000 
#    y 0.000000 3.842130 0.000000 
#    z 0.000000 0.000000 4.119490 
# 
# 
# High freq. dielectric constant tensor:
#      x y z
#    x 1.763310 0.000000 0.000000 
#    y 0.000000 1.814770 0.000000 
#    z 0.000000 0.000000 1.828320 
# 
# From -- ./inp_files/27019.got.cif
#   From: 2010.03.12/outbox.cif.g09.slc.cpg/sg73_14_cif.got.tgz:27019.got - 2010.04.16 15:25:48.
