data_PCOD8295994
_publ_section_title
;
Structure prediction by ZEFSAII (Michael W. Deem and Ramdas Pophale) SiO2 
 PCOD8295994
Probable space group: I B C A 
;
_chemical_formula_sum "Si O2"
_cell_formula_units_Z 112
_cell_length_a 10.557905
_cell_length_b 24.397239
_cell_length_c 20.993686
_cell_angle_alpha 90.000000
_cell_angle_beta 90.000000
_cell_angle_gamma 90.000000
_cell_volume 5407.631980
_symmetry_space_group_name_H-M "I B C A "
_symmetry_group_IT_number 73
_symmetry_cell_setting 'orthorhombic'
loop_
_space_group_symop_operation_xyz
x,y,z
-x,1/2-y,z
x,-y,1/2-z
1/2-x,y,-z
-x,-y,-z
x,1/2+y,-z
-x,y,1/2+z
1/2+x,-y,z
1/2+x,1/2+y,1/2+z
1/2-x,-y,1/2+z
1/2+x,1/2-y,-z
-x,1/2+y,1/2-z
1/2-x,1/2-y,1/2-z
1/2+x,y,1/2-z
1/2-x,1/2+y,z
x,1/2-y,1/2+z
loop_
_atom_site_type_symbol
_atom_site_label
_atom_site_fract_x
_atom_site_fract_y
_atom_site_fract_z
Si Si1 0.644536 0.660104 0.075130
Si Si2 0.065551 0.405015 0.860250
Si Si3 0.666047 0.536207 0.312735
Si Si4 0.426704 0.693937 0.441196
Si Si5 0.788636 0.631659 0.251208
Si Si6 0.456807 0.688805 0.709552
Si Si7 0.741402 0.537812 0.070274
O O1 0.776945 0.694058 0.076410
O O2 0.562226 0.676001 0.135780
O O3 0.663982 0.594914 0.067641
O O4 0.559356 0.679433 0.015427
O O5 0.007501 0.352093 0.896294
O O6 0.195711 0.391135 0.820975
O O7 0.112984 0.449475 0.911586
O O8 0.967289 0.432815 0.813097
O O9 0.666930 0.500000 0.250000
O O10 0.770518 0.583415 0.302861
O O11 0.683251 0.504559 0.378934
O O12 0.500000 0.750000 0.425298
O O13 0.669873 0.673917 0.250290
O O14 0.924969 0.655384 0.265498
O O15 0.500000 0.750000 0.721934
O O16 0.750000 0.510662 0.000000
#
# Coordination Sequence:
#
# PCOD8295994 Si02
#       7
#    16  16  16  16  16  16  16
#     4  10  20  43  65  99 133 173 228 283 346 419
#     4  11  23  42  66  98 136 176 234 285 337 421
#     4  12  26  42  70 102 136 187 234 287 357 416
#     4  10  20  39  71  94 133 181 221 277 350 415
#     4  12  25  46  66 102 140 176 234 289 345 420
#     4  12  25  44  71  98 135 184 228 286 351 417
#     4  11  22  44  70  96 139 187 231 287 356 410
#
# _framework density 20.711468
#
# number of rings (size 3 to 8) (size 9 to 14) (size 15 to 20)
#    0.000    0.857    8.571    0.857    2.000    2.286 
#    2.571    0.000    0.000    0.000    0.000    0.000 
#    0.000    0.000    0.000    0.000    0.000    0.000 
#
# Total GULP energy -694077.431666 kJ/mol
# GULP energy per Si atom -12394.239851 kJ/mol
# Density = 2.066433 g / cm^3
# Si number density = 20.711468 Si / 1000 Ang^3
#
#
#
# Elastic Constant Matrix: (Units=GPa)
#
#
# Indices 1 2 3 4 5 6 
#
# 1 92.3696 36.9817 37.4169 0.0000 0.0000 0.0000
# 2 36.9817 95.9165 40.2979 0.0000 0.0000 0.0000
# 3 37.4169 40.2979 109.9879 0.0001 0.0000 0.0000
# 4 0.0000 0.0000 0.0001 39.2326 0.0000 0.0000
# 5 0.0000 0.0000 0.0000 0.0000 26.5442 0.0000
# 6 0.0000 0.0000 0.0000 0.0000 0.0000 8.9769
#
#
#
# Elastic Compliance Matrix: (Units=1/GPa)
#
#
# Indices 1 2 3 4 5 6 
#
# 1 0.013705 -0.003930 -0.003222 0.000000 0.000000 0.000000
# 2 -0.003930 0.013450 -0.003591 0.000000 0.000000 0.000000
# 3 -0.003222 -0.003591 0.011504 0.000000 0.000000 0.000000
# 4 0.000000 0.000000 0.000000 0.025489 0.000000 0.000000
# 5 0.000000 0.000000 0.000000 0.000000 0.037673 0.000000
# 6 0.000000 0.000000 0.000000 0.000000 0.000000 0.111397
#
#
# Mechanical properties :
#
#
# Convention : Reuss Voigt Hill
#
# Bulk Modulus (GPa) = 58.23535 58.62967 58.43251
# Shear Modulus (GPa) = 20.79631 27.18925 23.99278
#
# Velocity S-wave (km/s) = 3.17219 3.62714 3.40726
# Velocity P-wave (km/s) = 6.44946 6.77575 6.61462
#
# Compressibility (1/GPa) = 0.01717170
#
# Stress axis : x y z
#
# Youngs Moduli (GPa) = 72.96664 74.35124 86.92867
#
# Poissons Ratio (x) = 0.29222 0.28011
# Poissons Ratio (y) = 0.28678 0.31214
# Poissons Ratio (z) = 0.23512 0.26697
#
# Static dielectric constant tensor:
#      x y z
#    x 3.572790 0.000000 0.000000 
#    y 0.000000 3.853920 0.000000 
#    z 0.000000 0.000000 4.044620 
# 
# 
# High freq. dielectric constant tensor:
#      x y z
#    x 1.795220 0.000000 0.000000 
#    y 0.000000 1.805860 0.000000 
#    z 0.000000 0.000000 1.828320 
# 
# From -- ./inp_files/25563.got.cif
#   From: 2010.03.12/outbox.cif.g09.slc.cpg/sg73_13_cif.got.tgz:25563.got - 2010.04.16 15:25:48.
