data_PCOD8295453
_publ_section_title
;
Structure prediction by ZEFSAII (Michael W. Deem and Ramdas Pophale) SiO2 
 PCOD8295453
Probable space group: I B A M
;
_chemical_formula_sum "Si O2"
_cell_formula_units_Z 72
_cell_length_a 25.299251
_cell_length_b 8.485253
_cell_length_c 14.389282
_cell_angle_alpha 90.000000
_cell_angle_beta 90.000000
_cell_angle_gamma 90.000000
_cell_volume 3088.955016
_symmetry_space_group_name_H-M "I B A M"
_symmetry_group_IT_number 72
_symmetry_cell_setting 'orthorhombic'
loop_
_space_group_symop_operation_xyz
x,y,z
-x,-y,z
x,-y,1/2-z
-x,y,1/2-z
-x,-y,-z
x,y,-z
-x,y,1/2+z
x,-y,1/2+z
1/2+x,1/2+y,1/2+z
1/2-x,1/2-y,1/2+z
1/2+x,1/2-y,-z
1/2-x,1/2+y,-z
1/2-x,1/2-y,1/2-z
1/2+x,1/2+y,1/2-z
1/2-x,1/2+y,z
1/2+x,1/2-y,z
loop_
_atom_site_type_symbol
_atom_site_label
_atom_site_fract_x
_atom_site_fract_y
_atom_site_fract_z
Si Si1 0.201110 0.831335 0.797023
Si Si2 0.896894 0.371293 0.822504
Si Si3 0.853213 0.543956 0.000000
Si Si4 0.944530 0.942595 0.353938
Si Si5 0.228770 0.920592 0.000000
Si Si6 0.870906 0.099738 0.500000
O O1 0.250000 0.750000 0.750000
O O2 0.149349 0.729530 0.773273
O O3 0.211940 0.826811 0.907567
O O4 0.193030 0.000000 0.750000
O O5 0.919620 0.500000 0.750000
O O6 0.873792 0.457953 0.910289
O O7 0.942485 0.248673 0.854727
O O8 0.880221 0.715246 0.000000
O O9 0.789999 0.537934 0.000000
O O10 0.939825 0.000000 0.250000
O O11 0.895547 0.015313 0.409860
O O12 0.000000 0.000000 0.398575
O O13 0.192757 0.079070 0.000000
#
# Coordination Sequence:
#
# PCOD8295453 Si02
#       6
#    16  16   8  16   8   8
#     4  12  26  43  68 102 149 203 251 301 363 454
#     4  12  25  45  69 108 150 183 245 311 369 440
#     4  12  28  43  67 107 149 195 244 300 367 437
#     4  11  25  50  78 103 137 193 249 306 391 455
#     4  12  27  41  70 101 152 204 254 291 370 446
#     4  12  26  46  74 102 146 194 248 309 368 451
#
# _framework density 23.308854
#
# number of rings (size 3 to 8) (size 9 to 14) (size 15 to 20)
#    0.000    0.222    2.222    7.000    9.333    0.000 
#    0.000    8.889    0.000    0.000    0.000    0.000 
#    0.000    0.000    0.000    0.000    0.000    0.000 
#
# Total GULP energy -446499.046831 kJ/mol
# GULP energy per Si atom -12402.751301 kJ/mol
# Density = 2.325580 g / cm^3
# Si number density = 23.308854 Si / 1000 Ang^3
#
#
#
# Elastic Constant Matrix: (Units=GPa)
#
#
# Indices 1 2 3 4 5 6 
#
# 1 112.3750 61.0016 29.3280 0.0000 0.0000 0.0000
# 2 61.0016 190.8210 43.9147 0.0000 0.0000 0.0000
# 3 29.3280 43.9147 117.4253 0.0000 0.0000 0.0000
# 4 0.0000 0.0000 0.0000 44.5973 0.0000 0.0000
# 5 0.0000 0.0000 0.0000 0.0000 -7.8081 0.0000
# 6 0.0000 0.0000 0.0000 0.0000 0.0000 43.6850
#
#
#
# Elastic Compliance Matrix: (Units=1/GPa)
#
#
# Indices 1 2 3 4 5 6 
#
# 1 0.011026 -0.003163 -0.001571 0.000000 0.000000 0.000000
# 2 -0.003163 0.006642 -0.001694 0.000000 0.000000 0.000000
# 3 -0.001571 -0.001694 0.009542 0.000000 0.000000 0.000000
# 4 0.000000 0.000000 0.000000 0.022423 0.000000 0.000000
# 5 0.000000 0.000000 0.000000 0.000000 -0.128073 0.000000
# 6 0.000000 0.000000 0.000000 0.000000 0.000000 0.022891
#
#
# Mechanical properties :
#
#
# Convention : Reuss Voigt Hill
#
# Bulk Modulus (GPa) = 69.66904 76.56777 73.11840
# Shear Modulus (GPa) = -131.89292 35.18665 -48.35313
#
# Velocity S-wave (km/s) = -7.53045 3.88955 -4.55956
# Velocity P-wave (km/s) = 6.75692 7.28643 1.92822
#
# Compressibility (1/GPa) = 0.01435358
#
# Stress axis : x y z
#
# Youngs Moduli (GPa) = 90.69580 150.56765 104.80193
#
# Poissons Ratio (x) = 0.47628 0.16462
# Poissons Ratio (y) = 0.28689 0.17751
# Poissons Ratio (z) = 0.14247 0.25502
#
# Static dielectric constant tensor:
#      x y z
#    x 4.491010 0.000000 0.000000 
#    y 0.000000 4.544620 0.000000 
#    z 0.000000 0.000000 4.290300 
# 
# 
# High freq. dielectric constant tensor:
#      x y z
#    x 1.914430 0.000000 0.000000 
#    y 0.000000 1.935070 0.000000 
#    z 0.000000 0.000000 1.939980 
# 
# From -- ./inp_files/25736.got.cif
#   From: 2010.03.12/outbox.cif.g09.slc.cpg/sg72_13_cif.got.tgz:25736.got - 2010.04.16 14:54:00.
