data_PCOD8295343
_publ_section_title
;
Structure prediction by ZEFSAII (Michael W. Deem and Ramdas Pophale) SiO2 
 PCOD8295343
Probable space group: I B A M
;
_chemical_formula_sum "Si O2"
_cell_formula_units_Z 72
_cell_length_a 11.040471
_cell_length_b 15.824890
_cell_length_c 19.058698
_cell_angle_alpha 90.000000
_cell_angle_beta 90.000000
_cell_angle_gamma 90.000000
_cell_volume 3329.825920
_symmetry_space_group_name_H-M "I B A M"
_symmetry_group_IT_number 72
_symmetry_cell_setting 'orthorhombic'
loop_
_space_group_symop_operation_xyz
x,y,z
-x,-y,z
x,-y,1/2-z
-x,y,1/2-z
-x,-y,-z
x,y,-z
-x,y,1/2+z
x,-y,1/2+z
1/2+x,1/2+y,1/2+z
1/2-x,1/2-y,1/2+z
1/2+x,1/2-y,-z
1/2-x,1/2+y,-z
1/2-x,1/2-y,1/2-z
1/2+x,1/2+y,1/2-z
1/2-x,1/2+y,z
1/2+x,1/2-y,z
loop_
_atom_site_type_symbol
_atom_site_label
_atom_site_fract_x
_atom_site_fract_y
_atom_site_fract_z
Si Si1 0.483080 0.401327 0.000000
Si Si2 0.162402 0.255571 0.000000
Si Si3 0.322916 0.905023 0.776752
Si Si4 0.964986 0.403795 0.000000
Si Si5 0.438243 0.152392 0.146057
Si Si6 0.841157 0.818361 0.385151
O O1 0.500000 0.500000 0.000000
O O2 0.597693 0.336697 0.000000
O O3 0.401235 0.389125 0.932011
O O4 0.241275 0.264789 0.070954
O O5 0.073015 0.335762 0.000000
O O6 0.440227 0.894215 0.827240
O O7 0.334687 0.853709 0.704730
O O8 0.208977 0.867564 0.817581
O O9 0.305087 0.000000 0.750000
O O10 0.892130 0.388728 0.072436
O O11 0.000000 0.500000 0.000000
O O12 0.449522 0.253430 0.135845
#
# Coordination Sequence:
#
# PCOD8295343 Si02
#       6
#     8   8  16   8  16  16
#     4  11  24  44  64  97 134 176 218 275 324 384
#     4  11  22  43  65  98 133 165 224 274 324 396
#     4  11  23  40  63  96 131 167 218 273 320 396
#     4  12  20  37  66  93 127 168 210 273 339 372
#     4  11  22  40  63  93 132 166 210 273 337 379
#     4  11  22  42  67  91 131 177 218 268 332 402
#
# _framework density 21.62275
#
# number of rings (size 3 to 8) (size 9 to 14) (size 15 to 20)
#    0.000    0.889    4.444    4.000    0.000    1.778 
#    4.000    4.444    0.000    0.000    0.000    0.000 
#    0.000    0.000    0.000    0.000    0.000    0.000 
#
# Total GULP energy -446003.869154 kJ/mol
# GULP energy per Si atom -12388.996365 kJ/mol
# Density = 2.157354 g / cm^3
# Si number density = 21.622750 Si / 1000 Ang^3
#
#
#
# Elastic Constant Matrix: (Units=GPa)
#
#
# Indices 1 2 3 4 5 6 
#
# 1 55.6399 45.1316 30.3320 0.0000 0.0000 0.0000
# 2 45.1316 193.4186 59.7775 0.0000 0.0000 0.0000
# 3 30.3320 59.7775 181.7587 0.0000 0.0000 0.0000
# 4 0.0000 0.0000 0.0000 23.9273 0.0000 0.0000
# 5 0.0000 0.0000 0.0000 0.0000 12.0716 0.0000
# 6 0.0000 0.0000 0.0000 0.0000 0.0000 33.5488
#
#
#
# Elastic Compliance Matrix: (Units=1/GPa)
#
#
# Indices 1 2 3 4 5 6 
#
# 1 0.023007 -0.004655 -0.002308 0.000000 0.000000 0.000000
# 2 -0.004655 0.006697 -0.001426 0.000000 0.000000 0.000000
# 3 -0.002308 -0.001426 0.006356 0.000000 0.000000 0.000000
# 4 0.000000 0.000000 0.000000 0.041793 0.000000 0.000000
# 5 0.000000 0.000000 0.000000 0.000000 0.082839 0.000000
# 6 0.000000 0.000000 0.000000 0.000000 0.000000 0.029807
#
#
# Mechanical properties :
#
#
# Convention : Reuss Voigt Hill
#
# Bulk Modulus (GPa) = 51.86287 77.92216 64.89251
# Shear Modulus (GPa) = 23.39676 33.61462 28.50569
#
# Velocity S-wave (km/s) = 3.29301 3.94711 3.63481
# Velocity P-wave (km/s) = 6.20451 7.54243 6.90595
#
# Compressibility (1/GPa) = 0.01928162
#
# Stress axis : x y z
#
# Youngs Moduli (GPa) = 43.46508 149.32245 157.33339
#
# Poissons Ratio (x) = 0.69508 0.36320
# Poissons Ratio (y) = 0.20233 0.22431
# Poissons Ratio (z) = 0.10034 0.21289
#
# Static dielectric constant tensor:
#      x y z
#    x 3.665500 0.000000 0.000000 
#    y 0.000000 3.899450 0.000000 
#    z 0.000000 0.000000 4.957170 
# 
# 
# High freq. dielectric constant tensor:
#      x y z
#    x 1.811480 0.000000 0.000000 
#    y 0.000000 1.857040 0.000000 
#    z 0.000000 0.000000 1.877970 
# 
# From -- ./inp_files/30338.got.cif
#   From: 2010.03.12/outbox.cif.g09.slc.cpg/sg72_16_cif.got.tgz:30338.got - 2010.04.16 14:54:00.
