data_PCOD8295499
_publ_section_title
;
Structure prediction by ZEFSAII (Michael W. Deem and Ramdas Pophale) SiO2 
 PCOD8295499
Probable space group: I B A M
;
_chemical_formula_sum "Si O2"
_cell_formula_units_Z 68
_cell_length_a 20.942172
_cell_length_b 9.184948
_cell_length_c 19.790792
_cell_angle_alpha 90.000000
_cell_angle_beta 90.000000
_cell_angle_gamma 90.000000
_cell_volume 3806.813480
_symmetry_space_group_name_H-M "I B A M"
_symmetry_group_IT_number 72
_symmetry_cell_setting 'orthorhombic'
loop_
_space_group_symop_operation_xyz
x,y,z
-x,-y,z
x,-y,1/2-z
-x,y,1/2-z
-x,-y,-z
x,y,-z
-x,y,1/2+z
x,-y,1/2+z
1/2+x,1/2+y,1/2+z
1/2-x,1/2-y,1/2+z
1/2+x,1/2-y,-z
1/2-x,1/2+y,-z
1/2-x,1/2-y,1/2-z
1/2+x,1/2+y,1/2-z
1/2-x,1/2+y,z
1/2+x,1/2-y,z
loop_
_atom_site_type_symbol
_atom_site_label
_atom_site_fract_x
_atom_site_fract_y
_atom_site_fract_z
Si Si1 0.057888 0.645921 0.873683
Si Si2 0.500000 0.000000 0.750000
Si Si3 0.686649 0.179074 0.325956
Si Si4 0.687328 0.834297 0.329106
Si Si5 0.927090 0.669589 0.076010
O O1 0.046202 0.596022 0.796328
O O2 0.124473 0.734623 0.868999
O O3 0.067401 0.504988 0.920904
O O4 0.996564 0.736135 0.901137
O O5 0.676780 0.218911 0.247429
O O6 0.747685 0.261141 0.356713
O O7 0.694749 0.006779 0.335473
O O8 0.628442 0.774799 0.374044
O O9 0.911235 0.719570 0.000000
#
# Coordination Sequence:
#
# PCOD8295499 Si02
#       5
#    16   4  16  16  16
#     4   9  14  23  41  61  83 107 140 177 210 246
#     4   8  12  20  38  64  84 102 132 180 220 238
#     4   9  16  28  45  66  85 109 139 176 213 247
#     4   9  17  28  44  64  89 111 137 172 213 252
#     4   9  16  26  39  61  87 112 138 174 212 247
#
# _framework density 17.862708999999999
#
# number of rings (size 3 to 8) (size 9 to 14) (size 15 to 20)
#    0.000    3.294    0.000    5.647    0.000    0.000 
#    0.000    5.882    0.000    1.412    0.000    8.235 
#    0.000    0.000    0.000    0.000    0.000    0.000 
#
# Total GULP energy -421241.513244 kJ/mol
# GULP energy per Si atom -12389.456272 kJ/mol
# Density = 1.782205 g / cm^3
# Si number density = 17.862709 Si / 1000 Ang^3
#
#
#
# Elastic Constant Matrix: (Units=GPa)
#
#
# Indices 1 2 3 4 5 6 
#
# 1 202.5865 26.2418 51.5019 0.0000 0.0000 0.0000
# 2 26.2418 12.2704 10.2687 0.0000 0.0000 0.0000
# 3 51.5019 10.2687 76.9126 0.0000 0.0000 0.0000
# 4 0.0000 0.0000 0.0000 4.4004 0.0000 0.0000
# 5 0.0000 0.0000 0.0000 0.0000 15.9693 0.0000
# 6 0.0000 0.0000 0.0000 0.0000 0.0000 27.5929
#
#
#
# Elastic Compliance Matrix: (Units=1/GPa)
#
#
# Indices 1 2 3 4 5 6 
#
# 1 0.007480 -0.013290 -0.003234 0.000000 0.000000 0.000000
# 2 -0.013290 0.115362 -0.006503 0.000000 0.000000 0.000000
# 3 -0.003234 -0.006503 0.016036 0.000000 0.000000 0.000000
# 4 0.000000 0.000000 0.000000 0.227251 0.000000 0.000000
# 5 0.000000 0.000000 0.000000 0.000000 0.062620 0.000000
# 6 0.000000 0.000000 0.000000 0.000000 0.000000 0.036241
#
#
# Mechanical properties :
#
#
# Convention : Reuss Voigt Hill
#
# Bulk Modulus (GPa) = 10.77319 51.97714 31.37517
# Shear Modulus (GPa) = 9.22535 23.17633 16.20084
#
# Velocity S-wave (km/s) = 2.27504 3.60595 3.01485
# Velocity P-wave (km/s) = 3.59795 6.81898 5.45178
#
# Compressibility (1/GPa) = 0.09282305
#
# Stress axis : x y z
#
# Youngs Moduli (GPa) = 133.69154 8.66838 62.36085
#
# Poissons Ratio (x) = 0.11520 0.20169
# Poissons Ratio (y) = 1.77677 0.40552
# Poissons Ratio (z) = 0.43240 0.05637
#
# Static dielectric constant tensor:
#      x y z
#    x 3.913490 0.000000 0.000000 
#    y 0.000000 2.642220 0.000000 
#    z 0.000000 0.000000 3.175800 
# 
# 
# High freq. dielectric constant tensor:
#      x y z
#    x 1.721630 0.000000 0.000000 
#    y 0.000000 1.604260 0.000000 
#    z 0.000000 0.000000 1.677420 
# 
# From -- ./inp_files/33139.got.cif
#   From: 2010.03.12/outbox.cif.g09.slc.cpg/sg72_17_cif.got.tgz:33139.got - 2010.04.16 14:54:00.
