data_PCOD8295083
_publ_section_title
;
Structure prediction by ZEFSAII (Michael W. Deem and Ramdas Pophale) SiO2 
 PCOD8295083
Probable space group: I B A M
;
_chemical_formula_sum "Si O2"
_cell_formula_units_Z 112
_cell_length_a 11.030060
_cell_length_b 31.452591
_cell_length_c 14.753504
_cell_angle_alpha 90.000000
_cell_angle_beta 90.000000
_cell_angle_gamma 90.000000
_cell_volume 5118.344118
_symmetry_space_group_name_H-M "I B A M"
_symmetry_group_IT_number 72
_symmetry_cell_setting 'orthorhombic'
loop_
_space_group_symop_operation_xyz
x,y,z
-x,-y,z
x,-y,1/2-z
-x,y,1/2-z
-x,-y,-z
x,y,-z
-x,y,1/2+z
x,-y,1/2+z
1/2+x,1/2+y,1/2+z
1/2-x,1/2-y,1/2+z
1/2+x,1/2-y,-z
1/2-x,1/2+y,-z
1/2-x,1/2-y,1/2-z
1/2+x,1/2+y,1/2-z
1/2-x,1/2+y,z
1/2+x,1/2-y,z
loop_
_atom_site_type_symbol
_atom_site_label
_atom_site_fract_x
_atom_site_fract_y
_atom_site_fract_z
Si Si1 0.915909 0.884884 0.109068
Si Si2 0.804279 0.410670 0.603995
Si Si3 0.146435 0.163121 0.602640
Si Si4 0.812094 0.334205 0.101148
Si Si5 0.210363 0.952712 0.725465
Si Si6 0.578167 0.924713 0.897552
Si Si7 0.374450 0.750660 0.302413
O O1 0.818384 0.848736 0.140904
O O2 0.887018 0.929090 0.160948
O O3 0.043729 0.867595 0.146173
O O4 0.905445 0.893121 0.000000
O O5 0.771626 0.423461 0.500000
O O6 0.778629 0.359513 0.615937
O O7 0.715252 0.432093 0.675318
O O8 0.937621 0.426942 0.629289
O O9 0.106444 0.164559 0.500000
O O10 0.141842 0.211452 0.631113
O O11 0.897640 0.374791 0.106670
O O12 0.880354 0.296461 0.151558
O O13 0.792304 0.317705 0.000000
O O14 0.340524 0.951496 0.672673
O O15 0.168588 0.000000 0.750000
O O16 0.600769 0.941956 0.000000
O O17 0.500000 0.744227 0.250000
O O18 0.250000 0.750000 0.250000
#
# Coordination Sequence:
#
# PCOD8295083 Si02
#       7
#    16  16  16  16  16  16  16
#     4   9  20  42  69  92 125 177 226 269 331 401
#     4  10  23  39  59  88 126 167 209 259 323 393
#     4  10  23  44  64  85 124 178 221 268 328 392
#     4   9  19  38  61  86 119 164 210 261 319 382
#     4  11  23  38  65  96 125 162 211 273 334 397
#     4   9  20  39  63  90 123 168 212 258 322 397
#     4  12  27  38  59  99 133 168 221 280 333 391
#
# _framework density 21.882078
#
# number of rings (size 3 to 8) (size 9 to 14) (size 15 to 20)
#    0.000    2.000    0.000    3.000    8.000    2.286 
#    0.000    4.286    0.000    2.571    0.000    0.000 
#    0.000    0.000    0.000    0.000    0.000    0.000 
#
# Total GULP energy -693783.885211 kJ/mol
# GULP energy per Si atom -12388.997950 kJ/mol
# Density = 2.183227 g / cm^3
# Si number density = 21.882078 Si / 1000 Ang^3
#
#
#
# Elastic Constant Matrix: (Units=GPa)
#
#
# Indices 1 2 3 4 5 6 
#
# 1 73.2411 13.2089 16.5076 -0.0001 -0.0001 0.0001
# 2 13.2089 98.7070 20.8412 -0.0001 0.0000 0.0002
# 3 16.5076 20.8412 41.9430 -0.0011 0.0009 0.0011
# 4 -0.0001 -0.0001 -0.0011 34.2416 0.0000 0.0003
# 5 -0.0001 0.0000 0.0009 0.0000 25.1608 -0.0004
# 6 0.0001 0.0002 0.0011 0.0003 -0.0004 14.4395
#
#
#
# Elastic Compliance Matrix: (Units=1/GPa)
#
#
# Indices 1 2 3 4 5 6 
#
# 1 0.015047 -0.000853 -0.005498 0.000000 0.000000 0.000000
# 2 -0.000853 0.011367 -0.005312 0.000000 0.000000 0.000000
# 3 -0.005498 -0.005312 0.028646 0.000001 -0.000001 -0.000002
# 4 0.000000 0.000000 0.000001 0.029204 0.000000 -0.000001
# 5 0.000000 0.000000 -0.000001 0.000000 0.039744 0.000001
# 6 0.000000 0.000000 -0.000002 -0.000001 0.000001 0.069254
#
#
# Mechanical properties :
#
#
# Convention : Reuss Voigt Hill
#
# Bulk Modulus (GPa) = 31.51377 35.00072 33.25724
# Shear Modulus (GPa) = 22.01034 25.65728 23.83381
#
# Velocity S-wave (km/s) = 3.17497 3.42793 3.30387
# Velocity P-wave (km/s) = 5.27954 5.63005 5.45761
#
# Compressibility (1/GPa) = 0.03173216
#
# Stress axis : x y z
#
# Youngs Moduli (GPa) = 66.46050 87.97569 34.90942
#
# Poissons Ratio (x) = 0.07501 0.19194
# Poissons Ratio (y) = 0.05666 0.18546
# Poissons Ratio (z) = 0.36542 0.46737
#
# Static dielectric constant tensor:
#      x y z
#    x 3.887970 0.000000 0.000000 
#    y 0.000000 3.487900 0.000000 
#    z 0.000000 0.000000 4.062640 
# 
# 
# High freq. dielectric constant tensor:
#      x y z
#    x 1.860300 0.000000 0.000000 
#    y 0.000000 1.847480 0.000000 
#    z 0.000000 0.000000 1.869620 
# 
# From -- ./inp_files/20741.got.cif
#   From: 2010.03.12/outbox.cif.g09.slc.cpg/sg72_11_cif.got.tgz:20741.got - 2010.04.16 14:54:00.
