data_PCOD8295191
_publ_section_title
;
Structure prediction by ZEFSAII (Michael W. Deem and Ramdas Pophale) SiO2 
 PCOD8295191
Probable space group: I B A M
;
_chemical_formula_sum "Si O2"
_cell_formula_units_Z 56
_cell_length_a 8.465315
_cell_length_b 21.989834
_cell_length_c 14.213166
_cell_angle_alpha 90.000000
_cell_angle_beta 90.000000
_cell_angle_gamma 90.000000
_cell_volume 2645.793239
_symmetry_space_group_name_H-M "I B A M"
_symmetry_group_IT_number 72
_symmetry_cell_setting 'orthorhombic'
loop_
_space_group_symop_operation_xyz
x,y,z
-x,-y,z
x,-y,1/2-z
-x,y,1/2-z
-x,-y,-z
x,y,-z
-x,y,1/2+z
x,-y,1/2+z
1/2+x,1/2+y,1/2+z
1/2-x,1/2-y,1/2+z
1/2+x,1/2-y,-z
1/2-x,1/2+y,-z
1/2-x,1/2-y,1/2-z
1/2+x,1/2+y,1/2-z
1/2-x,1/2+y,z
1/2+x,1/2-y,z
loop_
_atom_site_type_symbol
_atom_site_label
_atom_site_fract_x
_atom_site_fract_y
_atom_site_fract_z
Si Si1 0.119103 0.091274 0.500000
Si Si2 0.726201 0.453261 0.000000
Si Si3 0.772528 0.834836 0.677740
Si Si4 0.500000 0.237306 0.750000
Si Si5 0.673153 0.061474 0.294424
O O1 0.192692 0.126386 0.586850
O O2 0.928222 0.090328 0.500000
O O3 0.178501 0.022993 0.500000
O O4 0.832436 0.440641 0.092235
O O5 0.598065 0.804955 0.677861
O O6 0.893101 0.779492 0.684689
O O7 0.783239 0.881437 0.766114
O O8 0.500000 0.069947 0.250000
O O9 0.748557 0.000000 0.250000
#
# Coordination Sequence:
#
# PCOD8295191 Si02
#       5
#     8   8  16   8  16
#     4  11  24  41  70  98 138 175 234 286 341 420
#     4  11  24  42  65 109 135 176 223 277 359 420
#     4  11  22  45  65 101 132 186 224 289 333 411
#     4  10  24  42  68  88 140 184 236 274 340 394
#     4  11  23  41  68 100 141 179 221 286 350 412
#
# _framework density 21.165673999999999
#
# number of rings (size 3 to 8) (size 9 to 14) (size 15 to 20)
#    0.000    1.143    4.286    1.714    0.000    4.571 
#    0.000    5.714    0.000    0.000    0.000    0.000 
#    0.000    0.000    0.000    0.000    0.000    0.000 
#
# Total GULP energy -347118.535471 kJ/mol
# GULP energy per Si atom -12397.090553 kJ/mol
# Density = 2.111750 g / cm^3
# Si number density = 21.165674 Si / 1000 Ang^3
#
#
#
# Elastic Constant Matrix: (Units=GPa)
#
#
# Indices 1 2 3 4 5 6 
#
# 1 116.2136 51.1686 61.1089 0.0000 0.0000 0.0000
# 2 51.1686 135.5358 56.6980 -0.0001 0.0000 0.0000
# 3 61.1089 56.6980 186.1349 -0.0002 0.0001 0.0001
# 4 0.0000 -0.0001 -0.0002 55.4448 0.0000 0.0000
# 5 0.0000 0.0000 0.0001 0.0000 28.2891 0.0000
# 6 0.0000 0.0000 0.0001 0.0000 0.0000 31.7091
#
#
#
# Elastic Compliance Matrix: (Units=1/GPa)
#
#
# Indices 1 2 3 4 5 6 
#
# 1 0.011469 -0.003157 -0.002804 0.000000 0.000000 0.000000
# 2 -0.003157 0.009325 -0.001804 0.000000 0.000000 0.000000
# 3 -0.002804 -0.001804 0.006842 0.000000 0.000000 0.000000
# 4 0.000000 0.000000 0.000000 0.018036 0.000000 0.000000
# 5 0.000000 0.000000 0.000000 0.000000 0.035349 0.000000
# 6 0.000000 0.000000 0.000000 0.000000 0.000000 0.031537
#
#
# Mechanical properties :
#
#
# Convention : Reuss Voigt Hill
#
# Bulk Modulus (GPa) = 82.59767 86.20393 84.40080
# Shear Modulus (GPa) = 37.84348 41.01584 39.42966
#
# Velocity S-wave (km/s) = 4.23302 4.40687 4.32082
# Velocity P-wave (km/s) = 7.93728 8.16766 8.05329
#
# Compressibility (1/GPa) = 0.01210688
#
# Stress axis : x y z
#
# Youngs Moduli (GPa) = 87.19011 107.24305 146.14778
#
# Poissons Ratio (x) = 0.33857 0.40976
# Poissons Ratio (y) = 0.27527 0.26363
# Poissons Ratio (z) = 0.24446 0.19345
#
# Static dielectric constant tensor:
#      x y z
#    x 3.916420 0.000000 0.000000 
#    y 0.000000 4.361640 0.000000 
#    z 0.000000 0.000000 3.679840 
# 
# 
# High freq. dielectric constant tensor:
#      x y z
#    x 1.826370 0.000000 0.000000 
#    y 0.000000 1.857440 0.000000 
#    z 0.000000 0.000000 1.813950 
# 
# From -- ./inp_files/18446.got.cif
#   From: 2010.03.12/outbox.cif.g09.slc.cpg/sg72_10_cif.got.tgz:18446.got - 2010.04.16 14:54:00.
