data_PCOD8295413
_publ_section_title
;
Structure prediction by ZEFSAII (Michael W. Deem and Ramdas Pophale) SiO2 
 PCOD8295413
Probable space group: I B A M
;
_chemical_formula_sum "Si O2"
_cell_formula_units_Z 112
_cell_length_a 23.364573
_cell_length_b 14.273215
_cell_length_c 14.820422
_cell_angle_alpha 90.000000
_cell_angle_beta 90.000000
_cell_angle_gamma 90.000000
_cell_volume 4942.426576
_symmetry_space_group_name_H-M "I B A M"
_symmetry_group_IT_number 72
_symmetry_cell_setting 'orthorhombic'
loop_
_space_group_symop_operation_xyz
x,y,z
-x,-y,z
x,-y,1/2-z
-x,y,1/2-z
-x,-y,-z
x,y,-z
-x,y,1/2+z
x,-y,1/2+z
1/2+x,1/2+y,1/2+z
1/2-x,1/2-y,1/2+z
1/2+x,1/2-y,-z
1/2-x,1/2+y,-z
1/2-x,1/2-y,1/2-z
1/2+x,1/2+y,1/2-z
1/2-x,1/2+y,z
1/2+x,1/2-y,z
loop_
_atom_site_type_symbol
_atom_site_label
_atom_site_fract_x
_atom_site_fract_y
_atom_site_fract_z
Si Si1 0.557912 0.728750 0.723417
Si Si2 0.378072 0.216095 0.100415
Si Si3 0.232863 0.988269 0.899297
Si Si4 0.342853 0.341205 0.601733
Si Si5 0.858436 0.484881 0.855769
Si Si6 0.742857 0.718424 0.149756
Si Si7 0.036754 0.408024 0.102611
O O1 0.500000 0.672163 0.750000
O O2 0.591995 0.731775 0.817556
O O3 0.598874 0.672748 0.656395
O O4 0.532271 0.823128 0.674544
O O5 0.393318 0.108344 0.119273
O O6 0.310045 0.231912 0.101652
O O7 0.400781 0.244725 0.000000
O O8 0.191641 0.068759 0.858172
O O9 0.297334 0.025513 0.902406
O O10 0.232112 0.892523 0.843626
O O11 0.212336 0.964600 0.000000
O O12 0.361753 0.361206 0.500000
O O13 0.301979 0.248900 0.601377
O O14 0.850233 0.500000 0.750000
O O15 0.895566 0.568611 0.897131
O O16 0.750000 0.750000 0.250000
O O17 0.000000 0.500000 0.133940
O O18 0.019417 0.377683 0.000000
#
# Coordination Sequence:
#
# PCOD8295413 Si02
#       7
#    16  16  16  16  16  16  16
#     4  12  26  44  67  96 135 185 244 301 360 426
#     4  12  24  41  63  93 135 178 227 283 351 423
#     4  11  24  40  66 102 140 182 230 284 349 425
#     4  11  24  44  70 104 145 189 238 293 360 438
#     4  12  22  37  60  94 136 182 225 276 336 421
#     4  12  23  43  68 104 144 184 227 289 358 429
#     4  11  24  41  64  95 136 186 239 295 360 434
#
# _framework density 22.660933
#
# number of rings (size 3 to 8) (size 9 to 14) (size 15 to 20)
#    0.000    0.429    4.286    5.571    0.000    2.286 
#    0.000    0.000    0.000    2.143    0.000    3.000 
#    0.000    0.000    0.000    0.000    0.000    0.000 
#
# Total GULP energy -694023.172798 kJ/mol
# GULP energy per Si atom -12393.270943 kJ/mol
# Density = 2.260936 g / cm^3
# Si number density = 22.660933 Si / 1000 Ang^3
#
#
#
# Elastic Constant Matrix: (Units=GPa)
#
#
# Indices 1 2 3 4 5 6 
#
# 1 135.6152 38.0466 37.4351 0.0000 0.0000 0.0000
# 2 38.0466 100.2405 33.5724 0.0000 0.0000 0.0000
# 3 37.4351 33.5724 149.7277 0.0000 0.0000 0.0000
# 4 0.0000 0.0000 0.0000 24.1213 0.0000 0.0000
# 5 0.0000 0.0000 0.0000 0.0000 -19.1427 0.0000
# 6 0.0000 0.0000 0.0000 0.0000 0.0000 38.6029
#
#
#
# Elastic Compliance Matrix: (Units=1/GPa)
#
#
# Indices 1 2 3 4 5 6 
#
# 1 0.008564 -0.002739 -0.001527 0.000000 0.000000 0.000000
# 2 -0.002739 0.011662 -0.001930 0.000000 0.000000 0.000000
# 3 -0.001527 -0.001930 0.007493 0.000000 0.000000 0.000000
# 4 0.000000 0.000000 0.000000 0.041457 0.000000 0.000000
# 5 0.000000 0.000000 0.000000 0.000000 -0.052239 0.000000
# 6 0.000000 0.000000 0.000000 0.000000 0.000000 0.025905
#
#
# Mechanical properties :
#
#
# Convention : Reuss Voigt Hill
#
# Bulk Modulus (GPa) = 65.24433 67.07684 66.16058
# Shear Modulus (GPa) = 82.85988 27.15159 55.00574
#
# Velocity S-wave (km/s) = 6.05347 3.46521 4.93215
# Velocity P-wave (km/s) = 8.81552 6.75831 7.85455
#
# Compressibility (1/GPa) = 0.01532700
#
# Stress axis : x y z
#
# Youngs Moduli (GPa) = 116.77167 85.74850 133.45188
#
# Poissons Ratio (x) = 0.23486 0.20378
# Poissons Ratio (y) = 0.31983 0.25757
# Poissons Ratio (z) = 0.17831 0.16550
#
# Static dielectric constant tensor:
#      x y z
#    x 4.151380 0.000000 0.000000 
#    y 0.000000 3.999540 0.000000 
#    z 0.000000 0.000000 4.402510 
# 
# 
# High freq. dielectric constant tensor:
#      x y z
#    x 1.893440 0.000000 0.000000 
#    y 0.000000 1.858140 0.000000 
#    z 0.000000 0.000000 1.913070 
# 
# From -- ./inp_files/25180.got.cif
#   From: 2010.03.12/outbox.cif.g09.slc.cpg/sg72_13_cif.got.tgz:25180.got - 2010.04.16 14:54:00.
