data_PCOD8295689
_publ_section_title
;
Structure prediction by ZEFSAII (Michael W. Deem and Ramdas Pophale) SiO2 
 PCOD8295689
Probable space group: I B C A 
;
_chemical_formula_sum "Si O2"
_cell_formula_units_Z 120
_cell_length_a 10.260895
_cell_length_b 23.487526
_cell_length_c 25.455156
_cell_angle_alpha 90.000000
_cell_angle_beta 90.000000
_cell_angle_gamma 90.000000
_cell_volume 6134.769931
_symmetry_space_group_name_H-M "I B C A "
_symmetry_group_IT_number 73
_symmetry_cell_setting 'orthorhombic'
loop_
_space_group_symop_operation_xyz
x,y,z
-x,1/2-y,z
x,-y,1/2-z
1/2-x,y,-z
-x,-y,-z
x,1/2+y,-z
-x,y,1/2+z
1/2+x,-y,z
1/2+x,1/2+y,1/2+z
1/2-x,-y,1/2+z
1/2+x,1/2-y,-z
-x,1/2+y,1/2-z
1/2-x,1/2-y,1/2-z
1/2+x,y,1/2-z
1/2-x,1/2+y,z
x,1/2-y,1/2+z
loop_
_atom_site_type_symbol
_atom_site_label
_atom_site_fract_x
_atom_site_fract_y
_atom_site_fract_z
Si Si1 0.667945 0.317053 0.791460
Si Si2 0.000000 0.750000 0.869289
Si Si3 0.184016 0.657327 0.387824
Si Si4 0.591668 0.108264 0.691370
Si Si5 0.540370 0.413768 0.303491
Si Si6 0.102727 0.201426 0.321377
Si Si7 0.750183 0.452561 0.560580
Si Si8 0.482222 0.511914 0.880637
O O1 0.618632 0.270215 0.832540
O O2 0.807135 0.339396 0.810938
O O3 0.576929 0.371694 0.792440
O O4 0.674597 0.286216 0.734309
O O5 0.940352 0.697673 0.903853
O O6 0.149680 0.616347 0.338845
O O7 0.299382 0.699344 0.370496
O O8 0.229674 0.615948 0.434723
O O9 0.604291 0.073365 0.746414
O O10 0.453373 0.138351 0.685246
O O11 0.597876 0.065553 0.642314
O O12 0.484112 0.470055 0.331805
O O13 0.000000 0.250000 0.334779
O O14 0.750000 0.469248 0.500000
O O15 0.617185 0.472303 0.589804
O O16 0.880527 0.482754 0.580790
#
# Coordination Sequence:
#
# PCOD8295689 Si02
#       8
#    16   8  16  16  16  16  16  16
#     4  10  19  31  50  83 120 165 202 229 268 339
#     4  10  20  34  58  80 116 162 204 242 282 350
#     4  10  20  38  55  84 114 153 200 238 297 343
#     4  11  20  32  52  85 127 157 195 232 281 356
#     4   9  20  32  52  83 124 158 187 227 278 354
#     4  11  20  31  52  80 120 161 199 237 277 336
#     4  11  24  44  67  86 115 149 201 263 312 358
#     4  11  22  39  62  91 116 157 195 242 307 364
#
# _framework density 19.560635999999999
#
# number of rings (size 3 to 8) (size 9 to 14) (size 15 to 20)
#    0.000    1.600    3.333    2.400    0.000    1.067 
#    0.000    2.667    1.467    0.000    0.000    0.000 
#    0.000    0.000    0.000    0.000    0.000    0.000 
#
# Total GULP energy -743594.815880 kJ/mol
# GULP energy per Si atom -12393.246931 kJ/mol
# Density = 1.951611 g / cm^3
# Si number density = 19.560636 Si / 1000 Ang^3
#
#
#
# Elastic Constant Matrix: (Units=GPa)
#
#
# Indices 1 2 3 4 5 6 
#
# 1 76.1082 24.3661 26.5216 0.0000 0.0000 0.0000
# 2 24.3661 80.6041 29.1304 0.0000 0.0000 0.0000
# 3 26.5216 29.1304 68.2066 0.0000 0.0000 0.0000
# 4 0.0000 0.0000 0.0000 17.7550 0.0000 0.0000
# 5 0.0000 0.0000 0.0000 0.0000 20.8884 0.0000
# 6 0.0000 0.0000 0.0000 0.0000 0.0000 30.3073
#
#
#
# Elastic Compliance Matrix: (Units=1/GPa)
#
#
# Indices 1 2 3 4 5 6 
#
# 1 0.015797 -0.003022 -0.004852 0.000000 0.000000 0.000000
# 2 -0.003022 0.015249 -0.005338 0.000000 0.000000 0.000000
# 3 -0.004852 -0.005338 0.018828 0.000000 0.000000 0.000000
# 4 0.000000 0.000000 0.000000 0.056322 0.000000 0.000000
# 5 0.000000 0.000000 0.000000 0.000000 0.047873 0.000000
# 6 0.000000 0.000000 0.000000 0.000000 0.000000 0.032995
#
#
# Mechanical properties :
#
#
# Convention : Reuss Voigt Hill
#
# Bulk Modulus (GPa) = 42.64251 42.77280 42.70765
# Shear Modulus (GPa) = 22.59325 23.45019 23.02172
#
# Velocity S-wave (km/s) = 3.40227 3.46619 3.43438
# Velocity P-wave (km/s) = 6.10585 6.15902 6.13249
#
# Compressibility (1/GPa) = 0.02345078
#
# Stress axis : x y z
#
# Youngs Moduli (GPa) = 63.30123 65.57874 53.11333
#
# Poissons Ratio (x) = 0.19817 0.25771
# Poissons Ratio (y) = 0.19129 0.28350
# Poissons Ratio (z) = 0.30714 0.35003
#
# Static dielectric constant tensor:
#      x y z
#    x 3.645450 0.000000 0.000000 
#    y 0.000000 3.672790 0.000000 
#    z 0.000000 0.000000 3.240420 
# 
# 
# High freq. dielectric constant tensor:
#      x y z
#    x 1.773250 0.000000 0.000000 
#    y 0.000000 1.776440 0.000000 
#    z 0.000000 0.000000 1.712220 
# 
# From -- ./inp_files/31906.got.cif
#   From: 2010.03.12/outbox.cif.g09.slc.cpg/sg73_16_cif.got.tgz:31906.got - 2010.04.16 15:25:48.
