data_PCOD8295371
_publ_section_title
;
Structure prediction by ZEFSAII (Michael W. Deem and Ramdas Pophale) SiO2 
 PCOD8295371
Probable space group: I B A M
;
_chemical_formula_sum "Si O2"
_cell_formula_units_Z 88
_cell_length_a 14.386751
_cell_length_b 19.887809
_cell_length_c 14.435336
_cell_angle_alpha 90.000000
_cell_angle_beta 90.000000
_cell_angle_gamma 90.000000
_cell_volume 4130.252137
_symmetry_space_group_name_H-M "I B A M"
_symmetry_group_IT_number 72
_symmetry_cell_setting 'orthorhombic'
loop_
_space_group_symop_operation_xyz
x,y,z
-x,-y,z
x,-y,1/2-z
-x,y,1/2-z
-x,-y,-z
x,y,-z
-x,y,1/2+z
x,-y,1/2+z
1/2+x,1/2+y,1/2+z
1/2-x,1/2-y,1/2+z
1/2+x,1/2-y,-z
1/2-x,1/2+y,-z
1/2-x,1/2-y,1/2-z
1/2+x,1/2+y,1/2-z
1/2-x,1/2+y,z
1/2+x,1/2-y,z
loop_
_atom_site_type_symbol
_atom_site_label
_atom_site_fract_x
_atom_site_fract_y
_atom_site_fract_z
Si Si1 0.672598 0.123036 0.000000
Si Si2 0.696065 0.242356 0.500000
Si Si3 0.544595 0.319489 0.158089
Si Si4 0.771606 0.563413 0.190526
Si Si5 0.022908 0.274282 0.000000
Si Si6 0.754394 0.183162 0.690630
Si Si7 0.926528 0.944566 0.393963
O O1 0.682132 0.075258 0.910197
O O2 0.751735 0.184217 0.000000
O O3 0.565810 0.150676 0.000000
O O4 0.584949 0.244663 0.500000
O O5 0.717912 0.197457 0.588707
O O6 0.500000 0.288117 0.250000
O O7 0.567978 0.258418 0.090506
O O8 0.643763 0.350542 0.184082
O O9 0.476749 0.372908 0.111330
O O10 0.809137 0.500000 0.250000
O O11 0.802064 0.626584 0.254035
O O12 0.661535 0.554286 0.173133
O O13 0.750000 0.250000 0.750000
O O14 0.895262 0.957725 0.500000
O O15 0.000000 0.000000 0.359594
#
# Coordination Sequence:
#
# PCOD8295371 Si02
#       7
#     8   8  16  16   8  16  16
#     4  12  24  47  69 100 145 181 226 293 345 415
#     4  12  24  43  69 100 142 172 233 292 350 398
#     4  12  21  35  61  94 134 179 218 263 336 411
#     4  12  25  43  68  99 140 185 224 273 350 417
#     4  12  24  42  66  95 131 179 222 284 345 386
#     4  12  23  40  64  98 137 181 227 282 329 408
#     4  11  23  38  59  95 143 182 217 261 334 432
#
# _framework density 21.306204999999999
#
# number of rings (size 3 to 8) (size 9 to 14) (size 15 to 20)
#    0.000    0.182    7.273    3.273    0.000    0.727 
#    0.000    0.000    0.000    3.273    0.000    0.000 
#    0.000    0.000    0.000    0.000    0.000    0.000 
#
# Total GULP energy -545312.571849 kJ/mol
# GULP energy per Si atom -12393.467542 kJ/mol
# Density = 2.125771 g / cm^3
# Si number density = 21.306205 Si / 1000 Ang^3
#
#
#
# Elastic Constant Matrix: (Units=GPa)
#
#
# Indices 1 2 3 4 5 6 
#
# 1 57.2720 8.9829 10.9065 0.0000 0.0000 0.0000
# 2 8.9829 119.2436 68.3727 0.0000 0.0000 0.0000
# 3 10.9065 68.3727 172.6771 -0.0001 0.0000 0.0000
# 4 0.0000 0.0000 -0.0001 24.6713 0.0000 0.0000
# 5 0.0000 0.0000 0.0000 0.0000 28.1439 0.0000
# 6 0.0000 0.0000 0.0000 0.0000 0.0000 29.4399
#
#
#
# Elastic Compliance Matrix: (Units=1/GPa)
#
#
# Indices 1 2 3 4 5 6 
#
# 1 0.017747 -0.000898 -0.000765 0.000000 0.000000 0.000000
# 2 -0.000898 0.010895 -0.004257 0.000000 0.000000 0.000000
# 3 -0.000765 -0.004257 0.007525 0.000000 0.000000 0.000000
# 4 0.000000 0.000000 0.000000 0.040533 0.000000 0.000000
# 5 0.000000 0.000000 0.000000 0.000000 0.035532 0.000000
# 6 0.000000 0.000000 0.000000 0.000000 0.000000 0.033968
#
#
# Mechanical properties :
#
#
# Convention : Reuss Voigt Hill
#
# Bulk Modulus (GPa) = 41.10834 58.41299 49.76066
# Shear Modulus (GPa) = 30.09343 33.84638 31.96991
#
# Velocity S-wave (km/s) = 3.76230 3.99001 3.87783
# Velocity P-wave (km/s) = 6.18136 6.97871 6.59210
#
# Compressibility (1/GPa) = 0.02432596
#
# Stress axis : x y z
#
# Youngs Moduli (GPa) = 56.34708 91.78638 132.88763
#
# Poissons Ratio (x) = 0.08243 0.10170
# Poissons Ratio (y) = 0.05061 0.56573
# Poissons Ratio (z) = 0.04312 0.39075
#
# Static dielectric constant tensor:
#      x y z
#    x 3.529530 0.000000 0.000000 
#    y 0.000000 3.831910 0.000000 
#    z 0.000000 0.000000 4.321590 
# 
# 
# High freq. dielectric constant tensor:
#      x y z
#    x 1.811460 0.000000 0.000000 
#    y 0.000000 1.816030 0.000000 
#    z 0.000000 0.000000 1.867300 
# 
# From -- ./inp_files/21743.got.cif
#   From: 2010.03.12/outbox.cif.g09.slc.cpg/sg72_11_cif.got.tgz:21743.got - 2010.04.16 14:54:00.
