data_PCOD8295916
_publ_section_title
;
Structure prediction by ZEFSAII (Michael W. Deem and Ramdas Pophale) SiO2 
 PCOD8295916
Probable space group: I B C A 
;
_chemical_formula_sum "Si O2"
_cell_formula_units_Z 104
_cell_length_a 21.941701
_cell_length_b 9.370930
_cell_length_c 24.354557
_cell_angle_alpha 90.000000
_cell_angle_beta 90.000000
_cell_angle_gamma 90.000000
_cell_volume 5007.641394
_symmetry_space_group_name_H-M "I B C A "
_symmetry_group_IT_number 73
_symmetry_cell_setting 'orthorhombic'
loop_
_space_group_symop_operation_xyz
x,y,z
-x,1/2-y,z
x,-y,1/2-z
1/2-x,y,-z
-x,-y,-z
x,1/2+y,-z
-x,y,1/2+z
1/2+x,-y,z
1/2+x,1/2+y,1/2+z
1/2-x,-y,1/2+z
1/2+x,1/2-y,-z
-x,1/2+y,1/2-z
1/2-x,1/2-y,1/2-z
1/2+x,y,1/2-z
1/2-x,1/2+y,z
x,1/2-y,1/2+z
loop_
_atom_site_type_symbol
_atom_site_label
_atom_site_fract_x
_atom_site_fract_y
_atom_site_fract_z
Si Si1 0.524805 0.531923 0.309817
Si Si2 0.835879 0.096948 0.957633
Si Si3 0.124046 0.659445 0.899898
Si Si4 0.000000 0.750000 0.873201
Si Si5 0.888789 0.567855 0.194022
Si Si6 0.369201 0.320203 0.625583
Si Si7 0.199847 0.587831 0.418888
O O1 0.555780 0.500000 0.250000
O O2 0.506549 0.381092 0.333164
O O3 0.460390 0.616270 0.301814
O O4 0.568236 0.606474 0.354736
O O5 0.877473 0.220405 0.929159
O O6 0.771723 0.096454 0.925237
O O7 0.862094 0.937166 0.952894
O O8 0.831404 0.118018 0.022202
O O9 0.059334 0.735148 0.911533
O O10 0.121681 0.556113 0.848726
O O11 0.175116 0.777628 0.884672
O O12 0.863722 0.500000 0.250000
O O13 0.851149 0.710195 0.175260
O O14 0.318650 0.439902 0.611130
#
# Coordination Sequence:
#
# PCOD8295916 Si02
#       7
#    16  16  16   8  16  16  16
#     4  10  21  34  62  89 120 159 205 240 288 364
#     4  10  23  40  63  86 116 156 209 266 300 351
#     4  10  20  37  59  86 124 153 197 247 310 354
#     4  10  20  38  56  92 126 162 188 248 310 360
#     4   9  21  37  60  88 126 160 193 243 296 359
#     4  11  21  35  62  93 115 151 207 251 300 357
#     4  11  21  40  65  88 111 157 215 255 301 359
#
# _framework density 20.768260000000001
#
# number of rings (size 3 to 8) (size 9 to 14) (size 15 to 20)
#    0.000    1.846    1.538    2.308    6.462    2.462 
#    0.000    0.769   10.154   24.000    0.000    0.000 
#    0.000    0.000    0.000    0.000    0.000    0.000 
#
# Total GULP energy -644237.359776 kJ/mol
# GULP energy per Si atom -12389.179996 kJ/mol
# Density = 2.072099 g / cm^3
# Si number density = 20.768260 Si / 1000 Ang^3
#
#
#
# Elastic Constant Matrix: (Units=GPa)
#
#
# Indices 1 2 3 4 5 6 
#
# 1 71.0017 22.8336 32.2691 0.0000 0.0000 0.0000
# 2 22.8336 95.0839 24.1314 0.0000 0.0000 0.0000
# 3 32.2691 24.1314 73.6630 0.0000 0.0000 0.0000
# 4 0.0000 0.0000 0.0000 22.8252 0.0000 0.0000
# 5 0.0000 0.0000 0.0000 0.0000 35.6958 0.0000
# 6 0.0000 0.0000 0.0000 0.0000 0.0000 33.8431
#
#
#
# Elastic Compliance Matrix: (Units=1/GPa)
#
#
# Indices 1 2 3 4 5 6 
#
# 1 0.018135 -0.002551 -0.007109 0.000000 0.000000 0.000000
# 2 -0.002551 0.011830 -0.002758 0.000000 0.000000 0.000000
# 3 -0.007109 -0.002758 0.017593 0.000000 0.000000 0.000000
# 4 0.000000 0.000000 0.000000 0.043811 0.000000 0.000000
# 5 0.000000 0.000000 0.000000 0.000000 0.028014 0.000000
# 6 0.000000 0.000000 0.000000 0.000000 0.000000 0.029548
#
#
# Mechanical properties :
#
#
# Convention : Reuss Voigt Hill
#
# Bulk Modulus (GPa) = 44.00874 44.24631 44.12753
# Shear Modulus (GPa) = 27.57240 29.17380 28.37310
#
# Velocity S-wave (km/s) = 3.64761 3.75204 3.70019
# Velocity P-wave (km/s) = 6.24311 6.33415 6.28879
#
# Compressibility (1/GPa) = 0.02272276
#
# Stress axis : x y z
#
# Youngs Moduli (GPa) = 55.14093 84.53440 56.84118
#
# Poissons Ratio (x) = 0.21564 0.40407
# Poissons Ratio (y) = 0.14066 0.15676
# Poissons Ratio (z) = 0.39199 0.23313
#
# Static dielectric constant tensor:
#      x y z
#    x 3.821090 0.000000 0.000000 
#    y 0.000000 4.281630 0.000000 
#    z 0.000000 0.000000 3.784290 
# 
# 
# High freq. dielectric constant tensor:
#      x y z
#    x 1.786980 0.000000 0.000000 
#    y 0.000000 1.841710 0.000000 
#    z 0.000000 0.000000 1.797080 
# 
# From -- ./inp_files/32649.got.cif
#   From: 2010.03.12/outbox.cif.g09.slc.cpg/sg73_17_cif.got.tgz:32649.got - 2010.04.16 15:25:48.
