data_PCOD8295720
_publ_section_title
;
Structure prediction by ZEFSAII (Michael W. Deem and Ramdas Pophale) SiO2 
 PCOD8295720
Probable space group: I B C A 
;
_chemical_formula_sum "Si O2"
_cell_formula_units_Z 72
_cell_length_a 14.476540
_cell_length_b 23.690964
_cell_length_c 9.260482
_cell_angle_alpha 90.000000
_cell_angle_beta 90.000000
_cell_angle_gamma 90.000000
_cell_volume 3176.004429
_symmetry_space_group_name_H-M "I B C A "
_symmetry_group_IT_number 73
_symmetry_cell_setting 'orthorhombic'
loop_
_space_group_symop_operation_xyz
x,y,z
-x,1/2-y,z
x,-y,1/2-z
1/2-x,y,-z
-x,-y,-z
x,1/2+y,-z
-x,y,1/2+z
1/2+x,-y,z
1/2+x,1/2+y,1/2+z
1/2-x,-y,1/2+z
1/2+x,1/2-y,-z
-x,1/2+y,1/2-z
1/2-x,1/2-y,1/2-z
1/2+x,y,1/2-z
1/2-x,1/2+y,z
x,1/2-y,1/2+z
loop_
_atom_site_type_symbol
_atom_site_label
_atom_site_fract_x
_atom_site_fract_y
_atom_site_fract_z
Si Si1 0.104486 0.269607 0.095315
Si Si2 0.750000 0.584094 0.500000
Si Si3 0.539291 0.125755 0.059723
Si Si4 0.147750 0.681427 0.123509
Si Si5 0.924990 0.056891 0.670619
O O1 0.162957 0.278679 0.239945
O O2 0.000000 0.250000 0.126425
O O3 0.108221 0.329149 0.011115
O O4 0.161630 0.219647 0.018952
O O5 0.790109 0.625487 0.623063
O O6 0.829688 0.547243 0.421130
O O7 0.457086 0.160515 0.130827
O O8 0.593103 0.098645 0.195164
O O9 0.503290 0.080012 0.939893
O O10 0.959204 0.000000 0.750000
#
# Coordination Sequence:
#
# PCOD8295720 Si02
#       5
#    16   8  16  16  16
#     4  10  19  34  63  95 125 163 210 261 318 378
#     4  10  26  44  58  92 146 162 210 268 324 396
#     4  10  20  39  68  97 120 158 224 274 313 378
#     4  10  21  37  60  92 132 170 204 255 322 392
#     4  11  23  45  68  93 123 170 220 277 324 373
#
# _framework density 22.669993999999999
#
# number of rings (size 3 to 8) (size 9 to 14) (size 15 to 20)
#    0.000    1.778    2.222    2.667    6.222    0.889 
#    4.000    2.222    0.000    0.000    0.000    0.000 
#    0.000    0.000    0.000    0.000    0.000    0.000 
#
# Total GULP energy -446165.056298 kJ/mol
# GULP energy per Si atom -12393.473786 kJ/mol
# Density = 2.261840 g / cm^3
# Si number density = 22.669994 Si / 1000 Ang^3
#
#
#
# Elastic Constant Matrix: (Units=GPa)
#
#
# Indices 1 2 3 4 5 6 
#
# 1 30.9733 -0.3212 6.3989 0.0002 -0.0001 0.0000
# 2 -0.3212 71.8826 19.1160 0.0008 -0.0002 -0.0001
# 3 6.3989 19.1160 107.1322 0.0033 -0.0009 -0.0005
# 4 0.0002 0.0008 0.0033 49.0981 -0.0005 -0.0002
# 5 -0.0001 -0.0002 -0.0009 -0.0005 20.3300 0.0001
# 6 0.0000 -0.0001 -0.0005 -0.0002 0.0001 21.6343
#
#
#
# Elastic Compliance Matrix: (Units=1/GPa)
#
#
# Indices 1 2 3 4 5 6 
#
# 1 0.032723 0.000699 -0.002079 0.000000 0.000000 0.000000
# 2 0.000699 0.014620 -0.002650 0.000000 0.000000 0.000000
# 3 -0.002079 -0.002650 0.009931 -0.000001 0.000000 0.000000
# 4 0.000000 0.000000 -0.000001 0.020367 0.000001 0.000000
# 5 0.000000 0.000000 0.000000 0.000001 0.049188 0.000000
# 6 0.000000 0.000000 0.000000 0.000000 0.000000 0.046223
#
#
# Mechanical properties :
#
#
# Convention : Reuss Voigt Hill
#
# Bulk Modulus (GPa) = 20.31999 28.93061 24.62530
# Shear Modulus (GPa) = 25.31424 30.53212 27.92318
#
# Velocity S-wave (km/s) = 3.34524 3.67387 3.51340
# Velocity P-wave (km/s) = 4.88914 5.54849 5.22922
#
# Compressibility (1/GPa) = 0.04921261
#
# Stress axis : x y z
#
# Youngs Moduli (GPa) = 30.55988 68.40169 100.69108
#
# Poissons Ratio (x) = -0.04782 0.20936
# Poissons Ratio (y) = -0.02137 0.26687
# Poissons Ratio (z) = 0.06354 0.18129
#
# Static dielectric constant tensor:
#      x y z
#    x 3.720020 0.000000 0.000000 
#    y 0.000000 4.077150 0.000000 
#    z 0.000000 0.000000 4.223640 
# 
# 
# High freq. dielectric constant tensor:
#      x y z
#    x 1.866520 0.000000 0.000000 
#    y 0.000000 1.888340 0.000000 
#    z 0.000000 0.000000 1.904370 
# 
# From -- ./inp_files/4795.got.cif
#   From: 2010.03.12/outbox.cif.g09.slc.cpg/sg73_3_cif.got.tgz:4795.got - 2010.04.16 15:25:48.
