data_PCOD8295975
_publ_section_title
;
Structure prediction by ZEFSAII (Michael W. Deem and Ramdas Pophale) SiO2 
 PCOD8295975
Probable space group: I B C A 
;
_chemical_formula_sum "Si O2"
_cell_formula_units_Z 104
_cell_length_a 18.234094
_cell_length_b 11.603367
_cell_length_c 22.483092
_cell_angle_alpha 90.000000
_cell_angle_beta 90.000000
_cell_angle_gamma 90.000000
_cell_volume 4756.902561
_symmetry_space_group_name_H-M "I B C A "
_symmetry_group_IT_number 73
_symmetry_cell_setting 'orthorhombic'
loop_
_space_group_symop_operation_xyz
x,y,z
-x,1/2-y,z
x,-y,1/2-z
1/2-x,y,-z
-x,-y,-z
x,1/2+y,-z
-x,y,1/2+z
1/2+x,-y,z
1/2+x,1/2+y,1/2+z
1/2-x,-y,1/2+z
1/2+x,1/2-y,-z
-x,1/2+y,1/2-z
1/2-x,1/2-y,1/2-z
1/2+x,y,1/2-z
1/2-x,1/2+y,z
x,1/2-y,1/2+z
loop_
_atom_site_type_symbol
_atom_site_label
_atom_site_fract_x
_atom_site_fract_y
_atom_site_fract_z
Si Si1 0.893134 0.577518 0.429287
Si Si2 0.406679 0.000000 0.250000
Si Si3 0.166738 0.213879 0.626064
Si Si4 0.066547 0.833886 0.553001
Si Si5 0.664173 0.162509 0.121274
Si Si6 0.459792 0.048845 0.373149
Si Si7 0.335214 0.766743 0.257430
O O1 0.833401 0.676006 0.416644
O O2 0.909044 0.581538 0.499507
O O3 0.862675 0.456629 0.406298
O O4 0.967044 0.613048 0.394376
O O5 0.459218 0.045656 0.301808
O O6 0.354097 0.101296 0.224980
O O7 0.248002 0.162063 0.625126
O O8 0.112229 0.114617 0.602030
O O9 0.135415 0.256459 0.690708
O O10 0.135688 0.762770 0.577787
O O11 0.000000 0.750000 0.533623
O O12 0.036350 0.917804 0.603772
O O13 0.634556 0.183708 0.189397
O O14 0.250000 0.750000 0.250000
#
# Coordination Sequence:
#
# PCOD8295975 Si02
#       7
#    16   8  16  16  16  16  16
#     4  12  27  45  67  99 136 185 230 285 348 416
#     4  10  20  38  68 102 130 176 230 294 332 410
#     4  10  25  43  68 104 141 172 228 291 350 414
#     4  12  25  46  71  96 138 188 240 282 347 426
#     4  11  25  44  69 103 130 186 232 281 351 419
#     4  11  23  44  70  96 138 180 227 285 348 411
#     4   9  20  39  66  97 139 176 216 279 357 419
#
# _framework density 21.862964999999999
#
# number of rings (size 3 to 8) (size 9 to 14) (size 15 to 20)
#    0.000    1.231    3.077    1.846    4.308    6.154 
#    0.000    1.538    0.000    0.000    0.000    0.000 
#    0.000    0.000    0.000    0.000    0.000    0.000 
#
# Total GULP energy -644565.898392 kJ/mol
# GULP energy per Si atom -12395.498046 kJ/mol
# Density = 2.181320 g / cm^3
# Si number density = 21.862965 Si / 1000 Ang^3
#
#
#
# Elastic Constant Matrix: (Units=GPa)
#
#
# Indices 1 2 3 4 5 6 
#
# 1 94.3179 27.2157 41.0304 0.0000 0.0000 0.0000
# 2 27.2157 97.0256 45.7215 0.0000 0.0000 0.0000
# 3 41.0304 45.7215 117.7075 0.0000 0.0000 0.0000
# 4 0.0000 0.0000 0.0000 43.9469 0.0000 0.0000
# 5 0.0000 0.0000 0.0000 0.0000 29.5227 0.0000
# 6 0.0000 0.0000 0.0000 0.0000 0.0000 40.5187
#
#
#
# Elastic Compliance Matrix: (Units=1/GPa)
#
#
# Indices 1 2 3 4 5 6 
#
# 1 0.012753 -0.001815 -0.003741 0.000000 0.000000 0.000000
# 2 -0.001815 0.012874 -0.004368 0.000000 0.000000 0.000000
# 3 -0.003741 -0.004368 0.011496 0.000000 0.000000 0.000000
# 4 0.000000 0.000000 0.000000 0.022755 0.000000 0.000000
# 5 0.000000 0.000000 0.000000 0.000000 0.033872 0.000000
# 6 0.000000 0.000000 0.000000 0.000000 0.000000 0.024680
#
#
# Mechanical properties :
#
#
# Convention : Reuss Voigt Hill
#
# Bulk Modulus (GPa) = 57.88131 59.66512 58.77322
# Shear Modulus (GPa) = 34.71348 35.80322 35.25835
#
# Velocity S-wave (km/s) = 3.98901 4.05114 4.02020
# Velocity P-wave (km/s) = 6.91002 7.01656 6.96349
#
# Compressibility (1/GPa) = 0.01727673
#
# Stress axis : x y z
#
# Youngs Moduli (GPa) = 78.41088 77.67619 86.98457
#
# Poissons Ratio (x) = 0.14095 0.32538
# Poissons Ratio (y) = 0.14228 0.37996
# Poissons Ratio (z) = 0.29331 0.33930
#
# Static dielectric constant tensor:
#      x y z
#    x 3.762790 0.000000 0.000000 
#    y 0.000000 3.953680 0.000000 
#    z 0.000000 0.000000 4.402410 
# 
# 
# High freq. dielectric constant tensor:
#      x y z
#    x 1.851240 0.000000 0.000000 
#    y 0.000000 1.860990 0.000000 
#    z 0.000000 0.000000 1.867920 
# 
# From -- ./inp_files/32417.got.cif
#   From: 2010.03.12/outbox.cif.g09.slc.cpg/sg73_17_cif.got.tgz:32417.got - 2010.04.16 15:25:48.
