data_PCOD8295226
_publ_section_title
;
Structure prediction by ZEFSAII (Michael W. Deem and Ramdas Pophale) SiO2 
 PCOD8295226
Probable space group: I B A M
;
_chemical_formula_sum "Si O2"
_cell_formula_units_Z 80
_cell_length_a 20.417359
_cell_length_b 12.106139
_cell_length_c 17.647912
_cell_angle_alpha 90.000000
_cell_angle_beta 90.000000
_cell_angle_gamma 90.000000
_cell_volume 4362.129462
_symmetry_space_group_name_H-M "I B A M"
_symmetry_group_IT_number 72
_symmetry_cell_setting 'orthorhombic'
loop_
_space_group_symop_operation_xyz
x,y,z
-x,-y,z
x,-y,1/2-z
-x,y,1/2-z
-x,-y,-z
x,y,-z
-x,y,1/2+z
x,-y,1/2+z
1/2+x,1/2+y,1/2+z
1/2-x,1/2-y,1/2+z
1/2+x,1/2-y,-z
1/2-x,1/2+y,-z
1/2-x,1/2-y,1/2-z
1/2+x,1/2+y,1/2-z
1/2-x,1/2+y,z
1/2+x,1/2-y,z
loop_
_atom_site_type_symbol
_atom_site_label
_atom_site_fract_x
_atom_site_fract_y
_atom_site_fract_z
Si Si1 0.811010 0.053259 0.172183
Si Si2 0.074612 0.527503 0.912008
Si Si3 0.646761 0.789094 0.162206
Si Si4 0.717845 0.654985 0.587941
Si Si5 0.833627 0.355118 0.670585
O O1 0.856468 0.157071 0.148813
O O2 0.737889 0.096648 0.185521
O O3 0.837084 0.000000 0.250000
O O4 0.815061 0.963585 0.104990
O O5 0.089024 0.653333 0.886033
O O6 0.120353 0.448127 0.863521
O O7 0.000000 0.500000 0.894131
O O8 0.091370 0.512860 0.000000
O O9 0.715888 0.838608 0.135729
O O10 0.636414 0.814247 0.250561
O O11 0.734194 0.665576 0.500000
O O12 0.668826 0.752474 0.612520
#
# Coordination Sequence:
#
# PCOD8295226 Si02
#       5
#    16  16  16  16  16
#     4  11  18  34  55  84 117 146 180 233 286 334
#     4  11  24  40  57  82 116 149 189 238 286 338
#     4  11  21  34  57  81 113 150 191 231 279 342
#     4  11  21  32  53  85 118 150 183 228 289 341
#     4  11  20  35  57  81 114 152 185 230 280 342
#
# _framework density 18.339666999999999
#
# number of rings (size 3 to 8) (size 9 to 14) (size 15 to 20)
#    0.000    1.000    6.000    3.000    0.000    5.600 
#    0.000    0.000    0.000    1.200    0.000    4.200 
#    0.000    0.000    0.000    0.000    0.000    0.000 
#
# Total GULP energy -496119.216293 kJ/mol
# GULP energy per Si atom -12402.980407 kJ/mol
# Density = 1.829792 g / cm^3
# Si number density = 18.339667 Si / 1000 Ang^3
#
#
#
# Elastic Constant Matrix: (Units=GPa)
#
#
# Indices 1 2 3 4 5 6 
#
# 1 52.3146 35.0450 21.7239 0.0000 0.0000 0.0000
# 2 35.0450 146.8350 38.6473 0.0000 0.0000 0.0000
# 3 21.7239 38.6473 99.7450 0.0000 0.0000 0.0000
# 4 0.0000 0.0000 0.0000 31.3911 0.0000 0.0000
# 5 0.0000 0.0000 0.0000 0.0000 14.2374 0.0000
# 6 0.0000 0.0000 0.0000 0.0000 0.0000 22.1705
#
#
#
# Elastic Compliance Matrix: (Units=1/GPa)
#
#
# Indices 1 2 3 4 5 6 
#
# 1 0.023693 -0.004785 -0.003306 0.000000 0.000000 0.000000
# 2 -0.004785 0.008550 -0.002271 0.000000 0.000000 0.000000
# 3 -0.003306 -0.002271 0.011625 0.000000 0.000000 0.000000
# 4 0.000000 0.000000 0.000000 0.031856 0.000000 0.000000
# 5 0.000000 0.000000 0.000000 0.000000 0.070238 0.000000
# 6 0.000000 0.000000 0.000000 0.000000 0.000000 0.045105
#
#
# Mechanical properties :
#
#
# Convention : Reuss Voigt Hill
#
# Bulk Modulus (GPa) = 43.20540 54.41412 48.80976
# Shear Modulus (GPa) = 22.77843 27.12504 24.95174
#
# Velocity S-wave (km/s) = 3.52807 3.85000 3.69254
# Velocity P-wave (km/s) = 6.34082 7.03547 6.69716
#
# Compressibility (1/GPa) = 0.02314526
#
# Stress axis : x y z
#
# Youngs Moduli (GPa) = 42.20607 116.95966 86.01784
#
# Poissons Ratio (x) = 0.55960 0.28441
# Poissons Ratio (y) = 0.20194 0.19532
# Poissons Ratio (z) = 0.13955 0.26558
#
# Static dielectric constant tensor:
#      x y z
#    x 3.052370 0.000000 0.000000 
#    y 0.000000 3.861400 0.000000 
#    z 0.000000 0.000000 3.399590 
# 
# 
# High freq. dielectric constant tensor:
#      x y z
#    x 1.652770 0.000000 0.000000 
#    y 0.000000 1.732330 0.000000 
#    z 0.000000 0.000000 1.723110 
# 
# From -- ./inp_files/24923.got.cif
#   From: 2010.03.12/outbox.cif.g09.slc.cpg/sg72_13_cif.got.tgz:24923.got - 2010.04.16 14:54:00.
