data_PCOD8295928
_publ_section_title
;
Structure prediction by ZEFSAII (Michael W. Deem and Ramdas Pophale) SiO2 
 PCOD8295928
Probable space group: I B C A 
;
_chemical_formula_sum "Si O2"
_cell_formula_units_Z 88
_cell_length_a 30.064453
_cell_length_b 5.075975
_cell_length_c 29.155351
_cell_angle_alpha 90.000000
_cell_angle_beta 90.000000
_cell_angle_gamma 90.000000
_cell_volume 4449.293501
_symmetry_space_group_name_H-M "I B C A "
_symmetry_group_IT_number 73
_symmetry_cell_setting 'orthorhombic'
loop_
_space_group_symop_operation_xyz
x,y,z
-x,1/2-y,z
x,-y,1/2-z
1/2-x,y,-z
-x,-y,-z
x,1/2+y,-z
-x,y,1/2+z
1/2+x,-y,z
1/2+x,1/2+y,1/2+z
1/2-x,-y,1/2+z
1/2+x,1/2-y,-z
-x,1/2+y,1/2-z
1/2-x,1/2-y,1/2-z
1/2+x,y,1/2-z
1/2-x,1/2+y,z
x,1/2-y,1/2+z
loop_
_atom_site_type_symbol
_atom_site_label
_atom_site_fract_x
_atom_site_fract_y
_atom_site_fract_z
Si Si1 0.780303 0.000000 0.750000
Si Si2 0.423690 0.538680 0.846148
Si Si3 0.427658 0.433614 0.030709
Si Si4 0.219134 0.007096 0.349070
Si Si5 0.468451 0.000000 0.250000
Si Si6 0.500000 0.750000 0.907100
Si Si7 0.875013 0.972273 0.882605
O O1 0.750000 0.250000 0.750000
O O2 0.805894 0.003683 0.701315
O O3 0.436382 0.478041 0.793841
O O4 0.468526 0.568703 0.875791
O O5 0.394882 0.804712 0.849088
O O6 0.394018 0.306017 0.866416
O O7 0.472290 0.453378 0.061356
O O8 0.386128 0.472626 0.064341
O O9 0.426406 0.641693 0.990089
O O10 0.255849 0.782231 0.356426
O O11 0.178520 0.972906 0.383769
O O12 0.500000 0.750000 0.254401
#
# Coordination Sequence:
#
# PCOD8295928 Si02
#       7
#     8  16  16  16   8   8  16
#     4   8  16  30  52  84 110 140 182 230 276 334
#     4  11  24  39  59  88 124 166 205 251 287 347
#     4  11  23  39  61  87 117 151 195 256 310 364
#     4  10  20  37  62  87 118 156 194 241 302 363
#     4  12  24  40  60  86 126 176 220 238 278 342
#     4  10  22  40  60  88 116 162 204 244 304 368
#     4  11  24  41  61  90 122 155 204 255 309 361
#
# _framework density 19.778421999999999
#
# number of rings (size 3 to 8) (size 9 to 14) (size 15 to 20)
#    0.000    1.455    0.909    4.909    2.545    4.364 
#    0.000    1.818    0.000    3.273    0.000    0.000 
#    0.000    0.000    0.000    0.000    0.000    0.000 
#
# Total GULP energy -545496.192647 kJ/mol
# GULP energy per Si atom -12397.640742 kJ/mol
# Density = 1.973341 g / cm^3
# Si number density = 19.778422 Si / 1000 Ang^3
#
#
#
# Elastic Constant Matrix: (Units=GPa)
#
#
# Indices 1 2 3 4 5 6 
#
# 1 103.9481 13.8100 42.7523 0.0000 0.0000 0.0000
# 2 13.8100 90.7417 9.7730 0.0000 0.0000 0.0000
# 3 42.7523 9.7730 104.0415 0.0000 0.0000 0.0000
# 4 0.0000 0.0000 0.0000 27.2884 0.0000 0.0000
# 5 0.0000 0.0000 0.0000 0.0000 21.1120 0.0000
# 6 0.0000 0.0000 0.0000 0.0000 0.0000 28.3029
#
#
#
# Elastic Compliance Matrix: (Units=1/GPa)
#
#
# Indices 1 2 3 4 5 6 
#
# 1 0.011722 -0.001278 -0.004697 0.000000 0.000000 0.000000
# 2 -0.001278 0.011272 -0.000534 0.000000 0.000000 0.000000
# 3 -0.004697 -0.000534 0.011592 0.000000 0.000000 0.000000
# 4 0.000000 0.000000 0.000000 0.036646 0.000000 0.000000
# 5 0.000000 0.000000 0.000000 0.000000 0.047366 0.000000
# 6 0.000000 0.000000 0.000000 0.000000 0.000000 0.035332
#
#
# Mechanical properties :
#
#
# Convention : Reuss Voigt Hill
#
# Bulk Modulus (GPa) = 46.36310 47.93353 47.14832
# Shear Modulus (GPa) = 28.71325 30.83373 29.77349
#
# Velocity S-wave (km/s) = 3.81431 3.95265 3.88410
# Velocity P-wave (km/s) = 6.54911 6.71708 6.63362
#
# Compressibility (1/GPa) = 0.02156888
#
# Stress axis : x y z
#
# Youngs Moduli (GPa) = 85.31266 88.71315 86.26974
#
# Poissons Ratio (x) = 0.11338 0.40517
# Poissons Ratio (y) = 0.10904 0.04604
# Poissons Ratio (z) = 0.40067 0.04734
#
# Static dielectric constant tensor:
#      x y z
#    x 3.394130 0.000000 0.000000 
#    y 0.000000 3.697490 0.000000 
#    z 0.000000 0.000000 3.900610 
# 
# 
# High freq. dielectric constant tensor:
#      x y z
#    x 1.750860 0.000000 0.000000 
#    y 0.000000 1.790790 0.000000 
#    z 0.000000 0.000000 1.773320 
# 
# From -- ./inp_files/33040.got.cif
#   From: 2010.03.12/outbox.cif.g09.slc.cpg/sg73_17_cif.got.tgz:33040.got - 2010.04.16 15:25:48.
