data_PCOD8295431
_publ_section_title
;
Structure prediction by ZEFSAII (Michael W. Deem and Ramdas Pophale) SiO2 
 PCOD8295431
Probable space group: I B A M
;
_chemical_formula_sum "Si O2"
_cell_formula_units_Z 64
_cell_length_a 12.894775
_cell_length_b 10.167750
_cell_length_c 22.721399
_cell_angle_alpha 90.000000
_cell_angle_beta 90.000000
_cell_angle_gamma 90.000000
_cell_volume 2979.021902
_symmetry_space_group_name_H-M "I B A M"
_symmetry_group_IT_number 72
_symmetry_cell_setting 'orthorhombic'
loop_
_space_group_symop_operation_xyz
x,y,z
-x,-y,z
x,-y,1/2-z
-x,y,1/2-z
-x,-y,-z
x,y,-z
-x,y,1/2+z
x,-y,1/2+z
1/2+x,1/2+y,1/2+z
1/2-x,1/2-y,1/2+z
1/2+x,1/2-y,-z
1/2-x,1/2+y,-z
1/2-x,1/2-y,1/2-z
1/2+x,1/2+y,1/2-z
1/2-x,1/2+y,z
1/2+x,1/2-y,z
loop_
_atom_site_type_symbol
_atom_site_label
_atom_site_fract_x
_atom_site_fract_y
_atom_site_fract_z
Si Si1 0.756402 0.986119 0.148699
Si Si2 0.897199 0.585061 0.065170
Si Si3 0.079601 0.793838 0.332923
Si Si4 0.652068 0.262798 0.703899
O O1 0.872526 0.928941 0.141914
O O2 0.680304 0.883943 0.182719
O O3 0.704333 0.001740 0.084207
O O4 0.766320 0.127005 0.181121
O O5 0.910287 0.691010 0.115404
O O6 0.000000 0.500000 0.063486
O O7 0.877171 0.644730 0.000000
O O8 0.150174 0.760065 0.275070
O O9 0.960484 0.808629 0.317387
#
# Coordination Sequence:
#
# PCOD8295431 Si02
#       4
#    16  16  16  16
#     4  12  23  43  69 102 135 179 220 281 339 407
#     4  11  25  45  69  97 135 184 235 278 326 400
#     4  11  24  44  67 101 141 177 219 282 345 407
#     4  11  25  41  70 104 140 172 222 280 353 407
#
# _framework density 21.483561000000002
#
# number of rings (size 3 to 8) (size 9 to 14) (size 15 to 20)
#    0.000    0.750    5.000    2.250    3.500    3.000 
#    0.000    1.250    0.000    3.000    0.000    0.000 
#    0.000    0.000    0.000    0.000    0.000    0.000 
#
# Total GULP energy -396492.458678 kJ/mol
# GULP energy per Si atom -12390.389334 kJ/mol
# Density = 2.143466 g / cm^3
# Si number density = 21.483561 Si / 1000 Ang^3
#
#
#
# Elastic Constant Matrix: (Units=GPa)
#
#
# Indices 1 2 3 4 5 6 
#
# 1 66.8896 17.4295 49.3651 0.0000 0.0000 0.0000
# 2 17.4295 85.6612 53.2161 0.0000 0.0000 0.0000
# 3 49.3651 53.2161 161.6987 0.0000 0.0000 0.0000
# 4 0.0000 0.0000 0.0000 26.6594 0.0000 0.0000
# 5 0.0000 0.0000 0.0000 0.0000 95.2100 0.0000
# 6 0.0000 0.0000 0.0000 0.0000 0.0000 39.0987
#
#
#
# Elastic Compliance Matrix: (Units=1/GPa)
#
#
# Indices 1 2 3 4 5 6 
#
# 1 0.019306 -0.000335 -0.005784 0.000000 0.000000 0.000000
# 2 -0.000335 0.014680 -0.004729 0.000000 0.000000 0.000000
# 3 -0.005784 -0.004729 0.009506 0.000000 0.000000 0.000000
# 4 0.000000 0.000000 0.000000 0.037510 0.000000 0.000000
# 5 0.000000 0.000000 0.000000 0.000000 0.010503 0.000000
# 6 0.000000 0.000000 0.000000 0.000000 0.000000 0.025576
#
#
# Mechanical properties :
#
#
# Convention : Reuss Voigt Hill
#
# Bulk Modulus (GPa) = 45.87867 61.58565 53.73216
# Shear Modulus (GPa) = 34.23667 45.14287 39.68977
#
# Velocity S-wave (km/s) = 3.99635 4.58894 4.30286
# Velocity P-wave (km/s) = 6.53422 7.53701 7.05346
#
# Compressibility (1/GPa) = 0.02179662
#
# Stress axis : x y z
#
# Youngs Moduli (GPa) = 51.79838 68.12038 105.19321
#
# Poissons Ratio (x) = 0.02283 0.60839
# Poissons Ratio (y) = 0.01736 0.49745
# Poissons Ratio (z) = 0.29958 0.32214
#
# Static dielectric constant tensor:
#      x y z
#    x 6.982160 0.000000 0.000000 
#    y 0.000000 3.888530 0.000000 
#    z 0.000000 0.000000 4.225430 
# 
# 
# High freq. dielectric constant tensor:
#      x y z
#    x 1.877940 0.000000 0.000000 
#    y 0.000000 1.840990 0.000000 
#    z 0.000000 0.000000 1.828620 
# 
# From -- ./inp_files/43920.got.cif
#   From: 2010.03.12/outbox.cif.g09.slc.cpg/sg72_22_cif.got.tgz:43920.got - 2010.04.16 14:54:00.
