data_PCOD8295346
_publ_section_title
;
Structure prediction by ZEFSAII (Michael W. Deem and Ramdas Pophale) SiO2 
 PCOD8295346
Probable space group: I B A M
;
_chemical_formula_sum "Si O2"
_cell_formula_units_Z 88
_cell_length_a 11.658332
_cell_length_b 14.045506
_cell_length_c 24.967606
_cell_angle_alpha 90.000000
_cell_angle_beta 90.000000
_cell_angle_gamma 90.000000
_cell_volume 4088.374876
_symmetry_space_group_name_H-M "I B A M"
_symmetry_group_IT_number 72
_symmetry_cell_setting 'orthorhombic'
loop_
_space_group_symop_operation_xyz
x,y,z
-x,-y,z
x,-y,1/2-z
-x,y,1/2-z
-x,-y,-z
x,y,-z
-x,y,1/2+z
x,-y,1/2+z
1/2+x,1/2+y,1/2+z
1/2-x,1/2-y,1/2+z
1/2+x,1/2-y,-z
1/2-x,1/2+y,-z
1/2-x,1/2-y,1/2-z
1/2+x,1/2+y,1/2-z
1/2-x,1/2+y,z
1/2+x,1/2-y,z
loop_
_atom_site_type_symbol
_atom_site_label
_atom_site_fract_x
_atom_site_fract_y
_atom_site_fract_z
Si Si1 0.194544 0.503377 0.810372
Si Si2 0.004778 0.648411 0.189670
Si Si3 0.230258 0.447887 0.000000
Si Si4 0.375756 0.548104 0.600970
Si Si5 0.395721 0.123835 0.000000
Si Si6 0.662443 0.726705 0.500000
Si Si7 0.512473 0.741303 0.087406
O O1 0.241974 0.500000 0.750000
O O2 0.131685 0.604531 0.821895
O O3 0.303775 0.482423 0.847108
O O4 0.095133 0.427071 0.818231
O O5 0.977847 0.731505 0.147616
O O6 0.000000 0.690138 0.250000
O O7 0.303265 0.483802 0.949784
O O8 0.109906 0.508000 0.000000
O O9 0.197817 0.337677 0.000000
O O10 0.500000 0.500000 0.603964
O O11 0.388694 0.662264 0.593834
O O12 0.451850 0.164667 0.054014
O O13 0.266428 0.157231 0.000000
O O14 0.593436 0.698601 0.446009
#
# Coordination Sequence:
#
# PCOD8295346 Si02
#       7
#    16  16   8  16   8   8  16
#     4   9  20  42  66  89 122 165 214 269 315 381
#     4   9  19  40  67  92 118 159 220 276 321 357
#     4  12  22  40  68  87 123 176 208 261 318 364
#     4  12  24  41  60  92 132 173 206 248 330 400
#     4  11  23  40  62  92 128 162 213 256 310 382
#     4  11  22  41  62  91 134 165 214 261 305 389
#     4  11  23  38  60  95 128 162 210 264 316 377
#
# _framework density 21.524443999999999
#
# number of rings (size 3 to 8) (size 9 to 14) (size 15 to 20)
#    0.000    1.455    1.818    5.182    0.000    3.273 
#    3.273    1.818    0.000    0.000    0.000    0.000 
#    0.000    0.000    0.000    0.000    0.000    0.000 
#
# Total GULP energy -545417.486869 kJ/mol
# GULP energy per Si atom -12395.851974 kJ/mol
# Density = 2.147545 g / cm^3
# Si number density = 21.524444 Si / 1000 Ang^3
#
#
#
# Elastic Constant Matrix: (Units=GPa)
#
#
# Indices 1 2 3 4 5 6 
#
# 1 78.2836 -20.4686 37.6083 0.0000 0.0000 0.0000
# 2 -20.4686 26.1221 13.7481 0.0000 0.0000 0.0000
# 3 37.6083 13.7481 145.3610 0.0000 0.0000 0.0000
# 4 0.0000 0.0000 0.0000 28.1456 0.0000 0.0000
# 5 0.0000 0.0000 0.0000 0.0000 -24.2230 0.0000
# 6 0.0000 0.0000 0.0000 0.0000 0.0000 26.4438
#
#
#
# Elastic Compliance Matrix: (Units=1/GPa)
#
#
# Indices 1 2 3 4 5 6 
#
# 1 0.022076 0.021368 -0.007732 0.000000 0.000000 0.000000
# 2 0.021368 0.060969 -0.011295 0.000000 0.000000 0.000000
# 3 -0.007732 -0.011295 0.009948 0.000000 0.000000 0.000000
# 4 0.000000 0.000000 0.000000 0.035530 0.000000 0.000000
# 5 0.000000 0.000000 0.000000 0.000000 -0.041283 0.000000
# 6 0.000000 0.000000 0.000000 0.000000 0.000000 0.037816
#
#
# Mechanical properties :
#
#
# Convention : Reuss Voigt Hill
#
# Bulk Modulus (GPa) = 10.23813 34.61581 22.42697
# Shear Modulus (GPa) = 32.69408 20.66520 26.67964
#
# Velocity S-wave (km/s) = 3.90157 3.10188 3.52448
# Velocity P-wave (km/s) = 5.00631 5.38014 5.19659
#
# Compressibility (1/GPa) = 0.09767405
#
# Stress axis : x y z
#
# Youngs Moduli (GPa) = 45.29860 16.40172 100.52036
#
# Poissons Ratio (x) = -0.35046 0.77727
# Poissons Ratio (y) = -0.96792 1.13535
# Poissons Ratio (z) = 0.35027 0.18525
#
# Static dielectric constant tensor:
#      x y z
#    x 3.958540 0.000000 0.000000 
#    y 0.000000 3.905610 0.000000 
#    z 0.000000 0.000000 4.133490 
# 
# 
# High freq. dielectric constant tensor:
#      x y z
#    x 1.846780 0.000000 0.000000 
#    y 0.000000 1.836400 0.000000 
#    z 0.000000 0.000000 1.852740 
# 
# From -- ./inp_files/43252.got.cif
#   From: 2010.03.12/outbox.cif.g09.slc.cpg/sg72_22_cif.got.tgz:43252.got - 2010.04.16 14:54:00.
