data_PCOD8295414
_publ_section_title
;
Structure prediction by ZEFSAII (Michael W. Deem and Ramdas Pophale) SiO2 
 PCOD8295414
Probable space group: I B A M
;
_chemical_formula_sum "Si O2"
_cell_formula_units_Z 116
_cell_length_a 19.682525
_cell_length_b 23.272608
_cell_length_c 13.247915
_cell_angle_alpha 90.000000
_cell_angle_beta 90.000000
_cell_angle_gamma 90.000000
_cell_volume 6068.388813
_symmetry_space_group_name_H-M "I B A M"
_symmetry_group_IT_number 72
_symmetry_cell_setting 'orthorhombic'
loop_
_space_group_symop_operation_xyz
x,y,z
-x,-y,z
x,-y,1/2-z
-x,y,1/2-z
-x,-y,-z
x,y,-z
-x,y,1/2+z
x,-y,1/2+z
1/2+x,1/2+y,1/2+z
1/2-x,1/2-y,1/2+z
1/2+x,1/2-y,-z
1/2-x,1/2+y,-z
1/2-x,1/2-y,1/2-z
1/2+x,1/2+y,1/2-z
1/2-x,1/2+y,z
1/2+x,1/2-y,z
loop_
_atom_site_type_symbol
_atom_site_label
_atom_site_fract_x
_atom_site_fract_y
_atom_site_fract_z
Si Si1 0.546218 0.789800 0.119305
Si Si2 0.727593 0.065520 0.276110
Si Si3 0.709868 0.843487 0.382320
Si Si4 0.187715 0.251213 0.381142
Si Si5 0.911253 0.582124 0.382779
Si Si6 0.900957 0.253500 0.380006
Si Si7 0.199949 0.841332 0.619373
Si Si8 0.000000 0.500000 0.250000
O O1 0.611317 0.755096 0.165837
O O2 0.558029 0.856096 0.145294
O O3 0.475561 0.765896 0.167498
O O4 0.542792 0.779922 0.000000
O O5 0.706990 0.095134 0.170939
O O6 0.667674 0.074510 0.356443
O O7 0.793758 0.097167 0.324488
O O8 0.745210 0.000000 0.250000
O O9 0.701803 0.855715 0.500000
O O10 0.781287 0.811328 0.358218
O O11 0.649201 0.803468 0.341414
O O12 0.182416 0.261968 0.500000
O O13 0.236910 0.301966 0.340711
O O14 0.920319 0.569264 0.500000
O O15 0.952424 0.536377 0.320785
O O16 0.903728 0.257098 0.500000
O O17 0.869983 0.191203 0.349474
O O18 0.202773 0.850679 0.500000
#
# Coordination Sequence:
#
# PCOD8295414 Si02
#       8
#    16  16  16  16  16  16  16   4
#     4   9  16  30  55  82 110 141 172 222 288 350
#     4  12  24  37  53  79 105 150 205 226 266 330
#     4   9  20  36  52  75 109 141 175 232 283 327
#     4   8  14  29  53  78 106 140 173 217 290 350
#     4  11  24  41  57  78 114 151 190 238 273 318
#     4   8  16  30  54  84 108 138 176 227 294 345
#     4   9  17  34  55  77 109 142 180 231 285 340
#     4  12  26  44  52  78 104 160 210 226 262 314
#
# _framework density 19.115452999999999
#
# number of rings (size 3 to 8) (size 9 to 14) (size 15 to 20)
#    0.000    2.483    2.069    2.276    1.931    3.310 
#    0.000    0.000    0.000    0.000    0.000    1.931 
#    0.000    5.517    0.000    0.000    0.000    0.000 
#
# Total GULP energy -719056.044768 kJ/mol
# GULP energy per Si atom -12397.518013 kJ/mol
# Density = 1.907195 g / cm^3
# Si number density = 19.115453 Si / 1000 Ang^3
#
#
#
# Elastic Constant Matrix: (Units=GPa)
#
#
# Indices 1 2 3 4 5 6 
#
# 1 120.2305 57.0359 33.7848 0.0000 0.0000 0.0000
# 2 57.0359 126.2500 48.5204 0.0000 0.0000 0.0000
# 3 33.7848 48.5204 60.3815 0.0000 0.0000 0.0000
# 4 0.0000 0.0000 0.0000 30.1790 0.0000 0.0000
# 5 0.0000 0.0000 0.0000 0.0000 24.4815 0.0000
# 6 0.0000 0.0000 0.0000 0.0000 0.0000 26.9554
#
#
#
# Elastic Compliance Matrix: (Units=1/GPa)
#
#
# Indices 1 2 3 4 5 6 
#
# 1 0.010978 -0.003760 -0.003121 0.000000 0.000000 0.000000
# 2 -0.003760 0.012748 -0.008140 0.000000 0.000000 0.000000
# 3 -0.003121 -0.008140 0.024849 0.000000 0.000000 0.000000
# 4 0.000000 0.000000 0.000000 0.033136 0.000000 0.000000
# 5 0.000000 0.000000 0.000000 0.000000 0.040847 0.000000
# 6 0.000000 0.000000 0.000000 0.000000 0.000000 0.037098
#
#
# Mechanical properties :
#
#
# Convention : Reuss Voigt Hill
#
# Bulk Modulus (GPa) = 53.95908 65.06047 59.50978
# Shear Modulus (GPa) = 25.52648 27.49122 26.50885
#
# Velocity S-wave (km/s) = 3.65826 3.79643 3.72798
# Velocity P-wave (km/s) = 6.79213 7.30251 7.05194
#
# Compressibility (1/GPa) = 0.01853256
#
# Stress axis : x y z
#
# Youngs Moduli (GPa) = 91.09031 78.44494 40.24384
#
# Poissons Ratio (x) = 0.29496 0.12560
# Poissons Ratio (y) = 0.34251 0.32758
# Poissons Ratio (z) = 0.28429 0.63853
#
# Static dielectric constant tensor:
#      x y z
#    x 3.818620 0.000000 0.000000 
#    y 0.000000 3.292520 0.000000 
#    z 0.000000 0.000000 3.575560 
# 
# 
# High freq. dielectric constant tensor:
#      x y z
#    x 1.729300 0.000000 0.000000 
#    y 0.000000 1.708500 0.000000 
#    z 0.000000 0.000000 1.773840 
# 
# From -- ./inp_files/23540.got.cif
#   From: 2010.03.12/outbox.cif.g09.slc.cpg/sg72_12_cif.got.tgz:23540.got - 2010.04.16 14:54:00.
