data_PCOD8295664
_publ_section_title
;
Structure prediction by ZEFSAII (Michael W. Deem and Ramdas Pophale) SiO2 
 PCOD8295664
Probable space group: I B C A 
;
_chemical_formula_sum "Si O2"
_cell_formula_units_Z 80
_cell_length_a 27.349400
_cell_length_b 14.497301
_cell_length_c 9.661486
_cell_angle_alpha 90.000000
_cell_angle_beta 90.000000
_cell_angle_gamma 90.000000
_cell_volume 3830.706583
_symmetry_space_group_name_H-M "I B C A "
_symmetry_group_IT_number 73
_symmetry_cell_setting 'orthorhombic'
loop_
_space_group_symop_operation_xyz
x,y,z
-x,1/2-y,z
x,-y,1/2-z
1/2-x,y,-z
-x,-y,-z
x,1/2+y,-z
-x,y,1/2+z
1/2+x,-y,z
1/2+x,1/2+y,1/2+z
1/2-x,-y,1/2+z
1/2+x,1/2-y,-z
-x,1/2+y,1/2-z
1/2-x,1/2-y,1/2-z
1/2+x,y,1/2-z
1/2-x,1/2+y,z
x,1/2-y,1/2+z
loop_
_atom_site_type_symbol
_atom_site_label
_atom_site_fract_x
_atom_site_fract_y
_atom_site_fract_z
Si Si1 0.792446 0.481400 0.903604
Si Si2 0.455479 0.075545 0.138148
Si Si3 0.637146 0.320099 0.170103
Si Si4 0.937763 0.545525 0.114817
Si Si5 0.351676 0.153373 0.483593
O O1 0.771211 0.500000 0.750000
O O2 0.837823 0.412580 0.888338
O O3 0.810891 0.573591 0.982252
O O4 0.750000 0.438690 0.000000
O O5 0.421241 0.166409 0.148533
O O6 0.512666 0.098970 0.164430
O O7 0.436456 0.000000 0.250000
O O8 0.451567 0.038929 0.983017
O O9 0.645776 0.302839 0.331646
O O10 0.661556 0.234597 0.090062
O O11 0.912035 0.500000 0.250000
O O12 0.903638 0.615878 0.034156
#
# Coordination Sequence:
#
# PCOD8295664 Si02
#       5
#    16  16  16  16  16
#     4  10  23  45  68  88 119 157 199 256 318 372
#     4  10  18  39  61  84 126 168 203 252 301 353
#     4  11  23  41  63  89 127 164 202 254 310 365
#     4  10  21  34  62  92 120 165 212 247 297 356
#     4  11  24  41  62  93 126 164 205 251 307 370
#
# _framework density 20.883875
#
# number of rings (size 3 to 8) (size 9 to 14) (size 15 to 20)
#    0.000    1.600    4.000    0.600    2.800    4.000 
#    0.000    6.000    0.000    0.000    0.000    0.000 
#    0.000    0.000    0.000    0.000    0.000    0.000 
#
# Total GULP energy -495939.715441 kJ/mol
# GULP energy per Si atom -12398.492886 kJ/mol
# Density = 2.083634 g / cm^3
# Si number density = 20.883875 Si / 1000 Ang^3
#
#
#
# Elastic Constant Matrix: (Units=GPa)
#
#
# Indices 1 2 3 4 5 6 
#
# 1 72.9428 16.0074 39.9773 0.0000 0.0000 0.0000
# 2 16.0074 73.5742 51.3013 0.0000 0.0000 0.0000
# 3 39.9773 51.3013 137.0676 0.0000 0.0000 0.0000
# 4 0.0000 0.0000 0.0000 42.7214 0.0000 0.0000
# 5 0.0000 0.0000 0.0000 0.0000 35.2264 0.0000
# 6 0.0000 0.0000 0.0000 0.0000 0.0000 11.6350
#
#
#
# Elastic Compliance Matrix: (Units=1/GPa)
#
#
# Indices 1 2 3 4 5 6 
#
# 1 0.016323 -0.000314 -0.004643 0.000000 0.000000 0.000000
# 2 -0.000314 0.018397 -0.006794 0.000000 0.000000 0.000000
# 3 -0.004643 -0.006794 0.011193 0.000000 0.000000 0.000000
# 4 0.000000 0.000000 0.000000 0.023407 0.000000 0.000000
# 5 0.000000 0.000000 0.000000 0.000000 0.028388 0.000000
# 6 0.000000 0.000000 0.000000 0.000000 0.000000 0.085947
#
#
# Mechanical properties :
#
#
# Convention : Reuss Voigt Hill
#
# Bulk Modulus (GPa) = 44.62142 55.35073 49.98608
# Shear Modulus (GPa) = 23.29602 29.66980 26.48291
#
# Velocity S-wave (km/s) = 3.34354 3.77331 3.56491
# Velocity P-wave (km/s) = 6.02648 6.74874 6.39781
#
# Compressibility (1/GPa) = 0.02241076
#
# Stress axis : x y z
#
# Youngs Moduli (GPa) = 61.26289 54.35545 89.34232
#
# Poissons Ratio (x) = 0.01705 0.41485
# Poissons Ratio (y) = 0.01922 0.60701
# Poissons Ratio (z) = 0.28447 0.36930
#
# Static dielectric constant tensor:
#      x y z
#    x 3.704080 0.000000 0.000000 
#    y 0.000000 3.511100 0.000000 
#    z 0.000000 0.000000 3.981090 
# 
# 
# High freq. dielectric constant tensor:
#      x y z
#    x 1.808120 0.000000 0.000000 
#    y 0.000000 1.784800 0.000000 
#    z 0.000000 0.000000 1.836570 
# 
# From -- ./inp_files/7694.got.cif
#   From: 2010.03.12/outbox.cif.g09.slc.cpg/sg73_4_cif.got.tgz:7694.got - 2010.04.16 15:25:48.
