data_PCOD8295280
_publ_section_title
;
Structure prediction by ZEFSAII (Michael W. Deem and Ramdas Pophale) SiO2 
 PCOD8295280
Probable space group: I B A M
;
_chemical_formula_sum "Si O2"
_cell_formula_units_Z 64
_cell_length_a 27.621162
_cell_length_b 14.535912
_cell_length_c 8.336098
_cell_angle_alpha 90.000000
_cell_angle_beta 90.000000
_cell_angle_gamma 90.000000
_cell_volume 3346.933178
_symmetry_space_group_name_H-M "I B A M"
_symmetry_group_IT_number 72
_symmetry_cell_setting 'orthorhombic'
loop_
_space_group_symop_operation_xyz
x,y,z
-x,-y,z
x,-y,1/2-z
-x,y,1/2-z
-x,-y,-z
x,y,-z
-x,y,1/2+z
x,-y,1/2+z
1/2+x,1/2+y,1/2+z
1/2-x,1/2-y,1/2+z
1/2+x,1/2-y,-z
1/2-x,1/2+y,-z
1/2-x,1/2-y,1/2-z
1/2+x,1/2+y,1/2-z
1/2-x,1/2+y,z
1/2+x,1/2-y,z
loop_
_atom_site_type_symbol
_atom_site_label
_atom_site_fract_x
_atom_site_fract_y
_atom_site_fract_z
Si Si1 0.777444 0.096761 0.186085
Si Si2 0.327100 0.899445 0.313225
Si Si3 0.139144 0.217544 0.814493
Si Si4 0.553665 0.599674 0.190169
O O1 0.729165 0.123615 0.281895
O O2 0.818199 0.172940 0.209883
O O3 0.798282 0.000000 0.250000
O O4 0.763755 0.088414 0.000000
O O5 0.338223 0.892962 0.500000
O O6 0.360751 0.826309 0.220741
O O7 0.340870 0.000000 0.250000
O O8 0.087615 0.177753 0.763151
O O9 0.148863 0.197282 0.000000
O O10 0.571397 0.500000 0.250000
O O11 0.500000 0.621082 0.250000
O O12 0.555785 0.601944 0.000000
#
# Coordination Sequence:
#
# PCOD8295280 Si02
#       4
#    16  16  16  16
#     4  11  21  35  53  79 112 148 185 227 273 326
#     4  11  22  38  56  79 109 146 186 229 274 323
#     4  12  23  37  56  81 110 146 186 228 272 324
#     4  11  22  39  60  86 115 146 179 221 272 328
#
# _framework density 19.121983
#
# number of rings (size 3 to 8) (size 9 to 14) (size 15 to 20)
#    0.000    0.750    0.000   12.750    0.000    0.000 
#    0.000    0.000    0.000    0.750    0.000    5.250 
#    0.000    0.000    0.000    0.000    0.000    0.000 
#
# Total GULP energy -397046.454941 kJ/mol
# GULP energy per Si atom -12407.701717 kJ/mol
# Density = 1.907846 g / cm^3
# Si number density = 19.121983 Si / 1000 Ang^3
#
#
#
# Elastic Constant Matrix: (Units=GPa)
#
#
# Indices 1 2 3 4 5 6 
#
# 1 79.5259 66.2598 16.3075 0.0000 0.0000 0.0000
# 2 66.2598 125.7481 22.7203 0.0000 0.0000 0.0000
# 3 16.3075 22.7203 120.3926 0.0000 0.0000 0.0000
# 4 0.0000 0.0000 0.0000 33.6515 0.0000 0.0000
# 5 0.0000 0.0000 0.0000 0.0000 28.8379 0.0000
# 6 0.0000 0.0000 0.0000 0.0000 0.0000 33.1574
#
#
#
# Elastic Compliance Matrix: (Units=1/GPa)
#
#
# Indices 1 2 3 4 5 6 
#
# 1 0.022497 -0.011703 -0.000839 0.000000 0.000000 0.000000
# 2 -0.011703 0.014321 -0.001117 0.000000 0.000000 0.000000
# 3 -0.000839 -0.001117 0.008631 0.000000 0.000000 0.000000
# 4 0.000000 0.000000 0.000000 0.029716 0.000000 0.000000
# 5 0.000000 0.000000 0.000000 0.000000 0.034677 0.000000
# 6 0.000000 0.000000 0.000000 0.000000 0.000000 0.030159
#
#
# Mechanical properties :
#
#
# Convention : Reuss Voigt Hill
#
# Bulk Modulus (GPa) = 55.15525 59.58244 57.36884
# Shear Modulus (GPa) = 28.84139 33.82128 31.33133
#
# Velocity S-wave (km/s) = 3.88788 4.21017 4.05223
# Velocity P-wave (km/s) = 7.00433 7.40681 7.20838
#
# Compressibility (1/GPa) = 0.01813064
#
# Stress axis : x y z
#
# Youngs Moduli (GPa) = 44.45026 69.82870 115.86613
#
# Poissons Ratio (x) = 0.81719 0.09719
# Poissons Ratio (y) = 0.52019 0.12947
# Poissons Ratio (z) = 0.03728 0.07803
#
# Static dielectric constant tensor:
#      x y z
#    x 3.239990 0.000000 0.000000 
#    y 0.000000 3.689380 0.000000 
#    z 0.000000 0.000000 3.645570 
# 
# 
# High freq. dielectric constant tensor:
#      x y z
#    x 1.716810 0.000000 0.000000 
#    y 0.000000 1.747840 0.000000 
#    z 0.000000 0.000000 1.769660 
# 
# From -- ./inp_files/2623.got.cif
#   From: 2010.03.12/outbox.cif.g09.slc.cpg/sg72_2_cif.got.tgz:2623.got - 2010.04.16 14:54:00.
