data_PCOD8295516
_publ_section_title
;
Structure prediction by ZEFSAII (Michael W. Deem and Ramdas Pophale) SiO2 
 PCOD8295516
Probable space group: I B C A 
;
_chemical_formula_sum "Si O2"
_cell_formula_units_Z 64
_cell_length_a 17.465712
_cell_length_b 5.218573
_cell_length_c 38.593792
_cell_angle_alpha 90.000000
_cell_angle_beta 90.000000
_cell_angle_gamma 90.000000
_cell_volume 3517.673358
_symmetry_space_group_name_H-M "I B C A "
_symmetry_group_IT_number 73
_symmetry_cell_setting 'orthorhombic'
loop_
_space_group_symop_operation_xyz
x,y,z
-x,1/2-y,z
x,-y,1/2-z
1/2-x,y,-z
-x,-y,-z
x,1/2+y,-z
-x,y,1/2+z
1/2+x,-y,z
1/2+x,1/2+y,1/2+z
1/2-x,-y,1/2+z
1/2+x,1/2-y,-z
-x,1/2+y,1/2-z
1/2-x,1/2-y,1/2-z
1/2+x,y,1/2-z
1/2-x,1/2+y,z
x,1/2-y,1/2+z
loop_
_atom_site_type_symbol
_atom_site_label
_atom_site_fract_x
_atom_site_fract_y
_atom_site_fract_z
Si Si1 0.800335 0.279086 0.165622
Si Si2 0.296554 0.206552 0.410089
Si Si3 0.662781 0.727018 0.514828
Si Si4 0.589848 0.750006 0.728787
O O1 0.762119 0.556186 0.171164
O O2 0.837298 0.257793 0.126946
O O3 0.869521 0.246522 0.191936
O O4 0.226334 0.408027 0.412042
O O5 0.347465 0.264642 0.443669
O O6 0.750000 0.721494 0.500000
O O7 0.620316 0.472533 0.501473
O O8 0.500000 0.750000 0.721459
O O9 0.615562 0.500000 0.750000
O O10 0.615515 0.000000 0.750000
#
# Coordination Sequence:
#
# PCOD8295516 Si02
#       4
#    16  16  16  16
#     4  10  21  32  48  73 101 127 150 197 243 288
#     4  10  16  25  36  57  89 119 146 180 229 271
#     4  10  14  20  34  52  77 118 148 178 211 268
#     4  10  21  37  55  72  93 124 163 199 232 282
#
# _framework density 18.193843999999999
#
# number of rings (size 3 to 8) (size 9 to 14) (size 15 to 20)
#    0.000    2.000    5.000    1.500    0.000    3.000 
#    0.000    0.000    0.000    0.000    0.000    0.000 
#    0.000    2.000    0.000    0.000    0.000   10.000 
#
# Total GULP energy -396487.916876 kJ/mol
# GULP energy per Si atom -12390.247402 kJ/mol
# Density = 1.815243 g / cm^3
# Si number density = 18.193844 Si / 1000 Ang^3
#
#
#
# Elastic Constant Matrix: (Units=GPa)
#
#
# Indices 1 2 3 4 5 6 
#
# 1 17.1508 10.1391 37.3053 0.0000 0.0000 0.0000
# 2 10.1391 140.3708 44.8694 0.0000 0.0000 0.0000
# 3 37.3053 44.8694 183.9651 0.0000 0.0000 0.0000
# 4 0.0000 0.0000 0.0000 29.9454 0.0000 0.0000
# 5 0.0000 0.0000 0.0000 0.0000 1.7875 0.0000
# 6 0.0000 0.0000 0.0000 0.0000 0.0000 3.9451
#
#
#
# Elastic Compliance Matrix: (Units=1/GPa)
#
#
# Indices 1 2 3 4 5 6 
#
# 1 0.104411 -0.000839 -0.020968 0.000000 0.000000 0.000000
# 2 -0.000839 0.007733 -0.001716 0.000000 0.000000 0.000000
# 3 -0.020968 -0.001716 0.010106 0.000000 0.000000 0.000000
# 4 0.000000 0.000000 0.000000 0.033394 0.000000 0.000000
# 5 0.000000 0.000000 0.000000 0.000000 0.559448 0.000000
# 6 0.000000 0.000000 0.000000 0.000000 0.000000 0.253480
#
#
# Mechanical properties :
#
#
# Convention : Reuss Voigt Hill
#
# Bulk Modulus (GPa) = 13.29717 58.45713 35.87715
# Shear Modulus (GPa) = 4.80452 23.74713 14.27582
#
# Velocity S-wave (km/s) = 1.62680 3.61671 2.80420
# Velocity P-wave (km/s) = 3.29440 7.04562 5.49972
#
# Compressibility (1/GPa) = 0.07520397
#
# Stress axis : x y z
#
# Youngs Moduli (GPa) = 9.57750 129.31423 98.94739
#
# Poissons Ratio (x) = 0.10852 2.07476
# Poissons Ratio (y) = 0.00804 0.16979
# Poissons Ratio (z) = 0.20082 0.22190
#
# Static dielectric constant tensor:
#      x y z
#    x 2.529970 0.000000 0.000000 
#    y 0.000000 4.731980 0.000000 
#    z 0.000000 0.000000 3.717020 
# 
# 
# High freq. dielectric constant tensor:
#      x y z
#    x 1.606400 0.000000 0.000000 
#    y 0.000000 1.744110 0.000000 
#    z 0.000000 0.000000 1.730680 
# 
# From -- ./inp_files/1761.got.cif
#   From: 2010.03.12/outbox.cif.g09.slc.cpg/sg73_1_cif.got.tgz:1761.got - 2010.04.16 15:25:48.
