data_PCOD8295140
_publ_section_title
;
Structure prediction by ZEFSAII (Michael W. Deem and Ramdas Pophale) SiO2 
 PCOD8295140
Probable space group: I B A M
;
_chemical_formula_sum "Si O2"
_cell_formula_units_Z 64
_cell_length_a 8.153444
_cell_length_b 19.513675
_cell_length_c 18.983628
_cell_angle_alpha 90.000000
_cell_angle_beta 90.000000
_cell_angle_gamma 90.000000
_cell_volume 3020.364626
_symmetry_space_group_name_H-M "I B A M"
_symmetry_group_IT_number 72
_symmetry_cell_setting 'orthorhombic'
loop_
_space_group_symop_operation_xyz
x,y,z
-x,-y,z
x,-y,1/2-z
-x,y,1/2-z
-x,-y,-z
x,y,-z
-x,y,1/2+z
x,-y,1/2+z
1/2+x,1/2+y,1/2+z
1/2-x,1/2-y,1/2+z
1/2+x,1/2-y,-z
1/2-x,1/2+y,-z
1/2-x,1/2-y,1/2-z
1/2+x,1/2+y,1/2-z
1/2-x,1/2+y,z
1/2+x,1/2-y,z
loop_
_atom_site_type_symbol
_atom_site_label
_atom_site_fract_x
_atom_site_fract_y
_atom_site_fract_z
Si Si1 0.198406 0.672902 0.579117
Si Si2 0.652772 0.050193 0.823381
Si Si3 0.415744 0.680786 0.919310
Si Si4 0.844964 0.074838 0.698317
O O1 0.133597 0.666312 0.500000
O O2 0.126576 0.607301 0.618182
O O3 0.392024 0.671328 0.583982
O O4 0.130701 0.744178 0.610106
O O5 0.680785 0.086692 0.747056
O O6 0.500000 0.000000 0.826119
O O7 0.821480 0.003299 0.832390
O O8 0.334698 0.626151 0.867191
O O9 0.351081 0.670638 0.000000
O O10 0.000000 0.086393 0.750000
#
# Coordination Sequence:
#
# PCOD8295140 Si02
#       4
#    16  16  16  16
#     4  10  23  43  65  95 129 169 216 263 318 381
#     4  11  24  41  64  94 132 168 210 267 322 375
#     4  10  23  43  67  94 128 168 215 266 317 380
#     4  11  22  42  64  91 128 168 211 263 317 384
#
# _framework density 21.189494
#
# number of rings (size 3 to 8) (size 9 to 14) (size 15 to 20)
#    0.000    1.500    2.500    3.000    3.500    2.500 
#    0.000    2.500    0.000    2.250    0.000    0.000 
#    0.000    0.000    0.000    0.000    0.000    0.000 
#
# Total GULP energy -396466.553189 kJ/mol
# GULP energy per Si atom -12389.579787 kJ/mol
# Density = 2.114127 g / cm^3
# Si number density = 21.189494 Si / 1000 Ang^3
#
#
#
# Elastic Constant Matrix: (Units=GPa)
#
#
# Indices 1 2 3 4 5 6 
#
# 1 49.5485 42.7278 37.4008 0.0000 0.0000 0.0000
# 2 42.7278 144.0698 100.6594 0.0000 0.0000 0.0000
# 3 37.4008 100.6594 117.0464 -0.0001 0.0000 -0.0001
# 4 0.0000 0.0000 -0.0001 187.6927 0.0000 -0.0001
# 5 0.0000 0.0000 0.0000 0.0000 24.0802 0.0000
# 6 0.0000 0.0000 -0.0001 -0.0001 0.0000 46.3335
#
#
#
# Elastic Compliance Matrix: (Units=1/GPa)
#
#
# Indices 1 2 3 4 5 6 
#
# 1 0.028045 -0.005152 -0.004531 0.000000 0.000000 0.000000
# 2 -0.005152 0.018337 -0.014123 0.000000 0.000000 0.000000
# 3 -0.004531 -0.014123 0.022137 0.000000 0.000000 0.000000
# 4 0.000000 0.000000 0.000000 0.005328 0.000000 0.000000
# 5 0.000000 0.000000 0.000000 0.000000 0.041528 0.000000
# 6 0.000000 0.000000 0.000000 0.000000 0.000000 0.021583
#
#
# Mechanical properties :
#
#
# Convention : Reuss Voigt Hill
#
# Bulk Modulus (GPa) = 47.83080 74.69342 61.26211
# Shear Modulus (GPa) = 26.10439 60.27970 43.19205
#
# Velocity S-wave (km/s) = 3.51372 5.33945 4.51973
# Velocity P-wave (km/s) = 6.25168 8.56386 7.49744
#
# Compressibility (1/GPa) = 0.02090703
#
# Stress axis : x y z
#
# Youngs Moduli (GPa) = 35.65703 54.53536 45.17247
#
# Poissons Ratio (x) = 0.28096 0.20467
# Poissons Ratio (y) = 0.18370 0.63798
# Poissons Ratio (z) = 0.16156 0.77022
#
# Static dielectric constant tensor:
#      x y z
#    x 4.202160 0.000000 0.000000 
#    y 0.000000 4.190500 0.000000 
#    z 0.000000 0.000000 4.080160 
# 
# 
# High freq. dielectric constant tensor:
#      x y z
#    x 1.841090 0.000000 0.000000 
#    y 0.000000 1.829410 0.000000 
#    z 0.000000 0.000000 1.821340 
# 
# From -- ./inp_files/32211.got.cif
#   From: 2010.03.12/outbox.cif.g09.slc.cpg/sg72_17_cif.got.tgz:32211.got - 2010.04.16 14:54:00.
