data_PCOD8295723
_publ_section_title
;
Structure prediction by ZEFSAII (Michael W. Deem and Ramdas Pophale) SiO2 
 PCOD8295723
Probable space group: I B C A 
;
_chemical_formula_sum "Si O2"
_cell_formula_units_Z 104
_cell_length_a 21.221903
_cell_length_b 13.339247
_cell_length_c 19.333941
_cell_angle_alpha 90.000000
_cell_angle_beta 90.000000
_cell_angle_gamma 90.000000
_cell_volume 5473.133335
_symmetry_space_group_name_H-M "I B C A "
_symmetry_group_IT_number 73
_symmetry_cell_setting 'orthorhombic'
loop_
_space_group_symop_operation_xyz
x,y,z
-x,1/2-y,z
x,-y,1/2-z
1/2-x,y,-z
-x,-y,-z
x,1/2+y,-z
-x,y,1/2+z
1/2+x,-y,z
1/2+x,1/2+y,1/2+z
1/2-x,-y,1/2+z
1/2+x,1/2-y,-z
-x,1/2+y,1/2-z
1/2-x,1/2-y,1/2-z
1/2+x,y,1/2-z
1/2-x,1/2+y,z
x,1/2-y,1/2+z
loop_
_atom_site_type_symbol
_atom_site_label
_atom_site_fract_x
_atom_site_fract_y
_atom_site_fract_z
Si Si1 0.190840 0.588675 0.048657
Si Si2 0.800656 0.391568 0.270215
Si Si3 0.239383 0.766049 0.355740
Si Si4 0.960370 0.450245 0.101154
Si Si5 0.579246 0.000000 0.250000
Si Si6 0.119803 0.277202 0.551723
Si Si7 0.410549 0.941413 0.026042
O O1 0.212961 0.648326 0.116608
O O2 0.152816 0.485329 0.063100
O O3 0.250000 0.563781 0.000000
O O4 0.138294 0.657380 0.013666
O O5 0.768656 0.500000 0.250000
O O6 0.773547 0.341819 0.341104
O O7 0.790860 0.308017 0.213127
O O8 0.875910 0.407958 0.274821
O O9 0.182990 0.746680 0.408133
O O10 0.962454 0.475973 0.182732
O O11 0.932554 0.337075 0.096371
O O12 0.030192 0.469582 0.073549
O O13 0.915156 0.519729 0.053414
O O14 0.089378 0.177546 0.522127
#
# Coordination Sequence:
#
# PCOD8295723 Si02
#       7
#    16  16  16  16   8  16  16
#     4   9  21  35  55  90 121 143 190 246 297 366
#     4   9  20  33  55  79 115 164 189 240 295 363
#     4  10  19  35  52  86 120 147 199 243 295 361
#     4  10  21  41  58  87 113 157 208 242 291 358
#     4  10  20  38  62  76 118 164 202 242 294 370
#     4  10  19  36  58  85 114 155 191 246 303 350
#     4  10  22  36  64  84 117 154 196 252 298 349
#
# _framework density 19.001912000000001
#
# number of rings (size 3 to 8) (size 9 to 14) (size 15 to 20)
#    0.462    1.846    1.538    0.462    4.308    1.846 
#    0.000    3.077    0.000    0.000    0.000    0.000 
#    0.000    0.000    0.000    0.000    0.000    0.000 
#
# Total GULP energy -644280.631541 kJ/mol
# GULP energy per Si atom -12390.012145 kJ/mol
# Density = 1.895866 g / cm^3
# Si number density = 19.001912 Si / 1000 Ang^3
#
#
#
# Elastic Constant Matrix: (Units=GPa)
#
#
# Indices 1 2 3 4 5 6 
#
# 1 69.6856 26.4370 21.2910 0.0000 0.0000 0.0000
# 2 26.4370 99.1955 29.4576 0.0000 0.0000 0.0000
# 3 21.2910 29.4576 74.6369 0.0000 0.0000 0.0000
# 4 0.0000 0.0000 0.0000 21.7912 0.0000 0.0000
# 5 0.0000 0.0000 0.0000 0.0000 21.1102 0.0000
# 6 0.0000 0.0000 0.0000 0.0000 0.0000 22.3260
#
#
#
# Elastic Compliance Matrix: (Units=1/GPa)
#
#
# Indices 1 2 3 4 5 6 
#
# 1 0.016695 -0.003438 -0.003405 0.000000 0.000000 0.000000
# 2 -0.003438 0.012128 -0.003806 0.000000 0.000000 0.000000
# 3 -0.003405 -0.003806 0.015872 0.000000 0.000000 0.000000
# 4 0.000000 0.000000 0.000000 0.045890 0.000000 0.000000
# 5 0.000000 0.000000 0.000000 0.000000 0.047370 0.000000
# 6 0.000000 0.000000 0.000000 0.000000 0.000000 0.044791
#
#
# Mechanical properties :
#
#
# Convention : Reuss Voigt Hill
#
# Bulk Modulus (GPa) = 42.74315 44.20993 43.47654
# Shear Modulus (GPa) = 23.60240 24.13431 23.86835
#
# Velocity S-wave (km/s) = 3.52818 3.56771 3.54800
# Velocity P-wave (km/s) = 6.25622 6.34728 6.30192
#
# Compressibility (1/GPa) = 0.02339556
#
# Stress axis : x y z
#
# Youngs Moduli (GPa) = 59.89823 82.45666 63.00530
#
# Poissons Ratio (x) = 0.28350 0.21456
# Poissons Ratio (y) = 0.20594 0.23978
# Poissons Ratio (z) = 0.20398 0.31381
#
# Static dielectric constant tensor:
#      x y z
#    x 3.415340 0.000000 0.000000 
#    y 0.000000 3.652530 0.000000 
#    z 0.000000 0.000000 3.413060 
# 
# 
# High freq. dielectric constant tensor:
#      x y z
#    x 1.729570 0.000000 0.000000 
#    y 0.000000 1.739720 0.000000 
#    z 0.000000 0.000000 1.723460 
# 
# From -- ./inp_files/23185.got.cif
#   From: 2010.03.12/outbox.cif.g09.slc.cpg/sg73_12_cif.got.tgz:23185.got - 2010.04.16 15:25:48.
