data_PCOD8295309
_publ_section_title
;
Structure prediction by ZEFSAII (Michael W. Deem and Ramdas Pophale) SiO2 
 PCOD8295309
Probable space group: I B A M
;
_chemical_formula_sum "Si O2"
_cell_formula_units_Z 92
_cell_length_a 22.222620
_cell_length_b 9.923706
_cell_length_c 19.606553
_cell_angle_alpha 90.000000
_cell_angle_beta 90.000000
_cell_angle_gamma 90.000000
_cell_volume 4323.847788
_symmetry_space_group_name_H-M "I B A M"
_symmetry_group_IT_number 72
_symmetry_cell_setting 'orthorhombic'
loop_
_space_group_symop_operation_xyz
x,y,z
-x,-y,z
x,-y,1/2-z
-x,y,1/2-z
-x,-y,-z
x,y,-z
-x,y,1/2+z
x,-y,1/2+z
1/2+x,1/2+y,1/2+z
1/2-x,1/2-y,1/2+z
1/2+x,1/2-y,-z
1/2-x,1/2+y,-z
1/2-x,1/2-y,1/2-z
1/2+x,1/2+y,1/2-z
1/2-x,1/2+y,z
1/2+x,1/2-y,z
loop_
_atom_site_type_symbol
_atom_site_label
_atom_site_fract_x
_atom_site_fract_y
_atom_site_fract_z
Si Si1 0.063090 0.527187 0.172836
Si Si2 0.000000 0.000000 0.750000
Si Si3 0.169163 0.402186 0.105714
Si Si4 0.410908 0.665749 0.348177
Si Si5 0.887520 0.889163 0.500000
Si Si6 0.171559 0.823530 0.500000
Si Si7 0.724426 0.370742 0.704515
Si Si8 0.810342 0.374045 0.000000
O O1 0.049166 0.500000 0.250000
O O2 0.113949 0.416161 0.157026
O O3 0.083265 0.676267 0.157244
O O4 0.000000 0.500000 0.132555
O O5 0.958368 0.908593 0.701105
O O6 0.155538 0.266182 0.065098
O O7 0.234175 0.385436 0.138636
O O8 0.167526 0.542004 0.064696
O O9 0.423394 0.626960 0.428070
O O10 0.343227 0.636463 0.323197
O O11 0.834877 0.777691 0.500000
O O12 0.865927 0.041563 0.500000
O O13 0.239743 0.866765 0.500000
O O14 0.731650 0.500000 0.750000
O O15 0.750000 0.250000 0.750000
#
# Coordination Sequence:
#
# PCOD8295309 Si02
#       8
#    16   4  16  16   8   8  16   8
#     4  11  24  46  73 100 140 192 246 297 363 447
#     4  12  28  50  74 100 156 190 250 318 376 454
#     4  11  24  43  70 104 141 188 246 295 366 434
#     4  12  26  49  73 107 146 201 247 315 386 446
#     4  12  26  43  74 103 149 191 250 310 381 448
#     4  11  25  39  68 103 144 191 233 298 374 447
#     4  12  26  42  71 110 151 192 248 309 366 446
#     4  11  21  45  65  98 143 194 227 301 371 439
#
# _framework density 21.277345
#
# number of rings (size 3 to 8) (size 9 to 14) (size 15 to 20)
#    0.000    0.522    2.609    6.783    4.870    3.130 
#    0.000    3.913    0.000    0.000    0.000    0.000 
#    0.000    0.000    0.000    0.000    0.000    0.000 
#
# Total GULP energy -570142.693789 kJ/mol
# GULP energy per Si atom -12394.406387 kJ/mol
# Density = 2.122892 g / cm^3
# Si number density = 21.277345 Si / 1000 Ang^3
#
#
#
# Elastic Constant Matrix: (Units=GPa)
#
#
# Indices 1 2 3 4 5 6 
#
# 1 124.1150 34.2356 47.5284 0.0000 0.0000 0.0000
# 2 34.2356 154.9770 55.9634 0.0000 0.0000 0.0000
# 3 47.5284 55.9634 136.8710 0.0000 0.0000 0.0000
# 4 0.0000 0.0000 0.0000 18.2978 0.0000 0.0000
# 5 0.0000 0.0000 0.0000 0.0000 20.5327 0.0000
# 6 0.0000 0.0000 0.0000 0.0000 0.0000 -208.5198
#
#
#
# Elastic Compliance Matrix: (Units=1/GPa)
#
#
# Indices 1 2 3 4 5 6 
#
# 1 0.009438 -0.001058 -0.002845 0.000000 0.000000 0.000000
# 2 -0.001058 0.007689 -0.002777 0.000000 0.000000 0.000000
# 3 -0.002845 -0.002777 0.009429 0.000000 0.000000 0.000000
# 4 0.000000 0.000000 0.000000 0.054651 0.000000 0.000000
# 5 0.000000 0.000000 0.000000 0.000000 0.048703 0.000000
# 6 0.000000 0.000000 0.000000 0.000000 0.000000 -0.004796
#
#
# Mechanical properties :
#
#
# Convention : Reuss Voigt Hill
#
# Bulk Modulus (GPa) = 75.76841 76.82421 76.29631
# Shear Modulus (GPa) = 34.99627 -15.38881 9.80373
#
# Velocity S-wave (km/s) = 4.05997 -2.69225 2.14886
# Velocity P-wave (km/s) = 7.59375 5.14978 6.48788
#
# Compressibility (1/GPa) = 0.01319811
#
# Stress axis : x y z
#
# Youngs Moduli (GPa) = 105.95208 130.05867 106.05207
#
# Poissons Ratio (x) = 0.13755 0.30172
# Poissons Ratio (y) = 0.11206 0.29446
# Poissons Ratio (z) = 0.30143 0.36111
#
# Static dielectric constant tensor:
#      x y z
#    x 4.179710 0.000000 0.000000 
#    y 0.000000 3.736990 0.000000 
#    z 0.000000 0.000000 4.003670 
# 
# 
# High freq. dielectric constant tensor:
#      x y z
#    x 1.838450 0.000000 0.000000 
#    y 0.000000 1.855080 0.000000 
#    z 0.000000 0.000000 1.846700 
# 
# From -- ./inp_files/40221.got.cif
#   From: 2010.03.12/outbox.cif.g09.slc.cpg/sg72_21_cif.got.tgz:40221.got - 2010.04.16 14:54:00.
