data_PCOD8295691
_publ_section_title
;
Structure prediction by ZEFSAII (Michael W. Deem and Ramdas Pophale) SiO2 
 PCOD8295691
Probable space group: I B C A 
;
_chemical_formula_sum "Si O2"
_cell_formula_units_Z 104
_cell_length_a 9.098773
_cell_length_b 26.652957
_cell_length_c 23.730066
_cell_angle_alpha 90.000000
_cell_angle_beta 90.000000
_cell_angle_gamma 90.000000
_cell_volume 5754.759453
_symmetry_space_group_name_H-M "I B C A "
_symmetry_group_IT_number 73
_symmetry_cell_setting 'orthorhombic'
loop_
_space_group_symop_operation_xyz
x,y,z
-x,1/2-y,z
x,-y,1/2-z
1/2-x,y,-z
-x,-y,-z
x,1/2+y,-z
-x,y,1/2+z
1/2+x,-y,z
1/2+x,1/2+y,1/2+z
1/2-x,-y,1/2+z
1/2+x,1/2-y,-z
-x,1/2+y,1/2-z
1/2-x,1/2-y,1/2-z
1/2+x,y,1/2-z
1/2-x,1/2+y,z
x,1/2-y,1/2+z
loop_
_atom_site_type_symbol
_atom_site_label
_atom_site_fract_x
_atom_site_fract_y
_atom_site_fract_z
Si Si1 0.176811 0.067246 0.287347
Si Si2 0.423604 0.500000 0.750000
Si Si3 0.970691 0.191880 0.108006
Si Si4 0.652395 0.155170 0.126525
Si Si5 0.645254 0.149207 0.298226
Si Si6 0.053906 0.802812 0.714735
Si Si7 0.588367 0.298168 0.515439
O O1 0.319504 0.031670 0.292555
O O2 0.166655 0.101185 0.343655
O O3 0.199170 0.095625 0.226205
O O4 0.026814 0.035613 0.287636
O O5 0.808746 0.182104 0.132199
O O6 0.000000 0.250000 0.121900
O O7 0.088356 0.153934 0.137472
O O8 0.986862 0.180547 0.041432
O O9 0.526377 0.187967 0.155642
O O10 0.601244 0.156140 0.060792
O O11 0.771364 0.191207 0.290231
O O12 0.501650 0.157717 0.260345
O O13 0.000000 0.750000 0.738628
O O14 0.500000 0.250000 0.539397
O O15 0.750000 0.277779 0.500000
#
# Coordination Sequence:
#
# PCOD8295691 Si02
#       7
#    16   8  16  16  16  16  16
#     4  10  20  34  53  76  97 125 161 208 266 318
#     4  10  20  36  54  74  98 120 156 210 274 330
#     4  10  19  32  49  73 107 145 177 203 232 277
#     4  10  19  33  50  73 101 132 174 211 244 295
#     4  11  20  32  48  73 103 132 171 208 244 300
#     4  11  20  29  45  69 103 141 166 200 243 286
#     4   9  19  33  50  73 105 145 180 206 235 274
#
# _framework density 18.071998000000001
#
# number of rings (size 3 to 8) (size 9 to 14) (size 15 to 20)
#    0.000    1.846    0.000    6.923    0.000    2.462 
#    0.000    0.000    0.000    0.000    0.000   29.077 
#    0.000    0.000    0.000    0.000    0.000    0.000 
#
# Total GULP energy -644282.757914 kJ/mol
# GULP energy per Si atom -12390.053037 kJ/mol
# Density = 1.803087 g / cm^3
# Si number density = 18.071998 Si / 1000 Ang^3
#
#
#
# Elastic Constant Matrix: (Units=GPa)
#
#
# Indices 1 2 3 4 5 6 
#
# 1 101.2284 36.6367 51.2241 0.0000 0.0000 0.0000
# 2 36.6367 88.4601 53.0981 0.0000 0.0000 0.0000
# 3 51.2241 53.0981 110.4830 0.0000 0.0000 0.0000
# 4 0.0000 0.0000 0.0000 21.7234 0.0000 0.0000
# 5 0.0000 0.0000 0.0000 0.0000 24.4053 0.0000
# 6 0.0000 0.0000 0.0000 0.0000 0.0000 29.4121
#
#
#
# Elastic Compliance Matrix: (Units=1/GPa)
#
#
# Indices 1 2 3 4 5 6 
#
# 1 0.013301 -0.002540 -0.004946 0.000000 0.000000 0.000000
# 2 -0.002540 0.016373 -0.006691 0.000000 0.000000 0.000000
# 3 -0.004946 -0.006691 0.014560 0.000000 0.000000 0.000000
# 4 0.000000 0.000000 0.000000 0.046033 0.000000 0.000000
# 5 0.000000 0.000000 0.000000 0.000000 0.040975 0.000000
# 6 0.000000 0.000000 0.000000 0.000000 0.000000 0.034000
#
#
# Mechanical properties :
#
#
# Convention : Reuss Voigt Hill
#
# Bulk Modulus (GPa) = 62.97429 64.67660 63.82544
# Shear Modulus (GPa) = 25.13969 25.72233 25.43101
#
# Velocity S-wave (km/s) = 3.73377 3.77679 3.75534
# Velocity P-wave (km/s) = 7.31506 7.40843 7.36189
#
# Compressibility (1/GPa) = 0.01587950
#
# Stress axis : x y z
#
# Youngs Moduli (GPa) = 75.18409 61.07688 68.68042
#
# Poissons Ratio (x) = 0.15512 0.33970
# Poissons Ratio (y) = 0.19095 0.45956
# Poissons Ratio (z) = 0.37187 0.40868
#
# Static dielectric constant tensor:
#      x y z
#    x 3.580030 0.000000 0.000000 
#    y 0.000000 3.389710 0.000000 
#    z 0.000000 0.000000 3.439790 
# 
# 
# High freq. dielectric constant tensor:
#      x y z
#    x 1.722550 0.000000 0.000000 
#    y 0.000000 1.668350 0.000000 
#    z 0.000000 0.000000 1.684010 
# 
# From -- ./inp_files/7328.got.cif
#   From: 2010.03.12/outbox.cif.g09.slc.cpg/sg73_4_cif.got.tgz:7328.got - 2010.04.16 15:25:48.
