data_PCOD8295445
_publ_section_title
;
Structure prediction by ZEFSAII (Michael W. Deem and Ramdas Pophale) SiO2 
 PCOD8295445
Probable space group: I B A M
;
_chemical_formula_sum "Si O2"
_cell_formula_units_Z 64
_cell_length_a 9.390339
_cell_length_b 15.862339
_cell_length_c 17.283134
_cell_angle_alpha 90.000000
_cell_angle_beta 90.000000
_cell_angle_gamma 90.000000
_cell_volume 2574.370174
_symmetry_space_group_name_H-M "I B A M"
_symmetry_group_IT_number 72
_symmetry_cell_setting 'orthorhombic'
loop_
_space_group_symop_operation_xyz
x,y,z
-x,-y,z
x,-y,1/2-z
-x,y,1/2-z
-x,-y,-z
x,y,-z
-x,y,1/2+z
x,-y,1/2+z
1/2+x,1/2+y,1/2+z
1/2-x,1/2-y,1/2+z
1/2+x,1/2-y,-z
1/2-x,1/2+y,-z
1/2-x,1/2-y,1/2-z
1/2+x,1/2+y,1/2-z
1/2-x,1/2+y,z
1/2+x,1/2-y,z
loop_
_atom_site_type_symbol
_atom_site_label
_atom_site_fract_x
_atom_site_fract_y
_atom_site_fract_z
Si Si1 0.327102 0.061231 0.176200
Si Si2 0.936728 0.832095 0.828287
Si Si3 0.338166 0.570810 0.586579
Si Si4 0.058539 0.337478 0.087500
O O1 0.478049 0.098025 0.146102
O O2 0.224592 0.140939 0.193104
O O3 0.349235 0.000000 0.250000
O O4 0.248067 0.013125 0.107331
O O5 0.027203 0.913357 0.857329
O O6 0.955920 0.760512 0.892524
O O7 0.000000 0.794153 0.750000
O O8 0.397197 0.561229 0.500000
O O9 0.226746 0.647306 0.593708
O O10 0.001730 0.352072 0.000000
#
# Coordination Sequence:
#
# PCOD8295445 Si02
#       4
#    16  16  16  16
#     4  12  26  46  73 109 147 191 243 305 367 438
#     4  12  26  45  71 106 147 189 243 301 362 436
#     4  11  25  45  72 105 143 190 242 301 369 439
#     4  11  27  48  73 108 147 192 248 299 365 442
#
# _framework density 24.860447000000001
#
# number of rings (size 3 to 8) (size 9 to 14) (size 15 to 20)
#    0.000    0.500    2.500    4.500    3.500   12.000 
#    0.000    0.000    0.000    0.000    0.000    0.000 
#    0.000    0.000    0.000    0.000    0.000    0.000 
#
# Total GULP energy -396892.664111 kJ/mol
# GULP energy per Si atom -12402.895753 kJ/mol
# Density = 2.480386 g / cm^3
# Si number density = 24.860447 Si / 1000 Ang^3
#
#
#
# Elastic Constant Matrix: (Units=GPa)
#
#
# Indices 1 2 3 4 5 6 
#
# 1 116.0722 16.2582 41.3674 0.0000 0.0000 0.0000
# 2 16.2582 93.0240 30.9916 0.0000 0.0000 0.0000
# 3 41.3674 30.9916 140.7613 0.0000 0.0000 0.0000
# 4 0.0000 0.0000 0.0000 47.5948 0.0000 0.0000
# 5 0.0000 0.0000 0.0000 0.0000 27.6930 0.0000
# 6 0.0000 0.0000 0.0000 0.0000 0.0000 32.4135
#
#
#
# Elastic Compliance Matrix: (Units=1/GPa)
#
#
# Indices 1 2 3 4 5 6 
#
# 1 0.009678 -0.000803 -0.002668 0.000000 0.000000 0.000000
# 2 -0.000803 0.011667 -0.002333 0.000000 0.000000 0.000000
# 3 -0.002668 -0.002333 0.008402 0.000000 0.000000 0.000000
# 4 0.000000 0.000000 0.000000 0.021011 0.000000 0.000000
# 5 0.000000 0.000000 0.000000 0.000000 0.036110 0.000000
# 6 0.000000 0.000000 0.000000 0.000000 0.000000 0.030851
#
#
# Mechanical properties :
#
#
# Convention : Reuss Voigt Hill
#
# Bulk Modulus (GPa) = 55.12334 58.56575 56.84455
# Shear Modulus (GPa) = 36.93479 38.95628 37.94553
#
# Velocity S-wave (km/s) = 3.85864 3.96283 3.91108
# Velocity P-wave (km/s) = 6.48640 6.67440 6.58107
#
# Compressibility (1/GPa) = 0.01814114
#
# Stress axis : x y z
#
# Youngs Moduli (GPa) = 103.32192 85.70858 119.02181
#
# Poissons Ratio (x) = 0.06881 0.31750
# Poissons Ratio (y) = 0.08295 0.27767
# Poissons Ratio (z) = 0.27562 0.19995
#
# Static dielectric constant tensor:
#      x y z
#    x 4.745020 0.000000 0.000000 
#    y 0.000000 4.259090 0.000000 
#    z 0.000000 0.000000 4.420410 
# 
# 
# High freq. dielectric constant tensor:
#      x y z
#    x 2.002720 0.000000 0.000000 
#    y 0.000000 1.990110 0.000000 
#    z 0.000000 0.000000 1.994620 
# 
# From -- ./inp_files/19700.got.cif
#   From: 2010.03.12/outbox.cif.g09.slc.cpg/sg72_10_cif.got.tgz:19700.got - 2010.04.16 14:54:00.
