data_PCOD8295675
_publ_section_title
;
Structure prediction by ZEFSAII (Michael W. Deem and Ramdas Pophale) SiO2 
 PCOD8295675
Probable space group: I B C A 
;
_chemical_formula_sum "Si O2"
_cell_formula_units_Z 88
_cell_length_a 9.707070
_cell_length_b 31.774534
_cell_length_c 13.337804
_cell_angle_alpha 90.000000
_cell_angle_beta 90.000000
_cell_angle_gamma 90.000000
_cell_volume 4113.880599
_symmetry_space_group_name_H-M "I B C A "
_symmetry_group_IT_number 73
_symmetry_cell_setting 'orthorhombic'
loop_
_space_group_symop_operation_xyz
x,y,z
-x,1/2-y,z
x,-y,1/2-z
1/2-x,y,-z
-x,-y,-z
x,1/2+y,-z
-x,y,1/2+z
1/2+x,-y,z
1/2+x,1/2+y,1/2+z
1/2-x,-y,1/2+z
1/2+x,1/2-y,-z
-x,1/2+y,1/2-z
1/2-x,1/2-y,1/2-z
1/2+x,y,1/2-z
1/2-x,1/2+y,z
x,1/2-y,1/2+z
loop_
_atom_site_type_symbol
_atom_site_label
_atom_site_fract_x
_atom_site_fract_y
_atom_site_fract_z
Si Si1 0.443049 0.154312 0.931720
Si Si2 0.710663 0.045831 0.295014
Si Si3 0.523799 0.165617 0.144658
Si Si4 0.250000 0.080913 0.000000
Si Si5 0.448030 0.096664 0.273705
Si Si6 0.245272 0.701905 0.781192
O O1 0.372405 0.111972 0.971206
O O2 0.549123 0.136556 0.849383
O O3 0.338741 0.188694 0.882757
O O4 0.521885 0.175477 0.025511
O O5 0.777462 0.049507 0.406160
O O6 0.550835 0.058358 0.298229
O O7 0.793551 0.078897 0.225578
O O8 0.729175 0.000000 0.250000
O O9 0.490353 0.116240 0.165370
O O10 0.404206 0.191327 0.201852
O O11 0.673518 0.177402 0.188702
O O12 0.250000 0.750000 0.750000
#
# Coordination Sequence:
#
# PCOD8295675 Si02
#       6
#    16  16  16   8  16  16
#     4  10  19  39  69  86 118 177 217 247 321 390
#     4  11  22  40  62  95 129 163 207 273 325 368
#     4  11  20  42  66  89 125 173 215 255 318 399
#     4  10  18  40  68  82 122 180 212 230 328 402
#     4  10  21  39  65  91 123 168 216 260 306 397
#     4  11  23  39  64  95 129 160 210 275 324 371
#
# _framework density 21.390995
#
# number of rings (size 3 to 8) (size 9 to 14) (size 15 to 20)
#    0.000    1.455    3.636    3.273    0.000    0.000 
#    3.273   22.727    0.000    0.000    0.000    0.000 
#    0.000    0.000    0.000    0.000    0.000    0.000 
#
# Total GULP energy -545157.282720 kJ/mol
# GULP energy per Si atom -12389.938244 kJ/mol
# Density = 2.134231 g / cm^3
# Si number density = 21.390995 Si / 1000 Ang^3
#
#
#
# Elastic Constant Matrix: (Units=GPa)
#
#
# Indices 1 2 3 4 5 6 
#
# 1 56.7901 7.6015 26.1648 0.0004 -0.0001 -0.0001
# 2 7.6015 112.6114 48.0738 0.0003 0.0000 -0.0002
# 3 26.1648 48.0738 130.4380 0.0041 -0.0001 -0.0005
# 4 0.0004 0.0003 0.0041 25.6338 0.0001 -0.0002
# 5 -0.0001 0.0000 -0.0001 0.0001 27.2253 0.0004
# 6 -0.0001 -0.0002 -0.0005 -0.0002 0.0004 27.7636
#
#
#
# Elastic Compliance Matrix: (Units=1/GPa)
#
#
# Indices 1 2 3 4 5 6 
#
# 1 0.019418 0.000418 -0.004049 0.000000 0.000000 0.000000
# 2 0.000418 0.010547 -0.003971 0.000001 0.000000 0.000000
# 3 -0.004049 -0.003971 0.009942 -0.000001 0.000000 0.000000
# 4 0.000000 0.000001 -0.000001 0.039011 0.000000 0.000000
# 5 0.000000 0.000000 0.000000 0.000000 0.036731 0.000000
# 6 0.000000 0.000000 0.000000 0.000000 0.000000 0.036018
#
#
# Mechanical properties :
#
#
# Convention : Reuss Voigt Hill
#
# Bulk Modulus (GPa) = 40.48092 51.50217 45.99154
# Shear Modulus (GPa) = 28.55401 30.65782 29.60591
#
# Velocity S-wave (km/s) = 3.65754 3.78989 3.72430
# Velocity P-wave (km/s) = 6.06648 6.57874 6.32779
#
# Compressibility (1/GPa) = 0.02470300
#
# Stress axis : x y z
#
# Youngs Moduli (GPa) = 51.49772 94.81254 100.58084
#
# Poissons Ratio (x) = -0.03961 0.40727
# Poissons Ratio (y) = -0.02152 0.39941
# Poissons Ratio (z) = 0.20852 0.37650
#
# Static dielectric constant tensor:
#      x y z
#    x 3.901630 0.000010 -0.000020 
#    y 0.000010 3.702950 0.000010 
#    z -0.000020 0.000010 4.974300 
# 
# 
# High freq. dielectric constant tensor:
#      x y z
#    x 1.832040 0.000000 0.000000 
#    y 0.000000 1.822930 0.000000 
#    z 0.000000 0.000000 1.844030 
# 
# From -- ./inp_files/9892.got.cif
#   From: 2010.03.12/outbox.cif.g09.slc.cpg/sg73_5_cif.got.tgz:9892.got - 2010.04.16 15:25:48.
