data_PCOD8295282
_publ_section_title
;
Structure prediction by ZEFSAII (Michael W. Deem and Ramdas Pophale) SiO2 
 PCOD8295282
Probable space group: I B A M
;
_chemical_formula_sum "Si O2"
_cell_formula_units_Z 80
_cell_length_a 8.835942
_cell_length_b 17.868354
_cell_length_c 23.645365
_cell_angle_alpha 90.000000
_cell_angle_beta 90.000000
_cell_angle_gamma 90.000000
_cell_volume 3733.218650
_symmetry_space_group_name_H-M "I B A M"
_symmetry_group_IT_number 72
_symmetry_cell_setting 'orthorhombic'
loop_
_space_group_symop_operation_xyz
x,y,z
-x,-y,z
x,-y,1/2-z
-x,y,1/2-z
-x,-y,-z
x,y,-z
-x,y,1/2+z
x,-y,1/2+z
1/2+x,1/2+y,1/2+z
1/2-x,1/2-y,1/2+z
1/2+x,1/2-y,-z
1/2-x,1/2+y,-z
1/2-x,1/2-y,1/2-z
1/2+x,1/2+y,1/2-z
1/2-x,1/2+y,z
1/2+x,1/2-y,z
loop_
_atom_site_type_symbol
_atom_site_label
_atom_site_fract_x
_atom_site_fract_y
_atom_site_fract_z
Si Si1 0.875508 0.563529 0.065572
Si Si2 0.095984 0.932756 0.141393
Si Si3 0.059922 0.702114 0.100198
Si Si4 0.368584 0.291189 0.210023
Si Si5 0.892076 0.159568 0.562067
O O1 0.724328 0.536992 0.098246
O O2 0.000000 0.500000 0.069626
O O3 0.939561 0.635502 0.098061
O O4 0.837055 0.581702 0.000000
O O5 0.178288 0.871155 0.181850
O O6 0.959557 0.896329 0.106964
O O7 0.000000 0.000000 0.172129
O O8 0.073893 0.731187 0.164307
O O9 0.220838 0.677550 0.077590
O O10 0.994177 0.766302 0.060166
O O11 0.500000 0.317920 0.250000
O O12 0.250000 0.250000 0.250000
O O13 0.893623 0.122747 0.500000
#
# Coordination Sequence:
#
# PCOD8295282 Si02
#       5
#    16  16  16  16  16
#     4  11  23  39  61  89 126 166 200 245 310 383
#     4  11  24  41  61  91 126 160 205 258 315 381
#     4  11  22  38  59  90 121 156 211 259 302 369
#     4  11  23  42  66  88 115 159 211 265 320 368
#     4  11  21  35  60  90 126 166 201 247 306 375
#
# _framework density 21.429231000000001
#
# number of rings (size 3 to 8) (size 9 to 14) (size 15 to 20)
#    0.000    1.000    0.000    9.600    0.000    3.600 
#    0.000    0.000    0.000    4.200    0.000    0.000 
#    0.000    0.000    0.000    0.000    0.000    0.000 
#
# Total GULP energy -495742.410984 kJ/mol
# GULP energy per Si atom -12393.560275 kJ/mol
# Density = 2.138046 g / cm^3
# Si number density = 21.429231 Si / 1000 Ang^3
#
#
#
# Elastic Constant Matrix: (Units=GPa)
#
#
# Indices 1 2 3 4 5 6 
#
# 1 111.6325 26.9677 19.5634 0.0000 0.0000 0.0000
# 2 26.9677 105.5415 39.4710 0.0000 0.0000 0.0000
# 3 19.5634 39.4710 106.8388 0.0000 0.0000 0.0000
# 4 0.0000 0.0000 0.0000 20.7162 0.0000 0.0000
# 5 0.0000 0.0000 0.0000 0.0000 -273.0863 0.0000
# 6 0.0000 0.0000 0.0000 0.0000 0.0000 60.8189
#
#
#
# Elastic Compliance Matrix: (Units=1/GPa)
#
#
# Indices 1 2 3 4 5 6 
#
# 1 0.009637 -0.002091 -0.000992 0.000000 0.000000 0.000000
# 2 -0.002091 0.011448 -0.003846 0.000000 0.000000 0.000000
# 3 -0.000992 -0.003846 0.010963 0.000000 0.000000 0.000000
# 4 0.000000 0.000000 0.000000 0.048271 0.000000 0.000000
# 5 0.000000 0.000000 0.000000 0.000000 -0.003662 0.000000
# 6 0.000000 0.000000 0.000000 0.000000 0.000000 0.016442
#
#
# Mechanical properties :
#
#
# Convention : Reuss Voigt Hill
#
# Bulk Modulus (GPa) = 54.98175 55.11298 55.04737
# Shear Modulus (GPa) = 44.23938 -22.44286 10.89826
#
# Velocity S-wave (km/s) = 4.54854 -3.23971 2.25760
# Velocity P-wave (km/s) = 7.30060 3.43222 5.70433
#
# Compressibility (1/GPa) = 0.01818785
#
# Stress axis : x y z
#
# Youngs Moduli (GPa) = 103.76622 87.35274 91.21957
#
# Poissons Ratio (x) = 0.18269 0.09049
# Poissons Ratio (y) = 0.21702 0.35086
# Poissons Ratio (z) = 0.10293 0.33599
#
# Static dielectric constant tensor:
#      x y z
#    x 4.002910 0.000000 0.000000 
#    y 0.000000 3.955430 0.000000 
#    z 0.000000 0.000000 3.999470 
# 
# 
# High freq. dielectric constant tensor:
#      x y z
#    x 1.854830 0.000000 0.000000 
#    y 0.000000 1.845390 0.000000 
#    z 0.000000 0.000000 1.837110 
# 
# From -- ./inp_files/47200.got.cif
#   From: 2010.03.12/outbox.cif.g09.slc.cpg/sg72_24_cif.got.tgz:47200.got - 2010.04.16 14:54:00.
