data_PCOD8295606
_publ_section_title
;
Structure prediction by ZEFSAII (Michael W. Deem and Ramdas Pophale) SiO2 
 PCOD8295606
Probable space group: I B C A 
;
_chemical_formula_sum "Si O2"
_cell_formula_units_Z 96
_cell_length_a 19.289746
_cell_length_b 16.181638
_cell_length_c 14.832769
_cell_angle_alpha 90.000000
_cell_angle_beta 90.000000
_cell_angle_gamma 90.000000
_cell_volume 4629.895871
_symmetry_space_group_name_H-M "I B C A "
_symmetry_group_IT_number 73
_symmetry_cell_setting 'orthorhombic'
loop_
_space_group_symop_operation_xyz
x,y,z
-x,1/2-y,z
x,-y,1/2-z
1/2-x,y,-z
-x,-y,-z
x,1/2+y,-z
-x,y,1/2+z
1/2+x,-y,z
1/2+x,1/2+y,1/2+z
1/2-x,-y,1/2+z
1/2+x,1/2-y,-z
-x,1/2+y,1/2-z
1/2-x,1/2-y,1/2-z
1/2+x,y,1/2-z
1/2-x,1/2+y,z
x,1/2-y,1/2+z
loop_
_atom_site_type_symbol
_atom_site_label
_atom_site_fract_x
_atom_site_fract_y
_atom_site_fract_z
Si Si1 0.637401 0.901763 0.250659
Si Si2 0.263735 0.899137 0.901473
Si Si3 0.373259 0.423353 0.815684
Si Si4 0.563418 0.039920 0.548770
Si Si5 0.988081 0.344343 0.794198
Si Si6 0.692941 0.415039 0.934935
O O1 0.670482 0.864901 0.343859
O O2 0.556844 0.879538 0.247534
O O3 0.678357 0.868951 0.160956
O O4 0.643856 0.000000 0.250000
O O5 0.199005 0.878996 0.836508
O O6 0.272884 0.996601 0.915040
O O7 0.250000 0.856966 0.000000
O O8 0.361807 0.500000 0.750000
O O9 0.400185 0.460703 0.908373
O O10 0.425938 0.354858 0.777443
O O11 0.533065 0.107149 0.616681
O O12 0.618173 0.082261 0.482420
O O13 0.500000 0.000000 0.500000
O O14 0.000000 0.250000 0.820241
O O15 0.750000 0.368600 0.000000
#
# Coordination Sequence:
#
# PCOD8295606 Si02
#       6
#    16  16  16  16  16  16
#     4  10  20  37  62  90 124 156 206 263 316 375
#     4  10  18  32  62  98 123 147 203 270 319 370
#     4  10  19  35  61  90 118 159 205 254 312 373
#     4  11  20  35  65  94 119 157 213 262 309 370
#     4  11  25  41  58  86 129 173 210 253 318 381
#     4  10  18  32  59  98 125 145 200 272 321 360
#
# _framework density 20.734807
#
# number of rings (size 3 to 8) (size 9 to 14) (size 15 to 20)
#    0.000    1.667    3.333    6.000    2.333    0.000 
#    0.000    4.167    0.000    0.000    0.000    0.000 
#    0.000    0.000    0.000    0.000    0.000    0.000 
#
# Total GULP energy -594846.157938 kJ/mol
# GULP energy per Si atom -12392.628290 kJ/mol
# Density = 2.068761 g / cm^3
# Si number density = 20.734807 Si / 1000 Ang^3
#
#
#
# Elastic Constant Matrix: (Units=GPa)
#
#
# Indices 1 2 3 4 5 6 
#
# 1 149.1570 10.4575 58.0552 0.0000 0.0000 0.0000
# 2 10.4575 37.3631 7.2014 0.0000 0.0000 0.0000
# 3 58.0552 7.2014 117.4382 0.0000 0.0000 0.0000
# 4 0.0000 0.0000 0.0000 7.0992 0.0000 0.0000
# 5 0.0000 0.0000 0.0000 0.0000 38.5734 0.0000
# 6 0.0000 0.0000 0.0000 0.0000 0.0000 3.3525
#
#
#
# Elastic Compliance Matrix: (Units=1/GPa)
#
#
# Indices 1 2 3 4 5 6 
#
# 1 0.008391 -0.001568 -0.004052 0.000000 0.000000 0.000000
# 2 -0.001568 0.027377 -0.000904 0.000000 0.000000 0.000000
# 3 -0.004052 -0.000904 0.010574 0.000000 0.000000 0.000000
# 4 0.000000 0.000000 0.000000 0.140860 0.000000 0.000000
# 5 0.000000 0.000000 0.000000 0.000000 0.025925 0.000000
# 6 0.000000 0.000000 0.000000 0.000000 0.000000 0.298289
#
#
# Mechanical properties :
#
#
# Convention : Reuss Voigt Hill
#
# Bulk Modulus (GPa) = 30.03433 50.59851 40.31642
# Shear Modulus (GPa) = 9.33598 25.02128 17.17863
#
# Velocity S-wave (km/s) = 2.12423 3.47757 2.88148
# Velocity P-wave (km/s) = 4.53132 6.37027 5.52780
#
# Compressibility (1/GPa) = 0.03329523
#
# Stress axis : x y z
#
# Youngs Moduli (GPa) = 119.16898 36.52649 94.57414
#
# Poissons Ratio (x) = 0.05726 0.38323
# Poissons Ratio (y) = 0.18682 0.08548
# Poissons Ratio (z) = 0.48289 0.03301
#
# Static dielectric constant tensor:
#      x y z
#    x 3.987470 0.000000 0.000000 
#    y 0.000000 3.081750 0.000000 
#    z 0.000000 0.000000 4.340250 
# 
# 
# High freq. dielectric constant tensor:
#      x y z
#    x 1.836110 0.000000 0.000000 
#    y 0.000000 1.734160 0.000000 
#    z 0.000000 0.000000 1.833100 
# 
# From -- ./inp_files/18659.got.cif
#   From: 2010.03.12/outbox.cif.g09.slc.cpg/sg73_10_cif.got.tgz:18659.got - 2010.04.16 15:25:48.
