data_PCOD8295789
_publ_section_title
;
Structure prediction by ZEFSAII (Michael W. Deem and Ramdas Pophale) SiO2 
 PCOD8295789
Probable space group: I B C A 
;
_chemical_formula_sum "Si O2"
_cell_formula_units_Z 112
_cell_length_a 23.691800
_cell_length_b 16.684154
_cell_length_c 14.013745
_cell_angle_alpha 90.000000
_cell_angle_beta 90.000000
_cell_angle_gamma 90.000000
_cell_volume 5539.320047
_symmetry_space_group_name_H-M "I B C A "
_symmetry_group_IT_number 73
_symmetry_cell_setting 'orthorhombic'
loop_
_space_group_symop_operation_xyz
x,y,z
-x,1/2-y,z
x,-y,1/2-z
1/2-x,y,-z
-x,-y,-z
x,1/2+y,-z
-x,y,1/2+z
1/2+x,-y,z
1/2+x,1/2+y,1/2+z
1/2-x,-y,1/2+z
1/2+x,1/2-y,-z
-x,1/2+y,1/2-z
1/2-x,1/2-y,1/2-z
1/2+x,y,1/2-z
1/2-x,1/2+y,z
x,1/2-y,1/2+z
loop_
_atom_site_type_symbol
_atom_site_label
_atom_site_fract_x
_atom_site_fract_y
_atom_site_fract_z
Si Si1 0.291704 0.188693 0.911260
Si Si2 0.432462 0.056380 0.468792
Si Si3 0.365286 0.829689 0.159947
Si Si4 0.985501 0.467332 0.344965
Si Si5 0.448856 0.312571 0.681560
Si Si6 0.130397 0.395372 0.455416
Si Si7 0.785493 0.919984 0.203475
O O1 0.316383 0.271405 0.874307
O O2 0.262650 0.145393 0.820175
O O3 0.250000 0.206029 0.000000
O O4 0.344383 0.136169 0.945619
O O5 0.391301 0.124996 0.431187
O O6 0.448295 0.081401 0.577510
O O7 0.485452 0.044094 0.397510
O O8 0.409106 0.967681 0.482627
O O9 0.414643 0.786689 0.222568
O O10 0.333963 0.894301 0.223981
O O11 0.952875 0.500000 0.250000
O O12 0.029999 0.403443 0.302768
O O13 0.500000 0.250000 0.661067
O O14 0.403814 0.320915 0.594044
O O15 0.181673 0.433996 0.395176
O O16 0.757884 0.000000 0.250000
#
# Coordination Sequence:
#
# PCOD8295789 Si02
#       7
#    16  16  16  16  16  16  16
#     4  10  23  41  58  92 127 156 202 273 317 368
#     4  10  20  36  62  89 114 171 206 252 305 376
#     4  11  21  39  66  90 121 165 211 251 322 380
#     4  10  20  37  59  85 126 157 211 256 294 359
#     4  10  22  37  59  89 121 167 205 244 305 380
#     4   9  20  39  62  84 127 158 205 251 314 371
#     4  10  19  39  68  88 117 163 209 260 315 376
#
# _framework density 20.219089
#
# number of rings (size 3 to 8) (size 9 to 14) (size 15 to 20)
#    0.000    2.000    2.857    0.429    2.000    1.143 
#    5.143    2.143    0.000    0.000    0.000    0.000 
#    0.000    0.000    0.000    0.000    0.000    0.000 
#
# Total GULP energy -693918.847317 kJ/mol
# GULP energy per Si atom -12391.407988 kJ/mol
# Density = 2.017307 g / cm^3
# Si number density = 20.219089 Si / 1000 Ang^3
#
#
#
# Elastic Constant Matrix: (Units=GPa)
#
#
# Indices 1 2 3 4 5 6 
#
# 1 83.9899 31.3321 39.1150 0.0000 0.0000 0.0000
# 2 31.3321 61.6854 21.7311 0.0000 0.0000 0.0000
# 3 39.1150 21.7311 97.1022 0.0000 0.0000 0.0000
# 4 0.0000 0.0000 0.0000 20.7975 0.0000 0.0000
# 5 0.0000 0.0000 0.0000 0.0000 27.5774 0.0000
# 6 0.0000 0.0000 0.0000 0.0000 0.0000 42.6963
#
#
#
# Elastic Compliance Matrix: (Units=1/GPa)
#
#
# Indices 1 2 3 4 5 6 
#
# 1 0.016874 -0.006705 -0.005297 0.000000 0.000000 0.000000
# 2 -0.006705 0.020263 -0.001834 0.000000 0.000000 0.000000
# 3 -0.005297 -0.001834 0.012843 0.000000 0.000000 0.000000
# 4 0.000000 0.000000 0.000000 0.048083 0.000000 0.000000
# 5 0.000000 0.000000 0.000000 0.000000 0.036262 0.000000
# 6 0.000000 0.000000 0.000000 0.000000 0.000000 0.023421
#
#
# Mechanical properties :
#
#
# Convention : Reuss Voigt Hill
#
# Bulk Modulus (GPa) = 44.82596 47.45932 46.14264
# Shear Modulus (GPa) = 25.92651 28.25419 27.09035
#
# Velocity S-wave (km/s) = 3.58478 3.74224 3.66435
# Velocity P-wave (km/s) = 6.27315 6.49584 6.38547
#
# Compressibility (1/GPa) = 0.02230850
#
# Stress axis : x y z
#
# Youngs Moduli (GPa) = 59.26191 49.35094 77.86639
#
# Poissons Ratio (x) = 0.33090 0.41244
# Poissons Ratio (y) = 0.39735 0.14280
# Poissons Ratio (z) = 0.31390 0.09050
#
# Static dielectric constant tensor:
#      x y z
#    x 3.671180 0.000000 0.000000 
#    y 0.000000 3.371160 0.000000 
#    z 0.000000 0.000000 3.830950 
# 
# 
# High freq. dielectric constant tensor:
#      x y z
#    x 1.779770 0.000000 0.000000 
#    y 0.000000 1.769450 0.000000 
#    z 0.000000 0.000000 1.792500 
# 
# From -- ./inp_files/19842.got.cif
#   From: 2010.03.12/outbox.cif.g09.slc.cpg/sg73_10_cif.got.tgz:19842.got - 2010.04.16 15:25:48.
