data_PCOD8295613
_publ_section_title
;
Structure prediction by ZEFSAII (Michael W. Deem and Ramdas Pophale) SiO2 
 PCOD8295613
Probable space group: I B C A 
;
_chemical_formula_sum "Si O2"
_cell_formula_units_Z 72
_cell_length_a 24.582200
_cell_length_b 8.518366
_cell_length_c 12.740870
_cell_angle_alpha 90.000000
_cell_angle_beta 90.000000
_cell_angle_gamma 90.000000
_cell_volume 2667.940429
_symmetry_space_group_name_H-M "I B C A "
_symmetry_group_IT_number 73
_symmetry_cell_setting 'orthorhombic'
loop_
_space_group_symop_operation_xyz
x,y,z
-x,1/2-y,z
x,-y,1/2-z
1/2-x,y,-z
-x,-y,-z
x,1/2+y,-z
-x,y,1/2+z
1/2+x,-y,z
1/2+x,1/2+y,1/2+z
1/2-x,-y,1/2+z
1/2+x,1/2-y,-z
-x,1/2+y,1/2-z
1/2-x,1/2-y,1/2-z
1/2+x,y,1/2-z
1/2-x,1/2+y,z
x,1/2-y,1/2+z
loop_
_atom_site_type_symbol
_atom_site_label
_atom_site_fract_x
_atom_site_fract_y
_atom_site_fract_z
Si Si1 0.298522 0.089204 0.878766
Si Si2 0.917171 0.060865 0.419431
Si Si3 0.907893 0.296915 0.142612
Si Si4 0.000000 0.750000 0.201782
Si Si5 0.189499 0.781018 0.611743
O O1 0.347633 0.164498 0.808237
O O2 0.240224 0.135727 0.827796
O O3 0.304918 0.904111 0.881230
O O4 0.305003 0.166933 0.991266
O O5 0.916624 0.086562 0.544066
O O6 0.869837 0.153986 0.354223
O O7 0.974513 0.114935 0.371143
O O8 0.910479 0.878074 0.400803
O O9 0.953936 0.332344 0.227545
#
# Coordination Sequence:
#
# PCOD8295613 Si02
#       5
#    16  16  16   8  16
#     4  10  18  33  60  93 128 165 208 258 319 384
#     4  11  24  43  67  96 130 169 216 267 323 385
#     4  11  24  43  67  96 130 169 216 267 323 385
#     4  12  28  44  66  92 126 172 220 272 320 378
#     4  10  18  33  60  93 128 165 208 258 319 384
#
# _framework density 26.987109
#
# number of rings (size 3 to 8) (size 9 to 14) (size 15 to 20)
#    0.000    1.333    0.000   10.667    0.000    8.889 
#    0.000    1.111    0.000    0.000    0.000    0.000 
#    0.000    0.000    0.000    0.000    0.000    0.000 
#
# Total GULP energy -446417.035052 kJ/mol
# GULP energy per Si atom -12400.473196 kJ/mol
# Density = 2.692569 g / cm^3
# Si number density = 26.987109 Si / 1000 Ang^3
#
#
#
# Elastic Constant Matrix: (Units=GPa)
#
#
# Indices 1 2 3 4 5 6 
#
# 1 195.5725 21.4910 13.1009 0.0000 0.0000 0.0000
# 2 21.4910 152.4617 -5.2150 0.0000 0.0000 0.0000
# 3 13.1009 -5.2150 24.2120 0.0000 0.0000 0.0000
# 4 0.0000 0.0000 0.0000 35.0510 0.0000 0.0000
# 5 0.0000 0.0000 0.0000 0.0000 51.1232 0.0000
# 6 0.0000 0.0000 0.0000 0.0000 0.0000 12.3117
#
#
#
# Elastic Compliance Matrix: (Units=1/GPa)
#
#
# Indices 1 2 3 4 5 6 
#
# 1 0.005418 -0.000870 -0.003119 0.000000 0.000000 0.000000
# 2 -0.000870 0.006748 0.001924 0.000000 0.000000 0.000000
# 3 -0.003119 0.001924 0.043404 0.000000 0.000000 0.000000
# 4 0.000000 0.000000 0.000000 0.028530 0.000000 0.000000
# 5 0.000000 0.000000 0.000000 0.000000 0.019561 0.000000
# 6 0.000000 0.000000 0.000000 0.000000 0.000000 0.081224
#
#
# Mechanical properties :
#
#
# Convention : Reuss Voigt Hill
#
# Bulk Modulus (GPa) = 19.44041 47.88888 33.66464
# Shear Modulus (GPa) = 24.25300 42.55512 33.40406
#
# Velocity S-wave (km/s) = 3.00107 3.97529 3.52202
# Velocity P-wave (km/s) = 4.38495 6.23331 5.38897
#
# Compressibility (1/GPa) = 0.05143924
#
# Stress axis : x y z
#
# Youngs Moduli (GPa) = 184.57778 148.20233 23.03933
#
# Poissons Ratio (x) = 0.12899 0.07186
# Poissons Ratio (y) = 0.16065 -0.04433
# Poissons Ratio (z) = 0.57570 -0.28519
#
# Static dielectric constant tensor:
#      x y z
#    x 6.913480 0.000000 0.000000 
#    y 0.000000 4.651200 0.000000 
#    z 0.000000 0.000000 5.887460 
# 
# 
# High freq. dielectric constant tensor:
#      x y z
#    x 2.116280 0.000000 0.000000 
#    y 0.000000 2.092190 0.000000 
#    z 0.000000 0.000000 2.085920 
# 
# From -- ./inp_files/4819.got.cif
#   From: 2010.03.12/outbox.cif.g09.slc.cpg/sg73_3_cif.got.tgz:4819.got - 2010.04.16 15:25:48.
