data_PCOD8295372
_publ_section_title
;
Structure prediction by ZEFSAII (Michael W. Deem and Ramdas Pophale) SiO2 
 PCOD8295372
Probable space group: I B A M
;
_chemical_formula_sum "Si O2"
_cell_formula_units_Z 88
_cell_length_a 21.955620
_cell_length_b 7.680428
_cell_length_c 27.161872
_cell_angle_alpha 90.000000
_cell_angle_beta 90.000000
_cell_angle_gamma 90.000000
_cell_volume 4580.267324
_symmetry_space_group_name_H-M "I B A M"
_symmetry_group_IT_number 72
_symmetry_cell_setting 'orthorhombic'
loop_
_space_group_symop_operation_xyz
x,y,z
-x,-y,z
x,-y,1/2-z
-x,y,1/2-z
-x,-y,-z
x,y,-z
-x,y,1/2+z
x,-y,1/2+z
1/2+x,1/2+y,1/2+z
1/2-x,1/2-y,1/2+z
1/2+x,1/2-y,-z
1/2-x,1/2+y,-z
1/2-x,1/2-y,1/2-z
1/2+x,1/2+y,1/2-z
1/2-x,1/2+y,z
1/2+x,1/2-y,z
loop_
_atom_site_type_symbol
_atom_site_label
_atom_site_fract_x
_atom_site_fract_y
_atom_site_fract_z
Si Si1 0.392091 0.662154 0.056972
Si Si2 0.173512 0.485700 0.097826
Si Si3 0.393840 0.025643 0.303651
Si Si4 0.499267 0.748916 0.303496
Si Si5 0.000000 0.000000 0.884540
Si Si6 0.202842 0.141747 0.442441
O O1 0.376082 0.857283 0.074051
O O2 0.453503 0.601823 0.081884
O O3 0.340634 0.519983 0.068855
O O4 0.405856 0.670386 0.000000
O O5 0.157603 0.511448 0.155437
O O6 0.171922 0.674331 0.071580
O O7 0.238219 0.390693 0.091189
O O8 0.428510 0.208903 0.314479
O O9 0.361529 0.000000 0.250000
O O10 0.453111 0.906952 0.302138
O O11 0.500000 0.656263 0.250000
O O12 0.469135 0.634836 0.346763
O O13 0.221834 0.148003 0.500000
#
# Coordination Sequence:
#
# PCOD8295372 Si02
#       6
#    16  16  16  16   8  16
#     4  11  24  39  58  89 126 158 198 249 302 361
#     4  12  21  39  63  85 117 157 204 252 298 348
#     4   9  19  37  58  83 116 154 194 244 305 355
#     4   9  18  34  58  85 115 153 197 244 293 360
#     4  12  20  36  58  90 122 152 194 248 308 358
#     4  11  23  39  62  87 114 158 209 246 290 358
#
# _framework density 19.212851000000001
#
# number of rings (size 3 to 8) (size 9 to 14) (size 15 to 20)
#    0.000    1.455    3.636    4.364    0.000    0.000 
#    0.000    0.909    0.000    4.364    0.000    0.000 
#    0.000    0.000    0.000    0.000    0.000    0.000 
#
# Total GULP energy -545123.660108 kJ/mol
# GULP energy per Si atom -12389.174093 kJ/mol
# Density = 1.916912 g / cm^3
# Si number density = 19.212851 Si / 1000 Ang^3
#
#
#
# Elastic Constant Matrix: (Units=GPa)
#
#
# Indices 1 2 3 4 5 6 
#
# 1 67.2053 15.4990 59.6759 0.0000 0.0000 0.0000
# 2 15.4990 83.5877 43.7012 0.0000 0.0000 0.0000
# 3 59.6759 43.7012 123.3953 0.0000 0.0000 0.0000
# 4 0.0000 0.0000 0.0000 36.9494 0.0000 0.0000
# 5 0.0000 0.0000 0.0000 0.0000 64.0907 0.0000
# 6 0.0000 0.0000 0.0000 0.0000 0.0000 19.7483
#
#
#
# Elastic Compliance Matrix: (Units=1/GPa)
#
#
# Indices 1 2 3 4 5 6 
#
# 1 0.026400 0.002184 -0.013541 0.000000 0.000000 0.000000
# 2 0.002184 0.014863 -0.006320 0.000000 0.000000 0.000000
# 3 -0.013541 -0.006320 0.016891 0.000000 0.000000 0.000000
# 4 0.000000 0.000000 0.000000 0.027064 0.000000 0.000000
# 5 0.000000 0.000000 0.000000 0.000000 0.015603 0.000000
# 6 0.000000 0.000000 0.000000 0.000000 0.000000 0.050637
#
#
# Mechanical properties :
#
#
# Convention : Reuss Voigt Hill
#
# Bulk Modulus (GPa) = 43.85940 56.88227 50.37084
# Shear Modulus (GPa) = 25.71862 34.51181 30.11521
#
# Velocity S-wave (km/s) = 3.66268 4.24286 3.96340
# Velocity P-wave (km/s) = 6.38472 7.32620 6.87160
#
# Compressibility (1/GPa) = 0.02280013
#
# Stress axis : x y z
#
# Youngs Moduli (GPa) = 37.87879 67.28245 59.20306
#
# Poissons Ratio (x) = -0.14697 0.80167
# Poissons Ratio (y) = -0.08274 0.37417
# Poissons Ratio (z) = 0.51292 0.42523
#
# Static dielectric constant tensor:
#      x y z
#    x 3.293640 0.000000 0.000000 
#    y 0.000000 3.772730 0.000000 
#    z 0.000000 0.000000 3.754440 
# 
# 
# High freq. dielectric constant tensor:
#      x y z
#    x 1.721520 0.000000 0.000000 
#    y 0.000000 1.758340 0.000000 
#    z 0.000000 0.000000 1.758660 
# 
# From -- ./inp_files/45268.got.cif
#   From: 2010.03.12/outbox.cif.g09.slc.cpg/sg72_23_cif.got.tgz:45268.got - 2010.04.16 14:54:00.
