data_PCOD8295267
_publ_section_title
;
Structure prediction by ZEFSAII (Michael W. Deem and Ramdas Pophale) SiO2 
 PCOD8295267
Probable space group: I B A M
;
_chemical_formula_sum "Si O2"
_cell_formula_units_Z 80
_cell_length_a 27.292977
_cell_length_b 18.018285
_cell_length_c 9.151197
_cell_angle_alpha 90.000000
_cell_angle_beta 90.000000
_cell_angle_gamma 90.000000
_cell_volume 4500.308290
_symmetry_space_group_name_H-M "I B A M"
_symmetry_group_IT_number 72
_symmetry_cell_setting 'orthorhombic'
loop_
_space_group_symop_operation_xyz
x,y,z
-x,-y,z
x,-y,1/2-z
-x,y,1/2-z
-x,-y,-z
x,y,-z
-x,y,1/2+z
x,-y,1/2+z
1/2+x,1/2+y,1/2+z
1/2-x,1/2-y,1/2+z
1/2+x,1/2-y,-z
1/2-x,1/2+y,-z
1/2-x,1/2-y,1/2-z
1/2+x,1/2+y,1/2-z
1/2-x,1/2+y,z
1/2+x,1/2-y,z
loop_
_atom_site_type_symbol
_atom_site_label
_atom_site_fract_x
_atom_site_fract_y
_atom_site_fract_z
Si Si1 0.712590 0.424966 0.673970
Si Si2 0.651161 0.284690 0.327146
Si Si3 0.451364 0.770126 0.326901
Si Si4 0.086406 0.427566 0.666507
Si Si5 0.693220 0.131256 0.668823
O O1 0.693939 0.500000 0.750000
O O2 0.713083 0.434467 0.500000
O O3 0.675192 0.360986 0.726498
O O4 0.766751 0.405673 0.727693
O O5 0.650399 0.278021 0.500000
O O6 0.594894 0.279334 0.272478
O O7 0.683358 0.214788 0.272111
O O8 0.500000 0.738969 0.250000
O O9 0.457648 0.764803 0.500000
O O10 0.441876 0.854781 0.275884
O O11 0.067704 0.500000 0.750000
O O12 0.072793 0.440751 0.500000
O O13 0.144383 0.416924 0.686319
O O14 0.711017 0.130958 0.500000
#
# Coordination Sequence:
#
# PCOD8295267 Si02
#       5
#    16  16  16  16  16
#     4  11  21  32  48  72 100 130 159 193 235 281
#     4   8  17  34  53  70  95 128 159 193 238 284
#     4   9  18  34  52  70  90 118 156 198 240 282
#     4   9  18  30  45  66  97 130 158 189 228 272
#     4   9  17  32  51  71  96 129 164 196 229 273
#
# _framework density 17.776558999999999
#
# number of rings (size 3 to 8) (size 9 to 14) (size 15 to 20)
#    0.000    2.800    0.000    4.200    0.000    3.600 
#    0.000    8.000    0.000    0.600    0.000    4.200 
#    0.000    0.000    0.000    0.000    0.000    0.000 
#
# Total GULP energy -495898.864660 kJ/mol
# GULP energy per Si atom -12397.471616 kJ/mol
# Density = 1.773610 g / cm^3
# Si number density = 17.776559 Si / 1000 Ang^3
#
#
#
# Elastic Constant Matrix: (Units=GPa)
#
#
# Indices 1 2 3 4 5 6 
#
# 1 64.6863 14.0104 14.8146 0.0000 0.0000 0.0000
# 2 14.0104 77.1071 17.6783 0.0000 0.0000 0.0000
# 3 14.8146 17.6783 39.1434 0.0000 0.0000 0.0000
# 4 0.0000 0.0000 0.0000 24.3758 0.0000 0.0000
# 5 0.0000 0.0000 0.0000 0.0000 27.2355 0.0000
# 6 0.0000 0.0000 0.0000 0.0000 0.0000 12.0308
#
#
#
# Elastic Compliance Matrix: (Units=1/GPa)
#
#
# Indices 1 2 3 4 5 6 
#
# 1 0.017151 -0.001816 -0.005671 0.000000 0.000000 0.000000
# 2 -0.001816 0.014659 -0.005933 0.000000 0.000000 0.000000
# 3 -0.005671 -0.005933 0.030373 0.000000 0.000000 0.000000
# 4 0.000000 0.000000 0.000000 0.041024 0.000000 0.000000
# 5 0.000000 0.000000 0.000000 0.000000 0.036717 0.000000
# 6 0.000000 0.000000 0.000000 0.000000 0.000000 0.083120
#
#
# Mechanical properties :
#
#
# Convention : Reuss Voigt Hill
#
# Bulk Modulus (GPa) = 28.29429 30.43816 29.36622
# Shear Modulus (GPa) = 19.10830 21.69067 20.39949
#
# Velocity S-wave (km/s) = 3.28215 3.49690 3.39123
# Velocity P-wave (km/s) = 5.50586 5.78483 5.64707
#
# Compressibility (1/GPa) = 0.03534282
#
# Stress axis : x y z
#
# Youngs Moduli (GPa) = 58.30433 68.21619 32.92399
#
# Poissons Ratio (x) = 0.12390 0.18671
# Poissons Ratio (y) = 0.10589 0.19534
# Poissons Ratio (z) = 0.33064 0.40474
#
# Static dielectric constant tensor:
#      x y z
#    x 3.320100 0.000000 0.000000 
#    y 0.000000 3.435300 0.000000 
#    z 0.000000 0.000000 3.036130 
# 
# 
# High freq. dielectric constant tensor:
#      x y z
#    x 1.682110 0.000000 0.000000 
#    y 0.000000 1.678780 0.000000 
#    z 0.000000 0.000000 1.667380 
# 
# From -- ./inp_files/4762.got.cif
#   From: 2010.03.12/outbox.cif.g09.slc.cpg/sg72_3_cif.got.tgz:4762.got - 2010.04.16 14:54:00.
