data_PCOD8295701
_publ_section_title
;
Structure prediction by ZEFSAII (Michael W. Deem and Ramdas Pophale) SiO2 
 PCOD8295701
Probable space group: I B C A 
;
_chemical_formula_sum "Si O2"
_cell_formula_units_Z 96
_cell_length_a 27.746583
_cell_length_b 9.964666
_cell_length_c 18.472480
_cell_angle_alpha 90.000000
_cell_angle_beta 90.000000
_cell_angle_gamma 90.000000
_cell_volume 5107.371617
_symmetry_space_group_name_H-M "I B C A "
_symmetry_group_IT_number 73
_symmetry_cell_setting 'orthorhombic'
loop_
_space_group_symop_operation_xyz
x,y,z
-x,1/2-y,z
x,-y,1/2-z
1/2-x,y,-z
-x,-y,-z
x,1/2+y,-z
-x,y,1/2+z
1/2+x,-y,z
1/2+x,1/2+y,1/2+z
1/2-x,-y,1/2+z
1/2+x,1/2-y,-z
-x,1/2+y,1/2-z
1/2-x,1/2-y,1/2-z
1/2+x,y,1/2-z
1/2-x,1/2+y,z
x,1/2-y,1/2+z
loop_
_atom_site_type_symbol
_atom_site_label
_atom_site_fract_x
_atom_site_fract_y
_atom_site_fract_z
Si Si1 0.557079 0.513099 0.087813
Si Si2 0.109123 0.256593 0.411402
Si Si3 0.451334 0.004091 0.580200
Si Si4 0.210361 0.849717 0.337823
Si Si5 0.382521 0.724008 0.079264
Si Si6 0.202903 0.842500 0.168273
O O1 0.589209 0.394825 0.123020
O O2 0.502730 0.523199 0.119700
O O3 0.586259 0.647681 0.101469
O O4 0.547640 0.472170 0.004932
O O5 0.126959 0.278142 0.493467
O O6 0.152271 0.198880 0.364784
O O7 0.064026 0.156350 0.406838
O O8 0.411352 0.903044 0.611556
O O9 0.169081 0.776236 0.383251
O O10 0.197332 0.837043 0.254073
O O11 0.258265 0.766940 0.357847
O O12 0.217169 0.007090 0.358349
#
# Coordination Sequence:
#
# PCOD8295701 Si02
#       6
#    16  16  16  16  16  16
#     4   9  18  28  52  81 110 146 173 215 258 315
#     4  10  19  33  54  83 110 138 178 221 266 308
#     4   9  16  32  50  77 114 144 179 211 258 313
#     4  10  22  40  59  77 103 142 182 220 268 325
#     4  10  19  33  54  83 110 138 178 221 266 308
#     4  10  22  40  59  77 103 142 182 220 268 325
#
# _framework density 18.79636
#
# number of rings (size 3 to 8) (size 9 to 14) (size 15 to 20)
#    0.000    2.333    1.667    1.000    2.333    4.667 
#    0.000    1.667    0.000    6.000    0.000    0.000 
#    0.000    0.000    0.000    0.000    0.000    0.000 
#
# Total GULP energy -595083.833851 kJ/mol
# GULP energy per Si atom -12397.579872 kJ/mol
# Density = 1.875358 g / cm^3
# Si number density = 18.796360 Si / 1000 Ang^3
#
#
#
# Elastic Constant Matrix: (Units=GPa)
#
#
# Indices 1 2 3 4 5 6 
#
# 1 91.7287 31.2824 21.5864 0.0000 0.0000 0.0000
# 2 31.2824 93.3973 13.8239 0.0000 0.0000 0.0000
# 3 21.5864 13.8239 17.3322 0.0000 0.0000 0.0000
# 4 0.0000 0.0000 0.0000 17.6060 0.0000 0.0000
# 5 0.0000 0.0000 0.0000 0.0000 -2.0870 0.0000
# 6 0.0000 0.0000 0.0000 0.0000 0.0000 37.2607
#
#
#
# Elastic Compliance Matrix: (Units=1/GPa)
#
#
# Indices 1 2 3 4 5 6 
#
# 1 0.016015 -0.002735 -0.017765 0.000000 0.000000 0.000000
# 2 -0.002735 0.012607 -0.006649 0.000000 0.000000 0.000000
# 3 -0.017765 -0.006649 0.085124 0.000000 0.000000 0.000000
# 4 0.000000 0.000000 0.000000 0.056799 0.000000 0.000000
# 5 0.000000 0.000000 0.000000 0.000000 -0.479160 0.000000
# 6 0.000000 0.000000 0.000000 0.000000 0.000000 0.026838
#
#
# Mechanical properties :
#
#
# Convention : Reuss Voigt Hill
#
# Bulk Modulus (GPa) = 16.82109 37.31595 27.06852
# Shear Modulus (GPa) = -24.07739 19.60699 -2.23520
#
# Velocity S-wave (km/s) = -3.58293 3.23325 -1.09167
# Velocity P-wave (km/s) = 2.85447 5.81673 3.58374
#
# Compressibility (1/GPa) = 0.05944919
#
# Stress axis : x y z
#
# Youngs Moduli (GPa) = 62.44216 79.32067 11.74752
#
# Poissons Ratio (x) = 0.21691 0.20869
# Poissons Ratio (y) = 0.17076 0.07811
# Poissons Ratio (z) = 1.10926 0.52743
#
# Static dielectric constant tensor:
#      x y z
#    x 3.492360 0.000000 0.000000 
#    y 0.000000 3.699740 0.000000 
#    z 0.000000 0.000000 3.014650 
# 
# 
# High freq. dielectric constant tensor:
#      x y z
#    x 1.741730 0.000000 0.000000 
#    y 0.000000 1.750280 0.000000 
#    z 0.000000 0.000000 1.677470 
# 
# From -- ./inp_files/7178.got.cif
#   From: 2010.03.12/outbox.cif.g09.slc.cpg/sg73_4_cif.got.tgz:7178.got - 2010.04.16 15:25:48.
