data_PCOD8295297
_publ_section_title
;
Structure prediction by ZEFSAII (Michael W. Deem and Ramdas Pophale) SiO2 
 PCOD8295297
Probable space group: I B A M
;
_chemical_formula_sum "Si O2"
_cell_formula_units_Z 80
_cell_length_a 9.991798
_cell_length_b 13.214522
_cell_length_c 31.808746
_cell_angle_alpha 90.000000
_cell_angle_beta 90.000000
_cell_angle_gamma 90.000000
_cell_volume 4199.926131
_symmetry_space_group_name_H-M "I B A M"
_symmetry_group_IT_number 72
_symmetry_cell_setting 'orthorhombic'
loop_
_space_group_symop_operation_xyz
x,y,z
-x,-y,z
x,-y,1/2-z
-x,y,1/2-z
-x,-y,-z
x,y,-z
-x,y,1/2+z
x,-y,1/2+z
1/2+x,1/2+y,1/2+z
1/2-x,1/2-y,1/2+z
1/2+x,1/2-y,-z
1/2-x,1/2+y,-z
1/2-x,1/2-y,1/2-z
1/2+x,1/2+y,1/2-z
1/2-x,1/2+y,z
1/2+x,1/2-y,z
loop_
_atom_site_type_symbol
_atom_site_label
_atom_site_fract_x
_atom_site_fract_y
_atom_site_fract_z
Si Si1 0.217170 0.624436 0.500000
Si Si2 0.622534 0.446333 0.295272
Si Si3 0.087630 0.305187 0.500000
Si Si4 0.850363 0.535912 0.565756
Si Si5 0.352204 0.957015 0.340389
Si Si6 0.121623 0.276385 0.277544
O O1 0.351190 0.692536 0.500000
O O2 0.228607 0.552852 0.541192
O O3 0.075993 0.688460 0.500000
O O4 0.500000 0.500000 0.319689
O O5 0.639354 0.500000 0.250000
O O6 0.761803 0.456915 0.319214
O O7 0.574955 0.330613 0.295602
O O8 0.150642 0.359118 0.540696
O O9 0.794920 0.558045 0.612442
O O10 0.000000 0.500000 0.569774
O O11 0.340914 0.852163 0.315060
O O12 0.500000 0.000000 0.340008
O O13 0.250000 0.250000 0.250000
O O14 0.000000 0.323580 0.250000
#
# Coordination Sequence:
#
# PCOD8295297 Si02
#       6
#     8  16   8  16  16  16
#     4   9  17  35  64  84 114 149 179 221 282 338
#     4  11  21  39  54  73 113 152 181 229 304 336
#     4   9  17  35  62  82 112 147 185 219 274 342
#     4   8  18  37  55  82 115 150 178 225 285 332
#     4  11  23  36  58  84 110 142 201 245 266 328
#     4  12  22  35  56  77 102 147 193 230 281 333
#
# _framework density 19.047953
#
# number of rings (size 3 to 8) (size 9 to 14) (size 15 to 20)
#    0.000    1.800    4.000    2.400    0.000    1.600 
#    0.000   10.000    0.000    0.000    0.000    0.000 
#    0.000    0.000    0.000    0.000    0.000    0.000 
#
# Total GULP energy -495712.684663 kJ/mol
# GULP energy per Si atom -12392.817117 kJ/mol
# Density = 1.900460 g / cm^3
# Si number density = 19.047953 Si / 1000 Ang^3
#
#
#
# Elastic Constant Matrix: (Units=GPa)
#
#
# Indices 1 2 3 4 5 6 
#
# 1 77.9392 11.7760 32.2731 0.0000 0.0000 0.0000
# 2 11.7760 96.2178 46.5347 0.0000 0.0000 0.0000
# 3 32.2731 46.5347 131.9225 0.0000 0.0000 0.0000
# 4 0.0000 0.0000 0.0000 20.8017 0.0000 0.0000
# 5 0.0000 0.0000 0.0000 0.0000 15.2248 0.0000
# 6 0.0000 0.0000 0.0000 0.0000 0.0000 35.2330
#
#
#
# Elastic Compliance Matrix: (Units=1/GPa)
#
#
# Indices 1 2 3 4 5 6 
#
# 1 0.014277 -0.000070 -0.003468 0.000000 0.000000 0.000000
# 2 -0.000070 0.012531 -0.004403 0.000000 0.000000 0.000000
# 3 -0.003468 -0.004403 0.009982 0.000000 0.000000 0.000000
# 4 0.000000 0.000000 0.000000 0.048073 0.000000 0.000000
# 5 0.000000 0.000000 0.000000 0.000000 0.065682 0.000000
# 6 0.000000 0.000000 0.000000 0.000000 0.000000 0.028382
#
#
# Mechanical properties :
#
#
# Convention : Reuss Voigt Hill
#
# Bulk Modulus (GPa) = 47.82938 54.13858 50.98398
# Shear Modulus (GPa) = 24.77953 28.61829 26.69891
#
# Velocity S-wave (km/s) = 3.61072 3.88033 3.74795
# Velocity P-wave (km/s) = 6.52285 6.96849 6.74935
#
# Compressibility (1/GPa) = 0.02090765
#
# Stress axis : x y z
#
# Youngs Moduli (GPa) = 70.04209 79.80077 100.18247
#
# Poissons Ratio (x) = 0.00559 0.34743
# Poissons Ratio (y) = 0.00491 0.44112
# Poissons Ratio (z) = 0.24291 0.35137
#
# Static dielectric constant tensor:
#      x y z
#    x 3.484550 0.000000 0.000000 
#    y 0.000000 4.009810 0.000000 
#    z 0.000000 0.000000 4.283390 
# 
# 
# High freq. dielectric constant tensor:
#      x y z
#    x 1.734600 0.000000 0.000000 
#    y 0.000000 1.740680 0.000000 
#    z 0.000000 0.000000 1.730250 
# 
# From -- ./inp_files/47993.got.cif
#   From: 2010.03.12/outbox.cif.g09.slc.cpg/sg72_24_cif.got.tgz:47993.got - 2010.04.16 14:54:00.
