data_PCOD8295070
_publ_section_title
;
Structure prediction by ZEFSAII (Michael W. Deem and Ramdas Pophale) SiO2 
 PCOD8295070
Probable space group: I B A M
;
_chemical_formula_sum "Si O2"
_cell_formula_units_Z 96
_cell_length_a 20.670558
_cell_length_b 8.713046
_cell_length_c 26.366820
_cell_angle_alpha 90.000000
_cell_angle_beta 90.000000
_cell_angle_gamma 90.000000
_cell_volume 4748.757164
_symmetry_space_group_name_H-M "I B A M"
_symmetry_group_IT_number 72
_symmetry_cell_setting 'orthorhombic'
loop_
_space_group_symop_operation_xyz
x,y,z
-x,-y,z
x,-y,1/2-z
-x,y,1/2-z
-x,-y,-z
x,y,-z
-x,y,1/2+z
x,-y,1/2+z
1/2+x,1/2+y,1/2+z
1/2-x,1/2-y,1/2+z
1/2+x,1/2-y,-z
1/2-x,1/2+y,-z
1/2-x,1/2-y,1/2-z
1/2+x,1/2+y,1/2-z
1/2-x,1/2+y,z
1/2+x,1/2-y,z
loop_
_atom_site_type_symbol
_atom_site_label
_atom_site_fract_x
_atom_site_fract_y
_atom_site_fract_z
Si Si1 0.156568 0.902160 0.555285
Si Si2 0.758613 0.837899 0.409525
Si Si3 0.563529 0.939487 0.306911
Si Si4 0.455197 0.146038 0.056647
Si Si5 0.461736 0.650466 0.130590
Si Si6 0.161858 0.417596 0.625027
O O1 0.123297 0.882531 0.500000
O O2 0.213250 0.775370 0.558409
O O3 0.103037 0.888390 0.599143
O O4 0.190554 0.068753 0.556017
O O5 0.801186 0.743132 0.368538
O O6 0.714771 0.951881 0.378686
O O7 0.562704 0.757104 0.321519
O O8 0.500000 0.000000 0.336888
O O9 0.557004 0.000000 0.250000
O O10 0.624383 0.036409 0.324752
O O11 0.486380 0.271685 0.093492
O O12 0.385254 0.089631 0.076400
O O13 0.500000 0.000000 0.053343
O O14 0.446225 0.215895 0.000000
O O15 0.500000 0.500000 0.151721
#
# Coordination Sequence:
#
# PCOD8295070 Si02
#       6
#    16  16  16  16  16  16
#     4  11  22  37  58  91 133 174 217 255 301 370
#     4  10  23  36  61  85 128 174 216 253 300 360
#     4  11  23  45  72  91 115 160 208 262 333 397
#     4  11  21  36  62  91 127 176 217 251 309 383
#     4  12  23  39  64  97 132 159 205 273 333 375
#     4  11  20  42  61  88 124 166 213 258 308 368
#
# _framework density 20.215816
#
# number of rings (size 3 to 8) (size 9 to 14) (size 15 to 20)
#    0.000    1.000    5.000    2.000    0.000    8.000 
#    0.000    2.500    0.000    0.000    0.000    0.000 
#    0.000    0.000    0.000    0.000    0.000    0.000 
#
# Total GULP energy -594643.322864 kJ/mol
# GULP energy per Si atom -12388.402560 kJ/mol
# Density = 2.016980 g / cm^3
# Si number density = 20.215816 Si / 1000 Ang^3
#
#
#
# Elastic Constant Matrix: (Units=GPa)
#
#
# Indices 1 2 3 4 5 6 
#
# 1 115.7484 52.8082 40.0779 0.0000 0.0000 0.0000
# 2 52.8082 131.7177 51.2192 0.0000 0.0000 0.0000
# 3 40.0779 51.2192 98.3743 0.0000 0.0000 0.0000
# 4 0.0000 0.0000 0.0000 19.2573 0.0000 0.0000
# 5 0.0000 0.0000 0.0000 0.0000 11.7465 0.0000
# 6 0.0000 0.0000 0.0000 0.0000 0.0000 22.6979
#
#
#
# Elastic Compliance Matrix: (Units=1/GPa)
#
#
# Indices 1 2 3 4 5 6 
#
# 1 0.011147 -0.003389 -0.002777 0.000000 0.000000 0.000000
# 2 -0.003389 0.010550 -0.004112 0.000000 0.000000 0.000000
# 3 -0.002777 -0.004112 0.013437 0.000000 0.000000 0.000000
# 4 0.000000 0.000000 0.000000 0.051928 0.000000 0.000000
# 5 0.000000 0.000000 0.000000 0.000000 0.085132 0.000000
# 6 0.000000 0.000000 0.000000 0.000000 0.000000 0.044057
#
#
# Mechanical properties :
#
#
# Convention : Reuss Voigt Hill
#
# Bulk Modulus (GPa) = 68.59506 70.45013 69.52259
# Shear Modulus (GPa) = 20.68962 24.18935 22.43949
#
# Velocity S-wave (km/s) = 3.20259 3.46288 3.33528
# Velocity P-wave (km/s) = 6.90511 7.13536 7.02118
#
# Compressibility (1/GPa) = 0.01457831
#
# Stress axis : x y z
#
# Youngs Moduli (GPa) = 89.70854 94.78811 74.41906
#
# Poissons Ratio (x) = 0.32128 0.20664
# Poissons Ratio (y) = 0.30406 0.30601
# Poissons Ratio (z) = 0.24909 0.38977
#
# Static dielectric constant tensor:
#      x y z
#    x 4.238140 0.000000 0.000000 
#    y 0.000000 4.236450 0.000000 
#    z 0.000000 0.000000 3.324050 
# 
# 
# High freq. dielectric constant tensor:
#      x y z
#    x 1.810690 0.000000 0.000000 
#    y 0.000000 1.802980 0.000000 
#    z 0.000000 0.000000 1.749290 
# 
# From -- ./inp_files/47327.got.cif
#   From: 2010.03.12/outbox.cif.g09.slc.cpg/sg72_24_cif.got.tgz:47327.got - 2010.04.16 14:54:00.
