data_PCOD8295570
_publ_section_title
;
Structure prediction by ZEFSAII (Michael W. Deem and Ramdas Pophale) SiO2 
 PCOD8295570
Probable space group: I B C A 
;
_chemical_formula_sum "Si O2"
_cell_formula_units_Z 120
_cell_length_a 21.390249
_cell_length_b 20.124848
_cell_length_c 14.676409
_cell_angle_alpha 90.000000
_cell_angle_beta 90.000000
_cell_angle_gamma 90.000000
_cell_volume 6317.834646
_symmetry_space_group_name_H-M "I B C A "
_symmetry_group_IT_number 73
_symmetry_cell_setting 'orthorhombic'
loop_
_space_group_symop_operation_xyz
x,y,z
-x,1/2-y,z
x,-y,1/2-z
1/2-x,y,-z
-x,-y,-z
x,1/2+y,-z
-x,y,1/2+z
1/2+x,-y,z
1/2+x,1/2+y,1/2+z
1/2-x,-y,1/2+z
1/2+x,1/2-y,-z
-x,1/2+y,1/2-z
1/2-x,1/2-y,1/2-z
1/2+x,y,1/2-z
1/2-x,1/2+y,z
x,1/2-y,1/2+z
loop_
_atom_site_type_symbol
_atom_site_label
_atom_site_fract_x
_atom_site_fract_y
_atom_site_fract_z
Si Si1 0.980068 0.569321 0.039315
Si Si2 0.434018 0.777989 0.277180
Si Si3 0.685811 0.580463 0.553559
Si Si4 0.127643 0.647519 0.789267
Si Si5 0.418726 0.000000 0.250000
Si Si6 0.134139 0.538236 0.661186
Si Si7 0.102861 0.395523 0.382381
Si Si8 0.509856 0.387090 0.347488
O O1 0.914304 0.561969 0.086611
O O2 0.027793 0.594773 0.116000
O O3 0.979534 0.621491 0.955823
O O4 0.000000 0.500000 0.000000
O O5 0.500000 0.750000 0.318754
O O6 0.386610 0.722621 0.239139
O O7 0.391304 0.818887 0.349984
O O8 0.452637 0.825733 0.194520
O O9 0.750000 0.588371 0.500000
O O10 0.676420 0.640541 0.626224
O O11 0.683163 0.509572 0.607389
O O12 0.631202 0.588429 0.479845
O O13 0.159485 0.607832 0.703742
O O14 0.063180 0.612742 0.821735
O O15 0.373622 0.050047 0.192105
O O16 0.462168 0.042134 0.317925
O O17 0.106848 0.500000 0.750000
#
# Coordination Sequence:
#
# PCOD8295570 Si02
#       8
#    16  16  16  16   8  16  16  16
#     4  12  17  27  52  88 120 142 181 225 296 353
#     4   9  20  37  53  84 120 150 182 222 289 364
#     4  11  23  40  58  80 108 146 204 246 281 327
#     4  10  20  39  56  80 114 157 191 223 286 359
#     4  10  18  28  52  84 120 140 174 224 292 350
#     4  10  20  34  59  82 112 147 181 227 294 356
#     4  11  21  34  55  86 116 149 180 236 288 344
#     4  10  18  28  52  84 123 150 176 223 280 365
#
# _framework density 18.993849000000001
#
# number of rings (size 3 to 8) (size 9 to 14) (size 15 to 20)
#    0.000    1.600    4.000    3.200    3.733    0.000 
#    8.400    0.667    0.000    0.800    0.000    0.000 
#    0.000    0.000    0.000    0.000    0.000    0.000 
#
# Total GULP energy -743327.684640 kJ/mol
# GULP energy per Si atom -12388.794744 kJ/mol
# Density = 1.895062 g / cm^3
# Si number density = 18.993849 Si / 1000 Ang^3
#
#
#
# Elastic Constant Matrix: (Units=GPa)
#
#
# Indices 1 2 3 4 5 6 
#
# 1 50.5148 28.6920 24.1657 0.0000 0.0000 0.0000
# 2 28.6920 123.2319 49.8541 0.0000 0.0000 0.0000
# 3 24.1657 49.8541 103.8547 0.0000 0.0000 0.0000
# 4 0.0000 0.0000 0.0000 24.7986 0.0000 0.0000
# 5 0.0000 0.0000 0.0000 0.0000 24.5586 0.0000
# 6 0.0000 0.0000 0.0000 0.0000 0.0000 16.6599
#
#
#
# Elastic Compliance Matrix: (Units=1/GPa)
#
#
# Indices 1 2 3 4 5 6 
#
# 1 0.023838 -0.004103 -0.003577 0.000000 0.000000 0.000000
# 2 -0.004103 0.010777 -0.004218 0.000000 0.000000 0.000000
# 3 -0.003577 -0.004218 0.012486 0.000000 0.000000 0.000000
# 4 0.000000 0.000000 0.000000 0.040325 0.000000 0.000000
# 5 0.000000 0.000000 0.000000 0.000000 0.040719 0.000000
# 6 0.000000 0.000000 0.000000 0.000000 0.000000 0.060024
#
#
# Mechanical properties :
#
#
# Convention : Reuss Voigt Hill
#
# Bulk Modulus (GPa) = 42.91204 53.66945 48.29075
# Shear Modulus (GPa) = 22.75478 24.86275 23.80876
#
# Velocity S-wave (km/s) = 3.46498 3.62192 3.54432
# Velocity P-wave (km/s) = 6.21689 6.76821 6.49840
#
# Compressibility (1/GPa) = 0.02330348
#
# Stress axis : x y z
#
# Youngs Moduli (GPa) = 41.94994 92.79286 80.08822
#
# Poissons Ratio (x) = 0.38073 0.28649
# Poissons Ratio (y) = 0.17212 0.33785
# Poissons Ratio (z) = 0.15006 0.39145
#
# Static dielectric constant tensor:
#      x y z
#    x 2.968600 0.000000 0.000000 
#    y 0.000000 3.672820 0.000000 
#    z 0.000000 0.000000 3.758280 
# 
# 
# High freq. dielectric constant tensor:
#      x y z
#    x 1.676220 0.000000 0.000000 
#    y 0.000000 1.738330 0.000000 
#    z 0.000000 0.000000 1.758590 
# 
# From -- ./inp_files/18949.got.cif
#   From: 2010.03.12/outbox.cif.g09.slc.cpg/sg73_10_cif.got.tgz:18949.got - 2010.04.16 15:25:48.
