data_PCOD8295134
_publ_section_title
;
Structure prediction by ZEFSAII (Michael W. Deem and Ramdas Pophale) SiO2 
 PCOD8295134
Probable space group: I B A M
;
_chemical_formula_sum "Si O2"
_cell_formula_units_Z 112
_cell_length_a 14.622609
_cell_length_b 14.521063
_cell_length_c 26.333048
_cell_angle_alpha 90.000000
_cell_angle_beta 90.000000
_cell_angle_gamma 90.000000
_cell_volume 5591.449512
_symmetry_space_group_name_H-M "I B A M"
_symmetry_group_IT_number 72
_symmetry_cell_setting 'orthorhombic'
loop_
_space_group_symop_operation_xyz
x,y,z
-x,-y,z
x,-y,1/2-z
-x,y,1/2-z
-x,-y,-z
x,y,-z
-x,y,1/2+z
x,-y,1/2+z
1/2+x,1/2+y,1/2+z
1/2-x,1/2-y,1/2+z
1/2+x,1/2-y,-z
1/2-x,1/2+y,-z
1/2-x,1/2-y,1/2-z
1/2+x,1/2+y,1/2-z
1/2-x,1/2+y,z
1/2+x,1/2-y,z
loop_
_atom_site_type_symbol
_atom_site_label
_atom_site_fract_x
_atom_site_fract_y
_atom_site_fract_z
Si Si1 0.222335 0.321036 0.442198
Si Si2 0.313641 0.733322 0.654899
Si Si3 0.090345 0.439269 0.838185
Si Si4 0.654729 0.360106 0.141675
Si Si5 0.107934 0.494095 0.945403
Si Si6 0.281066 0.470337 0.194682
Si Si7 0.508394 0.247596 0.808051
O O1 0.234173 0.288484 0.500000
O O2 0.185621 0.235774 0.407348
O O3 0.321896 0.350278 0.418665
O O4 0.151261 0.405299 0.436390
O O5 0.230495 0.799710 0.673510
O O6 0.304064 0.633888 0.679856
O O7 0.408611 0.777931 0.672106
O O8 0.127689 0.428839 0.896722
O O9 0.171876 0.487361 0.807292
O O10 0.073033 0.340785 0.813603
O O11 0.000000 0.500000 0.834807
O O12 0.664706 0.466966 0.154945
O O13 0.553243 0.327737 0.157263
O O14 0.000000 0.500000 0.949639
O O15 0.145038 0.454555 0.000000
O O16 0.316692 0.500000 0.250000
O O17 0.500000 0.280256 0.750000
#
# Coordination Sequence:
#
# PCOD8295134 Si02
#       7
#    16  16  16  16  16  16  16
#     4   9  18  39  65  89 129 170 206 270 336 387
#     4  10  23  43  60  90 131 161 214 269 316 390
#     4  11  21  34  55  94 122 152 212 266 320 378
#     4  10  23  43  61  90 131 161 221 267 318 395
#     4   9  16  30  56  89 124 160 197 254 326 380
#     4  12  24  38  62  87 124 173 210 259 321 375
#     4  12  25  39  63  88 127 178 216 264 324 385
#
# _framework density 20.030584999999999
#
# number of rings (size 3 to 8) (size 9 to 14) (size 15 to 20)
#    0.857    0.714    2.857    3.429    4.000    1.714 
#    0.000    5.714    0.000    0.000    0.000    2.000 
#    0.000    0.000    0.000    0.000    0.000    0.000 
#
# Total GULP energy -693770.216572 kJ/mol
# GULP energy per Si atom -12388.753867 kJ/mol
# Density = 1.998499 g / cm^3
# Si number density = 20.030585 Si / 1000 Ang^3
#
#
#
# Elastic Constant Matrix: (Units=GPa)
#
#
# Indices 1 2 3 4 5 6 
#
# 1 53.0583 -1.0504 14.7482 0.0000 0.0000 0.0000
# 2 -1.0504 57.4256 14.2294 0.0000 0.0000 0.0000
# 3 14.7482 14.2294 136.2318 0.0000 0.0000 0.0000
# 4 0.0000 0.0000 0.0000 7.5666 0.0000 0.0000
# 5 0.0000 0.0000 0.0000 0.0000 -0.6189 0.0000
# 6 0.0000 0.0000 0.0000 0.0000 0.0000 28.9894
#
#
#
# Elastic Compliance Matrix: (Units=1/GPa)
#
#
# Indices 1 2 3 4 5 6 
#
# 1 0.019477 0.000902 -0.002203 0.000000 0.000000 0.000000
# 2 0.000902 0.017918 -0.001969 0.000000 0.000000 0.000000
# 3 -0.002203 -0.001969 0.007785 0.000000 0.000000 0.000000
# 4 0.000000 0.000000 0.000000 0.132161 0.000000 0.000000
# 5 0.000000 0.000000 0.000000 0.000000 -1.615696 0.000000
# 6 0.000000 0.000000 0.000000 0.000000 0.000000 0.034495
#
#
# Mechanical properties :
#
#
# Convention : Reuss Voigt Hill
#
# Bulk Modulus (GPa) = 25.87969 33.61891 29.74930
# Shear Modulus (GPa) = -3.61157 21.77330 9.08087
#
# Velocity S-wave (km/s) = -1.34423 3.30055 2.13151
# Velocity P-wave (km/s) = 3.24636 5.59867 4.57624
#
# Compressibility (1/GPa) = 0.03864034
#
# Stress axis : x y z
#
# Youngs Moduli (GPa) = 51.34173 55.80892 128.45891
#
# Poissons Ratio (x) = -0.05035 0.28297
# Poissons Ratio (y) = -0.04632 0.25296
# Poissons Ratio (z) = 0.11310 0.10990
#
# Static dielectric constant tensor:
#      x y z
#    x 3.621960 0.000000 0.000000 
#    y 0.000000 3.411760 0.000000 
#    z 0.000000 0.000000 4.028780 
# 
# 
# High freq. dielectric constant tensor:
#      x y z
#    x 1.770780 0.000000 0.000000 
#    y 0.000000 1.762210 0.000000 
#    z 0.000000 0.000000 1.782490 
# 
# From -- ./inp_files/48738.got.cif
#   From: 2010.03.12/outbox.cif.g09.slc.cpg/sg72_25_cif.got.tgz:48738.got - 2010.04.16 14:54:00.
