data_PCOD8295746
_publ_section_title
;
Structure prediction by ZEFSAII (Michael W. Deem and Ramdas Pophale) SiO2 
 PCOD8295746
Probable space group: I B C A 
;
_chemical_formula_sum "Si O2"
_cell_formula_units_Z 112
_cell_length_a 27.739114
_cell_length_b 14.488523
_cell_length_c 13.838256
_cell_angle_alpha 90.000000
_cell_angle_beta 90.000000
_cell_angle_gamma 90.000000
_cell_volume 5561.578359
_symmetry_space_group_name_H-M "I B C A "
_symmetry_group_IT_number 73
_symmetry_cell_setting 'orthorhombic'
loop_
_space_group_symop_operation_xyz
x,y,z
-x,1/2-y,z
x,-y,1/2-z
1/2-x,y,-z
-x,-y,-z
x,1/2+y,-z
-x,y,1/2+z
1/2+x,-y,z
1/2+x,1/2+y,1/2+z
1/2-x,-y,1/2+z
1/2+x,1/2-y,-z
-x,1/2+y,1/2-z
1/2-x,1/2-y,1/2-z
1/2+x,y,1/2-z
1/2-x,1/2+y,z
x,1/2-y,1/2+z
loop_
_atom_site_type_symbol
_atom_site_label
_atom_site_fract_x
_atom_site_fract_y
_atom_site_fract_z
Si Si1 0.555810 0.752337 0.372919
Si Si2 0.602828 0.392247 0.993752
Si Si3 0.900129 0.395532 0.509817
Si Si4 0.703832 0.377528 0.552840
Si Si5 0.292234 0.085855 0.937362
Si Si6 0.198223 0.795348 0.255853
Si Si7 0.901892 0.754874 0.331067
O O1 0.500000 0.750000 0.400359
O O2 0.581785 0.661557 0.414937
O O3 0.578253 0.845415 0.416332
O O4 0.561996 0.753271 0.258085
O O5 0.660491 0.395444 0.001262
O O6 0.589693 0.338092 0.894795
O O7 0.583555 0.497819 0.999225
O O8 0.842396 0.381084 0.516551
O O9 0.918112 0.345434 0.607863
O O10 0.750000 0.328564 0.500000
O O11 0.720439 0.479646 0.580204
O O12 0.685558 0.326560 0.648313
O O13 0.296867 0.120628 0.829042
O O14 0.250000 0.133887 0.000000
O O15 0.250000 0.750000 0.250000
O O16 0.153535 0.733197 0.293871
#
# Coordination Sequence:
#
# PCOD8295746 Si02
#       7
#    16  16  16  16  16  16  16
#     4  11  24  42  64  90 123 158 200 260 309 360
#     4   9  22  41  64  91 121 164 201 247 308 361
#     4  10  21  42  65  87 125 160 203 255 301 367
#     4  10  19  36  56  84 119 160 201 241 294 354
#     4   9  20  35  56  84 120 157 197 245 291 355
#     4  11  21  31  55  84 116 159 200 241 298 362
#     4  10  22  39  59  91 122 157 204 255 304 357
#
# _framework density 20.138168
#
# number of rings (size 3 to 8) (size 9 to 14) (size 15 to 20)
#    0.000    2.000    1.429    1.286    2.000    5.714 
#    0.000    1.429    0.000    0.000    0.000    0.000 
#    0.000    0.000    0.000    0.000    0.000    0.000 
#
# Total GULP energy -694143.961485 kJ/mol
# GULP energy per Si atom -12395.427884 kJ/mol
# Density = 2.009233 g / cm^3
# Si number density = 20.138168 Si / 1000 Ang^3
#
#
#
# Elastic Constant Matrix: (Units=GPa)
#
#
# Indices 1 2 3 4 5 6 
#
# 1 67.5778 32.3910 20.3009 0.0000 0.0000 0.0000
# 2 32.3910 131.3642 52.3373 0.0000 0.0000 0.0000
# 3 20.3009 52.3373 121.3266 0.0000 0.0000 0.0000
# 4 0.0000 0.0000 0.0000 -5.2376 0.0000 0.0000
# 5 0.0000 0.0000 0.0000 0.0000 26.3978 0.0000
# 6 0.0000 0.0000 0.0000 0.0000 0.0000 12.9809
#
#
#
# Elastic Compliance Matrix: (Units=1/GPa)
#
#
# Indices 1 2 3 4 5 6 
#
# 1 0.016936 -0.003679 -0.001247 0.000000 0.000000 0.000000
# 2 -0.003679 0.009992 -0.003694 0.000000 0.000000 0.000000
# 3 -0.001247 -0.003694 0.010045 0.000000 0.000000 0.000000
# 4 0.000000 0.000000 0.000000 -0.190928 0.000000 0.000000
# 5 0.000000 0.000000 0.000000 0.000000 0.037882 0.000000
# 6 0.000000 0.000000 0.000000 0.000000 0.000000 0.077036
#
#
# Mechanical properties :
#
#
# Convention : Reuss Voigt Hill
#
# Bulk Modulus (GPa) = 50.68134 58.92522 54.80328
# Shear Modulus (GPa) = -328.51472 21.17751 -153.66860
#
# Velocity S-wave (km/s) = -12.78611 3.24637 -8.74487
# Velocity P-wave (km/s) = 13.88373 6.58604 8.64240
#
# Compressibility (1/GPa) = 0.01973113
#
# Stress axis : x y z
#
# Youngs Moduli (GPa) = 59.04660 100.08444 99.55678
#
# Poissons Ratio (x) = 0.36823 0.12411
# Poissons Ratio (y) = 0.21725 0.36781
# Poissons Ratio (z) = 0.07361 0.36976
#
# Static dielectric constant tensor:
#      x y z
#    x 3.583170 0.000000 0.000000 
#    y 0.000000 3.748320 0.000000 
#    z 0.000000 0.000000 4.518900 
# 
# 
# High freq. dielectric constant tensor:
#      x y z
#    x 1.778890 0.000000 0.000000 
#    y 0.000000 1.779970 0.000000 
#    z 0.000000 0.000000 1.788360 
# 
# From -- ./inp_files/11254.got.cif
#   From: 2010.03.12/outbox.cif.g09.slc.cpg/sg73_6_cif.got.tgz:11254.got - 2010.04.16 15:25:48.
