data_PCOD8295742
_publ_section_title
;
Structure prediction by ZEFSAII (Michael W. Deem and Ramdas Pophale) SiO2 
 PCOD8295742
Probable space group: I B C A 
;
_chemical_formula_sum "Si O2"
_cell_formula_units_Z 96
_cell_length_a 26.700952
_cell_length_b 18.089132
_cell_length_c 9.069071
_cell_angle_alpha 90.000000
_cell_angle_beta 90.000000
_cell_angle_gamma 90.000000
_cell_volume 4380.334496
_symmetry_space_group_name_H-M "I B C A "
_symmetry_group_IT_number 73
_symmetry_cell_setting 'orthorhombic'
loop_
_space_group_symop_operation_xyz
x,y,z
-x,1/2-y,z
x,-y,1/2-z
1/2-x,y,-z
-x,-y,-z
x,1/2+y,-z
-x,y,1/2+z
1/2+x,-y,z
1/2+x,1/2+y,1/2+z
1/2-x,-y,1/2+z
1/2+x,1/2-y,-z
-x,1/2+y,1/2-z
1/2-x,1/2-y,1/2-z
1/2+x,y,1/2-z
1/2-x,1/2+y,z
x,1/2-y,1/2+z
loop_
_atom_site_type_symbol
_atom_site_label
_atom_site_fract_x
_atom_site_fract_y
_atom_site_fract_z
Si Si1 0.872241 0.420142 0.799947
Si Si2 0.295144 0.200012 0.611656
Si Si3 0.603075 0.808526 0.549019
Si Si4 0.483451 0.669534 0.320517
Si Si5 0.270202 0.860943 0.340715
Si Si6 0.569368 0.355483 0.962532
O O1 0.891789 0.500000 0.750000
O O2 0.897343 0.356086 0.698587
O O3 0.811600 0.419916 0.788421
O O4 0.886572 0.408125 0.974438
O O5 0.250000 0.202894 0.500000
O O6 0.346025 0.173554 0.537870
O O7 0.300571 0.283027 0.674361
O O8 0.279419 0.141752 0.738411
O O9 0.557315 0.831248 0.447802
O O10 0.595787 0.721840 0.583701
O O11 0.500000 0.750000 0.257052
O O12 0.532980 0.638717 0.396193
O O13 0.461827 0.620390 0.183700
O O14 0.250000 0.881473 0.500000
#
# Coordination Sequence:
#
# PCOD8295742 Si02
#       6
#    16  16  16  16  16  16
#     4  12  26  44  63  97 139 178 213 271 338 392
#     4  10  19  35  63  96 121 162 216 272 321 382
#     4  11  21  38  66  93 130 172 218 272 323 390
#     4  10  21  37  66 102 128 160 220 280 328 372
#     4  10  22  37  60  91 128 164 218 268 323 387
#     4  11  22  40  66  97 129 169 218 272 323 395
#
# _framework density 21.916134
#
# number of rings (size 3 to 8) (size 9 to 14) (size 15 to 20)
#    0.000    1.333    3.333    4.500    2.333    0.000 
#    3.000    4.167    0.000    0.000    0.000    0.000 
#    0.000    0.000    0.000    0.000    0.000    0.000 
#
# Total GULP energy -594825.618385 kJ/mol
# GULP energy per Si atom -12392.200383 kJ/mol
# Density = 2.186625 g / cm^3
# Si number density = 21.916134 Si / 1000 Ang^3
#
#
#
# Elastic Constant Matrix: (Units=GPa)
#
#
# Indices 1 2 3 4 5 6 
#
# 1 85.7334 10.4537 10.6214 0.0000 0.0000 0.0000
# 2 10.4537 65.6904 19.6880 0.0000 0.0000 0.0000
# 3 10.6214 19.6880 78.6936 0.0000 0.0000 0.0000
# 4 0.0000 0.0000 0.0000 19.5012 0.0000 0.0000
# 5 0.0000 0.0000 0.0000 0.0000 34.4929 0.0000
# 6 0.0000 0.0000 0.0000 0.0000 0.0000 13.0974
#
#
#
# Elastic Compliance Matrix: (Units=1/GPa)
#
#
# Indices 1 2 3 4 5 6 
#
# 1 0.012005 -0.001540 -0.001235 0.000000 0.000000 0.000000
# 2 -0.001540 0.016655 -0.003959 0.000000 0.000000 0.000000
# 3 -0.001235 -0.003959 0.013865 0.000000 0.000000 0.000000
# 4 0.000000 0.000000 0.000000 0.051279 0.000000 0.000000
# 5 0.000000 0.000000 0.000000 0.000000 0.028991 0.000000
# 6 0.000000 0.000000 0.000000 0.000000 0.000000 0.076351
#
#
# Mechanical properties :
#
#
# Convention : Reuss Voigt Hill
#
# Bulk Modulus (GPa) = 34.41641 34.62707 34.52174
# Shear Modulus (GPa) = 22.49223 26.04192 24.26708
#
# Velocity S-wave (km/s) = 3.20705 3.45084 3.33118
# Velocity P-wave (km/s) = 5.42691 5.63133 5.53006
#
# Compressibility (1/GPa) = 0.02905590
#
# Stress axis : x y z
#
# Youngs Moduli (GPa) = 83.29955 60.04365 72.12589
#
# Poissons Ratio (x) = 0.09248 0.08907
# Poissons Ratio (y) = 0.12830 0.28554
# Poissons Ratio (z) = 0.10287 0.23770
#
# Static dielectric constant tensor:
#      x y z
#    x 3.556620 0.000000 0.000000 
#    y 0.000000 3.346110 0.000000 
#    z 0.000000 0.000000 3.206240 
# 
# 
# High freq. dielectric constant tensor:
#      x y z
#    x 1.887620 0.000000 0.000000 
#    y 0.000000 1.780800 0.000000 
#    z 0.000000 0.000000 1.876940 
# 
# From -- ./inp_files/7812.got.cif
#   From: 2010.03.12/outbox.cif.g09.slc.cpg/sg73_4_cif.got.tgz:7812.got - 2010.04.16 15:25:48.
