data_PCOD8295607
_publ_section_title
;
Structure prediction by ZEFSAII (Michael W. Deem and Ramdas Pophale) SiO2 
 PCOD8295607
Probable space group: I B C A 
;
_chemical_formula_sum "Si O2"
_cell_formula_units_Z 88
_cell_length_a 9.161605
_cell_length_b 13.936161
_cell_length_c 27.655240
_cell_angle_alpha 90.000000
_cell_angle_beta 90.000000
_cell_angle_gamma 90.000000
_cell_volume 3530.954734
_symmetry_space_group_name_H-M "I B C A "
_symmetry_group_IT_number 73
_symmetry_cell_setting 'orthorhombic'
loop_
_space_group_symop_operation_xyz
x,y,z
-x,1/2-y,z
x,-y,1/2-z
1/2-x,y,-z
-x,-y,-z
x,1/2+y,-z
-x,y,1/2+z
1/2+x,-y,z
1/2+x,1/2+y,1/2+z
1/2-x,-y,1/2+z
1/2+x,1/2-y,-z
-x,1/2+y,1/2-z
1/2-x,1/2-y,1/2-z
1/2+x,y,1/2-z
1/2-x,1/2+y,z
x,1/2-y,1/2+z
loop_
_atom_site_type_symbol
_atom_site_label
_atom_site_fract_x
_atom_site_fract_y
_atom_site_fract_z
Si Si1 0.896916 0.626479 0.660237
Si Si2 0.893936 0.398313 0.554897
Si Si3 0.288731 0.657757 0.354387
Si Si4 0.266780 0.918712 0.569883
Si Si5 0.250000 0.753103 0.500000
Si Si6 0.371563 0.677547 0.736421
O O1 0.846589 0.735687 0.655065
O O2 0.784682 0.567168 0.626097
O O3 0.898427 0.604645 0.718239
O O4 0.059619 0.598668 0.641188
O O5 0.808486 0.346995 0.598321
O O6 0.808660 0.495135 0.540062
O O7 0.885996 0.318891 0.511971
O O8 0.059465 0.422703 0.567346
O O9 0.184487 0.619021 0.310687
O O10 0.207753 0.820311 0.545746
O O11 0.500000 0.750000 0.722058
O O12 0.250000 0.750000 0.750000
#
# Coordination Sequence:
#
# PCOD8295607 Si02
#       6
#    16  16  16  16   8  16
#     4  10  20  39  64 101 141 187 232 288 347 410
#     4  12  28  48  73 108 142 186 233 294 358 429
#     4  10  21  37  66 100 142 186 234 287 347 414
#     4  12  28  48  74 106 145 183 236 295 356 433
#     4  12  28  48  78 106 130 182 232 290 364 426
#     4  10  18  32  60 102 141 185 240 289 341 415
#
# _framework density 24.922436999999999
#
# number of rings (size 3 to 8) (size 9 to 14) (size 15 to 20)
#    0.000    1.091    5.455    2.182    5.091    7.273 
#    0.000    0.909    0.000    4.364    0.000    0.000 
#    0.000    0.000    0.000    0.000    0.000    0.000 
#
# Total GULP energy -545081.969239 kJ/mol
# GULP energy per Si atom -12388.226574 kJ/mol
# Density = 2.486571 g / cm^3
# Si number density = 24.922437 Si / 1000 Ang^3
#
#
#
# Elastic Constant Matrix: (Units=GPa)
#
#
# Indices 1 2 3 4 5 6 
#
# 1 201.5660 41.1134 66.3510 0.0000 0.0000 0.0000
# 2 41.1134 94.6106 36.6679 0.0000 0.0000 0.0000
# 3 66.3510 36.6679 103.2351 0.0000 0.0000 0.0000
# 4 0.0000 0.0000 0.0000 21.1907 0.0000 0.0000
# 5 0.0000 0.0000 0.0000 0.0000 39.8202 0.0000
# 6 0.0000 0.0000 0.0000 0.0000 0.0000 30.9184
#
#
#
# Elastic Compliance Matrix: (Units=1/GPa)
#
#
# Indices 1 2 3 4 5 6 
#
# 1 0.006445 -0.001386 -0.003650 0.000000 0.000000 0.000000
# 2 -0.001386 0.012555 -0.003568 0.000000 0.000000 0.000000
# 3 -0.003650 -0.003568 0.013300 0.000000 0.000000 0.000000
# 4 0.000000 0.000000 0.000000 0.047191 0.000000 0.000000
# 5 0.000000 0.000000 0.000000 0.000000 0.025113 0.000000
# 6 0.000000 0.000000 0.000000 0.000000 0.000000 0.032343
#
#
# Mechanical properties :
#
#
# Convention : Reuss Voigt Hill
#
# Bulk Modulus (GPa) = 66.26531 76.40849 71.33690
# Shear Modulus (GPa) = 31.40952 35.40450 33.40701
#
# Velocity S-wave (km/s) = 3.55391 3.77316 3.66517
# Velocity P-wave (km/s) = 6.59444 7.05034 6.82620
#
# Compressibility (1/GPa) = 0.01509085
#
# Stress axis : x y z
#
# Youngs Moduli (GPa) = 155.14749 79.64936 75.18686
#
# Poissons Ratio (x) = 0.11041 0.27445
# Poissons Ratio (y) = 0.21506 0.26830
# Poissons Ratio (z) = 0.56633 0.28423
#
# Static dielectric constant tensor:
#      x y z
#    x -1.820460 0.000000 0.000000 
#    y 0.000000 4.187610 0.000000 
#    z 0.000000 0.000000 3.103620 
# 
# 
# High freq. dielectric constant tensor:
#      x y z
#    x 1.997630 0.000000 0.000000 
#    y 0.000000 1.970340 0.000000 
#    z 0.000000 0.000000 2.004550 
# 
# From -- ./inp_files/33537.got.cif
#   From: 2010.03.12/outbox.cif.g09.slc.cpg/sg73_17_cif.got.tgz:33537.got - 2010.04.16 15:25:48.
