data_PCOD8295991
_publ_section_title
;
Structure prediction by ZEFSAII (Michael W. Deem and Ramdas Pophale) SiO2 
 PCOD8295991
Probable space group: I B C A 
;
_chemical_formula_sum "Si O2"
_cell_formula_units_Z 104
_cell_length_a 19.357370
_cell_length_b 16.769170
_cell_length_c 16.376025
_cell_angle_alpha 90.000000
_cell_angle_beta 90.000000
_cell_angle_gamma 90.000000
_cell_volume 5315.772810
_symmetry_space_group_name_H-M "I B C A "
_symmetry_group_IT_number 73
_symmetry_cell_setting 'orthorhombic'
loop_
_space_group_symop_operation_xyz
x,y,z
-x,1/2-y,z
x,-y,1/2-z
1/2-x,y,-z
-x,-y,-z
x,1/2+y,-z
-x,y,1/2+z
1/2+x,-y,z
1/2+x,1/2+y,1/2+z
1/2-x,-y,1/2+z
1/2+x,1/2-y,-z
-x,1/2+y,1/2-z
1/2-x,1/2-y,1/2-z
1/2+x,y,1/2-z
1/2-x,1/2+y,z
x,1/2-y,1/2+z
loop_
_atom_site_type_symbol
_atom_site_label
_atom_site_fract_x
_atom_site_fract_y
_atom_site_fract_z
Si Si1 0.438120 0.595586 0.063712
Si Si2 0.500000 0.250000 0.865731
Si Si3 0.052628 0.814699 0.708949
Si Si4 0.704971 0.677535 0.275073
Si Si5 0.778041 0.924727 0.913002
Si Si6 0.955069 0.529643 0.613087
Si Si7 0.685919 0.541912 0.163413
O O1 0.455651 0.688570 0.079833
O O2 0.360054 0.578022 0.089376
O O3 0.482775 0.533307 0.116757
O O4 0.453464 0.581469 0.969078
O O5 0.548227 0.195021 0.807349
O O6 0.131903 0.797081 0.684049
O O7 0.034471 0.906269 0.686021
O O8 0.000000 0.750000 0.667174
O O9 0.750000 0.750000 0.250000
O O10 0.746952 0.629199 0.342087
O O11 0.692316 0.634082 0.187567
O O12 0.750123 0.014329 0.893749
O O13 0.750000 0.894578 0.000000
O O14 0.884532 0.479763 0.617189
O O15 0.685895 0.500000 0.250000
#
# Coordination Sequence:
#
# PCOD8295991 Si02
#       7
#    16   8  16  16  16  16  16
#     4  11  24  39  64  97 123 167 213 272 320 382
#     4  10  24  38  60  96 130 154 210 272 320 368
#     4  10  22  40  61  93 125 170 210 260 322 380
#     4  11  22  39  63  93 128 163 208 257 320 377
#     4  11  21  41  63  87 124 165 210 258 317 374
#     4  11  22  42  66  89 125 172 218 256 318 389
#     4  10  20  39  66  84 119 172 205 254 309 386
#
# _framework density 19.564418
#
# number of rings (size 3 to 8) (size 9 to 14) (size 15 to 20)
#    0.462    0.923    4.615    1.846    1.077    1.231 
#    5.538    0.769    0.000    0.000    0.000    0.000 
#    0.000    0.000    0.000    0.000    0.000    0.000 
#
# Total GULP energy -644435.443131 kJ/mol
# GULP energy per Si atom -12392.989291 kJ/mol
# Density = 1.951989 g / cm^3
# Si number density = 19.564418 Si / 1000 Ang^3
#
#
#
# Elastic Constant Matrix: (Units=GPa)
#
#
# Indices 1 2 3 4 5 6 
#
# 1 173.8695 77.8387 33.2213 0.0000 0.0000 0.0000
# 2 77.8387 135.4854 47.3494 0.0000 0.0000 0.0000
# 3 33.2213 47.3494 77.8294 0.0000 0.0000 0.0000
# 4 0.0000 0.0000 0.0000 34.4821 0.0000 0.0000
# 5 0.0000 0.0000 0.0000 0.0000 31.1455 0.0000
# 6 0.0000 0.0000 0.0000 0.0000 0.0000 33.7395
#
#
#
# Elastic Compliance Matrix: (Units=1/GPa)
#
#
# Indices 1 2 3 4 5 6 
#
# 1 0.007779 -0.004202 -0.000764 0.000000 0.000000 0.000000
# 2 -0.004202 0.011644 -0.005290 0.000000 0.000000 0.000000
# 3 -0.000764 -0.005290 0.016393 0.000000 0.000000 0.000000
# 4 0.000000 0.000000 0.000000 0.029001 0.000000 0.000000
# 5 0.000000 0.000000 0.000000 0.000000 0.032107 0.000000
# 6 0.000000 0.000000 0.000000 0.000000 0.000000 0.029639
#
#
# Mechanical properties :
#
#
# Convention : Reuss Voigt Hill
#
# Bulk Modulus (GPa) = 65.34514 78.22258 71.78386
# Shear Modulus (GPa) = 32.85686 35.12510 33.99098
#
# Velocity S-wave (km/s) = 4.10252 4.24176 4.17272
# Velocity P-wave (km/s) = 7.47752 8.00368 7.74507
#
# Compressibility (1/GPa) = 0.01530336
#
# Stress axis : x y z
#
# Youngs Moduli (GPa) = 128.55889 85.88290 61.00132
#
# Poissons Ratio (x) = 0.36087 0.04660
# Poissons Ratio (y) = 0.54020 0.32271
# Poissons Ratio (z) = 0.09821 0.45434
#
# Static dielectric constant tensor:
#      x y z
#    x 3.684690 0.000000 0.000000 
#    y 0.000000 3.867160 0.000000 
#    z 0.000000 0.000000 3.902490 
# 
# 
# High freq. dielectric constant tensor:
#      x y z
#    x 1.770310 0.000000 0.000000 
#    y 0.000000 1.758190 0.000000 
#    z 0.000000 0.000000 1.755290 
# 
# From -- ./inp_files/22620.got.cif
#   From: 2010.03.12/outbox.cif.g09.slc.cpg/sg73_12_cif.got.tgz:22620.got - 2010.04.16 15:25:48.
