data_PCOD8295523
_publ_section_title
;
Structure prediction by ZEFSAII (Michael W. Deem and Ramdas Pophale) SiO2 
 PCOD8295523
Probable space group: I B C A 
;
_chemical_formula_sum "Si O2"
_cell_formula_units_Z 112
_cell_length_a 18.079033
_cell_length_b 19.679483
_cell_length_c 16.865721
_cell_angle_alpha 90.000000
_cell_angle_beta 90.000000
_cell_angle_gamma 90.000000
_cell_volume 6000.587793
_symmetry_space_group_name_H-M "I B C A "
_symmetry_group_IT_number 73
_symmetry_cell_setting 'orthorhombic'
loop_
_space_group_symop_operation_xyz
x,y,z
-x,1/2-y,z
x,-y,1/2-z
1/2-x,y,-z
-x,-y,-z
x,1/2+y,-z
-x,y,1/2+z
1/2+x,-y,z
1/2+x,1/2+y,1/2+z
1/2-x,-y,1/2+z
1/2+x,1/2-y,-z
-x,1/2+y,1/2-z
1/2-x,1/2-y,1/2-z
1/2+x,y,1/2-z
1/2-x,1/2+y,z
x,1/2-y,1/2+z
loop_
_atom_site_type_symbol
_atom_site_label
_atom_site_fract_x
_atom_site_fract_y
_atom_site_fract_z
Si Si1 0.414284 0.895467 0.457217
Si Si2 0.070784 0.941503 0.094299
Si Si3 0.093317 0.315550 0.309006
Si Si4 0.327802 0.973286 0.040853
Si Si5 0.891260 0.567033 0.802299
Si Si6 0.920787 0.667809 0.219281
Si Si7 0.051857 0.908487 0.369117
O O1 0.482631 0.935102 0.416203
O O2 0.393319 0.830990 0.402546
O O3 0.437141 0.872005 0.545514
O O4 0.344918 0.946344 0.458643
O O5 0.105213 0.885522 0.152743
O O6 0.087014 0.016181 0.129537
O O7 0.109791 0.933609 0.009405
O O8 0.135405 0.371144 0.254418
O O9 0.122500 0.239353 0.291158
O O10 0.007299 0.319676 0.289781
O O11 0.328553 0.945115 0.130943
O O12 0.250000 0.959530 0.000000
O O13 0.904732 0.500000 0.750000
O O14 0.966359 0.587595 0.846315
O O15 0.903340 0.636717 0.305611
#
# Coordination Sequence:
#
# PCOD8295523 Si02
#       7
#    16  16  16  16  16  16  16
#     4  10  17  33  55  79 107 142 172 222 281 323
#     4  10  17  33  54  77 108 141 174 217 280 315
#     4   9  18  31  50  77 114 141 181 215 272 330
#     4  11  21  33  52  83 105 130 185 232 265 318
#     4  11  17  32  54  76 104 148 177 217 276 331
#     4   9  18  30  47  84 112 140 175 228 260 322
#     4  10  16  28  54  82 108 135 180 219 272 324
#
# _framework density 18.664836999999999
#
# number of rings (size 3 to 8) (size 9 to 14) (size 15 to 20)
#    0.000    2.000    4.286    3.000    0.000    0.000 
#    2.571    5.714    0.000    1.714    0.000    0.000 
#    0.000    0.000    0.000    0.000    0.000    0.000 
#
# Total GULP energy -694209.960289 kJ/mol
# GULP energy per Si atom -12396.606434 kJ/mol
# Density = 1.862236 g / cm^3
# Si number density = 18.664837 Si / 1000 Ang^3
#
#
#
# Elastic Constant Matrix: (Units=GPa)
#
#
# Indices 1 2 3 4 5 6 
#
# 1 31.2319 5.8960 10.6349 0.0000 0.0000 0.0000
# 2 5.8960 120.6228 73.8640 0.0000 0.0000 0.0000
# 3 10.6349 73.8640 160.6953 0.0000 0.0000 0.0000
# 4 0.0000 0.0000 0.0000 28.6238 0.0000 0.0000
# 5 0.0000 0.0000 0.0000 0.0000 16.8174 0.0000
# 6 0.0000 0.0000 0.0000 0.0000 0.0000 5.3879
#
#
#
# Elastic Compliance Matrix: (Units=1/GPa)
#
#
# Indices 1 2 3 4 5 6 
#
# 1 0.032769 -0.000381 -0.001994 0.000000 0.000000 0.000000
# 2 -0.000381 0.011542 -0.005280 0.000000 0.000000 0.000000
# 3 -0.001994 -0.005280 0.008782 0.000000 0.000000 0.000000
# 4 0.000000 0.000000 0.000000 0.034936 0.000000 0.000000
# 5 0.000000 0.000000 0.000000 0.000000 0.059462 0.000000
# 6 0.000000 0.000000 0.000000 0.000000 0.000000 0.185600
#
#
# Mechanical properties :
#
#
# Convention : Reuss Voigt Hill
#
# Bulk Modulus (GPa) = 26.46625 54.81553 40.64089
# Shear Modulus (GPa) = 13.85057 24.97619 19.41338
#
# Velocity S-wave (km/s) = 2.72705 3.66203 3.22856
# Velocity P-wave (km/s) = 4.91185 6.87842 5.97658
#
# Compressibility (1/GPa) = 0.03778397
#
# Stress axis : x y z
#
# Youngs Moduli (GPa) = 30.51642 86.63777 113.86974
#
# Poissons Ratio (x) = 0.03301 0.22701
# Poissons Ratio (y) = 0.01163 0.60126
# Poissons Ratio (z) = 0.06084 0.45747
#
# Static dielectric constant tensor:
#      x y z
#    x 2.796150 0.000000 0.000000 
#    y 0.000000 3.647540 0.000000 
#    z 0.000000 0.000000 3.812010 
# 
# 
# High freq. dielectric constant tensor:
#      x y z
#    x 1.656190 0.000000 0.000000 
#    y 0.000000 1.710080 0.000000 
#    z 0.000000 0.000000 1.747050 
# 
# From -- ./inp_files/23374.got.cif
#   From: 2010.03.12/outbox.cif.g09.slc.cpg/sg73_12_cif.got.tgz:23374.got - 2010.04.16 15:25:48.
