data_PCOD8295696
_publ_section_title
;
Structure prediction by ZEFSAII (Michael W. Deem and Ramdas Pophale) SiO2 
 PCOD8295696
Probable space group: I B C A 
;
_chemical_formula_sum "Si O2"
_cell_formula_units_Z 96
_cell_length_a 29.827412
_cell_length_b 7.996661
_cell_length_c 21.185385
_cell_angle_alpha 90.000000
_cell_angle_beta 90.000000
_cell_angle_gamma 90.000000
_cell_volume 5053.131723
_symmetry_space_group_name_H-M "I B C A "
_symmetry_group_IT_number 73
_symmetry_cell_setting 'orthorhombic'
loop_
_space_group_symop_operation_xyz
x,y,z
-x,1/2-y,z
x,-y,1/2-z
1/2-x,y,-z
-x,-y,-z
x,1/2+y,-z
-x,y,1/2+z
1/2+x,-y,z
1/2+x,1/2+y,1/2+z
1/2-x,-y,1/2+z
1/2+x,1/2-y,-z
-x,1/2+y,1/2-z
1/2-x,1/2-y,1/2-z
1/2+x,y,1/2-z
1/2-x,1/2+y,z
x,1/2-y,1/2+z
loop_
_atom_site_type_symbol
_atom_site_label
_atom_site_fract_x
_atom_site_fract_y
_atom_site_fract_z
Si Si1 0.398389 0.007430 0.519110
Si Si2 0.855452 0.700231 0.915652
Si Si3 0.393355 0.951235 0.320300
Si Si4 0.713611 0.857739 0.166681
Si Si5 0.806864 0.766225 0.694126
Si Si6 0.550889 0.195069 0.577353
O O1 0.356558 0.070999 0.474881
O O2 0.415813 0.153193 0.563433
O O3 0.383361 0.862565 0.565349
O O4 0.439318 0.949274 0.474046
O O5 0.879792 0.620742 0.855497
O O6 0.805811 0.758122 0.894064
O O7 0.353323 0.816823 0.325213
O O8 0.437236 0.871410 0.352818
O O9 0.406825 0.000000 0.250000
O O10 0.696453 0.767314 0.230195
O O11 0.767507 0.850132 0.165085
O O12 0.697057 0.048807 0.164946
O O13 0.500000 0.250000 0.574622
#
# Coordination Sequence:
#
# PCOD8295696 Si02
#       6
#    16  16  16  16  16  16
#     4   9  20  36  60  85 107 149 194 239 285 341
#     4  10  19  36  58  83 116 147 191 234 288 339
#     4  11  21  36  56  82 118 153 185 238 299 345
#     4  10  19  32  56  85 114 147 185 236 269 330
#     4  10  20  32  54  86 115 146 188 224 279 337
#     4  10  20  37  60  83 110 144 193 243 289 347
#
# _framework density 18.998118999999999
#
# number of rings (size 3 to 8) (size 9 to 14) (size 15 to 20)
#    0.000    2.000    1.667    2.500    2.333    0.000 
#    0.000    1.667    0.000   34.000    0.000    0.000 
#    0.000    0.000    0.000    0.000    0.000    0.000 
#
# Total GULP energy -595134.713386 kJ/mol
# GULP energy per Si atom -12398.639862 kJ/mol
# Density = 1.895488 g / cm^3
# Si number density = 18.998119 Si / 1000 Ang^3
#
#
#
# Elastic Constant Matrix: (Units=GPa)
#
#
# Indices 1 2 3 4 5 6 
#
# 1 71.1265 17.9315 32.7758 0.0000 0.0000 0.0000
# 2 17.9315 85.9830 47.0327 0.0000 0.0000 0.0000
# 3 32.7758 47.0327 94.0187 0.0000 0.0000 0.0000
# 4 0.0000 0.0000 0.0000 30.0474 0.0000 0.0000
# 5 0.0000 0.0000 0.0000 0.0000 21.3711 0.0000
# 6 0.0000 0.0000 0.0000 0.0000 0.0000 27.0184
#
#
#
# Elastic Compliance Matrix: (Units=1/GPa)
#
#
# Indices 1 2 3 4 5 6 
#
# 1 0.016761 -0.000412 -0.005637 0.000000 0.000000 0.000000
# 2 -0.000412 0.016022 -0.007871 0.000000 0.000000 0.000000
# 3 -0.005637 -0.007871 0.016539 0.000000 0.000000 0.000000
# 4 0.000000 0.000000 0.000000 0.033281 0.000000 0.000000
# 5 0.000000 0.000000 0.000000 0.000000 0.046792 0.000000
# 6 0.000000 0.000000 0.000000 0.000000 0.000000 0.037012
#
#
# Mechanical properties :
#
#
# Convention : Reuss Voigt Hill
#
# Bulk Modulus (GPa) = 46.55249 49.62315 48.08782
# Shear Modulus (GPa) = 24.82541 25.91326 25.36933
#
# Velocity S-wave (km/s) = 3.61879 3.69723 3.65822
# Velocity P-wave (km/s) = 6.48212 6.66354 6.57345
#
# Compressibility (1/GPa) = 0.02148113
#
# Stress axis : x y z
#
# Youngs Moduli (GPa) = 59.66274 62.41544 60.46397
#
# Poissons Ratio (x) = 0.02572 0.34083
# Poissons Ratio (y) = 0.02459 0.47592
# Poissons Ratio (z) = 0.33631 0.49128
#
# Static dielectric constant tensor:
#      x y z
#    x 3.220890 0.000000 0.000000 
#    y 0.000000 3.647440 0.000000 
#    z 0.000000 0.000000 3.522330 
# 
# 
# High freq. dielectric constant tensor:
#      x y z
#    x 1.710250 0.000000 0.000000 
#    y 0.000000 1.757600 0.000000 
#    z 0.000000 0.000000 1.732890 
# 
# From -- ./inp_files/6433.got.cif
#   From: 2010.03.12/outbox.cif.g09.slc.cpg/sg73_4_cif.got.tgz:6433.got - 2010.04.16 15:25:48.
