data_PCOD8295889
_publ_section_title
;
Structure prediction by ZEFSAII (Michael W. Deem and Ramdas Pophale) SiO2 
 PCOD8295889
Probable space group: I B C A 
;
_chemical_formula_sum "Si O2"
_cell_formula_units_Z 120
_cell_length_a 25.979317
_cell_length_b 12.212987
_cell_length_c 18.096910
_cell_angle_alpha 90.000000
_cell_angle_beta 90.000000
_cell_angle_gamma 90.000000
_cell_volume 5741.879189
_symmetry_space_group_name_H-M "I B C A "
_symmetry_group_IT_number 73
_symmetry_cell_setting 'orthorhombic'
loop_
_space_group_symop_operation_xyz
x,y,z
-x,1/2-y,z
x,-y,1/2-z
1/2-x,y,-z
-x,-y,-z
x,1/2+y,-z
-x,y,1/2+z
1/2+x,-y,z
1/2+x,1/2+y,1/2+z
1/2-x,-y,1/2+z
1/2+x,1/2-y,-z
-x,1/2+y,1/2-z
1/2-x,1/2-y,1/2-z
1/2+x,y,1/2-z
1/2-x,1/2+y,z
x,1/2-y,1/2+z
loop_
_atom_site_type_symbol
_atom_site_label
_atom_site_fract_x
_atom_site_fract_y
_atom_site_fract_z
Si Si1 0.477112 0.522111 0.094330
Si Si2 0.338858 0.280186 0.424310
Si Si3 0.750000 0.088290 0.500000
Si Si4 0.945803 0.206843 0.851960
Si Si5 0.083239 0.876115 0.525633
Si Si6 0.085718 0.190822 0.192564
Si Si7 0.924159 0.058596 0.175648
Si Si8 0.165269 0.532824 0.421465
O O1 0.451507 0.401755 0.098136
O O2 0.451839 0.599149 0.157757
O O3 0.538719 0.510296 0.110261
O O4 0.469312 0.577202 0.012681
O O5 0.290109 0.345607 0.451772
O O6 0.392203 0.290865 0.468510
O O7 0.355774 0.314828 0.340644
O O8 0.322326 0.156921 0.438124
O O9 0.779430 0.023278 0.434285
O O10 0.922856 0.308782 0.898456
O O11 0.910380 0.176758 0.781346
O O12 0.000000 0.250000 0.820479
O O13 0.124420 0.975033 0.524808
O O14 0.064478 0.312937 0.177240
O O15 0.864193 0.027551 0.158507
O O16 0.941593 0.000000 0.250000
#
# Coordination Sequence:
#
# PCOD8295889 Si02
#       8
#    16  16   8  16  16  16  16  16
#     4  11  22  37  58  85 126 169 203 245 291 349
#     4   9  20  37  60  84 113 152 197 250 307 366
#     4  10  20  38  62  86 110 146 202 260 318 374
#     4  12  23  35  56  86 123 164 206 248 294 357
#     4  10  22  36  54  87 122 157 201 244 294 356
#     4  10  21  37  57  85 120 161 205 246 295 356
#     4  11  21  36  59  86 119 162 205 244 295 358
#     4  10  20  36  59  82 112 147 191 250 307 362
#
# _framework density 20.899080000000001
#
# number of rings (size 3 to 8) (size 9 to 14) (size 15 to 20)
#    0.000    1.600    0.000    6.000    0.000    5.333 
#    0.000    0.000    0.000   19.200    0.000    0.000 
#    0.000    0.000    0.000    0.000    0.000    0.000 
#
# Total GULP energy -743376.086241 kJ/mol
# GULP energy per Si atom -12389.601437 kJ/mol
# Density = 2.085151 g / cm^3
# Si number density = 20.899080 Si / 1000 Ang^3
#
#
#
# Elastic Constant Matrix: (Units=GPa)
#
#
# Indices 1 2 3 4 5 6 
#
# 1 110.4715 40.6083 28.1219 0.0000 0.0000 0.0000
# 2 40.6083 106.3845 22.6604 0.0000 0.0000 0.0000
# 3 28.1219 22.6604 98.3840 0.0000 0.0000 0.0000
# 4 0.0000 0.0000 0.0000 30.7368 0.0000 0.0000
# 5 0.0000 0.0000 0.0000 0.0000 28.8933 0.0000
# 6 0.0000 0.0000 0.0000 0.0000 0.0000 26.8865
#
#
#
# Elastic Compliance Matrix: (Units=1/GPa)
#
#
# Indices 1 2 3 4 5 6 
#
# 1 0.010999 -0.003711 -0.002289 0.000000 0.000000 0.000000
# 2 -0.003711 0.011137 -0.001504 0.000000 0.000000 0.000000
# 3 -0.002289 -0.001504 0.011165 0.000000 0.000000 0.000000
# 4 0.000000 0.000000 0.000000 0.032534 0.000000 0.000000
# 5 0.000000 0.000000 0.000000 0.000000 0.034610 0.000000
# 6 0.000000 0.000000 0.000000 0.000000 0.000000 0.037193
#
#
# Mechanical properties :
#
#
# Convention : Reuss Voigt Hill
#
# Bulk Modulus (GPa) = 54.66887 55.33569 55.00228
# Shear Modulus (GPa) = 31.49712 32.22662 31.86187
#
# Velocity S-wave (km/s) = 3.88636 3.93111 3.90880
# Velocity P-wave (km/s) = 6.80835 6.86585 6.83716
#
# Compressibility (1/GPa) = 0.01829195
#
# Stress axis : x y z
#
# Youngs Moduli (GPa) = 90.91805 89.79258 89.56478
#
# Poissons Ratio (x) = 0.33320 0.20503
# Poissons Ratio (y) = 0.33738 0.13474
# Poissons Ratio (z) = 0.20813 0.13508
#
# Static dielectric constant tensor:
#      x y z
#    x 3.675510 0.000000 0.000000 
#    y 0.000000 4.081060 0.000000 
#    z 0.000000 0.000000 3.811040 
# 
# 
# High freq. dielectric constant tensor:
#      x y z
#    x 1.790880 0.000000 0.000000 
#    y 0.000000 1.845960 0.000000 
#    z 0.000000 0.000000 1.815730 
# 
# From -- ./inp_files/23985.got.cif
#   From: 2010.03.12/outbox.cif.g09.slc.cpg/sg73_12_cif.got.tgz:23985.got - 2010.04.16 15:25:48.
