data_PCOD8295471
_publ_section_title
;
Structure prediction by ZEFSAII (Michael W. Deem and Ramdas Pophale) SiO2 
 PCOD8295471
Probable space group: I B A M
;
_chemical_formula_sum "Si O2"
_cell_formula_units_Z 52
_cell_length_a 22.013170
_cell_length_b 7.237069
_cell_length_c 13.938936
_cell_angle_alpha 90.000000
_cell_angle_beta 90.000000
_cell_angle_gamma 90.000000
_cell_volume 2220.623466
_symmetry_space_group_name_H-M "I B A M"
_symmetry_group_IT_number 72
_symmetry_cell_setting 'orthorhombic'
loop_
_space_group_symop_operation_xyz
x,y,z
-x,-y,z
x,-y,1/2-z
-x,y,1/2-z
-x,-y,-z
x,y,-z
-x,y,1/2+z
x,-y,1/2+z
1/2+x,1/2+y,1/2+z
1/2-x,1/2-y,1/2+z
1/2+x,1/2-y,-z
1/2-x,1/2+y,-z
1/2-x,1/2-y,1/2-z
1/2+x,1/2+y,1/2-z
1/2-x,1/2+y,z
1/2+x,1/2-y,z
loop_
_atom_site_type_symbol
_atom_site_label
_atom_site_fract_x
_atom_site_fract_y
_atom_site_fract_z
Si Si1 0.500000 0.000000 0.750000
Si Si2 0.080725 0.831277 0.197045
Si Si3 0.150399 0.845018 0.000000
Si Si4 0.188901 0.314194 0.201323
Si Si5 0.719111 0.955152 0.500000
O O1 0.458643 0.858765 0.687025
O O2 0.107363 0.873861 0.091793
O O3 0.134622 0.823393 0.276094
O O4 0.043760 0.000000 0.250000
O O5 0.207477 0.988629 0.000000
O O6 0.183118 0.646254 0.000000
O O7 0.166427 0.500000 0.250000
O O8 0.250000 0.250000 0.250000
O O9 0.199280 0.331880 0.089269
#
# Coordination Sequence:
#
# PCOD8295471 Si02
#       5
#     4  16   8  16   8
#     4  12  26  58  76 102 148 202 258 316 392 426
#     4  12  27  48  76 108 147 199 256 319 370 449
#     4  12  26  43  71 116 151 201 252 295 389 459
#     4  12  22  40  65 108 155 195 243 302 373 446
#     4  12  22  38  68 105 163 207 229 302 376 460
#
# _framework density 23.416848000000002
#
# number of rings (size 3 to 8) (size 9 to 14) (size 15 to 20)
#    0.000    0.000    7.692    1.385    4.308    0.615 
#    0.000    4.615    0.000    0.000    0.000    0.000 
#    0.000    0.000    0.000    0.000    0.000    0.000 
#
# Total GULP energy -322132.062442 kJ/mol
# GULP energy per Si atom -12389.694709 kJ/mol
# Density = 2.336355 g / cm^3
# Si number density = 23.416848 Si / 1000 Ang^3
#
#
#
# Elastic Constant Matrix: (Units=GPa)
#
#
# Indices 1 2 3 4 5 6 
#
# 1 107.4142 28.0745 49.3844 0.0000 0.0000 0.0000
# 2 28.0745 121.0347 51.3094 0.0000 0.0000 0.0000
# 3 49.3844 51.3094 211.5586 0.0000 0.0000 0.0000
# 4 0.0000 0.0000 0.0000 36.4707 0.0000 0.0000
# 5 0.0000 0.0000 0.0000 0.0000 1.5297 0.0000
# 6 0.0000 0.0000 0.0000 0.0000 0.0000 34.4921
#
#
#
# Elastic Compliance Matrix: (Units=1/GPa)
#
#
# Indices 1 2 3 4 5 6 
#
# 1 0.010695 -0.001585 -0.002112 0.000000 0.000000 0.000000
# 2 -0.001585 0.009444 -0.001920 0.000000 0.000000 0.000000
# 3 -0.002112 -0.001920 0.005686 0.000000 0.000000 0.000000
# 4 0.000000 0.000000 0.000000 0.027419 0.000000 0.000000
# 5 0.000000 0.000000 0.000000 0.000000 0.653724 0.000000
# 6 0.000000 0.000000 0.000000 0.000000 0.000000 0.028992
#
#
# Mechanical properties :
#
#
# Convention : Reuss Voigt Hill
#
# Bulk Modulus (GPa) = 68.54491 77.50489 73.02490
# Shear Modulus (GPa) = 6.64842 35.24778 20.94810
#
# Velocity S-wave (km/s) = 1.68681 3.88394 2.99419
# Velocity P-wave (km/s) = 5.75577 7.29953 6.57313
#
# Compressibility (1/GPa) = 0.01458898
#
# Stress axis : x y z
#
# Youngs Moduli (GPa) = 93.50009 105.88815 175.88323
#
# Poissons Ratio (x) = 0.16788 0.37148
# Poissons Ratio (y) = 0.14824 0.33776
# Poissons Ratio (z) = 0.19748 0.20334
#
# Static dielectric constant tensor:
#      x y z
#    x 4.266910 0.000000 0.000000 
#    y 0.000000 3.993210 0.000000 
#    z 0.000000 0.000000 4.232430 
# 
# 
# High freq. dielectric constant tensor:
#      x y z
#    x 1.935140 0.000000 0.000000 
#    y 0.000000 1.951870 0.000000 
#    z 0.000000 0.000000 1.920330 
# 
# From -- ./inp_files/18347.got.cif
#   From: 2010.03.12/outbox.cif.g09.slc.cpg/sg72_10_cif.got.tgz:18347.got - 2010.04.16 14:54:00.
