data_PCOD8295204
_publ_section_title
;
Structure prediction by ZEFSAII (Michael W. Deem and Ramdas Pophale) SiO2 
 PCOD8295204
Probable space group: I B A M
;
_chemical_formula_sum "Si O2"
_cell_formula_units_Z 64
_cell_length_a 13.286017
_cell_length_b 8.656643
_cell_length_c 24.427200
_cell_angle_alpha 90.000000
_cell_angle_beta 90.000000
_cell_angle_gamma 90.000000
_cell_volume 2809.428603
_symmetry_space_group_name_H-M "I B A M"
_symmetry_group_IT_number 72
_symmetry_cell_setting 'orthorhombic'
loop_
_space_group_symop_operation_xyz
x,y,z
-x,-y,z
x,-y,1/2-z
-x,y,1/2-z
-x,-y,-z
x,y,-z
-x,y,1/2+z
x,-y,1/2+z
1/2+x,1/2+y,1/2+z
1/2-x,1/2-y,1/2+z
1/2+x,1/2-y,-z
1/2-x,1/2+y,-z
1/2-x,1/2-y,1/2-z
1/2+x,1/2+y,1/2-z
1/2-x,1/2+y,z
1/2+x,1/2-y,z
loop_
_atom_site_type_symbol
_atom_site_label
_atom_site_fract_x
_atom_site_fract_y
_atom_site_fract_z
Si Si1 0.552310 0.341813 0.858049
Si Si2 0.388740 0.214231 0.938238
Si Si3 0.321975 0.143325 0.285563
Si Si4 0.264040 0.516387 0.604006
O O1 0.500000 0.500000 0.838053
O O2 0.481151 0.243911 0.897751
O O3 0.579808 0.238331 0.805323
O O4 0.654582 0.378700 0.890842
O O5 0.307757 0.351958 0.935287
O O6 0.337514 0.052043 0.921976
O O7 0.429809 0.203316 0.000000
O O8 0.250000 0.250000 0.250000
O O9 0.255849 0.084558 0.336175
O O10 0.361510 0.000000 0.250000
#
# Coordination Sequence:
#
# PCOD8295204 Si02
#       4
#    16  16  16  16
#     4  10  24  45  72 107 149 179 248 302 346 442
#     4  11  24  44  74 103 145 196 235 298 368 418
#     4  12  23  46  78 103 143 196 240 295 372 425
#     4  11  22  46  69 105 148 182 248 296 343 452
#
# _framework density 22.780435000000001
#
# number of rings (size 3 to 8) (size 9 to 14) (size 15 to 20)
#    0.000    1.000    5.000    0.750    0.000    6.500 
#    0.000   25.000    0.000    0.000    0.000    0.000 
#    0.000    0.000    0.000    0.000    0.000    0.000 
#
# Total GULP energy -396946.032388 kJ/mol
# GULP energy per Si atom -12404.563512 kJ/mol
# Density = 2.272859 g / cm^3
# Si number density = 22.780435 Si / 1000 Ang^3
#
#
#
# Elastic Constant Matrix: (Units=GPa)
#
#
# Indices 1 2 3 4 5 6 
#
# 1 122.6706 59.0540 69.5136 0.0000 0.0000 0.0000
# 2 59.0540 103.0989 72.1774 0.0000 0.0000 0.0000
# 3 69.5136 72.1774 155.1318 0.0000 0.0000 0.0000
# 4 0.0000 0.0000 0.0000 37.7001 0.0000 0.0000
# 5 0.0000 0.0000 0.0000 0.0000 35.8541 0.0000
# 6 0.0000 0.0000 0.0000 0.0000 0.0000 43.8132
#
#
#
# Elastic Compliance Matrix: (Units=1/GPa)
#
#
# Indices 1 2 3 4 5 6 
#
# 1 0.012306 -0.004729 -0.003314 0.000000 0.000000 0.000000
# 2 -0.004729 0.016202 -0.005419 0.000000 0.000000 0.000000
# 3 -0.003314 -0.005419 0.010453 0.000000 0.000000 0.000000
# 4 0.000000 0.000000 0.000000 0.026525 0.000000 0.000000
# 5 0.000000 0.000000 0.000000 0.000000 0.027891 0.000000
# 6 0.000000 0.000000 0.000000 0.000000 0.000000 0.022824
#
#
# Mechanical properties :
#
#
# Convention : Reuss Voigt Hill
#
# Bulk Modulus (GPa) = 83.08153 86.93238 85.00695
# Shear Modulus (GPa) = 33.98171 35.48389 34.73280
#
# Velocity S-wave (km/s) = 3.86645 3.95099 3.90895
# Velocity P-wave (km/s) = 7.51547 7.68489 7.60065
#
# Compressibility (1/GPa) = 0.01203637
#
# Stress axis : x y z
#
# Youngs Moduli (GPa) = 81.25810 61.72114 95.66938
#
# Poissons Ratio (x) = 0.29186 0.31708
# Poissons Ratio (y) = 0.38425 0.51846
# Poissons Ratio (z) = 0.26932 0.33448
#
# Static dielectric constant tensor:
#      x y z
#    x 4.164610 0.000000 0.000000 
#    y 0.000000 4.371860 0.000000 
#    z 0.000000 0.000000 3.952760 
# 
# 
# High freq. dielectric constant tensor:
#      x y z
#    x 1.898510 0.000000 0.000000 
#    y 0.000000 1.917220 0.000000 
#    z 0.000000 0.000000 1.889830 
# 
# From -- ./inp_files/41888.got.cif
#   From: 2010.03.12/outbox.cif.g09.slc.cpg/sg72_21_cif.got.tgz:41888.got - 2010.04.16 14:54:00.
