data_PCOD8295323
_publ_section_title
;
Structure prediction by ZEFSAII (Michael W. Deem and Ramdas Pophale) SiO2 
 PCOD8295323
Probable space group: I B A M
;
_chemical_formula_sum "Si O2"
_cell_formula_units_Z 56
_cell_length_a 18.518458
_cell_length_b 10.217271
_cell_length_c 14.106829
_cell_angle_alpha 90.000000
_cell_angle_beta 90.000000
_cell_angle_gamma 90.000000
_cell_volume 2669.126367
_symmetry_space_group_name_H-M "I B A M"
_symmetry_group_IT_number 72
_symmetry_cell_setting 'orthorhombic'
loop_
_space_group_symop_operation_xyz
x,y,z
-x,-y,z
x,-y,1/2-z
-x,y,1/2-z
-x,-y,-z
x,y,-z
-x,y,1/2+z
x,-y,1/2+z
1/2+x,1/2+y,1/2+z
1/2-x,1/2-y,1/2+z
1/2+x,1/2-y,-z
1/2-x,1/2+y,-z
1/2-x,1/2-y,1/2-z
1/2+x,1/2+y,1/2-z
1/2-x,1/2+y,z
1/2+x,1/2-y,z
loop_
_atom_site_type_symbol
_atom_site_label
_atom_site_fract_x
_atom_site_fract_y
_atom_site_fract_z
Si Si1 0.109480 0.450458 0.393060
Si Si2 0.742652 0.374204 0.185599
Si Si3 0.500000 0.813159 0.750000
Si Si4 0.606332 0.744453 0.394471
O O1 0.081952 0.421975 0.500000
O O2 0.185526 0.379723 0.377530
O O3 0.126080 0.603348 0.376910
O O4 0.048831 0.403839 0.319148
O O5 0.729671 0.500000 0.250000
O O6 0.750000 0.250000 0.250000
O O7 0.674347 0.351507 0.117186
O O8 0.545963 0.713869 0.684588
O O9 0.575360 0.722836 0.500000
#
# Coordination Sequence:
#
# PCOD8295323 Si02
#       4
#    16  16   8  16
#     4  11  22  37  62  96 129 164 212 264 313 372
#     4  12  22  42  67  90 125 166 208 260 317 374
#     4  12  21  38  63  94 131 172 215 260 315 372
#     4  11  23  39  64  96 127 163 212 265 315 372
#
# _framework density 20.980647999999999
#
# number of rings (size 3 to 8) (size 9 to 14) (size 15 to 20)
#    0.000    0.571    5.714    4.286    0.000    2.286 
#    0.000    0.714    0.000    1.714    0.000    0.000 
#    0.000    0.000    0.000    0.000    0.000    0.000 
#
# Total GULP energy -347160.493128 kJ/mol
# GULP energy per Si atom -12398.589040 kJ/mol
# Density = 2.093290 g / cm^3
# Si number density = 20.980648 Si / 1000 Ang^3
#
#
#
# Elastic Constant Matrix: (Units=GPa)
#
#
# Indices 1 2 3 4 5 6 
#
# 1 154.6970 30.2073 79.6669 0.0000 0.0000 0.0000
# 2 30.2073 64.5279 32.3348 0.0000 0.0000 0.0000
# 3 79.6669 32.3348 169.6072 0.0000 0.0000 0.0000
# 4 0.0000 0.0000 0.0000 24.1433 0.0000 0.0000
# 5 0.0000 0.0000 0.0000 0.0000 27.9993 0.0000
# 6 0.0000 0.0000 0.0000 0.0000 0.0000 29.5285
#
#
#
# Elastic Compliance Matrix: (Units=1/GPa)
#
#
# Indices 1 2 3 4 5 6 
#
# 1 0.008817 -0.002269 -0.003709 0.000000 0.000000 0.000000
# 2 -0.002269 0.017718 -0.002312 0.000000 0.000000 0.000000
# 3 -0.003709 -0.002312 0.008079 0.000000 0.000000 0.000000
# 4 0.000000 0.000000 0.000000 0.041419 0.000000 0.000000
# 5 0.000000 0.000000 0.000000 0.000000 0.035715 0.000000
# 6 0.000000 0.000000 0.000000 0.000000 0.000000 0.033866
#
#
# Mechanical properties :
#
#
# Convention : Reuss Voigt Hill
#
# Bulk Modulus (GPa) = 55.45089 74.80556 65.12822
# Shear Modulus (GPa) = 29.72539 32.77574 31.25057
#
# Velocity S-wave (km/s) = 3.76812 3.95674 3.86358
# Velocity P-wave (km/s) = 6.73933 7.52372 7.14230
#
# Compressibility (1/GPa) = 0.01803398
#
# Stress axis : x y z
#
# Youngs Moduli (GPa) = 113.41129 56.43996 123.77819
#
# Poissons Ratio (x) = 0.12807 0.45911
# Poissons Ratio (y) = 0.25734 0.28618
# Poissons Ratio (z) = 0.42065 0.13049
#
# Static dielectric constant tensor:
#      x y z
#    x 3.523040 0.000000 0.000000 
#    y 0.000000 3.724220 0.000000 
#    z 0.000000 0.000000 4.202650 
# 
# 
# High freq. dielectric constant tensor:
#      x y z
#    x 1.831740 0.000000 0.000000 
#    y 0.000000 1.783780 0.000000 
#    z 0.000000 0.000000 1.846310 
# 
# From -- ./inp_files/23790.got.cif
#   From: 2010.03.12/outbox.cif.g09.slc.cpg/sg72_12_cif.got.tgz:23790.got - 2010.04.16 14:54:00.
