data_PCOD8295056
_publ_section_title
;
Structure prediction by ZEFSAII (Michael W. Deem and Ramdas Pophale) SiO2 
 PCOD8295056
Probable space group: I B A M
;
_chemical_formula_sum "Si O2"
_cell_formula_units_Z 112
_cell_length_a 10.739795
_cell_length_b 16.535332
_cell_length_c 27.207501
_cell_angle_alpha 90.000000
_cell_angle_beta 90.000000
_cell_angle_gamma 90.000000
_cell_volume 4831.673339
_symmetry_space_group_name_H-M "I B A M"
_symmetry_group_IT_number 72
_symmetry_cell_setting 'orthorhombic'
loop_
_space_group_symop_operation_xyz
x,y,z
-x,-y,z
x,-y,1/2-z
-x,y,1/2-z
-x,-y,-z
x,y,-z
-x,y,1/2+z
x,-y,1/2+z
1/2+x,1/2+y,1/2+z
1/2-x,1/2-y,1/2+z
1/2+x,1/2-y,-z
1/2-x,1/2+y,-z
1/2-x,1/2-y,1/2-z
1/2+x,1/2+y,1/2-z
1/2-x,1/2+y,z
1/2+x,1/2-y,z
loop_
_atom_site_type_symbol
_atom_site_label
_atom_site_fract_x
_atom_site_fract_y
_atom_site_fract_z
Si Si1 0.369780 0.795720 0.226381
Si Si2 0.941733 0.343631 0.555887
Si Si3 0.559814 0.417717 0.642213
Si Si4 0.785574 0.460413 0.701988
Si Si5 0.705006 0.456497 0.445717
Si Si6 0.164223 0.584544 0.883177
Si Si7 0.865376 0.785799 0.128454
O O1 0.500000 0.764153 0.250000
O O2 0.250000 0.750000 0.250000
O O3 0.375492 0.893877 0.227508
O O4 0.361363 0.784075 0.168117
O O5 0.995552 0.334586 0.500000
O O6 0.815869 0.393106 0.554176
O O7 0.909582 0.254539 0.577114
O O8 0.032915 0.394990 0.591416
O O9 0.500000 0.500000 0.661583
O O10 0.686210 0.406587 0.672378
O O11 0.589043 0.420354 0.584057
O O12 0.465692 0.346372 0.651230
O O13 0.722143 0.500000 0.750000
O O14 0.850185 0.527798 0.665712
O O15 0.657153 0.475166 0.500000
O O16 0.746159 0.540557 0.421628
O O17 0.231235 0.670306 0.873208
#
# Coordination Sequence:
#
# PCOD8295056 Si02
#       7
#    16  16  16  16  16  16  16
#     4  12  29  50  76 112 149 196 244 308 377 449
#     4  11  27  45  73 105 144 196 243 306 373 438
#     4  11  23  46  68 105 140 190 231 297 361 432
#     4  11  25  47  74 108 138 190 249 297 367 445
#     4  10  22  44  70 101 136 182 244 294 358 430
#     4  11  24  46  71 103 142 188 239 307 362 434
#     4  12  26  46  71 101 149 184 238 297 370 438
#
# _framework density 23.180374
#
# number of rings (size 3 to 8) (size 9 to 14) (size 15 to 20)
#    0.000    0.857    2.857    4.286    8.000    3.714 
#    2.571    0.000    0.000    0.000    0.000    0.000 
#    0.000    0.000    0.000    0.000    0.000    0.000 
#
# Total GULP energy -694072.295007 kJ/mol
# GULP energy per Si atom -12394.148125 kJ/mol
# Density = 2.312761 g / cm^3
# Si number density = 23.180374 Si / 1000 Ang^3
#
#
#
# Elastic Constant Matrix: (Units=GPa)
#
#
# Indices 1 2 3 4 5 6 
#
# 1 70.2561 19.9200 11.4661 0.0000 0.0000 0.0000
# 2 19.9200 77.8685 49.8378 0.0000 0.0000 0.0000
# 3 11.4661 49.8378 123.7051 0.0000 0.0000 0.0000
# 4 0.0000 0.0000 0.0000 32.9415 0.0000 0.0000
# 5 0.0000 0.0000 0.0000 0.0000 34.6358 0.0000
# 6 0.0000 0.0000 0.0000 0.0000 0.0000 33.6415
#
#
#
# Elastic Compliance Matrix: (Units=1/GPa)
#
#
# Indices 1 2 3 4 5 6 
#
# 1 0.015351 -0.004064 0.000215 0.000000 0.000000 0.000000
# 2 -0.004064 0.018380 -0.007028 0.000000 0.000000 0.000000
# 3 0.000215 -0.007028 0.010895 0.000000 0.000000 0.000000
# 4 0.000000 0.000000 0.000000 0.030357 0.000000 0.000000
# 5 0.000000 0.000000 0.000000 0.000000 0.028872 0.000000
# 6 0.000000 0.000000 0.000000 0.000000 0.000000 0.029725
#
#
# Mechanical properties :
#
#
# Convention : Reuss Voigt Hill
#
# Bulk Modulus (GPa) = 43.72445 48.25306 45.98876
# Shear Modulus (GPa) = 30.68240 32.95080 31.81660
#
# Velocity S-wave (km/s) = 3.64213 3.77436 3.70884
# Velocity P-wave (km/s) = 6.04900 6.31316 6.18249
#
# Compressibility (1/GPa) = 0.02287050
#
# Stress axis : x y z
#
# Youngs Moduli (GPa) = 65.14227 54.40664 91.78234
#
# Poissons Ratio (x) = 0.22113 -0.01969
# Poissons Ratio (y) = 0.26476 0.64506
# Poissons Ratio (z) = -0.01398 0.38238
#
# Static dielectric constant tensor:
#      x y z
#    x 4.046860 0.000000 0.000000 
#    y 0.000000 4.271340 0.000000 
#    z 0.000000 0.000000 4.593070 
# 
# 
# High freq. dielectric constant tensor:
#      x y z
#    x 1.910920 0.000000 0.000000 
#    y 0.000000 1.923010 0.000000 
#    z 0.000000 0.000000 1.927150 
# 
# From -- ./inp_files/51488.got.cif
#   From: 2010.03.12/outbox.cif.g09.slc.cpg/sg72_26_cif.got.tgz:51488.got - 2010.04.16 14:54:00.
