data_PCOD8295342
_publ_section_title
;
Structure prediction by ZEFSAII (Michael W. Deem and Ramdas Pophale) SiO2 
 PCOD8295342
Probable space group: I B A M
;
_chemical_formula_sum "Si O2"
_cell_formula_units_Z 64
_cell_length_a 31.967154
_cell_length_b 9.731352
_cell_length_c 10.032777
_cell_angle_alpha 90.000000
_cell_angle_beta 90.000000
_cell_angle_gamma 90.000000
_cell_volume 3121.032668
_symmetry_space_group_name_H-M "I B A M"
_symmetry_group_IT_number 72
_symmetry_cell_setting 'orthorhombic'
loop_
_space_group_symop_operation_xyz
x,y,z
-x,-y,z
x,-y,1/2-z
-x,y,1/2-z
-x,-y,-z
x,y,-z
-x,y,1/2+z
x,-y,1/2+z
1/2+x,1/2+y,1/2+z
1/2-x,1/2-y,1/2+z
1/2+x,1/2-y,-z
1/2-x,1/2+y,-z
1/2-x,1/2-y,1/2-z
1/2+x,1/2+y,1/2-z
1/2-x,1/2+y,z
1/2+x,1/2-y,z
loop_
_atom_site_type_symbol
_atom_site_label
_atom_site_fract_x
_atom_site_fract_y
_atom_site_fract_z
Si Si1 0.444457 0.345552 0.500000
Si Si2 0.839716 0.000000 0.750000
Si Si3 0.712609 0.602704 0.500000
Si Si4 0.294710 0.077888 0.500000
Si Si5 0.960750 0.831286 0.500000
Si Si6 0.850157 0.500000 0.250000
Si Si7 0.901785 0.766627 0.727888
O O1 0.451106 0.507676 0.500000
O O2 0.491042 0.284660 0.500000
O O3 0.417499 0.292689 0.376741
O O4 0.868592 0.882690 0.685511
O O5 0.812025 0.063431 0.633010
O O6 0.721434 0.765465 0.500000
O O7 0.756281 0.525477 0.500000
O O8 0.321754 0.051207 0.630044
O O9 0.941643 0.767304 0.632681
O O10 0.880023 0.621993 0.294828
#
# Coordination Sequence:
#
# PCOD8295342 Si02
#       7
#     8   8   8   8   8   8  16
#     4  11  22  40  65  97 137 165 220 280 324 386
#     4  12  23  44  71  96 132 178 226 274 321 400
#     4  12  28  45  69 100 137 171 221 274 336 396
#     4  12  28  48  66 101 134 176 218 277 333 401
#     4  11  22  39  66 100 128 175 218 272 332 386
#     4  12  27  46  69  94 140 172 222 274 333 390
#     4  12  23  42  66  97 127 176 220 269 325 390
#
# _framework density 20.506035000000001
#
# number of rings (size 3 to 8) (size 9 to 14) (size 15 to 20)
#    0.000    0.250    5.000    4.500    3.500    4.000 
#    0.000    3.750    0.000    0.000    0.000    0.000 
#    0.000    0.000    0.000    0.000    0.000    0.000 
#
# Total GULP energy -396971.277229 kJ/mol
# GULP energy per Si atom -12405.352413 kJ/mol
# Density = 2.045936 g / cm^3
# Si number density = 20.506035 Si / 1000 Ang^3
#
#
#
# Elastic Constant Matrix: (Units=GPa)
#
#
# Indices 1 2 3 4 5 6 
#
# 1 114.2256 53.0955 28.9692 0.0000 0.0000 0.0000
# 2 53.0955 150.3803 19.4608 0.0000 0.0000 0.0000
# 3 28.9692 19.4608 116.2863 0.0000 0.0000 0.0000
# 4 0.0000 0.0000 0.0000 21.4743 0.0000 0.0000
# 5 0.0000 0.0000 0.0000 0.0000 5.5084 0.0000
# 6 0.0000 0.0000 0.0000 0.0000 0.0000 25.6233
#
#
#
# Elastic Compliance Matrix: (Units=1/GPa)
#
#
# Indices 1 2 3 4 5 6 
#
# 1 0.010967 -0.003596 -0.002130 0.000000 0.000000 0.000000
# 2 -0.003596 0.007976 -0.000439 0.000000 0.000000 0.000000
# 3 -0.002130 -0.000439 0.009204 0.000000 0.000000 0.000000
# 4 0.000000 0.000000 0.000000 0.046567 0.000000 0.000000
# 5 0.000000 0.000000 0.000000 0.000000 0.181541 0.000000
# 6 0.000000 0.000000 0.000000 0.000000 0.000000 0.039027
#
#
# Mechanical properties :
#
#
# Convention : Reuss Voigt Hill
#
# Bulk Modulus (GPa) = 63.22843 64.88258 64.05550
# Shear Modulus (GPa) = 15.98033 29.14565 22.56299
#
# Velocity S-wave (km/s) = 2.79462 3.77413 3.32069
# Velocity P-wave (km/s) = 6.42761 7.12050 6.78291
#
# Compressibility (1/GPa) = 0.01581567
#
# Stress axis : x y z
#
# Youngs Moduli (GPa) = 91.18669 125.37000 108.65336
#
# Poissons Ratio (x) = 0.45087 0.23144
# Poissons Ratio (y) = 0.32794 0.04769
# Poissons Ratio (z) = 0.19424 0.05503
#
# Static dielectric constant tensor:
#      x y z
#    x 4.013550 0.000000 0.000000 
#    y 0.000000 3.832720 0.000000 
#    z 0.000000 0.000000 3.798660 
# 
# 
# High freq. dielectric constant tensor:
#      x y z
#    x 1.819730 0.000000 0.000000 
#    y 0.000000 1.803590 0.000000 
#    z 0.000000 0.000000 1.818060 
# 
# From -- ./inp_files/16655.got.cif
#   From: 2010.03.12/outbox.cif.g09.slc.cpg/sg72_9_cif.got.tgz:16655.got - 2010.04.16 14:54:00.
