data_PCOD8295686
_publ_section_title
;
Structure prediction by ZEFSAII (Michael W. Deem and Ramdas Pophale) SiO2 
 PCOD8295686
Probable space group: I B C A 
;
_chemical_formula_sum "Si O2"
_cell_formula_units_Z 72
_cell_length_a 5.226816
_cell_length_b 23.467172
_cell_length_c 30.307936
_cell_angle_alpha 90.000000
_cell_angle_beta 90.000000
_cell_angle_gamma 90.000000
_cell_volume 3717.528698
_symmetry_space_group_name_H-M "I B C A "
_symmetry_group_IT_number 73
_symmetry_cell_setting 'orthorhombic'
loop_
_space_group_symop_operation_xyz
x,y,z
-x,1/2-y,z
x,-y,1/2-z
1/2-x,y,-z
-x,-y,-z
x,1/2+y,-z
-x,y,1/2+z
1/2+x,-y,z
1/2+x,1/2+y,1/2+z
1/2-x,-y,1/2+z
1/2+x,1/2-y,-z
-x,1/2+y,1/2-z
1/2-x,1/2-y,1/2-z
1/2+x,y,1/2-z
1/2-x,1/2+y,z
x,1/2-y,1/2+z
loop_
_atom_site_type_symbol
_atom_site_label
_atom_site_fract_x
_atom_site_fract_y
_atom_site_fract_z
Si Si1 0.516740 0.024394 0.950087
Si Si2 0.000000 0.750000 0.974807
Si Si3 0.306509 0.313476 0.731966
Si Si4 0.448462 0.852484 0.085090
Si Si5 0.961799 0.814916 0.130813
O O1 0.554774 0.091767 0.945738
O O2 0.755383 0.993912 0.925720
O O3 0.500000 0.000000 0.000000
O O4 0.882304 0.699062 0.946802
O O5 0.750000 0.773868 0.000000
O O6 0.250000 0.250000 0.750000
O O7 0.531903 0.344398 0.760736
O O8 0.397505 0.313939 0.682091
O O9 0.725478 0.844828 0.106612
O O10 0.219800 0.851552 0.121486
O O11 0.000000 0.750000 0.114135
#
# Coordination Sequence:
#
# PCOD8295686 Si02
#       5
#    16   8  16  16  16
#     4  10  23  42  64  82 105 149 213 274 308 351
#     4  12  26  36  56  80 120 154 196 240 302 394
#     4  10  19  30  53  83 123 176 199 217 264 360
#     4  12  25  40  58  87 120 160 203 254 317 361
#     4  12  21  37  56  88 133 168 187 236 298 367
#
# _framework density 19.367705000000001
#
# number of rings (size 3 to 8) (size 9 to 14) (size 15 to 20)
#    0.000    0.889    4.444    4.000    9.333    0.000 
#    0.000    0.000    0.000    0.000    0.000    0.000 
#    0.000   62.222    0.000    0.000    0.000    0.000 
#
# Total GULP energy -446009.599453 kJ/mol
# GULP energy per Si atom -12389.155540 kJ/mol
# Density = 1.932362 g / cm^3
# Si number density = 19.367705 Si / 1000 Ang^3
#
#
#
# Elastic Constant Matrix: (Units=GPa)
#
#
# Indices 1 2 3 4 5 6 
#
# 1 199.5790 36.9066 41.0116 0.0000 0.0000 0.0000
# 2 36.9066 109.6691 42.4061 0.0000 0.0000 0.0000
# 3 41.0116 42.4061 90.8101 0.0000 0.0000 0.0000
# 4 0.0000 0.0000 0.0000 18.0674 0.0000 0.0000
# 5 0.0000 0.0000 0.0000 0.0000 23.0075 0.0000
# 6 0.0000 0.0000 0.0000 0.0000 0.0000 25.4111
#
#
#
# Elastic Compliance Matrix: (Units=1/GPa)
#
#
# Indices 1 2 3 4 5 6 
#
# 1 0.005632 -0.001113 -0.002024 0.000000 0.000000 0.000000
# 2 -0.001113 0.011347 -0.004796 0.000000 0.000000 0.000000
# 3 -0.002024 -0.004796 0.014166 0.000000 0.000000 0.000000
# 4 0.000000 0.000000 0.000000 0.055348 0.000000 0.000000
# 5 0.000000 0.000000 0.000000 0.000000 0.043464 0.000000
# 6 0.000000 0.000000 0.000000 0.000000 0.000000 0.039353
#
#
# Mechanical properties :
#
#
# Convention : Reuss Voigt Hill
#
# Bulk Modulus (GPa) = 65.44855 71.18967 68.31911
# Shear Modulus (GPa) = 26.27840 31.94613 29.11226
#
# Velocity S-wave (km/s) = 3.68749 4.06575 3.88123
# Velocity P-wave (km/s) = 7.21083 7.67314 7.44558
#
# Compressibility (1/GPa) = 0.01527918
#
# Stress axis : x y z
#
# Youngs Moduli (GPa) = 177.54943 88.12535 70.59211
#
# Poissons Ratio (x) = 0.09806 0.14288
# Poissons Ratio (y) = 0.19757 0.33859
# Poissons Ratio (z) = 0.35936 0.42269
#
# Static dielectric constant tensor:
#      x y z
#    x 1.789420 0.000000 0.000000 
#    y 0.000000 3.205170 0.000000 
#    z 0.000000 0.000000 3.438740 
# 
# 
# High freq. dielectric constant tensor:
#      x y z
#    x 1.804330 0.000000 0.000000 
#    y 0.000000 1.700610 0.000000 
#    z 0.000000 0.000000 1.732790 
# 
# From -- ./inp_files/1688.got.cif
#   From: 2010.03.12/outbox.cif.g09.slc.cpg/sg73_1_cif.got.tgz:1688.got - 2010.04.16 15:25:48.
