data_PCOD8295049
_publ_section_title
;
Structure prediction by ZEFSAII (Michael W. Deem and Ramdas Pophale) SiO2 
 PCOD8295049
Probable space group: I B A M
;
_chemical_formula_sum "Si O2"
_cell_formula_units_Z 64
_cell_length_a 15.920385
_cell_length_b 10.228945
_cell_length_c 16.568720
_cell_angle_alpha 90.000000
_cell_angle_beta 90.000000
_cell_angle_gamma 90.000000
_cell_volume 2698.195218
_symmetry_space_group_name_H-M "I B A M"
_symmetry_group_IT_number 72
_symmetry_cell_setting 'orthorhombic'
loop_
_space_group_symop_operation_xyz
x,y,z
-x,-y,z
x,-y,1/2-z
-x,y,1/2-z
-x,-y,-z
x,y,-z
-x,y,1/2+z
x,-y,1/2+z
1/2+x,1/2+y,1/2+z
1/2-x,1/2-y,1/2+z
1/2+x,1/2-y,-z
1/2-x,1/2+y,-z
1/2-x,1/2-y,1/2-z
1/2+x,1/2+y,1/2-z
1/2-x,1/2+y,z
1/2+x,1/2-y,z
loop_
_atom_site_type_symbol
_atom_site_label
_atom_site_fract_x
_atom_site_fract_y
_atom_site_fract_z
Si Si1 0.995484 0.854028 0.590770
Si Si2 0.327458 0.744015 0.862297
Si Si3 0.197541 0.476046 0.592773
Si Si4 0.413570 0.168980 0.792633
O O1 0.961163 0.855357 0.500000
O O2 0.084081 0.779786 0.593779
O O3 0.926071 0.785518 0.644788
O O4 0.000000 0.000000 0.625438
O O5 0.272910 0.614277 0.875433
O O6 0.343348 0.774430 0.767984
O O7 0.281108 0.869741 0.902033
O O8 0.175247 0.440070 0.500000
O O9 0.119615 0.454619 0.655143
O O10 0.500000 0.126790 0.750000
#
# Coordination Sequence:
#
# PCOD8295049 Si02
#       4
#    16  16  16  16
#     4  10  22  43  71 103 138 178 230 284 341 408
#     4  11  26  45  69 100 140 179 230 280 342 414
#     4  12  25  45  70 101 137 182 230 283 346 407
#     4  10  24  44  68  99 138 178 231 283 349 402
#
# _framework density 23.719559
#
# number of rings (size 3 to 8) (size 9 to 14) (size 15 to 20)
#    0.000    1.250    0.000    4.500    3.500   11.500 
#    0.000    6.250    0.000    0.000    0.000    0.000 
#    0.000    0.000    0.000    0.000    0.000    0.000 
#
# Total GULP energy -396852.199286 kJ/mol
# GULP energy per Si atom -12401.631228 kJ/mol
# Density = 2.366557 g / cm^3
# Si number density = 23.719559 Si / 1000 Ang^3
#
#
#
# Elastic Constant Matrix: (Units=GPa)
#
#
# Indices 1 2 3 4 5 6 
#
# 1 76.8006 31.8052 37.1701 0.0000 0.0000 0.0000
# 2 31.8052 156.7957 30.9842 0.0000 0.0000 0.0000
# 3 37.1701 30.9842 119.3201 0.0000 0.0000 0.0000
# 4 0.0000 0.0000 0.0000 -52.6375 0.0000 0.0000
# 5 0.0000 0.0000 0.0000 0.0000 18.7235 0.0000
# 6 0.0000 0.0000 0.0000 0.0000 0.0000 39.2100
#
#
#
# Elastic Compliance Matrix: (Units=1/GPa)
#
#
# Indices 1 2 3 4 5 6 
#
# 1 0.016149 -0.002405 -0.004406 0.000000 0.000000 0.000000
# 2 -0.002405 0.007081 -0.001089 0.000000 0.000000 0.000000
# 3 -0.004406 -0.001089 0.010036 0.000000 0.000000 0.000000
# 4 0.000000 0.000000 0.000000 -0.018998 0.000000 0.000000
# 5 0.000000 0.000000 0.000000 0.000000 0.053409 0.000000
# 6 0.000000 0.000000 0.000000 0.000000 0.000000 0.025504
#
#
# Mechanical properties :
#
#
# Convention : Reuss Voigt Hill
#
# Bulk Modulus (GPa) = 57.25771 61.42616 59.34193
# Shear Modulus (GPa) = 43.55237 17.92300 30.73768
#
# Velocity S-wave (km/s) = 4.28967 2.75184 3.60374
# Velocity P-wave (km/s) = 6.98046 6.00415 6.51063
#
# Compressibility (1/GPa) = 0.01746490
#
# Stress axis : x y z
#
# Youngs Moduli (GPa) = 61.92227 141.22543 99.63799
#
# Poissons Ratio (x) = 0.33966 0.43903
# Poissons Ratio (y) = 0.14893 0.10855
# Poissons Ratio (z) = 0.27284 0.15386
#
# Static dielectric constant tensor:
#      x y z
#    x 4.027680 0.000000 0.000000 
#    y 0.000000 4.322180 0.000000 
#    z 0.000000 0.000000 4.512200 
# 
# 
# High freq. dielectric constant tensor:
#      x y z
#    x 1.924510 0.000000 0.000000 
#    y 0.000000 1.953660 0.000000 
#    z 0.000000 0.000000 1.957850 
# 
# From -- ./inp_files/27645.got.cif
#   From: 2010.03.12/outbox.cif.g09.slc.cpg/sg72_14_cif.got.tgz:27645.got - 2010.04.16 14:54:00.
