data_PCOD8295676
_publ_section_title
;
Structure prediction by ZEFSAII (Michael W. Deem and Ramdas Pophale) SiO2 
 PCOD8295676
Probable space group: I B C A 
;
_chemical_formula_sum "Si O2"
_cell_formula_units_Z 104
_cell_length_a 16.528599
_cell_length_b 13.934436
_cell_length_c 20.983908
_cell_angle_alpha 90.000000
_cell_angle_beta 90.000000
_cell_angle_gamma 90.000000
_cell_volume 4832.944547
_symmetry_space_group_name_H-M "I B C A "
_symmetry_group_IT_number 73
_symmetry_cell_setting 'orthorhombic'
loop_
_space_group_symop_operation_xyz
x,y,z
-x,1/2-y,z
x,-y,1/2-z
1/2-x,y,-z
-x,-y,-z
x,1/2+y,-z
-x,y,1/2+z
1/2+x,-y,z
1/2+x,1/2+y,1/2+z
1/2-x,-y,1/2+z
1/2+x,1/2-y,-z
-x,1/2+y,1/2-z
1/2-x,1/2-y,1/2-z
1/2+x,y,1/2-z
1/2-x,1/2+y,z
x,1/2-y,1/2+z
loop_
_atom_site_type_symbol
_atom_site_label
_atom_site_fract_x
_atom_site_fract_y
_atom_site_fract_z
Si Si1 0.039180 0.947756 0.812641
Si Si2 0.356377 0.191282 0.929099
Si Si3 0.908692 0.281492 0.446748
Si Si4 0.784373 0.402682 0.724912
Si Si5 0.948424 0.994806 0.563337
Si Si6 0.794634 0.732830 0.656711
Si Si7 0.500000 0.250000 0.348803
O O1 0.136376 0.938262 0.813336
O O2 0.009314 0.001553 0.876349
O O3 0.997141 0.844066 0.805735
O O4 0.007125 0.000000 0.750000
O O5 0.384544 0.081180 0.934429
O O6 0.273320 0.191708 0.890490
O O7 0.420718 0.257121 0.892218
O O8 0.349225 0.241099 0.998184
O O9 0.899465 0.395660 0.439540
O O10 0.879246 0.235399 0.380559
O O11 0.000000 0.250000 0.461752
O O12 0.739523 0.500000 0.750000
O O13 0.810148 0.336378 0.784100
O O14 0.726913 0.341201 0.679070
O O15 0.000000 0.000000 0.500000
#
# Coordination Sequence:
#
# PCOD8295676 Si02
#       7
#    16  16  16  16  16  16   8
#     4  10  22  39  66 101 130 177 228 280 344 407
#     4  11  22  46  68  98 135 180 231 280 355 418
#     4  12  25  44  69 104 141 172 235 296 343 417
#     4  10  24  45  66  93 140 178 228 291 346 419
#     4  11  24  44  72 102 139 185 229 289 351 421
#     4  11  26  45  67  99 136 185 229 286 357 412
#     4  10  18  40  68  90 134 176 212 280 338 410
#
# _framework density 21.518972000000002
#
# number of rings (size 3 to 8) (size 9 to 14) (size 15 to 20)
#    0.000    1.231    3.846    1.385    6.462    1.231 
#    2.769    1.538    0.000    0.000    0.000    0.000 
#    0.000    0.000    0.000    0.000    0.000    0.000 
#
# Total GULP energy -644829.056410 kJ/mol
# GULP energy per Si atom -12400.558777 kJ/mol
# Density = 2.146999 g / cm^3
# Si number density = 21.518972 Si / 1000 Ang^3
#
#
#
# Elastic Constant Matrix: (Units=GPa)
#
#
# Indices 1 2 3 4 5 6 
#
# 1 47.7905 7.9244 20.7172 0.0000 0.0000 0.0000
# 2 7.9244 135.6110 35.7288 0.0000 0.0000 0.0000
# 3 20.7172 35.7288 120.6098 0.0000 0.0000 0.0000
# 4 0.0000 0.0000 0.0000 27.5122 0.0000 0.0000
# 5 0.0000 0.0000 0.0000 0.0000 29.3464 0.0000
# 6 0.0000 0.0000 0.0000 0.0000 0.0000 20.5029
#
#
#
# Elastic Compliance Matrix: (Units=1/GPa)
#
#
# Indices 1 2 3 4 5 6 
#
# 1 0.022621 -0.000323 -0.003790 0.000000 0.000000 0.000000
# 2 -0.000323 0.008003 -0.002315 0.000000 0.000000 0.000000
# 3 -0.003790 -0.002315 0.009628 0.000000 0.000000 0.000000
# 4 0.000000 0.000000 0.000000 0.036348 0.000000 0.000000
# 5 0.000000 0.000000 0.000000 0.000000 0.034076 0.000000
# 6 0.000000 0.000000 0.000000 0.000000 0.000000 0.048773
#
#
# Mechanical properties :
#
#
# Convention : Reuss Voigt Hill
#
# Bulk Modulus (GPa) = 36.50264 48.08356 42.29310
# Shear Modulus (GPa) = 27.55771 31.44837 29.50304
#
# Velocity S-wave (km/s) = 3.58246 3.82701 3.70675
# Velocity P-wave (km/s) = 5.84054 6.47466 6.16576
#
# Compressibility (1/GPa) = 0.02739528
#
# Stress axis : x y z
#
# Youngs Moduli (GPa) = 44.20637 124.95463 103.86346
#
# Poissons Ratio (x) = 0.04041 0.39363
# Poissons Ratio (y) = 0.01429 0.24046
# Poissons Ratio (z) = 0.16754 0.28929
#
# Static dielectric constant tensor:
#      x y z
#    x 3.599670 0.000000 0.000000 
#    y 0.000000 4.489660 0.000000 
#    z 0.000000 0.000000 4.061740 
# 
# 
# High freq. dielectric constant tensor:
#      x y z
#    x 1.823080 0.000000 0.000000 
#    y 0.000000 1.861030 0.000000 
#    z 0.000000 0.000000 1.855810 
# 
# From -- ./inp_files/26527.got.cif
#   From: 2010.03.12/outbox.cif.g09.slc.cpg/sg73_14_cif.got.tgz:26527.got - 2010.04.16 15:25:48.
