data_PCOD8295909
_publ_section_title
;
Structure prediction by ZEFSAII (Michael W. Deem and Ramdas Pophale) SiO2 
 PCOD8295909
Probable space group: I B C A 
;
_chemical_formula_sum "Si O2"
_cell_formula_units_Z 104
_cell_length_a 19.624624
_cell_length_b 16.479186
_cell_length_c 14.853280
_cell_angle_alpha 90.000000
_cell_angle_beta 90.000000
_cell_angle_gamma 90.000000
_cell_volume 4803.518507
_symmetry_space_group_name_H-M "I B C A "
_symmetry_group_IT_number 73
_symmetry_cell_setting 'orthorhombic'
loop_
_space_group_symop_operation_xyz
x,y,z
-x,1/2-y,z
x,-y,1/2-z
1/2-x,y,-z
-x,-y,-z
x,1/2+y,-z
-x,y,1/2+z
1/2+x,-y,z
1/2+x,1/2+y,1/2+z
1/2-x,-y,1/2+z
1/2+x,1/2-y,-z
-x,1/2+y,1/2-z
1/2-x,1/2-y,1/2-z
1/2+x,y,1/2-z
1/2-x,1/2+y,z
x,1/2-y,1/2+z
loop_
_atom_site_type_symbol
_atom_site_label
_atom_site_fract_x
_atom_site_fract_y
_atom_site_fract_z
Si Si1 0.051756 0.126875 0.146872
Si Si2 0.989857 0.091132 0.970923
Si Si3 0.058115 0.591067 0.218115
Si Si4 0.250000 0.069406 0.000000
Si Si5 0.364947 0.030109 0.605003
Si Si6 0.168865 0.331725 0.765490
Si Si7 0.191842 0.166111 0.838038
O O1 0.112035 0.183305 0.186975
O O2 0.987687 0.140658 0.212147
O O3 0.081454 0.035281 0.143546
O O4 0.022351 0.150373 0.047565
O O5 0.907433 0.095175 0.957143
O O6 0.029749 0.110724 0.880343
O O7 0.000000 0.000000 0.000000
O O8 0.053106 0.500000 0.250000
O O9 0.136749 0.615924 0.218947
O O10 0.295526 0.127512 0.063608
O O11 0.197778 0.011886 0.053556
O O12 0.338510 0.080761 0.689306
O O13 0.166583 0.260002 0.840316
O O14 0.240118 0.336846 0.717593
#
# Coordination Sequence:
#
# PCOD8295909 Si02
#       7
#    16  16  16   8  16  16  16
#     4  11  21  41  72  97 137 173 231 288 344 409
#     4  10  20  36  64 102 130 167 222 285 344 392
#     4  12  22  38  69 101 132 176 230 288 332 415
#     4  12  26  42  72 102 140 178 240 294 344 422
#     4  11  22  41  71 101 132 182 231 287 346 411
#     4  11  24  48  66  92 141 191 221 279 359 422
#     4  11  28  42  66  99 143 182 233 284 358 418
#
# _framework density 21.650796
#
# number of rings (size 3 to 8) (size 9 to 14) (size 15 to 20)
#    0.000    0.923    6.154    2.308    2.154    1.231 
#    0.000    1.538    6.769    0.000    0.000    0.000 
#    0.000    0.000    0.000    0.000    0.000    0.000 
#
# Total GULP energy -644299.067544 kJ/mol
# GULP energy per Si atom -12390.366684 kJ/mol
# Density = 2.160152 g / cm^3
# Si number density = 21.650796 Si / 1000 Ang^3
#
#
#
# Elastic Constant Matrix: (Units=GPa)
#
#
# Indices 1 2 3 4 5 6 
#
# 1 138.1779 26.8162 50.9177 0.0000 0.0000 0.0000
# 2 26.8162 42.5508 31.9970 0.0000 0.0000 0.0000
# 3 50.9177 31.9970 136.2595 0.0000 0.0000 0.0000
# 4 0.0000 0.0000 0.0000 18.5852 0.0000 0.0000
# 5 0.0000 0.0000 0.0000 0.0000 11.1537 0.0000
# 6 0.0000 0.0000 0.0000 0.0000 0.0000 2.3997
#
#
#
# Elastic Compliance Matrix: (Units=1/GPa)
#
#
# Indices 1 2 3 4 5 6 
#
# 1 0.008861 -0.003758 -0.002429 0.000000 0.000000 0.000000
# 2 -0.003758 0.030135 -0.005672 0.000000 0.000000 0.000000
# 3 -0.002429 -0.005672 0.009578 0.000000 0.000000 0.000000
# 4 0.000000 0.000000 0.000000 0.053806 0.000000 0.000000
# 5 0.000000 0.000000 0.000000 0.000000 0.089657 0.000000
# 6 0.000000 0.000000 0.000000 0.000000 0.000000 0.416727
#
#
# Mechanical properties :
#
#
# Convention : Reuss Voigt Hill
#
# Bulk Modulus (GPa) = 40.23052 59.60557 49.91805
# Shear Modulus (GPa) = 7.80313 20.24487 14.02400
#
# Velocity S-wave (km/s) = 1.90050 3.06120 2.54783
# Velocity P-wave (km/s) = 4.84126 6.33125 5.63571
#
# Compressibility (1/GPa) = 0.02485675
#
# Stress axis : x y z
#
# Youngs Moduli (GPa) = 112.84889 33.18399 104.40064
#
# Poissons Ratio (x) = 0.12471 0.25357
# Poissons Ratio (y) = 0.42411 0.59217
# Poissons Ratio (z) = 0.27409 0.18822
#
# Static dielectric constant tensor:
#      x y z
#    x 4.514440 0.000000 0.000000 
#    y 0.000000 3.856230 0.000000 
#    z 0.000000 0.000000 4.586320 
# 
# 
# High freq. dielectric constant tensor:
#      x y z
#    x 1.873640 0.000000 0.000000 
#    y 0.000000 1.819250 0.000000 
#    z 0.000000 0.000000 1.854750 
# 
# From -- ./inp_files/18806.got.cif
#   From: 2010.03.12/outbox.cif.g09.slc.cpg/sg73_10_cif.got.tgz:18806.got - 2010.04.16 15:25:48.
