data_PCOD8295706
_publ_section_title
;
Structure prediction by ZEFSAII (Michael W. Deem and Ramdas Pophale) SiO2 
 PCOD8295706
Probable space group: I B C A 
;
_chemical_formula_sum "Si O2"
_cell_formula_units_Z 112
_cell_length_a 22.167414
_cell_length_b 16.157436
_cell_length_c 15.165525
_cell_angle_alpha 90.000000
_cell_angle_beta 90.000000
_cell_angle_gamma 90.000000
_cell_volume 5431.814448
_symmetry_space_group_name_H-M "I B C A "
_symmetry_group_IT_number 73
_symmetry_cell_setting 'orthorhombic'
loop_
_space_group_symop_operation_xyz
x,y,z
-x,1/2-y,z
x,-y,1/2-z
1/2-x,y,-z
-x,-y,-z
x,1/2+y,-z
-x,y,1/2+z
1/2+x,-y,z
1/2+x,1/2+y,1/2+z
1/2-x,-y,1/2+z
1/2+x,1/2-y,-z
-x,1/2+y,1/2-z
1/2-x,1/2-y,1/2-z
1/2+x,y,1/2-z
1/2-x,1/2+y,z
x,1/2-y,1/2+z
loop_
_atom_site_type_symbol
_atom_site_label
_atom_site_fract_x
_atom_site_fract_y
_atom_site_fract_z
Si Si1 0.069093 0.906809 0.748290
Si Si2 0.384396 0.185183 0.900690
Si Si3 0.928958 0.425285 0.450772
Si Si4 0.835111 0.983011 0.847706
Si Si5 0.565595 0.592712 0.441572
Si Si6 0.149621 0.856721 0.909376
Si Si7 0.250000 0.459433 0.000000
Si Si8 0.500000 0.750000 0.695873
O O1 0.099835 0.901522 0.651885
O O2 0.120277 0.898255 0.822567
O O3 0.019945 0.832406 0.750669
O O4 0.039109 0.000000 0.750000
O O5 0.335420 0.259468 0.895226
O O6 0.445677 0.221368 0.863542
O O7 0.360054 0.109821 0.842954
O O8 0.399712 0.158834 0.999814
O O9 0.889789 0.451642 0.364920
O O10 0.930091 0.502833 0.516582
O O11 0.896401 0.354949 0.507871
O O12 0.994261 0.390474 0.424905
O O13 0.807245 0.000000 0.750000
O O14 0.788614 0.986255 0.930607
O O15 0.209978 0.903940 0.935255
#
# Coordination Sequence:
#
# PCOD8295706 Si02
#       8
#    16  16  16  16  16  16   8   8
#     4  11  22  35  61  95 130 173 210 256 308 382
#     4  10  22  39  60  90 136 162 202 258 314 382
#     4   9  19  34  58  87 125 166 211 235 297 385
#     4  10  23  42  65  93 120 164 215 269 313 375
#     4  10  19  33  58  91 124 178 199 234 309 382
#     4  10  21  43  61  88 122 158 213 272 318 367
#     4  10  24  48  70  84 112 166 222 274 330 366
#     4  10  24  36  56  98 138 174 204 250 312 390
#
# _framework density 20.619260000000001
#
# number of rings (size 3 to 8) (size 9 to 14) (size 15 to 20)
#    0.000    2.000    1.429    1.714    6.000    2.857 
#    7.714    0.714    0.000    0.000    0.000    0.000 
#    0.000    0.000    0.000    0.000    0.000    0.000 
#
# Total GULP energy -693834.177808 kJ/mol
# GULP energy per Si atom -12389.896032 kJ/mol
# Density = 2.057233 g / cm^3
# Si number density = 20.619260 Si / 1000 Ang^3
#
#
#
# Elastic Constant Matrix: (Units=GPa)
#
#
# Indices 1 2 3 4 5 6 
#
# 1 61.1080 23.0699 15.4758 0.0000 0.0000 0.0000
# 2 23.0699 126.5506 45.3578 0.0000 0.0000 0.0000
# 3 15.4758 45.3578 121.8225 0.0000 0.0000 0.0000
# 4 0.0000 0.0000 0.0000 14.7910 0.0000 0.0000
# 5 0.0000 0.0000 0.0000 0.0000 23.6320 0.0000
# 6 0.0000 0.0000 0.0000 0.0000 0.0000 17.2550
#
#
#
# Elastic Compliance Matrix: (Units=1/GPa)
#
#
# Indices 1 2 3 4 5 6 
#
# 1 0.017727 -0.002798 -0.001210 0.000000 0.000000 0.000000
# 2 -0.002798 0.009560 -0.003204 0.000000 0.000000 0.000000
# 3 -0.001210 -0.003204 0.009555 0.000000 0.000000 0.000000
# 4 0.000000 0.000000 0.000000 0.067609 0.000000 0.000000
# 5 0.000000 0.000000 0.000000 0.000000 0.042315 0.000000
# 6 0.000000 0.000000 0.000000 0.000000 0.000000 0.057954
#
#
# Mechanical properties :
#
#
# Convention : Reuss Voigt Hill
#
# Bulk Modulus (GPa) = 44.60603 53.03199 48.81901
# Shear Modulus (GPa) = 22.06349 26.17413 24.11881
#
# Velocity S-wave (km/s) = 3.27470 3.56673 3.42383
# Velocity P-wave (km/s) = 5.99820 6.53740 6.27359
#
# Compressibility (1/GPa) = 0.02241849
#
# Stress axis : x y z
#
# Youngs Moduli (GPa) = 56.41035 104.59757 104.65272
#
# Poissons Ratio (x) = 0.29265 0.12666
# Poissons Ratio (y) = 0.15783 0.33533
# Poissons Ratio (z) = 0.06827 0.33515
#
# Static dielectric constant tensor:
#      x y z
#    x 3.550360 0.000000 0.000000 
#    y 0.000000 4.220100 0.000000 
#    z 0.000000 0.000000 3.810900 
# 
# 
# High freq. dielectric constant tensor:
#      x y z
#    x 1.772500 0.000000 0.000000 
#    y 0.000000 1.813080 0.000000 
#    z 0.000000 0.000000 1.814550 
# 
# From -- ./inp_files/19439.got.cif
#   From: 2010.03.12/outbox.cif.g09.slc.cpg/sg73_10_cif.got.tgz:19439.got - 2010.04.16 15:25:48.
