data_PCOD8295261
_publ_section_title
;
Structure prediction by ZEFSAII (Michael W. Deem and Ramdas Pophale) SiO2 
 PCOD8295261
Probable space group: I B A M
;
_chemical_formula_sum "Si O2"
_cell_formula_units_Z 56
_cell_length_a 33.644932
_cell_length_b 5.034772
_cell_length_c 14.371375
_cell_angle_alpha 90.000000
_cell_angle_beta 90.000000
_cell_angle_gamma 90.000000
_cell_volume 2434.432767
_symmetry_space_group_name_H-M "I B A M"
_symmetry_group_IT_number 72
_symmetry_cell_setting 'orthorhombic'
loop_
_space_group_symop_operation_xyz
x,y,z
-x,-y,z
x,-y,1/2-z
-x,y,1/2-z
-x,-y,-z
x,y,-z
-x,y,1/2+z
x,-y,1/2+z
1/2+x,1/2+y,1/2+z
1/2-x,1/2-y,1/2+z
1/2+x,1/2-y,-z
1/2-x,1/2+y,-z
1/2-x,1/2-y,1/2-z
1/2+x,1/2+y,1/2-z
1/2-x,1/2+y,z
1/2+x,1/2-y,z
loop_
_atom_site_type_symbol
_atom_site_label
_atom_site_fract_x
_atom_site_fract_y
_atom_site_fract_z
Si Si1 0.471935 0.245154 0.500000
Si Si2 0.273666 0.678870 0.389020
Si Si3 0.862060 0.090301 0.105908
Si Si4 0.409785 0.896562 0.151630
O O1 0.500000 0.500000 0.500000
O O2 0.445042 0.232679 0.408139
O O3 0.500000 0.000000 0.500000
O O4 0.273819 0.682227 0.500000
O O5 0.247734 0.437884 0.348969
O O6 0.318920 0.663604 0.353030
O O7 0.889413 0.351923 0.102756
O O8 0.878768 0.845312 0.167620
O O9 0.859204 0.982605 0.000000
O O10 0.426653 0.000000 0.250000
#
# Coordination Sequence:
#
# PCOD8295261 Si02
#       4
#     8  16  16  16
#     4  12  26  48  76 102 136 172 214 270 336 412
#     4   9  17  29  52  90 128 172 231 283 329 384
#     4  11  20  39  67  95 136 184 230 281 335 395
#     4  12  25  44  70 103 137 175 224 274 336 404
#
# _framework density 23.003304
#
# number of rings (size 3 to 8) (size 9 to 14) (size 15 to 20)
#    0.000    1.143    2.857    4.286    0.000    5.143 
#    0.000    1.429    0.000   17.143    0.000    0.000 
#    0.000    0.000    0.000    0.000    0.000    0.000 
#
# Total GULP energy -347250.143795 kJ/mol
# GULP energy per Si atom -12401.790850 kJ/mol
# Density = 2.295095 g / cm^3
# Si number density = 23.003304 Si / 1000 Ang^3
#
#
#
# Elastic Constant Matrix: (Units=GPa)
#
#
# Indices 1 2 3 4 5 6 
#
# 1 125.3385 19.0241 51.6770 0.0000 0.0000 0.0000
# 2 19.0241 92.4854 31.9604 0.0000 0.0000 0.0000
# 3 51.6770 31.9604 87.0486 0.0000 0.0000 0.0000
# 4 0.0000 0.0000 0.0000 29.6857 0.0000 0.0000
# 5 0.0000 0.0000 0.0000 0.0000 7.7836 0.0000
# 6 0.0000 0.0000 0.0000 0.0000 0.0000 56.8998
#
#
#
# Elastic Compliance Matrix: (Units=1/GPa)
#
#
# Indices 1 2 3 4 5 6 
#
# 1 0.010564 -0.000007 -0.006269 0.000000 0.000000 0.000000
# 2 -0.000007 0.012384 -0.004543 0.000000 0.000000 0.000000
# 3 -0.006269 -0.004543 0.016877 0.000000 0.000000 0.000000
# 4 0.000000 0.000000 0.000000 0.033686 0.000000 0.000000
# 5 0.000000 0.000000 0.000000 0.000000 0.128475 0.000000
# 6 0.000000 0.000000 0.000000 0.000000 0.000000 0.017575
#
#
# Mechanical properties :
#
#
# Convention : Reuss Voigt Hill
#
# Bulk Modulus (GPa) = 54.98036 56.68839 55.83437
# Shear Modulus (GPa) = 20.22159 32.35457 26.28808
#
# Velocity S-wave (km/s) = 2.96813 3.75443 3.38419
# Velocity P-wave (km/s) = 5.97490 6.59480 6.29249
#
# Compressibility (1/GPa) = 0.01818831
#
# Stress axis : x y z
#
# Youngs Moduli (GPa) = 94.66009 80.75091 59.25080
#
# Poissons Ratio (x) = 0.00053 0.37144
# Poissons Ratio (y) = 0.00063 0.26917
# Poissons Ratio (z) = 0.59343 0.36684
#
# Static dielectric constant tensor:
#      x y z
#    x 4.218830 0.000000 0.000000 
#    y 0.000000 4.250160 0.000000 
#    z 0.000000 0.000000 3.801110 
# 
# 
# High freq. dielectric constant tensor:
#      x y z
#    x 1.905810 0.000000 0.000000 
#    y 0.000000 1.926200 0.000000 
#    z 0.000000 0.000000 1.898540 
# 
# From -- ./inp_files/17525.got.cif
#   From: 2010.03.12/outbox.cif.g09.slc.cpg/sg72_9_cif.got.tgz:17525.got - 2010.04.16 14:54:00.
