data_PCOD8295488
_publ_section_title
;
Structure prediction by ZEFSAII (Michael W. Deem and Ramdas Pophale) SiO2 
 PCOD8295488
Probable space group: I B A M
;
_chemical_formula_sum "Si O2"
_cell_formula_units_Z 64
_cell_length_a 8.850250
_cell_length_b 19.993432
_cell_length_c 16.495746
_cell_angle_alpha 90.000000
_cell_angle_beta 90.000000
_cell_angle_gamma 90.000000
_cell_volume 2918.870649
_symmetry_space_group_name_H-M "I B A M"
_symmetry_group_IT_number 72
_symmetry_cell_setting 'orthorhombic'
loop_
_space_group_symop_operation_xyz
x,y,z
-x,-y,z
x,-y,1/2-z
-x,y,1/2-z
-x,-y,-z
x,y,-z
-x,y,1/2+z
x,-y,1/2+z
1/2+x,1/2+y,1/2+z
1/2-x,1/2-y,1/2+z
1/2+x,1/2-y,-z
1/2-x,1/2+y,-z
1/2-x,1/2-y,1/2-z
1/2+x,1/2+y,1/2-z
1/2-x,1/2+y,z
1/2+x,1/2-y,z
loop_
_atom_site_type_symbol
_atom_site_label
_atom_site_fract_x
_atom_site_fract_y
_atom_site_fract_z
Si Si1 0.184192 0.574639 0.160005
Si Si2 0.154512 0.425219 0.149138
Si Si3 0.589593 0.309507 0.835218
Si Si4 0.711943 0.295215 0.590009
O O1 0.216044 0.499491 0.128403
O O2 0.172710 0.582244 0.255624
O O3 0.318899 0.624596 0.134620
O O4 0.018694 0.590993 0.123434
O O5 0.255976 0.373549 0.100963
O O6 0.500000 0.318700 0.750000
O O7 0.467710 0.289197 0.902294
O O8 0.707396 0.247565 0.838379
O O9 0.758340 0.270915 0.500000
#
# Coordination Sequence:
#
# PCOD8295488 Si02
#       4
#    16  16  16  16
#     4   9  19  38  66  97 120 165 217 268 315 384
#     4   9  19  39  65  93 130 161 210 265 325 391
#     4  12  24  41  66  95 127 172 230 275 317 390
#     4  12  26  42  60  93 135 173 213 275 341 393
#
# _framework density 21.926290000000002
#
# number of rings (size 3 to 8) (size 9 to 14) (size 15 to 20)
#    0.000    1.500    2.500    4.500    3.500    1.000 
#    0.000    7.500    0.000    0.000    0.000    0.000 
#    0.000    0.000    0.000    0.000    0.000    0.000 
#
# Total GULP energy -396500.612049 kJ/mol
# GULP energy per Si atom -12390.644127 kJ/mol
# Density = 2.187638 g / cm^3
# Si number density = 21.926290 Si / 1000 Ang^3
#
#
#
# Elastic Constant Matrix: (Units=GPa)
#
#
# Indices 1 2 3 4 5 6 
#
# 1 135.8244 77.8513 20.9188 0.0000 0.0000 0.0000
# 2 77.8513 139.2358 22.2552 0.0000 0.0000 0.0000
# 3 20.9188 22.2552 52.0071 0.0000 0.0000 0.0000
# 4 0.0000 0.0000 0.0000 17.2500 0.0000 0.0000
# 5 0.0000 0.0000 0.0000 0.0000 22.6458 0.0000
# 6 0.0000 0.0000 0.0000 0.0000 0.0000 51.2178
#
#
#
# Elastic Compliance Matrix: (Units=1/GPa)
#
#
# Indices 1 2 3 4 5 6 
#
# 1 0.011012 -0.005849 -0.001926 0.000000 0.000000 0.000000
# 2 -0.005849 0.010816 -0.002276 0.000000 0.000000 0.000000
# 3 -0.001926 -0.002276 0.020977 0.000000 0.000000 0.000000
# 4 0.000000 0.000000 0.000000 0.057971 0.000000 0.000000
# 5 0.000000 0.000000 0.000000 0.000000 0.044158 0.000000
# 6 0.000000 0.000000 0.000000 0.000000 0.000000 0.019524
#
#
# Mechanical properties :
#
#
# Convention : Reuss Voigt Hill
#
# Bulk Modulus (GPa) = 44.04834 63.23534 53.64184
# Shear Modulus (GPa) = 26.02428 31.95886 28.99157
#
# Velocity S-wave (km/s) = 3.44888 3.82194 3.64019
# Velocity P-wave (km/s) = 5.99938 6.95549 6.49505
#
# Compressibility (1/GPa) = 0.02270233
#
# Stress axis : x y z
#
# Youngs Moduli (GPa) = 90.81258 92.45339 47.67162
#
# Poissons Ratio (x) = 0.54077 0.09183
# Poissons Ratio (y) = 0.53117 0.10849
# Poissons Ratio (z) = 0.17493 0.21041
#
# Static dielectric constant tensor:
#      x y z
#    x 4.428170 0.000000 0.000000 
#    y 0.000000 4.250820 0.000000 
#    z 0.000000 0.000000 3.477150 
# 
# 
# High freq. dielectric constant tensor:
#      x y z
#    x 1.871010 0.000000 0.000000 
#    y 0.000000 1.868510 0.000000 
#    z 0.000000 0.000000 1.824880 
# 
# From -- ./inp_files/27654.got.cif
#   From: 2010.03.12/outbox.cif.g09.slc.cpg/sg72_14_cif.got.tgz:27654.got - 2010.04.16 14:54:00.
