data_PCOD8295241
_publ_section_title
;
Structure prediction by ZEFSAII (Michael W. Deem and Ramdas Pophale) SiO2 
 PCOD8295241
Probable space group: I B A M
;
_chemical_formula_sum "Si O2"
_cell_formula_units_Z 80
_cell_length_a 22.442008
_cell_length_b 21.382684
_cell_length_c 10.108721
_cell_angle_alpha 90.000000
_cell_angle_beta 90.000000
_cell_angle_gamma 90.000000
_cell_volume 4850.875640
_symmetry_space_group_name_H-M "I B A M"
_symmetry_group_IT_number 72
_symmetry_cell_setting 'orthorhombic'
loop_
_space_group_symop_operation_xyz
x,y,z
-x,-y,z
x,-y,1/2-z
-x,y,1/2-z
-x,-y,-z
x,y,-z
-x,y,1/2+z
x,-y,1/2+z
1/2+x,1/2+y,1/2+z
1/2-x,1/2-y,1/2+z
1/2+x,1/2-y,-z
1/2-x,1/2+y,-z
1/2-x,1/2-y,1/2-z
1/2+x,1/2+y,1/2-z
1/2-x,1/2+y,z
1/2+x,1/2-y,z
loop_
_atom_site_type_symbol
_atom_site_label
_atom_site_fract_x
_atom_site_fract_y
_atom_site_fract_z
Si Si1 0.246044 0.428376 0.500000
Si Si2 0.114412 0.082535 0.000000
Si Si3 0.110782 0.939049 0.000000
Si Si4 0.253931 0.927946 0.000000
Si Si5 0.568782 0.643147 0.764793
Si Si6 0.332844 0.731104 0.342426
Si Si7 0.274706 0.149522 0.748055
O O1 0.315705 0.420516 0.500000
O O2 0.226521 0.500329 0.500000
O O3 0.220452 0.395791 0.371666
O O4 0.092611 0.120123 0.125661
O O5 0.092215 0.011288 0.000000
O O6 0.080306 0.911216 0.129668
O O7 0.181561 0.923214 0.000000
O O8 0.285399 0.894165 0.877409
O O9 0.500000 0.659658 0.750000
O O10 0.600743 0.706673 0.814462
O O11 0.318998 0.734989 0.500000
O O12 0.325350 0.797946 0.270731
O O13 0.289018 0.682501 0.270034
#
# Coordination Sequence:
#
# PCOD8295241 Si02
#       7
#     8   8   8   8  16  16  16
#     4  11  20  33  53  81 107 134 177 212 260 308
#     4  11  23  33  51  75  99 140 190 221 243 297
#     4  11  21  39  49  67 111 144 174 219 267 285
#     4  11  20  35  55  77 109 138 167 222 258 308
#     4  12  23  36  52  71 100 138 186 224 255 296
#     4  11  21  36  54  73 105 137 175 218 267 306
#     4  11  20  34  55  77 101 139 173 207 267 322
#
# _framework density 16.491868
#
# number of rings (size 3 to 8) (size 9 to 14) (size 15 to 20)
#    0.000    0.800    7.000    1.800    0.000    6.400 
#    0.000    0.000    0.000    0.000    0.000    0.000 
#    0.000    4.800    0.000    0.000    0.000    0.000 
#
# Total GULP energy -495980.514217 kJ/mol
# GULP energy per Si atom -12399.512855 kJ/mol
# Density = 1.645433 g / cm^3
# Si number density = 16.491868 Si / 1000 Ang^3
#
#
#
# Elastic Constant Matrix: (Units=GPa)
#
#
# Indices 1 2 3 4 5 6 
#
# 1 44.6584 41.3427 16.4507 0.0000 0.0000 0.0000
# 2 41.3427 125.6957 58.2369 0.0000 0.0000 0.0000
# 3 16.4507 58.2369 135.4094 0.0000 0.0000 0.0000
# 4 0.0000 0.0000 0.0000 42.9655 0.0000 0.0000
# 5 0.0000 0.0000 0.0000 0.0000 -55.5157 0.0000
# 6 0.0000 0.0000 0.0000 0.0000 0.0000 23.3549
#
#
#
# Elastic Compliance Matrix: (Units=1/GPa)
#
#
# Indices 1 2 3 4 5 6 
#
# 1 0.032265 -0.010985 0.000805 0.000000 0.000000 0.000000
# 2 -0.010985 0.013676 -0.004547 0.000000 0.000000 0.000000
# 3 0.000805 -0.004547 0.009243 0.000000 0.000000 0.000000
# 4 0.000000 0.000000 0.000000 0.023275 0.000000 0.000000
# 5 0.000000 0.000000 0.000000 0.000000 -0.018013 0.000000
# 6 0.000000 0.000000 0.000000 0.000000 0.000000 0.042818
#
#
# Mechanical properties :
#
#
# Convention : Reuss Voigt Hill
#
# Bulk Modulus (GPa) = 38.86723 59.75824 49.31273
# Shear Modulus (GPa) = 35.38711 14.80982 25.09847
#
# Velocity S-wave (km/s) = 4.63723 2.99993 3.90535
# Velocity P-wave (km/s) = 7.23122 6.95076 7.09238
#
# Compressibility (1/GPa) = 0.02572862
#
# Stress axis : x y z
#
# Youngs Moduli (GPa) = 30.99294 73.12294 108.19185
#
# Poissons Ratio (x) = 0.80327 -0.08706
# Poissons Ratio (y) = 0.34047 0.49195
# Poissons Ratio (z) = -0.02494 0.33249
#
# Static dielectric constant tensor:
#      x y z
#    x 2.865860 0.000000 0.000000 
#    y 0.000000 3.347000 0.000000 
#    z 0.000000 0.000000 3.203800 
# 
# 
# High freq. dielectric constant tensor:
#      x y z
#    x 1.587130 0.000000 0.000000 
#    y 0.000000 1.639470 0.000000 
#    z 0.000000 0.000000 1.660370 
# 
# From -- ./inp_files/5730.got.cif
#   From: 2010.03.12/outbox.cif.g09.slc.cpg/sg72_3_cif.got.tgz:5730.got - 2010.04.16 14:54:00.
