data_PCOD8295314
_publ_section_title
;
Structure prediction by ZEFSAII (Michael W. Deem and Ramdas Pophale) SiO2 
 PCOD8295314
Probable space group: I B A M
;
_chemical_formula_sum "Si O2"
_cell_formula_units_Z 80
_cell_length_a 25.699210
_cell_length_b 18.307267
_cell_length_c 9.327393
_cell_angle_alpha 90.000000
_cell_angle_beta 90.000000
_cell_angle_gamma 90.000000
_cell_volume 4388.373304
_symmetry_space_group_name_H-M "I B A M"
_symmetry_group_IT_number 72
_symmetry_cell_setting 'orthorhombic'
loop_
_space_group_symop_operation_xyz
x,y,z
-x,-y,z
x,-y,1/2-z
-x,y,1/2-z
-x,-y,-z
x,y,-z
-x,y,1/2+z
x,-y,1/2+z
1/2+x,1/2+y,1/2+z
1/2-x,1/2-y,1/2+z
1/2+x,1/2-y,-z
1/2-x,1/2+y,-z
1/2-x,1/2-y,1/2-z
1/2+x,1/2+y,1/2-z
1/2-x,1/2+y,z
1/2+x,1/2-y,z
loop_
_atom_site_type_symbol
_atom_site_label
_atom_site_fract_x
_atom_site_fract_y
_atom_site_fract_z
Si Si1 0.839745 0.808840 0.830521
Si Si2 0.836920 0.355705 0.670643
Si Si3 0.244660 0.072671 0.828360
Si Si4 0.047172 0.816880 0.658729
Si Si5 0.953353 0.356617 0.342875
O O1 0.825243 0.727384 0.778533
O O2 0.795259 0.864112 0.781321
O O3 0.896288 0.834907 0.770399
O O4 0.846349 0.805642 0.000000
O O5 0.827232 0.365599 0.500000
O O6 0.800810 0.408440 0.763724
O O7 0.895893 0.377395 0.713969
O O8 0.224371 0.000000 0.750000
O O9 0.247635 0.062714 0.000000
O O10 0.042733 0.850849 0.500000
O O11 0.041737 0.730165 0.651079
O O12 0.000000 0.851412 0.750000
O O13 0.960539 0.390059 0.500000
O O14 0.000000 0.391114 0.250000
#
# Coordination Sequence:
#
# PCOD8295314 Si02
#       5
#    16  16  16  16  16
#     4   8  16  31  51  72  97 127 159 195 238 282
#     4   9  17  32  52  74  98 125 157 197 239 281
#     4  11  22  35  50  69  94 128 164 200 241 286
#     4   8  13  24  42  67  96 123 150 186 230 277
#     4   8  14  24  42  68  98 125 149 182 229 278
#
# _framework density 18.229990000000001
#
# number of rings (size 3 to 8) (size 9 to 14) (size 15 to 20)
#    0.000    3.200    0.000    3.600    0.000    0.800 
#    0.000    6.000    0.000    1.200    0.000    8.400 
#    0.000    0.000    0.000    0.000    0.000    0.000 
#
# Total GULP energy -495682.512049 kJ/mol
# GULP energy per Si atom -12392.062801 kJ/mol
# Density = 1.818850 g / cm^3
# Si number density = 18.229990 Si / 1000 Ang^3
#
#
#
# Elastic Constant Matrix: (Units=GPa)
#
#
# Indices 1 2 3 4 5 6 
#
# 1 99.5949 9.9168 33.7877 0.0000 0.0000 0.0000
# 2 9.9168 31.9210 12.3095 0.0000 0.0000 0.0000
# 3 33.7877 12.3095 57.9797 0.0000 0.0000 0.0000
# 4 0.0000 0.0000 0.0000 18.8314 0.0000 0.0000
# 5 0.0000 0.0000 0.0000 0.0000 30.5473 0.0000
# 6 0.0000 0.0000 0.0000 0.0000 0.0000 4.0509
#
#
#
# Elastic Compliance Matrix: (Units=1/GPa)
#
#
# Indices 1 2 3 4 5 6 
#
# 1 0.012555 -0.001175 -0.007067 0.000000 0.000000 0.000000
# 2 -0.001175 0.034231 -0.006583 0.000000 0.000000 0.000000
# 3 -0.007067 -0.006583 0.022763 0.000000 0.000000 0.000000
# 4 0.000000 0.000000 0.000000 0.053103 0.000000 0.000000
# 5 0.000000 0.000000 0.000000 0.000000 0.032736 0.000000
# 6 0.000000 0.000000 0.000000 0.000000 0.000000 0.246860
#
#
# Mechanical properties :
#
#
# Convention : Reuss Voigt Hill
#
# Bulk Modulus (GPa) = 25.06293 33.50263 29.28278
# Shear Modulus (GPa) = 11.23095 19.58467 15.40781
#
# Velocity S-wave (km/s) = 2.48477 3.28122 2.91037
# Velocity P-wave (km/s) = 4.69150 5.72476 5.23369
#
# Compressibility (1/GPa) = 0.03989957
#
# Stress axis : x y z
#
# Youngs Moduli (GPa) = 79.64830 29.21340 43.93039
#
# Poissons Ratio (x) = 0.03433 0.31046
# Poissons Ratio (y) = 0.09361 0.28918
# Poissons Ratio (z) = 0.56288 0.19230
#
# Static dielectric constant tensor:
#      x y z
#    x 3.672910 0.000000 0.000000 
#    y 0.000000 2.980850 0.000000 
#    z 0.000000 0.000000 3.335110 
# 
# 
# High freq. dielectric constant tensor:
#      x y z
#    x 1.723570 0.000000 0.000000 
#    y 0.000000 1.659350 0.000000 
#    z 0.000000 0.000000 1.685300 
# 
# From -- ./inp_files/15379.got.cif
#   From: 2010.03.12/outbox.cif.g09.slc.cpg/sg72_8_cif.got.tgz:15379.got - 2010.04.16 14:54:00.
