data_PCOD8295160
_publ_section_title
;
Structure prediction by ZEFSAII (Michael W. Deem and Ramdas Pophale) SiO2 
 PCOD8295160
Probable space group: I B A M
;
_chemical_formula_sum "Si O2"
_cell_formula_units_Z 64
_cell_length_a 21.947759
_cell_length_b 5.122896
_cell_length_c 20.101325
_cell_angle_alpha 90.000000
_cell_angle_beta 90.000000
_cell_angle_gamma 90.000000
_cell_volume 2260.114322
_symmetry_space_group_name_H-M "I B A M"
_symmetry_group_IT_number 72
_symmetry_cell_setting 'orthorhombic'
loop_
_space_group_symop_operation_xyz
x,y,z
-x,-y,z
x,-y,1/2-z
-x,y,1/2-z
-x,-y,-z
x,y,-z
-x,y,1/2+z
x,-y,1/2+z
1/2+x,1/2+y,1/2+z
1/2-x,1/2-y,1/2+z
1/2+x,1/2-y,-z
1/2-x,1/2+y,-z
1/2-x,1/2-y,1/2-z
1/2+x,1/2+y,1/2-z
1/2-x,1/2+y,z
1/2+x,1/2-y,z
loop_
_atom_site_type_symbol
_atom_site_label
_atom_site_fract_x
_atom_site_fract_y
_atom_site_fract_z
Si Si1 0.790178 0.017015 0.643851
Si Si2 0.066219 0.375468 0.925858
Si Si3 0.286793 0.438447 0.000000
Si Si4 0.392246 0.805540 0.308528
Si Si5 0.000000 0.000000 0.160337
O O1 0.734980 0.808600 0.655556
O O2 0.820487 0.005173 0.569422
O O3 0.844585 0.936527 0.693287
O O4 0.111413 0.548454 0.880353
O O5 0.000000 0.500000 0.932754
O O6 0.054396 0.107360 0.886622
O O7 0.094492 0.334213 0.000000
O O8 0.227816 0.630293 0.000000
O O9 0.461836 0.705646 0.294672
O O10 0.374148 0.000000 0.250000
#
# Coordination Sequence:
#
# PCOD8295160 Si02
#       5
#    16  16   8  16   8
#     4  10  23  44  70 103 143 188 241 303 362 437
#     4   9  20  40  66  98 135 178 235 298 360 426
#     4   8  16  36  64  97 135 181 235 294 362 418
#     4  11  26  43  69 105 141 193 239 297 365 432
#     4  10  23  45  68  98 143 187 244 298 363 441
#
# _framework density 28.317153000000001
#
# number of rings (size 3 to 8) (size 9 to 14) (size 15 to 20)
#    0.000    2.250    0.000    0.375    5.250    8.500 
#    0.000    0.000    0.000    0.000    0.000    0.000 
#    0.000    0.000    0.000    0.000    0.000    0.000 
#
# Total GULP energy -396534.045901 kJ/mol
# GULP energy per Si atom -12391.688934 kJ/mol
# Density = 2.825270 g / cm^3
# Si number density = 28.317153 Si / 1000 Ang^3
#
#
#
# Elastic Constant Matrix: (Units=GPa)
#
#
# Indices 1 2 3 4 5 6 
#
# 1 51.0434 -19.5799 17.4289 0.0000 0.0000 0.0000
# 2 -19.5799 57.1727 -23.5844 0.0000 0.0000 0.0000
# 3 17.4289 -23.5844 88.8665 0.0000 0.0000 0.0000
# 4 0.0000 0.0000 0.0000 44.5998 0.0000 0.0000
# 5 0.0000 0.0000 0.0000 0.0000 61.8334 0.0000
# 6 0.0000 0.0000 0.0000 0.0000 0.0000 19.2546
#
#
#
# Elastic Compliance Matrix: (Units=1/GPa)
#
#
# Indices 1 2 3 4 5 6 
#
# 1 0.023131 0.006794 -0.002733 0.000000 0.000000 0.000000
# 2 0.006794 0.021637 0.004410 0.000000 0.000000 0.000000
# 3 -0.002733 0.004410 0.012959 0.000000 0.000000 0.000000
# 4 0.000000 0.000000 0.000000 0.022422 0.000000 0.000000
# 5 0.000000 0.000000 0.000000 0.000000 0.016172 0.000000
# 6 0.000000 0.000000 0.000000 0.000000 0.000000 0.051936
#
#
# Mechanical properties :
#
#
# Convention : Reuss Voigt Hill
#
# Bulk Modulus (GPa) = 13.39278 16.17908 14.78593
# Shear Modulus (GPa) = 32.00927 39.99210 36.00069
#
# Velocity S-wave (km/s) = 3.36577 3.76213 3.56945
# Velocity P-wave (km/s) = 4.45470 4.95957 4.71390
#
# Compressibility (1/GPa) = 0.07466708
#
# Stress axis : x y z
#
# Youngs Moduli (GPa) = 43.23273 46.21783 77.16507
#
# Poissons Ratio (x) = -0.31400 0.21093
# Poissons Ratio (y) = -0.29372 -0.34028
# Poissons Ratio (z) = 0.11817 -0.20381
#
# Static dielectric constant tensor:
#      x y z
#    x 4.525790 0.000000 0.000000 
#    y 0.000000 5.352210 0.000000 
#    z 0.000000 0.000000 5.567200 
# 
# 
# High freq. dielectric constant tensor:
#      x y z
#    x 2.125710 0.000000 0.000000 
#    y 0.000000 2.151310 0.000000 
#    z 0.000000 0.000000 2.157590 
# 
# From -- ./inp_files/45585.got.cif
#   From: 2010.03.12/outbox.cif.g09.slc.cpg/sg72_23_cif.got.tgz:45585.got - 2010.04.16 14:54:00.
