data_PCOD8295758
_publ_section_title
;
Structure prediction by ZEFSAII (Michael W. Deem and Ramdas Pophale) SiO2 
 PCOD8295758
Probable space group: I B C A 
;
_chemical_formula_sum "Si O2"
_cell_formula_units_Z 64
_cell_length_a 5.268059
_cell_length_b 14.229820
_cell_length_c 35.750204
_cell_angle_alpha 90.000000
_cell_angle_beta 90.000000
_cell_angle_gamma 90.000000
_cell_volume 2679.961537
_symmetry_space_group_name_H-M "I B C A "
_symmetry_group_IT_number 73
_symmetry_cell_setting 'orthorhombic'
loop_
_space_group_symop_operation_xyz
x,y,z
-x,1/2-y,z
x,-y,1/2-z
1/2-x,y,-z
-x,-y,-z
x,1/2+y,-z
-x,y,1/2+z
1/2+x,-y,z
1/2+x,1/2+y,1/2+z
1/2-x,-y,1/2+z
1/2+x,1/2-y,-z
-x,1/2+y,1/2-z
1/2-x,1/2-y,1/2-z
1/2+x,y,1/2-z
1/2-x,1/2+y,z
x,1/2-y,1/2+z
loop_
_atom_site_type_symbol
_atom_site_label
_atom_site_fract_x
_atom_site_fract_y
_atom_site_fract_z
Si Si1 0.239841 0.641102 0.424474
Si Si2 0.801613 0.061537 0.155769
Si Si3 0.755405 0.651374 0.543756
Si Si4 0.552868 0.858018 0.732475
O O1 0.201293 0.626575 0.380645
O O2 0.496367 0.594538 0.441812
O O3 0.249587 0.751322 0.433555
O O4 0.997357 0.593633 0.445218
O O5 0.850161 0.131135 0.190262
O O6 0.525445 0.014459 0.156725
O O7 0.750000 0.672754 0.500000
O O8 0.500000 0.750000 0.742541
O O9 0.275313 0.904398 0.741057
#
# Coordination Sequence:
#
# PCOD8295758 Si02
#       4
#    16  16  16  16
#     4  10  20  35  58  90 122 156 203 267 309 366
#     4  12  26  42  62  93 134 175 206 251 319 395
#     4  10  19  36  65  93 115 157 218 274 313 367
#     4  10  23  44  68  96 124 161 214 270 309 360
#
# _framework density 23.880939000000001
#
# number of rings (size 3 to 8) (size 9 to 14) (size 15 to 20)
#    0.000    1.500    0.000    6.750    3.500    3.000 
#    9.000    0.000    0.000   25.500    0.000    0.000 
#    0.000    0.000    0.000    0.000    0.000    0.000 
#
# Total GULP energy -396500.857155 kJ/mol
# GULP energy per Si atom -12390.651786 kJ/mol
# Density = 2.382658 g / cm^3
# Si number density = 23.880939 Si / 1000 Ang^3
#
#
#
# Elastic Constant Matrix: (Units=GPa)
#
#
# Indices 1 2 3 4 5 6 
#
# 1 254.5646 3.7866 67.4105 0.0000 0.0000 0.0000
# 2 3.7866 30.1134 19.4908 0.0000 0.0000 0.0000
# 3 67.4105 19.4908 180.6077 0.0000 0.0000 0.0000
# 4 0.0000 0.0000 0.0000 6.2002 0.0000 0.0000
# 5 0.0000 0.0000 0.0000 0.0000 45.2353 0.0000
# 6 0.0000 0.0000 0.0000 0.0000 0.0000 6.1017
#
#
#
# Elastic Compliance Matrix: (Units=1/GPa)
#
#
# Indices 1 2 3 4 5 6 
#
# 1 0.004367 0.000544 -0.001689 0.000000 0.000000 0.000000
# 2 0.000544 0.035769 -0.004063 0.000000 0.000000 0.000000
# 3 -0.001689 -0.004063 0.006606 0.000000 0.000000 0.000000
# 4 0.000000 0.000000 0.000000 0.161286 0.000000 0.000000
# 5 0.000000 0.000000 0.000000 0.000000 0.022107 0.000000
# 6 0.000000 0.000000 0.000000 0.000000 0.000000 0.163888
#
#
# Mechanical properties :
#
#
# Convention : Reuss Voigt Hill
#
# Bulk Modulus (GPa) = 27.52828 71.85124 49.68976
# Shear Modulus (GPa) = 12.00344 36.48063 24.24204
#
# Velocity S-wave (km/s) = 2.24439 3.91270 3.18955
# Velocity P-wave (km/s) = 4.27419 7.11090 5.86658
#
# Compressibility (1/GPa) = 0.03632628
#
# Stress axis : x y z
#
# Youngs Moduli (GPa) = 228.96970 27.95694 151.38495
#
# Poissons Ratio (x) = -0.01521 0.25566
# Poissons Ratio (y) = -0.12453 0.61510
# Poissons Ratio (z) = 0.38668 0.11359
#
# Static dielectric constant tensor:
#      x y z
#    x -109.682990 0.000000 0.000000 
#    y 0.000000 3.667990 0.000000 
#    z 0.000000 0.000000 4.230170 
# 
# 
# High freq. dielectric constant tensor:
#      x y z
#    x 1.995290 0.000000 0.000000 
#    y 0.000000 1.913010 0.000000 
#    z 0.000000 0.000000 1.946680 
# 
# From -- ./inp_files/33184.got.cif
#   From: 2010.03.12/outbox.cif.g09.slc.cpg/sg73_17_cif.got.tgz:33184.got - 2010.04.16 15:25:48.
