data_PCOD8295436
_publ_section_title
;
Structure prediction by ZEFSAII (Michael W. Deem and Ramdas Pophale) SiO2 
 PCOD8295436
Probable space group: I B A M
;
_chemical_formula_sum "Si O2"
_cell_formula_units_Z 96
_cell_length_a 14.124737
_cell_length_b 14.524290
_cell_length_c 20.534952
_cell_angle_alpha 90.000000
_cell_angle_beta 90.000000
_cell_angle_gamma 90.000000
_cell_volume 4212.781880
_symmetry_space_group_name_H-M "I B A M"
_symmetry_group_IT_number 72
_symmetry_cell_setting 'orthorhombic'
loop_
_space_group_symop_operation_xyz
x,y,z
-x,-y,z
x,-y,1/2-z
-x,y,1/2-z
-x,-y,-z
x,y,-z
-x,y,1/2+z
x,-y,1/2+z
1/2+x,1/2+y,1/2+z
1/2-x,1/2-y,1/2+z
1/2+x,1/2-y,-z
1/2-x,1/2+y,-z
1/2-x,1/2-y,1/2-z
1/2+x,1/2+y,1/2-z
1/2-x,1/2+y,z
1/2+x,1/2-y,z
loop_
_atom_site_type_symbol
_atom_site_label
_atom_site_fract_x
_atom_site_fract_y
_atom_site_fract_z
Si Si1 0.395376 0.994744 0.571471
Si Si2 0.557887 0.405552 0.806838
Si Si3 0.835697 0.303853 0.109103
Si Si4 0.773674 0.601309 0.736509
Si Si5 0.182581 0.336385 0.874108
Si Si6 0.525445 0.719620 0.422675
O O1 0.408996 0.037179 0.500000
O O2 0.353446 0.891881 0.563476
O O3 0.500000 0.000000 0.605975
O O4 0.312453 0.056078 0.605654
O O5 0.500000 0.500000 0.813861
O O6 0.500000 0.348716 0.750000
O O7 0.665011 0.415034 0.782677
O O8 0.564268 0.364163 0.879146
O O9 0.832461 0.346052 0.181415
O O10 0.744593 0.242114 0.089591
O O11 0.916978 0.229554 0.096978
O O12 0.818683 0.500000 0.750000
O O13 0.787649 0.668367 0.798640
O O14 0.075727 0.311388 0.895017
O O15 0.540336 0.702435 0.500000
#
# Coordination Sequence:
#
# PCOD8295436 Si02
#       6
#    16  16  16  16  16  16
#     4  11  24  46  70  98 144 199 245 298 372 450
#     4  11  24  46  78 104 149 197 242 311 385 450
#     4  12  26  45  74 107 148 189 249 315 371 453
#     4  12  24  46  71 112 143 187 252 305 380 456
#     4  12  26  46  74 105 148 194 250 314 376 456
#     4  12  28  47  72 110 150 199 257 307 379 459
#
# _framework density 22.787793000000001
#
# number of rings (size 3 to 8) (size 9 to 14) (size 15 to 20)
#    0.000    0.333    6.667    2.500    2.333    3.000 
#    0.000    1.667    0.000    0.000    0.000    0.000 
#    0.000    0.000    0.000    0.000    0.000    0.000 
#
# Total GULP energy -594666.306189 kJ/mol
# GULP energy per Si atom -12388.881379 kJ/mol
# Density = 2.273593 g / cm^3
# Si number density = 22.787793 Si / 1000 Ang^3
#
#
#
# Elastic Constant Matrix: (Units=GPa)
#
#
# Indices 1 2 3 4 5 6 
#
# 1 77.4999 33.8197 50.8793 0.0000 0.0000 0.0000
# 2 33.8197 93.7128 35.6562 0.0000 0.0000 0.0000
# 3 50.8793 35.6562 152.1596 0.0000 0.0000 0.0000
# 4 0.0000 0.0000 0.0000 31.0286 0.0000 0.0000
# 5 0.0000 0.0000 0.0000 0.0000 17.5214 0.0000
# 6 0.0000 0.0000 0.0000 0.0000 0.0000 30.5768
#
#
#
# Elastic Compliance Matrix: (Units=1/GPa)
#
#
# Indices 1 2 3 4 5 6 
#
# 1 0.018225 -0.004675 -0.004999 0.000000 0.000000 0.000000
# 2 -0.004675 0.012915 -0.001463 0.000000 0.000000 0.000000
# 3 -0.004999 -0.001463 0.008586 0.000000 0.000000 0.000000
# 4 0.000000 0.000000 0.000000 0.032228 0.000000 0.000000
# 5 0.000000 0.000000 0.000000 0.000000 0.057073 0.000000
# 6 0.000000 0.000000 0.000000 0.000000 0.000000 0.032705
#
#
# Mechanical properties :
#
#
# Convention : Reuss Voigt Hill
#
# Bulk Modulus (GPa) = 57.29873 62.67585 59.98729
# Shear Modulus (GPa) = 26.34026 29.35983 27.85004
#
# Velocity S-wave (km/s) = 3.40353 3.59333 3.49972
# Velocity P-wave (km/s) = 6.37530 6.69177 6.53545
#
# Compressibility (1/GPa) = 0.01745239
#
# Stress axis : x y z
#
# Youngs Moduli (GPa) = 54.86953 77.43031 116.46467
#
# Poissons Ratio (x) = 0.36201 0.58215
# Poissons Ratio (y) = 0.25653 0.17039
# Poissons Ratio (z) = 0.27427 0.11328
#
# Static dielectric constant tensor:
#      x y z
#    x 4.007140 0.000000 0.000000 
#    y 0.000000 4.166590 0.000000 
#    z 0.000000 0.000000 4.232300 
# 
# 
# High freq. dielectric constant tensor:
#      x y z
#    x 1.895960 0.000000 0.000000 
#    y 0.000000 1.906590 0.000000 
#    z 0.000000 0.000000 1.897030 
# 
# From -- ./inp_files/38036.got.cif
#   From: 2010.03.12/outbox.cif.g09.slc.cpg/sg72_20_cif.got.tgz:38036.got - 2010.04.16 14:54:00.
