data_PCOD8295050
_publ_section_title
;
Structure prediction by ZEFSAII (Michael W. Deem and Ramdas Pophale) SiO2 
 PCOD8295050
Probable space group: I B A M
;
_chemical_formula_sum "Si O2"
_cell_formula_units_Z 72
_cell_length_a 9.499628
_cell_length_b 24.306147
_cell_length_c 13.796268
_cell_angle_alpha 90.000000
_cell_angle_beta 90.000000
_cell_angle_gamma 90.000000
_cell_volume 3185.549377
_symmetry_space_group_name_H-M "I B A M"
_symmetry_group_IT_number 72
_symmetry_cell_setting 'orthorhombic'
loop_
_space_group_symop_operation_xyz
x,y,z
-x,-y,z
x,-y,1/2-z
-x,y,1/2-z
-x,-y,-z
x,y,-z
-x,y,1/2+z
x,-y,1/2+z
1/2+x,1/2+y,1/2+z
1/2-x,1/2-y,1/2+z
1/2+x,1/2-y,-z
1/2-x,1/2+y,-z
1/2-x,1/2-y,1/2-z
1/2+x,1/2+y,1/2-z
1/2-x,1/2+y,z
1/2+x,1/2-y,z
loop_
_atom_site_type_symbol
_atom_site_label
_atom_site_fract_x
_atom_site_fract_y
_atom_site_fract_z
Si Si1 0.195163 0.364934 0.673741
Si Si2 0.482879 0.320270 0.608966
Si Si3 0.128858 0.075363 0.312086
Si Si4 0.737231 0.974120 0.500000
Si Si5 0.000000 0.722786 0.750000
Si Si6 0.438179 0.082058 0.000000
O O1 0.328277 0.345838 0.611684
O O2 0.235471 0.417267 0.742117
O O3 0.137583 0.315180 0.739193
O O4 0.075332 0.382734 0.597841
O O5 0.534334 0.313076 0.500000
O O6 0.590222 0.361731 0.661098
O O7 0.484349 0.260319 0.655676
O O8 0.166876 0.038200 0.405219
O O9 0.000000 0.048450 0.250000
O O10 0.596741 0.938618 0.500000
O O11 0.688235 0.037194 0.500000
#
# Coordination Sequence:
#
# PCOD8295050 Si02
#       6
#    16  16  16   8   8   8
#     4  11  23  44  61  97 139 176 230 284 346 418
#     4  11  22  39  64  97 134 175 226 283 339 419
#     4  10  22  43  72 100 140 176 228 297 347 422
#     4  11  24  47  72 104 131 184 238 284 367 409
#     4  12  24  40  64  99 135 190 220 282 358 410
#     4  11  26  45  72  96 137 183 232 298 339 427
#
# _framework density 22.602067000000002
#
# number of rings (size 3 to 8) (size 9 to 14) (size 15 to 20)
#    0.000    1.111    5.556    2.000    1.556    0.889 
#    2.000   14.444    0.000    0.000    0.000    0.000 
#    0.000    0.000    0.000    0.000    0.000    0.000 
#
# Total GULP energy -446467.104147 kJ/mol
# GULP energy per Si atom -12401.864004 kJ/mol
# Density = 2.255062 g / cm^3
# Si number density = 22.602067 Si / 1000 Ang^3
#
#
#
# Elastic Constant Matrix: (Units=GPa)
#
#
# Indices 1 2 3 4 5 6 
#
# 1 76.2272 19.2296 34.1628 0.0002 0.0000 -0.0001
# 2 19.2296 77.0655 26.1982 0.0006 0.0000 -0.0003
# 3 34.1628 26.1982 142.3890 0.0025 0.0000 -0.0015
# 4 0.0002 0.0006 0.0025 28.9482 -0.0002 -0.0012
# 5 0.0000 0.0000 0.0000 -0.0002 35.9446 0.0001
# 6 -0.0001 -0.0003 -0.0015 -0.0012 0.0001 6.1277
#
#
#
# Elastic Compliance Matrix: (Units=1/GPa)
#
#
# Indices 1 2 3 4 5 6 
#
# 1 0.015218 -0.002727 -0.003150 0.000000 0.000000 -0.000001
# 2 -0.002727 0.014330 -0.001982 0.000000 0.000000 0.000000
# 3 -0.003150 -0.001982 0.008143 -0.000001 0.000000 0.000002
# 4 0.000000 0.000000 -0.000001 0.034544 0.000000 0.000007
# 5 0.000000 0.000000 0.000000 0.000000 0.027821 -0.000001
# 6 -0.000001 0.000000 0.000002 0.000007 -0.000001 0.163194
#
#
# Mechanical properties :
#
#
# Convention : Reuss Voigt Hill
#
# Bulk Modulus (GPa) = 45.50715 50.54035 48.02375
# Shear Modulus (GPa) = 17.46462 28.61016 23.03739
#
# Velocity S-wave (km/s) = 2.78276 3.56170 3.19605
# Velocity P-wave (km/s) = 5.52293 6.27086 5.90875
#
# Compressibility (1/GPa) = 0.02197457
#
# Stress axis : x y z
#
# Youngs Moduli (GPa) = 65.71154 69.78244 122.79851
#
# Poissons Ratio (x) = 0.19027 0.38676
# Poissons Ratio (y) = 0.17917 0.24344
# Poissons Ratio (z) = 0.20696 0.13834
#
# Static dielectric constant tensor:
#      x y z
#    x 3.966790 0.000000 0.000000 
#    y 0.000000 3.910930 0.000000 
#    z 0.000000 0.000000 4.143620 
# 
# 
# High freq. dielectric constant tensor:
#      x y z
#    x 1.887270 0.000000 0.000000 
#    y 0.000000 1.885900 0.000000 
#    z 0.000000 0.000000 1.905300 
# 
# From -- ./inp_files/18943.got.cif
#   From: 2010.03.12/outbox.cif.g09.slc.cpg/sg72_10_cif.got.tgz:18943.got - 2010.04.16 14:54:00.
