data_PCOD8295671
_publ_section_title
;
Structure prediction by ZEFSAII (Michael W. Deem and Ramdas Pophale) SiO2 
 PCOD8295671
Probable space group: I B C A 
;
_chemical_formula_sum "Si O2"
_cell_formula_units_Z 88
_cell_length_a 18.004236
_cell_length_b 19.472445
_cell_length_c 12.071311
_cell_angle_alpha 90.000000
_cell_angle_beta 90.000000
_cell_angle_gamma 90.000000
_cell_volume 4232.038617
_symmetry_space_group_name_H-M "I B C A "
_symmetry_group_IT_number 73
_symmetry_cell_setting 'orthorhombic'
loop_
_space_group_symop_operation_xyz
x,y,z
-x,1/2-y,z
x,-y,1/2-z
1/2-x,y,-z
-x,-y,-z
x,1/2+y,-z
-x,y,1/2+z
1/2+x,-y,z
1/2+x,1/2+y,1/2+z
1/2-x,-y,1/2+z
1/2+x,1/2-y,-z
-x,1/2+y,1/2-z
1/2-x,1/2-y,1/2-z
1/2+x,y,1/2-z
1/2-x,1/2+y,z
x,1/2-y,1/2+z
loop_
_atom_site_type_symbol
_atom_site_label
_atom_site_fract_x
_atom_site_fract_y
_atom_site_fract_z
Si Si1 0.979106 0.174641 0.945153
Si Si2 0.264274 0.670528 0.876368
Si Si3 0.104846 0.917897 0.641488
Si Si4 0.750000 0.618316 0.000000
Si Si5 0.604072 0.568172 0.099585
Si Si6 0.163423 0.303584 0.812866
O O1 0.922693 0.181559 0.840446
O O2 0.000000 0.250000 0.994096
O O3 0.055445 0.143007 0.905319
O O4 0.945260 0.124973 0.038158
O O5 0.308246 0.598334 0.883213
O O6 0.186812 0.664144 0.806922
O O7 0.319290 0.722372 0.810428
O O8 0.250000 0.697680 0.000000
O O9 0.094293 0.919310 0.771809
O O10 0.080686 0.988644 0.580306
O O11 0.688862 0.571457 0.059342
O O12 0.785182 0.665714 0.092638
#
# Coordination Sequence:
#
# PCOD8295671 Si02
#       6
#    16  16  16   8  16  16
#     4  11  23  41  65  97 128 174 218 273 334 395
#     4  11  22  37  64  95 129 163 218 274 318 380
#     4  11  23  43  62  96 131 174 214 269 329 400
#     4  10  18  40  64  88 118 174 208 268 318 380
#     4  10  24  41  67  87 134 172 218 264 333 395
#     4  10  21  38  61  95 125 165 217 267 325 379
#
# _framework density 20.793762000000001
#
# number of rings (size 3 to 8) (size 9 to 14) (size 15 to 20)
#    0.000    1.455    4.545    0.545    1.273    2.182 
#    0.000    0.000    0.000    0.000    0.000    0.000 
#    0.000    0.000    0.000    0.000    0.000    0.000 
#
# Total GULP energy -545419.858571 kJ/mol
# GULP energy per Si atom -12395.905877 kJ/mol
# Density = 2.074643 g / cm^3
# Si number density = 20.793762 Si / 1000 Ang^3
#
#
#
# Elastic Constant Matrix: (Units=GPa)
#
#
# Indices 1 2 3 4 5 6 
#
# 1 80.0693 47.6805 17.9150 0.0000 0.0000 0.0000
# 2 47.6805 142.5920 45.0391 0.0000 0.0000 0.0000
# 3 17.9150 45.0391 44.5218 0.0000 0.0000 0.0000
# 4 0.0000 0.0000 0.0000 31.8350 0.0000 0.0000
# 5 0.0000 0.0000 0.0000 0.0000 27.4041 0.0000
# 6 0.0000 0.0000 0.0000 0.0000 0.0000 35.5593
#
#
#
# Elastic Compliance Matrix: (Units=1/GPa)
#
#
# Indices 1 2 3 4 5 6 
#
# 1 0.015660 -0.004770 -0.001476 0.000000 0.000000 0.000000
# 2 -0.004770 0.011759 -0.009976 0.000000 0.000000 0.000000
# 3 -0.001476 -0.009976 0.033147 0.000000 0.000000 0.000000
# 4 0.000000 0.000000 0.000000 0.031412 0.000000 0.000000
# 5 0.000000 0.000000 0.000000 0.000000 0.036491 0.000000
# 6 0.000000 0.000000 0.000000 0.000000 0.000000 0.028122
#
#
# Mechanical properties :
#
#
# Convention : Reuss Voigt Hill
#
# Bulk Modulus (GPa) = 35.55990 54.27250 44.91620
# Shear Modulus (GPa) = 25.20037 29.39624 27.29831
#
# Velocity S-wave (km/s) = 3.48504 3.76401 3.62721
# Velocity P-wave (km/s) = 5.77342 6.71173 6.26018
#
# Compressibility (1/GPa) = 0.02812157
#
# Stress axis : x y z
#
# Youngs Moduli (GPa) = 63.85669 85.03904 30.16869
#
# Poissons Ratio (x) = 0.40567 0.04452
# Poissons Ratio (y) = 0.30462 0.30097
# Poissons Ratio (z) = 0.09423 0.84838
#
# Static dielectric constant tensor:
#      x y z
#    x 3.812020 0.000000 0.000000 
#    y 0.000000 3.910590 0.000000 
#    z 0.000000 0.000000 3.697930 
# 
# 
# High freq. dielectric constant tensor:
#      x y z
#    x 1.809400 0.000000 0.000000 
#    y 0.000000 1.818770 0.000000 
#    z 0.000000 0.000000 1.808180 
# 
# From -- ./inp_files/11857.got.cif
#   From: 2010.03.12/outbox.cif.g09.slc.cpg/sg73_6_cif.got.tgz:11857.got - 2010.04.16 15:25:48.
