data_PCOD8295868
_publ_section_title
;
Structure prediction by ZEFSAII (Michael W. Deem and Ramdas Pophale) SiO2 
 PCOD8295868
Probable space group: I B C A 
;
_chemical_formula_sum "Si O2"
_cell_formula_units_Z 64
_cell_length_a 20.349812
_cell_length_b 24.680904
_cell_length_c 5.361765
_cell_angle_alpha 90.000000
_cell_angle_beta 90.000000
_cell_angle_gamma 90.000000
_cell_volume 2692.955889
_symmetry_space_group_name_H-M "I B C A "
_symmetry_group_IT_number 73
_symmetry_cell_setting 'orthorhombic'
loop_
_space_group_symop_operation_xyz
x,y,z
-x,1/2-y,z
x,-y,1/2-z
1/2-x,y,-z
-x,-y,-z
x,1/2+y,-z
-x,y,1/2+z
1/2+x,-y,z
1/2+x,1/2+y,1/2+z
1/2-x,-y,1/2+z
1/2+x,1/2-y,-z
-x,1/2+y,1/2-z
1/2-x,1/2-y,1/2-z
1/2+x,y,1/2-z
1/2-x,1/2+y,z
x,1/2-y,1/2+z
loop_
_atom_site_type_symbol
_atom_site_label
_atom_site_fract_x
_atom_site_fract_y
_atom_site_fract_z
Si Si1 0.960008 0.562480 0.236578
Si Si2 0.750000 0.808045 0.500000
Si Si3 0.838163 0.375634 0.134530
Si Si4 0.626354 0.265990 0.004064
Si Si5 0.750000 0.034423 0.500000
O O1 0.937104 0.500000 0.250000
O O2 0.897726 0.601923 0.197534
O O3 0.994483 0.575542 0.500177
O O4 0.779061 0.848412 0.708344
O O5 0.691877 0.767602 0.594362
O O6 0.862349 0.329488 0.941766
O O7 0.813451 0.427104 0.977360
O O8 0.587610 0.261340 0.736141
O O9 0.753058 0.000000 0.750000
#
# Coordination Sequence:
#
# PCOD8295868 Si02
#       5
#    16   8  16  16   8
#     4  10  24  44  64  86 118 168 223 264 300 357
#     4  10  20  38  64 100 128 160 198 250 320 390
#     4  11  22  40  66  92 128 167 206 256 321 383
#     4  10  20  35  58  90 123 156 196 240 302 380
#     4  12  26  38  56  94 132 158 196 260 330 384
#
# _framework density 23.765706000000002
#
# number of rings (size 3 to 8) (size 9 to 14) (size 15 to 20)
#    0.000    1.500    0.000    6.750    0.000   13.000 
#    0.000    0.000    0.000   18.000    0.000    0.000 
#    0.000    0.000    0.000    0.000    0.000    0.000 
#
# Total GULP energy -396475.071331 kJ/mol
# GULP energy per Si atom -12389.845979 kJ/mol
# Density = 2.371161 g / cm^3
# Si number density = 23.765706 Si / 1000 Ang^3
#
#
#
# Elastic Constant Matrix: (Units=GPa)
#
#
# Indices 1 2 3 4 5 6 
#
# 1 46.2320 35.4204 15.4343 0.0000 0.0000 0.0000
# 2 35.4204 160.5843 61.4113 0.0000 0.0000 0.0000
# 3 15.4343 61.4113 154.5778 0.0000 0.0000 0.0000
# 4 0.0000 0.0000 0.0000 18.4012 0.0000 0.0000
# 5 0.0000 0.0000 0.0000 0.0000 14.0126 0.0000
# 6 0.0000 0.0000 0.0000 0.0000 0.0000 33.2839
#
#
#
# Elastic Compliance Matrix: (Units=1/GPa)
#
#
# Indices 1 2 3 4 5 6 
#
# 1 0.026047 -0.005602 -0.000375 0.000000 0.000000 0.000000
# 2 -0.005602 0.008548 -0.002837 0.000000 0.000000 0.000000
# 3 -0.000375 -0.002837 0.007634 0.000000 0.000000 0.000000
# 4 0.000000 0.000000 0.000000 0.054344 0.000000 0.000000
# 5 0.000000 0.000000 0.000000 0.000000 0.071364 0.000000
# 6 0.000000 0.000000 0.000000 0.000000 0.000000 0.030045
#
#
# Mechanical properties :
#
#
# Convention : Reuss Voigt Hill
#
# Bulk Modulus (GPa) = 40.64834 65.10291 52.87562
# Shear Modulus (GPa) = 22.34050 29.74809 26.04429
#
# Velocity S-wave (km/s) = 3.06932 3.54181 3.31399
# Velocity P-wave (km/s) = 5.44994 6.64673 6.07786
#
# Compressibility (1/GPa) = 0.02460125
#
# Stress axis : x y z
#
# Youngs Moduli (GPa) = 38.39202 116.99202 130.99972
#
# Poissons Ratio (x) = 0.65536 0.04916
# Poissons Ratio (y) = 0.21506 0.37158
# Poissons Ratio (z) = 0.01441 0.33185
#
# Static dielectric constant tensor:
#      x y z
#    x 3.816160 0.000000 0.000000 
#    y 0.000000 4.649330 0.000000 
#    z 0.000000 0.000000 4.267590 
# 
# 
# High freq. dielectric constant tensor:
#      x y z
#    x 1.890660 0.000000 0.000000 
#    y 0.000000 1.966210 0.000000 
#    z 0.000000 0.000000 1.952140 
# 
# From -- ./inp_files/1559.got.cif
#   From: 2010.03.12/outbox.cif.g09.slc.cpg/sg73_1_cif.got.tgz:1559.got - 2010.04.16 15:25:48.
