data_PCOD8295638
_publ_section_title
;
Structure prediction by ZEFSAII (Michael W. Deem and Ramdas Pophale) SiO2 
 PCOD8295638
Probable space group: I B C A 
;
_chemical_formula_sum "Si O2"
_cell_formula_units_Z 104
_cell_length_a 23.008013
_cell_length_b 13.006359
_cell_length_c 17.073910
_cell_angle_alpha 90.000000
_cell_angle_beta 90.000000
_cell_angle_gamma 90.000000
_cell_volume 5109.375711
_symmetry_space_group_name_H-M "I B C A "
_symmetry_group_IT_number 73
_symmetry_cell_setting 'orthorhombic'
loop_
_space_group_symop_operation_xyz
x,y,z
-x,1/2-y,z
x,-y,1/2-z
1/2-x,y,-z
-x,-y,-z
x,1/2+y,-z
-x,y,1/2+z
1/2+x,-y,z
1/2+x,1/2+y,1/2+z
1/2-x,-y,1/2+z
1/2+x,1/2-y,-z
-x,1/2+y,1/2-z
1/2-x,1/2-y,1/2-z
1/2+x,y,1/2-z
1/2-x,1/2+y,z
x,1/2-y,1/2+z
loop_
_atom_site_type_symbol
_atom_site_label
_atom_site_fract_x
_atom_site_fract_y
_atom_site_fract_z
Si Si1 0.890083 0.304181 0.901050
Si Si2 0.411349 0.116471 0.776387
Si Si3 0.173186 0.888823 0.060224
Si Si4 0.000000 0.750000 0.688545
Si Si5 0.704746 0.182264 0.899991
Si Si6 0.359421 0.883088 0.564509
Si Si7 0.317701 0.225377 0.238683
O O1 0.882488 0.183674 0.925010
O O2 0.954162 0.313096 0.864562
O O3 0.839879 0.338170 0.837423
O O4 0.886174 0.377144 0.977219
O O5 0.469655 0.167713 0.744585
O O6 0.409680 0.133663 0.870498
O O7 0.354557 0.169033 0.737651
O O8 0.410185 0.000000 0.750000
O O9 0.225529 0.832987 0.108364
O O10 0.165829 0.005360 0.086452
O O11 0.184034 0.895289 0.966921
O O12 0.692425 0.300114 0.927198
O O13 0.670145 0.160026 0.818848
O O14 0.250000 0.250000 0.250000
#
# Coordination Sequence:
#
# PCOD8295638 Si02
#       7
#    16  16  16   8  16  16  16
#     4  10  21  38  62  89 121 161 207 259 314 365
#     4  10  22  41  65  92 118 166 213 254 318 380
#     4  10  19  36  58  84 123 158 206 245 304 373
#     4  10  22  42  64  86 124 162 210 276 310 360
#     4   9  20  33  55  85 121 160 194 246 298 371
#     4  10  21  38  61  90 120 161 208 251 307 379
#     4  10  18  36  59  86 126 161 200 250 304 375
#
# _framework density 20.354738000000001
#
# number of rings (size 3 to 8) (size 9 to 14) (size 15 to 20)
#    0.000    2.154    1.538    1.846    0.000    5.538 
#    0.000   10.000    0.000    0.923    0.000    0.000 
#    0.000    0.000    0.000    0.000    0.000    0.000 
#
# Total GULP energy -644402.520853 kJ/mol
# GULP energy per Si atom -12392.356170 kJ/mol
# Density = 2.030841 g / cm^3
# Si number density = 20.354738 Si / 1000 Ang^3
#
#
#
# Elastic Constant Matrix: (Units=GPa)
#
#
# Indices 1 2 3 4 5 6 
#
# 1 128.1472 34.9204 55.5363 0.0000 0.0000 0.0000
# 2 34.9204 83.6460 30.2684 0.0000 0.0000 0.0000
# 3 55.5363 30.2684 143.0496 0.0000 0.0000 0.0000
# 4 0.0000 0.0000 0.0000 22.5807 0.0000 0.0000
# 5 0.0000 0.0000 0.0000 0.0000 34.7419 0.0000
# 6 0.0000 0.0000 0.0000 0.0000 0.0000 18.1191
#
#
#
# Elastic Compliance Matrix: (Units=1/GPa)
#
#
# Indices 1 2 3 4 5 6 
#
# 1 0.010036 -0.003011 -0.003259 0.000000 0.000000 0.000000
# 2 -0.003011 0.013849 -0.001762 0.000000 0.000000 0.000000
# 3 -0.003259 -0.001762 0.008629 0.000000 0.000000 0.000000
# 4 0.000000 0.000000 0.000000 0.044286 0.000000 0.000000
# 5 0.000000 0.000000 0.000000 0.000000 0.028784 0.000000
# 6 0.000000 0.000000 0.000000 0.000000 0.000000 0.055190
#
#
# Mechanical properties :
#
#
# Convention : Reuss Voigt Hill
#
# Bulk Modulus (GPa) = 60.78524 66.25478 63.52001
# Shear Modulus (GPa) = 27.42410 30.69619 29.06015
#
# Velocity S-wave (km/s) = 3.67455 3.88759 3.78257
# Velocity P-wave (km/s) = 6.92321 7.26442 7.09587
#
# Compressibility (1/GPa) = 0.01645136
#
# Stress axis : x y z
#
# Youngs Moduli (GPa) = 99.63646 72.20497 115.89140
#
# Poissons Ratio (x) = 0.21738 0.37774
# Poissons Ratio (y) = 0.29996 0.20416
# Poissons Ratio (z) = 0.32476 0.12720
#
# Static dielectric constant tensor:
#      x y z
#    x 3.493050 0.000000 0.000000 
#    y 0.000000 3.319550 0.000000 
#    z 0.000000 0.000000 4.479020 
# 
# 
# High freq. dielectric constant tensor:
#      x y z
#    x 1.769550 0.000000 0.000000 
#    y 0.000000 1.763700 0.000000 
#    z 0.000000 0.000000 1.831850 
# 
# From -- ./inp_files/23913.got.cif
#   From: 2010.03.12/outbox.cif.g09.slc.cpg/sg73_12_cif.got.tgz:23913.got - 2010.04.16 15:25:48.
