data_PCOD8295674
_publ_section_title
;
Structure prediction by ZEFSAII (Michael W. Deem and Ramdas Pophale) SiO2 
 PCOD8295674
Probable space group: I B C A 
;
_chemical_formula_sum "Si O2"
_cell_formula_units_Z 96
_cell_length_a 21.801211
_cell_length_b 18.617169
_cell_length_c 10.603277
_cell_angle_alpha 90.000000
_cell_angle_beta 90.000000
_cell_angle_gamma 90.000000
_cell_volume 4303.624452
_symmetry_space_group_name_H-M "I B C A "
_symmetry_group_IT_number 73
_symmetry_cell_setting 'orthorhombic'
loop_
_space_group_symop_operation_xyz
x,y,z
-x,1/2-y,z
x,-y,1/2-z
1/2-x,y,-z
-x,-y,-z
x,1/2+y,-z
-x,y,1/2+z
1/2+x,-y,z
1/2+x,1/2+y,1/2+z
1/2-x,-y,1/2+z
1/2+x,1/2-y,-z
-x,1/2+y,1/2-z
1/2-x,1/2-y,1/2-z
1/2+x,y,1/2-z
1/2-x,1/2+y,z
x,1/2-y,1/2+z
loop_
_atom_site_type_symbol
_atom_site_label
_atom_site_fract_x
_atom_site_fract_y
_atom_site_fract_z
Si Si1 0.610063 0.775082 0.171234
Si Si2 0.419704 0.522456 0.526037
Si Si3 0.330647 0.637309 0.587291
Si Si4 0.134723 0.000000 0.250000
Si Si5 0.706957 0.864597 0.301490
Si Si6 0.033580 0.881589 0.497731
Si Si7 0.000000 0.750000 0.654540
O O1 0.625942 0.707874 0.082561
O O2 0.673694 0.796776 0.237901
O O3 0.577553 0.841984 0.102367
O O4 0.562229 0.743460 0.269642
O O5 0.367310 0.562792 0.604517
O O6 0.406875 0.517198 0.373422
O O7 0.481614 0.566539 0.561109
O O8 0.424639 0.439399 0.575420
O O9 0.303452 0.632809 0.449273
O O10 0.281311 0.641451 0.702670
O O11 0.180726 0.933388 0.272466
O O12 0.996580 0.822623 0.575152
#
# Coordination Sequence:
#
# PCOD8295674 Si02
#       7
#    16  16  16   8  16  16   8
#     4  12  22  41  64  94 128 172 211 265 325 395
#     4  10  21  40  63  92 128 167 213 271 319 391
#     4  10  22  41  64  93 128 164 218 266 319 379
#     4  10  18  40  66  90 124 170 216 256 332 388
#     4  10  21  39  68  90 125 170 214 266 318 384
#     4  11  23  39  62  93 126 168 214 261 333 384
#     4  12  24  38  60  94 132 162 208 270 328 388
#
# _framework density 22.30678
#
# number of rings (size 3 to 8) (size 9 to 14) (size 15 to 20)
#    0.000    1.333    1.667    6.000    0.000    0.000 
#    3.000    0.000    0.000    0.000    0.000    0.000 
#    0.000    0.000    0.000    0.000    0.000    0.000 
#
# Total GULP energy -594630.101568 kJ/mol
# GULP energy per Si atom -12388.127116 kJ/mol
# Density = 2.225601 g / cm^3
# Si number density = 22.306780 Si / 1000 Ang^3
#
#
#
# Elastic Constant Matrix: (Units=GPa)
#
#
# Indices 1 2 3 4 5 6 
#
# 1 119.8988 50.4599 38.5857 0.0000 0.0000 0.0000
# 2 50.4599 147.3959 19.8416 0.0000 0.0000 0.0000
# 3 38.5857 19.8416 29.3813 0.0000 0.0000 0.0000
# 4 0.0000 0.0000 0.0000 -29.5883 0.0000 0.0000
# 5 0.0000 0.0000 0.0000 0.0000 38.0097 0.0000
# 6 0.0000 0.0000 0.0000 0.0000 0.0000 40.2662
#
#
#
# Elastic Compliance Matrix: (Units=1/GPa)
#
#
# Indices 1 2 3 4 5 6 
#
# 1 0.015437 -0.002811 -0.018374 0.000000 0.000000 0.000000
# 2 -0.002811 0.007975 -0.001694 0.000000 0.000000 0.000000
# 3 -0.018374 -0.001694 0.059309 0.000000 0.000000 0.000000
# 4 0.000000 0.000000 0.000000 -0.033797 0.000000 0.000000
# 5 0.000000 0.000000 0.000000 0.000000 0.026309 0.000000
# 6 0.000000 0.000000 0.000000 0.000000 0.000000 0.024835
#
#
# Mechanical properties :
#
#
# Convention : Reuss Voigt Hill
#
# Bulk Modulus (GPa) = 27.05415 57.16115 42.10765
# Shear Modulus (GPa) = 31.61629 22.25677 26.93653
#
# Velocity S-wave (km/s) = 3.76884 3.16216 3.47875
# Velocity P-wave (km/s) = 5.57615 6.24604 5.92057
#
# Compressibility (1/GPa) = 0.03696291
#
# Stress axis : x y z
#
# Youngs Moduli (GPa) = 64.78107 125.39458 16.86074
#
# Poissons Ratio (x) = 0.35251 0.30980
# Poissons Ratio (y) = 0.18211 0.02856
# Poissons Ratio (z) = 1.19029 0.21237
#
# Static dielectric constant tensor:
#      x y z
#    x 4.465150 0.000000 0.000000 
#    y 0.000000 4.462960 0.000000 
#    z 0.000000 0.000000 3.602120 
# 
# 
# High freq. dielectric constant tensor:
#      x y z
#    x 1.890390 0.000000 0.000000 
#    y 0.000000 1.903040 0.000000 
#    z 0.000000 0.000000 1.836160 
# 
# From -- ./inp_files/13669.got.cif
#   From: 2010.03.12/outbox.cif.g09.slc.cpg/sg73_7_cif.got.tgz:13669.got - 2010.04.16 15:25:48.
