data_PCOD8295408
_publ_section_title
;
Structure prediction by ZEFSAII (Michael W. Deem and Ramdas Pophale) SiO2 
 PCOD8295408
Probable space group: I B A M
;
_chemical_formula_sum "Si O2"
_cell_formula_units_Z 88
_cell_length_a 23.790496
_cell_length_b 11.794620
_cell_length_c 14.686347
_cell_angle_alpha 90.000000
_cell_angle_beta 90.000000
_cell_angle_gamma 90.000000
_cell_volume 4120.986911
_symmetry_space_group_name_H-M "I B A M"
_symmetry_group_IT_number 72
_symmetry_cell_setting 'orthorhombic'
loop_
_space_group_symop_operation_xyz
x,y,z
-x,-y,z
x,-y,1/2-z
-x,y,1/2-z
-x,-y,-z
x,y,-z
-x,y,1/2+z
x,-y,1/2+z
1/2+x,1/2+y,1/2+z
1/2-x,1/2-y,1/2+z
1/2+x,1/2-y,-z
1/2-x,1/2+y,-z
1/2-x,1/2-y,1/2-z
1/2+x,1/2+y,1/2-z
1/2-x,1/2+y,z
1/2+x,1/2-y,z
loop_
_atom_site_type_symbol
_atom_site_label
_atom_site_fract_x
_atom_site_fract_y
_atom_site_fract_z
Si Si1 0.857483 0.468205 0.605044
Si Si2 0.194432 0.754007 0.641909
Si Si3 0.879493 0.852081 0.500000
Si Si4 0.975055 0.615210 0.150890
Si Si5 0.005346 0.795413 0.500000
Si Si6 0.180168 0.710845 0.152897
Si Si7 0.874945 0.109857 0.500000
O O1 0.871408 0.496816 0.500000
O O2 0.806585 0.378470 0.612055
O O3 0.908186 0.401563 0.654385
O O4 0.844152 0.583532 0.658273
O O5 0.181091 0.768669 0.748437
O O6 0.256358 0.797783 0.615180
O O7 0.148799 0.828431 0.589165
O O8 0.946885 0.861849 0.500000
O O9 0.858665 0.787369 0.410566
O O10 0.855777 0.979518 0.500000
O O11 0.000000 0.500000 0.108475
O O12 0.000000 0.638926 0.250000
O O13 0.992488 0.719611 0.089716
O O14 0.057418 0.882044 0.500000
#
# Coordination Sequence:
#
# PCOD8295408 Si02
#       7
#    16  16   8  16   8  16   8
#     4  12  23  43  72 104 141 177 228 285 350 409
#     4  11  25  46  70  99 139 183 226 282 345 408
#     4  12  28  43  71  98 137 182 238 278 336 411
#     4  11  24  37  66 102 139 178 218 282 348 406
#     4  12  24  46  64  98 135 179 230 283 342 409
#     4  11  27  44  69 105 138 178 230 284 342 409
#     4  12  26  47  71  92 138 186 233 279 344 407
#
# _framework density 21.354109000000001
#
# number of rings (size 3 to 8) (size 9 to 14) (size 15 to 20)
#    0.000    0.545    4.545    2.727   10.182    0.727 
#    0.000    0.000    0.000    3.273    0.000    0.000 
#    0.000    0.000    0.000    0.000    0.000    0.000 
#
# Total GULP energy -545830.861871 kJ/mol
# GULP energy per Si atom -12405.246861 kJ/mol
# Density = 2.130551 g / cm^3
# Si number density = 21.354109 Si / 1000 Ang^3
#
#
#
# Elastic Constant Matrix: (Units=GPa)
#
#
# Indices 1 2 3 4 5 6 
#
# 1 117.5520 23.1784 50.0756 0.0000 0.0000 0.0000
# 2 23.1784 127.5665 31.4679 0.0000 0.0000 0.0000
# 3 50.0756 31.4679 101.8410 0.0000 0.0000 0.0000
# 4 0.0000 0.0000 0.0000 21.1623 0.0000 0.0000
# 5 0.0000 0.0000 0.0000 0.0000 30.5887 0.0000
# 6 0.0000 0.0000 0.0000 0.0000 0.0000 31.4844
#
#
#
# Elastic Compliance Matrix: (Units=1/GPa)
#
#
# Indices 1 2 3 4 5 6 
#
# 1 0.010819 -0.000707 -0.005101 0.000000 0.000000 0.000000
# 2 -0.000707 0.008532 -0.002288 0.000000 0.000000 0.000000
# 3 -0.005101 -0.002288 0.013035 0.000000 0.000000 0.000000
# 4 0.000000 0.000000 0.000000 0.047254 0.000000 0.000000
# 5 0.000000 0.000000 0.000000 0.000000 0.032692 0.000000
# 6 0.000000 0.000000 0.000000 0.000000 0.000000 0.031762
#
#
# Mechanical properties :
#
#
# Convention : Reuss Voigt Hill
#
# Bulk Modulus (GPa) = 61.76017 61.82258 61.79138
# Shear Modulus (GPa) = 30.17762 32.79625 31.48694
#
# Velocity S-wave (km/s) = 3.76333 3.92322 3.84411
# Velocity P-wave (km/s) = 6.91869 7.03819 6.97870
#
# Compressibility (1/GPa) = 0.01619167
#
# Stress axis : x y z
#
# Youngs Moduli (GPa) = 92.42572 117.20434 76.71822
#
# Poissons Ratio (x) = 0.08292 0.39137
# Poissons Ratio (y) = 0.06539 0.17557
# Poissons Ratio (z) = 0.47150 0.26822
#
# Static dielectric constant tensor:
#      x y z
#    x 4.067010 0.000000 0.000000 
#    y 0.000000 3.738400 0.000000 
#    z 0.000000 0.000000 3.867800 
# 
# 
# High freq. dielectric constant tensor:
#      x y z
#    x 1.848920 0.000000 0.000000 
#    y 0.000000 1.828520 0.000000 
#    z 0.000000 0.000000 1.849120 
# 
# From -- ./inp_files/25037.got.cif
#   From: 2010.03.12/outbox.cif.g09.slc.cpg/sg72_13_cif.got.tgz:25037.got - 2010.04.16 14:54:00.
