data_PCOD8295886
_publ_section_title
;
Structure prediction by ZEFSAII (Michael W. Deem and Ramdas Pophale) SiO2 
 PCOD8295886
Probable space group: I B C A 
;
_chemical_formula_sum "Si O2"
_cell_formula_units_Z 104
_cell_length_a 8.710557
_cell_length_b 25.659049
_cell_length_c 22.808603
_cell_angle_alpha 90.000000
_cell_angle_beta 90.000000
_cell_angle_gamma 90.000000
_cell_volume 5097.827893
_symmetry_space_group_name_H-M "I B C A "
_symmetry_group_IT_number 73
_symmetry_cell_setting 'orthorhombic'
loop_
_space_group_symop_operation_xyz
x,y,z
-x,1/2-y,z
x,-y,1/2-z
1/2-x,y,-z
-x,-y,-z
x,1/2+y,-z
-x,y,1/2+z
1/2+x,-y,z
1/2+x,1/2+y,1/2+z
1/2-x,-y,1/2+z
1/2+x,1/2-y,-z
-x,1/2+y,1/2-z
1/2-x,1/2-y,1/2-z
1/2+x,y,1/2-z
1/2-x,1/2+y,z
x,1/2-y,1/2+z
loop_
_atom_site_type_symbol
_atom_site_label
_atom_site_fract_x
_atom_site_fract_y
_atom_site_fract_z
Si Si1 0.638442 0.858624 0.618189
Si Si2 0.281428 0.649841 0.124357
Si Si3 0.361778 0.442041 0.692924
Si Si4 0.000000 0.750000 0.509928
Si Si5 0.750000 0.178608 0.000000
Si Si6 0.722312 0.452165 0.681446
Si Si7 0.679874 0.744847 0.185716
Si Si8 0.750000 0.825031 0.000000
O O1 0.458854 0.865959 0.631590
O O2 0.656504 0.853496 0.547845
O O3 0.730139 0.910921 0.632489
O O4 0.712971 0.810695 0.654707
O O5 0.177445 0.612018 0.162480
O O6 0.251058 0.708950 0.145596
O O7 0.212038 0.642183 0.058168
O O8 0.541918 0.452065 0.691424
O O9 0.273650 0.489941 0.661427
O O10 0.311388 0.436837 0.759843
O O11 0.129389 0.713526 0.540324
O O12 0.106936 0.790414 0.473783
O O13 0.500000 0.750000 0.192537
O O14 0.750000 0.750000 0.250000
#
# Coordination Sequence:
#
# PCOD8295886 Si02
#       8
#    16  16  16   8   8  16  16   8
#     4  11  23  40  61  89 128 166 207 259 310 371
#     4  11  23  40  61  89 128 166 207 259 310 371
#     4  11  23  42  68  94 122 162 209 258 312 373
#     4  10  20  36  58  82 120 170 212 250 290 364
#     4  11  22  38  61  88 124 168 219 255 310 366
#     4  11  23  42  68  94 122 162 209 258 312 373
#     4  10  22  38  55  84 122 161 197 248 309 362
#     4  11  22  38  61  88 124 168 219 255 310 366
#
# _framework density 20.400846000000001
#
# number of rings (size 3 to 8) (size 9 to 14) (size 15 to 20)
#    0.000    1.231    1.538    6.462    4.308    3.692 
#    2.769    0.769    0.000    3.692    0.000    0.000 
#    0.000    0.000    0.000    0.000    0.000    0.000 
#
# Total GULP energy -644207.920391 kJ/mol
# GULP energy per Si atom -12388.613854 kJ/mol
# Density = 2.035441 g / cm^3
# Si number density = 20.400846 Si / 1000 Ang^3
#
#
#
# Elastic Constant Matrix: (Units=GPa)
#
#
# Indices 1 2 3 4 5 6 
#
# 1 113.7391 32.1506 15.1020 0.0000 0.0000 0.0000
# 2 32.1506 100.6209 31.5084 0.0000 0.0000 0.0000
# 3 15.1020 31.5084 89.5433 0.0000 0.0000 0.0000
# 4 0.0000 0.0000 0.0000 12.6355 0.0000 0.0000
# 5 0.0000 0.0000 0.0000 0.0000 27.1537 0.0000
# 6 0.0000 0.0000 0.0000 0.0000 0.0000 33.5391
#
#
#
# Elastic Compliance Matrix: (Units=1/GPa)
#
#
# Indices 1 2 3 4 5 6 
#
# 1 0.009695 -0.002906 -0.000613 0.000000 0.000000 0.000000
# 2 -0.002906 0.012040 -0.003747 0.000000 0.000000 0.000000
# 3 -0.000613 -0.003747 0.012589 0.000000 0.000000 0.000000
# 4 0.000000 0.000000 0.000000 0.079142 0.000000 0.000000
# 5 0.000000 0.000000 0.000000 0.000000 0.036827 0.000000
# 6 0.000000 0.000000 0.000000 0.000000 0.000000 0.029816
#
#
# Mechanical properties :
#
#
# Convention : Reuss Voigt Hill
#
# Bulk Modulus (GPa) = 50.51972 51.26947 50.89459
# Shear Modulus (GPa) = 24.84626 29.67517 27.26072
#
# Velocity S-wave (km/s) = 3.49363 3.81807 3.65945
# Velocity P-wave (km/s) = 6.41025 6.68000 6.54651
#
# Compressibility (1/GPa) = 0.01979425
#
# Stress axis : x y z
#
# Youngs Moduli (GPa) = 103.14820 83.05671 79.43185
#
# Poissons Ratio (x) = 0.24135 0.04866
# Poissons Ratio (y) = 0.29974 0.29759
# Poissons Ratio (z) = 0.06318 0.31117
#
# Static dielectric constant tensor:
#      x y z
#    x 3.928080 0.000000 0.000000 
#    y 0.000000 3.816440 0.000000 
#    z 0.000000 0.000000 3.498750 
# 
# 
# High freq. dielectric constant tensor:
#      x y z
#    x 1.815700 0.000000 0.000000 
#    y 0.000000 1.790360 0.000000 
#    z 0.000000 0.000000 1.777280 
# 
# From -- ./inp_files/25007.got.cif
#   From: 2010.03.12/outbox.cif.g09.slc.cpg/sg73_13_cif.got.tgz:25007.got - 2010.04.16 15:25:48.
