data_PCOD8295359
_publ_section_title
;
Structure prediction by ZEFSAII (Michael W. Deem and Ramdas Pophale) SiO2 
 PCOD8295359
Probable space group: I B A M
;
_chemical_formula_sum "Si O2"
_cell_formula_units_Z 88
_cell_length_a 12.843560
_cell_length_b 14.119875
_cell_length_c 23.346092
_cell_angle_alpha 90.000000
_cell_angle_beta 90.000000
_cell_angle_gamma 90.000000
_cell_volume 4233.801218
_symmetry_space_group_name_H-M "I B A M"
_symmetry_group_IT_number 72
_symmetry_cell_setting 'orthorhombic'
loop_
_space_group_symop_operation_xyz
x,y,z
-x,-y,z
x,-y,1/2-z
-x,y,1/2-z
-x,-y,-z
x,y,-z
-x,y,1/2+z
x,-y,1/2+z
1/2+x,1/2+y,1/2+z
1/2-x,1/2-y,1/2+z
1/2+x,1/2-y,-z
1/2-x,1/2+y,-z
1/2-x,1/2-y,1/2-z
1/2+x,1/2+y,1/2-z
1/2-x,1/2+y,z
1/2+x,1/2-y,z
loop_
_atom_site_type_symbol
_atom_site_label
_atom_site_fract_x
_atom_site_fract_y
_atom_site_fract_z
Si Si1 0.737870 0.023926 0.500000
Si Si2 0.095606 0.226291 0.785890
Si Si3 0.392536 0.649695 0.500000
Si Si4 0.025502 0.750528 0.414186
Si Si5 0.304431 0.269331 0.500000
Si Si6 0.905801 0.432981 0.896552
Si Si7 0.798647 0.603532 0.723090
O O1 0.804879 0.118104 0.500000
O O2 0.667196 0.014565 0.443005
O O3 0.828016 0.945991 0.500000
O O4 0.129624 0.330134 0.763221
O O5 0.185517 0.149406 0.781253
O O6 0.000000 0.185906 0.750000
O O7 0.050033 0.232977 0.848852
O O8 0.466255 0.660063 0.556325
O O9 0.312857 0.736240 0.500000
O O10 0.951411 0.661065 0.425037
O O11 0.136034 0.730918 0.444150
O O12 0.842079 0.403528 0.840664
O O13 0.000000 0.500000 0.877272
O O14 0.790935 0.500000 0.750000
#
# Coordination Sequence:
#
# PCOD8295359 Si02
#       7
#     8  16   8  16   8  16  16
#     4  12  24  42  66 101 135 176 222 287 343 428
#     4  11  24  44  70  96 140 182 233 282 347 419
#     4  11  25  42  66  96 138 176 225 277 349 403
#     4  11  23  41  67  96 131 185 220 279 342 410
#     4  11  22  43  66  93 140 173 221 280 340 411
#     4  12  23  42  70 102 133 171 237 285 346 403
#     4  11  26  44  68 105 135 182 231 290 347 410
#
# _framework density 20.785105000000001
#
# number of rings (size 3 to 8) (size 9 to 14) (size 15 to 20)
#    0.000    0.727    3.636    4.091    0.000    3.273 
#    0.000    1.818    0.000    0.000    0.000    0.000 
#    0.000    0.000    0.000    0.000    0.000    0.000 
#
# Total GULP energy -545661.622161 kJ/mol
# GULP energy per Si atom -12401.400504 kJ/mol
# Density = 2.073780 g / cm^3
# Si number density = 20.785105 Si / 1000 Ang^3
#
#
#
# Elastic Constant Matrix: (Units=GPa)
#
#
# Indices 1 2 3 4 5 6 
#
# 1 122.5093 49.2522 75.5117 0.0000 0.0000 0.0000
# 2 49.2522 114.7923 40.9272 0.0000 0.0000 0.0000
# 3 75.5117 40.9272 171.9494 0.0000 0.0000 0.0000
# 4 0.0000 0.0000 0.0000 25.2975 0.0000 0.0000
# 5 0.0000 0.0000 0.0000 0.0000 42.9962 0.0000
# 6 0.0000 0.0000 0.0000 0.0000 0.0000 40.4782
#
#
#
# Elastic Compliance Matrix: (Units=1/GPa)
#
#
# Indices 1 2 3 4 5 6 
#
# 1 0.012495 -0.003720 -0.004601 0.000000 0.000000 0.000000
# 2 -0.003720 0.010627 -0.000896 0.000000 0.000000 0.000000
# 3 -0.004601 -0.000896 0.008050 0.000000 0.000000 0.000000
# 4 0.000000 0.000000 0.000000 0.039530 0.000000 0.000000
# 5 0.000000 0.000000 0.000000 0.000000 0.023258 0.000000
# 6 0.000000 0.000000 0.000000 0.000000 0.000000 0.024705
#
#
# Mechanical properties :
#
#
# Convention : Reuss Voigt Hill
#
# Bulk Modulus (GPa) = 78.51615 82.29259 80.40437
# Shear Modulus (GPa) = 35.37483 37.99170 36.68327
#
# Velocity S-wave (km/s) = 4.12992 4.27995 4.20561
# Velocity P-wave (km/s) = 7.78453 8.00638 7.89623
#
# Compressibility (1/GPa) = 0.01273623
#
# Stress axis : x y z
#
# Youngs Moduli (GPa) = 80.03496 94.10072 124.22983
#
# Poissons Ratio (x) = 0.35008 0.57164
# Poissons Ratio (y) = 0.29775 0.11127
# Poissons Ratio (z) = 0.36828 0.08428
#
# Static dielectric constant tensor:
#      x y z
#    x 4.013230 0.000000 0.000000 
#    y 0.000000 3.741590 0.000000 
#    z 0.000000 0.000000 3.813680 
# 
# 
# High freq. dielectric constant tensor:
#      x y z
#    x 1.836330 0.000000 0.000000 
#    y 0.000000 1.807930 0.000000 
#    z 0.000000 0.000000 1.825130 
# 
# From -- ./inp_files/43242.got.cif
#   From: 2010.03.12/outbox.cif.g09.slc.cpg/sg72_22_cif.got.tgz:43242.got - 2010.04.16 14:54:00.
