data_PCOD8295988
_publ_section_title
;
Structure prediction by ZEFSAII (Michael W. Deem and Ramdas Pophale) SiO2 
 PCOD8295988
Probable space group: I B C A 
;
_chemical_formula_sum "Si O2"
_cell_formula_units_Z 104
_cell_length_a 28.005382
_cell_length_b 22.498376
_cell_length_c 8.006651
_cell_angle_alpha 90.000000
_cell_angle_beta 90.000000
_cell_angle_gamma 90.000000
_cell_volume 5044.795547
_symmetry_space_group_name_H-M "I B C A "
_symmetry_group_IT_number 73
_symmetry_cell_setting 'orthorhombic'
loop_
_space_group_symop_operation_xyz
x,y,z
-x,1/2-y,z
x,-y,1/2-z
1/2-x,y,-z
-x,-y,-z
x,1/2+y,-z
-x,y,1/2+z
1/2+x,-y,z
1/2+x,1/2+y,1/2+z
1/2-x,-y,1/2+z
1/2+x,1/2-y,-z
-x,1/2+y,1/2-z
1/2-x,1/2-y,1/2-z
1/2+x,y,1/2-z
1/2-x,1/2+y,z
x,1/2-y,1/2+z
loop_
_atom_site_type_symbol
_atom_site_label
_atom_site_fract_x
_atom_site_fract_y
_atom_site_fract_z
Si Si1 0.796427 0.323181 0.332027
Si Si2 0.933385 0.944571 0.050950
Si Si3 0.149331 0.500000 0.250000
Si Si4 0.308513 0.122956 0.337758
Si Si5 0.000000 0.750000 0.784086
Si Si6 0.487417 0.000000 0.750000
Si Si7 0.433664 0.691242 0.969753
Si Si8 0.669539 0.296853 0.036300
O O1 0.746131 0.356348 0.326505
O O2 0.827640 0.357656 0.476059
O O3 0.794421 0.254785 0.399398
O O4 0.815527 0.325223 0.142191
O O5 0.885270 0.979017 0.101309
O O6 0.918789 0.876908 0.030811
O O7 0.951627 0.972527 0.881332
O O8 0.977160 0.948785 0.182058
O O9 0.183841 0.447611 0.182802
O O10 0.335097 0.154554 0.183682
O O11 0.039386 0.788744 0.694030
O O12 0.029331 0.701202 0.883291
O O13 0.384240 0.728427 0.988402
#
# Coordination Sequence:
#
# PCOD8295988 Si02
#       8
#    16  16   8  16   8   8  16  16
#     4  11  25  42  72 100 131 174 227 285 350 403
#     4  10  20  39  64  89 129 172 224 275 331 396
#     4  11  24  46  62  91 142 182 222 281 338 401
#     4  11  25  45  65  97 138 173 222 291 337 404
#     4  10  24  38  60  94 140 166 214 268 338 412
#     4   9  20  36  64  95 116 170 230 273 318 395
#     4  11  22  40  60  95 132 174 210 272 337 393
#     4  12  22  42  72 103 129 173 230 281 337 411
#
# _framework density 20.615306
#
# number of rings (size 3 to 8) (size 9 to 14) (size 15 to 20)
#    0.000    1.231    3.077    2.769    2.154    1.231 
#    5.538    0.000    0.000    0.000    0.000    0.000 
#    0.000    0.000    0.000    0.000    0.000    0.000 
#
# Total GULP energy -644293.462439 kJ/mol
# GULP energy per Si atom -12390.258893 kJ/mol
# Density = 2.056838 g / cm^3
# Si number density = 20.615306 Si / 1000 Ang^3
#
#
#
# Elastic Constant Matrix: (Units=GPa)
#
#
# Indices 1 2 3 4 5 6 
#
# 1 135.9715 46.7233 44.2996 0.0000 0.0000 0.0000
# 2 46.7233 132.9776 42.6545 0.0000 0.0000 0.0000
# 3 44.2996 42.6545 150.0432 0.0000 0.0000 0.0000
# 4 0.0000 0.0000 0.0000 15.7847 0.0000 0.0000
# 5 0.0000 0.0000 0.0000 0.0000 31.2127 0.0000
# 6 0.0000 0.0000 0.0000 0.0000 0.0000 28.1224
#
#
#
# Elastic Compliance Matrix: (Units=1/GPa)
#
#
# Indices 1 2 3 4 5 6 
#
# 1 0.008830 -0.002494 -0.001898 0.000000 0.000000 0.000000
# 2 -0.002494 0.008979 -0.001816 0.000000 0.000000 0.000000
# 3 -0.001898 -0.001816 0.007741 0.000000 0.000000 0.000000
# 4 0.000000 0.000000 0.000000 0.063353 0.000000 0.000000
# 5 0.000000 0.000000 0.000000 0.000000 0.032038 0.000000
# 6 0.000000 0.000000 0.000000 0.000000 0.000000 0.035559
#
#
# Mechanical properties :
#
#
# Convention : Reuss Voigt Hill
#
# Bulk Modulus (GPa) = 76.13746 76.26079 76.19912
# Shear Modulus (GPa) = 28.85276 34.04495 31.44885
#
# Velocity S-wave (km/s) = 3.74515 4.06820 3.91001
# Velocity P-wave (km/s) = 7.46420 7.69023 7.57806
#
# Compressibility (1/GPa) = 0.01313414
#
# Stress axis : x y z
#
# Youngs Moduli (GPa) = 113.25365 111.37316 129.17432
#
# Poissons Ratio (x) = 0.27772 0.24518
# Poissons Ratio (y) = 0.28241 0.23462
# Poissons Ratio (z) = 0.21496 0.20229
#
# Static dielectric constant tensor:
#      x y z
#    x 3.733100 0.000000 0.000000 
#    y 0.000000 3.567070 0.000000 
#    z 0.000000 0.000000 4.907290 
# 
# 
# High freq. dielectric constant tensor:
#      x y z
#    x 1.811100 0.000000 0.000000 
#    y 0.000000 1.791200 0.000000 
#    z 0.000000 0.000000 1.823670 
# 
# From -- ./inp_files/7911.got.cif
#   From: 2010.03.12/outbox.cif.g09.slc.cpg/sg73_4_cif.got.tgz:7911.got - 2010.04.16 15:25:48.
