data_PCOD8295109
_publ_section_title
;
Structure prediction by ZEFSAII (Michael W. Deem and Ramdas Pophale) SiO2 
 PCOD8295109
Probable space group: I B A M
;
_chemical_formula_sum "Si O2"
_cell_formula_units_Z 64
_cell_length_a 8.734829
_cell_length_b 30.719702
_cell_length_c 10.527294
_cell_angle_alpha 90.000000
_cell_angle_beta 90.000000
_cell_angle_gamma 90.000000
_cell_volume 2824.802947
_symmetry_space_group_name_H-M "I B A M"
_symmetry_group_IT_number 72
_symmetry_cell_setting 'orthorhombic'
loop_
_space_group_symop_operation_xyz
x,y,z
-x,-y,z
x,-y,1/2-z
-x,y,1/2-z
-x,-y,-z
x,y,-z
-x,y,1/2+z
x,-y,1/2+z
1/2+x,1/2+y,1/2+z
1/2-x,1/2-y,1/2+z
1/2+x,1/2-y,-z
1/2-x,1/2+y,-z
1/2-x,1/2-y,1/2-z
1/2+x,1/2+y,1/2-z
1/2-x,1/2+y,z
1/2+x,1/2-y,z
loop_
_atom_site_type_symbol
_atom_site_label
_atom_site_fract_x
_atom_site_fract_y
_atom_site_fract_z
Si Si1 0.681992 0.455689 0.500000
Si Si2 0.670768 0.322075 0.270802
Si Si3 0.164883 0.058674 0.000000
Si Si4 0.611889 0.232504 0.366221
Si Si5 0.180684 0.410742 0.238392
O O1 0.681190 0.507308 0.500000
O O2 0.516850 0.431975 0.500000
O O3 0.769175 0.443843 0.370823
O O4 0.500000 0.340056 0.250000
O O5 0.668462 0.282671 0.372377
O O6 0.741103 0.299378 0.144353
O O7 0.775345 0.362593 0.311334
O O8 0.239929 0.079343 0.873843
O O9 0.500000 0.222850 0.250000
O O10 0.530196 0.221925 0.500000
O O11 0.000000 0.414407 0.250000
#
# Coordination Sequence:
#
# PCOD8295109 Si02
#       5
#     8  16   8  16  16
#     4  11  25  47  75 104 137 182 225 283 349 414
#     4  10  23  41  64  95 133 183 230 280 336 403
#     4  11  25  47  75 104 139 178 229 281 345 422
#     4  10  23  44  69  99 137 182 233 290 349 410
#     4  12  26  45  70 105 142 182 230 285 344 412
#
# _framework density 22.656448999999999
#
# number of rings (size 3 to 8) (size 9 to 14) (size 15 to 20)
#    0.000    1.250    0.000    4.500    3.500   15.000 
#    4.500    0.000    0.000    0.000    0.000    0.000 
#    0.000    0.000    0.000    0.000    0.000    0.000 
#
# Total GULP energy -396554.883554 kJ/mol
# GULP energy per Si atom -12392.340111 kJ/mol
# Density = 2.260488 g / cm^3
# Si number density = 22.656449 Si / 1000 Ang^3
#
#
#
# Elastic Constant Matrix: (Units=GPa)
#
#
# Indices 1 2 3 4 5 6 
#
# 1 178.8745 42.1525 67.0123 -0.0019 0.0003 0.0000
# 2 42.1525 79.7627 15.8220 -0.0029 0.0000 -0.0002
# 3 67.0123 15.8220 175.8499 -0.0367 -0.0022 0.0009
# 4 -0.0019 -0.0029 -0.0367 -126.8581 -0.0038 0.0001
# 5 0.0003 0.0000 -0.0022 -0.0038 36.2114 -0.0001
# 6 0.0000 -0.0002 0.0009 0.0001 -0.0001 36.6738
#
#
#
# Elastic Compliance Matrix: (Units=1/GPa)
#
#
# Indices 1 2 3 4 5 6 
#
# 1 0.007316 -0.003374 -0.002485 0.000001 0.000000 0.000000
# 2 -0.003374 0.014321 -0.000003 0.000000 0.000000 0.000000
# 3 -0.002485 -0.000003 0.006634 -0.000002 0.000000 0.000000
# 4 0.000001 0.000000 -0.000002 -0.007883 -0.000001 0.000000
# 5 0.000000 0.000000 0.000000 -0.000001 0.027616 0.000000
# 6 0.000000 0.000000 0.000000 0.000000 0.000000 0.027267
#
#
# Mechanical properties :
#
#
# Convention : Reuss Voigt Hill
#
# Bulk Modulus (GPa) = 60.42817 76.05120 68.23969
# Shear Modulus (GPa) = 54.04871 9.83879 31.94375
#
# Velocity S-wave (km/s) = 4.88954 2.08615 3.75896
# Velocity P-wave (km/s) = 7.65547 6.28034 7.00175
#
# Compressibility (1/GPa) = 0.01654857
#
# Stress axis : x y z
#
# Youngs Moduli (GPa) = 136.68089 69.82933 150.74487
#
# Poissons Ratio (x) = 0.23558 0.37453
# Poissons Ratio (y) = 0.46111 0.00043
# Poissons Ratio (z) = 0.33959 0.00020
#
# Static dielectric constant tensor:
#      x y z
#    x 4.308160 0.000000 0.000000 
#    y 0.000000 4.116900 0.000000 
#    z 0.000000 0.000000 4.033250 
# 
# 
# High freq. dielectric constant tensor:
#      x y z
#    x 1.908140 0.000000 0.000000 
#    y 0.000000 1.899630 0.000000 
#    z 0.000000 0.000000 1.889020 
# 
# From -- ./inp_files/10552.got.cif
#   From: 2010.03.12/outbox.cif.g09.slc.cpg/sg72_6_cif.got.tgz:10552.got - 2010.04.16 14:54:00.
