data_PCOD8295740
_publ_section_title
;
Structure prediction by ZEFSAII (Michael W. Deem and Ramdas Pophale) SiO2 
 PCOD8295740
Probable space group: I B C A 
;
_chemical_formula_sum "Si O2"
_cell_formula_units_Z 120
_cell_length_a 23.820989
_cell_length_b 18.382669
_cell_length_c 13.747431
_cell_angle_alpha 90.000000
_cell_angle_beta 90.000000
_cell_angle_gamma 90.000000
_cell_volume 6019.908698
_symmetry_space_group_name_H-M "I B C A "
_symmetry_group_IT_number 73
_symmetry_cell_setting 'orthorhombic'
loop_
_space_group_symop_operation_xyz
x,y,z
-x,1/2-y,z
x,-y,1/2-z
1/2-x,y,-z
-x,-y,-z
x,1/2+y,-z
-x,y,1/2+z
1/2+x,-y,z
1/2+x,1/2+y,1/2+z
1/2-x,-y,1/2+z
1/2+x,1/2-y,-z
-x,1/2+y,1/2-z
1/2-x,1/2-y,1/2-z
1/2+x,y,1/2-z
1/2-x,1/2+y,z
x,1/2-y,1/2+z
loop_
_atom_site_type_symbol
_atom_site_label
_atom_site_fract_x
_atom_site_fract_y
_atom_site_fract_z
Si Si1 0.376699 0.131807 0.280053
Si Si2 0.804930 0.587987 0.441424
Si Si3 0.104316 0.171286 0.940065
Si Si4 0.548250 0.000000 0.750000
Si Si5 0.502388 0.428886 0.062363
Si Si6 0.749647 0.414098 0.255868
Si Si7 0.807312 0.071264 0.944043
Si Si8 0.096965 0.668961 0.485419
O O1 0.390432 0.166743 0.176122
O O2 0.408831 0.055938 0.300617
O O3 0.309389 0.124044 0.280348
O O4 0.403068 0.180466 0.367928
O O5 0.750000 0.571238 0.500000
O O6 0.841404 0.647310 0.498478
O O7 0.782287 0.617399 0.338001
O O8 0.836444 0.509203 0.434339
O O9 0.054466 0.119111 0.973539
O O10 0.090540 0.253695 0.964641
O O11 0.508755 0.955637 0.825533
O O12 0.500000 0.500000 0.000000
O O13 0.447978 0.381270 0.040135
O O14 0.737391 0.500000 0.250000
O O15 0.794528 0.396099 0.338582
O O16 0.750000 0.061905 0.000000
O O17 0.844123 0.129573 0.999471
#
# Coordination Sequence:
#
# PCOD8295740 Si02
#       8
#    16  16  16   8  16  16  16  16
#     4  11  21  40  69  94 124 178 220 261 321 404
#     4  10  20  37  62  92 126 168 219 276 311 375
#     4  11  26  43  63  96 133 172 217 262 339 404
#     4  10  22  40  74 100 120 166 232 276 316 390
#     4  11  23  46  71  97 123 168 224 275 325 386
#     4  10  19  35  62  97 129 164 222 274 324 375
#     4  10  21  36  61  92 126 170 217 273 320 377
#     4  12  25  44  63  95 139 170 211 276 335 400
#
# _framework density 19.933857
#
# number of rings (size 3 to 8) (size 9 to 14) (size 15 to 20)
#    0.000    1.333    4.667    1.200    1.867    1.600 
#    8.400    2.667    0.000    0.000    0.000    0.000 
#    0.000    0.000    0.000    0.000    0.000    0.000 
#
# Total GULP energy -743501.528376 kJ/mol
# GULP energy per Si atom -12391.692140 kJ/mol
# Density = 1.988849 g / cm^3
# Si number density = 19.933857 Si / 1000 Ang^3
#
#
#
# Elastic Constant Matrix: (Units=GPa)
#
#
# Indices 1 2 3 4 5 6 
#
# 1 83.1690 49.6257 42.9670 0.0000 0.0000 0.0000
# 2 49.6257 121.4046 41.8143 0.0000 0.0000 0.0000
# 3 42.9670 41.8143 133.6107 0.0000 0.0000 0.0000
# 4 0.0000 0.0000 0.0000 28.6097 0.0000 0.0000
# 5 0.0000 0.0000 0.0000 0.0000 32.5573 0.0000
# 6 0.0000 0.0000 0.0000 0.0000 0.0000 107.6307
#
#
#
# Elastic Compliance Matrix: (Units=1/GPa)
#
#
# Indices 1 2 3 4 5 6 
#
# 1 0.017462 -0.005832 -0.003790 0.000000 0.000000 0.000000
# 2 -0.005832 0.011180 -0.001623 0.000000 0.000000 0.000000
# 3 -0.003790 -0.001623 0.009211 0.000000 0.000000 0.000000
# 4 0.000000 0.000000 0.000000 0.034953 0.000000 0.000000
# 5 0.000000 0.000000 0.000000 0.000000 0.030715 0.000000
# 6 0.000000 0.000000 0.000000 0.000000 0.000000 0.009291
#
#
# Mechanical properties :
#
#
# Convention : Reuss Voigt Hill
#
# Bulk Modulus (GPa) = 65.09732 67.44426 66.27079
# Shear Modulus (GPa) = 35.60628 47.34470 41.47549
#
# Velocity S-wave (km/s) = 4.23096 4.87878 4.56637
# Velocity P-wave (km/s) = 7.52300 8.10210 7.81792
#
# Compressibility (1/GPa) = 0.01536162
#
# Stress axis : x y z
#
# Youngs Moduli (GPa) = 57.26761 89.44492 108.56223
#
# Poissons Ratio (x) = 0.52167 0.41147
# Poissons Ratio (y) = 0.33400 0.17623
# Poissons Ratio (z) = 0.21705 0.14519
#
# Static dielectric constant tensor:
#      x y z
#    x 3.728290 0.000000 0.000000 
#    y 0.000000 3.755050 0.000000 
#    z 0.000000 0.000000 -0.097980 
# 
# 
# High freq. dielectric constant tensor:
#      x y z
#    x 1.771940 0.000000 0.000000 
#    y 0.000000 1.762940 0.000000 
#    z 0.000000 0.000000 1.793870 
# 
# From -- ./inp_files/18960.got.cif
#   From: 2010.03.12/outbox.cif.g09.slc.cpg/sg73_10_cif.got.tgz:18960.got - 2010.04.16 15:25:48.
