data_PCOD8295567
_publ_section_title
;
Structure prediction by ZEFSAII (Michael W. Deem and Ramdas Pophale) SiO2 
 PCOD8295567
Probable space group: I B C A 
;
_chemical_formula_sum "Si O2"
_cell_formula_units_Z 96
_cell_length_a 11.921763
_cell_length_b 13.504359
_cell_length_c 26.899728
_cell_angle_alpha 90.000000
_cell_angle_beta 90.000000
_cell_angle_gamma 90.000000
_cell_volume 4330.742354
_symmetry_space_group_name_H-M "I B C A "
_symmetry_group_IT_number 73
_symmetry_cell_setting 'orthorhombic'
loop_
_space_group_symop_operation_xyz
x,y,z
-x,1/2-y,z
x,-y,1/2-z
1/2-x,y,-z
-x,-y,-z
x,1/2+y,-z
-x,y,1/2+z
1/2+x,-y,z
1/2+x,1/2+y,1/2+z
1/2-x,-y,1/2+z
1/2+x,1/2-y,-z
-x,1/2+y,1/2-z
1/2-x,1/2-y,1/2-z
1/2+x,y,1/2-z
1/2-x,1/2+y,z
x,1/2-y,1/2+z
loop_
_atom_site_type_symbol
_atom_site_label
_atom_site_fract_x
_atom_site_fract_y
_atom_site_fract_z
Si Si1 0.446986 0.844805 0.958108
Si Si2 0.868062 0.000000 0.250000
Si Si3 0.104166 0.816585 0.153288
Si Si4 0.371107 0.469600 0.586859
Si Si5 0.250000 0.053837 0.500000
Si Si6 0.471669 0.039358 0.834776
Si Si7 0.744698 0.643291 0.325638
O O1 0.500000 0.750000 0.983970
O O2 0.386517 0.816554 0.906365
O O3 0.545982 0.922609 0.952797
O O4 0.360709 0.881715 0.998693
O O5 0.790621 0.082672 0.276451
O O6 0.948281 0.941971 0.288063
O O7 0.089857 0.930892 0.170245
O O8 0.214998 0.761902 0.177128
O O9 0.000000 0.750000 0.171822
O O10 0.262714 0.499912 0.553748
O O11 0.447790 0.550096 0.616508
O O12 0.330319 0.392474 0.628016
O O13 0.376335 0.124342 0.835853
#
# Coordination Sequence:
#
# PCOD8295567 Si02
#       7
#    16   8  16  16   8  16  16
#     4  10  20  39  57  85 118 159 205 249 304 380
#     4  10  20  36  58  90 130 154 202 258 312 372
#     4  10  17  40  64  83 120 168 203 247 314 379
#     4  10  20  38  61  84 122 156 208 253 313 371
#     4  12  24  36  60  92 120 160 208 268 318 354
#     4  10  21  37  62  95 122 162 217 255 306 383
#     4  11  20  38  67  87 121 171 205 253 321 369
#
# _framework density 22.167099
#
# number of rings (size 3 to 8) (size 9 to 14) (size 15 to 20)
#    0.000    1.667    6.667    3.000    0.000    0.667 
#    3.000    5.000    0.000    2.000    0.000    0.000 
#    0.000    0.000    0.000    0.000    0.000    0.000 
#
# Total GULP energy -594721.446120 kJ/mol
# GULP energy per Si atom -12390.030128 kJ/mol
# Density = 2.211665 g / cm^3
# Si number density = 22.167099 Si / 1000 Ang^3
#
#
#
# Elastic Constant Matrix: (Units=GPa)
#
#
# Indices 1 2 3 4 5 6 
#
# 1 87.2820 10.6390 27.1079 0.0000 0.0000 0.0000
# 2 10.6390 50.8645 25.5517 0.0000 0.0000 0.0000
# 3 27.1079 25.5517 72.3724 0.0000 0.0000 0.0000
# 4 0.0000 0.0000 0.0000 8.1514 0.0000 0.0000
# 5 0.0000 0.0000 0.0000 0.0000 46.6014 0.0000
# 6 0.0000 0.0000 0.0000 0.0000 0.0000 30.1438
#
#
#
# Elastic Compliance Matrix: (Units=1/GPa)
#
#
# Indices 1 2 3 4 5 6 
#
# 1 0.012970 -0.000331 -0.004741 0.000000 0.000000 0.000000
# 2 -0.000331 0.023907 -0.008317 0.000000 0.000000 0.000000
# 3 -0.004741 -0.008317 0.018530 0.000000 0.000000 0.000000
# 4 0.000000 0.000000 0.000000 0.122678 0.000000 0.000000
# 5 0.000000 0.000000 0.000000 0.000000 0.021459 0.000000
# 6 0.000000 0.000000 0.000000 0.000000 0.000000 0.033174
#
#
# Mechanical properties :
#
#
# Convention : Reuss Voigt Hill
#
# Bulk Modulus (GPa) = 34.92974 37.45735 36.19355
# Shear Modulus (GPa) = 18.58473 26.79401 22.68937
#
# Velocity S-wave (km/s) = 2.89864 3.48045 3.20278
# Velocity P-wave (km/s) = 5.19562 5.75202 5.48089
#
# Compressibility (1/GPa) = 0.02862890
#
# Stress axis : x y z
#
# Youngs Moduli (GPa) = 77.10111 41.82842 53.96795
#
# Poissons Ratio (x) = 0.01385 0.25587
# Poissons Ratio (y) = 0.02553 0.44883
# Poissons Ratio (z) = 0.36555 0.34787
#
# Static dielectric constant tensor:
#      x y z
#    x 4.063280 0.000000 0.000000 
#    y 0.000000 3.810540 0.000000 
#    z 0.000000 0.000000 3.910710 
# 
# 
# High freq. dielectric constant tensor:
#      x y z
#    x 1.874230 0.000000 0.000000 
#    y 0.000000 1.841190 0.000000 
#    z 0.000000 0.000000 1.864490 
# 
# From -- ./inp_files/33983.got.cif
#   From: 2010.03.12/outbox.cif.g09.slc.cpg/sg73_17_cif.got.tgz:33983.got - 2010.04.16 15:25:48.
