data_PCOD8295763
_publ_section_title
;
Structure prediction by ZEFSAII (Michael W. Deem and Ramdas Pophale) SiO2 
 PCOD8295763
Probable space group: I B C A 
;
_chemical_formula_sum "Si O2"
_cell_formula_units_Z 120
_cell_length_a 16.241672
_cell_length_b 15.462382
_cell_length_c 22.454641
_cell_angle_alpha 90.000000
_cell_angle_beta 90.000000
_cell_angle_gamma 90.000000
_cell_volume 5639.144848
_symmetry_space_group_name_H-M "I B C A "
_symmetry_group_IT_number 73
_symmetry_cell_setting 'orthorhombic'
loop_
_space_group_symop_operation_xyz
x,y,z
-x,1/2-y,z
x,-y,1/2-z
1/2-x,y,-z
-x,-y,-z
x,1/2+y,-z
-x,y,1/2+z
1/2+x,-y,z
1/2+x,1/2+y,1/2+z
1/2-x,-y,1/2+z
1/2+x,1/2-y,-z
-x,1/2+y,1/2-z
1/2-x,1/2-y,1/2-z
1/2+x,y,1/2-z
1/2-x,1/2+y,z
x,1/2-y,1/2+z
loop_
_atom_site_type_symbol
_atom_site_label
_atom_site_fract_x
_atom_site_fract_y
_atom_site_fract_z
Si Si1 0.056542 0.679093 0.836514
Si Si2 0.313596 0.557256 0.191985
Si Si3 0.835844 0.777422 0.571932
Si Si4 0.250000 0.538241 0.000000
Si Si5 0.454351 0.450549 0.905430
Si Si6 0.668105 0.600921 0.383834
Si Si7 0.146105 0.288573 0.062318
Si Si8 0.115404 0.037238 0.423128
O O1 0.129109 0.641556 0.795081
O O2 0.095277 0.721928 0.896473
O O3 0.000000 0.750000 0.802461
O O4 0.995322 0.600485 0.850972
O O5 0.307806 0.500000 0.250000
O O6 0.223167 0.590096 0.174995
O O7 0.351140 0.504953 0.137057
O O8 0.866916 0.698663 0.613934
O O9 0.739656 0.799903 0.585479
O O10 0.852256 0.749400 0.503684
O O11 0.891136 0.860355 0.588471
O O12 0.223154 0.596487 0.055827
O O13 0.324519 0.476872 0.020629
O O14 0.400876 0.528456 0.879182
O O15 0.397867 0.382925 0.941698
O O16 0.528409 0.495016 0.942931
#
# Coordination Sequence:
#
# PCOD8295763 Si02
#       8
#    16  16  16   8  16  16  16  16
#     4   9  19  39  65  90 121 154 219 268 313 385
#     4  10  21  42  69  88 117 165 220 270 320 386
#     4  11  21  33  58  86 127 164 205 257 307 380
#     4  10  20  36  58  84 118 170 210 258 306 380
#     4  10  22  37  56  87 129 168 205 254 320 388
#     4  11  22  36  58  88 125 164 210 254 324 391
#     4  10  19  37  58  89 118 166 215 253 308 377
#     4  10  22  39  58  90 128 165 211 263 319 389
#
# _framework density 21.279821999999999
#
# number of rings (size 3 to 8) (size 9 to 14) (size 15 to 20)
#    0.000    1.867    1.333    4.000    3.733    2.667 
#    4.800    3.333    5.867    0.000    0.000    0.000 
#    0.000    0.000    0.000    0.000    0.000    0.000 
#
# Total GULP energy -743756.957586 kJ/mol
# GULP energy per Si atom -12395.949293 kJ/mol
# Density = 2.123139 g / cm^3
# Si number density = 21.279822 Si / 1000 Ang^3
#
#
#
# Elastic Constant Matrix: (Units=GPa)
#
#
# Indices 1 2 3 4 5 6 
#
# 1 104.4278 62.5008 24.9240 0.0000 0.0000 0.0000
# 2 62.5008 157.2054 27.4823 0.0000 0.0000 0.0000
# 3 24.9240 27.4823 60.0644 0.0000 0.0000 0.0000
# 4 0.0000 0.0000 0.0000 7.3054 0.0000 0.0000
# 5 0.0000 0.0000 0.0000 0.0000 12.0161 0.0000
# 6 0.0000 0.0000 0.0000 0.0000 0.0000 48.8309
#
#
#
# Elastic Compliance Matrix: (Units=1/GPa)
#
#
# Indices 1 2 3 4 5 6 
#
# 1 0.013152 -0.004647 -0.003332 0.000000 0.000000 0.000000
# 2 -0.004647 0.008556 -0.001987 0.000000 0.000000 0.000000
# 3 -0.003332 -0.001987 0.018940 0.000000 0.000000 0.000000
# 4 0.000000 0.000000 0.000000 0.136886 0.000000 0.000000
# 5 0.000000 0.000000 0.000000 0.000000 0.083221 0.000000
# 6 0.000000 0.000000 0.000000 0.000000 0.000000 0.020479
#
#
# Mechanical properties :
#
#
# Convention : Reuss Voigt Hill
#
# Bulk Modulus (GPa) = 48.26535 61.27909 54.77222
# Shear Modulus (GPa) = 16.23011 27.41651 21.82331
#
# Velocity S-wave (km/s) = 2.76470 3.59330 3.20588
# Velocity P-wave (km/s) = 5.73776 6.78786 6.28478
#
# Compressibility (1/GPa) = 0.02071880
#
# Stress axis : x y z
#
# Youngs Moduli (GPa) = 76.03335 116.88069 52.79790
#
# Poissons Ratio (x) = 0.54309 0.17590
# Poissons Ratio (y) = 0.35329 0.10489
# Poissons Ratio (z) = 0.25331 0.23219
#
# Static dielectric constant tensor:
#      x y z
#    x 4.156220 0.000000 0.000000 
#    y 0.000000 4.091140 0.000000 
#    z 0.000000 0.000000 3.224170 
# 
# 
# High freq. dielectric constant tensor:
#      x y z
#    x 1.841210 0.000000 0.000000 
#    y 0.000000 1.854970 0.000000 
#    z 0.000000 0.000000 1.773070 
# 
# From -- ./inp_files/29898.got.cif
#   From: 2010.03.12/outbox.cif.g09.slc.cpg/sg73_15_cif.got.tgz:29898.got - 2010.04.16 15:25:48.
