data_PCOD8295871
_publ_section_title
;
Structure prediction by ZEFSAII (Michael W. Deem and Ramdas Pophale) SiO2 
 PCOD8295871
Probable space group: I B C A 
;
_chemical_formula_sum "Si O2"
_cell_formula_units_Z 80
_cell_length_a 4.865948
_cell_length_b 33.121418
_cell_length_c 22.564447
_cell_angle_alpha 90.000000
_cell_angle_beta 90.000000
_cell_angle_gamma 90.000000
_cell_volume 3636.646434
_symmetry_space_group_name_H-M "I B C A "
_symmetry_group_IT_number 73
_symmetry_cell_setting 'orthorhombic'
loop_
_space_group_symop_operation_xyz
x,y,z
-x,1/2-y,z
x,-y,1/2-z
1/2-x,y,-z
-x,-y,-z
x,1/2+y,-z
-x,y,1/2+z
1/2+x,-y,z
1/2+x,1/2+y,1/2+z
1/2-x,-y,1/2+z
1/2+x,1/2-y,-z
-x,1/2+y,1/2-z
1/2-x,1/2-y,1/2-z
1/2+x,y,1/2-z
1/2-x,1/2+y,z
x,1/2-y,1/2+z
loop_
_atom_site_type_symbol
_atom_site_label
_atom_site_fract_x
_atom_site_fract_y
_atom_site_fract_z
Si Si1 0.154395 0.889901 0.063681
Si Si2 0.294922 0.059124 0.210438
Si Si3 0.912160 0.974785 0.086839
Si Si4 0.828258 0.632659 0.364851
Si Si5 0.475800 0.795746 0.210605
O O1 0.008943 0.933458 0.056806
O O2 0.420086 0.892444 0.106194
O O3 0.919941 0.859545 0.088632
O O4 0.250000 0.873704 0.000000
O O5 0.487020 0.051193 0.267110
O O6 0.394669 0.029966 0.158009
O O7 0.301541 0.105685 0.187907
O O8 0.109941 0.011504 0.066447
O O9 0.943522 0.675323 0.343181
O O10 0.500000 0.750000 0.187156
O O11 0.165771 0.803796 0.231789
#
# Coordination Sequence:
#
# PCOD8295871 Si02
#       5
#    16  16  16  16  16
#     4  11  24  41  61  83 110 152 204 255 305 346
#     4  11  21  34  54  79 111 151 186 224 282 353
#     4  11  23  38  55  80 110 144 192 244 295 349
#     4  11  21  38  60  86 119 152 195 243 287 351
#     4  10  20  35  60  95 129 158 186 224 282 348
#
# _framework density 21.998290000000001
#
# number of rings (size 3 to 8) (size 9 to 14) (size 15 to 20)
#    0.000    1.200    0.000    9.000    0.000    3.200 
#    0.000    0.000    0.000    2.400    0.000    0.000 
#    0.000    0.000    0.000    0.000    0.000    0.000 
#
# Total GULP energy -496026.684683 kJ/mol
# GULP energy per Si atom -12400.667117 kJ/mol
# Density = 2.194822 g / cm^3
# Si number density = 21.998290 Si / 1000 Ang^3
#
#
#
# Elastic Constant Matrix: (Units=GPa)
#
#
# Indices 1 2 3 4 5 6 
#
# 1 114.0139 20.5376 23.1218 0.0000 0.0000 0.0000
# 2 20.5376 71.6005 14.4991 0.0000 0.0000 0.0000
# 3 23.1218 14.4991 46.3951 0.0000 0.0000 0.0000
# 4 0.0000 0.0000 0.0000 20.8901 0.0000 0.0000
# 5 0.0000 0.0000 0.0000 0.0000 39.9141 0.0000
# 6 0.0000 0.0000 0.0000 0.0000 0.0000 34.7141
#
#
#
# Elastic Compliance Matrix: (Units=1/GPa)
#
#
# Indices 1 2 3 4 5 6 
#
# 1 0.010015 -0.001988 -0.004370 0.000000 0.000000 0.000000
# 2 -0.001988 0.015304 -0.003792 0.000000 0.000000 0.000000
# 3 -0.004370 -0.003792 0.024917 0.000000 0.000000 0.000000
# 4 0.000000 0.000000 0.000000 0.047870 0.000000 0.000000
# 5 0.000000 0.000000 0.000000 0.000000 0.025054 0.000000
# 6 0.000000 0.000000 0.000000 0.000000 0.000000 0.028807
#
#
# Mechanical properties :
#
#
# Convention : Reuss Voigt Hill
#
# Bulk Modulus (GPa) = 33.40391 38.70293 36.05342
# Shear Modulus (GPa) = 27.43549 30.69372 29.06461
#
# Velocity S-wave (km/s) = 3.53535 3.73939 3.63880
# Velocity P-wave (km/s) = 5.64648 6.02295 5.83775
#
# Compressibility (1/GPa) = 0.02993662
#
# Stress axis : x y z
#
# Youngs Moduli (GPa) = 99.84865 65.34043 40.13323
#
# Poissons Ratio (x) = 0.12988 0.17538
# Poissons Ratio (y) = 0.19848 0.15219
# Poissons Ratio (z) = 0.43634 0.24778
#
# Static dielectric constant tensor:
#      x y z
#    x 4.320120 0.000000 0.000000 
#    y 0.000000 3.688890 0.000000 
#    z 0.000000 0.000000 3.785990 
# 
# 
# High freq. dielectric constant tensor:
#      x y z
#    x 1.895560 0.000000 0.000000 
#    y 0.000000 1.833490 0.000000 
#    z 0.000000 0.000000 1.846510 
# 
# From -- ./inp_files/28050.got.cif
#   From: 2010.03.12/outbox.cif.g09.slc.cpg/sg73_15_cif.got.tgz:28050.got - 2010.04.16 15:25:48.
