data_PCOD8295444
_publ_section_title
;
Structure prediction by ZEFSAII (Michael W. Deem and Ramdas Pophale) SiO2 
 PCOD8295444
Probable space group: I B A M
;
_chemical_formula_sum "Si O2"
_cell_formula_units_Z 68
_cell_length_a 8.807228
_cell_length_b 20.594401
_cell_length_c 16.663342
_cell_angle_alpha 90.000000
_cell_angle_beta 90.000000
_cell_angle_gamma 90.000000
_cell_volume 3022.390059
_symmetry_space_group_name_H-M "I B A M"
_symmetry_group_IT_number 72
_symmetry_cell_setting 'orthorhombic'
loop_
_space_group_symop_operation_xyz
x,y,z
-x,-y,z
x,-y,1/2-z
-x,y,1/2-z
-x,-y,-z
x,y,-z
-x,y,1/2+z
x,-y,1/2+z
1/2+x,1/2+y,1/2+z
1/2-x,1/2-y,1/2+z
1/2+x,1/2-y,-z
1/2-x,1/2+y,-z
1/2-x,1/2-y,1/2-z
1/2+x,1/2+y,1/2-z
1/2-x,1/2+y,z
1/2+x,1/2-y,z
loop_
_atom_site_type_symbol
_atom_site_label
_atom_site_fract_x
_atom_site_fract_y
_atom_site_fract_z
Si Si1 0.000000 0.000000 0.250000
Si Si2 0.008476 0.423647 0.089420
Si Si3 0.717173 0.172476 0.651640
Si Si4 0.299468 0.612070 0.317004
Si Si5 0.972337 0.783336 0.591554
O O1 0.108522 0.954559 0.196429
O O2 0.844490 0.394818 0.114156
O O3 0.000000 0.500000 0.091547
O O4 0.130498 0.401687 0.154252
O O5 0.051988 0.399453 0.000000
O O6 0.786826 0.157432 0.738648
O O7 0.578375 0.224102 0.649852
O O8 0.848255 0.205297 0.598926
O O9 0.388148 0.650450 0.385494
O O10 0.934688 0.764899 0.500000
#
# Coordination Sequence:
#
# PCOD8295444 Si02
#       5
#     4  16  16  16  16
#     4  12  24  48  72 108 144 188 250 296 364 424
#     4  11  25  45  70 103 141 188 241 300 363 427
#     4  12  25  47  70 104 145 189 243 298 362 434
#     4  12  25  45  71 104 141 190 242 296 360 434
#     4  12  25  44  71 104 143 188 238 302 364 429
#
# _framework density 22.498750000000001
#
# number of rings (size 3 to 8) (size 9 to 14) (size 15 to 20)
#    0.000    0.235    2.353    7.059    0.000    2.824 
#    0.000    1.176    0.000    0.000    0.000    0.000 
#    0.000    0.000    0.000    0.000    0.000    0.000 
#
# Total GULP energy -421785.787341 kJ/mol
# GULP energy per Si atom -12405.464334 kJ/mol
# Density = 2.244754 g / cm^3
# Si number density = 22.498750 Si / 1000 Ang^3
#
#
#
# Elastic Constant Matrix: (Units=GPa)
#
#
# Indices 1 2 3 4 5 6 
#
# 1 121.4254 49.7962 33.6451 0.0000 0.0000 0.0000
# 2 49.7962 112.0954 35.0710 0.0000 0.0000 0.0000
# 3 33.6451 35.0710 97.7909 0.0000 0.0000 0.0000
# 4 0.0000 0.0000 0.0000 25.2323 0.0000 0.0000
# 5 0.0000 0.0000 0.0000 0.0000 37.3388 0.0000
# 6 0.0000 0.0000 0.0000 0.0000 0.0000 55.6457
#
#
#
# Elastic Compliance Matrix: (Units=1/GPa)
#
#
# Indices 1 2 3 4 5 6 
#
# 1 0.010466 -0.003968 -0.002178 0.000000 0.000000 0.000000
# 2 -0.003968 0.011553 -0.002778 0.000000 0.000000 0.000000
# 3 -0.002178 -0.002778 0.011971 0.000000 0.000000 0.000000
# 4 0.000000 0.000000 0.000000 0.039632 0.000000 0.000000
# 5 0.000000 0.000000 0.000000 0.000000 0.026782 0.000000
# 6 0.000000 0.000000 0.000000 0.000000 0.000000 0.017971
#
#
# Mechanical properties :
#
#
# Convention : Reuss Voigt Hill
#
# Bulk Modulus (GPa) = 61.94734 63.14848 62.54791
# Shear Modulus (GPa) = 35.30982 37.82998 36.56990
#
# Velocity S-wave (km/s) = 3.96588 4.10497 4.03602
# Velocity P-wave (km/s) = 6.96881 7.11310 7.04133
#
# Compressibility (1/GPa) = 0.01614274
#
# Stress axis : x y z
#
# Youngs Moduli (GPa) = 95.54524 86.55871 83.53181
#
# Poissons Ratio (x) = 0.34347 0.18192
# Poissons Ratio (y) = 0.37913 0.23205
# Poissons Ratio (z) = 0.20808 0.24046
#
# Static dielectric constant tensor:
#      x y z
#    x 4.247290 0.000000 0.000000 
#    y 0.000000 4.195570 0.000000 
#    z 0.000000 0.000000 4.102310 
# 
# 
# High freq. dielectric constant tensor:
#      x y z
#    x 1.899510 0.000000 0.000000 
#    y 0.000000 1.901860 0.000000 
#    z 0.000000 0.000000 1.885390 
# 
# From -- ./inp_files/27760.got.cif
#   From: 2010.03.12/outbox.cif.g09.slc.cpg/sg72_14_cif.got.tgz:27760.got - 2010.04.16 14:54:00.
