data_PCOD8295585
_publ_section_title
;
Structure prediction by ZEFSAII (Michael W. Deem and Ramdas Pophale) SiO2 
 PCOD8295585
Probable space group: I B C A 
;
_chemical_formula_sum "Si O2"
_cell_formula_units_Z 120
_cell_length_a 14.231047
_cell_length_b 20.594454
_cell_length_c 21.124713
_cell_angle_alpha 90.000000
_cell_angle_beta 90.000000
_cell_angle_gamma 90.000000
_cell_volume 6191.244465
_symmetry_space_group_name_H-M "I B C A "
_symmetry_group_IT_number 73
_symmetry_cell_setting 'orthorhombic'
loop_
_space_group_symop_operation_xyz
x,y,z
-x,1/2-y,z
x,-y,1/2-z
1/2-x,y,-z
-x,-y,-z
x,1/2+y,-z
-x,y,1/2+z
1/2+x,-y,z
1/2+x,1/2+y,1/2+z
1/2-x,-y,1/2+z
1/2+x,1/2-y,-z
-x,1/2+y,1/2-z
1/2-x,1/2-y,1/2-z
1/2+x,y,1/2-z
1/2-x,1/2+y,z
x,1/2-y,1/2+z
loop_
_atom_site_type_symbol
_atom_site_label
_atom_site_fract_x
_atom_site_fract_y
_atom_site_fract_z
Si Si1 0.880280 0.566559 0.837551
Si Si2 0.606144 0.174417 0.932357
Si Si3 0.095343 0.917278 0.042117
Si Si4 0.389130 0.179815 0.911203
Si Si5 0.171585 0.949225 0.174704
Si Si6 0.402567 0.531696 0.944634
Si Si7 0.916799 0.413280 0.202279
Si Si8 0.750000 0.606574 0.500000
O O1 0.852894 0.629623 0.877647
O O2 0.782049 0.546304 0.804916
O O3 0.918107 0.509376 0.881859
O O4 0.968838 0.581963 0.791856
O O5 0.494504 0.172450 0.933713
O O6 0.644287 0.245427 0.914386
O O7 0.634412 0.143919 0.001003
O O8 0.158059 0.918074 0.105446
O O9 0.983598 0.912959 0.055705
O O10 0.101786 0.986281 0.006639
O O11 0.382244 0.147031 0.841437
O O12 0.327556 0.146623 0.963945
O O13 0.120767 0.903135 0.226484
O O14 0.126585 0.020622 0.174431
O O15 0.301204 0.565744 0.944801
#
# Coordination Sequence:
#
# PCOD8295585 Si02
#       8
#    16  16  16  16  16  16  16   8
#     4  10  20  37  58  83 110 155 193 234 298 348
#     4   9  20  37  60  79 112 151 191 245 292 352
#     4  10  18  34  55  85 114 147 181 241 300 338
#     4  10  20  37  56  82 114 152 197 234 291 351
#     4  11  22  35  58  86 118 150 194 239 290 359
#     4  10  18  30  56  84 122 140 178 241 300 349
#     4  10  22  39  55  81 120 157 192 234 287 358
#     4  12  20  30  56  92 110 148 192 244 298 354
#
# _framework density 19.382210000000001
#
# number of rings (size 3 to 8) (size 9 to 14) (size 15 to 20)
#    0.000    1.867    2.667    2.400    0.000    4.800 
#    2.400    0.667    0.000    6.400    0.000    0.000 
#    0.000    0.000    0.000    0.000    0.000    0.000 
#
# Total GULP energy -743515.043229 kJ/mol
# GULP energy per Si atom -12391.917387 kJ/mol
# Density = 1.933810 g / cm^3
# Si number density = 19.382210 Si / 1000 Ang^3
#
#
#
# Elastic Constant Matrix: (Units=GPa)
#
#
# Indices 1 2 3 4 5 6 
#
# 1 90.8247 10.9087 20.7844 0.0000 0.0000 0.0000
# 2 10.9087 89.8057 25.7665 0.0000 0.0000 0.0000
# 3 20.7844 25.7665 95.4044 0.0000 0.0000 0.0000
# 4 0.0000 0.0000 0.0000 21.2521 0.0000 0.0000
# 5 0.0000 0.0000 0.0000 0.0000 21.0428 0.0000
# 6 0.0000 0.0000 0.0000 0.0000 0.0000 40.4591
#
#
#
# Elastic Compliance Matrix: (Units=1/GPa)
#
#
# Indices 1 2 3 4 5 6 
#
# 1 0.011634 -0.000744 -0.002334 0.000000 0.000000 0.000000
# 2 -0.000744 0.012118 -0.003111 0.000000 0.000000 0.000000
# 3 -0.002334 -0.003111 0.011830 0.000000 0.000000 0.000000
# 4 0.000000 0.000000 0.000000 0.047054 0.000000 0.000000
# 5 0.000000 0.000000 0.000000 0.000000 0.047522 0.000000
# 6 0.000000 0.000000 0.000000 0.000000 0.000000 0.024716
#
#
# Mechanical properties :
#
#
# Convention : Reuss Voigt Hill
#
# Bulk Modulus (GPa) = 43.09265 43.43934 43.26599
# Shear Modulus (GPa) = 28.57376 31.12248 29.84812
#
# Velocity S-wave (km/s) = 3.84373 4.01150 3.92851
# Velocity P-wave (km/s) = 6.47923 6.62697 6.55352
#
# Compressibility (1/GPa) = 0.02320582
#
# Stress axis : x y z
#
# Youngs Moduli (GPa) = 85.95819 82.52185 84.52912
#
# Poissons Ratio (x) = 0.06136 0.19726
# Poissons Ratio (y) = 0.06392 0.26295
# Poissons Ratio (z) = 0.20059 0.25671
#
# Static dielectric constant tensor:
#      x y z
#    x 3.923830 0.000000 0.000000 
#    y 0.000000 3.690280 0.000000 
#    z 0.000000 0.000000 3.439750 
# 
# 
# High freq. dielectric constant tensor:
#      x y z
#    x 1.768260 0.000000 0.000000 
#    y 0.000000 1.728950 0.000000 
#    z 0.000000 0.000000 1.738500 
# 
# From -- ./inp_files/18943.got.cif
#   From: 2010.03.12/outbox.cif.g09.slc.cpg/sg73_10_cif.got.tgz:18943.got - 2010.04.16 15:25:48.
