data_PCOD8295003
_publ_section_title
;
Structure prediction by ZEFSAII (Michael W. Deem and Ramdas Pophale) SiO2 
 PCOD8295003
Probable space group: I B A M
;
_chemical_formula_sum "Si O2"
_cell_formula_units_Z 80
_cell_length_a 15.714672
_cell_length_b 8.778763
_cell_length_c 26.425175
_cell_angle_alpha 90.000000
_cell_angle_beta 90.000000
_cell_angle_gamma 90.000000
_cell_volume 3645.495088
_symmetry_space_group_name_H-M "I B A M"
_symmetry_group_IT_number 72
_symmetry_cell_setting 'orthorhombic'
loop_
_space_group_symop_operation_xyz
x,y,z
-x,-y,z
x,-y,1/2-z
-x,y,1/2-z
-x,-y,-z
x,y,-z
-x,y,1/2+z
x,-y,1/2+z
1/2+x,1/2+y,1/2+z
1/2-x,1/2-y,1/2+z
1/2+x,1/2-y,-z
1/2-x,1/2+y,-z
1/2-x,1/2-y,1/2-z
1/2+x,1/2+y,1/2-z
1/2-x,1/2+y,z
1/2+x,1/2-y,z
loop_
_atom_site_type_symbol
_atom_site_label
_atom_site_fract_x
_atom_site_fract_y
_atom_site_fract_z
Si Si1 0.184942 0.128287 0.659878
Si Si2 0.653648 0.047954 0.304298
Si Si3 0.584111 0.072866 0.095798
Si Si4 0.913700 0.929489 0.092875
Si Si5 0.760525 0.908434 0.555111
O O1 0.253933 0.027045 0.688761
O O2 0.159140 0.268623 0.694758
O O3 0.222072 0.195650 0.605423
O O4 0.105415 0.017025 0.646429
O O5 0.590272 0.993337 0.347705
O O6 0.616230 0.000000 0.250000
O O7 0.572835 0.252509 0.100390
O O8 0.664974 0.024921 0.061464
O O9 0.500000 0.000000 0.070374
O O10 0.831740 0.956219 0.056133
O O11 0.000000 0.000000 0.069183
O O12 0.767367 0.825963 0.500000
#
# Coordination Sequence:
#
# PCOD8295003 Si02
#       5
#    16  16  16  16  16
#     4   9  20  37  60  95 127 165 215 268 333 394
#     4  11  21  38  65  94 128 169 217 273 337 400
#     4  11  24  41  64  96 134 173 223 279 336 396
#     4  10  22  41  66  91 131 175 213 277 330 394
#     4   9  22  41  66  93 130 175 223 272 335 401
#
# _framework density 21.944893
#
# number of rings (size 3 to 8) (size 9 to 14) (size 15 to 20)
#    1.200    0.800    0.000    4.200    0.000    2.000 
#    0.000    0.000    0.000    4.200    0.000    0.000 
#    0.000    0.000    0.000    0.000    0.000    0.000 
#
# Total GULP energy -495529.648928 kJ/mol
# GULP energy per Si atom -12388.241223 kJ/mol
# Density = 2.189495 g / cm^3
# Si number density = 21.944893 Si / 1000 Ang^3
#
#
#
# Elastic Constant Matrix: (Units=GPa)
#
#
# Indices 1 2 3 4 5 6 
#
# 1 149.7897 46.9483 -0.6588 0.0000 0.0000 0.0000
# 2 46.9483 135.0938 5.4917 0.0000 0.0000 0.0000
# 3 -0.6588 5.4917 76.9139 0.0000 0.0000 0.0000
# 4 0.0000 0.0000 0.0000 16.7499 0.0000 0.0000
# 5 0.0000 0.0000 0.0000 0.0000 3.6721 0.0000
# 6 0.0000 0.0000 0.0000 0.0000 0.0000 31.1297
#
#
#
# Elastic Compliance Matrix: (Units=1/GPa)
#
#
# Indices 1 2 3 4 5 6 
#
# 1 0.007497 -0.002616 0.000251 0.000000 0.000000 0.000000
# 2 -0.002616 0.008336 -0.000618 0.000000 0.000000 0.000000
# 3 0.000251 -0.000618 0.013048 0.000000 0.000000 0.000000
# 4 0.000000 0.000000 0.000000 0.059702 0.000000 0.000000
# 5 0.000000 0.000000 0.000000 0.000000 0.272324 0.000000
# 6 0.000000 0.000000 0.000000 0.000000 0.000000 0.032124
#
#
# Mechanical properties :
#
#
# Convention : Reuss Voigt Hill
#
# Bulk Modulus (GPa) = 43.63643 51.70663 47.67153
# Shear Modulus (GPa) = 12.29608 30.97810 21.63709
#
# Velocity S-wave (km/s) = 2.36967 3.76124 3.14343
# Velocity P-wave (km/s) = 5.23592 6.51735 5.91146
#
# Compressibility (1/GPa) = 0.02291663
#
# Stress axis : x y z
#
# Youngs Moduli (GPa) = 133.38811 119.95670 76.64129
#
# Poissons Ratio (x) = 0.31375 -0.01923
# Poissons Ratio (y) = 0.34888 0.04734
# Poissons Ratio (z) = -0.03348 0.07409
#
# Static dielectric constant tensor:
#      x y z
#    x 4.130330 0.000000 0.000000 
#    y 0.000000 3.603520 0.000000 
#    z 0.000000 0.000000 3.723050 
# 
# 
# High freq. dielectric constant tensor:
#      x y z
#    x 1.865120 0.000000 0.000000 
#    y 0.000000 1.849730 0.000000 
#    z 0.000000 0.000000 1.837360 
# 
# From -- ./inp_files/48961.got.cif
#   From: 2010.03.12/outbox.cif.g09.slc.cpg/sg72_25_cif.got.tgz:48961.got - 2010.04.16 14:54:00.
