data_PCOD8295624
_publ_section_title
;
Structure prediction by ZEFSAII (Michael W. Deem and Ramdas Pophale) SiO2 
 PCOD8295624
Probable space group: I B C A 
;
_chemical_formula_sum "Si O2"
_cell_formula_units_Z 88
_cell_length_a 17.932135
_cell_length_b 13.683608
_cell_length_c 18.656405
_cell_angle_alpha 90.000000
_cell_angle_beta 90.000000
_cell_angle_gamma 90.000000
_cell_volume 4577.839741
_symmetry_space_group_name_H-M "I B C A "
_symmetry_group_IT_number 73
_symmetry_cell_setting 'orthorhombic'
loop_
_space_group_symop_operation_xyz
x,y,z
-x,1/2-y,z
x,-y,1/2-z
1/2-x,y,-z
-x,-y,-z
x,1/2+y,-z
-x,y,1/2+z
1/2+x,-y,z
1/2+x,1/2+y,1/2+z
1/2-x,-y,1/2+z
1/2+x,1/2-y,-z
-x,1/2+y,1/2-z
1/2-x,1/2-y,1/2-z
1/2+x,y,1/2-z
1/2-x,1/2+y,z
x,1/2-y,1/2+z
loop_
_atom_site_type_symbol
_atom_site_label
_atom_site_fract_x
_atom_site_fract_y
_atom_site_fract_z
Si Si1 0.610243 0.000000 0.750000
Si Si2 0.372888 0.438895 0.405893
Si Si3 0.168953 0.784309 0.514505
Si Si4 0.508850 0.635398 0.157777
Si Si5 0.896416 0.592216 0.979465
Si Si6 0.202198 0.037717 0.886479
O O1 0.560275 0.911888 0.719035
O O2 0.665039 0.957548 0.809408
O O3 0.362770 0.335148 0.443799
O O4 0.427778 0.417892 0.338920
O O5 0.415383 0.512564 0.460176
O O6 0.291455 0.475292 0.380300
O O7 0.250000 0.741272 0.500000
O O8 0.117914 0.689740 0.526603
O O9 0.173882 0.860992 0.579118
O O10 0.500000 0.750000 0.173816
O O11 0.538278 0.613553 0.077296
O O12 0.824801 0.553685 0.934420
#
# Coordination Sequence:
#
# PCOD8295624 Si02
#       6
#     8  16  16  16  16  16
#     4  10  24  44  56  76 120 166 204 234 284 350
#     4  10  19  34  58  92 110 145 193 244 297 351
#     4   9  16  30  56  88 114 136 182 239 295 341
#     4  11  22  40  60  82 122 162 189 240 301 357
#     4  10  18  34  61  89 119 145 184 243 312 343
#     4   9  20  36  59  84 116 151 196 243 284 349
#
# _framework density 19.223040999999998
#
# number of rings (size 3 to 8) (size 9 to 14) (size 15 to 20)
#    0.000    2.182    1.818    3.273    0.000    0.727 
#    3.273    0.909    0.000    0.000    0.000    0.000 
#    0.000    0.000    0.000    0.000    0.000    0.000 
#
# Total GULP energy -545225.411871 kJ/mol
# GULP energy per Si atom -12391.486633 kJ/mol
# Density = 1.917929 g / cm^3
# Si number density = 19.223041 Si / 1000 Ang^3
#
#
#
# Elastic Constant Matrix: (Units=GPa)
#
#
# Indices 1 2 3 4 5 6 
#
# 1 87.7911 36.0122 37.6499 0.0000 0.0000 0.0000
# 2 36.0122 95.8648 29.6479 0.0000 0.0000 0.0000
# 3 37.6499 29.6479 85.8792 0.0000 0.0000 0.0000
# 4 0.0000 0.0000 0.0000 13.4788 0.0000 0.0000
# 5 0.0000 0.0000 0.0000 0.0000 31.1271 0.0000
# 6 0.0000 0.0000 0.0000 0.0000 0.0000 -45.3469
#
#
#
# Elastic Compliance Matrix: (Units=1/GPa)
#
#
# Indices 1 2 3 4 5 6 
#
# 1 0.015361 -0.004129 -0.005309 0.000000 0.000000 0.000000
# 2 -0.004129 0.012788 -0.002605 0.000000 0.000000 0.000000
# 3 -0.005309 -0.002605 0.014871 0.000000 0.000000 0.000000
# 4 0.000000 0.000000 0.000000 0.074191 0.000000 0.000000
# 5 0.000000 0.000000 0.000000 0.000000 0.032126 0.000000
# 6 0.000000 0.000000 0.000000 0.000000 0.000000 -0.022052
#
#
# Mechanical properties :
#
#
# Convention : Reuss Voigt Hill
#
# Bulk Modulus (GPa) = 52.81178 52.90614 52.85896
# Shear Modulus (GPa) = 31.70953 10.93347 21.32150
#
# Velocity S-wave (km/s) = 4.06588 2.38747 3.33402
# Velocity P-wave (km/s) = 7.04093 5.93145 6.50987
#
# Compressibility (1/GPa) = 0.01893517
#
# Stress axis : x y z
#
# Youngs Moduli (GPa) = 65.09959 78.19935 67.24488
#
# Poissons Ratio (x) = 0.32285 0.35701
# Poissons Ratio (y) = 0.26877 0.17515
# Poissons Ratio (z) = 0.34562 0.20369
#
# Static dielectric constant tensor:
#      x y z
#    x 3.649130 0.000000 0.000000 
#    y 0.000000 3.438100 0.000000 
#    z 0.000000 0.000000 3.304620 
# 
# 
# High freq. dielectric constant tensor:
#      x y z
#    x 1.757890 0.000000 0.000000 
#    y 0.000000 1.753860 0.000000 
#    z 0.000000 0.000000 1.712990 
# 
# From -- ./inp_files/11856.got.cif
#   From: 2010.03.12/outbox.cif.g09.slc.cpg/sg73_6_cif.got.tgz:11856.got - 2010.04.16 15:25:48.
