data_PCOD8295997
_publ_section_title
;
Structure prediction by ZEFSAII (Michael W. Deem and Ramdas Pophale) SiO2 
 PCOD8295997
Probable space group: I B C A 
;
_chemical_formula_sum "Si O2"
_cell_formula_units_Z 80
_cell_length_a 8.038536
_cell_length_b 19.331163
_cell_length_c 22.201885
_cell_angle_alpha 90.000000
_cell_angle_beta 90.000000
_cell_angle_gamma 90.000000
_cell_volume 3450.045261
_symmetry_space_group_name_H-M "I B C A "
_symmetry_group_IT_number 73
_symmetry_cell_setting 'orthorhombic'
loop_
_space_group_symop_operation_xyz
x,y,z
-x,1/2-y,z
x,-y,1/2-z
1/2-x,y,-z
-x,-y,-z
x,1/2+y,-z
-x,y,1/2+z
1/2+x,-y,z
1/2+x,1/2+y,1/2+z
1/2-x,-y,1/2+z
1/2+x,1/2-y,-z
-x,1/2+y,1/2-z
1/2-x,1/2-y,1/2-z
1/2+x,y,1/2-z
1/2-x,1/2+y,z
x,1/2-y,1/2+z
loop_
_atom_site_type_symbol
_atom_site_label
_atom_site_fract_x
_atom_site_fract_y
_atom_site_fract_z
Si Si1 0.156243 0.704067 0.797518
Si Si2 0.974437 0.963755 0.348950
Si Si3 0.343990 0.594730 0.299653
Si Si4 0.265456 0.441843 0.567544
Si Si5 0.559966 0.321054 0.110584
O O1 0.250000 0.750000 0.750000
O O2 0.121731 0.627292 0.767362
O O3 0.271841 0.692207 0.853680
O O4 0.000000 0.750000 0.818198
O O5 0.856068 0.913280 0.308900
O O6 0.099824 0.922347 0.393615
O O7 0.847628 0.998059 0.394926
O O8 0.063800 0.020622 0.305991
O O9 0.413655 0.649978 0.347282
O O10 0.250000 0.470446 0.500000
O O11 0.389782 0.376385 0.560084
O O12 0.500000 0.250000 0.079735
#
# Coordination Sequence:
#
# PCOD8295997 Si02
#       5
#    16  16  16  16  16
#     4  12  22  39  67  88 121 168 207 247 307 374
#     4   9  21  39  64  90 125 157 199 259 306 376
#     4  10  20  40  59  91 122 161 204 249 310 370
#     4  10  21  40  65  89 120 160 206 255 315 365
#     4  11  23  40  59  87 123 159 212 258 295 368
#
# _framework density 23.188102000000001
#
# number of rings (size 3 to 8) (size 9 to 14) (size 15 to 20)
#    0.000    1.600    4.000    0.600    2.800    0.000 
#    0.000   20.000    0.000    0.000    0.000    0.000 
#    0.000    0.000    0.000    0.000    0.000    0.000 
#
# Total GULP energy -495713.574861 kJ/mol
# GULP energy per Si atom -12392.839372 kJ/mol
# Density = 2.313532 g / cm^3
# Si number density = 23.188102 Si / 1000 Ang^3
#
#
#
# Elastic Constant Matrix: (Units=GPa)
#
#
# Indices 1 2 3 4 5 6 
#
# 1 122.3500 36.4292 20.8461 0.0000 0.0000 0.0000
# 2 36.4292 99.7857 -1.5331 0.0000 0.0000 0.0000
# 3 20.8461 -1.5331 63.2098 0.0000 0.0000 0.0000
# 4 0.0000 0.0000 0.0000 3.6619 0.0000 0.0000
# 5 0.0000 0.0000 0.0000 0.0000 15.0487 0.0000
# 6 0.0000 0.0000 0.0000 0.0000 0.0000 46.0535
#
#
#
# Elastic Compliance Matrix: (Units=1/GPa)
#
#
# Indices 1 2 3 4 5 6 
#
# 1 0.009823 -0.003637 -0.003328 0.000000 0.000000 0.000000
# 2 -0.003637 0.011372 0.001475 0.000000 0.000000 0.000000
# 3 -0.003328 0.001475 0.016954 0.000000 0.000000 0.000000
# 4 0.000000 0.000000 0.000000 0.273085 0.000000 0.000000
# 5 0.000000 0.000000 0.000000 0.000000 0.066451 0.000000
# 6 0.000000 0.000000 0.000000 0.000000 0.000000 0.021714
#
#
# Mechanical properties :
#
#
# Convention : Reuss Voigt Hill
#
# Bulk Modulus (GPa) = 36.80623 44.09219 40.44921
# Shear Modulus (GPa) = 11.92080 28.25970 20.09025
#
# Velocity S-wave (km/s) = 2.26982 3.49480 2.94667
# Velocity P-wave (km/s) = 4.77250 5.94484 5.39063
#
# Compressibility (1/GPa) = 0.02716931
#
# Stress axis : x y z
#
# Youngs Moduli (GPa) = 101.79893 87.93489 58.98441
#
# Poissons Ratio (x) = 0.31985 0.19629
# Poissons Ratio (y) = 0.37028 -0.08703
# Poissons Ratio (z) = 0.33877 -0.12974
#
# Static dielectric constant tensor:
#      x y z
#    x 4.631560 0.000000 0.000000 
#    y 0.000000 4.869570 0.000000 
#    z 0.000000 0.000000 3.590410 
# 
# 
# High freq. dielectric constant tensor:
#      x y z
#    x 1.939080 0.000000 0.000000 
#    y 0.000000 1.928670 0.000000 
#    z 0.000000 0.000000 1.875320 
# 
# From -- ./inp_files/23807.got.cif
#   From: 2010.03.12/outbox.cif.g09.slc.cpg/sg73_12_cif.got.tgz:23807.got - 2010.04.16 15:25:48.
