data_PCOD8295657
_publ_section_title
;
Structure prediction by ZEFSAII (Michael W. Deem and Ramdas Pophale) SiO2 
 PCOD8295657
Probable space group: I B C A 
;
_chemical_formula_sum "Si O2"
_cell_formula_units_Z 80
_cell_length_a 15.432355
_cell_length_b 22.271290
_cell_length_c 11.544863
_cell_angle_alpha 90.000000
_cell_angle_beta 90.000000
_cell_angle_gamma 90.000000
_cell_volume 3967.951560
_symmetry_space_group_name_H-M "I B C A "
_symmetry_group_IT_number 73
_symmetry_cell_setting 'orthorhombic'
loop_
_space_group_symop_operation_xyz
x,y,z
-x,1/2-y,z
x,-y,1/2-z
1/2-x,y,-z
-x,-y,-z
x,1/2+y,-z
-x,y,1/2+z
1/2+x,-y,z
1/2+x,1/2+y,1/2+z
1/2-x,-y,1/2+z
1/2+x,1/2-y,-z
-x,1/2+y,1/2-z
1/2-x,1/2-y,1/2-z
1/2+x,y,1/2-z
1/2-x,1/2+y,z
x,1/2-y,1/2+z
loop_
_atom_site_type_symbol
_atom_site_label
_atom_site_fract_x
_atom_site_fract_y
_atom_site_fract_z
Si Si1 0.250000 0.390743 0.500000
Si Si2 0.936484 0.644307 0.913056
Si Si3 0.500000 0.250000 0.048415
Si Si4 0.048161 0.941233 0.105292
Si Si5 0.094560 0.069689 0.140694
Si Si6 0.396611 0.146109 0.158568
O O1 0.311626 0.430695 0.418775
O O2 0.193096 0.350930 0.411740
O O3 0.935192 0.710648 0.968596
O O4 0.879243 0.642671 0.796580
O O5 0.038247 0.629066 0.887590
O O6 0.900829 0.594010 0.003072
O O7 0.446983 0.207198 0.133501
O O8 0.105718 0.933647 0.221253
O O9 0.952062 0.912530 0.120042
O O10 0.040646 0.013203 0.086687
#
# Coordination Sequence:
#
# PCOD8295657 Si02
#       6
#     8  16   8  16  16  16
#     4  12  22  40  56  96 124 154 184 274 306 342
#     4  10  19  37  65  87 112 165 210 237 281 385
#     4  10  18  38  64  88 112 162 210 244 284 376
#     4   9  19  39  60  88 116 167 203 236 278 391
#     4  10  20  37  61  89 124 154 202 244 302 349
#     4  10  22  37  65  88 121 156 208 244 308 346
#
# _framework density 20.161536999999999
#
# number of rings (size 3 to 8) (size 9 to 14) (size 15 to 20)
#    0.000    2.000    4.000    1.200    0.000    0.000 
#    7.200    1.000    0.000    0.000    0.000    0.000 
#    0.000    0.000    0.000    0.000    0.000    0.000 
#
# Total GULP energy -495845.671436 kJ/mol
# GULP energy per Si atom -12396.141786 kJ/mol
# Density = 2.011565 g / cm^3
# Si number density = 20.161537 Si / 1000 Ang^3
#
#
#
# Elastic Constant Matrix: (Units=GPa)
#
#
# Indices 1 2 3 4 5 6 
#
# 1 84.7251 25.2204 45.2598 0.0000 0.0000 0.0000
# 2 25.2204 114.3754 35.9756 0.0000 0.0000 0.0000
# 3 45.2598 35.9756 150.3757 0.0001 0.0000 0.0000
# 4 0.0000 0.0000 0.0001 29.7976 0.0000 0.0000
# 5 0.0000 0.0000 0.0000 0.0000 35.0790 0.0000
# 6 0.0000 0.0000 0.0000 0.0000 0.0000 14.4632
#
#
#
# Elastic Compliance Matrix: (Units=1/GPa)
#
#
# Indices 1 2 3 4 5 6 
#
# 1 0.014462 -0.001968 -0.003882 0.000000 0.000000 0.000000
# 2 -0.001968 0.009722 -0.001734 0.000000 0.000000 0.000000
# 3 -0.003882 -0.001734 0.008233 0.000000 0.000000 0.000000
# 4 0.000000 0.000000 0.000000 0.033560 0.000000 0.000000
# 5 0.000000 0.000000 0.000000 0.000000 0.028507 0.000000
# 6 0.000000 0.000000 0.000000 0.000000 0.000000 0.069141
#
#
# Mechanical properties :
#
#
# Convention : Reuss Voigt Hill
#
# Bulk Modulus (GPa) = 57.96883 62.48750 60.22817
# Shear Modulus (GPa) = 27.09388 32.06931 29.58159
#
# Velocity S-wave (km/s) = 3.66982 3.99258 3.83460
# Velocity P-wave (km/s) = 6.83896 7.23291 7.03869
#
# Compressibility (1/GPa) = 0.01725065
#
# Stress axis : x y z
#
# Youngs Moduli (GPa) = 69.14440 102.85535 121.45974
#
# Poissons Ratio (x) = 0.20242 0.47152
# Poissons Ratio (y) = 0.13608 0.21057
# Poissons Ratio (z) = 0.26842 0.17831
#
# Static dielectric constant tensor:
#      x y z
#    x 3.107930 0.000000 0.000000 
#    y 0.000000 3.616230 0.000000 
#    z 0.000000 0.000000 4.252190 
# 
# 
# High freq. dielectric constant tensor:
#      x y z
#    x 1.724660 0.000000 0.000000 
#    y 0.000000 1.784810 0.000000 
#    z 0.000000 0.000000 1.826190 
# 
# From -- ./inp_files/10862.got.cif
#   From: 2010.03.12/outbox.cif.g09.slc.cpg/sg73_6_cif.got.tgz:10862.got - 2010.04.16 15:25:48.
