data_PCOD8295952
_publ_section_title
;
Structure prediction by ZEFSAII (Michael W. Deem and Ramdas Pophale) SiO2 
 PCOD8295952
Probable space group: I B C A 
;
_chemical_formula_sum "Si O2"
_cell_formula_units_Z 104
_cell_length_a 26.784387
_cell_length_b 9.086099
_cell_length_c 19.655038
_cell_angle_alpha 90.000000
_cell_angle_beta 90.000000
_cell_angle_gamma 90.000000
_cell_volume 4783.359957
_symmetry_space_group_name_H-M "I B C A "
_symmetry_group_IT_number 73
_symmetry_cell_setting 'orthorhombic'
loop_
_space_group_symop_operation_xyz
x,y,z
-x,1/2-y,z
x,-y,1/2-z
1/2-x,y,-z
-x,-y,-z
x,1/2+y,-z
-x,y,1/2+z
1/2+x,-y,z
1/2+x,1/2+y,1/2+z
1/2-x,-y,1/2+z
1/2+x,1/2-y,-z
-x,1/2+y,1/2-z
1/2-x,1/2-y,1/2-z
1/2+x,y,1/2-z
1/2-x,1/2+y,z
x,1/2-y,1/2+z
loop_
_atom_site_type_symbol
_atom_site_label
_atom_site_fract_x
_atom_site_fract_y
_atom_site_fract_z
Si Si1 0.282488 0.134011 0.134090
Si Si2 0.964446 0.045979 0.675191
Si Si3 0.575162 0.863632 0.661130
Si Si4 0.126199 0.568699 0.050585
Si Si5 0.150658 0.500000 0.250000
Si Si6 0.303878 0.450038 0.171772
Si Si7 0.896940 0.394513 0.417245
O O1 0.314973 0.103207 0.065723
O O2 0.273655 0.300825 0.156989
O O3 0.314253 0.057697 0.192157
O O4 0.226821 0.069800 0.127680
O O5 0.937003 0.193663 0.648768
O O6 0.023857 0.054382 0.678422
O O7 0.945153 0.000000 0.750000
O O8 0.950649 0.928458 0.616428
O O9 0.601232 0.944947 0.597942
O O10 0.613847 0.870459 0.724038
O O11 0.099301 0.726714 0.057800
O O12 0.119683 0.508045 0.975242
O O13 0.304822 0.500000 0.250000
O O14 0.359215 0.424117 0.144891
#
# Coordination Sequence:
#
# PCOD8295952 Si02
#       7
#    16  16  16  16   8  16  16
#     4  10  23  38  64  90 127 163 207 255 317 368
#     4  11  24  39  65 100 126 170 205 265 315 381
#     4  10  23  40  65  91 131 162 214 254 321 370
#     4  10  24  45  63  94 121 179 211 263 317 371
#     4  10  20  38  60  90 126 164 194 258 304 376
#     4  11  23  39  61  98 124 163 205 263 314 378
#     4  11  25  42  65  90 131 165 221 259 315 380
#
# _framework density 21.742038999999998
#
# number of rings (size 3 to 8) (size 9 to 14) (size 15 to 20)
#    0.000    1.538    1.538    1.846    8.615    4.308 
#    0.000    3.077    0.000    0.000    0.000    0.000 
#    0.000    0.000    0.000    0.000    0.000    0.000 
#
# Total GULP energy -644503.405718 kJ/mol
# GULP energy per Si atom -12394.296264 kJ/mol
# Density = 2.169255 g / cm^3
# Si number density = 21.742039 Si / 1000 Ang^3
#
#
#
# Elastic Constant Matrix: (Units=GPa)
#
#
# Indices 1 2 3 4 5 6 
#
# 1 37.4180 17.6652 1.0927 0.0000 0.0000 0.0000
# 2 17.6652 106.2947 27.0145 0.0000 0.0000 0.0000
# 3 1.0927 27.0145 81.3548 0.0000 0.0000 0.0000
# 4 0.0000 0.0000 0.0000 33.8440 0.0000 0.0000
# 5 0.0000 0.0000 0.0000 0.0000 21.9955 0.0000
# 6 0.0000 0.0000 0.0000 0.0000 0.0000 42.8075
#
#
#
# Elastic Compliance Matrix: (Units=1/GPa)
#
#
# Indices 1 2 3 4 5 6 
#
# 1 0.029131 -0.005179 0.001328 0.000000 0.000000 0.000000
# 2 -0.005179 0.011196 -0.003648 0.000000 0.000000 0.000000
# 3 0.001328 -0.003648 0.013485 0.000000 0.000000 0.000000
# 4 0.000000 0.000000 0.000000 0.029547 0.000000 0.000000
# 5 0.000000 0.000000 0.000000 0.000000 0.045464 0.000000
# 6 0.000000 0.000000 0.000000 0.000000 0.000000 0.023360
#
#
# Mechanical properties :
#
#
# Convention : Reuss Voigt Hill
#
# Bulk Modulus (GPa) = 25.76311 35.17916 30.47114
# Shear Modulus (GPa) = 27.75936 31.68242 29.72089
#
# Velocity S-wave (km/s) = 3.57705 3.82147 3.70128
# Velocity P-wave (km/s) = 5.37918 5.97385 5.68430
#
# Compressibility (1/GPa) = 0.03881519
#
# Stress axis : x y z
#
# Youngs Moduli (GPa) = 34.32727 89.32044 74.15451
#
# Poissons Ratio (x) = 0.46259 -0.09851
# Poissons Ratio (y) = 0.17778 0.27052
# Poissons Ratio (z) = -0.04560 0.32584
#
# Static dielectric constant tensor:
#      x y z
#    x 4.022540 0.000000 0.000000 
#    y 0.000000 3.312520 0.000000 
#    z 0.000000 0.000000 4.280040 
# 
# 
# High freq. dielectric constant tensor:
#      x y z
#    x 1.857760 0.000000 0.000000 
#    y 0.000000 1.864250 0.000000 
#    z 0.000000 0.000000 1.845340 
# 
# From -- ./inp_files/8497.got.cif
#   From: 2010.03.12/outbox.cif.g09.slc.cpg/sg73_5_cif.got.tgz:8497.got - 2010.04.16 15:25:48.
