data_PCOD8295185
_publ_section_title
;
Structure prediction by ZEFSAII (Michael W. Deem and Ramdas Pophale) SiO2 
 PCOD8295185
Probable space group: I B A M
;
_chemical_formula_sum "Si O2"
_cell_formula_units_Z 88
_cell_length_a 27.674052
_cell_length_b 10.581333
_cell_length_c 15.189735
_cell_angle_alpha 90.000000
_cell_angle_beta 90.000000
_cell_angle_gamma 90.000000
_cell_volume 4447.985184
_symmetry_space_group_name_H-M "I B A M"
_symmetry_group_IT_number 72
_symmetry_cell_setting 'orthorhombic'
loop_
_space_group_symop_operation_xyz
x,y,z
-x,-y,z
x,-y,1/2-z
-x,y,1/2-z
-x,-y,-z
x,y,-z
-x,y,1/2+z
x,-y,1/2+z
1/2+x,1/2+y,1/2+z
1/2-x,1/2-y,1/2+z
1/2+x,1/2-y,-z
1/2-x,1/2+y,-z
1/2-x,1/2-y,1/2-z
1/2+x,1/2+y,1/2-z
1/2-x,1/2+y,z
1/2+x,1/2-y,z
loop_
_atom_site_type_symbol
_atom_site_label
_atom_site_fract_x
_atom_site_fract_y
_atom_site_fract_z
Si Si1 0.433882 0.378605 0.901439
Si Si2 0.615124 0.736042 0.738854
Si Si3 0.779244 0.795075 0.166029
Si Si4 0.352261 0.000000 0.250000
Si Si5 0.777182 0.467915 0.401474
Si Si6 0.459018 0.670260 0.097704
O O1 0.395001 0.347837 0.825651
O O2 0.484258 0.305878 0.883624
O O3 0.445322 0.524821 0.895568
O O4 0.414049 0.345467 0.000000
O O5 0.664276 0.691900 0.690835
O O6 0.571661 0.741673 0.670055
O O7 0.616215 0.878976 0.772580
O O8 0.750000 0.750000 0.250000
O O9 0.764861 0.682928 0.097217
O O10 0.764290 0.934652 0.131955
O O11 0.321996 0.976836 0.162664
O O12 0.791156 0.508337 0.500000
O O13 0.446172 0.720905 0.000000
#
# Coordination Sequence:
#
# PCOD8295185 Si02
#       6
#    16  16  16   8  16  16
#     4   9  19  37  59  88 118 150 188 239 298 356
#     4  11  21  36  61  82 116 156 192 240 292 343
#     4  11  22  42  59  86 126 156 201 253 298 350
#     4  10  24  42  55  80 120 158 199 244 282 358
#     4  11  22  41  64  83 114 165 203 245 301 351
#     4   9  19  36  59  87 120 148 189 242 298 355
#
# _framework density 19.784237999999998
#
# number of rings (size 3 to 8) (size 9 to 14) (size 15 to 20)
#    0.000    1.818    3.636    2.727    0.000    8.727 
#    0.000    3.636    0.000    2.182    0.000    0.000 
#    0.000    0.000    0.000    0.000    0.000    0.000 
#
# Total GULP energy -545169.884891 kJ/mol
# GULP energy per Si atom -12390.224657 kJ/mol
# Density = 1.973921 g / cm^3
# Si number density = 19.784238 Si / 1000 Ang^3
#
#
#
# Elastic Constant Matrix: (Units=GPa)
#
#
# Indices 1 2 3 4 5 6 
#
# 1 62.0095 29.7236 34.4195 0.0000 0.0000 0.0000
# 2 29.7236 75.8952 22.5367 0.0000 0.0000 0.0000
# 3 34.4195 22.5367 124.7176 0.0000 0.0000 0.0000
# 4 0.0000 0.0000 0.0000 20.1934 0.0000 0.0000
# 5 0.0000 0.0000 0.0000 0.0000 -11.8251 0.0000
# 6 0.0000 0.0000 0.0000 0.0000 0.0000 26.7020
#
#
#
# Elastic Compliance Matrix: (Units=1/GPa)
#
#
# Indices 1 2 3 4 5 6 
#
# 1 0.022312 -0.007302 -0.004838 0.000000 0.000000 0.000000
# 2 -0.007302 0.016313 -0.000933 0.000000 0.000000 0.000000
# 3 -0.004838 -0.000933 0.009522 0.000000 0.000000 0.000000
# 4 0.000000 0.000000 0.000000 0.049521 0.000000 0.000000
# 5 0.000000 0.000000 0.000000 0.000000 -0.084566 0.000000
# 6 0.000000 0.000000 0.000000 0.000000 0.000000 0.037450
#
#
# Mechanical properties :
#
#
# Convention : Reuss Voigt Hill
#
# Bulk Modulus (GPa) = 45.45124 48.44242 46.94683
# Shear Modulus (GPa) = 59.50167 18.74355 39.12261
#
# Velocity S-wave (km/s) = 5.49004 3.08132 4.45169
# Velocity P-wave (km/s) = 7.95052 6.09901 7.08550
#
# Compressibility (1/GPa) = 0.02200160
#
# Stress axis : x y z
#
# Youngs Moduli (GPa) = 44.81878 61.30223 105.02106
#
# Poissons Ratio (x) = 0.44761 0.50812
# Poissons Ratio (y) = 0.32725 0.09795
# Poissons Ratio (z) = 0.21684 0.05717
#
# Static dielectric constant tensor:
#      x y z
#    x 3.780730 0.000000 0.000000 
#    y 0.000000 4.311280 0.000000 
#    z 0.000000 0.000000 4.360360 
# 
# 
# High freq. dielectric constant tensor:
#      x y z
#    x 1.756360 0.000000 0.000000 
#    y 0.000000 1.763180 0.000000 
#    z 0.000000 0.000000 1.783990 
# 
# From -- ./inp_files/20319.got.cif
#   From: 2010.03.12/outbox.cif.g09.slc.cpg/sg72_11_cif.got.tgz:20319.got - 2010.04.16 14:54:00.
