data_PCOD8295824
_publ_section_title
;
Structure prediction by ZEFSAII (Michael W. Deem and Ramdas Pophale) SiO2 
 PCOD8295824
Probable space group: I B C A 
;
_chemical_formula_sum "Si O2"
_cell_formula_units_Z 88
_cell_length_a 17.785603
_cell_length_b 22.278681
_cell_length_c 9.201259
_cell_angle_alpha 90.000000
_cell_angle_beta 90.000000
_cell_angle_gamma 90.000000
_cell_volume 3645.904802
_symmetry_space_group_name_H-M "I B C A "
_symmetry_group_IT_number 73
_symmetry_cell_setting 'orthorhombic'
loop_
_space_group_symop_operation_xyz
x,y,z
-x,1/2-y,z
x,-y,1/2-z
1/2-x,y,-z
-x,-y,-z
x,1/2+y,-z
-x,y,1/2+z
1/2+x,-y,z
1/2+x,1/2+y,1/2+z
1/2-x,-y,1/2+z
1/2+x,1/2-y,-z
-x,1/2+y,1/2-z
1/2-x,1/2-y,1/2-z
1/2+x,y,1/2-z
1/2-x,1/2+y,z
x,1/2-y,1/2+z
loop_
_atom_site_type_symbol
_atom_site_label
_atom_site_fract_x
_atom_site_fract_y
_atom_site_fract_z
Si Si1 0.750000 0.209168 0.500000
Si Si2 0.456747 0.364677 0.452804
Si Si3 0.762886 0.445774 0.347026
Si Si4 0.409000 0.871002 0.863670
Si Si5 0.848797 0.358944 0.789610
Si Si6 0.096671 0.732651 0.441878
O O1 0.723870 0.172990 0.642206
O O2 0.818281 0.245410 0.568514
O O3 0.438730 0.390031 0.294667
O O4 0.533883 0.394971 0.510838
O O5 0.394326 0.382005 0.570101
O O6 0.461395 0.290534 0.435427
O O7 0.792637 0.500000 0.250000
O O8 0.750000 0.477853 0.500000
O O9 0.825485 0.395396 0.375830
O O10 0.684495 0.415784 0.296133
O O11 0.409366 0.799210 0.898404
O O12 0.904980 0.317370 0.689711
#
# Coordination Sequence:
#
# PCOD8295824 Si02
#       6
#     8  16  16  16  16  16
#     4  10  20  32  64  98 142 184 230 288 356 444
#     4  11  25  40  70 100 154 192 234 279 367 456
#     4  12  28  49  78 103 135 184 252 318 376 416
#     4  12  25  45  66 106 147 194 241 300 357 443
#     4  11  22  43  68 103 143 189 242 306 360 441
#     4  11  20  38  62 102 144 194 235 281 361 436
#
# _framework density 24.136669000000001
#
# number of rings (size 3 to 8) (size 9 to 14) (size 15 to 20)
#    0.000    0.727    1.818    7.636    3.818    1.455 
#    0.000    1.818    0.000    0.000    0.000    0.000 
#    0.000    0.000    0.000    0.000    0.000    0.000 
#
# Total GULP energy -545095.365251 kJ/mol
# GULP energy per Si atom -12388.531028 kJ/mol
# Density = 2.408173 g / cm^3
# Si number density = 24.136669 Si / 1000 Ang^3
#
#
#
# Elastic Constant Matrix: (Units=GPa)
#
#
# Indices 1 2 3 4 5 6 
#
# 1 51.0104 11.2046 29.7742 0.0000 0.0000 0.0000
# 2 11.2046 51.7119 24.1782 0.0000 0.0000 0.0000
# 3 29.7742 24.1782 164.5734 0.0000 0.0000 0.0000
# 4 0.0000 0.0000 0.0000 34.6047 0.0000 0.0000
# 5 0.0000 0.0000 0.0000 0.0000 43.3139 0.0000
# 6 0.0000 0.0000 0.0000 0.0000 0.0000 15.7580
#
#
#
# Elastic Compliance Matrix: (Units=1/GPa)
#
#
# Indices 1 2 3 4 5 6 
#
# 1 0.022394 -0.003176 -0.003585 0.000000 0.000000 0.000000
# 2 -0.003176 0.021215 -0.002542 0.000000 0.000000 0.000000
# 3 -0.003585 -0.002542 0.007098 0.000000 0.000000 0.000000
# 4 0.000000 0.000000 0.000000 0.028898 0.000000 0.000000
# 5 0.000000 0.000000 0.000000 0.000000 0.023087 0.000000
# 6 0.000000 0.000000 0.000000 0.000000 0.000000 0.063460
#
#
# Mechanical properties :
#
#
# Convention : Reuss Voigt Hill
#
# Bulk Modulus (GPa) = 31.15180 44.17885 37.66533
# Shear Modulus (GPa) = 25.58093 32.21124 28.89609
#
# Velocity S-wave (km/s) = 3.25905 3.65709 3.46379
# Velocity P-wave (km/s) = 5.20541 6.01463 5.62459
#
# Compressibility (1/GPa) = 0.03210087
#
# Stress axis : x y z
#
# Youngs Moduli (GPa) = 44.65500 47.13718 140.87778
#
# Poissons Ratio (x) = 0.14971 0.50502
# Poissons Ratio (y) = 0.14183 0.35813
# Poissons Ratio (z) = 0.16008 0.11983
#
# Static dielectric constant tensor:
#      x y z
#    x 4.585160 0.000000 0.000000 
#    y 0.000000 3.750700 0.000000 
#    z 0.000000 0.000000 4.590320 
# 
# 
# High freq. dielectric constant tensor:
#      x y z
#    x 1.986250 0.000000 0.000000 
#    y 0.000000 1.894120 0.000000 
#    z 0.000000 0.000000 1.984770 
# 
# From -- ./inp_files/6313.got.cif
#   From: 2010.03.12/outbox.cif.g09.slc.cpg/sg73_4_cif.got.tgz:6313.got - 2010.04.16 15:25:48.
