data_PCOD8295068
_publ_section_title
;
Structure prediction by ZEFSAII (Michael W. Deem and Ramdas Pophale) SiO2 
 PCOD8295068
Probable space group: I B A M
;
_chemical_formula_sum "Si O2"
_cell_formula_units_Z 88
_cell_length_a 10.465448
_cell_length_b 13.180989
_cell_length_c 30.804988
_cell_angle_alpha 90.000000
_cell_angle_beta 90.000000
_cell_angle_gamma 90.000000
_cell_volume 4249.392682
_symmetry_space_group_name_H-M "I B A M"
_symmetry_group_IT_number 72
_symmetry_cell_setting 'orthorhombic'
loop_
_space_group_symop_operation_xyz
x,y,z
-x,-y,z
x,-y,1/2-z
-x,y,1/2-z
-x,-y,-z
x,y,-z
-x,y,1/2+z
x,-y,1/2+z
1/2+x,1/2+y,1/2+z
1/2-x,1/2-y,1/2+z
1/2+x,1/2-y,-z
1/2-x,1/2+y,-z
1/2-x,1/2-y,1/2-z
1/2+x,1/2+y,1/2-z
1/2-x,1/2+y,z
1/2+x,1/2-y,z
loop_
_atom_site_type_symbol
_atom_site_label
_atom_site_fract_x
_atom_site_fract_y
_atom_site_fract_z
Si Si1 0.308549 0.406955 0.723977
Si Si2 0.760686 0.753749 0.927019
Si Si3 0.640184 0.384876 0.000000
Si Si4 0.015344 0.784787 0.876367
Si Si5 0.086669 0.266247 0.284196
Si Si6 0.500000 0.500000 0.845354
Si Si7 0.651609 0.377765 0.500000
O O1 0.244789 0.500000 0.750000
O O2 0.205849 0.333757 0.701516
O O3 0.382043 0.340392 0.760188
O O4 0.388856 0.456124 0.685071
O O5 0.639049 0.771173 0.896120
O O6 0.729467 0.657293 0.957497
O O7 0.889270 0.739942 0.899052
O O8 0.782347 0.850828 0.957478
O O9 0.640515 0.503616 0.000000
O O10 0.495906 0.336624 0.000000
O O11 0.001319 0.757448 0.825848
O O12 0.036900 0.907452 0.878157
O O13 0.000000 0.329383 0.250000
#
# Coordination Sequence:
#
# PCOD8295068 Si02
#       7
#    16  16   8  16  16   8   8
#     4  11  21  40  64  91 122 182 239 273 323 391
#     4  11  25  43  69 105 137 166 215 285 330 397
#     4  10  22  47  78  97 128 179 221 254 334 426
#     4  12  25  41  67  99 138 174 227 277 329 386
#     4  11  23  40  63  91 136 182 223 282 337 377
#     4  12  23  40  70  93 126 184 240 273 312 408
#     4  10  22  47  78 101 128 173 219 264 332 420
#
# _framework density 20.708841
#
# number of rings (size 3 to 8) (size 9 to 14) (size 15 to 20)
#    0.000    0.909    5.455    1.364    5.091    0.364 
#    0.000    1.818    0.000    0.000    0.000    0.000 
#    0.000    0.000    0.000    0.000    0.000    0.000 
#
# Total GULP energy -545266.240072 kJ/mol
# GULP energy per Si atom -12392.414547 kJ/mol
# Density = 2.066171 g / cm^3
# Si number density = 20.708841 Si / 1000 Ang^3
#
#
#
# Elastic Constant Matrix: (Units=GPa)
#
#
# Indices 1 2 3 4 5 6 
#
# 1 142.3323 51.8200 60.9782 0.0000 0.0000 0.0000
# 2 51.8200 84.4328 26.6746 0.0000 0.0000 0.0000
# 3 60.9782 26.6746 115.6765 0.0000 0.0000 0.0000
# 4 0.0000 0.0000 0.0000 19.6526 0.0000 0.0000
# 5 0.0000 0.0000 0.0000 0.0000 78.3778 0.0000
# 6 0.0000 0.0000 0.0000 0.0000 0.0000 22.3904
#
#
#
# Elastic Compliance Matrix: (Units=1/GPa)
#
#
# Indices 1 2 3 4 5 6 
#
# 1 0.010872 -0.005244 -0.004522 0.000000 0.000000 0.000000
# 2 -0.005244 0.015304 -0.000765 0.000000 0.000000 0.000000
# 3 -0.004522 -0.000765 0.011205 0.000000 0.000000 0.000000
# 4 0.000000 0.000000 0.000000 0.050884 0.000000 0.000000
# 5 0.000000 0.000000 0.000000 0.000000 0.012759 0.000000
# 6 0.000000 0.000000 0.000000 0.000000 0.000000 0.044662
#
#
# Mechanical properties :
#
#
# Convention : Reuss Voigt Hill
#
# Bulk Modulus (GPa) = 61.27627 69.04302 65.15965
# Shear Modulus (GPa) = 29.03813 37.61542 33.32678
#
# Velocity S-wave (km/s) = 3.74867 4.26654 4.01596
# Velocity P-wave (km/s) = 6.95632 7.59496 7.28264
#
# Compressibility (1/GPa) = 0.01631953
#
# Stress axis : x y z
#
# Youngs Moduli (GPa) = 91.97544 65.34283 89.24694
#
# Poissons Ratio (x) = 0.34267 0.40358
# Poissons Ratio (y) = 0.48234 0.06823
# Poissons Ratio (z) = 0.41592 0.04996
#
# Static dielectric constant tensor:
#      x y z
#    x 3.881730 0.000000 0.000000 
#    y 0.000000 3.811790 0.000000 
#    z 0.000000 0.000000 3.963190 
# 
# 
# High freq. dielectric constant tensor:
#      x y z
#    x 1.808810 0.000000 0.000000 
#    y 0.000000 1.795290 0.000000 
#    z 0.000000 0.000000 1.826720 
# 
# From -- ./inp_files/51319.got.cif
#   From: 2010.03.12/outbox.cif.g09.slc.cpg/sg72_26_cif.got.tgz:51319.got - 2010.04.16 14:54:00.
