data_PCOD8295395
_publ_section_title
;
Structure prediction by ZEFSAII (Michael W. Deem and Ramdas Pophale) SiO2 
 PCOD8295395
Probable space group: I B A M
;
_chemical_formula_sum "Si O2"
_cell_formula_units_Z 68
_cell_length_a 9.198724
_cell_length_b 21.463617
_cell_length_c 14.901291
_cell_angle_alpha 90.000000
_cell_angle_beta 90.000000
_cell_angle_gamma 90.000000
_cell_volume 2942.079436
_symmetry_space_group_name_H-M "I B A M"
_symmetry_group_IT_number 72
_symmetry_cell_setting 'orthorhombic'
loop_
_space_group_symop_operation_xyz
x,y,z
-x,-y,z
x,-y,1/2-z
-x,y,1/2-z
-x,-y,-z
x,y,-z
-x,y,1/2+z
x,-y,1/2+z
1/2+x,1/2+y,1/2+z
1/2-x,1/2-y,1/2+z
1/2+x,1/2-y,-z
1/2-x,1/2+y,-z
1/2-x,1/2-y,1/2-z
1/2+x,1/2+y,1/2-z
1/2-x,1/2+y,z
1/2+x,1/2-y,z
loop_
_atom_site_type_symbol
_atom_site_label
_atom_site_fract_x
_atom_site_fract_y
_atom_site_fract_z
Si Si1 0.846175 0.079517 0.598865
Si Si2 0.483825 0.307160 0.849118
Si Si3 0.000000 0.000000 0.750000
Si Si4 0.850938 0.685831 0.895356
Si Si5 0.516780 0.068317 0.396610
O O1 0.861637 0.045987 0.500000
O O2 0.931428 0.144511 0.587985
O O3 0.678137 0.094692 0.617072
O O4 0.900556 0.039284 0.682509
O O5 0.500000 0.334956 0.750000
O O6 0.317513 0.303349 0.878001
O O7 0.555666 0.239472 0.849104
O O8 0.904117 0.619002 0.854982
O O9 0.886586 0.688766 0.000000
O O10 0.473681 0.060638 0.500000
O O11 0.500000 0.000000 0.350248
#
# Coordination Sequence:
#
# PCOD8295395 Si02
#       5
#    16  16   4  16  16
#     4  11  24  45  71  99 140 183 230 288 343 412
#     4  12  25  44  67 101 139 179 233 291 348 416
#     4  12  26  44  66 106 140 180 238 276 348 418
#     4  11  23  42  70 100 134 182 234 285 350 418
#     4   9  21  41  68 100 134 180 234 282 339 409
#
# _framework density 23.112905000000001
#
# number of rings (size 3 to 8) (size 9 to 14) (size 15 to 20)
#    0.000    1.176    1.176    4.588    3.294    1.882 
#    0.000    2.941    0.000    0.000    0.000    0.000 
#    0.000    0.000    0.000    0.000    0.000    0.000 
#
# Total GULP energy -421512.576869 kJ/mol
# GULP energy per Si atom -12397.428731 kJ/mol
# Density = 2.306030 g / cm^3
# Si number density = 23.112905 Si / 1000 Ang^3
#
#
#
# Elastic Constant Matrix: (Units=GPa)
#
#
# Indices 1 2 3 4 5 6 
#
# 1 174.4582 79.9139 10.2596 0.0000 0.0000 0.0000
# 2 79.9139 154.9776 10.2057 0.0000 0.0000 0.0000
# 3 10.2596 10.2057 94.9709 0.0000 -0.0001 -0.0002
# 4 0.0000 0.0000 0.0000 27.9577 0.0000 -0.0001
# 5 0.0000 0.0000 -0.0001 0.0000 -38.2050 0.0002
# 6 0.0000 0.0000 -0.0002 -0.0001 0.0002 11.9552
#
#
#
# Elastic Compliance Matrix: (Units=1/GPa)
#
#
# Indices 1 2 3 4 5 6 
#
# 1 0.007520 -0.003851 -0.000398 0.000000 0.000000 0.000000
# 2 -0.003851 0.008471 -0.000494 0.000000 0.000000 0.000000
# 3 -0.000398 -0.000494 0.010626 0.000000 0.000000 0.000000
# 4 0.000000 0.000000 0.000000 0.035768 0.000000 0.000000
# 5 0.000000 0.000000 0.000000 0.000000 -0.026175 0.000000
# 6 0.000000 0.000000 0.000000 0.000000 0.000000 0.083646
#
#
# Mechanical properties :
#
#
# Convention : Reuss Voigt Hill
#
# Bulk Modulus (GPa) = 58.38274 69.46278 63.92276
# Shear Modulus (GPa) = 37.02253 21.94341 29.48297
#
# Velocity S-wave (km/s) = 4.00661 3.08458 3.57544
# Velocity P-wave (km/s) = 6.83509 6.54256 6.69043
#
# Compressibility (1/GPa) = 0.01712835
#
# Stress axis : x y z
#
# Youngs Moduli (GPa) = 132.98602 118.05028 94.11148
#
# Poissons Ratio (x) = 0.45464 0.03750
# Poissons Ratio (y) = 0.51216 0.04652
# Poissons Ratio (z) = 0.05299 0.05835
#
# Static dielectric constant tensor:
#      x y z
#    x 4.022890 0.000000 0.000000 
#    y 0.000000 4.348640 0.000000 
#    z 0.000000 0.000000 4.258920 
# 
# 
# High freq. dielectric constant tensor:
#      x y z
#    x 1.920460 0.000000 0.000000 
#    y 0.000000 1.918590 0.000000 
#    z 0.000000 0.000000 1.912550 
# 
# From -- ./inp_files/27795.got.cif
#   From: 2010.03.12/outbox.cif.g09.slc.cpg/sg72_14_cif.got.tgz:27795.got - 2010.04.16 14:54:00.
