data_PCOD8295031
_publ_section_title
;
Structure prediction by ZEFSAII (Michael W. Deem and Ramdas Pophale) SiO2 
 PCOD8295031
Probable space group: I B A M
;
_chemical_formula_sum "Si O2"
_cell_formula_units_Z 112
_cell_length_a 14.832211
_cell_length_b 14.403449
_cell_length_c 24.713760
_cell_angle_alpha 90.000000
_cell_angle_beta 90.000000
_cell_angle_gamma 90.000000
_cell_volume 5279.723987
_symmetry_space_group_name_H-M "I B A M"
_symmetry_group_IT_number 72
_symmetry_cell_setting 'orthorhombic'
loop_
_space_group_symop_operation_xyz
x,y,z
-x,-y,z
x,-y,1/2-z
-x,y,1/2-z
-x,-y,-z
x,y,-z
-x,y,1/2+z
x,-y,1/2+z
1/2+x,1/2+y,1/2+z
1/2-x,1/2-y,1/2+z
1/2+x,1/2-y,-z
1/2-x,1/2+y,-z
1/2-x,1/2-y,1/2-z
1/2+x,1/2+y,1/2-z
1/2-x,1/2+y,z
1/2+x,1/2-y,z
loop_
_atom_site_type_symbol
_atom_site_label
_atom_site_fract_x
_atom_site_fract_y
_atom_site_fract_z
Si Si1 0.433248 0.928404 0.937920
Si Si2 0.875290 0.807413 0.391844
Si Si3 0.395525 0.737141 0.268204
Si Si4 0.942474 0.221611 0.438816
Si Si5 0.245066 0.604897 0.773427
Si Si6 0.261212 0.458026 0.061604
Si Si7 0.235216 0.848502 0.604010
O O1 0.474178 0.827367 0.931664
O O2 0.334953 0.932670 0.912157
O O3 0.500000 0.000000 0.907666
O O4 0.421441 0.960103 0.000000
O O5 0.899715 0.780329 0.331602
O O6 0.827634 0.906940 0.396985
O O7 0.810501 0.725842 0.415235
O O8 0.965444 0.830232 0.425424
O O9 0.500000 0.743848 0.250000
O O10 0.341084 0.649818 0.243434
O O11 0.339767 0.831507 0.253087
O O12 0.910139 0.200334 0.500000
O O13 0.862595 0.200588 0.396702
O O14 0.235919 0.500000 0.750000
O O15 0.243250 0.605502 0.838312
O O16 0.272293 0.568678 0.060923
O O17 0.273868 0.420883 0.000000
#
# Coordination Sequence:
#
# PCOD8295031 Si02
#       7
#    16  16  16  16  16  16  16
#     4   9  18  34  56  84 117 163 213 255 302 360
#     4  11  23  40  62  92 124 164 213 262 323 382
#     4  10  22  42  67  94 125 164 211 270 332 393
#     4  11  22  37  60  88 128 170 208 256 309 376
#     4  10  22  42  67  94 125 164 211 270 332 393
#     4  11  22  37  60  88 128 170 208 256 309 376
#     4  11  23  40  62  92 124 164 213 262 323 382
#
# _framework density 21.213229999999999
#
# number of rings (size 3 to 8) (size 9 to 14) (size 15 to 20)
#    0.000    1.571    1.429    3.429    0.000    4.000 
#    2.571    4.286    0.000    0.000    0.000    0.000 
#    0.000    0.000    0.000    0.000    0.000    0.000 
#
# Total GULP energy -694094.978989 kJ/mol
# GULP energy per Si atom -12394.553196 kJ/mol
# Density = 2.116495 g / cm^3
# Si number density = 21.213230 Si / 1000 Ang^3
#
#
#
# Elastic Constant Matrix: (Units=GPa)
#
#
# Indices 1 2 3 4 5 6 
#
# 1 151.5476 28.6055 26.4312 0.0000 0.0000 0.0000
# 2 28.6055 77.5392 27.9612 0.0000 0.0000 0.0000
# 3 26.4312 27.9612 54.7018 0.0000 0.0000 0.0000
# 4 0.0000 0.0000 0.0000 26.8553 0.0000 0.0000
# 5 0.0000 0.0000 0.0000 0.0000 24.5457 0.0000
# 6 0.0000 0.0000 0.0000 0.0000 0.0000 33.9750
#
#
#
# Elastic Compliance Matrix: (Units=1/GPa)
#
#
# Indices 1 2 3 4 5 6 
#
# 1 0.007398 -0.001766 -0.002672 0.000000 0.000000 0.000000
# 2 -0.001766 0.016233 -0.007444 0.000000 0.000000 0.000000
# 3 -0.002672 -0.007444 0.023377 0.000000 0.000000 0.000000
# 4 0.000000 0.000000 0.000000 0.037237 0.000000 0.000000
# 5 0.000000 0.000000 0.000000 0.000000 0.040740 0.000000
# 6 0.000000 0.000000 0.000000 0.000000 0.000000 0.029433
#
#
# Mechanical properties :
#
#
# Convention : Reuss Voigt Hill
#
# Bulk Modulus (GPa) = 43.02226 49.97604 46.49915
# Shear Modulus (GPa) = 26.89189 30.46125 28.67657
#
# Velocity S-wave (km/s) = 3.56433 3.79351 3.68071
# Velocity P-wave (km/s) = 6.10444 6.54199 6.32700
#
# Compressibility (1/GPa) = 0.02324378
#
# Stress axis : x y z
#
# Youngs Moduli (GPa) = 135.17369 61.60470 42.77674
#
# Poissons Ratio (x) = 0.10877 0.11430
# Poissons Ratio (y) = 0.23867 0.31844
# Poissons Ratio (z) = 0.36119 0.45860
#
# Static dielectric constant tensor:
#      x y z
#    x 4.023070 0.000000 0.000000 
#    y 0.000000 3.849770 0.000000 
#    z 0.000000 0.000000 3.625870 
# 
# 
# High freq. dielectric constant tensor:
#      x y z
#    x 1.843410 0.000000 0.000000 
#    y 0.000000 1.832870 0.000000 
#    z 0.000000 0.000000 1.813940 
# 
# From -- ./inp_files/44344.got.cif
#   From: 2010.03.12/outbox.cif.g09.slc.cpg/sg72_23_cif.got.tgz:44344.got - 2010.04.16 14:54:00.
