data_PCOD8295504
_publ_section_title
;
Structure prediction by ZEFSAII (Michael W. Deem and Ramdas Pophale) SiO2 
 PCOD8295504
Probable space group: I B A M
;
_chemical_formula_sum "Si O2"
_cell_formula_units_Z 80
_cell_length_a 27.321811
_cell_length_b 20.813269
_cell_length_c 9.132898
_cell_angle_alpha 90.000000
_cell_angle_beta 90.000000
_cell_angle_gamma 90.000000
_cell_volume 5193.479089
_symmetry_space_group_name_H-M "I B A M"
_symmetry_group_IT_number 72
_symmetry_cell_setting 'orthorhombic'
loop_
_space_group_symop_operation_xyz
x,y,z
-x,-y,z
x,-y,1/2-z
-x,y,1/2-z
-x,-y,-z
x,y,-z
-x,y,1/2+z
x,-y,1/2+z
1/2+x,1/2+y,1/2+z
1/2-x,1/2-y,1/2+z
1/2+x,1/2-y,-z
1/2-x,1/2+y,-z
1/2-x,1/2-y,1/2-z
1/2+x,1/2+y,1/2-z
1/2-x,1/2+y,z
1/2+x,1/2-y,z
loop_
_atom_site_type_symbol
_atom_site_label
_atom_site_fract_x
_atom_site_fract_y
_atom_site_fract_z
Si Si1 0.853642 0.810074 0.834140
Si Si2 0.800101 0.063943 0.671795
Si Si3 0.548750 0.748452 0.334018
Si Si4 0.812211 0.563624 0.328916
Si Si5 0.369952 0.810665 0.673587
O O1 0.831951 0.875995 0.769918
O O2 0.913406 0.812109 0.833226
O O3 0.837099 0.749314 0.733806
O O4 0.834175 0.799342 0.000000
O O5 0.807088 0.054274 0.500000
O O6 0.743905 0.077176 0.714793
O O7 0.819811 0.000000 0.750000
O O8 0.500000 0.727849 0.250000
O O9 0.536229 0.769429 0.500000
O O10 0.576123 0.807453 0.249395
O O11 0.832199 0.500000 0.250000
O O12 0.817603 0.552104 0.500000
O O13 0.844372 0.623699 0.276543
O O14 0.375020 0.805409 0.500000
#
# Coordination Sequence:
#
# PCOD8295504 Si02
#       5
#    16  16  16  16  16
#     4   8  17  30  45  66  92 120 150 188 230 267
#     4   9  17  31  46  65  93 125 157 187 222 266
#     4   9  17  30  48  69  90 117 147 186 233 275
#     4   9  18  30  46  66  93 126 156 186 221 265
#     4   9  17  29  45  69  93 118 152 188 224 267
#
# _framework density 15.403931999999999
#
# number of rings (size 3 to 8) (size 9 to 14) (size 15 to 20)
#    1.200    2.000    0.000    0.600    0.000    3.200 
#    0.000    0.000    0.000    1.200    0.000    8.400 
#    0.000    0.000    0.000    0.000    0.000    0.000 
#
# Total GULP energy -495580.830632 kJ/mol
# GULP energy per Si atom -12389.520766 kJ/mol
# Density = 1.536887 g / cm^3
# Si number density = 15.403932 Si / 1000 Ang^3
#
#
#
# Elastic Constant Matrix: (Units=GPa)
#
#
# Indices 1 2 3 4 5 6 
#
# 1 50.3583 31.7410 22.8817 0.0000 0.0000 0.0000
# 2 31.7410 94.1097 36.8899 0.0000 0.0000 0.0000
# 3 22.8817 36.8899 63.1518 0.0000 0.0000 0.0000
# 4 0.0000 0.0000 0.0000 27.8994 0.0000 0.0000
# 5 0.0000 0.0000 0.0000 0.0000 21.6685 0.0000
# 6 0.0000 0.0000 0.0000 0.0000 0.0000 8.5237
#
#
#
# Elastic Compliance Matrix: (Units=1/GPa)
#
#
# Indices 1 2 3 4 5 6 
#
# 1 0.026728 -0.006768 -0.005730 0.000000 0.000000 0.000000
# 2 -0.006768 0.015496 -0.006599 0.000000 0.000000 0.000000
# 3 -0.005730 -0.006599 0.021766 0.000000 0.000000 0.000000
# 4 0.000000 0.000000 0.000000 0.035843 0.000000 0.000000
# 5 0.000000 0.000000 0.000000 0.000000 0.046150 0.000000
# 6 0.000000 0.000000 0.000000 0.000000 0.000000 0.117320
#
#
# Mechanical properties :
#
#
# Convention : Reuss Voigt Hill
#
# Bulk Modulus (GPa) = 38.77010 43.40500 41.08755
# Shear Modulus (GPa) = 16.12404 19.35880 17.74142
#
# Velocity S-wave (km/s) = 3.23886 3.54890 3.39742
# Velocity P-wave (km/s) = 6.26183 6.71059 6.49009
#
# Compressibility (1/GPa) = 0.02579307
#
# Stress axis : x y z
#
# Youngs Moduli (GPa) = 37.41451 64.53464 45.94290
#
# Poissons Ratio (x) = 0.43679 0.26327
# Poissons Ratio (y) = 0.25323 0.30319
# Poissons Ratio (z) = 0.21440 0.42588
#
# Static dielectric constant tensor:
#      x y z
#    x 2.781210 0.000000 0.000000 
#    y 0.000000 2.881160 0.000000 
#    z 0.000000 0.000000 2.938730 
# 
# 
# High freq. dielectric constant tensor:
#      x y z
#    x 1.569170 0.000000 0.000000 
#    y 0.000000 1.573700 0.000000 
#    z 0.000000 0.000000 1.597940 
# 
# From -- ./inp_files/5025.got.cif
#   From: 2010.03.12/outbox.cif.g09.slc.cpg/sg72_3_cif.got.tgz:5025.got - 2010.04.16 14:54:00.
