data_PCOD8295797
_publ_section_title
;
Structure prediction by ZEFSAII (Michael W. Deem and Ramdas Pophale) SiO2 
 PCOD8295797
Probable space group: I B C A 
;
_chemical_formula_sum "Si O2"
_cell_formula_units_Z 120
_cell_length_a 20.746205
_cell_length_b 18.186412
_cell_length_c 16.338112
_cell_angle_alpha 90.000000
_cell_angle_beta 90.000000
_cell_angle_gamma 90.000000
_cell_volume 6164.353835
_symmetry_space_group_name_H-M "I B C A "
_symmetry_group_IT_number 73
_symmetry_cell_setting 'orthorhombic'
loop_
_space_group_symop_operation_xyz
x,y,z
-x,1/2-y,z
x,-y,1/2-z
1/2-x,y,-z
-x,-y,-z
x,1/2+y,-z
-x,y,1/2+z
1/2+x,-y,z
1/2+x,1/2+y,1/2+z
1/2-x,-y,1/2+z
1/2+x,1/2-y,-z
-x,1/2+y,1/2-z
1/2-x,1/2-y,1/2-z
1/2+x,y,1/2-z
1/2-x,1/2+y,z
x,1/2-y,1/2+z
loop_
_atom_site_type_symbol
_atom_site_label
_atom_site_fract_x
_atom_site_fract_y
_atom_site_fract_z
Si Si1 0.414380 0.423436 0.164614
Si Si2 0.402845 0.070984 0.933753
Si Si3 0.129908 0.362740 0.408237
Si Si4 0.932536 0.284062 0.440058
Si Si5 0.945681 0.418348 0.759487
Si Si6 0.694780 0.000000 0.250000
Si Si7 0.260829 0.064330 0.909903
Si Si8 0.480561 0.329102 0.886994
O O1 0.415050 0.487871 0.096049
O O2 0.406367 0.345606 0.120855
O O3 0.479638 0.424733 0.216118
O O4 0.354360 0.432984 0.227314
O O5 0.331868 0.100083 0.907823
O O6 0.454069 0.126100 0.897558
O O7 0.403978 0.076078 0.032873
O O8 0.119692 0.281059 0.444030
O O9 0.095643 0.371058 0.322050
O O10 0.206583 0.373619 0.399817
O O11 0.941612 0.319851 0.529025
O O12 0.000000 0.250000 0.408286
O O13 0.916470 0.500000 0.750000
O O14 0.936295 0.374146 0.675259
O O15 0.740903 0.012223 0.329180
O O16 0.250000 0.024541 0.000000
O O17 0.500000 0.250000 0.850113
#
# Coordination Sequence:
#
# PCOD8295797 Si02
#       8
#    16  16  16  16  16   8  16  16
#     4  11  21  37  63  90 124 158 210 259 311 380
#     4  10  19  41  66  85 115 172 214 247 307 386
#     4  11  23  40  59  90 124 164 204 256 320 376
#     4  11  22  39  59  90 126 162 203 258 320 376
#     4  12  23  34  56  94 126 157 196 262 323 373
#     4  10  20  42  62  92 120 164 220 268 308 384
#     4   9  21  40  66  86 119 171 215 254 310 383
#     4  11  22  37  60  91 123 158 203 255 321 378
#
# _framework density 19.466760000000001
#
# number of rings (size 3 to 8) (size 9 to 14) (size 15 to 20)
#    0.000    1.333    6.000    0.800    4.667    1.067 
#    0.000    0.667    0.000   19.200    0.000    0.000 
#    0.000    0.000    0.000    0.000    0.000    0.000 
#
# Total GULP energy -743640.173097 kJ/mol
# GULP energy per Si atom -12394.002885 kJ/mol
# Density = 1.942245 g / cm^3
# Si number density = 19.466760 Si / 1000 Ang^3
#
#
#
# Elastic Constant Matrix: (Units=GPa)
#
#
# Indices 1 2 3 4 5 6 
#
# 1 80.0777 27.3991 41.3123 0.0000 0.0000 0.0000
# 2 27.3991 94.4046 50.2981 0.0000 0.0000 0.0000
# 3 41.3123 50.2981 133.8714 0.0000 0.0000 0.0000
# 4 0.0000 0.0000 0.0000 39.8199 0.0000 0.0000
# 5 0.0000 0.0000 0.0000 0.0000 16.6284 0.0000
# 6 0.0000 0.0000 0.0000 0.0000 0.0000 20.8650
#
#
#
# Elastic Compliance Matrix: (Units=1/GPa)
#
#
# Indices 1 2 3 4 5 6 
#
# 1 0.015276 -0.002403 -0.003811 0.000000 0.000000 0.000000
# 2 -0.002403 0.013622 -0.004376 0.000000 0.000000 0.000000
# 3 -0.003811 -0.004376 0.010290 0.000000 0.000000 0.000000
# 4 0.000000 0.000000 0.000000 0.025113 0.000000 0.000000
# 5 0.000000 0.000000 0.000000 0.000000 0.060138 0.000000
# 6 0.000000 0.000000 0.000000 0.000000 0.000000 0.047927
#
#
# Mechanical properties :
#
#
# Convention : Reuss Voigt Hill
#
# Bulk Modulus (GPa) = 55.53413 60.70808 58.12110
# Shear Modulus (GPa) = 25.05628 28.08562 26.57095
#
# Velocity S-wave (km/s) = 3.59155 3.80247 3.69852
# Velocity P-wave (km/s) = 6.76673 7.10856 6.93975
#
# Compressibility (1/GPa) = 0.01800694
#
# Stress axis : x y z
#
# Youngs Moduli (GPa) = 65.46060 73.41146 97.17843
#
# Poissons Ratio (x) = 0.17641 0.37038
# Poissons Ratio (y) = 0.15730 0.42530
# Poissons Ratio (z) = 0.24950 0.32128
#
# Static dielectric constant tensor:
#      x y z
#    x 3.473940 0.000000 0.000000 
#    y 0.000000 3.552790 0.000000 
#    z 0.000000 0.000000 3.979860 
# 
# 
# High freq. dielectric constant tensor:
#      x y z
#    x 1.741580 0.000000 0.000000 
#    y 0.000000 1.737970 0.000000 
#    z 0.000000 0.000000 1.778080 
# 
# From -- ./inp_files/23327.got.cif
#   From: 2010.03.12/outbox.cif.g09.slc.cpg/sg73_12_cif.got.tgz:23327.got - 2010.04.16 15:25:48.
