data_PCOD8295768
_publ_section_title
;
Structure prediction by ZEFSAII (Michael W. Deem and Ramdas Pophale) SiO2 
 PCOD8295768
Probable space group: I B C A 
;
_chemical_formula_sum "Si O2"
_cell_formula_units_Z 112
_cell_length_a 14.283139
_cell_length_b 24.245760
_cell_length_c 15.818393
_cell_angle_alpha 90.000000
_cell_angle_beta 90.000000
_cell_angle_gamma 90.000000
_cell_volume 5477.997450
_symmetry_space_group_name_H-M "I B C A "
_symmetry_group_IT_number 73
_symmetry_cell_setting 'orthorhombic'
loop_
_space_group_symop_operation_xyz
x,y,z
-x,1/2-y,z
x,-y,1/2-z
1/2-x,y,-z
-x,-y,-z
x,1/2+y,-z
-x,y,1/2+z
1/2+x,-y,z
1/2+x,1/2+y,1/2+z
1/2-x,-y,1/2+z
1/2+x,1/2-y,-z
-x,1/2+y,1/2-z
1/2-x,1/2-y,1/2-z
1/2+x,y,1/2-z
1/2-x,1/2+y,z
x,1/2-y,1/2+z
loop_
_atom_site_type_symbol
_atom_site_label
_atom_site_fract_x
_atom_site_fract_y
_atom_site_fract_z
Si Si1 0.236121 0.510468 0.593690
Si Si2 0.469643 0.464092 0.079146
Si Si3 0.803539 0.207133 0.914584
Si Si4 0.169569 0.878729 0.860106
Si Si5 0.136144 0.072374 0.820290
Si Si6 0.664557 0.671429 0.444098
Si Si7 0.965922 0.345650 0.498193
O O1 0.250000 0.484524 0.500000
O O2 0.285102 0.570426 0.588969
O O3 0.276844 0.468553 0.663740
O O4 0.127360 0.514595 0.617891
O O5 0.545277 0.464070 0.154986
O O6 0.459591 0.404128 0.043603
O O7 0.500000 0.500000 0.000000
O O8 0.749652 0.169138 0.844559
O O9 0.801931 0.272495 0.896616
O O10 0.911522 0.192697 0.930972
O O11 0.750000 0.191501 0.000000
O O12 0.131643 0.905809 0.774532
O O13 0.081750 0.850424 0.908976
O O14 0.141309 0.127166 0.874570
O O15 0.750000 0.649491 0.500000
O O16 0.572125 0.678233 0.504080
#
# Coordination Sequence:
#
# PCOD8295768 Si02
#       7
#    16  16  16  16  16  16  16
#     4  12  20  40  66  86 120 172 221 257 312 385
#     4  11  21  37  64  89 118 169 213 259 312 379
#     4   9  18  37  67  88 113 161 216 253 302 383
#     4  11  21  40  61  95 125 162 209 269 325 383
#     4  11  25  38  58  95 134 157 208 273 326 391
#     4  10  22  39  59  91 123 166 209 262 318 382
#     4  10  19  37  65  87 114 162 218 256 301 387
#
# _framework density 20.445428
#
# number of rings (size 3 to 8) (size 9 to 14) (size 15 to 20)
#    0.000    1.429    4.286    1.714    2.000    0.571 
#    2.571    2.857    0.000   10.286    0.000    0.000 
#    0.000    0.000    0.000    0.000    0.000    0.000 
#
# Total GULP energy -694066.892089 kJ/mol
# GULP energy per Si atom -12394.051644 kJ/mol
# Density = 2.039889 g / cm^3
# Si number density = 20.445428 Si / 1000 Ang^3
#
#
#
# Elastic Constant Matrix: (Units=GPa)
#
#
# Indices 1 2 3 4 5 6 
#
# 1 152.9646 28.3608 50.3677 0.0000 0.0000 0.0000
# 2 28.3608 80.5247 23.0310 -0.0001 0.0000 0.0000
# 3 50.3677 23.0310 83.0584 -0.0002 -0.0001 0.0000
# 4 0.0000 -0.0001 -0.0002 22.7913 0.0000 0.0000
# 5 0.0000 0.0000 -0.0001 0.0000 23.4321 0.0000
# 6 0.0000 0.0000 0.0000 0.0000 0.0000 35.4379
#
#
#
# Elastic Compliance Matrix: (Units=1/GPa)
#
#
# Indices 1 2 3 4 5 6 
#
# 1 0.008359 -0.001623 -0.004619 0.000000 0.000000 0.000000
# 2 -0.001623 0.013803 -0.002843 0.000000 0.000000 0.000000
# 3 -0.004619 -0.002843 0.015629 0.000000 0.000000 0.000000
# 4 0.000000 0.000000 0.000000 0.043876 0.000000 0.000000
# 5 0.000000 0.000000 0.000000 0.000000 0.042676 0.000000
# 6 0.000000 0.000000 0.000000 0.000000 0.000000 0.028218
#
#
# Mechanical properties :
#
#
# Convention : Reuss Voigt Hill
#
# Bulk Modulus (GPa) = 50.96571 57.78519 54.37545
# Shear Modulus (GPa) = 28.20485 30.65149 29.42817
#
# Velocity S-wave (km/s) = 3.71822 3.87613 3.79800
# Velocity P-wave (km/s) = 6.58903 6.95392 6.77393
#
# Compressibility (1/GPa) = 0.01962104
#
# Stress axis : x y z
#
# Youngs Moduli (GPa) = 119.62622 72.44598 63.98261
#
# Poissons Ratio (x) = 0.11758 0.29555
# Poissons Ratio (y) = 0.19416 0.18192
# Poissons Ratio (z) = 0.55258 0.20598
#
# Static dielectric constant tensor:
#      x y z
#    x 4.319470 0.000000 0.000000 
#    y 0.000000 3.841140 0.000000 
#    z 0.000000 0.000000 3.406110 
# 
# 
# High freq. dielectric constant tensor:
#      x y z
#    x 1.811480 0.000000 0.000000 
#    y 0.000000 1.813470 0.000000 
#    z 0.000000 0.000000 1.758030 
# 
# From -- ./inp_files/17388.got.cif
#   From: 2010.03.12/outbox.cif.g09.slc.cpg/sg73_9_cif.got.tgz:17388.got - 2010.04.16 15:25:48.
