data_PCOD8295384
_publ_section_title
;
Structure prediction by ZEFSAII (Michael W. Deem and Ramdas Pophale) SiO2 
 PCOD8295384
Probable space group: I B A M
;
_chemical_formula_sum "Si O2"
_cell_formula_units_Z 96
_cell_length_a 17.302595
_cell_length_b 17.386454
_cell_length_c 17.829685
_cell_angle_alpha 90.000000
_cell_angle_beta 90.000000
_cell_angle_gamma 90.000000
_cell_volume 5363.717904
_symmetry_space_group_name_H-M "I B A M"
_symmetry_group_IT_number 72
_symmetry_cell_setting 'orthorhombic'
loop_
_space_group_symop_operation_xyz
x,y,z
-x,-y,z
x,-y,1/2-z
-x,y,1/2-z
-x,-y,-z
x,y,-z
-x,y,1/2+z
x,-y,1/2+z
1/2+x,1/2+y,1/2+z
1/2-x,1/2-y,1/2+z
1/2+x,1/2-y,-z
1/2-x,1/2+y,-z
1/2-x,1/2-y,1/2-z
1/2+x,1/2+y,1/2-z
1/2-x,1/2+y,z
1/2+x,1/2-y,z
loop_
_atom_site_type_symbol
_atom_site_label
_atom_site_fract_x
_atom_site_fract_y
_atom_site_fract_z
Si Si1 0.328961 0.665863 0.086450
Si Si2 0.411731 0.914293 0.728777
Si Si3 0.798134 0.298528 0.309748
Si Si4 0.772420 0.077801 0.913039
Si Si5 0.083663 0.018748 0.910851
Si Si6 0.174518 0.572729 0.915789
O O1 0.343718 0.741053 0.135617
O O2 0.389509 0.602570 0.116644
O O3 0.242436 0.634087 0.097540
O O4 0.344409 0.686330 0.000000
O O5 0.500000 0.898178 0.750000
O O6 0.360305 0.852340 0.770763
O O7 0.396481 0.907668 0.639456
O O8 0.385895 0.000000 0.750000
O O9 0.750000 0.250000 0.250000
O O10 0.741289 0.349156 0.360722
O O11 0.854937 0.045285 0.885520
O O12 0.706918 0.013019 0.901906
O O13 0.775040 0.103705 0.000000
O O14 0.081529 0.019727 0.000000
O O15 0.000000 0.000000 0.875847
O O16 0.141899 0.579733 0.000000
#
# Coordination Sequence:
#
# PCOD8295384 Si02
#       6
#    16  16  16  16  16  16
#     4   9  18  33  56  85 113 143 183 231 279 332
#     4  11  23  41  59  80 112 151 188 234 285 333
#     4  12  22  35  56  80 113 149 185 230 283 331
#     4   9  18  33  57  83 105 142 194 232 266 335
#     4   8  15  32  57  83 111 142 178 224 278 330
#     4   9  17  36  61  82 106 144 193 233 269 331
#
# _framework density 17.898033999999999
#
# number of rings (size 3 to 8) (size 9 to 14) (size 15 to 20)
#    0.000    2.333    3.333    2.500    0.000    0.000 
#    3.000    3.333    0.000    1.000    0.000    0.000 
#    0.000    0.000    0.000    0.000    0.000    0.000 
#
# Total GULP energy -595068.088326 kJ/mol
# GULP energy per Si atom -12397.251840 kJ/mol
# Density = 1.785730 g / cm^3
# Si number density = 17.898034 Si / 1000 Ang^3
#
#
#
# Elastic Constant Matrix: (Units=GPa)
#
#
# Indices 1 2 3 4 5 6 
#
# 1 122.0113 63.0253 66.8174 0.0000 0.0000 0.0000
# 2 63.0253 135.2927 66.7593 0.0000 0.0000 0.0000
# 3 66.8174 66.7593 110.1072 0.0000 0.0000 0.0000
# 4 0.0000 0.0000 0.0000 35.2311 0.0000 0.0000
# 5 0.0000 0.0000 0.0000 0.0000 20.5064 0.0000
# 6 0.0000 0.0000 0.0000 0.0000 0.0000 22.2321
#
#
#
# Elastic Compliance Matrix: (Units=1/GPa)
#
#
# Indices 1 2 3 4 5 6 
#
# 1 0.013137 -0.003119 -0.006081 0.000000 0.000000 0.000000
# 2 -0.003119 0.011287 -0.004951 0.000000 0.000000 0.000000
# 3 -0.006081 -0.004951 0.015774 0.000000 0.000000 0.000000
# 4 0.000000 0.000000 0.000000 0.028384 0.000000 0.000000
# 5 0.000000 0.000000 0.000000 0.000000 0.048765 0.000000
# 6 0.000000 0.000000 0.000000 0.000000 0.000000 0.044980
#
#
# Mechanical properties :
#
#
# Convention : Reuss Voigt Hill
#
# Bulk Modulus (GPa) = 84.05778 84.51279 84.28528
# Shear Modulus (GPa) = 25.69428 26.98121 26.33775
#
# Velocity S-wave (km/s) = 3.79303 3.88686 3.84023
# Velocity P-wave (km/s) = 8.13938 8.21372 8.17663
#
# Compressibility (1/GPa) = 0.01189658
#
# Stress axis : x y z
#
# Youngs Moduli (GPa) = 76.11835 88.59411 63.39567
#
# Poissons Ratio (x) = 0.27636 0.38551
# Poissons Ratio (y) = 0.23744 0.31386
# Poissons Ratio (z) = 0.46288 0.43861
#
# Static dielectric constant tensor:
#      x y z
#    x 3.299570 0.000000 0.000000 
#    y 0.000000 3.372900 0.000000 
#    z 0.000000 0.000000 3.308200 
# 
# 
# High freq. dielectric constant tensor:
#      x y z
#    x 1.670610 0.000000 0.000000 
#    y 0.000000 1.696040 0.000000 
#    z 0.000000 0.000000 1.690280 
# 
# From -- ./inp_files/31651.got.cif
#   From: 2010.03.12/outbox.cif.g09.slc.cpg/sg72_16_cif.got.tgz:31651.got - 2010.04.16 14:54:00.
