data_PCOD8295642
_publ_section_title
;
Structure prediction by ZEFSAII (Michael W. Deem and Ramdas Pophale) SiO2 
 PCOD8295642
Probable space group: I B C A 
;
_chemical_formula_sum "Si O2"
_cell_formula_units_Z 120
_cell_length_a 24.519909
_cell_length_b 8.812706
_cell_length_c 26.931429
_cell_angle_alpha 90.000000
_cell_angle_beta 90.000000
_cell_angle_gamma 90.000000
_cell_volume 5819.524943
_symmetry_space_group_name_H-M "I B C A "
_symmetry_group_IT_number 73
_symmetry_cell_setting 'orthorhombic'
loop_
_space_group_symop_operation_xyz
x,y,z
-x,1/2-y,z
x,-y,1/2-z
1/2-x,y,-z
-x,-y,-z
x,1/2+y,-z
-x,y,1/2+z
1/2+x,-y,z
1/2+x,1/2+y,1/2+z
1/2-x,-y,1/2+z
1/2+x,1/2-y,-z
-x,1/2+y,1/2-z
1/2-x,1/2-y,1/2-z
1/2+x,y,1/2-z
1/2-x,1/2+y,z
x,1/2-y,1/2+z
loop_
_atom_site_type_symbol
_atom_site_label
_atom_site_fract_x
_atom_site_fract_y
_atom_site_fract_z
Si Si1 0.397539 0.752416 0.162608
Si Si2 0.373587 0.719431 0.508070
Si Si3 0.000000 0.250000 0.589138
Si Si4 0.433986 0.501970 0.050376
Si Si5 0.204311 0.751663 0.585803
Si Si6 0.184150 0.092051 0.597208
Si Si7 0.620601 0.918344 0.352645
Si Si8 0.944053 0.324085 0.263161
O O1 0.446131 0.768129 0.122334
O O2 0.348955 0.866187 0.147594
O O3 0.368918 0.588559 0.165570
O O4 0.422053 0.778958 0.217362
O O5 0.429700 0.642847 0.486480
O O6 0.386057 0.881257 0.533295
O O7 0.326553 0.732901 0.466604
O O8 0.355864 0.602796 0.550526
O O9 0.990574 0.098687 0.554308
O O10 0.424056 0.428338 0.104032
O O11 0.266834 0.704286 0.583062
O O12 0.176756 0.651076 0.628351
O O13 0.205162 0.923462 0.603922
O O14 0.598153 0.812319 0.308559
O O15 0.954322 0.500000 0.250000
O O16 0.000000 0.250000 0.281455
#
# Coordination Sequence:
#
# PCOD8295642 Si02
#       8
#    16  16   8  16  16  16  16  16
#     4  10  20  39  65  91 124 166 207 256 318 377
#     4  11  21  38  60  88 121 161 214 260 301 371
#     4  10  18  36  62  84 130 170 202 252 316 372
#     4  10  21  37  60  88 125 167 209 255 309 365
#     4  11  25  38  62  91 123 164 210 261 324 366
#     4  12  23  39  62  90 123 163 208 264 317 374
#     4   9  20  41  58  89 128 157 205 261 310 374
#     4  10  21  38  67  97 122 163 208 257 315 373
#
# _framework density 20.620239000000002
#
# number of rings (size 3 to 8) (size 9 to 14) (size 15 to 20)
#    0.000    1.600    4.667    1.200    1.867    2.667 
#    0.000    0.667    2.933    0.000    0.000    0.000 
#    0.000    0.000    0.000    0.000    0.000    0.000 
#
# Total GULP energy -743552.450943 kJ/mol
# GULP energy per Si atom -12392.540849 kJ/mol
# Density = 2.057331 g / cm^3
# Si number density = 20.620239 Si / 1000 Ang^3
#
#
#
# Elastic Constant Matrix: (Units=GPa)
#
#
# Indices 1 2 3 4 5 6 
#
# 1 69.1025 25.1264 46.2811 0.0000 0.0000 0.0000
# 2 25.1264 75.1742 20.3010 0.0000 0.0000 0.0000
# 3 46.2811 20.3010 80.5652 0.0000 0.0000 0.0000
# 4 0.0000 0.0000 0.0000 27.1727 0.0000 0.0000
# 5 0.0000 0.0000 0.0000 0.0000 17.9084 0.0000
# 6 0.0000 0.0000 0.0000 0.0000 0.0000 41.6180
#
#
#
# Elastic Compliance Matrix: (Units=1/GPa)
#
#
# Indices 1 2 3 4 5 6 
#
# 1 0.025045 -0.004813 -0.013174 0.000000 0.000000 0.000000
# 2 -0.004813 0.015199 -0.001065 0.000000 0.000000 0.000000
# 3 -0.013174 -0.001065 0.020249 0.000000 0.000000 0.000000
# 4 0.000000 0.000000 0.000000 0.036802 0.000000 0.000000
# 5 0.000000 0.000000 0.000000 0.000000 0.055840 0.000000
# 6 0.000000 0.000000 0.000000 0.000000 0.000000 0.024028
#
#
# Mechanical properties :
#
#
# Convention : Reuss Voigt Hill
#
# Bulk Modulus (GPa) = 44.66769 45.36209 45.01489
# Shear Modulus (GPa) = 22.44882 26.21539 24.33210
#
# Velocity S-wave (km/s) = 3.30309 3.56946 3.43886
# Velocity P-wave (km/s) = 6.02132 6.24777 6.13559
#
# Compressibility (1/GPa) = 0.02238755
#
# Stress axis : x y z
#
# Youngs Moduli (GPa) = 39.92837 65.79466 49.38596
#
# Poissons Ratio (x) = 0.31669 0.65063
# Poissons Ratio (y) = 0.19219 0.05259
# Poissons Ratio (z) = 0.52603 0.07006
#
# Static dielectric constant tensor:
#      x y z
#    x 3.568420 0.000000 0.000000 
#    y 0.000000 3.772680 0.000000 
#    z 0.000000 0.000000 3.840530 
# 
# 
# High freq. dielectric constant tensor:
#      x y z
#    x 1.791430 0.000000 0.000000 
#    y 0.000000 1.804640 0.000000 
#    z 0.000000 0.000000 1.804640 
# 
# From -- ./inp_files/7406.got.cif
#   From: 2010.03.12/outbox.cif.g09.slc.cpg/sg73_4_cif.got.tgz:7406.got - 2010.04.16 15:25:48.
