data_PCOD8295793
_publ_section_title
;
Structure prediction by ZEFSAII (Michael W. Deem and Ramdas Pophale) SiO2 
 PCOD8295793
Probable space group: I B C A 
;
_chemical_formula_sum "Si O2"
_cell_formula_units_Z 112
_cell_length_a 9.496771
_cell_length_b 33.208111
_cell_length_c 16.907713
_cell_angle_alpha 90.000000
_cell_angle_beta 90.000000
_cell_angle_gamma 90.000000
_cell_volume 5332.182499
_symmetry_space_group_name_H-M "I B C A "
_symmetry_group_IT_number 73
_symmetry_cell_setting 'orthorhombic'
loop_
_space_group_symop_operation_xyz
x,y,z
-x,1/2-y,z
x,-y,1/2-z
1/2-x,y,-z
-x,-y,-z
x,1/2+y,-z
-x,y,1/2+z
1/2+x,-y,z
1/2+x,1/2+y,1/2+z
1/2-x,-y,1/2+z
1/2+x,1/2-y,-z
-x,1/2+y,1/2-z
1/2-x,1/2-y,1/2-z
1/2+x,y,1/2-z
1/2-x,1/2+y,z
x,1/2-y,1/2+z
loop_
_atom_site_type_symbol
_atom_site_label
_atom_site_fract_x
_atom_site_fract_y
_atom_site_fract_z
Si Si1 0.384392 0.690967 0.054255
Si Si2 0.466109 0.691476 0.400896
Si Si3 0.018723 0.522081 0.167278
Si Si4 0.351220 0.384789 0.342193
Si Si5 0.278763 0.743453 0.840924
Si Si6 0.526221 0.385629 0.188937
Si Si7 0.194652 0.030227 0.088781
O O1 0.388786 0.647120 0.091283
O O2 0.365809 0.726175 0.120001
O O3 0.250000 0.694028 0.000000
O O4 0.517791 0.696702 0.996038
O O5 0.594810 0.711568 0.352371
O O6 0.320400 0.713602 0.379171
O O7 0.460261 0.644559 0.376307
O O8 0.984331 0.500000 0.250000
O O9 0.980238 0.569140 0.167635
O O10 0.181734 0.516227 0.147313
O O11 0.926570 0.503080 0.096654
O O12 0.464253 0.376059 0.274424
O O13 0.194220 0.380275 0.307801
O O14 0.371771 0.427813 0.382982
O O15 0.250000 0.750000 0.750000
O O16 0.250000 0.034177 0.000000
#
# Coordination Sequence:
#
# PCOD8295793 Si02
#       7
#    16  16  16  16  16  16  16
#     4  10  19  40  65  89 130 166 215 263 329 396
#     4  10  22  39  65  96 125 170 221 272 329 400
#     4  11  23  42  64  96 128 173 224 279 330 407
#     4  11  22  39  66  94 124 174 213 271 328 399
#     4  10  20  39  66  92 127 164 219 273 327 396
#     4  11  23  39  67  93 131 167 226 271 332 397
#     4  11  24  40  64  93 130 172 220 273 346 396
#
# _framework density 21.004532999999999
#
# number of rings (size 3 to 8) (size 9 to 14) (size 15 to 20)
#    0.000    1.429    4.286    2.143    4.000    0.000 
#    0.000   15.714    0.000    0.000    0.000    0.000 
#    0.000    0.000    0.000    0.000    0.000    0.000 
#
# Total GULP energy -694410.374624 kJ/mol
# GULP energy per Si atom -12400.185261 kJ/mol
# Density = 2.095673 g / cm^3
# Si number density = 21.004533 Si / 1000 Ang^3
#
#
#
# Elastic Constant Matrix: (Units=GPa)
#
#
# Indices 1 2 3 4 5 6 
#
# 1 77.0907 64.3610 77.8863 -0.0001 0.0000 0.0000
# 2 64.3610 157.9090 81.8885 0.0000 0.0000 0.0000
# 3 77.8863 81.8885 196.8301 0.0001 -0.0005 0.0000
# 4 -0.0001 0.0000 0.0001 39.7072 -0.0002 0.0000
# 5 0.0000 0.0000 -0.0005 -0.0002 -45.3676 0.0000
# 6 0.0000 0.0000 0.0000 0.0000 0.0000 20.7650
#
#
#
# Elastic Compliance Matrix: (Units=1/GPa)
#
#
# Indices 1 2 3 4 5 6 
#
# 1 0.026299 -0.006787 -0.007583 0.000000 0.000000 0.000000
# 2 -0.006787 0.009826 -0.001403 0.000000 0.000000 0.000000
# 3 -0.007583 -0.001403 0.008665 0.000000 0.000000 0.000000
# 4 0.000000 0.000000 0.000000 0.025184 0.000000 0.000000
# 5 0.000000 0.000000 0.000000 0.000000 -0.022042 0.000000
# 6 0.000000 0.000000 0.000000 0.000000 0.000000 0.048158
#
#
# Mechanical properties :
#
#
# Convention : Reuss Voigt Hill
#
# Bulk Modulus (GPa) = 75.49811 97.78903 86.64357
# Shear Modulus (GPa) = 37.86445 16.86718 27.36581
#
# Velocity S-wave (km/s) = 4.25040 2.83684 3.61342
# Velocity P-wave (km/s) = 7.75304 7.57545 7.66476
#
# Compressibility (1/GPa) = 0.01324536
#
# Stress axis : x y z
#
# Youngs Moduli (GPa) = 38.02412 101.76859 115.41028
#
# Poissons Ratio (x) = 0.69066 0.87518
# Poissons Ratio (y) = 0.25805 0.16187
# Poissons Ratio (z) = 0.28834 0.14274
#
# Static dielectric constant tensor:
#      x y z
#    x 3.867370 0.000000 0.000000 
#    y 0.000000 4.032500 0.000000 
#    z 0.000000 0.000000 4.300620 
# 
# 
# High freq. dielectric constant tensor:
#      x y z
#    x 1.803400 0.000000 0.000000 
#    y 0.000000 1.835810 0.000000 
#    z 0.000000 0.000000 1.827920 
# 
# From -- ./inp_files/16328.got.cif
#   From: 2010.03.12/outbox.cif.g09.slc.cpg/sg73_9_cif.got.tgz:16328.got - 2010.04.16 15:25:48.
