data_PCOD8295383
_publ_section_title
;
Structure prediction by ZEFSAII (Michael W. Deem and Ramdas Pophale) SiO2 
 PCOD8295383
Probable space group: I B A M
;
_chemical_formula_sum "Si O2"
_cell_formula_units_Z 52
_cell_length_a 21.643629
_cell_length_b 7.193395
_cell_length_c 14.526398
_cell_angle_alpha 90.000000
_cell_angle_beta 90.000000
_cell_angle_gamma 90.000000
_cell_volume 2261.631939
_symmetry_space_group_name_H-M "I B A M"
_symmetry_group_IT_number 72
_symmetry_cell_setting 'orthorhombic'
loop_
_space_group_symop_operation_xyz
x,y,z
-x,-y,z
x,-y,1/2-z
-x,y,1/2-z
-x,-y,-z
x,y,-z
-x,y,1/2+z
x,-y,1/2+z
1/2+x,1/2+y,1/2+z
1/2-x,1/2-y,1/2+z
1/2+x,1/2-y,-z
1/2-x,1/2+y,-z
1/2-x,1/2-y,1/2-z
1/2+x,1/2+y,1/2-z
1/2-x,1/2+y,z
1/2+x,1/2-y,z
loop_
_atom_site_type_symbol
_atom_site_label
_atom_site_fract_x
_atom_site_fract_y
_atom_site_fract_z
Si Si1 0.410381 0.834681 0.602759
Si Si2 0.500000 0.000000 0.750000
Si Si3 0.323706 0.500283 0.103415
Si Si4 0.191133 0.602871 0.654197
O O1 0.440561 0.817635 0.500000
O O2 0.459790 0.869816 0.683116
O O3 0.376596 0.644434 0.631384
O O4 0.361283 0.002214 0.594640
O O5 0.257600 0.397930 0.105891
O O6 0.326842 0.680376 0.169770
O O7 0.334712 0.572407 0.000000
O O8 0.195637 0.500000 0.750000
#
# Coordination Sequence:
#
# PCOD8295383 Si02
#       4
#    16   4  16  16
#     4  11  25  46  72 102 142 186 233 291 350 418
#     4  12  26  52  70 102 134 196 246 296 336 406
#     4  11  23  40  68 106 143 182 225 286 363 429
#     4  12  23  39  67 108 147 181 222 285 361 428
#
# _framework density 22.992246999999999
#
# number of rings (size 3 to 8) (size 9 to 14) (size 15 to 20)
#    0.000    0.615    4.615    4.154    0.000    0.000 
#    0.000    3.077    0.000    5.538    0.000    0.000 
#    0.000    0.000    0.000    0.000    0.000    0.000 
#
# Total GULP energy -322420.488608 kJ/mol
# GULP energy per Si atom -12400.788023 kJ/mol
# Density = 2.293992 g / cm^3
# Si number density = 22.992247 Si / 1000 Ang^3
#
#
#
# Elastic Constant Matrix: (Units=GPa)
#
#
# Indices 1 2 3 4 5 6 
#
# 1 118.2078 71.1302 77.0003 0.0000 0.0000 0.0000
# 2 71.1302 191.6123 50.4554 0.0000 0.0000 0.0000
# 3 77.0003 50.4554 131.7129 0.0000 0.0000 0.0000
# 4 0.0000 0.0000 0.0000 32.2602 0.0000 0.0000
# 5 0.0000 0.0000 0.0000 0.0000 27.5543 0.0000
# 6 0.0000 0.0000 0.0000 0.0000 0.0000 21.8892
#
#
#
# Elastic Compliance Matrix: (Units=1/GPa)
#
#
# Indices 1 2 3 4 5 6 
#
# 1 0.015840 -0.003828 -0.007794 0.000000 0.000000 0.000000
# 2 -0.003828 0.006729 -0.000340 0.000000 0.000000 0.000000
# 3 -0.007794 -0.000340 0.012279 0.000000 0.000000 0.000000
# 4 0.000000 0.000000 0.000000 0.030998 0.000000 0.000000
# 5 0.000000 0.000000 0.000000 0.000000 0.036292 0.000000
# 6 0.000000 0.000000 0.000000 0.000000 0.000000 0.045685
#
#
# Mechanical properties :
#
#
# Convention : Reuss Voigt Hill
#
# Bulk Modulus (GPa) = 91.53504 93.18944 92.36224
# Shear Modulus (GPa) = 28.50828 32.53719 30.52274
#
# Velocity S-wave (km/s) = 3.52505 3.76591 3.64747
# Velocity P-wave (km/s) = 7.51437 7.71546 7.61557
#
# Compressibility (1/GPa) = 0.01092478
#
# Stress axis : x y z
#
# Youngs Moduli (GPa) = 63.13183 148.60219 81.44087
#
# Poissons Ratio (x) = 0.56882 0.63473
# Poissons Ratio (y) = 0.24166 0.02770
# Poissons Ratio (z) = 0.49204 0.05053
#
# Static dielectric constant tensor:
#      x y z
#    x 4.063390 0.000000 0.000000 
#    y 0.000000 4.217370 0.000000 
#    z 0.000000 0.000000 4.425320 
# 
# 
# High freq. dielectric constant tensor:
#      x y z
#    x 1.880140 0.000000 0.000000 
#    y 0.000000 1.914940 0.000000 
#    z 0.000000 0.000000 1.926890 
# 
# From -- ./inp_files/23727.got.cif
#   From: 2010.03.12/outbox.cif.g09.slc.cpg/sg72_12_cif.got.tgz:23727.got - 2010.04.16 14:54:00.
