data_PCOD8295001
_publ_section_title
;
Structure prediction by ZEFSAII (Michael W. Deem and Ramdas Pophale) SiO2 
 PCOD8295001
Probable space group: I B A M
;
_chemical_formula_sum "Si O2"
_cell_formula_units_Z 120
_cell_length_a 18.023707
_cell_length_b 15.907541
_cell_length_c 21.179780
_cell_angle_alpha 90.000000
_cell_angle_beta 90.000000
_cell_angle_gamma 90.000000
_cell_volume 6072.515257
_symmetry_space_group_name_H-M "I B A M"
_symmetry_group_IT_number 72
_symmetry_cell_setting 'orthorhombic'
loop_
_space_group_symop_operation_xyz
x,y,z
-x,-y,z
x,-y,1/2-z
-x,y,1/2-z
-x,-y,-z
x,y,-z
-x,y,1/2+z
x,-y,1/2+z
1/2+x,1/2+y,1/2+z
1/2-x,1/2-y,1/2+z
1/2+x,1/2-y,-z
1/2-x,1/2+y,-z
1/2-x,1/2-y,1/2-z
1/2+x,1/2+y,1/2-z
1/2-x,1/2+y,z
1/2+x,1/2-y,z
loop_
_atom_site_type_symbol
_atom_site_label
_atom_site_fract_x
_atom_site_fract_y
_atom_site_fract_z
Si Si1 0.386582 0.673185 0.927477
Si Si2 0.965236 0.591994 0.686561
Si Si3 0.414067 0.502859 0.633961
Si Si4 0.528025 0.214717 0.571306
Si Si5 0.185467 0.000000 0.750000
Si Si6 0.273378 0.779385 0.151430
Si Si7 0.848455 0.154471 0.070945
Si Si8 0.305274 0.863324 0.724770
O O1 0.384765 0.585934 0.890615
O O2 0.467040 0.713433 0.920919
O O3 0.327370 0.735701 0.897678
O O4 0.364859 0.657265 0.000000
O O5 0.984775 0.643105 0.623467
O O6 0.876600 0.587797 0.697347
O O7 0.000000 0.500000 0.677683
O O8 0.000000 0.634341 0.750000
O O9 0.500000 0.500000 0.651976
O O10 0.367904 0.532026 0.694716
O O11 0.400969 0.573954 0.581488
O O12 0.524120 0.176060 0.500000
O O13 0.606558 0.259336 0.582845
O O14 0.235367 0.075425 0.775255
O O15 0.224123 0.848223 0.114827
O O16 0.321007 0.828020 0.204694
O O17 0.214962 0.714403 0.180727
O O18 0.819404 0.151134 0.000000
#
# Coordination Sequence:
#
# PCOD8295001 Si02
#       8
#    16  16  16  16   8  16  16  16
#     4  11  23  40  63  92 128 166 206 255 315 381
#     4  11  23  42  66  95 125 168 221 266 312 378
#     4  12  24  41  62  94 128 165 209 259 318 376
#     4  10  22  41  65  94 129 168 211 264 320 378
#     4  12  23  42  59  90 130 160 206 264 317 378
#     4  11  22  41  63  91 124 159 211 257 316 380
#     4  11  22  40  66  92 126 166 209 259 315 386
#     4  11  23  39  65  88 121 167 203 262 319 367
#
# _framework density 19.76117
#
# number of rings (size 3 to 8) (size 9 to 14) (size 15 to 20)
#    0.000    0.933    5.333    2.600    0.000    0.800 
#    2.400    0.000    0.000    0.000    0.000    0.000 
#    0.000    0.000    0.000    0.000    0.000    0.000 
#
# Total GULP energy -744147.281108 kJ/mol
# GULP energy per Si atom -12402.454685 kJ/mol
# Density = 1.971619 g / cm^3
# Si number density = 19.761170 Si / 1000 Ang^3
#
#
#
# Elastic Constant Matrix: (Units=GPa)
#
#
# Indices 1 2 3 4 5 6 
#
# 1 84.2697 25.1769 34.5841 0.0000 0.0000 0.0000
# 2 25.1769 84.1581 37.0099 0.0000 0.0000 0.0000
# 3 34.5841 37.0099 111.5929 0.0000 0.0000 0.0000
# 4 0.0000 0.0000 0.0000 25.3941 0.0000 0.0000
# 5 0.0000 0.0000 0.0000 0.0000 29.1339 0.0000
# 6 0.0000 0.0000 0.0000 0.0000 0.0000 31.4493
#
#
#
# Elastic Compliance Matrix: (Units=1/GPa)
#
#
# Indices 1 2 3 4 5 6 
#
# 1 0.014097 -0.002688 -0.003477 0.000000 0.000000 0.000000
# 2 -0.002688 0.014424 -0.003951 0.000000 0.000000 0.000000
# 3 -0.003477 -0.003951 0.011349 0.000000 0.000000 0.000000
# 4 0.000000 0.000000 0.000000 0.039379 0.000000 0.000000
# 5 0.000000 0.000000 0.000000 0.000000 0.034324 0.000000
# 6 0.000000 0.000000 0.000000 0.000000 0.000000 0.031797
#
#
# Mechanical properties :
#
#
# Convention : Reuss Voigt Hill
#
# Bulk Modulus (GPa) = 50.92214 52.61803 51.77009
# Shear Modulus (GPa) = 29.04472 29.41213 29.22842
#
# Velocity S-wave (km/s) = 3.83794 3.86214 3.85006
# Velocity P-wave (km/s) = 6.74273 6.82444 6.78371
#
# Compressibility (1/GPa) = 0.01963782
#
# Stress axis : x y z
#
# Youngs Moduli (GPa) = 70.93793 69.32935 88.11321
#
# Poissons Ratio (x) = 0.18636 0.30640
# Poissons Ratio (y) = 0.19068 0.34810
# Poissons Ratio (z) = 0.24667 0.27390
#
# Static dielectric constant tensor:
#      x y z
#    x 3.538270 0.000000 0.000000 
#    y 0.000000 3.589100 0.000000 
#    z 0.000000 0.000000 3.740820 
# 
# 
# High freq. dielectric constant tensor:
#      x y z
#    x 1.775460 0.000000 0.000000 
#    y 0.000000 1.762850 0.000000 
#    z 0.000000 0.000000 1.782670 
# 
# From -- ./inp_files/39273.got.cif
#   From: 2010.03.12/outbox.cif.g09.slc.cpg/sg72_20_cif.got.tgz:39273.got - 2010.04.16 14:54:00.
