data_PCOD8295274
_publ_section_title
;
Structure prediction by ZEFSAII (Michael W. Deem and Ramdas Pophale) SiO2 
 PCOD8295274
Probable space group: I B A M
;
_chemical_formula_sum "Si O2"
_cell_formula_units_Z 96
_cell_length_a 23.988161
_cell_length_b 23.827578
_cell_length_c 8.286284
_cell_angle_alpha 90.000000
_cell_angle_beta 90.000000
_cell_angle_gamma 90.000000
_cell_volume 4736.272363
_symmetry_space_group_name_H-M "I B A M"
_symmetry_group_IT_number 72
_symmetry_cell_setting 'orthorhombic'
loop_
_space_group_symop_operation_xyz
x,y,z
-x,-y,z
x,-y,1/2-z
-x,y,1/2-z
-x,-y,-z
x,y,-z
-x,y,1/2+z
x,-y,1/2+z
1/2+x,1/2+y,1/2+z
1/2-x,1/2-y,1/2+z
1/2+x,1/2-y,-z
1/2-x,1/2+y,-z
1/2-x,1/2-y,1/2-z
1/2+x,1/2+y,1/2-z
1/2-x,1/2+y,z
1/2+x,1/2-y,z
loop_
_atom_site_type_symbol
_atom_site_label
_atom_site_fract_x
_atom_site_fract_y
_atom_site_fract_z
Si Si1 0.941264 0.347632 0.313183
Si Si2 0.438518 0.726164 0.686310
Si Si3 0.055844 0.937889 0.808985
Si Si4 0.853395 0.863414 0.183724
Si Si5 0.639380 0.939494 0.812467
Si Si6 0.738247 0.440280 0.311395
O O1 0.946543 0.331837 0.500000
O O2 0.925818 0.291116 0.217885
O O3 0.893561 0.392935 0.287451
O O4 0.000000 0.372076 0.250000
O O5 0.500000 0.709174 0.750000
O O6 0.439197 0.711962 0.500000
O O7 0.385759 0.691865 0.756264
O O8 0.105834 0.915333 0.703730
O O9 0.000000 0.905217 0.750000
O O10 0.048733 0.000000 0.750000
O O11 0.066200 0.931350 0.000000
O O12 0.798791 0.884312 0.281207
O O13 0.835498 0.854190 0.000000
O O14 0.704637 0.930625 0.783987
O O15 0.619506 0.000000 0.750000
O O16 0.625130 0.933316 0.000000
O O17 0.711564 0.500000 0.250000
O O18 0.750729 0.445937 0.500000
#
# Coordination Sequence:
#
# PCOD8295274 Si02
#       6
#    16  16  16  16  16  16
#     4  11  22  40  64  93 124 158 193 235 286 345
#     4  11  22  39  60  86 117 155 197 244 295 349
#     4  11  21  34  49  71 101 137 180 235 295 351
#     4  12  23  37  55  79 109 149 196 243 289 344
#     4  11  22  40  64  93 124 158 193 235 286 345
#     4  11  22  39  60  86 117 155 197 244 295 349
#
# _framework density 20.269105
#
# number of rings (size 3 to 8) (size 9 to 14) (size 15 to 20)
#    0.000    0.833    0.000   12.500    0.000    0.333 
#    0.000    2.500    0.000    0.000    0.000    0.000 
#    0.000    0.000    0.000    0.000    0.000    0.000 
#
# Total GULP energy -595009.045797 kJ/mol
# GULP energy per Si atom -12396.021787 kJ/mol
# Density = 2.022297 g / cm^3
# Si number density = 20.269105 Si / 1000 Ang^3
#
#
#
# Elastic Constant Matrix: (Units=GPa)
#
#
# Indices 1 2 3 4 5 6 
#
# 1 73.2814 47.0751 1.9179 0.0000 0.0000 0.0000
# 2 47.0751 101.8429 6.0915 0.0000 0.0000 0.0000
# 3 1.9179 6.0915 103.7686 0.0000 0.0000 0.0000
# 4 0.0000 0.0000 0.0000 32.1973 0.0000 0.0000
# 5 0.0000 0.0000 0.0000 0.0000 32.7543 0.0000
# 6 0.0000 0.0000 0.0000 0.0000 0.0000 35.5573
#
#
#
# Elastic Compliance Matrix: (Units=1/GPa)
#
#
# Indices 1 2 3 4 5 6 
#
# 1 0.019412 -0.008983 0.000169 0.000000 0.000000 0.000000
# 2 -0.008983 0.014011 -0.000656 0.000000 0.000000 0.000000
# 3 0.000169 -0.000656 0.009672 0.000000 0.000000 0.000000
# 4 0.000000 0.000000 0.000000 0.031058 0.000000 0.000000
# 5 0.000000 0.000000 0.000000 0.000000 0.030530 0.000000
# 6 0.000000 0.000000 0.000000 0.000000 0.000000 0.028124
#
#
# Mechanical properties :
#
#
# Convention : Reuss Voigt Hill
#
# Bulk Modulus (GPa) = 41.40243 43.22909 42.31576
# Shear Modulus (GPa) = 31.28905 35.02235 33.15570
#
# Velocity S-wave (km/s) = 3.93323 4.16127 4.04886
# Velocity P-wave (km/s) = 6.41076 6.66799 6.54064
#
# Compressibility (1/GPa) = 0.02415317
#
# Stress axis : x y z
#
# Youngs Moduli (GPa) = 51.51401 71.37476 103.38859
#
# Poissons Ratio (x) = 0.64116 -0.01743
# Poissons Ratio (y) = 0.46275 0.06787
# Poissons Ratio (z) = -0.00868 0.04685
#
# Static dielectric constant tensor:
#      x y z
#    x 3.768620 0.000000 0.000000 
#    y 0.000000 3.617680 0.000000 
#    z 0.000000 0.000000 3.602190 
# 
# 
# High freq. dielectric constant tensor:
#      x y z
#    x 1.786660 0.000000 0.000000 
#    y 0.000000 1.786830 0.000000 
#    z 0.000000 0.000000 1.811390 
# 
# From -- ./inp_files/6971.got.cif
#   From: 2010.03.12/outbox.cif.g09.slc.cpg/sg72_4_cif.got.tgz:6971.got - 2010.04.16 14:54:00.
