data_PCOD8295290
_publ_section_title
;
Structure prediction by ZEFSAII (Michael W. Deem and Ramdas Pophale) SiO2 
 PCOD8295290
Probable space group: I B A M
;
_chemical_formula_sum "Si O2"
_cell_formula_units_Z 80
_cell_length_a 25.039526
_cell_length_b 9.405202
_cell_length_c 16.307124
_cell_angle_alpha 90.000000
_cell_angle_beta 90.000000
_cell_angle_gamma 90.000000
_cell_volume 3840.357055
_symmetry_space_group_name_H-M "I B A M"
_symmetry_group_IT_number 72
_symmetry_cell_setting 'orthorhombic'
loop_
_space_group_symop_operation_xyz
x,y,z
-x,-y,z
x,-y,1/2-z
-x,y,1/2-z
-x,-y,-z
x,y,-z
-x,y,1/2+z
x,-y,1/2+z
1/2+x,1/2+y,1/2+z
1/2-x,1/2-y,1/2+z
1/2+x,1/2-y,-z
1/2-x,1/2+y,-z
1/2-x,1/2-y,1/2-z
1/2+x,1/2+y,1/2-z
1/2-x,1/2+y,z
1/2+x,1/2-y,z
loop_
_atom_site_type_symbol
_atom_site_label
_atom_site_fract_x
_atom_site_fract_y
_atom_site_fract_z
Si Si1 0.406037 0.356031 0.147663
Si Si2 0.780646 0.196691 0.332236
Si Si3 0.500503 0.841126 0.348200
Si Si4 0.098401 0.830598 0.663318
Si Si5 0.793794 0.896610 0.592365
O O1 0.451417 0.250194 0.112011
O O2 0.407906 0.519469 0.114982
O O3 0.417055 0.357647 0.243444
O O4 0.346129 0.309033 0.123435
O O5 0.750000 0.250000 0.250000
O O6 0.842856 0.238981 0.336361
O O7 0.753153 0.280316 0.406798
O O8 0.778759 0.025983 0.345779
O O9 0.500000 0.844693 0.250000
O O10 0.556467 0.775321 0.378631
O O11 0.500000 0.000000 0.384095
O O12 0.801365 0.953744 0.500000
#
# Coordination Sequence:
#
# PCOD8295290 Si02
#       5
#    16  16  16  16  16
#     4   9  17  32  53  75 110 148 190 232 292 347
#     4  11  21  38  59  85 114 152 203 248 292 352
#     4   9  17  29  48  82 114 139 178 240 303 340
#     4   9  17  31  53  80 107 145 188 241 286 339
#     4  11  23  38  57  84 120 158 197 245 306 362
#
# _framework density 20.831396999999999
#
# number of rings (size 3 to 8) (size 9 to 14) (size 15 to 20)
#    0.000    2.200    2.000    1.800    0.000    4.000 
#    7.200    0.000    0.000   11.400    0.000    0.000 
#    0.000    0.000    0.000    0.000    0.000    0.000 
#
# Total GULP energy -495558.869309 kJ/mol
# GULP energy per Si atom -12388.971733 kJ/mol
# Density = 2.078398 g / cm^3
# Si number density = 20.831397 Si / 1000 Ang^3
#
#
#
# Elastic Constant Matrix: (Units=GPa)
#
#
# Indices 1 2 3 4 5 6 
#
# 1 197.0045 113.0557 14.4871 0.0000 0.0000 0.0000
# 2 113.0557 122.6901 18.1313 0.0000 0.0000 0.0000
# 3 14.4871 18.1313 43.3426 0.0000 0.0000 0.0000
# 4 0.0000 0.0000 0.0000 14.7737 0.0000 0.0000
# 5 0.0000 0.0000 0.0000 0.0000 6.6365 0.0000
# 6 0.0000 0.0000 0.0000 0.0000 0.0000 42.6760
#
#
#
# Elastic Compliance Matrix: (Units=1/GPa)
#
#
# Indices 1 2 3 4 5 6 
#
# 1 0.010787 -0.010027 0.000589 0.000000 0.000000 0.000000
# 2 -0.010027 0.018008 -0.004182 0.000000 0.000000 0.000000
# 3 0.000589 -0.004182 0.024624 0.000000 0.000000 0.000000
# 4 0.000000 0.000000 0.000000 0.067688 0.000000 0.000000
# 5 0.000000 0.000000 0.000000 0.000000 0.150681 0.000000
# 6 0.000000 0.000000 0.000000 0.000000 0.000000 0.023432
#
#
# Mechanical properties :
#
#
# Convention : Reuss Voigt Hill
#
# Bulk Modulus (GPa) = 38.19686 72.70946 55.45316
# Shear Modulus (GPa) = 15.09722 27.30813 21.20267
#
# Velocity S-wave (km/s) = 2.69501 3.62458 3.19379
# Velocity P-wave (km/s) = 5.29718 7.24544 6.34651
#
# Compressibility (1/GPa) = 0.02618016
#
# Stress axis : x y z
#
# Youngs Moduli (GPa) = 92.70541 55.53060 40.61002
#
# Poissons Ratio (x) = 0.55680 -0.02392
# Poissons Ratio (y) = 0.92954 0.16982
# Poissons Ratio (z) = -0.05460 0.23222
#
# Static dielectric constant tensor:
#      x y z
#    x 3.990430 0.000000 0.000000 
#    y 0.000000 4.040770 0.000000 
#    z 0.000000 0.000000 3.233500 
# 
# 
# High freq. dielectric constant tensor:
#      x y z
#    x 1.828490 0.000000 0.000000 
#    y 0.000000 1.808380 0.000000 
#    z 0.000000 0.000000 1.768830 
# 
# From -- ./inp_files/34175.got.cif
#   From: 2010.03.12/outbox.cif.g09.slc.cpg/sg72_18_cif.got.tgz:34175.got - 2010.04.16 14:54:00.
