data_PCOD8295466
_publ_section_title
;
Structure prediction by ZEFSAII (Michael W. Deem and Ramdas Pophale) SiO2 
 PCOD8295466
Probable space group: I B A M
;
_chemical_formula_sum "Si O2"
_cell_formula_units_Z 72
_cell_length_a 10.632785
_cell_length_b 18.115819
_cell_length_c 18.181296
_cell_angle_alpha 90.000000
_cell_angle_beta 90.000000
_cell_angle_gamma 90.000000
_cell_volume 3502.110481
_symmetry_space_group_name_H-M "I B A M"
_symmetry_group_IT_number 72
_symmetry_cell_setting 'orthorhombic'
loop_
_space_group_symop_operation_xyz
x,y,z
-x,-y,z
x,-y,1/2-z
-x,y,1/2-z
-x,-y,-z
x,y,-z
-x,y,1/2+z
x,-y,1/2+z
1/2+x,1/2+y,1/2+z
1/2-x,1/2-y,1/2+z
1/2+x,1/2-y,-z
1/2-x,1/2+y,-z
1/2-x,1/2-y,1/2-z
1/2+x,1/2+y,1/2-z
1/2-x,1/2+y,z
1/2+x,1/2-y,z
loop_
_atom_site_type_symbol
_atom_site_label
_atom_site_fract_x
_atom_site_fract_y
_atom_site_fract_z
Si Si1 0.052988 0.136196 0.831796
Si Si2 0.730796 0.028290 0.674943
Si Si3 0.000000 0.405225 0.250000
Si Si4 0.671927 0.215810 0.817356
Si Si5 0.688472 0.392235 0.413562
O O1 0.188302 0.099284 0.848031
O O2 0.074478 0.223235 0.846990
O O3 0.000000 0.123588 0.750000
O O4 0.957225 0.101048 0.890200
O O5 0.584119 0.046434 0.692631
O O6 0.796326 0.000000 0.750000
O O7 0.735015 0.964017 0.613994
O O8 0.096834 0.356551 0.205094
O O9 0.750000 0.250000 0.750000
O O10 0.764256 0.186024 0.880463
O O11 0.702566 0.388357 0.500000
#
# Coordination Sequence:
#
# PCOD8295466 Si02
#       5
#    16  16   8  16  16
#     4  12  22  40  73 101 127 180 240 281 331 417
#     4  12  23  39  70 100 131 181 230 280 335 412
#     4  12  21  38  70 106 131 174 240 286 321 414
#     4  12  21  42  72 105 131 176 234 284 346 411
#     4  12  28  45  65 103 147 177 226 299 355 402
#
# _framework density 20.559031999999998
#
# number of rings (size 3 to 8) (size 9 to 14) (size 15 to 20)
#    0.000    0.000   10.000    1.000    0.000    2.667 
#    0.000    2.222    0.000    0.000    0.000    0.000 
#    0.000    0.000    0.000    0.000    0.000    0.000 
#
# Total GULP energy -446317.429360 kJ/mol
# GULP energy per Si atom -12397.706371 kJ/mol
# Density = 2.051224 g / cm^3
# Si number density = 20.559032 Si / 1000 Ang^3
#
#
#
# Elastic Constant Matrix: (Units=GPa)
#
#
# Indices 1 2 3 4 5 6 
#
# 1 141.4062 61.5400 48.2862 0.0000 0.0000 0.0000
# 2 61.5400 116.5870 59.6144 0.0000 0.0000 0.0000
# 3 48.2862 59.6144 144.0226 0.0000 0.0000 0.0000
# 4 0.0000 0.0000 0.0000 28.8305 0.0000 0.0000
# 5 0.0000 0.0000 0.0000 0.0000 21.6743 0.0000
# 6 0.0000 0.0000 0.0000 0.0000 0.0000 47.8052
#
#
#
# Elastic Compliance Matrix: (Units=1/GPa)
#
#
# Indices 1 2 3 4 5 6 
#
# 1 0.009396 -0.004248 -0.001392 0.000000 0.000000 0.000000
# 2 -0.004248 0.012801 -0.003874 0.000000 0.000000 0.000000
# 3 -0.001392 -0.003874 0.009014 0.000000 0.000000 0.000000
# 4 0.000000 0.000000 0.000000 0.034685 0.000000 0.000000
# 5 0.000000 0.000000 0.000000 0.000000 0.046138 0.000000
# 6 0.000000 0.000000 0.000000 0.000000 0.000000 0.020918
#
#
# Mechanical properties :
#
#
# Convention : Reuss Voigt Hill
#
# Bulk Modulus (GPa) = 82.08793 82.32189 82.20491
# Shear Modulus (GPa) = 32.04313 35.16702 33.60508
#
# Velocity S-wave (km/s) = 3.95218 4.14035 4.04736
# Velocity P-wave (km/s) = 7.80006 7.93633 7.86849
#
# Compressibility (1/GPa) = 0.01218206
#
# Stress axis : x y z
#
# Youngs Moduli (GPa) = 106.43105 78.12182 110.94298
#
# Poissons Ratio (x) = 0.33185 0.15441
# Poissons Ratio (y) = 0.45210 0.42982
# Poissons Ratio (z) = 0.14813 0.30267
#
# Static dielectric constant tensor:
#      x y z
#    x 4.208770 0.000000 0.000000 
#    y 0.000000 4.143230 0.000000 
#    z 0.000000 0.000000 3.286170 
# 
# 
# High freq. dielectric constant tensor:
#      x y z
#    x 1.821020 0.000000 0.000000 
#    y 0.000000 1.830490 0.000000 
#    z 0.000000 0.000000 1.749560 
# 
# From -- ./inp_files/29062.got.cif
#   From: 2010.03.12/outbox.cif.g09.slc.cpg/sg72_15_cif.got.tgz:29062.got - 2010.04.16 14:54:00.
