data_PCOD8295710
_publ_section_title
;
Structure prediction by ZEFSAII (Michael W. Deem and Ramdas Pophale) SiO2 
 PCOD8295710
Probable space group: I B C A 
;
_chemical_formula_sum "Si O2"
_cell_formula_units_Z 120
_cell_length_a 31.808123
_cell_length_b 13.786605
_cell_length_c 14.263968
_cell_angle_alpha 90.000000
_cell_angle_beta 90.000000
_cell_angle_gamma 90.000000
_cell_volume 6255.121225
_symmetry_space_group_name_H-M "I B C A "
_symmetry_group_IT_number 73
_symmetry_cell_setting 'orthorhombic'
loop_
_space_group_symop_operation_xyz
x,y,z
-x,1/2-y,z
x,-y,1/2-z
1/2-x,y,-z
-x,-y,-z
x,1/2+y,-z
-x,y,1/2+z
1/2+x,-y,z
1/2+x,1/2+y,1/2+z
1/2-x,-y,1/2+z
1/2+x,1/2-y,-z
-x,1/2+y,1/2-z
1/2-x,1/2-y,1/2-z
1/2+x,y,1/2-z
1/2-x,1/2+y,z
x,1/2-y,1/2+z
loop_
_atom_site_type_symbol
_atom_site_label
_atom_site_fract_x
_atom_site_fract_y
_atom_site_fract_z
Si Si1 0.706421 0.613754 0.961953
Si Si2 0.315501 0.610663 0.255355
Si Si3 0.547330 0.000000 0.250000
Si Si4 0.597128 0.312854 0.789301
Si Si5 0.710497 0.110226 0.444321
Si Si6 0.996399 0.586040 0.075422
Si Si7 0.063018 0.741995 0.104658
Si Si8 0.363255 0.749252 0.026349
O O1 0.706988 0.638809 0.851725
O O2 0.705085 0.499579 0.976977
O O3 0.750000 0.658032 0.000000
O O4 0.666786 0.656141 0.020468
O O5 0.331066 0.500000 0.250000
O O6 0.356055 0.678251 0.250710
O O7 0.283425 0.626283 0.167774
O O8 0.576411 0.080652 0.301298
O O9 0.515711 0.041669 0.174180
O O10 0.567041 0.254360 0.717483
O O11 0.603221 0.254151 0.887056
O O12 0.750000 0.156464 0.500000
O O13 0.666579 0.156471 0.473675
O O14 0.961591 0.668933 0.053895
O O15 0.041281 0.639368 0.083293
O O16 0.000000 0.500000 0.000000
O O17 0.110120 0.743192 0.067650
#
# Coordination Sequence:
#
# PCOD8295710 Si02
#       8
#    16  16   8  16  16  16  16  16
#     4  10  20  36  56  84 117 151 194 245 288 334
#     4   9  16  32  58  79 106 149 194 234 279 333
#     4  10  20  36  62  82 112 144 198 236 278 354
#     4  10  19  34  56  85 108 150 191 233 286 337
#     4   9  20  36  55  84 114 151 198 241 283 339
#     4  10  22  39  60  86 113 152 186 235 293 346
#     4  10  22  38  56  85 121 144 189 240 286 349
#     4  11  21  35  59  85 114 151 194 236 288 351
#
# _framework density 19.184280999999999
#
# number of rings (size 3 to 8) (size 9 to 14) (size 15 to 20)
#    0.000    2.133    2.000    1.200    0.000    2.133 
#    2.400    4.667    0.000    0.000    0.000    0.000 
#    0.000    0.000    0.000    0.000    0.000    0.000 
#
# Total GULP energy -743595.423671 kJ/mol
# GULP energy per Si atom -12393.257061 kJ/mol
# Density = 1.914062 g / cm^3
# Si number density = 19.184281 Si / 1000 Ang^3
#
#
#
# Elastic Constant Matrix: (Units=GPa)
#
#
# Indices 1 2 3 4 5 6 
#
# 1 89.8103 34.8450 40.0467 0.0000 0.0000 0.0000
# 2 34.8450 86.4859 49.9123 0.0000 0.0000 0.0000
# 3 40.0467 49.9123 91.7395 0.0000 0.0000 0.0000
# 4 0.0000 0.0000 0.0000 28.8559 0.0000 0.0000
# 5 0.0000 0.0000 0.0000 0.0000 37.4158 0.0000
# 6 0.0000 0.0000 0.0000 0.0000 0.0000 26.3870
#
#
#
# Elastic Compliance Matrix: (Units=1/GPa)
#
#
# Indices 1 2 3 4 5 6 
#
# 1 0.014398 -0.003169 -0.004561 0.000000 0.000000 0.000000
# 2 -0.003169 0.017552 -0.008166 0.000000 0.000000 0.000000
# 3 -0.004561 -0.008166 0.017334 0.000000 0.000000 0.000000
# 4 0.000000 0.000000 0.000000 0.034655 0.000000 0.000000
# 5 0.000000 0.000000 0.000000 0.000000 0.026727 0.000000
# 6 0.000000 0.000000 0.000000 0.000000 0.000000 0.037898
#
#
# Mechanical properties :
#
#
# Convention : Reuss Voigt Hill
#
# Bulk Modulus (GPa) = 57.16779 57.51596 57.34188
# Shear Modulus (GPa) = 26.85483 28.08050 27.46767
#
# Velocity S-wave (km/s) = 3.74550 3.83002 3.78799
# Velocity P-wave (km/s) = 6.96914 7.04305 7.00619
#
# Compressibility (1/GPa) = 0.01749237
#
# Stress axis : x y z
#
# Youngs Moduli (GPa) = 69.45542 56.97322 57.68847
#
# Poissons Ratio (x) = 0.18052 0.26312
# Poissons Ratio (y) = 0.22007 0.47110
# Poissons Ratio (z) = 0.31679 0.46526
#
# Static dielectric constant tensor:
#      x y z
#    x 3.494750 0.000000 0.000000 
#    y 0.000000 3.480770 0.000000 
#    z 0.000000 0.000000 3.612650 
# 
# 
# High freq. dielectric constant tensor:
#      x y z
#    x 1.746070 0.000000 0.000000 
#    y 0.000000 1.739770 0.000000 
#    z 0.000000 0.000000 1.744330 
# 
# From -- ./inp_files/20152.got.cif
#   From: 2010.03.12/outbox.cif.g09.slc.cpg/sg73_11_cif.got.tgz:20152.got - 2010.04.16 15:25:48.
