data_PCOD8295576
_publ_section_title
;
Structure prediction by ZEFSAII (Michael W. Deem and Ramdas Pophale) SiO2 
 PCOD8295576
Probable space group: I B C A 
;
_chemical_formula_sum "Si O2"
_cell_formula_units_Z 88
_cell_length_a 20.389829
_cell_length_b 25.705630
_cell_length_c 8.478596
_cell_angle_alpha 90.000000
_cell_angle_beta 90.000000
_cell_angle_gamma 90.000000
_cell_volume 4443.915349
_symmetry_space_group_name_H-M "I B C A "
_symmetry_group_IT_number 73
_symmetry_cell_setting 'orthorhombic'
loop_
_space_group_symop_operation_xyz
x,y,z
-x,1/2-y,z
x,-y,1/2-z
1/2-x,y,-z
-x,-y,-z
x,1/2+y,-z
-x,y,1/2+z
1/2+x,-y,z
1/2+x,1/2+y,1/2+z
1/2-x,-y,1/2+z
1/2+x,1/2-y,-z
-x,1/2+y,1/2-z
1/2-x,1/2-y,1/2-z
1/2+x,y,1/2-z
1/2-x,1/2+y,z
x,1/2-y,1/2+z
loop_
_atom_site_type_symbol
_atom_site_label
_atom_site_fract_x
_atom_site_fract_y
_atom_site_fract_z
Si Si1 0.750000 0.745851 0.000000
Si Si2 0.090170 0.660001 0.204852
Si Si3 0.949540 0.344921 0.157318
Si Si4 0.411276 0.947508 0.195911
Si Si5 0.445938 0.551748 0.327079
Si Si6 0.155024 0.769010 0.247778
O O1 0.798535 0.781686 0.896423
O O2 0.700010 0.711205 0.897028
O O3 0.126435 0.605615 0.253736
O O4 0.140095 0.707174 0.234320
O O5 0.026772 0.663828 0.319060
O O6 0.064995 0.658190 0.026714
O O7 0.920517 0.397849 0.232178
O O8 0.913221 0.298404 0.248081
O O9 0.475787 0.949407 0.307422
O O10 0.371662 0.000000 0.250000
O O11 0.428619 0.945789 0.011275
O O12 0.413974 0.500000 0.250000
#
# Coordination Sequence:
#
# PCOD8295576 Si02
#       6
#     8  16  16  16  16  16
#     4  10  24  42  58  78 102 150 192 232 270 322
#     4  11  22  34  55  85 117 147 178 225 280 331
#     4  11  22  34  55  85 117 147 178 225 280 331
#     4  10  18  30  49  75 112 148 180 214 263 332
#     4  10  18  30  49  75 112 148 180 214 263 332
#     4  11  23  40  60  80 111 141 190 230 278 329
#
# _framework density 19.802358000000002
#
# number of rings (size 3 to 8) (size 9 to 14) (size 15 to 20)
#    0.000    1.455    1.818    8.182    5.091    1.455 
#    0.000    0.000    0.000    0.000    0.000    7.636 
#    0.000    0.000    0.000    0.000    0.000    0.000 
#
# Total GULP energy -545135.941816 kJ/mol
# GULP energy per Si atom -12389.453223 kJ/mol
# Density = 1.975729 g / cm^3
# Si number density = 19.802358 Si / 1000 Ang^3
#
#
#
# Elastic Constant Matrix: (Units=GPa)
#
#
# Indices 1 2 3 4 5 6 
#
# 1 42.7174 27.5468 23.0546 0.0000 0.0000 0.0000
# 2 27.5468 146.1769 33.8837 0.0000 0.0000 0.0000
# 3 23.0546 33.8837 101.2716 0.0000 0.0000 0.0000
# 4 0.0000 0.0000 0.0000 25.1161 0.0000 0.0000
# 5 0.0000 0.0000 0.0000 0.0000 2.8596 0.0000
# 6 0.0000 0.0000 0.0000 0.0000 0.0000 3.7087
#
#
#
# Elastic Compliance Matrix: (Units=1/GPa)
#
#
# Indices 1 2 3 4 5 6 
#
# 1 0.028942 -0.004257 -0.005164 0.000000 0.000000 0.000000
# 2 -0.004257 0.008042 -0.001722 0.000000 0.000000 0.000000
# 3 -0.005164 -0.001722 0.011626 0.000000 0.000000 0.000000
# 4 0.000000 0.000000 0.000000 0.039815 0.000000 0.000000
# 5 0.000000 0.000000 0.000000 0.000000 0.349693 0.000000
# 6 0.000000 0.000000 0.000000 0.000000 0.000000 0.269636
#
#
# Mechanical properties :
#
#
# Convention : Reuss Voigt Hill
#
# Bulk Modulus (GPa) = 37.98761 51.01514 44.50138
# Shear Modulus (GPa) = 6.76759 20.04894 13.40826
#
# Velocity S-wave (km/s) = 1.85067 3.18536 2.60495
# Velocity P-wave (km/s) = 4.87767 6.27270 5.61865
#
# Compressibility (1/GPa) = 0.02632437
#
# Stress axis : x y z
#
# Youngs Moduli (GPa) = 34.55184 124.34189 86.01282
#
# Poissons Ratio (x) = 0.52932 0.44420
# Poissons Ratio (y) = 0.14709 0.14809
# Poissons Ratio (z) = 0.17844 0.21408
#
# Static dielectric constant tensor:
#      x y z
#    x 3.187370 0.000000 0.000000 
#    y 0.000000 4.289080 0.000000 
#    z 0.000000 0.000000 3.897210 
# 
# 
# High freq. dielectric constant tensor:
#      x y z
#    x 1.706800 0.000000 0.000000 
#    y 0.000000 1.776890 0.000000 
#    z 0.000000 0.000000 1.801660 
# 
# From -- ./inp_files/5721.got.cif
#   From: 2010.03.12/outbox.cif.g09.slc.cpg/sg73_3_cif.got.tgz:5721.got - 2010.04.16 15:25:48.
