data_PCOD8295730
_publ_section_title
;
Structure prediction by ZEFSAII (Michael W. Deem and Ramdas Pophale) SiO2 
 PCOD8295730
Probable space group: I B C A 
;
_chemical_formula_sum "Si O2"
_cell_formula_units_Z 96
_cell_length_a 15.769459
_cell_length_b 23.934977
_cell_length_c 12.599674
_cell_angle_alpha 90.000000
_cell_angle_beta 90.000000
_cell_angle_gamma 90.000000
_cell_volume 4755.641599
_symmetry_space_group_name_H-M "I B C A "
_symmetry_group_IT_number 73
_symmetry_cell_setting 'orthorhombic'
loop_
_space_group_symop_operation_xyz
x,y,z
-x,1/2-y,z
x,-y,1/2-z
1/2-x,y,-z
-x,-y,-z
x,1/2+y,-z
-x,y,1/2+z
1/2+x,-y,z
1/2+x,1/2+y,1/2+z
1/2-x,-y,1/2+z
1/2+x,1/2-y,-z
-x,1/2+y,1/2-z
1/2-x,1/2-y,1/2-z
1/2+x,y,1/2-z
1/2-x,1/2+y,z
x,1/2-y,1/2+z
loop_
_atom_site_type_symbol
_atom_site_label
_atom_site_fract_x
_atom_site_fract_y
_atom_site_fract_z
Si Si1 0.882206 0.298639 0.444877
Si Si2 0.727079 0.398973 0.618672
Si Si3 0.101328 0.642639 0.343510
Si Si4 0.462567 0.416364 0.483698
Si Si5 0.924055 0.318137 0.889623
Si Si6 0.417919 0.519913 0.361351
O O1 0.822770 0.339641 0.376081
O O2 0.869092 0.311057 0.570012
O O3 0.862185 0.233603 0.419664
O O4 0.979083 0.307494 0.417059
O O5 0.750000 0.416047 0.500000
O O6 0.815790 0.395395 0.682391
O O7 0.670601 0.449280 0.665179
O O8 0.076487 0.672391 0.235638
O O9 0.023122 0.606855 0.389850
O O10 0.398579 0.370672 0.535058
O O11 0.405388 0.466225 0.437587
O O12 0.520547 0.436349 0.581739
O O13 0.458163 0.500000 0.250000
#
# Coordination Sequence:
#
# PCOD8295730 Si02
#       6
#    16  16  16  16  16  16
#     4   9  20  35  59  83 118 147 190 239 284 347
#     4  10  19  41  58  79 117 160 191 228 302 351
#     4  10  20  38  62  82 115 157 189 232 302 355
#     4  10  21  37  61  89 116 147 197 249 280 348
#     4  10  19  35  57  93 112 146 201 237 283 339
#     4  11  21  38  60  84 115 158 193 241 292 339
#
# _framework density 20.186551000000001
#
# number of rings (size 3 to 8) (size 9 to 14) (size 15 to 20)
#    0.000    2.000    5.000    1.000    0.000    6.000 
#    3.000    0.833    0.000    0.000    0.000    0.000 
#    0.000    0.000    0.000    0.000    0.000    0.000 
#
# Total GULP energy -594906.792251 kJ/mol
# GULP energy per Si atom -12393.891505 kJ/mol
# Density = 2.014061 g / cm^3
# Si number density = 20.186551 Si / 1000 Ang^3
#
#
#
# Elastic Constant Matrix: (Units=GPa)
#
#
# Indices 1 2 3 4 5 6 
#
# 1 45.8934 22.3684 15.0245 0.0000 0.0000 0.0000
# 2 22.3684 134.6980 43.2492 -0.0001 0.0000 0.0000
# 3 15.0245 43.2492 84.1097 -0.0005 -0.0002 0.0000
# 4 0.0000 -0.0001 -0.0005 28.8943 -0.0001 0.0000
# 5 0.0000 0.0000 -0.0002 -0.0001 4.0706 0.0000
# 6 0.0000 0.0000 0.0000 0.0000 0.0000 13.2546
#
#
#
# Elastic Compliance Matrix: (Units=1/GPa)
#
#
# Indices 1 2 3 4 5 6 
#
# 1 0.024211 -0.003152 -0.002704 0.000000 0.000000 0.000000
# 2 -0.003152 0.009303 -0.004220 0.000000 0.000000 0.000000
# 3 -0.002704 -0.004220 0.014542 0.000000 0.000001 0.000000
# 4 0.000000 0.000000 0.000000 0.034609 0.000001 0.000000
# 5 0.000000 0.000000 0.000001 0.000001 0.245664 0.000001
# 6 0.000000 0.000000 0.000000 0.000000 0.000001 0.075446
#
#
# Mechanical properties :
#
#
# Convention : Reuss Voigt Hill
#
# Bulk Modulus (GPa) = 35.83841 47.33169 41.58505
# Shear Modulus (GPa) = 11.54125 21.51450 16.52787
#
# Velocity S-wave (km/s) = 2.39368 3.26818 2.86450
# Velocity P-wave (km/s) = 5.04299 6.14324 5.62010
#
# Compressibility (1/GPa) = 0.02790302
#
# Stress axis : x y z
#
# Youngs Moduli (GPa) = 41.30297 107.49719 68.76496
#
# Poissons Ratio (x) = 0.33888 0.18593
# Poissons Ratio (y) = 0.13021 0.29021
# Poissons Ratio (z) = 0.11168 0.45367
#
# Static dielectric constant tensor:
#      x y z
#    x 3.818160 0.000000 0.000000 
#    y 0.000000 4.558690 0.000000 
#    z 0.000000 0.000000 3.524370 
# 
# 
# High freq. dielectric constant tensor:
#      x y z
#    x 1.759940 0.000000 0.000000 
#    y 0.000000 1.797350 0.000000 
#    z 0.000000 0.000000 1.777270 
# 
# From -- ./inp_files/12032.got.cif
#   From: 2010.03.12/outbox.cif.g09.slc.cpg/sg73_7_cif.got.tgz:12032.got - 2010.04.16 15:25:48.
