data_PCOD8295753
_publ_section_title
;
Structure prediction by ZEFSAII (Michael W. Deem and Ramdas Pophale) SiO2 
 PCOD8295753
Probable space group: I B C A 
;
_chemical_formula_sum "Si O2"
_cell_formula_units_Z 72
_cell_length_a 9.477825
_cell_length_b 22.631198
_cell_length_c 16.325926
_cell_angle_alpha 90.000000
_cell_angle_beta 90.000000
_cell_angle_gamma 90.000000
_cell_volume 3501.821892
_symmetry_space_group_name_H-M "I B C A "
_symmetry_group_IT_number 73
_symmetry_cell_setting 'orthorhombic'
loop_
_space_group_symop_operation_xyz
x,y,z
-x,1/2-y,z
x,-y,1/2-z
1/2-x,y,-z
-x,-y,-z
x,1/2+y,-z
-x,y,1/2+z
1/2+x,-y,z
1/2+x,1/2+y,1/2+z
1/2-x,-y,1/2+z
1/2+x,1/2-y,-z
-x,1/2+y,1/2-z
1/2-x,1/2-y,1/2-z
1/2+x,y,1/2-z
1/2-x,1/2+y,z
x,1/2-y,1/2+z
loop_
_atom_site_type_symbol
_atom_site_label
_atom_site_fract_x
_atom_site_fract_y
_atom_site_fract_z
Si Si1 0.253065 0.563764 0.402158
Si Si2 0.324204 0.194826 0.840089
Si Si3 0.053967 0.536358 0.076474
Si Si4 0.636974 0.673485 0.195979
Si Si5 0.750000 0.632379 0.500000
O O1 0.250000 0.571931 0.500000
O O2 0.162405 0.505997 0.374171
O O3 0.415200 0.554654 0.371258
O O4 0.187034 0.620993 0.361614
O O5 0.305759 0.265432 0.842249
O O6 0.468698 0.174677 0.796896
O O7 0.197885 0.165410 0.787764
O O8 0.325040 0.173351 0.933237
O O9 0.132057 0.594322 0.045043
O O10 0.000000 0.500000 0.000000
#
# Coordination Sequence:
#
# PCOD8295753 Si02
#       5
#    16  16  16  16   8
#     4  10  20  36  66  89 126 164 207 260 317 380
#     4  10  24  43  66  94 130 168 208 269 318 382
#     4  10  19  36  62  93 125 162 207 262 313 371
#     4  10  23  45  63  94 131 164 214 262 327 372
#     4  12  22  40  68  94 128 166 220 258 318 386
#
# _framework density 20.560727
#
# number of rings (size 3 to 8) (size 9 to 14) (size 15 to 20)
#    0.000    1.778    3.333    2.667    4.667    0.000 
#    0.000    1.111    4.889    0.000    0.000    0.000 
#    0.000    0.000    0.000    0.000    0.000    0.000 
#
# Total GULP energy -446383.727223 kJ/mol
# GULP energy per Si atom -12399.547978 kJ/mol
# Density = 2.051393 g / cm^3
# Si number density = 20.560727 Si / 1000 Ang^3
#
#
#
# Elastic Constant Matrix: (Units=GPa)
#
#
# Indices 1 2 3 4 5 6 
#
# 1 147.1181 47.5684 41.7708 0.0000 0.0000 0.0000
# 2 47.5684 109.3711 50.3697 0.0000 0.0000 0.0000
# 3 41.7708 50.3697 71.8907 0.0000 0.0000 0.0000
# 4 0.0000 0.0000 0.0000 17.4612 0.0000 0.0000
# 5 0.0000 0.0000 0.0000 0.0000 25.5280 0.0000
# 6 0.0000 0.0000 0.0000 0.0000 0.0000 35.7992
#
#
#
# Elastic Compliance Matrix: (Units=1/GPa)
#
#
# Indices 1 2 3 4 5 6 
#
# 1 0.008451 -0.002088 -0.003448 0.000000 0.000000 0.000000
# 2 -0.002088 0.014015 -0.008606 0.000000 0.000000 0.000000
# 3 -0.003448 -0.008606 0.021943 0.000000 0.000000 0.000000
# 4 0.000000 0.000000 0.000000 0.057270 0.000000 0.000000
# 5 0.000000 0.000000 0.000000 0.000000 0.039173 0.000000
# 6 0.000000 0.000000 0.000000 0.000000 0.000000 0.027934
#
#
# Mechanical properties :
#
#
# Convention : Reuss Voigt Hill
#
# Bulk Modulus (GPa) = 62.01294 67.53307 64.77301
# Shear Modulus (GPa) = 24.69824 28.33576 26.51700
#
# Velocity S-wave (km/s) = 3.46964 3.71637 3.59512
# Velocity P-wave (km/s) = 6.80276 7.16465 6.98605
#
# Compressibility (1/GPa) = 0.01612567
#
# Stress axis : x y z
#
# Youngs Moduli (GPa) = 118.32634 71.35329 45.57268
#
# Poissons Ratio (x) = 0.14898 0.15711
# Poissons Ratio (y) = 0.24706 0.39221
# Poissons Ratio (z) = 0.40793 0.61408
#
# Static dielectric constant tensor:
#      x y z
#    x 4.484690 0.000000 0.000000 
#    y 0.000000 3.858070 0.000000 
#    z 0.000000 0.000000 3.276680 
# 
# 
# High freq. dielectric constant tensor:
#      x y z
#    x 1.825490 0.000000 0.000000 
#    y 0.000000 1.813660 0.000000 
#    z 0.000000 0.000000 1.766440 
# 
# From -- ./inp_files/5305.got.cif
#   From: 2010.03.12/outbox.cif.g09.slc.cpg/sg73_3_cif.got.tgz:5305.got - 2010.04.16 15:25:48.
