data_PCOD8295559
_publ_section_title
;
Structure prediction by ZEFSAII (Michael W. Deem and Ramdas Pophale) SiO2 
 PCOD8295559
Probable space group: I B C A 
;
_chemical_formula_sum "Si O2"
_cell_formula_units_Z 96
_cell_length_a 13.686031
_cell_length_b 18.019523
_cell_length_c 19.299022
_cell_angle_alpha 90.000000
_cell_angle_beta 90.000000
_cell_angle_gamma 90.000000
_cell_volume 4759.442792
_symmetry_space_group_name_H-M "I B C A "
_symmetry_group_IT_number 73
_symmetry_cell_setting 'orthorhombic'
loop_
_space_group_symop_operation_xyz
x,y,z
-x,1/2-y,z
x,-y,1/2-z
1/2-x,y,-z
-x,-y,-z
x,1/2+y,-z
-x,y,1/2+z
1/2+x,-y,z
1/2+x,1/2+y,1/2+z
1/2-x,-y,1/2+z
1/2+x,1/2-y,-z
-x,1/2+y,1/2-z
1/2-x,1/2-y,1/2-z
1/2+x,y,1/2-z
1/2-x,1/2+y,z
x,1/2-y,1/2+z
loop_
_atom_site_type_symbol
_atom_site_label
_atom_site_fract_x
_atom_site_fract_y
_atom_site_fract_z
Si Si1 0.987078 0.165767 0.608444
Si Si2 0.251939 0.574639 0.288379
Si Si3 0.190639 0.127509 0.570396
Si Si4 0.219517 0.800027 0.423011
Si Si5 0.363000 0.813845 0.301389
Si Si6 0.936750 0.656663 0.235989
O O1 0.875170 0.147271 0.588364
O O2 0.993792 0.156110 0.690940
O O3 0.000000 0.250000 0.584494
O O4 0.071250 0.116915 0.568868
O O5 0.218125 0.500000 0.250000
O O6 0.234364 0.572619 0.371162
O O7 0.188674 0.641957 0.259730
O O8 0.367670 0.585857 0.274156
O O9 0.250000 0.108702 0.500000
O O10 0.205093 0.212963 0.591752
O O11 0.250000 0.816424 0.500000
O O12 0.304273 0.826193 0.371810
O O13 0.472904 0.843739 0.317957
O O14 0.368946 0.729065 0.274479
#
# Coordination Sequence:
#
# PCOD8295559 Si02
#       6
#    16  16  16  16  16  16
#     4  10  17  32  59  89 118 158 196 256 312 352
#     4  12  24  38  60  90 123 166 211 254 310 371
#     4  10  21  38  60  89 126 163 205 253 312 378
#     4  10  20  34  58  93 130 159 199 257 319 371
#     4  11  20  37  63  89 119 163 206 264 301 359
#     4  11  20  35  64  91 120 150 214 268 302 357
#
# _framework density 20.170428999999999
#
# number of rings (size 3 to 8) (size 9 to 14) (size 15 to 20)
#    0.000    1.333    6.667    1.500    0.000    2.000 
#    6.000    0.833    0.000    1.000    0.000    0.000 
#    0.000    0.000    0.000    0.000    0.000    0.000 
#
# Total GULP energy -594862.223609 kJ/mol
# GULP energy per Si atom -12392.962992 kJ/mol
# Density = 2.012452 g / cm^3
# Si number density = 20.170429 Si / 1000 Ang^3
#
#
#
# Elastic Constant Matrix: (Units=GPa)
#
#
# Indices 1 2 3 4 5 6 
#
# 1 157.7660 38.3489 68.6678 0.0000 0.0000 0.0000
# 2 38.3489 32.8586 36.2584 0.0000 0.0000 0.0000
# 3 68.6678 36.2584 136.1711 0.0000 0.0000 0.0000
# 4 0.0000 0.0000 0.0000 509.6866 0.0000 0.0000
# 5 0.0000 0.0000 0.0000 0.0000 36.9451 0.0000
# 6 0.0000 0.0000 0.0000 0.0000 0.0000 10.9453
#
#
#
# Elastic Compliance Matrix: (Units=1/GPa)
#
#
# Indices 1 2 3 4 5 6 
#
# 1 0.009453 -0.008174 -0.002590 0.000000 0.000000 0.000000
# 2 -0.008174 0.050164 -0.009235 0.000000 0.000000 0.000000
# 3 -0.002590 -0.009235 0.011109 0.000000 0.000000 0.000000
# 4 0.000000 0.000000 0.000000 0.001962 0.000000 0.000000
# 5 0.000000 0.000000 0.000000 0.000000 0.027067 0.000000
# 6 0.000000 0.000000 0.000000 0.000000 0.000000 0.091363
#
#
# Mechanical properties :
#
#
# Convention : Reuss Voigt Hill
#
# Bulk Modulus (GPa) = 32.54497 68.14956 50.34726
# Shear Modulus (GPa) = 20.71594 123.75011 72.23303
#
# Velocity S-wave (km/s) = 3.20823 7.84126 5.99075
# Velocity P-wave (km/s) = 5.46751 10.76294 8.53623
#
# Compressibility (1/GPa) = 0.03072671
#
# Stress axis : x y z
#
# Youngs Moduli (GPa) = 105.78838 19.93460 90.01664
#
# Poissons Ratio (x) = 0.16294 0.23317
# Poissons Ratio (y) = 0.86471 0.83133
# Poissons Ratio (z) = 0.27403 0.18410
#
# Static dielectric constant tensor:
#      x y z
#    x 4.168470 0.000000 0.000000 
#    y 0.000000 3.108310 0.000000 
#    z 0.000000 0.000000 3.490840 
# 
# 
# High freq. dielectric constant tensor:
#      x y z
#    x 1.817550 0.000000 0.000000 
#    y 0.000000 1.726740 0.000000 
#    z 0.000000 0.000000 1.773610 
# 
# From -- ./inp_files/25989.got.cif
#   From: 2010.03.12/outbox.cif.g09.slc.cpg/sg73_13_cif.got.tgz:25989.got - 2010.04.16 15:25:48.
