data_PCOD8295906
_publ_section_title
;
Structure prediction by ZEFSAII (Michael W. Deem and Ramdas Pophale) SiO2 
 PCOD8295906
Probable space group: I B C A 
;
_chemical_formula_sum "Si O2"
_cell_formula_units_Z 120
_cell_length_a 13.048743
_cell_length_b 23.467337
_cell_length_c 18.461374
_cell_angle_alpha 90.000000
_cell_angle_beta 90.000000
_cell_angle_gamma 90.000000
_cell_volume 5653.228089
_symmetry_space_group_name_H-M "I B C A "
_symmetry_group_IT_number 73
_symmetry_cell_setting 'orthorhombic'
loop_
_space_group_symop_operation_xyz
x,y,z
-x,1/2-y,z
x,-y,1/2-z
1/2-x,y,-z
-x,-y,-z
x,1/2+y,-z
-x,y,1/2+z
1/2+x,-y,z
1/2+x,1/2+y,1/2+z
1/2-x,-y,1/2+z
1/2+x,1/2-y,-z
-x,1/2+y,1/2-z
1/2-x,1/2-y,1/2-z
1/2+x,y,1/2-z
1/2-x,1/2+y,z
x,1/2-y,1/2+z
loop_
_atom_site_type_symbol
_atom_site_label
_atom_site_fract_x
_atom_site_fract_y
_atom_site_fract_z
Si Si1 0.502862 0.338367 0.139817
Si Si2 0.574742 0.000000 0.750000
Si Si3 0.962428 0.810143 0.853174
Si Si4 0.868898 0.326632 0.999750
Si Si5 0.683950 0.805703 0.269169
Si Si6 0.863086 0.540459 0.489135
Si Si7 0.522016 0.037375 0.108853
Si Si8 0.126182 0.877894 0.779666
O O1 0.572638 0.310723 0.075510
O O2 0.408915 0.298439 0.170482
O O3 0.451460 0.395340 0.105674
O O4 0.581887 0.353492 0.204022
O O5 0.497727 0.977270 0.809195
O O6 0.641492 0.946304 0.722220
O O7 0.865197 0.829195 0.805127
O O8 0.000000 0.750000 0.819641
O O9 0.050559 0.858326 0.844953
O O10 0.930151 0.796709 0.935384
O O11 0.750000 0.305901 0.000000
O O12 0.873710 0.392477 0.022750
O O13 0.750000 0.750000 0.250000
O O14 0.761788 0.853590 0.297045
O O15 0.750000 0.520429 0.500000
O O16 0.889875 0.504327 0.418079
O O17 0.923900 0.521917 0.560220
#
# Coordination Sequence:
#
# PCOD8295906 Si02
#       8
#    16   8  16  16  16  16  16  16
#     4   9  21  38  60  89 122 164 210 259 312 376
#     4  10  20  36  62  92 124 156 198 264 312 368
#     4  11  22  40  61  90 119 162 211 258 310 371
#     4  10  20  39  59  88 125 157 209 262 316 372
#     4  11  22  41  65  86 120 169 214 254 317 385
#     4   9  18  33  58  79 115 171 200 240 307 385
#     4   9  18  35  53  87 122 153 208 252 306 366
#     4  10  21  40  62  90 125 162 208 253 315 376
#
# _framework density 21.22681
#
# number of rings (size 3 to 8) (size 9 to 14) (size 15 to 20)
#    0.000    2.133    1.333    1.600    0.000    2.133 
#    4.800    7.333    0.000    0.000    0.000    0.000 
#    0.000    0.000    0.000    0.000    0.000    0.000 
#
# Total GULP energy -743575.511000 kJ/mol
# GULP energy per Si atom -12392.925183 kJ/mol
# Density = 2.117850 g / cm^3
# Si number density = 21.226810 Si / 1000 Ang^3
#
#
#
# Elastic Constant Matrix: (Units=GPa)
#
#
# Indices 1 2 3 4 5 6 
#
# 1 128.9181 37.3815 37.9344 0.0000 0.0000 0.0000
# 2 37.3815 73.3084 9.0306 0.0001 0.0000 0.0000
# 3 37.9344 9.0306 97.1593 0.0003 0.0000 0.0000
# 4 0.0000 0.0001 0.0003 30.0685 0.0000 0.0000
# 5 0.0000 0.0000 0.0000 0.0000 29.7466 0.0000
# 6 0.0000 0.0000 0.0000 0.0000 0.0000 34.7121
#
#
#
# Elastic Compliance Matrix: (Units=1/GPa)
#
#
# Indices 1 2 3 4 5 6 
#
# 1 0.010174 -0.004753 -0.003530 0.000000 0.000000 0.000000
# 2 -0.004753 0.016019 0.000367 0.000000 0.000000 0.000000
# 3 -0.003530 0.000367 0.011637 0.000000 0.000000 0.000000
# 4 0.000000 0.000000 0.000000 0.033257 0.000000 0.000000
# 5 0.000000 0.000000 0.000000 0.000000 0.033617 0.000000
# 6 0.000000 0.000000 0.000000 0.000000 0.000000 0.028808
#
#
# Mechanical properties :
#
#
# Convention : Reuss Voigt Hill
#
# Bulk Modulus (GPa) = 45.46133 52.00875 48.73504
# Shear Modulus (GPa) = 31.91246 33.24142 32.57694
#
# Velocity S-wave (km/s) = 3.88158 3.96158 3.92178
# Velocity P-wave (km/s) = 6.44611 6.74389 6.59668
#
# Compressibility (1/GPa) = 0.02199672
#
# Stress axis : x y z
#
# Youngs Moduli (GPa) = 98.29074 62.42412 85.93495
#
# Poissons Ratio (x) = 0.29670 0.30339
# Poissons Ratio (y) = 0.46717 -0.03152
# Poissons Ratio (z) = 0.34701 -0.02290
#
# Static dielectric constant tensor:
#      x y z
#    x 3.883520 0.000000 0.000000 
#    y 0.000000 3.892450 0.000000 
#    z 0.000000 0.000000 3.777150 
# 
# 
# High freq. dielectric constant tensor:
#      x y z
#    x 1.826240 0.000000 0.000000 
#    y 0.000000 1.825610 0.000000 
#    z 0.000000 0.000000 1.828340 
# 
# From -- ./inp_files/21518.got.cif
#   From: 2010.03.12/outbox.cif.g09.slc.cpg/sg73_11_cif.got.tgz:21518.got - 2010.04.16 15:25:48.
