data_PCOD8295247
_publ_section_title
;
Structure prediction by ZEFSAII (Michael W. Deem and Ramdas Pophale) SiO2 
 PCOD8295247
Probable space group: I B A M
;
_chemical_formula_sum "Si O2"
_cell_formula_units_Z 96
_cell_length_a 26.584875
_cell_length_b 19.789590
_cell_length_c 10.100703
_cell_angle_alpha 90.000000
_cell_angle_beta 90.000000
_cell_angle_gamma 90.000000
_cell_volume 5314.017993
_symmetry_space_group_name_H-M "I B A M"
_symmetry_group_IT_number 72
_symmetry_cell_setting 'orthorhombic'
loop_
_space_group_symop_operation_xyz
x,y,z
-x,-y,z
x,-y,1/2-z
-x,y,1/2-z
-x,-y,-z
x,y,-z
-x,y,1/2+z
x,-y,1/2+z
1/2+x,1/2+y,1/2+z
1/2-x,1/2-y,1/2+z
1/2+x,1/2-y,-z
1/2-x,1/2+y,-z
1/2-x,1/2-y,1/2-z
1/2+x,1/2+y,1/2-z
1/2-x,1/2+y,z
1/2+x,1/2-y,z
loop_
_atom_site_type_symbol
_atom_site_label
_atom_site_fract_x
_atom_site_fract_y
_atom_site_fract_z
Si Si1 0.719484 0.077732 0.500000
Si Si2 0.696327 0.679282 0.500000
Si Si3 0.040829 0.777021 0.147377
Si Si4 0.700718 0.075389 0.000000
Si Si5 0.541506 0.883891 0.148652
Si Si6 0.350057 0.278336 0.762969
Si Si7 0.274737 0.699198 0.500000
Si Si8 0.849522 0.619549 0.260508
O O1 0.775378 0.107852 0.500000
O O2 0.691063 0.104518 0.628325
O O3 0.726065 0.997718 0.500000
O O4 0.661112 0.682383 0.628177
O O5 0.735966 0.739856 0.500000
O O6 0.040201 0.696537 0.149927
O O7 0.095977 0.803496 0.185793
O O8 0.000000 0.806602 0.250000
O O9 0.027354 0.802937 0.000000
O O10 0.665033 0.081533 0.126855
O O11 0.745591 0.128828 0.000000
O O12 0.500000 0.913573 0.250000
O O13 0.596404 0.908626 0.194174
O O14 0.530319 0.910587 0.000000
O O15 0.350613 0.199005 0.732652
O O16 0.308105 0.296694 0.869552
#
# Coordination Sequence:
#
# PCOD8295247 Si02
#       8
#     8   8  16   8  16  16   8  16
#     4  12  24  40  55  76 111 148 182 226 277 322
#     4  12  22  34  59  81 109 145 187 229 268 327
#     4   9  18  31  49  78 116 144 170 219 278 327
#     4  12  26  36  55  82 107 146 186 228 271 330
#     4   9  18  31  52  77 103 138 179 228 280 322
#     4  11  20  34  57  85 110 144 185 229 269 322
#     4  12  20  38  55  81 111 141 189 229 272 319
#     4  11  20  37  56  78 108 143 186 227 274 325
#
# _framework density 18.065427
#
# number of rings (size 3 to 8) (size 9 to 14) (size 15 to 20)
#    0.000    1.333    5.000    2.000    2.333    0.000 
#    0.000    0.000    0.000    3.000    0.000    0.000 
#    0.000    4.000    0.000    0.000    0.000    0.000 
#
# Total GULP energy -595355.829739 kJ/mol
# GULP energy per Si atom -12403.246453 kJ/mol
# Density = 1.802431 g / cm^3
# Si number density = 18.065427 Si / 1000 Ang^3
#
#
#
# Elastic Constant Matrix: (Units=GPa)
#
#
# Indices 1 2 3 4 5 6 
#
# 1 98.1253 23.3802 57.3377 0.0000 0.0000 0.0000
# 2 23.3802 56.0398 18.2921 0.0000 0.0000 0.0000
# 3 57.3377 18.2921 165.5435 0.0000 0.0000 0.0000
# 4 0.0000 0.0000 0.0000 4.7429 0.0000 0.0000
# 5 0.0000 0.0000 0.0000 0.0000 40.2805 0.0000
# 6 0.0000 0.0000 0.0000 0.0000 0.0000 10.4676
#
#
#
# Elastic Compliance Matrix: (Units=1/GPa)
#
#
# Indices 1 2 3 4 5 6 
#
# 1 0.013720 -0.004329 -0.004274 0.000000 0.000000 0.000000
# 2 -0.004329 0.019878 -0.000697 0.000000 0.000000 0.000000
# 3 -0.004274 -0.000697 0.007598 0.000000 0.000000 0.000000
# 4 0.000000 0.000000 0.000000 0.210839 0.000000 0.000000
# 5 0.000000 0.000000 0.000000 0.000000 0.024826 0.000000
# 6 0.000000 0.000000 0.000000 0.000000 0.000000 0.095532
#
#
# Mechanical properties :
#
#
# Convention : Reuss Voigt Hill
#
# Bulk Modulus (GPa) = 44.25492 57.52539 50.89015
# Shear Modulus (GPa) = 12.54626 25.81145 19.17886
#
# Velocity S-wave (km/s) = 2.63818 3.78402 3.26181
# Velocity P-wave (km/s) = 5.81637 7.14168 6.51283
#
# Compressibility (1/GPa) = 0.02259636
#
# Stress axis : x y z
#
# Youngs Moduli (GPa) = 72.88767 50.30663 131.61450
#
# Poissons Ratio (x) = 0.21778 0.56247
# Poissons Ratio (y) = 0.31553 0.09174
# Poissons Ratio (z) = 0.31149 0.03507
#
# Static dielectric constant tensor:
#      x y z
#    x 3.521100 0.000000 0.000000 
#    y 0.000000 2.927020 0.000000 
#    z 0.000000 0.000000 3.622690 
# 
# 
# High freq. dielectric constant tensor:
#      x y z
#    x 1.703430 0.000000 0.000000 
#    y 0.000000 1.642770 0.000000 
#    z 0.000000 0.000000 1.725310 
# 
# From -- ./inp_files/7024.got.cif
#   From: 2010.03.12/outbox.cif.g09.slc.cpg/sg72_4_cif.got.tgz:7024.got - 2010.04.16 14:54:00.
