data_PCOD8295088
_publ_section_title
;
Structure prediction by ZEFSAII (Michael W. Deem and Ramdas Pophale) SiO2 
 PCOD8295088
Probable space group: I B A M
;
_chemical_formula_sum "Si O2"
_cell_formula_units_Z 96
_cell_length_a 19.734041
_cell_length_b 8.753209
_cell_length_c 26.418152
_cell_angle_alpha 90.000000
_cell_angle_beta 90.000000
_cell_angle_gamma 90.000000
_cell_volume 4563.370799
_symmetry_space_group_name_H-M "I B A M"
_symmetry_group_IT_number 72
_symmetry_cell_setting 'orthorhombic'
loop_
_space_group_symop_operation_xyz
x,y,z
-x,-y,z
x,-y,1/2-z
-x,y,1/2-z
-x,-y,-z
x,y,-z
-x,y,1/2+z
x,-y,1/2+z
1/2+x,1/2+y,1/2+z
1/2-x,1/2-y,1/2+z
1/2+x,1/2-y,-z
1/2-x,1/2+y,-z
1/2-x,1/2-y,1/2-z
1/2+x,1/2+y,1/2-z
1/2-x,1/2+y,z
1/2+x,1/2-y,z
loop_
_atom_site_type_symbol
_atom_site_label
_atom_site_fract_x
_atom_site_fract_y
_atom_site_fract_z
Si Si1 0.426962 0.070119 0.555983
Si Si2 0.971190 0.653983 0.307017
Si Si3 0.656668 0.083674 0.363924
Si Si4 0.046067 0.132409 0.120203
Si Si5 0.760781 0.310075 0.669771
Si Si6 0.846589 0.952617 0.199257
O O1 0.395098 0.092710 0.500000
O O2 0.428737 0.238517 0.581653
O O3 0.500000 0.000000 0.550538
O O4 0.386361 0.935084 0.585012
O O5 0.889804 0.640448 0.315648
O O6 0.000000 0.500000 0.333425
O O7 0.000000 0.660948 0.250000
O O8 0.999368 0.800037 0.335475
O O9 0.718727 0.202391 0.369617
O O10 0.684645 0.912843 0.358684
O O11 0.109987 0.052327 0.147912
O O12 0.000000 0.000000 0.093423
O O13 0.805939 0.205768 0.707092
O O14 0.709223 0.415083 0.699550
O O15 0.889846 0.000000 0.250000
#
# Coordination Sequence:
#
# PCOD8295088 Si02
#       6
#    16  16  16  16  16  16
#     4  11  23  45  72  92 118 165 215 272 338 392
#     4  11  22  38  63  91 129 175 212 260 317 383
#     4  11  20  45  63  94 126 165 217 266 316 385
#     4  12  24  39  62  97 132 160 212 273 325 375
#     4  10  23  39  64  85 130 175 214 258 311 373
#     4  11  23  38  57  91 131 173 215 250 308 380
#
# _framework density 21.037081000000001
#
# number of rings (size 3 to 8) (size 9 to 14) (size 15 to 20)
#    0.000    1.000    5.000    1.500    4.667    0.333 
#   12.000    0.833    0.000    0.000    0.000    0.000 
#    0.000    0.000    0.000    0.000    0.000    0.000 
#
# Total GULP energy -594683.114311 kJ/mol
# GULP energy per Si atom -12389.231548 kJ/mol
# Density = 2.098920 g / cm^3
# Si number density = 21.037081 Si / 1000 Ang^3
#
#
#
# Elastic Constant Matrix: (Units=GPa)
#
#
# Indices 1 2 3 4 5 6 
#
# 1 85.6938 18.9377 31.9303 0.0000 0.0000 0.0000
# 2 18.9377 75.2022 21.3714 0.0000 0.0000 0.0000
# 3 31.9303 21.3714 108.9391 0.0000 0.0000 0.0000
# 4 0.0000 0.0000 0.0000 15.1170 0.0000 0.0000
# 5 0.0000 0.0000 0.0000 0.0000 14.5921 0.0000
# 6 0.0000 0.0000 0.0000 0.0000 0.0000 43.9235
#
#
#
# Elastic Compliance Matrix: (Units=1/GPa)
#
#
# Indices 1 2 3 4 5 6 
#
# 1 0.013500 -0.002410 -0.003484 0.000000 0.000000 0.000000
# 2 -0.002410 0.014513 -0.002141 0.000000 0.000000 0.000000
# 3 -0.003484 -0.002141 0.010621 0.000000 0.000000 0.000000
# 4 0.000000 0.000000 0.000000 0.066151 0.000000 0.000000
# 5 0.000000 0.000000 0.000000 0.000000 0.068530 0.000000
# 6 0.000000 0.000000 0.000000 0.000000 0.000000 0.022767
#
#
# Mechanical properties :
#
#
# Convention : Reuss Voigt Hill
#
# Bulk Modulus (GPa) = 44.31768 46.03488 45.17628
# Shear Modulus (GPa) = 22.76124 27.89957 25.33040
#
# Velocity S-wave (km/s) = 3.29288 3.64567 3.47376
# Velocity P-wave (km/s) = 5.96403 6.29694 6.13274
#
# Compressibility (1/GPa) = 0.02256436
#
# Stress axis : x y z
#
# Youngs Moduli (GPa) = 74.07297 68.90546 94.15604
#
# Poissons Ratio (x) = 0.16603 0.32806
# Poissons Ratio (y) = 0.17848 0.20157
# Poissons Ratio (z) = 0.25809 0.14751
#
# Static dielectric constant tensor:
#      x y z
#    x 3.955880 0.000000 0.000000 
#    y 0.000000 4.186470 0.000000 
#    z 0.000000 0.000000 3.743780 
# 
# 
# High freq. dielectric constant tensor:
#      x y z
#    x 1.831130 0.000000 0.000000 
#    y 0.000000 1.848120 0.000000 
#    z 0.000000 0.000000 1.776330 
# 
# From -- ./inp_files/49346.got.cif
#   From: 2010.03.12/outbox.cif.g09.slc.cpg/sg72_25_cif.got.tgz:49346.got - 2010.04.16 14:54:00.
