data_PCOD8295687
_publ_section_title
;
Structure prediction by ZEFSAII (Michael W. Deem and Ramdas Pophale) SiO2 
 PCOD8295687
Probable space group: I B C A 
;
_chemical_formula_sum "Si O2"
_cell_formula_units_Z 104
_cell_length_a 8.553732
_cell_length_b 27.669745
_cell_length_c 21.669850
_cell_angle_alpha 90.000000
_cell_angle_beta 90.000000
_cell_angle_gamma 90.000000
_cell_volume 5128.811067
_symmetry_space_group_name_H-M "I B C A "
_symmetry_group_IT_number 73
_symmetry_cell_setting 'orthorhombic'
loop_
_space_group_symop_operation_xyz
x,y,z
-x,1/2-y,z
x,-y,1/2-z
1/2-x,y,-z
-x,-y,-z
x,1/2+y,-z
-x,y,1/2+z
1/2+x,-y,z
1/2+x,1/2+y,1/2+z
1/2-x,-y,1/2+z
1/2+x,1/2-y,-z
-x,1/2+y,1/2-z
1/2-x,1/2-y,1/2-z
1/2+x,y,1/2-z
1/2-x,1/2+y,z
x,1/2-y,1/2+z
loop_
_atom_site_type_symbol
_atom_site_label
_atom_site_fract_x
_atom_site_fract_y
_atom_site_fract_z
Si Si1 0.683105 0.858428 0.308445
Si Si2 0.317471 0.161805 0.432202
Si Si3 0.817568 0.736040 0.564661
Si Si4 0.957575 0.000000 0.250000
Si Si5 0.208713 0.432878 0.704249
Si Si6 0.860983 0.344326 0.125646
Si Si7 0.040622 0.804007 0.758611
O O1 0.726513 0.869034 0.379714
O O2 0.717029 0.906714 0.270772
O O3 0.504919 0.839664 0.299034
O O4 0.781643 0.813707 0.277811
O O5 0.250000 0.148628 0.500000
O O6 0.283486 0.217576 0.415006
O O7 0.504633 0.152106 0.428047
O O8 0.750000 0.718526 0.500000
O O9 0.785066 0.690107 0.608278
O O10 0.000000 0.750000 0.562415
O O11 0.859105 0.967309 0.202018
O O12 0.056448 0.966475 0.296019
O O13 0.202213 0.397338 0.644976
O O14 0.936500 0.319666 0.184130
O O15 0.000000 0.750000 0.738498
#
# Coordination Sequence:
#
# PCOD8295687 Si02
#       7
#    16  16  16   8  16  16  16
#     4  10  20  33  51  78 111 144 187 232 275 332
#     4  10  20  35  54  78 117 166 201 230 265 312
#     4  11  22  35  53  79 116 163 204 234 264 311
#     4  10  20  38  60  86 112 136 174 230 310 378
#     4  10  21  37  60  87 111 140 179 235 302 359
#     4  10  20  37  54  78 114 147 190 238 279 335
#     4  10  19  31  48  73 111 150 180 225 277 321
#
# _framework density 20.277605000000001
#
# number of rings (size 3 to 8) (size 9 to 14) (size 15 to 20)
#    0.000    1.846    0.000    7.385    0.000    5.538 
#    0.000    0.000    0.000    0.000    0.000   28.000 
#    0.000    0.000    0.000    0.000    0.000    0.000 
#
# Total GULP energy -644439.149550 kJ/mol
# GULP energy per Si atom -12393.060568 kJ/mol
# Density = 2.023145 g / cm^3
# Si number density = 20.277605 Si / 1000 Ang^3
#
#
#
# Elastic Constant Matrix: (Units=GPa)
#
#
# Indices 1 2 3 4 5 6 
#
# 1 88.3911 35.3730 42.2952 0.0000 0.0000 0.0000
# 2 35.3730 106.8735 34.7695 0.0000 0.0000 0.0000
# 3 42.2952 34.7695 83.3855 0.0000 0.0000 0.0000
# 4 0.0000 0.0000 0.0000 25.7455 0.0000 0.0000
# 5 0.0000 0.0000 0.0000 0.0000 29.6597 0.0000
# 6 0.0000 0.0000 0.0000 0.0000 0.0000 5.1618
#
#
#
# Elastic Compliance Matrix: (Units=1/GPa)
#
#
# Indices 1 2 3 4 5 6 
#
# 1 0.015740 -0.003022 -0.006724 0.000000 0.000000 0.000000
# 2 -0.003022 0.011406 -0.003223 0.000000 0.000000 0.000000
# 3 -0.006724 -0.003223 0.016747 0.000000 0.000000 0.000000
# 4 0.000000 0.000000 0.000000 0.038842 0.000000 0.000000
# 5 0.000000 0.000000 0.000000 0.000000 0.033716 0.000000
# 6 0.000000 0.000000 0.000000 0.000000 0.000000 0.193730
#
#
# Mechanical properties :
#
#
# Convention : Reuss Voigt Hill
#
# Bulk Modulus (GPa) = 55.69468 55.94728 55.82098
# Shear Modulus (GPa) = 14.61550 23.19423 18.90487
#
# Velocity S-wave (km/s) = 2.68763 3.38573 3.05668
# Velocity P-wave (km/s) = 6.09564 6.55247 6.32818
#
# Compressibility (1/GPa) = 0.01795504
#
# Stress axis : x y z
#
# Youngs Moduli (GPa) = 63.53226 87.67562 59.71320
#
# Poissons Ratio (x) = 0.26498 0.40148
# Poissons Ratio (y) = 0.19201 0.19245
# Poissons Ratio (z) = 0.42716 0.28257
#
# Static dielectric constant tensor:
#      x y z
#    x 4.824900 0.000000 0.000000 
#    y 0.000000 3.690540 0.000000 
#    z 0.000000 0.000000 3.765330 
# 
# 
# High freq. dielectric constant tensor:
#      x y z
#    x 1.812490 0.000000 0.000000 
#    y 0.000000 1.767080 0.000000 
#    z 0.000000 0.000000 1.767180 
# 
# From -- ./inp_files/7327.got.cif
#   From: 2010.03.12/outbox.cif.g09.slc.cpg/sg73_4_cif.got.tgz:7327.got - 2010.04.16 15:25:48.
