data_PCOD8295334
_publ_section_title
;
Structure prediction by ZEFSAII (Michael W. Deem and Ramdas Pophale) SiO2 
 PCOD8295334
Probable space group: I B A M
;
_chemical_formula_sum "Si O2"
_cell_formula_units_Z 72
_cell_length_a 18.115935
_cell_length_b 9.925201
_cell_length_c 20.661868
_cell_angle_alpha 90.000000
_cell_angle_beta 90.000000
_cell_angle_gamma 90.000000
_cell_volume 3715.092633
_symmetry_space_group_name_H-M "I B A M"
_symmetry_group_IT_number 72
_symmetry_cell_setting 'orthorhombic'
loop_
_space_group_symop_operation_xyz
x,y,z
-x,-y,z
x,-y,1/2-z
-x,y,1/2-z
-x,-y,-z
x,y,-z
-x,y,1/2+z
x,-y,1/2+z
1/2+x,1/2+y,1/2+z
1/2-x,1/2-y,1/2+z
1/2+x,1/2-y,-z
1/2-x,1/2+y,-z
1/2-x,1/2-y,1/2-z
1/2+x,1/2+y,1/2-z
1/2-x,1/2+y,z
1/2+x,1/2-y,z
loop_
_atom_site_type_symbol
_atom_site_label
_atom_site_fract_x
_atom_site_fract_y
_atom_site_fract_z
Si Si1 0.400405 0.247629 0.800626
Si Si2 0.954747 0.638193 0.170305
Si Si3 0.825727 0.000000 0.750000
Si Si4 0.234995 0.612441 0.863455
Si Si5 0.823485 0.650459 0.075667
O O1 0.403049 0.164922 0.732816
O O2 0.481885 0.253248 0.832874
O O3 0.376363 0.401755 0.792250
O O4 0.345618 0.171855 0.849423
O O5 0.904546 0.643791 0.107128
O O6 0.000000 0.500000 0.177133
O O7 0.775660 0.906756 0.795284
O O8 0.227637 0.471293 0.900103
O O9 0.282549 0.710871 0.908163
O O10 0.836193 0.638558 0.000000
#
# Coordination Sequence:
#
# PCOD8295334 Si02
#       5
#    16  16   8  16  16
#     4  11  22  38  64  98 128 159 206 276 330 376
#     4  11  23  39  64  94 128 165 210 263 321 383
#     4  12  22  37  68  99 132 162 204 274 344 373
#     4  12  23  42  67  99 127 166 217 269 322 381
#     4  12  26  45  65  91 132 177 217 259 308 382
#
# _framework density 19.380405
#
# number of rings (size 3 to 8) (size 9 to 14) (size 15 to 20)
#    0.000    0.444    6.667    4.000    0.000    2.222 
#    0.000    0.000    0.000    1.333    0.000    0.000 
#    0.000    0.000    0.000    0.000    0.000    0.000 
#
# Total GULP energy -446525.624294 kJ/mol
# GULP energy per Si atom -12403.489564 kJ/mol
# Density = 1.933629 g / cm^3
# Si number density = 19.380405 Si / 1000 Ang^3
#
#
#
# Elastic Constant Matrix: (Units=GPa)
#
#
# Indices 1 2 3 4 5 6 
#
# 1 95.3857 35.1208 36.9320 0.0000 0.0000 0.0000
# 2 35.1208 92.7650 23.6127 0.0000 0.0000 0.0000
# 3 36.9320 23.6127 86.1325 0.0000 0.0000 0.0000
# 4 0.0000 0.0000 0.0000 22.1755 0.0000 0.0000
# 5 0.0000 0.0000 0.0000 0.0000 23.0577 0.0000
# 6 0.0000 0.0000 0.0000 0.0000 0.0000 13.6326
#
#
#
# Elastic Compliance Matrix: (Units=1/GPa)
#
#
# Indices 1 2 3 4 5 6 
#
# 1 0.013829 -0.004006 -0.004832 0.000000 0.000000 0.000000
# 2 -0.004006 0.012749 -0.001777 0.000000 0.000000 0.000000
# 3 -0.004832 -0.001777 0.014169 0.000000 0.000000 0.000000
# 4 0.000000 0.000000 0.000000 0.045095 0.000000 0.000000
# 5 0.000000 0.000000 0.000000 0.000000 0.043369 0.000000
# 6 0.000000 0.000000 0.000000 0.000000 0.000000 0.073354
#
#
# Mechanical properties :
#
#
# Convention : Reuss Voigt Hill
#
# Bulk Modulus (GPa) = 51.23596 51.73491 51.48544
# Shear Modulus (GPa) = 21.71072 23.68101 22.69586
#
# Velocity S-wave (km/s) = 3.35063 3.49937 3.42581
# Velocity P-wave (km/s) = 6.43920 6.56352 6.50166
#
# Compressibility (1/GPa) = 0.01951754
#
# Stress axis : x y z
#
# Youngs Moduli (GPa) = 72.30933 78.43742 70.57670
#
# Poissons Ratio (x) = 0.31422 0.34100
# Poissons Ratio (y) = 0.28967 0.12544
# Poissons Ratio (z) = 0.34937 0.13941
#
# Static dielectric constant tensor:
#      x y z
#    x 3.889590 0.000000 0.000000 
#    y 0.000000 3.660580 0.000000 
#    z 0.000000 0.000000 3.287260 
# 
# 
# High freq. dielectric constant tensor:
#      x y z
#    x 1.768980 0.000000 0.000000 
#    y 0.000000 1.764250 0.000000 
#    z 0.000000 0.000000 1.726890 
# 
# From -- ./inp_files/36763.got.cif
#   From: 2010.03.12/outbox.cif.g09.slc.cpg/sg72_19_cif.got.tgz:36763.got - 2010.04.16 14:54:00.
