data_PCOD8295115
_publ_section_title
;
Structure prediction by ZEFSAII (Michael W. Deem and Ramdas Pophale) SiO2 
 PCOD8295115
Probable space group: I B A M
;
_chemical_formula_sum "Si O2"
_cell_formula_units_Z 96
_cell_length_a 23.706095
_cell_length_b 11.033382
_cell_length_c 16.742389
_cell_angle_alpha 90.000000
_cell_angle_beta 90.000000
_cell_angle_gamma 90.000000
_cell_volume 4379.112510
_symmetry_space_group_name_H-M "I B A M"
_symmetry_group_IT_number 72
_symmetry_cell_setting 'orthorhombic'
loop_
_space_group_symop_operation_xyz
x,y,z
-x,-y,z
x,-y,1/2-z
-x,y,1/2-z
-x,-y,-z
x,y,-z
-x,y,1/2+z
x,-y,1/2+z
1/2+x,1/2+y,1/2+z
1/2-x,1/2-y,1/2+z
1/2+x,1/2-y,-z
1/2-x,1/2+y,-z
1/2-x,1/2-y,1/2-z
1/2+x,1/2+y,1/2-z
1/2-x,1/2+y,z
1/2+x,1/2-y,z
loop_
_atom_site_type_symbol
_atom_site_label
_atom_site_fract_x
_atom_site_fract_y
_atom_site_fract_z
Si Si1 0.629778 0.964366 0.659295
Si Si2 0.479820 0.176452 0.338431
Si Si3 0.404294 0.801082 0.409417
Si Si4 0.051985 0.910237 0.587868
Si Si5 0.242056 0.375990 0.799539
Si Si6 0.862281 0.067584 0.834794
O O1 0.572481 0.902087 0.630149
O O2 0.683960 0.873063 0.648810
O O3 0.620211 0.000000 0.750000
O O4 0.638276 0.087185 0.607740
O O5 0.500000 0.141910 0.250000
O O6 0.531537 0.154194 0.398751
O O7 0.457868 0.313966 0.342318
O O8 0.394723 0.754000 0.500000
O O9 0.394924 0.695500 0.343371
O O10 0.053633 0.849717 0.500000
O O11 0.111767 0.977384 0.600020
O O12 0.000000 0.000000 0.593809
O O13 0.234428 0.500000 0.750000
O O14 0.250000 0.250000 0.750000
O O15 0.297144 0.398999 0.853775
O O16 0.869282 0.000000 0.750000
#
# Coordination Sequence:
#
# PCOD8295115 Si02
#       6
#    16  16  16  16  16  16
#     4  11  24  43  68  98 134 173 236 280 340 408
#     4  12  24  39  68  99 131 173 231 280 340 422
#     4  12  25  44  68  99 144 182 217 285 366 424
#     4  11  24  40  60  91 134 175 216 279 346 406
#     4  10  23  41  70 100 136 176 230 299 348 394
#     4  11  23  41  70  98 128 179 234 278 343 417
#
# _framework density 21.922249000000001
#
# number of rings (size 3 to 8) (size 9 to 14) (size 15 to 20)
#    0.000    0.833    3.333    4.500    4.667    2.000 
#    0.000    1.667    0.000    0.000    0.000    0.000 
#    0.000    0.000    0.000    0.000    0.000    0.000 
#
# Total GULP energy -594766.182131 kJ/mol
# GULP energy per Si atom -12390.962128 kJ/mol
# Density = 2.187235 g / cm^3
# Si number density = 21.922249 Si / 1000 Ang^3
#
#
#
# Elastic Constant Matrix: (Units=GPa)
#
#
# Indices 1 2 3 4 5 6 
#
# 1 155.7754 51.7063 30.2023 0.0000 0.0000 0.0000
# 2 51.7063 130.3513 37.0137 0.0000 0.0000 0.0000
# 3 30.2023 37.0137 75.0467 0.0000 0.0000 0.0000
# 4 0.0000 0.0000 0.0000 24.7998 0.0000 0.0000
# 5 0.0000 0.0000 0.0000 0.0000 7.0052 0.0000
# 6 0.0000 0.0000 0.0000 0.0000 0.0000 35.1570
#
#
#
# Elastic Compliance Matrix: (Units=1/GPa)
#
#
# Indices 1 2 3 4 5 6 
#
# 1 0.007603 -0.002497 -0.001828 0.000000 0.000000 0.000000
# 2 -0.002497 0.009741 -0.003799 0.000000 0.000000 0.000000
# 3 -0.001828 -0.003799 0.015935 0.000000 0.000000 0.000000
# 4 0.000000 0.000000 0.000000 0.040323 0.000000 0.000000
# 5 0.000000 0.000000 0.000000 0.000000 0.142751 0.000000
# 6 0.000000 0.000000 0.000000 0.000000 0.000000 0.028444
#
#
# Mechanical properties :
#
#
# Convention : Reuss Voigt Hill
#
# Bulk Modulus (GPa) = 58.72192 66.55755 62.63974
# Shear Modulus (GPa) = 18.74616 29.54248 24.14432
#
# Velocity S-wave (km/s) = 2.92742 3.67495 3.32228
# Velocity P-wave (km/s) = 6.18635 6.95943 6.58425
#
# Compressibility (1/GPa) = 0.01702942
#
# Stress axis : x y z
#
# Youngs Moduli (GPa) = 131.53276 102.66135 62.75576
#
# Poissons Ratio (x) = 0.25630 0.11474
# Poissons Ratio (y) = 0.32838 0.23844
# Poissons Ratio (z) = 0.24049 0.39006
#
# Static dielectric constant tensor:
#      x y z
#    x 4.722420 0.000000 0.000000 
#    y 0.000000 4.264240 0.000000 
#    z 0.000000 0.000000 3.665510 
# 
# 
# High freq. dielectric constant tensor:
#      x y z
#    x 1.875150 0.000000 0.000000 
#    y 0.000000 1.876530 0.000000 
#    z 0.000000 0.000000 1.819430 
# 
# From -- ./inp_files/33286.got.cif
#   From: 2010.03.12/outbox.cif.g09.slc.cpg/sg72_17_cif.got.tgz:33286.got - 2010.04.16 14:54:00.
