data_PCOD8295511
_publ_section_title
;
Structure prediction by ZEFSAII (Michael W. Deem and Ramdas Pophale) SiO2 
 PCOD8295511
Probable space group: I B A M
;
_chemical_formula_sum "Si O2"
_cell_formula_units_Z 80
_cell_length_a 24.218079
_cell_length_b 6.946573
_cell_length_c 17.892802
_cell_angle_alpha 90.000000
_cell_angle_beta 90.000000
_cell_angle_gamma 90.000000
_cell_volume 3010.153562
_symmetry_space_group_name_H-M "I B A M"
_symmetry_group_IT_number 72
_symmetry_cell_setting 'orthorhombic'
loop_
_space_group_symop_operation_xyz
x,y,z
-x,-y,z
x,-y,1/2-z
-x,y,1/2-z
-x,-y,-z
x,y,-z
-x,y,1/2+z
x,-y,1/2+z
1/2+x,1/2+y,1/2+z
1/2-x,1/2-y,1/2+z
1/2+x,1/2-y,-z
1/2-x,1/2+y,-z
1/2-x,1/2-y,1/2-z
1/2+x,1/2+y,1/2-z
1/2-x,1/2+y,z
1/2+x,1/2-y,z
loop_
_atom_site_type_symbol
_atom_site_label
_atom_site_fract_x
_atom_site_fract_y
_atom_site_fract_z
Si Si1 0.738266 0.631427 0.585289
Si Si2 0.554108 0.109684 0.911964
Si Si3 0.152833 0.218422 0.583716
Si Si4 0.660862 0.116618 0.825317
Si Si5 0.916837 0.044402 0.673103
O O1 0.747492 0.704243 0.500000
O O2 0.804662 0.609881 0.614804
O O3 0.696545 0.457443 0.585983
O O4 0.716194 0.818555 0.629498
O O5 0.610734 0.014668 0.877252
O O6 0.546120 0.330640 0.884335
O O7 0.500000 0.000000 0.883856
O O8 0.560615 0.107425 0.000000
O O9 0.130586 0.255745 0.500000
O O10 0.101359 0.156051 0.634242
O O11 0.635234 0.323618 0.801597
O O12 0.674541 0.000000 0.750000
O O13 0.949663 0.000000 0.750000
#
# Coordination Sequence:
#
# PCOD8295511 Si02
#       5
#    16  16  16  16  16
#     4   9  17  30  48  73 108 159 205 239 280 336
#     4   9  18  35  63  88 109 151 204 249 299 358
#     4   9  17  30  49  74 111 162 206 240 283 340
#     4   9  19  32  52  81 117 149 195 242 293 350
#     4   9  19  33  53  84 121 150 187 245 308 353
#
# _framework density 26.576716999999999
#
# number of rings (size 3 to 8) (size 9 to 14) (size 15 to 20)
#    1.200    1.800    0.000    1.200    0.000    2.800 
#    0.000    4.000    0.000    6.000    0.000    2.800 
#    0.000    3.200    0.000    0.000    0.000    0.000 
#
# Total GULP energy -495583.512052 kJ/mol
# GULP energy per Si atom -12389.587801 kJ/mol
# Density = 2.651623 g / cm^3
# Si number density = 26.576717 Si / 1000 Ang^3
#
#
#
# Elastic Constant Matrix: (Units=GPa)
#
#
# Indices 1 2 3 4 5 6 
#
# 1 128.7859 9.9681 43.3961 0.0000 0.0000 0.0000
# 2 9.9681 86.1451 14.4052 0.0000 0.0000 0.0000
# 3 43.3961 14.4052 138.1950 0.0000 0.0000 0.0000
# 4 0.0000 0.0000 0.0000 40.5371 0.0000 0.0000
# 5 0.0000 0.0000 0.0000 0.0000 6.0604 0.0000
# 6 0.0000 0.0000 0.0000 0.0000 0.0000 22.1299
#
#
#
# Elastic Compliance Matrix: (Units=1/GPa)
#
#
# Indices 1 2 3 4 5 6 
#
# 1 0.008710 -0.000560 -0.002677 0.000000 0.000000 0.000000
# 2 -0.000560 0.011850 -0.001059 0.000000 0.000000 0.000000
# 3 -0.002677 -0.001059 0.008187 0.000000 0.000000 0.000000
# 4 0.000000 0.000000 0.000000 0.024669 0.000000 0.000000
# 5 0.000000 0.000000 0.000000 0.000000 0.165006 0.000000
# 6 0.000000 0.000000 0.000000 0.000000 0.000000 0.045188
#
#
# Mechanical properties :
#
#
# Convention : Reuss Voigt Hill
#
# Bulk Modulus (GPa) = 49.61577 54.29608 51.95592
# Shear Modulus (GPa) = 17.92623 32.76925 25.34774
#
# Velocity S-wave (km/s) = 2.59995 3.51523 3.09165
# Velocity P-wave (km/s) = 5.26521 6.07866 5.68649
#
# Compressibility (1/GPa) = 0.02015488
#
# Stress axis : x y z
#
# Youngs Moduli (GPa) = 114.80844 84.38608 122.14282
#
# Poissons Ratio (x) = 0.04728 0.32695
# Poissons Ratio (y) = 0.06432 0.12939
# Poissons Ratio (z) = 0.30732 0.08939
#
# Static dielectric constant tensor:
#      x y z
#    x 4.818270 0.000000 0.000000 
#    y 0.000000 5.636940 0.000000 
#    z 0.000000 0.000000 4.702570 
# 
# 
# High freq. dielectric constant tensor:
#      x y z
#    x 2.068850 0.000000 0.000000 
#    y 0.000000 2.123730 0.000000 
#    z 0.000000 0.000000 2.057320 
# 
# From -- ./inp_files/34184.got.cif
#   From: 2010.03.12/outbox.cif.g09.slc.cpg/sg72_18_cif.got.tgz:34184.got - 2010.04.16 14:54:00.
