data_PCOD8295045
_publ_section_title
;
Structure prediction by ZEFSAII (Michael W. Deem and Ramdas Pophale) SiO2 
 PCOD8295045
Probable space group: I B A M
;
_chemical_formula_sum "Si O2"
_cell_formula_units_Z 80
_cell_length_a 28.720457
_cell_length_b 7.542461
_cell_length_c 17.006399
_cell_angle_alpha 90.000000
_cell_angle_beta 90.000000
_cell_angle_gamma 90.000000
_cell_volume 3683.975926
_symmetry_space_group_name_H-M "I B A M"
_symmetry_group_IT_number 72
_symmetry_cell_setting 'orthorhombic'
loop_
_space_group_symop_operation_xyz
x,y,z
-x,-y,z
x,-y,1/2-z
-x,y,1/2-z
-x,-y,-z
x,y,-z
-x,y,1/2+z
x,-y,1/2+z
1/2+x,1/2+y,1/2+z
1/2-x,1/2-y,1/2+z
1/2+x,1/2-y,-z
1/2-x,1/2+y,-z
1/2-x,1/2-y,1/2-z
1/2+x,1/2+y,1/2-z
1/2-x,1/2+y,z
1/2+x,1/2-y,z
loop_
_atom_site_type_symbol
_atom_site_label
_atom_site_fract_x
_atom_site_fract_y
_atom_site_fract_z
Si Si1 0.447514 0.522486 0.409683
Si Si2 0.607444 0.837236 0.144261
Si Si3 0.703564 0.868158 0.911730
Si Si4 0.780483 0.291438 0.326489
Si Si5 0.884500 0.263405 0.675300
O O1 0.500000 0.500000 0.378942
O O2 0.443599 0.465172 0.500000
O O3 0.433307 0.729369 0.399674
O O4 0.414733 0.394157 0.359626
O O5 0.655944 0.763295 0.107481
O O6 0.601860 0.792708 0.235166
O O7 0.605587 0.050725 0.128935
O O8 0.749546 0.748129 0.904169
O O9 0.707571 0.002670 0.837632
O O10 0.701472 0.947543 0.000000
O O11 0.750000 0.250000 0.250000
O O12 0.830639 0.195442 0.328105
#
# Coordination Sequence:
#
# PCOD8295045 Si02
#       5
#    16  16  16  16  16
#     4  11  26  45  67  97 133 175 224 281 345 409
#     4  10  22  43  67  93 130 170 217 279 339 403
#     4  11  23  37  58  92 129 170 219 269 328 397
#     4  11  22  39  61  89 129 173 216 266 325 397
#     4  10  23  42  68  97 128 173 223 275 339 405
#
# _framework density 21.715668000000001
#
# number of rings (size 3 to 8) (size 9 to 14) (size 15 to 20)
#    0.000    1.400    2.000    2.400    2.800    8.800 
#    0.000    4.000    0.000    0.000    0.000    0.000 
#    0.000    0.000    0.000    0.000    0.000    0.000 
#
# Total GULP energy -495732.309153 kJ/mol
# GULP energy per Si atom -12393.307729 kJ/mol
# Density = 2.166624 g / cm^3
# Si number density = 21.715668 Si / 1000 Ang^3
#
#
#
# Elastic Constant Matrix: (Units=GPa)
#
#
# Indices 1 2 3 4 5 6 
#
# 1 172.9322 58.2780 45.3822 0.0000 0.0000 0.0000
# 2 58.2780 81.9368 27.4428 0.0000 0.0000 0.0000
# 3 45.3822 27.4428 92.3956 0.0000 0.0000 0.0000
# 4 0.0000 0.0000 0.0000 31.9786 0.0000 0.0000
# 5 0.0000 0.0000 0.0000 0.0000 31.1884 0.0000
# 6 0.0000 0.0000 0.0000 0.0000 0.0000 35.4024
#
#
#
# Elastic Compliance Matrix: (Units=1/GPa)
#
#
# Indices 1 2 3 4 5 6 
#
# 1 0.008101 -0.004918 -0.002518 0.000000 0.000000 0.000000
# 2 -0.004918 0.016539 -0.002496 0.000000 0.000000 0.000000
# 3 -0.002518 -0.002496 0.012801 0.000000 0.000000 0.000000
# 4 0.000000 0.000000 0.000000 0.031271 0.000000 0.000000
# 5 0.000000 0.000000 0.000000 0.000000 0.032063 0.000000
# 6 0.000000 0.000000 0.000000 0.000000 0.000000 0.028247
#
#
# Mechanical properties :
#
#
# Convention : Reuss Voigt Hill
#
# Bulk Modulus (GPa) = 56.89863 67.71895 62.30879
# Shear Modulus (GPa) = 32.31091 34.12466 33.21779
#
# Velocity S-wave (km/s) = 3.86153 3.96843 3.91534
# Velocity P-wave (km/s) = 6.79267 7.22841 7.01393
#
# Compressibility (1/GPa) = 0.01757512
#
# Stress axis : x y z
#
# Youngs Moduli (GPa) = 123.44229 60.46337 78.11680
#
# Poissons Ratio (x) = 0.29739 0.19671
# Poissons Ratio (y) = 0.60715 0.19502
# Poissons Ratio (z) = 0.31084 0.15095
#
# Static dielectric constant tensor:
#      x y z
#    x 4.331060 0.000000 0.000000 
#    y 0.000000 3.910630 0.000000 
#    z 0.000000 0.000000 3.814060 
# 
# 
# High freq. dielectric constant tensor:
#      x y z
#    x 1.854960 0.000000 0.000000 
#    y 0.000000 1.841740 0.000000 
#    z 0.000000 0.000000 1.856670 
# 
# From -- ./inp_files/33789.got.cif
#   From: 2010.03.12/outbox.cif.g09.slc.cpg/sg72_17_cif.got.tgz:33789.got - 2010.04.16 14:54:00.
