data_PCOD8295494
_publ_section_title
;
Structure prediction by ZEFSAII (Michael W. Deem and Ramdas Pophale) SiO2 
 PCOD8295494
Probable space group: I B A M
;
_chemical_formula_sum "Si O2"
_cell_formula_units_Z 64
_cell_length_a 8.042647
_cell_length_b 14.421197
_cell_length_c 22.289961
_cell_angle_alpha 90.000000
_cell_angle_beta 90.000000
_cell_angle_gamma 90.000000
_cell_volume 2585.292139
_symmetry_space_group_name_H-M "I B A M"
_symmetry_group_IT_number 72
_symmetry_cell_setting 'orthorhombic'
loop_
_space_group_symop_operation_xyz
x,y,z
-x,-y,z
x,-y,1/2-z
-x,y,1/2-z
-x,-y,-z
x,y,-z
-x,y,1/2+z
x,-y,1/2+z
1/2+x,1/2+y,1/2+z
1/2-x,1/2-y,1/2+z
1/2+x,1/2-y,-z
1/2-x,1/2+y,-z
1/2-x,1/2-y,1/2-z
1/2+x,1/2+y,1/2-z
1/2-x,1/2+y,z
1/2+x,1/2-y,z
loop_
_atom_site_type_symbol
_atom_site_label
_atom_site_fract_x
_atom_site_fract_y
_atom_site_fract_z
Si Si1 0.820302 0.624555 0.614333
Si Si2 0.804244 0.644683 0.252266
Si Si3 0.657752 0.799091 0.431082
Si Si4 0.826056 0.947891 0.366287
O O1 0.746953 0.614600 0.681808
O O2 0.695336 0.690264 0.576900
O O3 0.805117 0.515850 0.597698
O O4 0.006358 0.664766 0.610339
O O5 0.750000 0.750000 0.250000
O O6 0.719904 0.580500 0.201930
O O7 0.000000 0.632960 0.250000
O O8 0.614998 0.819378 0.500000
O O9 0.820758 0.854398 0.407159
O O10 0.000000 0.000000 0.368437
#
# Coordination Sequence:
#
# PCOD8295494 Si02
#       4
#    16  16  16  16
#     4  12  25  47  74 108 154 197 254 321 383 453
#     4  12  25  46  78 111 151 198 243 313 390 469
#     4  12  27  49  77 109 153 211 264 315 375 446
#     4  12  28  46  77 114 155 197 254 315 387 461
#
# _framework density 24.755420999999998
#
# number of rings (size 3 to 8) (size 9 to 14) (size 15 to 20)
#    0.000    0.000    5.000    3.750    3.500    5.500 
#    0.000    0.000    0.000    0.000    0.000    0.000 
#    0.000    0.000    0.000    0.000    0.000    0.000 
#
# Total GULP energy -396581.180710 kJ/mol
# GULP energy per Si atom -12393.161897 kJ/mol
# Density = 2.469908 g / cm^3
# Si number density = 24.755421 Si / 1000 Ang^3
#
#
#
# Elastic Constant Matrix: (Units=GPa)
#
#
# Indices 1 2 3 4 5 6 
#
# 1 75.5937 25.7106 3.4017 0.0000 0.0000 0.0000
# 2 25.7106 132.3954 40.0107 0.0000 0.0000 0.0000
# 3 3.4017 40.0107 134.4873 0.0000 0.0000 0.0000
# 4 0.0000 0.0000 0.0000 32.5667 0.0000 0.0000
# 5 0.0000 0.0000 0.0000 0.0000 22.6079 0.0000
# 6 0.0000 0.0000 0.0000 0.0000 0.0000 43.2233
#
#
#
# Elastic Compliance Matrix: (Units=1/GPa)
#
#
# Indices 1 2 3 4 5 6 
#
# 1 0.014195 -0.002910 0.000507 0.000000 0.000000 0.000000
# 2 -0.002910 0.008896 -0.002573 0.000000 0.000000 0.000000
# 3 0.000507 -0.002573 0.008188 0.000000 0.000000 0.000000
# 4 0.000000 0.000000 0.000000 0.030706 0.000000 0.000000
# 5 0.000000 0.000000 0.000000 0.000000 0.044232 0.000000
# 6 0.000000 0.000000 0.000000 0.000000 0.000000 0.023136
#
#
# Mechanical properties :
#
#
# Convention : Reuss Voigt Hill
#
# Bulk Modulus (GPa) = 46.88827 53.41360 50.15093
# Shear Modulus (GPa) = 34.14950 37.90315 36.02633
#
# Velocity S-wave (km/s) = 3.71816 3.91718 3.81897
# Velocity P-wave (km/s) = 6.11675 6.48710 6.30464
#
# Compressibility (1/GPa) = 0.02132730
#
# Stress axis : x y z
#
# Youngs Moduli (GPa) = 70.44495 112.41307 122.12553
#
# Poissons Ratio (x) = 0.32710 -0.06187
# Poissons Ratio (y) = 0.20498 0.31422
# Poissons Ratio (z) = -0.03569 0.28923
#
# Static dielectric constant tensor:
#      x y z
#    x 4.078790 0.000000 0.000000 
#    y 0.000000 5.881750 0.000000 
#    z 0.000000 0.000000 4.464400 
# 
# 
# High freq. dielectric constant tensor:
#      x y z
#    x 1.982910 0.000000 0.000000 
#    y 0.000000 2.019340 0.000000 
#    z 0.000000 0.000000 1.973140 
# 
# From -- ./inp_files/41925.got.cif
#   From: 2010.03.12/outbox.cif.g09.slc.cpg/sg72_21_cif.got.tgz:41925.got - 2010.04.16 14:54:00.
