data_PCOD8295135
_publ_section_title
;
Structure prediction by ZEFSAII (Michael W. Deem and Ramdas Pophale) SiO2 
 PCOD8295135
Probable space group: I B A M
;
_chemical_formula_sum "Si O2"
_cell_formula_units_Z 56
_cell_length_a 15.311343
_cell_length_b 12.559576
_cell_length_c 14.492502
_cell_angle_alpha 90.000000
_cell_angle_beta 90.000000
_cell_angle_gamma 90.000000
_cell_volume 2786.965758
_symmetry_space_group_name_H-M "I B A M"
_symmetry_group_IT_number 72
_symmetry_cell_setting 'orthorhombic'
loop_
_space_group_symop_operation_xyz
x,y,z
-x,-y,z
x,-y,1/2-z
-x,y,1/2-z
-x,-y,-z
x,y,-z
-x,y,1/2+z
x,-y,1/2+z
1/2+x,1/2+y,1/2+z
1/2-x,1/2-y,1/2+z
1/2+x,1/2-y,-z
1/2-x,1/2+y,-z
1/2-x,1/2-y,1/2-z
1/2+x,1/2+y,1/2-z
1/2-x,1/2+y,z
1/2+x,1/2-y,z
loop_
_atom_site_type_symbol
_atom_site_label
_atom_site_fract_x
_atom_site_fract_y
_atom_site_fract_z
Si Si1 0.727474 0.045907 0.500000
Si Si2 0.914794 0.555102 0.652877
Si Si3 0.391005 0.329304 0.500000
Si Si4 0.602247 0.568019 0.000000
Si Si5 0.017816 0.210467 0.649524
O O1 0.792249 0.945171 0.500000
O O2 0.669269 0.040584 0.409655
O O3 0.786159 0.155745 0.500000
O O4 0.894395 0.500000 0.750000
O O5 0.932861 0.679222 0.666432
O O6 0.000000 0.500000 0.607119
O O7 0.438524 0.447330 0.500000
O O8 0.427140 0.270683 0.407912
O O9 0.580218 0.632432 0.907468
O O10 0.000000 0.159252 0.750000
#
# Coordination Sequence:
#
# PCOD8295135 Si02
#       5
#     8  16   8   8  16
#     4  10  23  43  62  90 136 158 198 271 317 355
#     4  11  23  45  63  91 125 169 216 250 306 381
#     4   9  23  41  61 100 125 159 206 255 323 368
#     4   9  23  41  61 102 124 159 208 257 325 367
#     4  11  20  41  68  92 124 166 214 251 309 378
#
# _framework density 20.093537999999999
#
# number of rings (size 3 to 8) (size 9 to 14) (size 15 to 20)
#    0.857    0.857    2.857    3.857    0.000    4.571 
#   10.286    2.857    0.000    0.000    0.000    0.000 
#    0.000    0.000    0.000    0.000    0.000    0.000 
#
# Total GULP energy -347042.002436 kJ/mol
# GULP energy per Si atom -12394.357230 kJ/mol
# Density = 2.004780 g / cm^3
# Si number density = 20.093538 Si / 1000 Ang^3
#
#
#
# Elastic Constant Matrix: (Units=GPa)
#
#
# Indices 1 2 3 4 5 6 
#
# 1 137.4572 27.7987 85.1899 0.0000 0.0000 0.0000
# 2 27.7987 100.9685 55.8138 0.0000 0.0000 0.0000
# 3 85.1899 55.8138 194.9119 0.0000 0.0000 0.0000
# 4 0.0000 0.0000 0.0000 32.3470 0.0000 0.0000
# 5 0.0000 0.0000 0.0000 0.0000 -19.6184 0.0000
# 6 0.0000 0.0000 0.0000 0.0000 0.0000 19.6801
#
#
#
# Elastic Compliance Matrix: (Units=1/GPa)
#
#
# Indices 1 2 3 4 5 6 
#
# 1 0.009991 -0.000400 -0.004252 0.000000 0.000000 0.000000
# 2 -0.000400 0.011783 -0.003199 0.000000 0.000000 0.000000
# 3 -0.004252 -0.003199 0.007905 0.000000 0.000000 0.000000
# 4 0.000000 0.000000 0.000000 0.030915 0.000000 0.000000
# 5 0.000000 0.000000 0.000000 0.000000 -0.050972 0.000000
# 6 0.000000 0.000000 0.000000 0.000000 0.000000 0.050813
#
#
# Mechanical properties :
#
#
# Convention : Reuss Voigt Hill
#
# Bulk Modulus (GPa) = 71.55159 85.66027 78.60593
# Shear Modulus (GPa) = 61.88414 24.11739 43.00077
#
# Velocity S-wave (km/s) = 5.55562 3.46823 4.63106
# Velocity P-wave (km/s) = 8.76583 7.66560 8.23411
#
# Compressibility (1/GPa) = 0.01397593
#
# Stress axis : x y z
#
# Youngs Moduli (GPa) = 100.08705 84.87031 126.50005
#
# Poissons Ratio (x) = 0.03397 0.53791
# Poissons Ratio (y) = 0.04006 0.40469
# Poissons Ratio (z) = 0.42560 0.27151
#
# Static dielectric constant tensor:
#      x y z
#    x 3.672020 0.000000 0.000000 
#    y 0.000000 3.599450 0.000000 
#    z 0.000000 0.000000 7.790110 
# 
# 
# High freq. dielectric constant tensor:
#      x y z
#    x 1.782700 0.000000 0.000000 
#    y 0.000000 1.782230 0.000000 
#    z 0.000000 0.000000 1.788660 
# 
# From -- ./inp_files/19646.got.cif
#   From: 2010.03.12/outbox.cif.g09.slc.cpg/sg72_10_cif.got.tgz:19646.got - 2010.04.16 14:54:00.
