data_PCOD8295303
_publ_section_title
;
Structure prediction by ZEFSAII (Michael W. Deem and Ramdas Pophale) SiO2 
 PCOD8295303
Probable space group: I B A M
;
_chemical_formula_sum "Si O2"
_cell_formula_units_Z 112
_cell_length_a 11.785440
_cell_length_b 14.269115
_cell_length_c 30.466557
_cell_angle_alpha 90.000000
_cell_angle_beta 90.000000
_cell_angle_gamma 90.000000
_cell_volume 5123.493824
_symmetry_space_group_name_H-M "I B A M"
_symmetry_group_IT_number 72
_symmetry_cell_setting 'orthorhombic'
loop_
_space_group_symop_operation_xyz
x,y,z
-x,-y,z
x,-y,1/2-z
-x,y,1/2-z
-x,-y,-z
x,y,-z
-x,y,1/2+z
x,-y,1/2+z
1/2+x,1/2+y,1/2+z
1/2-x,1/2-y,1/2+z
1/2+x,1/2-y,-z
1/2-x,1/2+y,-z
1/2-x,1/2-y,1/2-z
1/2+x,1/2+y,1/2-z
1/2-x,1/2+y,z
1/2+x,1/2-y,z
loop_
_atom_site_type_symbol
_atom_site_label
_atom_site_fract_x
_atom_site_fract_y
_atom_site_fract_z
Si Si1 0.727267 0.607512 0.668539
Si Si2 0.068953 0.247198 0.049735
Si Si3 0.222813 0.610456 0.594692
Si Si4 0.569407 0.750162 0.293077
Si Si5 0.898739 0.746261 0.627180
Si Si6 0.881858 0.049348 0.584045
Si Si7 0.116633 0.448696 0.819531
O O1 0.675863 0.679506 0.703717
O O2 0.826275 0.654540 0.639010
O O3 0.628875 0.572757 0.635737
O O4 0.781118 0.518762 0.694076
O O5 0.168052 0.322383 0.058585
O O6 0.124111 0.144732 0.056359
O O7 0.961394 0.266528 0.080694
O O8 0.026775 0.257988 0.000000
O O9 0.317672 0.663750 0.623778
O O10 0.280159 0.521460 0.570359
O O11 0.126368 0.577405 0.628914
O O12 0.500000 0.724391 0.250000
O O13 0.491827 0.736692 0.335617
O O14 0.619928 0.855083 0.289960
O O15 0.000000 0.000000 0.574320
O O16 0.000000 0.500000 0.810087
#
# Coordination Sequence:
#
# PCOD8295303 Si02
#       7
#    16  16  16  16  16  16  16
#     4  11  22  42  71  98 135 188 224 278 347 407
#     4  12  25  41  66 101 139 178 228 288 345 406
#     4  11  22  41  71  92 132 185 228 278 346 411
#     4  12  25  43  70 104 137 178 225 288 345 412
#     4  12  20  46  66  94 138 176 230 270 349 408
#     4  11  21  40  69  96 130 177 229 277 342 411
#     4  11  21  41  69 100 134 181 230 276 338 412
#
# _framework density 21.860081999999998
#
# number of rings (size 3 to 8) (size 9 to 14) (size 15 to 20)
#    0.000    0.571    8.571    0.000    0.000    2.286 
#    0.000    0.000    3.143    7.286    0.000    0.000 
#    0.000    0.000    0.000    0.000    0.000    0.000 
#
# Total GULP energy -694532.783007 kJ/mol
# GULP energy per Si atom -12402.371125 kJ/mol
# Density = 2.181033 g / cm^3
# Si number density = 21.860082 Si / 1000 Ang^3
#
#
#
# Elastic Constant Matrix: (Units=GPa)
#
#
# Indices 1 2 3 4 5 6 
#
# 1 81.4928 54.8726 44.8638 0.0000 0.0000 0.0000
# 2 54.8726 149.2950 45.8153 0.0000 0.0000 0.0000
# 3 44.8638 45.8153 91.1149 0.0000 0.0000 0.0000
# 4 0.0000 0.0000 0.0000 15.1851 0.0000 0.0000
# 5 0.0000 0.0000 0.0000 0.0000 23.9924 0.0000
# 6 0.0000 0.0000 0.0000 0.0000 0.0000 44.0608
#
#
#
# Elastic Compliance Matrix: (Units=1/GPa)
#
#
# Indices 1 2 3 4 5 6 
#
# 1 0.019557 -0.005005 -0.007113 0.000000 0.000000 0.000000
# 2 -0.005005 0.009201 -0.002162 0.000000 0.000000 0.000000
# 3 -0.007113 -0.002162 0.015565 0.000000 0.000000 0.000000
# 4 0.000000 0.000000 0.000000 0.065854 0.000000 0.000000
# 5 0.000000 0.000000 0.000000 0.000000 0.041680 0.000000
# 6 0.000000 0.000000 0.000000 0.000000 0.000000 0.022696
#
#
# Mechanical properties :
#
#
# Convention : Reuss Voigt Hill
#
# Bulk Modulus (GPa) = 63.44202 68.11181 65.77691
# Shear Modulus (GPa) = 23.99602 28.40439 26.20020
#
# Velocity S-wave (km/s) = 3.31676 3.60859 3.46575
# Velocity P-wave (km/s) = 6.61459 6.97053 6.79489
#
# Compressibility (1/GPa) = 0.01576242
#
# Stress axis : x y z
#
# Youngs Moduli (GPa) = 51.13223 108.67963 64.24825
#
# Poissons Ratio (x) = 0.54398 0.45699
# Poissons Ratio (y) = 0.25593 0.13891
# Poissons Ratio (z) = 0.36370 0.23498
#
# Static dielectric constant tensor:
#      x y z
#    x 4.055530 0.000000 0.000000 
#    y 0.000000 4.370120 0.000000 
#    z 0.000000 0.000000 3.517400 
# 
# 
# High freq. dielectric constant tensor:
#      x y z
#    x 1.864930 0.000000 0.000000 
#    y 0.000000 1.881450 0.000000 
#    z 0.000000 0.000000 1.820750 
# 
# From -- ./inp_files/51451.got.cif
#   From: 2010.03.12/outbox.cif.g09.slc.cpg/sg72_26_cif.got.tgz:51451.got - 2010.04.16 14:54:00.
