data_PCOD8295791
_publ_section_title
;
Structure prediction by ZEFSAII (Michael W. Deem and Ramdas Pophale) SiO2 
 PCOD8295791
Probable space group: I B C A 
;
_chemical_formula_sum "Si O2"
_cell_formula_units_Z 104
_cell_length_a 8.754276
_cell_length_b 27.272114
_cell_length_c 21.380726
_cell_angle_alpha 90.000000
_cell_angle_beta 90.000000
_cell_angle_gamma 90.000000
_cell_volume 5104.597298
_symmetry_space_group_name_H-M "I B C A "
_symmetry_group_IT_number 73
_symmetry_cell_setting 'orthorhombic'
loop_
_space_group_symop_operation_xyz
x,y,z
-x,1/2-y,z
x,-y,1/2-z
1/2-x,y,-z
-x,-y,-z
x,1/2+y,-z
-x,y,1/2+z
1/2+x,-y,z
1/2+x,1/2+y,1/2+z
1/2-x,-y,1/2+z
1/2+x,1/2-y,-z
-x,1/2+y,1/2-z
1/2-x,1/2-y,1/2-z
1/2+x,y,1/2-z
1/2-x,1/2+y,z
x,1/2-y,1/2+z
loop_
_atom_site_type_symbol
_atom_site_label
_atom_site_fract_x
_atom_site_fract_y
_atom_site_fract_z
Si Si1 0.446758 0.138748 0.263831
Si Si2 0.854362 0.528805 0.439707
Si Si3 0.691083 0.707872 0.796147
Si Si4 0.773839 0.100647 0.664247
Si Si5 0.640130 0.654821 0.442719
Si Si6 0.500000 0.250000 0.097899
Si Si7 0.910379 0.424886 0.479098
O O1 0.539038 0.181398 0.228749
O O2 0.321435 0.166860 0.306163
O O3 0.558246 0.106468 0.306418
O O4 0.358613 0.101157 0.216971
O O5 0.750000 0.538714 0.500000
O O6 0.775472 0.550734 0.377122
O O7 0.884789 0.470914 0.431740
O O8 0.011678 0.556773 0.456043
O O9 0.750000 0.750000 0.750000
O O10 0.643872 0.731172 0.861867
O O11 0.739227 0.147604 0.620149
O O12 0.750000 0.644955 0.500000
O O13 0.565975 0.708160 0.447031
O O14 0.504520 0.615291 0.441491
O O15 0.750000 0.401455 0.500000
#
# Coordination Sequence:
#
# PCOD8295791 Si02
#       7
#    16  16  16  16  16   8  16
#     4  10  22  34  64  92 124 172 221 264 323 377
#     4  10  19  39  70 102 125 162 212 268 334 382
#     4  11  18  37  58  89 119 167 231 266 292 380
#     4  11  20  42  64  95 131 168 217 275 327 387
#     4  12  24  45  64  92 141 174 209 281 343 388
#     4  12  24  38  64  92 134 172 214 270 326 398
#     4  10  21  37  68 104 120 164 221 261 317 402
#
# _framework density 20.373791000000001
#
# number of rings (size 3 to 8) (size 9 to 14) (size 15 to 20)
#    0.000    1.231    6.154    0.923    0.000    1.846 
#    2.769    0.000    0.000    2.769    0.000    0.000 
#    0.000    0.000    0.000    0.000    0.000    0.000 
#
# Total GULP energy -644701.885017 kJ/mol
# GULP energy per Si atom -12398.113173 kJ/mol
# Density = 2.032742 g / cm^3
# Si number density = 20.373791 Si / 1000 Ang^3
#
#
#
# Elastic Constant Matrix: (Units=GPa)
#
#
# Indices 1 2 3 4 5 6 
#
# 1 138.3636 50.2421 54.1470 0.0000 0.0000 0.0000
# 2 50.2421 120.0750 46.1978 -0.0001 0.0000 0.0000
# 3 54.1470 46.1978 82.4393 -0.0002 0.0000 0.0000
# 4 0.0000 -0.0001 -0.0002 28.4727 0.0000 0.0000
# 5 0.0000 0.0000 0.0000 0.0000 30.3936 0.0000
# 6 0.0000 0.0000 0.0000 0.0000 0.0000 32.1290
#
#
#
# Elastic Compliance Matrix: (Units=1/GPa)
#
#
# Indices 1 2 3 4 5 6 
#
# 1 0.010142 -0.002143 -0.005461 0.000000 0.000000 0.000000
# 2 -0.002143 0.011070 -0.004796 0.000000 0.000000 0.000000
# 3 -0.005461 -0.004796 0.018405 0.000000 0.000000 0.000000
# 4 0.000000 0.000000 0.000000 0.035121 0.000000 0.000000
# 5 0.000000 0.000000 0.000000 0.000000 0.032902 0.000000
# 6 0.000000 0.000000 0.000000 0.000000 0.000000 0.031125
#
#
# Mechanical properties :
#
#
# Convention : Reuss Voigt Hill
#
# Bulk Modulus (GPa) = 67.48770 71.33908 69.41339
# Shear Modulus (GPa) = 29.67302 30.88511 30.27907
#
# Velocity S-wave (km/s) = 3.82046 3.89771 3.85928
# Velocity P-wave (km/s) = 7.25658 7.43958 7.34865
#
# Compressibility (1/GPa) = 0.01481752
#
# Stress axis : x y z
#
# Youngs Moduli (GPa) = 98.59522 90.33458 54.33450
#
# Poissons Ratio (x) = 0.19357 0.29671
# Poissons Ratio (y) = 0.21127 0.26059
# Poissons Ratio (z) = 0.53842 0.43325
#
# Static dielectric constant tensor:
#      x y z
#    x 4.090480 0.000000 0.000000 
#    y 0.000000 3.712500 0.000000 
#    z 0.000000 0.000000 3.467970 
# 
# 
# High freq. dielectric constant tensor:
#      x y z
#    x 1.817370 0.000000 0.000000 
#    y 0.000000 1.787740 0.000000 
#    z 0.000000 0.000000 1.763940 
# 
# From -- ./inp_files/28498.got.cif
#   From: 2010.03.12/outbox.cif.g09.slc.cpg/sg73_15_cif.got.tgz:28498.got - 2010.04.16 15:25:48.
