data_PCOD8295777
_publ_section_title
;
Structure prediction by ZEFSAII (Michael W. Deem and Ramdas Pophale) SiO2 
 PCOD8295777
Probable space group: I B C A 
;
_chemical_formula_sum "Si O2"
_cell_formula_units_Z 112
_cell_length_a 19.167823
_cell_length_b 12.540035
_cell_length_c 20.230202
_cell_angle_alpha 90.000000
_cell_angle_beta 90.000000
_cell_angle_gamma 90.000000
_cell_volume 4862.635969
_symmetry_space_group_name_H-M "I B C A "
_symmetry_group_IT_number 73
_symmetry_cell_setting 'orthorhombic'
loop_
_space_group_symop_operation_xyz
x,y,z
-x,1/2-y,z
x,-y,1/2-z
1/2-x,y,-z
-x,-y,-z
x,1/2+y,-z
-x,y,1/2+z
1/2+x,-y,z
1/2+x,1/2+y,1/2+z
1/2-x,-y,1/2+z
1/2+x,1/2-y,-z
-x,1/2+y,1/2-z
1/2-x,1/2-y,1/2-z
1/2+x,y,1/2-z
1/2-x,1/2+y,z
x,1/2-y,1/2+z
loop_
_atom_site_type_symbol
_atom_site_label
_atom_site_fract_x
_atom_site_fract_y
_atom_site_fract_z
Si Si1 0.294614 0.834116 0.907262
Si Si2 0.970512 0.017610 0.393285
Si Si3 0.068840 0.686074 0.319008
Si Si4 0.829388 0.186821 0.592145
Si Si5 0.607691 0.506714 0.971961
Si Si6 0.121258 0.829744 0.674562
Si Si7 0.750026 0.525619 0.324121
O O1 0.237625 0.751206 0.936064
O O2 0.350553 0.776481 0.860045
O O3 0.335053 0.898223 0.965340
O O4 0.250347 0.916506 0.864302
O O5 0.956117 0.932434 0.336178
O O6 0.051666 0.021224 0.412973
O O7 0.925945 0.983697 0.456934
O O8 0.949544 0.132859 0.362817
O O9 0.110629 0.735746 0.380743
O O10 0.114580 0.688877 0.252667
O O11 0.000000 0.750000 0.303091
O O12 0.858225 0.111630 0.533142
O O13 0.807806 0.109226 0.651894
O O14 0.173388 0.928554 0.665290
O O15 0.769657 0.500000 0.250000
#
# Coordination Sequence:
#
# PCOD8295777 Si02
#       7
#    16  16  16  16  16  16  16
#     4  10  22  41  69  98 134 174 226 278 331 403
#     4  11  24  45  66  92 140 173 221 271 329 404
#     4  12  24  41  67  99 129 172 221 279 335 404
#     4  10  21  42  66  98 131 169 228 273 334 395
#     4  10  24  45  66  95 130 184 220 266 339 392
#     4  11  24  40  65 100 130 172 220 279 337 389
#     4  10  19  38  63  92 135 177 212 273 341 398
#
# _framework density 23.032775000000001
#
# number of rings (size 3 to 8) (size 9 to 14) (size 15 to 20)
#    0.000    1.429    1.429    3.857    2.000    3.429 
#    0.000   15.714    0.000    0.000    0.000    0.000 
#    0.000    0.000    0.000    0.000    0.000    0.000 
#
# Total GULP energy -694630.618569 kJ/mol
# GULP energy per Si atom -12404.118189 kJ/mol
# Density = 2.298035 g / cm^3
# Si number density = 23.032775 Si / 1000 Ang^3
#
#
#
# Elastic Constant Matrix: (Units=GPa)
#
#
# Indices 1 2 3 4 5 6 
#
# 1 87.7044 42.2954 10.5355 0.0000 0.0000 0.0000
# 2 42.2954 110.9445 14.6332 0.0000 0.0000 0.0000
# 3 10.5355 14.6332 55.6555 0.0000 0.0000 0.0000
# 4 0.0000 0.0000 0.0000 14.7779 0.0000 0.0000
# 5 0.0000 0.0000 0.0000 0.0000 29.2972 0.0000
# 6 0.0000 0.0000 0.0000 0.0000 0.0000 38.5487
#
#
#
# Elastic Compliance Matrix: (Units=1/GPa)
#
#
# Indices 1 2 3 4 5 6 
#
# 1 0.014060 -0.005189 -0.001297 0.000000 0.000000 0.000000
# 2 -0.005189 0.011252 -0.001976 0.000000 0.000000 0.000000
# 3 -0.001297 -0.001976 0.018733 0.000000 0.000000 0.000000
# 4 0.000000 0.000000 0.000000 0.067669 0.000000 0.000000
# 5 0.000000 0.000000 0.000000 0.000000 0.034133 0.000000
# 6 0.000000 0.000000 0.000000 0.000000 0.000000 0.025941
#
#
# Mechanical properties :
#
#
# Convention : Reuss Voigt Hill
#
# Bulk Modulus (GPa) = 36.87272 43.24807 40.06040
# Shear Modulus (GPa) = 25.28401 28.98077 27.13239
#
# Velocity S-wave (km/s) = 3.31681 3.55102 3.43591
# Velocity P-wave (km/s) = 5.54183 5.96913 5.75944
#
# Compressibility (1/GPa) = 0.02712032
#
# Stress axis : x y z
#
# Youngs Moduli (GPa) = 71.12274 88.86984 53.38217
#
# Poissons Ratio (x) = 0.46115 0.06925
# Poissons Ratio (y) = 0.36906 0.10550
# Poissons Ratio (z) = 0.09226 0.17563
#
# Static dielectric constant tensor:
#      x y z
#    x 4.262520 0.000000 0.000000 
#    y 0.000000 4.288640 0.000000 
#    z 0.000000 0.000000 3.849830 
# 
# 
# High freq. dielectric constant tensor:
#      x y z
#    x 1.917370 0.000000 0.000000 
#    y 0.000000 1.921900 0.000000 
#    z 0.000000 0.000000 1.902960 
# 
# From -- ./inp_files/30136.got.cif
#   From: 2010.03.12/outbox.cif.g09.slc.cpg/sg73_16_cif.got.tgz:30136.got - 2010.04.16 15:25:48.
