data_PCOD8295023
_publ_section_title
;
Structure prediction by ZEFSAII (Michael W. Deem and Ramdas Pophale) SiO2 
 PCOD8295023
Probable space group: I B A M
;
_chemical_formula_sum "Si O2"
_cell_formula_units_Z 88
_cell_length_a 20.556759
_cell_length_b 10.003333
_cell_length_c 18.076588
_cell_angle_alpha 90.000000
_cell_angle_beta 90.000000
_cell_angle_gamma 90.000000
_cell_volume 3717.199160
_symmetry_space_group_name_H-M "I B A M"
_symmetry_group_IT_number 72
_symmetry_cell_setting 'orthorhombic'
loop_
_space_group_symop_operation_xyz
x,y,z
-x,-y,z
x,-y,1/2-z
-x,y,1/2-z
-x,-y,-z
x,y,-z
-x,y,1/2+z
x,-y,1/2+z
1/2+x,1/2+y,1/2+z
1/2-x,1/2-y,1/2+z
1/2+x,1/2-y,-z
1/2-x,1/2+y,-z
1/2-x,1/2-y,1/2-z
1/2+x,1/2+y,1/2-z
1/2-x,1/2+y,z
1/2+x,1/2-y,z
loop_
_atom_site_type_symbol
_atom_site_label
_atom_site_fract_x
_atom_site_fract_y
_atom_site_fract_z
Si Si1 0.734814 0.000000 0.750000
Si Si2 0.877143 0.305253 0.278848
Si Si3 0.650279 0.464947 0.150313
Si Si4 0.296029 0.454508 0.500000
Si Si5 0.674864 0.764296 0.000000
Si Si6 0.957392 0.631860 0.917422
Si Si7 0.077617 0.229308 0.369783
O O1 0.691066 0.132561 0.753504
O O2 0.779250 0.983439 0.677060
O O3 0.870436 0.147835 0.292227
O O4 0.903424 0.376838 0.352959
O O5 0.922662 0.316726 0.206191
O O6 0.594038 0.575713 0.147618
O O7 0.661440 0.404048 0.069171
O O8 0.290936 0.617590 0.500000
O O9 0.226138 0.384637 0.500000
O O10 0.630563 0.785426 0.072336
O O11 0.000000 0.500000 0.912460
O O12 0.005009 0.758875 0.903086
O O13 0.926285 0.644519 0.000000
#
# Coordination Sequence:
#
# PCOD8295023 Si02
#       7
#     8  16  16   8   8  16  16
#     4  12  24  44  69 105 148 178 232 302 346 434
#     4  12  25  42  73 102 138 185 237 287 356 434
#     4  11  25  43  66 105 142 184 231 291 367 432
#     4  10  24  38  63  97 145 185 242 280 367 441
#     4  10  22  42  66 103 140 198 226 307 359 429
#     4  11  26  49  70 102 138 183 243 299 358 427
#     4  11  22  46  70  98 142 184 236 294 362 421
#
# _framework density 23.673738
#
# number of rings (size 3 to 8) (size 9 to 14) (size 15 to 20)
#    0.000    0.909    2.727    3.273    6.364    1.455 
#    1.636    2.727    0.000    0.000    0.000    0.000 
#    0.000    0.000    0.000    0.000    0.000    0.000 
#
# Total GULP energy -545476.873977 kJ/mol
# GULP energy per Si atom -12397.201681 kJ/mol
# Density = 2.361986 g / cm^3
# Si number density = 23.673738 Si / 1000 Ang^3
#
#
#
# Elastic Constant Matrix: (Units=GPa)
#
#
# Indices 1 2 3 4 5 6 
#
# 1 41.9263 16.5614 7.8535 0.0000 0.0000 0.0000
# 2 16.5614 70.0440 17.6702 0.0000 0.0000 0.0000
# 3 7.8535 17.6702 160.0836 0.0000 0.0000 0.0000
# 4 0.0000 0.0000 0.0000 32.2514 0.0000 0.0000
# 5 0.0000 0.0000 0.0000 0.0000 41.3786 0.0000
# 6 0.0000 0.0000 0.0000 0.0000 0.0000 38.4035
#
#
#
# Elastic Compliance Matrix: (Units=1/GPa)
#
#
# Indices 1 2 3 4 5 6 
#
# 1 0.026369 -0.006078 -0.000623 0.000000 0.000000 0.000000
# 2 -0.006078 0.016086 -0.001477 0.000000 0.000000 0.000000
# 3 -0.000623 -0.001477 0.006440 0.000000 0.000000 0.000000
# 4 0.000000 0.000000 0.000000 0.031006 0.000000 0.000000
# 5 0.000000 0.000000 0.000000 0.000000 0.024167 0.000000
# 6 0.000000 0.000000 0.000000 0.000000 0.000000 0.026039
#
#
# Mechanical properties :
#
#
# Convention : Reuss Voigt Hill
#
# Bulk Modulus (GPa) = 30.73147 39.58044 35.15596
# Shear Modulus (GPa) = 31.78422 37.73795 34.76109
#
# Velocity S-wave (km/s) = 3.66812 3.99693 3.83605
# Velocity P-wave (km/s) = 5.56323 6.16896 5.87391
#
# Compressibility (1/GPa) = 0.03253993
#
# Stress axis : x y z
#
# Youngs Moduli (GPa) = 37.92362 62.16401 155.27048
#
# Poissons Ratio (x) = 0.37781 0.09670
# Poissons Ratio (y) = 0.23049 0.22941
# Poissons Ratio (z) = 0.02362 0.09185
#
# Static dielectric constant tensor:
#      x y z
#    x 4.097210 0.000000 0.000000 
#    y 0.000000 4.127650 0.000000 
#    z 0.000000 0.000000 4.821430 
# 
# 
# High freq. dielectric constant tensor:
#      x y z
#    x 1.916440 0.000000 0.000000 
#    y 0.000000 1.932510 0.000000 
#    z 0.000000 0.000000 1.970290 
# 
# From -- ./inp_files/32527.got.cif
#   From: 2010.03.12/outbox.cif.g09.slc.cpg/sg72_17_cif.got.tgz:32527.got - 2010.04.16 14:54:00.
