data_PCOD8295228
_publ_section_title
;
Structure prediction by ZEFSAII (Michael W. Deem and Ramdas Pophale) SiO2 
 PCOD8295228
Probable space group: I B A M
;
_chemical_formula_sum "Si O2"
_cell_formula_units_Z 80
_cell_length_a 13.307362
_cell_length_b 19.671542
_cell_length_c 18.010318
_cell_angle_alpha 90.000000
_cell_angle_beta 90.000000
_cell_angle_gamma 90.000000
_cell_volume 4714.674957
_symmetry_space_group_name_H-M "I B A M"
_symmetry_group_IT_number 72
_symmetry_cell_setting 'orthorhombic'
loop_
_space_group_symop_operation_xyz
x,y,z
-x,-y,z
x,-y,1/2-z
-x,y,1/2-z
-x,-y,-z
x,y,-z
-x,y,1/2+z
x,-y,1/2+z
1/2+x,1/2+y,1/2+z
1/2-x,1/2-y,1/2+z
1/2+x,1/2-y,-z
1/2-x,1/2+y,-z
1/2-x,1/2-y,1/2-z
1/2+x,1/2+y,1/2-z
1/2-x,1/2+y,z
1/2+x,1/2-y,z
loop_
_atom_site_type_symbol
_atom_site_label
_atom_site_fract_x
_atom_site_fract_y
_atom_site_fract_z
Si Si1 0.325393 0.641357 0.583348
Si Si2 0.101203 0.707794 0.915946
Si Si3 0.227455 0.192238 0.190146
Si Si4 0.613221 0.576414 0.228300
Si Si5 0.623574 0.213142 0.914963
O O1 0.337939 0.612289 0.500000
O O2 0.387146 0.711099 0.592642
O O3 0.369972 0.586040 0.640033
O O4 0.207360 0.655478 0.601005
O O5 0.173264 0.671517 0.856539
O O6 0.987452 0.685084 0.897149
O O7 0.130006 0.686029 0.000000
O O8 0.250000 0.250000 0.250000
O O9 0.189504 0.124616 0.228627
O O10 0.143042 0.220302 0.134308
O O11 0.639917 0.500000 0.250000
O O12 0.500000 0.595255 0.250000
O O13 0.630909 0.237321 0.000000
#
# Coordination Sequence:
#
# PCOD8295228 Si02
#       5
#    16  16  16  16  16
#     4   9  17  34  53  74 104 142 176 209 263 318
#     4   9  17  30  51  81 107 130 171 222 266 313
#     4  11  19  30  52  79 104 136 177 219 264 303
#     4  11  23  38  52  77 112 142 174 219 262 311
#     4   9  17  30  52  80 106 133 171 222 271 311
#
# _framework density 16.968295999999999
#
# number of rings (size 3 to 8) (size 9 to 14) (size 15 to 20)
#    0.000    2.200    4.000    3.000    0.000    0.000 
#    0.000    5.000    0.000    2.400    0.000    4.200 
#    0.000    0.000    0.000    0.000    0.000    0.000 
#
# Total GULP energy -495903.235208 kJ/mol
# GULP energy per Si atom -12397.580880 kJ/mol
# Density = 1.692967 g / cm^3
# Si number density = 16.968296 Si / 1000 Ang^3
#
#
#
# Elastic Constant Matrix: (Units=GPa)
#
#
# Indices 1 2 3 4 5 6 
#
# 1 124.3187 38.0601 63.7459 0.0000 0.0000 0.0000
# 2 38.0601 73.4044 49.0229 0.0000 0.0000 0.0000
# 3 63.7459 49.0229 125.7200 -0.0001 0.0000 0.0000
# 4 0.0000 0.0000 -0.0001 21.6569 0.0000 0.0000
# 5 0.0000 0.0000 0.0000 0.0000 28.3755 0.0000
# 6 0.0000 0.0000 0.0000 0.0000 0.0000 19.3034
#
#
#
# Elastic Compliance Matrix: (Units=1/GPa)
#
#
# Indices 1 2 3 4 5 6 
#
# 1 0.011263 -0.002739 -0.004643 0.000000 0.000000 0.000000
# 2 -0.002739 0.019086 -0.006054 0.000000 0.000000 0.000000
# 3 -0.004643 -0.006054 0.012669 0.000000 0.000000 0.000000
# 4 0.000000 0.000000 0.000000 0.046175 0.000000 0.000000
# 5 0.000000 0.000000 0.000000 0.000000 0.035242 0.000000
# 6 0.000000 0.000000 0.000000 0.000000 0.000000 0.051804
#
#
# Mechanical properties :
#
#
# Convention : Reuss Voigt Hill
#
# Bulk Modulus (GPa) = 61.93077 69.45566 65.69322
# Shear Modulus (GPa) = 23.98169 25.37476 24.67823
#
# Velocity S-wave (km/s) = 3.76350 3.87126 3.81776
# Velocity P-wave (km/s) = 7.44731 7.81049 7.63106
#
# Compressibility (1/GPa) = 0.01614706
#
# Stress axis : x y z
#
# Youngs Moduli (GPa) = 88.78541 52.39365 78.93408
#
# Poissons Ratio (x) = 0.14352 0.36647
# Poissons Ratio (y) = 0.24320 0.47783
# Poissons Ratio (z) = 0.41221 0.31717
#
# Static dielectric constant tensor:
#      x y z
#    x 3.470150 0.000000 0.000000 
#    y 0.000000 2.795330 0.000000 
#    z 0.000000 0.000000 3.519210 
# 
# 
# High freq. dielectric constant tensor:
#      x y z
#    x 1.665370 0.000000 0.000000 
#    y 0.000000 1.591250 0.000000 
#    z 0.000000 0.000000 1.677510 
# 
# From -- ./inp_files/30421.got.cif
#   From: 2010.03.12/outbox.cif.g09.slc.cpg/sg72_16_cif.got.tgz:30421.got - 2010.04.16 14:54:00.
