data_PCOD8295034
_publ_section_title
;
Structure prediction by ZEFSAII (Michael W. Deem and Ramdas Pophale) SiO2 
 PCOD8295034
Probable space group: I B A M
;
_chemical_formula_sum "Si O2"
_cell_formula_units_Z 72
_cell_length_a 9.944378
_cell_length_b 16.577985
_cell_length_c 20.235629
_cell_angle_alpha 90.000000
_cell_angle_beta 90.000000
_cell_angle_gamma 90.000000
_cell_volume 3336.000253
_symmetry_space_group_name_H-M "I B A M"
_symmetry_group_IT_number 72
_symmetry_cell_setting 'orthorhombic'
loop_
_space_group_symop_operation_xyz
x,y,z
-x,-y,z
x,-y,1/2-z
-x,y,1/2-z
-x,-y,-z
x,y,-z
-x,y,1/2+z
x,-y,1/2+z
1/2+x,1/2+y,1/2+z
1/2-x,1/2-y,1/2+z
1/2+x,1/2-y,-z
1/2-x,1/2+y,-z
1/2-x,1/2-y,1/2-z
1/2+x,1/2+y,1/2-z
1/2-x,1/2+y,z
1/2+x,1/2-y,z
loop_
_atom_site_type_symbol
_atom_site_label
_atom_site_fract_x
_atom_site_fract_y
_atom_site_fract_z
Si Si1 0.368837 0.277156 0.155962
Si Si2 0.253508 0.065229 0.304394
Si Si3 0.651395 0.520130 0.425557
Si Si4 0.500000 0.849133 0.750000
Si Si5 0.367331 0.293958 0.424889
O O1 0.349826 0.359237 0.198092
O O2 0.403083 0.205255 0.205413
O O3 0.480753 0.287312 0.100216
O O4 0.227212 0.260588 0.120497
O O5 0.406241 0.093359 0.293574
O O6 0.206393 0.000000 0.250000
O O7 0.252837 0.025427 0.376942
O O8 0.500000 0.500000 0.403211
O O9 0.675790 0.488231 0.500000
O O10 0.682446 0.614486 0.420830
O O11 0.363465 0.262341 0.500000
#
# Coordination Sequence:
#
# PCOD8295034 Si02
#       5
#    16  16  16   8  16
#     4  12  25  45  70 103 138 185 238 290 351 418
#     4  12  26  43  71 103 142 183 233 287 356 412
#     4  10  22  42  68 102 138 177 231 292 349 415
#     4  12  27  48  65 100 144 188 234 294 345 426
#     4  11  24  45  72 103 139 182 235 291 353 423
#
# _framework density 21.582730999999999
#
# number of rings (size 3 to 8) (size 9 to 14) (size 15 to 20)
#    0.000    0.667    4.444    3.000    3.111    1.333 
#    0.000    0.000    0.000    5.333    0.000    0.000 
#    0.000    0.000    0.000    0.000    0.000    0.000 
#
# Total GULP energy -446649.501057 kJ/mol
# GULP energy per Si atom -12406.930585 kJ/mol
# Density = 2.153361 g / cm^3
# Si number density = 21.582731 Si / 1000 Ang^3
#
#
#
# Elastic Constant Matrix: (Units=GPa)
#
#
# Indices 1 2 3 4 5 6 
#
# 1 101.7794 43.4105 54.3120 0.0000 0.0000 0.0000
# 2 43.4105 110.1669 61.6109 0.0000 0.0000 0.0000
# 3 54.3120 61.6109 128.8405 0.0000 0.0000 0.0000
# 4 0.0000 0.0000 0.0000 32.8544 0.0000 0.0000
# 5 0.0000 0.0000 0.0000 0.0000 44.5446 0.0000
# 6 0.0000 0.0000 0.0000 0.0000 0.0000 31.9036
#
#
#
# Elastic Compliance Matrix: (Units=1/GPa)
#
#
# Indices 1 2 3 4 5 6 
#
# 1 0.013313 -0.002877 -0.004236 0.000000 0.000000 0.000000
# 2 -0.002877 0.013012 -0.005010 0.000000 0.000000 0.000000
# 3 -0.004236 -0.005010 0.011943 0.000000 0.000000 0.000000
# 4 0.000000 0.000000 0.000000 0.030437 0.000000 0.000000
# 5 0.000000 0.000000 0.000000 0.000000 0.022449 0.000000
# 6 0.000000 0.000000 0.000000 0.000000 0.000000 0.031344
#
#
# Mechanical properties :
#
#
# Convention : Reuss Voigt Hill
#
# Bulk Modulus (GPa) = 71.31363 73.27262 72.29312
# Shear Modulus (GPa) = 33.02094 33.95740 33.48917
#
# Velocity S-wave (km/s) = 3.91573 3.97086 3.94339
# Velocity P-wave (km/s) = 7.31831 7.41937 7.36901
#
# Compressibility (1/GPa) = 0.01402257
#
# Stress axis : x y z
#
# Youngs Moduli (GPa) = 75.11627 76.84966 83.73097
#
# Poissons Ratio (x) = 0.22107 0.35471
# Poissons Ratio (y) = 0.21608 0.41948
# Poissons Ratio (z) = 0.31822 0.38501
#
# Static dielectric constant tensor:
#      x y z
#    x 3.669670 0.000000 0.000000 
#    y 0.000000 4.094800 0.000000 
#    z 0.000000 0.000000 4.000470 
# 
# 
# High freq. dielectric constant tensor:
#      x y z
#    x 1.837000 0.000000 0.000000 
#    y 0.000000 1.860820 0.000000 
#    z 0.000000 0.000000 1.856010 
# 
# From -- ./inp_files/42082.got.cif
#   From: 2010.03.12/outbox.cif.g09.slc.cpg/sg72_22_cif.got.tgz:42082.got - 2010.04.16 14:54:00.
