data_PCOD8295169
_publ_section_title
;
Structure prediction by ZEFSAII (Michael W. Deem and Ramdas Pophale) SiO2 
 PCOD8295169
Probable space group: I B A M
;
_chemical_formula_sum "Si O2"
_cell_formula_units_Z 112
_cell_length_a 13.841599
_cell_length_b 15.151402
_cell_length_c 24.103483
_cell_angle_alpha 90.000000
_cell_angle_beta 90.000000
_cell_angle_gamma 90.000000
_cell_volume 5054.973555
_symmetry_space_group_name_H-M "I B A M"
_symmetry_group_IT_number 72
_symmetry_cell_setting 'orthorhombic'
loop_
_space_group_symop_operation_xyz
x,y,z
-x,-y,z
x,-y,1/2-z
-x,y,1/2-z
-x,-y,-z
x,y,-z
-x,y,1/2+z
x,-y,1/2+z
1/2+x,1/2+y,1/2+z
1/2-x,1/2-y,1/2+z
1/2+x,1/2-y,-z
1/2-x,1/2+y,-z
1/2-x,1/2-y,1/2-z
1/2+x,1/2+y,1/2-z
1/2-x,1/2+y,z
1/2+x,1/2-y,z
loop_
_atom_site_type_symbol
_atom_site_label
_atom_site_fract_x
_atom_site_fract_y
_atom_site_fract_z
Si Si1 0.177021 0.262882 0.938019
Si Si2 0.124928 0.803170 0.319072
Si Si3 0.900053 0.763416 0.562236
Si Si4 0.575943 0.107601 0.796135
Si Si5 0.292677 0.411166 0.772579
Si Si6 0.539562 0.594953 0.144770
Si Si7 0.482477 0.096492 0.415452
O O1 0.156428 0.200786 0.884308
O O2 0.288578 0.287759 0.930680
O O3 0.112585 0.352102 0.937879
O O4 0.163665 0.218411 0.000000
O O5 0.084176 0.712111 0.297649
O O6 0.206820 0.835296 0.275412
O O7 0.039528 0.873567 0.310812
O O8 0.936027 0.774280 0.500000
O O9 0.964198 0.834635 0.594749
O O10 0.925090 0.662151 0.579673
O O11 0.500000 0.076733 0.750000
O O12 0.682529 0.068635 0.788197
O O13 0.532877 0.070423 0.852273
O O14 0.340337 0.500000 0.750000
O O15 0.354353 0.393089 0.828209
O O16 0.500000 0.500000 0.123723
O O17 0.500000 0.000000 0.445327
#
# Coordination Sequence:
#
# PCOD8295169 Si02
#       7
#    16  16  16  16  16  16  16
#     4  10  23  46  71 100 135 178 233 287 347 412
#     4  11  23  41  69  97 129 183 225 279 336 416
#     4  11  25  47  73 100 139 181 229 296 352 415
#     4  11  25  42  64  95 135 184 225 279 333 416
#     4  12  26  40  66 100 141 179 229 281 346 412
#     4  12  23  43  70 101 136 179 235 281 346 420
#     4  11  25  44  72 103 142 183 231 286 355 424
#
# _framework density 22.156396000000001
#
# number of rings (size 3 to 8) (size 9 to 14) (size 15 to 20)
#    0.000    0.857    4.286    3.857    4.000    1.429 
#    2.571    0.000    0.000    0.000    0.000    0.000 
#    0.000    0.000    0.000    0.000    0.000    0.000 
#
# Total GULP energy -693742.612298 kJ/mol
# GULP energy per Si atom -12388.260934 kJ/mol
# Density = 2.210597 g / cm^3
# Si number density = 22.156396 Si / 1000 Ang^3
#
#
#
# Elastic Constant Matrix: (Units=GPa)
#
#
# Indices 1 2 3 4 5 6 
#
# 1 114.6503 26.2141 34.9257 0.0000 0.0000 0.0000
# 2 26.2141 134.9082 23.3037 0.0000 0.0000 0.0000
# 3 34.9257 23.3037 140.2443 0.0000 0.0000 0.0000
# 4 0.0000 0.0000 0.0000 -1.1241 0.0000 0.0000
# 5 0.0000 0.0000 0.0000 0.0000 61.5207 0.0000
# 6 0.0000 0.0000 0.0000 0.0000 0.0000 1.8120
#
#
#
# Elastic Compliance Matrix: (Units=1/GPa)
#
#
# Indices 1 2 3 4 5 6 
#
# 1 0.009730 -0.001516 -0.002171 0.000000 0.000000 0.000000
# 2 -0.001516 0.007868 -0.000930 0.000000 0.000000 0.000000
# 3 -0.002171 -0.000930 0.007826 0.000000 0.000000 0.000000
# 4 0.000000 0.000000 0.000000 -0.889599 0.000000 0.000000
# 5 0.000000 0.000000 0.000000 0.000000 0.016255 0.000000
# 6 0.000000 0.000000 0.000000 0.000000 0.000000 0.551870
#
#
# Mechanical properties :
#
#
# Convention : Reuss Voigt Hill
#
# Bulk Modulus (GPa) = 61.76727 62.07664 61.92196
# Shear Modulus (GPa) = -17.76699 32.79901 7.51601
#
# Velocity S-wave (km/s) = -2.83484 3.85169 1.84381
# Velocity P-wave (km/s) = 4.15010 6.91802 5.70449
#
# Compressibility (1/GPa) = 0.01618980
#
# Stress axis : x y z
#
# Youngs Moduli (GPa) = 102.77335 127.10403 127.78471
#
# Poissons Ratio (x) = 0.19264 0.27746
# Poissons Ratio (y) = 0.15576 0.11882
# Poissons Ratio (z) = 0.22315 0.11819
#
# Static dielectric constant tensor:
#      x y z
#    x 4.008380 0.000000 0.000000 
#    y 0.000000 3.894690 0.000000 
#    z 0.000000 0.000000 4.378940 
# 
# 
# High freq. dielectric constant tensor:
#      x y z
#    x 1.881600 0.000000 0.000000 
#    y 0.000000 1.867340 0.000000 
#    z 0.000000 0.000000 1.880140 
# 
# From -- ./inp_files/44332.got.cif
#   From: 2010.03.12/outbox.cif.g09.slc.cpg/sg72_23_cif.got.tgz:44332.got - 2010.04.16 14:54:00.
