data_PCOD8295248
_publ_section_title
;
Structure prediction by ZEFSAII (Michael W. Deem and Ramdas Pophale) SiO2 
 PCOD8295248
Probable space group: I B A M
;
_chemical_formula_sum "Si O2"
_cell_formula_units_Z 80
_cell_length_a 11.730159
_cell_length_b 23.726713
_cell_length_c 14.265885
_cell_angle_alpha 90.000000
_cell_angle_beta 90.000000
_cell_angle_gamma 90.000000
_cell_volume 3970.454237
_symmetry_space_group_name_H-M "I B A M"
_symmetry_group_IT_number 72
_symmetry_cell_setting 'orthorhombic'
loop_
_space_group_symop_operation_xyz
x,y,z
-x,-y,z
x,-y,1/2-z
-x,y,1/2-z
-x,-y,-z
x,y,-z
-x,y,1/2+z
x,-y,1/2+z
1/2+x,1/2+y,1/2+z
1/2-x,1/2-y,1/2+z
1/2+x,1/2-y,-z
1/2-x,1/2+y,-z
1/2-x,1/2-y,1/2-z
1/2+x,1/2+y,1/2-z
1/2-x,1/2+y,z
1/2+x,1/2-y,z
loop_
_atom_site_type_symbol
_atom_site_label
_atom_site_fract_x
_atom_site_fract_y
_atom_site_fract_z
Si Si1 0.016650 0.830802 0.146159
Si Si2 0.157604 0.587505 0.000000
Si Si3 0.822801 0.490845 0.647213
Si Si4 0.790985 0.808633 0.500000
Si Si5 0.414811 0.550809 0.605365
Si Si6 0.902831 0.595601 0.000000
Si Si7 0.328736 0.309492 0.500000
O O1 0.134279 0.813685 0.094761
O O2 0.018545 0.898466 0.154436
O O3 0.000000 0.804926 0.250000
O O4 0.907076 0.809472 0.091266
O O5 0.177236 0.549524 0.908252
O O6 0.250090 0.636037 0.000000
O O7 0.033238 0.617264 0.000000
O O8 0.877055 0.500000 0.750000
O O9 0.695306 0.467597 0.662962
O O10 0.893360 0.443456 0.592061
O O11 0.685690 0.852708 0.500000
O O12 0.745039 0.746021 0.500000
O O13 0.500000 0.500000 0.598027
O O14 0.375190 0.569596 0.500000
#
# Coordination Sequence:
#
# PCOD8295248 Si02
#       7
#    16   8  16   8  16   8   8
#     4  11  24  43  68  98 130 160 209 271 323 379
#     4  11  25  40  63  93 127 170 226 255 309 384
#     4  11  22  38  61  92 132 167 204 262 319 381
#     4  11  24  47  69  92 126 175 218 264 329 368
#     4  11  20  34  60  94 132 165 202 249 322 384
#     4  11  23  43  62  90 129 175 216 261 307 393
#     4  11  26  44  70  93 126 171 219 272 319 378
#
# _framework density 20.148827000000001
#
# number of rings (size 3 to 8) (size 9 to 14) (size 15 to 20)
#    0.000    1.000    6.000    2.400    8.400    2.400 
#    0.000    0.000    0.000    0.000    0.000    0.000 
#    0.000    0.000    0.000    0.000    0.000    0.000 
#
# Total GULP energy -496008.671848 kJ/mol
# GULP energy per Si atom -12400.216796 kJ/mol
# Density = 2.010297 g / cm^3
# Si number density = 20.148827 Si / 1000 Ang^3
#
#
#
# Elastic Constant Matrix: (Units=GPa)
#
#
# Indices 1 2 3 4 5 6 
#
# 1 57.9023 15.0309 32.4836 0.0002 -0.0007 -0.0001
# 2 15.0309 94.3538 34.3579 0.0001 -0.0024 -0.0001
# 3 32.4836 34.3579 160.7488 -0.0017 -0.0051 0.0000
# 4 0.0002 0.0001 -0.0017 9.6979 -0.0036 0.0000
# 5 -0.0007 -0.0024 -0.0051 -0.0036 -69.4981 0.0003
# 6 -0.0001 -0.0001 0.0000 0.0000 0.0003 29.9841
#
#
#
# Elastic Compliance Matrix: (Units=1/GPa)
#
#
# Indices 1 2 3 4 5 6 
#
# 1 0.019768 -0.001838 -0.003602 -0.000001 0.000000 0.000000
# 2 -0.001838 0.011664 -0.002122 0.000000 0.000000 0.000000
# 3 -0.003602 -0.002122 0.007402 0.000001 0.000000 0.000000
# 4 -0.000001 0.000000 0.000001 0.103115 -0.000005 0.000000
# 5 0.000000 0.000000 0.000000 -0.000005 -0.014389 0.000000
# 6 0.000000 0.000000 0.000000 0.000000 0.000000 0.033351
#
#
# Mechanical properties :
#
#
# Convention : Reuss Voigt Hill
#
# Bulk Modulus (GPa) = 42.17295 52.97221 47.57258
# Shear Modulus (GPa) = 27.18310 9.44560 18.31435
#
# Velocity S-wave (km/s) = 3.67702 2.16751 3.01816
# Velocity P-wave (km/s) = 6.24527 5.71066 5.98394
#
# Compressibility (1/GPa) = 0.02371188
#
# Stress axis : x y z
#
# Youngs Moduli (GPa) = 50.58631 85.73605 135.09453
#
# Poissons Ratio (x) = 0.15754 0.48660
# Poissons Ratio (y) = 0.09295 0.28662
# Poissons Ratio (z) = 0.18221 0.18190
#
# Static dielectric constant tensor:
#      x y z
#    x 3.907670 0.000000 0.000000 
#    y 0.000000 3.544540 0.000000 
#    z 0.000000 0.000000 3.657420 
# 
# 
# High freq. dielectric constant tensor:
#      x y z
#    x 1.799910 0.000000 0.000000 
#    y 0.000000 1.771460 0.000000 
#    z 0.000000 0.000000 1.785250 
# 
# From -- ./inp_files/20274.got.cif
#   From: 2010.03.12/outbox.cif.g09.slc.cpg/sg72_11_cif.got.tgz:20274.got - 2010.04.16 14:54:00.
