data_PCOD8295257
_publ_section_title
;
Structure prediction by ZEFSAII (Michael W. Deem and Ramdas Pophale) SiO2 
 PCOD8295257
Probable space group: I B A M
;
_chemical_formula_sum "Si O2"
_cell_formula_units_Z 80
_cell_length_a 17.520065
_cell_length_b 12.778590
_cell_length_c 17.464096
_cell_angle_alpha 90.000000
_cell_angle_beta 90.000000
_cell_angle_gamma 90.000000
_cell_volume 3909.891980
_symmetry_space_group_name_H-M "I B A M"
_symmetry_group_IT_number 72
_symmetry_cell_setting 'orthorhombic'
loop_
_space_group_symop_operation_xyz
x,y,z
-x,-y,z
x,-y,1/2-z
-x,y,1/2-z
-x,-y,-z
x,y,-z
-x,y,1/2+z
x,-y,1/2+z
1/2+x,1/2+y,1/2+z
1/2-x,1/2-y,1/2+z
1/2+x,1/2-y,-z
1/2-x,1/2+y,-z
1/2-x,1/2-y,1/2-z
1/2+x,1/2+y,1/2-z
1/2-x,1/2+y,z
1/2+x,1/2-y,z
loop_
_atom_site_type_symbol
_atom_site_label
_atom_site_fract_x
_atom_site_fract_y
_atom_site_fract_z
Si Si1 0.161370 0.807784 0.180768
Si Si2 0.473686 0.385903 0.909848
Si Si3 0.691466 0.937837 0.323894
Si Si4 0.759593 0.632494 0.410846
Si Si5 0.611975 0.733979 0.346714
O O1 0.237745 0.868131 0.206110
O O2 0.181979 0.700682 0.138519
O O3 0.112967 0.786090 0.256322
O O4 0.111004 0.875562 0.123092
O O5 0.500000 0.500000 0.883159
O O6 0.528548 0.294741 0.877593
O O7 0.470230 0.375106 0.000000
O O8 0.628630 0.858215 0.359373
O O9 0.659177 0.000000 0.250000
O O10 0.721567 0.012276 0.391369
O O11 0.774256 0.651925 0.500000
O O12 0.672369 0.661406 0.391650
#
# Coordination Sequence:
#
# PCOD8295257 Si02
#       5
#    16  16  16  16  16
#     4  11  22  38  63  88 120 162 204 256 305 376
#     4  11  25  41  59  89 129 163 201 255 320 379
#     4  11  20  39  65  92 119 160 215 257 308 370
#     4  11  22  37  61  92 124 156 202 263 317 363
#     4  11  22  39  64  89 122 164 211 255 308 380
#
# _framework density 20.460923000000001
#
# number of rings (size 3 to 8) (size 9 to 14) (size 15 to 20)
#    0.000    1.000    4.000    4.200    0.000    7.200 
#    0.000    1.000    0.000    2.400    0.000    0.000 
#    0.000    0.000    0.000    0.000    0.000    0.000 
#
# Total GULP energy -496191.710516 kJ/mol
# GULP energy per Si atom -12404.792763 kJ/mol
# Density = 2.041435 g / cm^3
# Si number density = 20.460923 Si / 1000 Ang^3
#
#
#
# Elastic Constant Matrix: (Units=GPa)
#
#
# Indices 1 2 3 4 5 6 
#
# 1 40.7646 12.2091 6.6706 0.0000 0.0000 0.0000
# 2 12.2091 109.5359 23.7061 0.0000 0.0000 0.0000
# 3 6.6706 23.7061 88.0838 0.0000 0.0000 0.0000
# 4 0.0000 0.0000 0.0000 28.5505 0.0000 0.0000
# 5 0.0000 0.0000 0.0000 0.0000 20.9768 0.0000
# 6 0.0000 0.0000 0.0000 0.0000 0.0000 25.6912
#
#
#
# Elastic Compliance Matrix: (Units=1/GPa)
#
#
# Indices 1 2 3 4 5 6 
#
# 1 0.025505 -0.002575 -0.001239 0.000000 0.000000 0.000000
# 2 -0.002575 0.009954 -0.002484 0.000000 0.000000 0.000000
# 3 -0.001239 -0.002484 0.012115 0.000000 0.000000 0.000000
# 4 0.000000 0.000000 0.000000 0.035026 0.000000 0.000000
# 5 0.000000 0.000000 0.000000 0.000000 0.047672 0.000000
# 6 0.000000 0.000000 0.000000 0.000000 0.000000 0.038924
#
#
# Mechanical properties :
#
#
# Convention : Reuss Voigt Hill
#
# Bulk Modulus (GPa) = 28.58816 35.95065 32.26941
# Shear Modulus (GPa) = 25.84655 28.09696 26.97175
#
# Velocity S-wave (km/s) = 3.55803 3.70969 3.63465
# Velocity P-wave (km/s) = 5.55714 5.99647 5.78098
#
# Compressibility (1/GPa) = 0.03497951
#
# Stress axis : x y z
#
# Youngs Moduli (GPa) = 39.20812 100.46209 82.54143
#
# Poissons Ratio (x) = 0.25867 0.10223
# Poissons Ratio (y) = 0.10095 0.20503
# Poissons Ratio (z) = 0.04856 0.24954
#
# Static dielectric constant tensor:
#      x y z
#    x 3.496360 0.000000 0.000000 
#    y 0.000000 3.971250 0.000000 
#    z 0.000000 0.000000 3.646050 
# 
# 
# High freq. dielectric constant tensor:
#      x y z
#    x 1.777430 0.000000 0.000000 
#    y 0.000000 1.808130 0.000000 
#    z 0.000000 0.000000 1.808440 
# 
# From -- ./inp_files/31371.got.cif
#   From: 2010.03.12/outbox.cif.g09.slc.cpg/sg72_16_cif.got.tgz:31371.got - 2010.04.16 14:54:00.
