data_PCOD8295320
_publ_section_title
;
Structure prediction by ZEFSAII (Michael W. Deem and Ramdas Pophale) SiO2 
 PCOD8295320
Probable space group: I B A M
;
_chemical_formula_sum "Si O2"
_cell_formula_units_Z 96
_cell_length_a 19.625181
_cell_length_b 12.323222
_cell_length_c 19.486294
_cell_angle_alpha 90.000000
_cell_angle_beta 90.000000
_cell_angle_gamma 90.000000
_cell_volume 4712.671780
_symmetry_space_group_name_H-M "I B A M"
_symmetry_group_IT_number 72
_symmetry_cell_setting 'orthorhombic'
loop_
_space_group_symop_operation_xyz
x,y,z
-x,-y,z
x,-y,1/2-z
-x,y,1/2-z
-x,-y,-z
x,y,-z
-x,y,1/2+z
x,-y,1/2+z
1/2+x,1/2+y,1/2+z
1/2-x,1/2-y,1/2+z
1/2+x,1/2-y,-z
1/2-x,1/2+y,-z
1/2-x,1/2-y,1/2-z
1/2+x,1/2+y,1/2-z
1/2-x,1/2+y,z
1/2+x,1/2-y,z
loop_
_atom_site_type_symbol
_atom_site_label
_atom_site_fract_x
_atom_site_fract_y
_atom_site_fract_z
Si Si1 0.796089 0.550161 0.175599
Si Si2 0.126283 0.746262 0.379034
Si Si3 0.834798 0.157993 0.126198
Si Si4 0.400061 0.561289 0.500000
Si Si5 0.039632 0.822172 0.500000
Si Si6 0.579945 0.623576 0.751271
Si Si7 0.762958 0.356970 0.924033
O O1 0.813632 0.500000 0.250000
O O2 0.858913 0.621819 0.145182
O O3 0.728868 0.625452 0.175143
O O4 0.778191 0.451725 0.127409
O O5 0.062961 0.754081 0.432457
O O6 0.111967 0.815151 0.311982
O O7 0.190983 0.797915 0.415953
O O8 0.853853 0.068916 0.068485
O O9 0.897398 0.177880 0.177513
O O10 0.821807 0.268459 0.085937
O O11 0.458101 0.656246 0.500000
O O12 0.428424 0.441133 0.500000
O O13 0.606240 0.500000 0.750000
O O14 0.500000 0.630731 0.750000
O O15 0.767362 0.405988 0.000000
#
# Coordination Sequence:
#
# PCOD8295320 Si02
#       7
#    16  16  16   8   8  16  16
#     4  11  24  39  63  91 124 163 205 257 312 367
#     4  11  23  39  62  91 126 160 205 253 310 366
#     4  11  22  37  60  88 125 157 200 250 306 367
#     4  11  22  37  59  89 125 161 205 248 310 365
#     4  11  22  37  59  91 123 163 203 256 302 373
#     4  11  22  38  61  89 120 161 201 247 304 362
#     4  11  22  37  61  91 124 161 199 246 309 367
#
# _framework density 20.370609999999999
#
# number of rings (size 3 to 8) (size 9 to 14) (size 15 to 20)
#    0.000    1.000    1.667    6.500    2.333    5.333 
#    0.000    0.000    0.000   10.500    0.000    0.000 
#    0.000    0.000    0.000    0.000    0.000    0.000 
#
# Total GULP energy -595234.962010 kJ/mol
# GULP energy per Si atom -12400.728375 kJ/mol
# Density = 2.032425 g / cm^3
# Si number density = 20.370610 Si / 1000 Ang^3
#
#
#
# Elastic Constant Matrix: (Units=GPa)
#
#
# Indices 1 2 3 4 5 6 
#
# 1 44.4239 8.3730 13.3219 0.0000 0.0000 0.0000
# 2 8.3730 59.6055 14.1932 0.0000 0.0000 0.0000
# 3 13.3219 14.1932 136.6097 0.0000 0.0000 0.0000
# 4 0.0000 0.0000 0.0000 114.5846 0.0000 0.0000
# 5 0.0000 0.0000 0.0000 0.0000 23.5462 0.0000
# 6 0.0000 0.0000 0.0000 0.0000 0.0000 34.0267
#
#
#
# Elastic Compliance Matrix: (Units=1/GPa)
#
#
# Indices 1 2 3 4 5 6 
#
# 1 0.023649 -0.002843 -0.002011 0.000000 0.000000 0.000000
# 2 -0.002843 0.017544 -0.001546 0.000000 0.000000 0.000000
# 3 -0.002011 -0.001546 0.007677 0.000000 0.000000 0.000000
# 4 0.000000 0.000000 0.000000 0.008727 0.000000 0.000000
# 5 0.000000 0.000000 0.000000 0.000000 0.042470 0.000000
# 6 0.000000 0.000000 0.000000 0.000000 0.000000 0.029389
#
#
# Mechanical properties :
#
#
# Convention : Reuss Voigt Hill
#
# Bulk Modulus (GPa) = 27.72294 34.71283 31.21788
# Shear Modulus (GPa) = 32.40879 48.08156 40.24518
#
# Velocity S-wave (km/s) = 3.99301 4.86360 4.44965
# Velocity P-wave (km/s) = 5.90742 6.97260 6.46200
#
# Compressibility (1/GPa) = 0.03607122
#
# Stress axis : x y z
#
# Youngs Moduli (GPa) = 42.28446 56.99826 130.26278
#
# Poissons Ratio (x) = 0.16206 0.26194
# Poissons Ratio (y) = 0.12023 0.20132
# Poissons Ratio (z) = 0.08503 0.08809
#
# Static dielectric constant tensor:
#      x y z
#    x 3.934460 0.000000 0.000000 
#    y 0.000000 3.876890 0.000000 
#    z 0.000000 0.000000 3.848060 
# 
# 
# High freq. dielectric constant tensor:
#      x y z
#    x 1.783810 0.000000 0.000000 
#    y 0.000000 1.784390 0.000000 
#    z 0.000000 0.000000 1.817060 
# 
# From -- ./inp_files/29517.got.cif
#   From: 2010.03.12/outbox.cif.g09.slc.cpg/sg72_15_cif.got.tgz:29517.got - 2010.04.16 14:54:00.
