data_PCOD8295187
_publ_section_title
;
Structure prediction by ZEFSAII (Michael W. Deem and Ramdas Pophale) SiO2 
 PCOD8295187
Probable space group: I B A M
;
_chemical_formula_sum "Si O2"
_cell_formula_units_Z 52
_cell_length_a 8.970941
_cell_length_b 19.592482
_cell_length_c 14.618336
_cell_angle_alpha 90.000000
_cell_angle_beta 90.000000
_cell_angle_gamma 90.000000
_cell_volume 2569.362591
_symmetry_space_group_name_H-M "I B A M"
_symmetry_group_IT_number 72
_symmetry_cell_setting 'orthorhombic'
loop_
_space_group_symop_operation_xyz
x,y,z
-x,-y,z
x,-y,1/2-z
-x,y,1/2-z
-x,-y,-z
x,y,-z
-x,y,1/2+z
x,-y,1/2+z
1/2+x,1/2+y,1/2+z
1/2-x,1/2-y,1/2+z
1/2+x,1/2-y,-z
1/2-x,1/2+y,-z
1/2-x,1/2-y,1/2-z
1/2+x,1/2+y,1/2-z
1/2-x,1/2+y,z
1/2+x,1/2-y,z
loop_
_atom_site_type_symbol
_atom_site_label
_atom_site_fract_x
_atom_site_fract_y
_atom_site_fract_z
Si Si1 0.987651 0.305357 0.500000
Si Si2 0.357191 0.336194 0.000000
Si Si3 0.500000 0.000000 0.250000
Si Si4 0.345453 0.911995 0.401261
Si Si5 0.984660 0.919719 0.854830
O O1 0.810661 0.310374 0.500000
O O2 0.029626 0.226721 0.500000
O O3 0.056403 0.342555 0.590794
O O4 0.384876 0.382008 0.910228
O O5 0.606390 0.044044 0.314371
O O6 0.363202 0.951533 0.500000
O O7 0.173562 0.892248 0.389760
O O8 0.000000 0.899676 0.750000
O O9 0.000000 0.000000 0.871794
#
# Coordination Sequence:
#
# PCOD8295187 Si02
#       5
#     8   8   4  16  16
#     4  10  26  44  68  91 133 174 221 267 338 382
#     4  12  23  47  66  93 130 179 217 275 326 397
#     4  12  22  36  74  98 140 168 226 260 332 386
#     4  10  24  42  63  98 139 168 217 273 324 383
#     4  11  24  40  68 100 134 171 220 269 332 389
#
# _framework density 20.238482000000001
#
# number of rings (size 3 to 8) (size 9 to 14) (size 15 to 20)
#    0.923    0.308    1.538    4.615    8.615    0.000 
#    2.769    3.077    0.000    0.000    0.000    0.000 
#    0.000    0.000    0.000    0.000    0.000    0.000 
#
# Total GULP energy -322318.075640 kJ/mol
# GULP energy per Si atom -12396.849063 kJ/mol
# Density = 2.019242 g / cm^3
# Si number density = 20.238482 Si / 1000 Ang^3
#
#
#
# Elastic Constant Matrix: (Units=GPa)
#
#
# Indices 1 2 3 4 5 6 
#
# 1 140.3986 37.3574 40.0086 0.0000 0.0000 0.0000
# 2 37.3574 95.7669 59.3632 0.0000 0.0000 0.0000
# 3 40.0086 59.3632 154.7458 0.0000 -0.0001 0.0000
# 4 0.0000 0.0000 0.0000 6.9803 0.0000 0.0000
# 5 0.0000 0.0000 -0.0001 0.0000 -5.9745 0.0000
# 6 0.0000 0.0000 0.0000 0.0000 0.0000 30.6011
#
#
#
# Elastic Compliance Matrix: (Units=1/GPa)
#
#
# Indices 1 2 3 4 5 6 
#
# 1 0.008103 -0.002443 -0.001158 0.000000 0.000000 0.000000
# 2 -0.002443 0.014436 -0.004906 0.000000 0.000000 0.000000
# 3 -0.001158 -0.004906 0.008644 0.000000 0.000000 0.000000
# 4 0.000000 0.000000 0.000000 0.143260 -0.000001 0.000000
# 5 0.000000 0.000000 0.000000 -0.000001 -0.167377 0.000000
# 6 0.000000 0.000000 0.000000 0.000000 0.000000 0.032679
#
#
# Mechanical properties :
#
#
# Convention : Reuss Voigt Hill
#
# Bulk Modulus (GPa) = 70.58004 73.81888 72.19946
# Shear Modulus (GPa) = 81.32569 23.26684 52.29626
#
# Velocity S-wave (km/s) = 6.34594 3.39430 5.08882
# Velocity P-wave (km/s) = 9.41512 7.20524 8.38331
#
# Compressibility (1/GPa) = 0.01416831
#
# Stress axis : x y z
#
# Youngs Moduli (GPa) = 123.41828 69.26941 115.69120
#
# Poissons Ratio (x) = 0.16923 0.13393
# Poissons Ratio (y) = 0.30152 0.56763
# Poissons Ratio (z) = 0.14287 0.33986
#
# Static dielectric constant tensor:
#      x y z
#    x 3.708410 0.000000 0.000000 
#    y 0.000000 3.437090 0.000000 
#    z 0.000000 0.000000 3.968600 
# 
# 
# High freq. dielectric constant tensor:
#      x y z
#    x 1.807760 0.000000 0.000000 
#    y 0.000000 1.771400 0.000000 
#    z 0.000000 0.000000 1.795360 
# 
# From -- ./inp_files/18339.got.cif
#   From: 2010.03.12/outbox.cif.g09.slc.cpg/sg72_10_cif.got.tgz:18339.got - 2010.04.16 14:54:00.
