data_PCOD8295825
_publ_section_title
;
Structure prediction by ZEFSAII (Michael W. Deem and Ramdas Pophale) SiO2 
 PCOD8295825
Probable space group: I B C A 
;
_chemical_formula_sum "Si O2"
_cell_formula_units_Z 72
_cell_length_a 31.989773
_cell_length_b 5.018886
_cell_length_c 24.790671
_cell_angle_alpha 90.000000
_cell_angle_beta 90.000000
_cell_angle_gamma 90.000000
_cell_volume 3980.217192
_symmetry_space_group_name_H-M "I B C A "
_symmetry_group_IT_number 73
_symmetry_cell_setting 'orthorhombic'
loop_
_space_group_symop_operation_xyz
x,y,z
-x,1/2-y,z
x,-y,1/2-z
1/2-x,y,-z
-x,-y,-z
x,1/2+y,-z
-x,y,1/2+z
1/2+x,-y,z
1/2+x,1/2+y,1/2+z
1/2-x,-y,1/2+z
1/2+x,1/2-y,-z
-x,1/2+y,1/2-z
1/2-x,1/2-y,1/2-z
1/2+x,y,1/2-z
1/2-x,1/2+y,z
x,1/2-y,1/2+z
loop_
_atom_site_type_symbol
_atom_site_label
_atom_site_fract_x
_atom_site_fract_y
_atom_site_fract_z
Si Si1 0.330830 0.986618 0.035918
Si Si2 0.131593 0.605693 0.356284
Si Si3 0.276622 0.074064 0.368122
Si Si4 0.000000 0.750000 0.214508
Si Si5 0.911726 0.899477 0.689484
O O1 0.287056 0.934028 0.067520
O O2 0.368642 0.959533 0.079495
O O3 0.334115 0.284824 0.013613
O O4 0.179996 0.631840 0.336230
O O5 0.111420 0.376941 0.320224
O O6 0.106176 0.879120 0.350648
O O7 0.257768 0.789945 0.351972
O O8 0.016315 0.500000 0.250000
O O9 0.038851 0.851833 0.178438
O O10 0.904278 0.000000 0.750000
#
# Coordination Sequence:
#
# PCOD8295825 Si02
#       5
#    16  16  16   8  16
#     4  10  20  33  51  79 107 140 181 225 270 314
#     4  10  22  34  53  80 109 146 179 208 280 313
#     4  10  20  33  51  75 110 139 182 230 266 307
#     4  10  20  34  58  90 110 126 162 224 282 324
#     4  11  20  37  58  82 110 136 169 217 271 332
#
# _framework density 18.089462999999999
#
# number of rings (size 3 to 8) (size 9 to 14) (size 15 to 20)
#    1.333    0.444    0.000    7.333    0.000    2.667 
#    0.000    0.000    0.000   13.333    0.000   15.556 
#    0.000    0.000    0.000    0.000    0.000    0.000 
#
# Total GULP energy -446146.228888 kJ/mol
# GULP energy per Si atom -12392.950802 kJ/mol
# Density = 1.804829 g / cm^3
# Si number density = 18.089463 Si / 1000 Ang^3
#
#
#
# Elastic Constant Matrix: (Units=GPa)
#
#
# Indices 1 2 3 4 5 6 
#
# 1 123.0927 31.6170 32.1584 0.0000 0.0000 0.0000
# 2 31.6170 78.6137 14.0832 0.0000 0.0000 0.0000
# 3 32.1584 14.0832 14.7661 0.0000 0.0000 0.0000
# 4 0.0000 0.0000 0.0000 34.2502 0.0000 0.0000
# 5 0.0000 0.0000 0.0000 0.0000 2.4829 0.0000
# 6 0.0000 0.0000 0.0000 0.0000 0.0000 37.9213
#
#
#
# Elastic Compliance Matrix: (Units=1/GPa)
#
#
# Indices 1 2 3 4 5 6 
#
# 1 0.018853 -0.000274 -0.040797 0.000000 0.000000 0.000000
# 2 -0.000274 0.015346 -0.014040 0.000000 0.000000 0.000000
# 3 -0.040797 -0.014040 0.169964 0.000000 0.000000 0.000000
# 4 0.000000 0.000000 0.000000 0.029197 0.000000 0.000000
# 5 0.000000 0.000000 0.000000 0.000000 0.402758 0.000000
# 6 0.000000 0.000000 0.000000 0.000000 0.000000 0.026370
#
#
# Mechanical properties :
#
#
# Convention : Reuss Voigt Hill
#
# Bulk Modulus (GPa) = 10.64509 41.35443 25.99976
# Shear Modulus (GPa) = 6.21873 24.17179 15.19526
#
# Velocity S-wave (km/s) = 1.85613 3.65942 2.90143
# Velocity P-wave (km/s) = 3.23900 6.38481 5.06246
#
# Compressibility (1/GPa) = 0.09394001
#
# Stress axis : x y z
#
# Youngs Moduli (GPa) = 53.04280 65.16491 5.88360
#
# Poissons Ratio (x) = 0.01783 0.24004
# Poissons Ratio (y) = 0.01451 0.08261
# Poissons Ratio (z) = 2.16401 0.91492
#
# Static dielectric constant tensor:
#      x y z
#    x 3.313310 0.000000 0.000000 
#    y 0.000000 3.529640 0.000000 
#    z 0.000000 0.000000 3.017030 
# 
# 
# High freq. dielectric constant tensor:
#      x y z
#    x 1.691370 0.000000 0.000000 
#    y 0.000000 1.723750 0.000000 
#    z 0.000000 0.000000 1.662980 
# 
# From -- ./inp_files/30592.got.cif
#   From: 2010.03.12/outbox.cif.g09.slc.cpg/sg73_16_cif.got.tgz:30592.got - 2010.04.16 15:25:48.
