data_PCOD8295406
_publ_section_title
;
Structure prediction by ZEFSAII (Michael W. Deem and Ramdas Pophale) SiO2 
 PCOD8295406
Probable space group: I B A M
;
_chemical_formula_sum "Si O2"
_cell_formula_units_Z 112
_cell_length_a 15.462200
_cell_length_b 14.096951
_cell_length_c 26.352239
_cell_angle_alpha 90.000000
_cell_angle_beta 90.000000
_cell_angle_gamma 90.000000
_cell_volume 5743.994261
_symmetry_space_group_name_H-M "I B A M"
_symmetry_group_IT_number 72
_symmetry_cell_setting 'orthorhombic'
loop_
_space_group_symop_operation_xyz
x,y,z
-x,-y,z
x,-y,1/2-z
-x,y,1/2-z
-x,-y,-z
x,y,-z
-x,y,1/2+z
x,-y,1/2+z
1/2+x,1/2+y,1/2+z
1/2-x,1/2-y,1/2+z
1/2+x,1/2-y,-z
1/2-x,1/2+y,-z
1/2-x,1/2-y,1/2-z
1/2+x,1/2+y,1/2-z
1/2-x,1/2+y,z
1/2+x,1/2-y,z
loop_
_atom_site_type_symbol
_atom_site_label
_atom_site_fract_x
_atom_site_fract_y
_atom_site_fract_z
Si Si1 0.863190 0.996163 0.444066
Si Si2 0.583687 0.044899 0.806856
Si Si3 0.497589 0.338677 0.557200
Si Si4 0.324167 0.717898 0.314266
Si Si5 0.673316 0.352676 0.798273
Si Si6 0.481154 0.755336 0.838945
Si Si7 0.766191 0.026976 0.149937
O O1 0.825210 0.980252 0.500000
O O2 0.782953 0.011336 0.406499
O O3 0.920725 0.904733 0.428731
O O4 0.915291 0.093629 0.441921
O O5 0.570132 0.157512 0.812388
O O6 0.665232 0.018235 0.839912
O O7 0.500000 0.000000 0.833591
O O8 0.593205 0.000000 0.750000
O O9 0.507518 0.295018 0.500000
O O10 0.485934 0.254521 0.599332
O O11 0.312222 0.670218 0.259886
O O12 0.252913 0.798492 0.326495
O O13 0.421114 0.757952 0.318472
O O14 0.303798 0.632834 0.352251
O O15 0.576602 0.331191 0.818311
O O16 0.683723 0.464449 0.808188
#
# Coordination Sequence:
#
# PCOD8295406 Si02
#       7
#    16  16  16  16  16  16  16
#     4   9  18  35  61  93 127 162 200 255 331 399
#     4  11  26  42  63  85 124 180 220 237 299 395
#     4   9  18  36  61  92 127 162 203 258 327 389
#     4  11  24  38  58  88 128 165 211 260 316 376
#     4  11  24  37  58  88 126 167 203 261 316 379
#     4  12  22  39  63  92 123 162 214 268 308 379
#     4  12  21  40  62  90 128 161 209 269 320 374
#
# _framework density 19.498626000000002
#
# number of rings (size 3 to 8) (size 9 to 14) (size 15 to 20)
#    0.000    1.286    4.286    3.429    6.000    0.571 
#    0.000    2.143    0.000    6.000    0.000    0.000 
#    0.000    0.000    0.000    0.000    0.000    0.000 
#
# Total GULP energy -693878.521762 kJ/mol
# GULP energy per Si atom -12390.687889 kJ/mol
# Density = 1.945425 g / cm^3
# Si number density = 19.498626 Si / 1000 Ang^3
#
#
#
# Elastic Constant Matrix: (Units=GPa)
#
#
# Indices 1 2 3 4 5 6 
#
# 1 119.9231 7.7730 33.4648 0.0000 0.0000 0.0000
# 2 7.7730 57.7120 26.2688 0.0000 0.0000 0.0000
# 3 33.4648 26.2688 100.9796 0.0000 0.0000 0.0000
# 4 0.0000 0.0000 0.0000 25.8086 0.0000 0.0000
# 5 0.0000 0.0000 0.0000 0.0000 26.4527 0.0000
# 6 0.0000 0.0000 0.0000 0.0000 0.0000 26.6994
#
#
#
# Elastic Compliance Matrix: (Units=1/GPa)
#
#
# Indices 1 2 3 4 5 6 
#
# 1 0.009190 0.000168 -0.003089 0.000000 0.000000 0.000000
# 2 0.000168 0.019658 -0.005170 0.000000 0.000000 0.000000
# 3 -0.003089 -0.005170 0.012272 0.000000 0.000000 0.000000
# 4 0.000000 0.000000 0.000000 0.038747 0.000000 0.000000
# 5 0.000000 0.000000 0.000000 0.000000 0.037803 0.000000
# 6 0.000000 0.000000 0.000000 0.000000 0.000000 0.037454
#
#
# Mechanical properties :
#
#
# Convention : Reuss Voigt Hill
#
# Bulk Modulus (GPa) = 40.09902 45.95864 43.02883
# Shear Modulus (GPa) = 27.83701 29.86603 28.85152
#
# Velocity S-wave (km/s) = 3.78251 3.91794 3.85082
# Velocity P-wave (km/s) = 6.29970 6.63991 6.47204
#
# Compressibility (1/GPa) = 0.02493827
#
# Stress axis : x y z
#
# Youngs Moduli (GPa) = 108.81567 50.87044 81.48889
#
# Poissons Ratio (x) = -0.00857 0.25175
# Poissons Ratio (y) = -0.01833 0.42126
# Poissons Ratio (z) = 0.33617 0.26298
#
# Static dielectric constant tensor:
#      x y z
#    x 3.628370 0.000000 0.000000 
#    y 0.000000 3.584290 0.000000 
#    z 0.000000 0.000000 3.579090 
# 
# 
# High freq. dielectric constant tensor:
#      x y z
#    x 1.762350 0.000000 0.000000 
#    y 0.000000 1.748290 0.000000 
#    z 0.000000 0.000000 1.746870 
# 
# From -- ./inp_files/48748.got.cif
#   From: 2010.03.12/outbox.cif.g09.slc.cpg/sg72_25_cif.got.tgz:48748.got - 2010.04.16 14:54:00.
