data_PCOD8295335
_publ_section_title
;
Structure prediction by ZEFSAII (Michael W. Deem and Ramdas Pophale) SiO2 
 PCOD8295335
Probable space group: I B A M
;
_chemical_formula_sum "Si O2"
_cell_formula_units_Z 80
_cell_length_a 16.580311
_cell_length_b 9.741367
_cell_length_c 23.858360
_cell_angle_alpha 90.000000
_cell_angle_beta 90.000000
_cell_angle_gamma 90.000000
_cell_volume 3853.480497
_symmetry_space_group_name_H-M "I B A M"
_symmetry_group_IT_number 72
_symmetry_cell_setting 'orthorhombic'
loop_
_space_group_symop_operation_xyz
x,y,z
-x,-y,z
x,-y,1/2-z
-x,y,1/2-z
-x,-y,-z
x,y,-z
-x,y,1/2+z
x,-y,1/2+z
1/2+x,1/2+y,1/2+z
1/2-x,1/2-y,1/2+z
1/2+x,1/2-y,-z
1/2-x,1/2+y,-z
1/2-x,1/2-y,1/2-z
1/2+x,1/2+y,1/2-z
1/2-x,1/2+y,z
1/2+x,1/2-y,z
loop_
_atom_site_type_symbol
_atom_site_label
_atom_site_fract_x
_atom_site_fract_y
_atom_site_fract_z
Si Si1 0.928517 0.396593 0.633105
Si Si2 0.693387 0.334279 0.397504
Si Si3 0.985261 0.159866 0.066208
Si Si4 0.798988 0.447695 0.938038
Si Si5 0.783342 0.369377 0.711703
O O1 0.875963 0.487285 0.591328
O O2 0.872852 0.346018 0.685251
O O3 0.000000 0.500000 0.653337
O O4 0.954759 0.259121 0.600141
O O5 0.600472 0.305584 0.407418
O O6 0.725961 0.443798 0.442423
O O7 0.735140 0.185596 0.405436
O O8 0.716635 0.392554 0.336587
O O9 0.990799 0.192271 0.000000
O O10 0.000000 0.000000 0.078481
O O11 0.825616 0.402660 0.000000
O O12 0.789196 0.500000 0.750000
O O13 0.750000 0.250000 0.750000
#
# Coordination Sequence:
#
# PCOD8295335 Si02
#       5
#    16  16  16  16  16
#     4  11  24  43  69  99 135 173 229 282 339 415
#     4  11  24  42  65  96 132 177 230 275 326 412
#     4  11  25  42  67 102 144 176 209 271 344 409
#     4  11  22  38  65  99 139 182 221 266 337 415
#     4  11  26  47  71  93 127 178 232 291 340 388
#
# _framework density 20.760453999999999
#
# number of rings (size 3 to 8) (size 9 to 14) (size 15 to 20)
#    0.000    1.000    2.000    4.800    8.400    1.200 
#    0.000    0.000    0.000    0.000    0.000    0.000 
#    0.000    0.000    0.000    0.000    0.000    0.000 
#
# Total GULP energy -495833.146431 kJ/mol
# GULP energy per Si atom -12395.828661 kJ/mol
# Density = 2.071320 g / cm^3
# Si number density = 20.760454 Si / 1000 Ang^3
#
#
#
# Elastic Constant Matrix: (Units=GPa)
#
#
# Indices 1 2 3 4 5 6 
#
# 1 83.6194 51.8161 66.3454 0.0000 0.0000 0.0000
# 2 51.8161 148.3370 62.2783 0.0000 0.0000 0.0000
# 3 66.3454 62.2783 133.4299 0.0000 0.0000 0.0000
# 4 0.0000 0.0000 0.0000 41.1763 0.0000 0.0000
# 5 0.0000 0.0000 0.0000 0.0000 32.1918 0.0000
# 6 0.0000 0.0000 0.0000 0.0000 0.0000 38.3480
#
#
#
# Elastic Compliance Matrix: (Units=1/GPa)
#
#
# Indices 1 2 3 4 5 6 
#
# 1 0.021283 -0.003721 -0.008846 0.000000 0.000000 0.000000
# 2 -0.003721 0.009035 -0.002367 0.000000 0.000000 0.000000
# 3 -0.008846 -0.002367 0.012998 0.000000 0.000000 0.000000
# 4 0.000000 0.000000 0.000000 0.024286 0.000000 0.000000
# 5 0.000000 0.000000 0.000000 0.000000 0.031064 0.000000
# 6 0.000000 0.000000 0.000000 0.000000 0.000000 0.026077
#
#
# Mechanical properties :
#
#
# Convention : Reuss Voigt Hill
#
# Bulk Modulus (GPa) = 74.35716 80.69620 77.52668
# Shear Modulus (GPa) = 31.42827 34.67300 33.05064
#
# Velocity S-wave (km/s) = 3.89505 4.09118 3.99432
# Velocity P-wave (km/s) = 7.49153 7.82761 7.66141
#
# Compressibility (1/GPa) = 0.01344860
#
# Stress axis : x y z
#
# Youngs Moduli (GPa) = 46.98570 110.68292 76.93549
#
# Poissons Ratio (x) = 0.41180 0.68057
# Poissons Ratio (y) = 0.17481 0.18211
# Poissons Ratio (z) = 0.41564 0.26199
#
# Static dielectric constant tensor:
#      x y z
#    x 3.945390 0.000000 0.000000 
#    y 0.000000 4.195160 0.000000 
#    z 0.000000 0.000000 3.937750 
# 
# 
# High freq. dielectric constant tensor:
#      x y z
#    x 1.811440 0.000000 0.000000 
#    y 0.000000 1.836700 0.000000 
#    z 0.000000 0.000000 1.809950 
# 
# From -- ./inp_files/48963.got.cif
#   From: 2010.03.12/outbox.cif.g09.slc.cpg/sg72_25_cif.got.tgz:48963.got - 2010.04.16 14:54:00.
