data_PCOD8295756
_publ_section_title
;
Structure prediction by ZEFSAII (Michael W. Deem and Ramdas Pophale) SiO2 
 PCOD8295756
Probable space group: I B C A 
;
_chemical_formula_sum "Si O2"
_cell_formula_units_Z 88
_cell_length_a 13.054237
_cell_length_b 18.812729
_cell_length_c 18.272313
_cell_angle_alpha 90.000000
_cell_angle_beta 90.000000
_cell_angle_gamma 90.000000
_cell_volume 4487.421026
_symmetry_space_group_name_H-M "I B C A "
_symmetry_group_IT_number 73
_symmetry_cell_setting 'orthorhombic'
loop_
_space_group_symop_operation_xyz
x,y,z
-x,1/2-y,z
x,-y,1/2-z
1/2-x,y,-z
-x,-y,-z
x,1/2+y,-z
-x,y,1/2+z
1/2+x,-y,z
1/2+x,1/2+y,1/2+z
1/2-x,-y,1/2+z
1/2+x,1/2-y,-z
-x,1/2+y,1/2-z
1/2-x,1/2-y,1/2-z
1/2+x,y,1/2-z
1/2-x,1/2+y,z
x,1/2-y,1/2+z
loop_
_atom_site_type_symbol
_atom_site_label
_atom_site_fract_x
_atom_site_fract_y
_atom_site_fract_z
Si Si1 0.871991 0.694684 0.651644
Si Si2 0.007885 0.401439 0.941297
Si Si3 0.855048 0.977361 0.958003
Si Si4 0.138186 0.782157 0.009766
Si Si5 0.144233 0.668035 0.881418
Si Si6 0.000000 0.250000 0.220364
O O1 0.882022 0.757549 0.592727
O O2 0.752495 0.677603 0.659051
O O3 0.946662 0.630293 0.627647
O O4 0.908781 0.718231 0.731341
O O5 0.106050 0.450001 0.918059
O O6 0.049474 0.341487 0.999894
O O7 0.931048 0.454879 0.978519
O O8 0.854316 0.915113 0.898505
O O9 0.750000 0.991320 0.000000
O O10 0.250000 0.817759 0.000000
O O11 0.133685 0.714865 0.955438
O O12 0.049786 0.688242 0.829261
#
# Coordination Sequence:
#
# PCOD8295756 Si02
#       6
#    16  16  16  16  16   8
#     4  11  21  39  62  87 119 159 200 260 307 361
#     4  11  20  34  61  89 122 148 201 247 316 356
#     4  11  21  36  59  92 121 157 194 258 312 367
#     4  10  19  36  63  89 115 150 204 260 304 354
#     4  11  22  39  61  91 122 159 203 254 310 371
#     4  12  24  36  64  88 124 162 212 244 304 380
#
# _framework density 19.610372999999999
#
# number of rings (size 3 to 8) (size 9 to 14) (size 15 to 20)
#    0.000    1.091    5.455    2.727    0.000    0.000 
#    0.000    0.909    0.000    2.182    0.000    0.000 
#    0.000    0.000    0.000    0.000    0.000    0.000 
#
# Total GULP energy -545225.449402 kJ/mol
# GULP energy per Si atom -12391.487486 kJ/mol
# Density = 1.956574 g / cm^3
# Si number density = 19.610373 Si / 1000 Ang^3
#
#
#
# Elastic Constant Matrix: (Units=GPa)
#
#
# Indices 1 2 3 4 5 6 
#
# 1 123.4813 36.3196 27.5569 0.0000 0.0000 0.0000
# 2 36.3196 72.4574 7.2097 0.0000 0.0000 0.0000
# 3 27.5569 7.2097 67.4866 0.0000 0.0000 0.0000
# 4 0.0000 0.0000 0.0000 9.1423 0.0000 0.0000
# 5 0.0000 0.0000 0.0000 0.0000 35.4765 0.0000
# 6 0.0000 0.0000 0.0000 0.0000 0.0000 35.8598
#
#
#
# Elastic Compliance Matrix: (Units=1/GPa)
#
#
# Indices 1 2 3 4 5 6 
#
# 1 0.010342 -0.004815 -0.003709 0.000000 0.000000 0.000000
# 2 -0.004815 0.016191 0.000236 0.000000 0.000000 0.000000
# 3 -0.003709 0.000236 0.016307 0.000000 0.000000 0.000000
# 4 0.000000 0.000000 0.000000 0.109381 0.000000 0.000000
# 5 0.000000 0.000000 0.000000 0.000000 0.028188 0.000000
# 6 0.000000 0.000000 0.000000 0.000000 0.000000 0.027886
#
#
# Mechanical properties :
#
#
# Convention : Reuss Voigt Hill
#
# Bulk Modulus (GPa) = 38.07241 45.06640 41.56940
# Shear Modulus (GPa) = 21.40174 28.91832 25.16003
#
# Velocity S-wave (km/s) = 3.30714 3.84428 3.58578
# Velocity P-wave (km/s) = 5.83433 6.53723 6.19576
#
# Compressibility (1/GPa) = 0.02626574
#
# Stress axis : x y z
#
# Youngs Moduli (GPa) = 96.69007 61.76161 61.32380
#
# Poissons Ratio (x) = 0.29739 0.22743
# Poissons Ratio (y) = 0.46557 -0.01450
# Poissons Ratio (z) = 0.35859 -0.01460
#
# Static dielectric constant tensor:
#      x y z
#    x 4.198400 0.000000 0.000000 
#    y 0.000000 3.749450 0.000000 
#    z 0.000000 0.000000 3.193470 
# 
# 
# High freq. dielectric constant tensor:
#      x y z
#    x 1.799980 0.000000 0.000000 
#    y 0.000000 1.756370 0.000000 
#    z 0.000000 0.000000 1.721840 
# 
# From -- ./inp_files/18576.got.cif
#   From: 2010.03.12/outbox.cif.g09.slc.cpg/sg73_10_cif.got.tgz:18576.got - 2010.04.16 15:25:48.
