data_PCOD8295404
_publ_section_title
;
Structure prediction by ZEFSAII (Michael W. Deem and Ramdas Pophale) SiO2 
 PCOD8295404
Probable space group: I B A M
;
_chemical_formula_sum "Si O2"
_cell_formula_units_Z 52
_cell_length_a 9.583958
_cell_length_b 9.831142
_cell_length_c 20.715272
_cell_angle_alpha 90.000000
_cell_angle_beta 90.000000
_cell_angle_gamma 90.000000
_cell_volume 1951.818864
_symmetry_space_group_name_H-M "I B A M"
_symmetry_group_IT_number 72
_symmetry_cell_setting 'orthorhombic'
loop_
_space_group_symop_operation_xyz
x,y,z
-x,-y,z
x,-y,1/2-z
-x,y,1/2-z
-x,-y,-z
x,y,-z
-x,y,1/2+z
x,-y,1/2+z
1/2+x,1/2+y,1/2+z
1/2-x,1/2-y,1/2+z
1/2+x,1/2-y,-z
1/2-x,1/2+y,-z
1/2-x,1/2-y,1/2-z
1/2+x,1/2+y,1/2-z
1/2-x,1/2+y,z
1/2+x,1/2-y,z
loop_
_atom_site_type_symbol
_atom_site_label
_atom_site_fract_x
_atom_site_fract_y
_atom_site_fract_z
Si Si1 0.574440 0.824967 0.393027
Si Si2 0.162422 0.772953 0.813957
Si Si3 0.000000 0.000000 0.750000
Si Si4 0.919378 0.194941 0.000000
Si Si5 0.816596 0.510209 0.500000
O O1 0.727869 0.779556 0.371673
O O2 0.459754 0.838118 0.333621
O O3 0.515468 0.701422 0.436508
O O4 0.597173 0.959784 0.436492
O O5 0.250000 0.750000 0.750000
O O6 0.089886 0.915770 0.800890
O O7 0.838110 0.052522 0.000000
O O8 0.813346 0.326158 0.000000
#
# Coordination Sequence:
#
# PCOD8295404 Si02
#       5
#    16  16   4   8   8
#     4  11  23  47  74 103 156 192 251 312 379 455
#     4  12  25  47  73 109 149 198 255 313 381 454
#     4  12  28  44  78 112 148 204 254 320 388 448
#     4  11  25  48  75 118 149 205 252 317 390 460
#     4  11  25  44  77 111 152 194 259 310 386 461
#
# _framework density 26.641815999999999
#
# number of rings (size 3 to 8) (size 9 to 14) (size 15 to 20)
#    0.000    0.615    6.154    1.846    0.000    7.385 
#    0.000    3.077    0.000    2.769    0.000    0.000 
#    0.000    0.000    0.000    0.000    0.000    0.000 
#
# Total GULP energy -322090.122117 kJ/mol
# GULP energy per Si atom -12388.081620 kJ/mol
# Density = 2.658118 g / cm^3
# Si number density = 26.641816 Si / 1000 Ang^3
#
#
#
# Elastic Constant Matrix: (Units=GPa)
#
#
# Indices 1 2 3 4 5 6 
#
# 1 181.9757 27.3170 47.4711 0.0000 0.0000 0.0000
# 2 27.3170 68.1570 26.6375 0.0000 0.0000 0.0000
# 3 47.4711 26.6375 120.4563 0.0000 0.0000 0.0000
# 4 0.0000 0.0000 0.0000 -18.3980 0.0000 0.0000
# 5 0.0000 0.0000 0.0000 0.0000 72.1888 0.0000
# 6 0.0000 0.0000 0.0000 0.0000 0.0000 46.2453
#
#
#
# Elastic Compliance Matrix: (Units=1/GPa)
#
#
# Indices 1 2 3 4 5 6 
#
# 1 0.006300 -0.001702 -0.002107 0.000000 0.000000 0.000000
# 2 -0.001702 0.016520 -0.002982 0.000000 0.000000 0.000000
# 3 -0.002107 -0.002982 0.009791 0.000000 0.000000 0.000000
# 4 0.000000 0.000000 0.000000 -0.054354 0.000000 0.000000
# 5 0.000000 0.000000 0.000000 0.000000 0.013853 0.000000
# 6 0.000000 0.000000 0.000000 0.000000 0.000000 0.021624
#
#
# Mechanical properties :
#
#
# Convention : Reuss Voigt Hill
#
# Bulk Modulus (GPa) = 52.54922 63.71556 58.13239
# Shear Modulus (GPa) = 148.54893 37.95146 93.25020
#
# Velocity S-wave (km/s) = 7.47522 3.77836 5.92262
# Velocity P-wave (km/s) = 9.70939 6.55761 8.28476
#
# Compressibility (1/GPa) = 0.01902978
#
# Stress axis : x y z
#
# Youngs Moduli (GPa) = 158.72442 60.53373 102.12963
#
# Poissons Ratio (x) = 0.10302 0.21514
# Poissons Ratio (y) = 0.27012 0.30460
# Poissons Ratio (z) = 0.33436 0.18054
#
# Static dielectric constant tensor:
#      x y z
#    x 2.556120 0.000000 0.000000 
#    y 0.000000 4.249930 0.000000 
#    z 0.000000 0.000000 4.692050 
# 
# 
# High freq. dielectric constant tensor:
#      x y z
#    x 2.113840 0.000000 0.000000 
#    y 0.000000 2.025450 0.000000 
#    z 0.000000 0.000000 2.084160 
# 
# From -- ./inp_files/35188.got.cif
#   From: 2010.03.12/outbox.cif.g09.slc.cpg/sg72_18_cif.got.tgz:35188.got - 2010.04.16 14:54:00.
