data_PCOD8295010
_publ_section_title
;
Structure prediction by ZEFSAII (Michael W. Deem and Ramdas Pophale) SiO2 
 PCOD8295010
Probable space group: I B A M
;
_chemical_formula_sum "Si O2"
_cell_formula_units_Z 84
_cell_length_a 17.164178
_cell_length_b 9.486542
_cell_length_c 24.038834
_cell_angle_alpha 90.000000
_cell_angle_beta 90.000000
_cell_angle_gamma 90.000000
_cell_volume 3914.211981
_symmetry_space_group_name_H-M "I B A M"
_symmetry_group_IT_number 72
_symmetry_cell_setting 'orthorhombic'
loop_
_space_group_symop_operation_xyz
x,y,z
-x,-y,z
x,-y,1/2-z
-x,y,1/2-z
-x,-y,-z
x,y,-z
-x,y,1/2+z
x,-y,1/2+z
1/2+x,1/2+y,1/2+z
1/2-x,1/2-y,1/2+z
1/2+x,1/2-y,-z
1/2-x,1/2+y,-z
1/2-x,1/2-y,1/2-z
1/2+x,1/2+y,1/2-z
1/2-x,1/2+y,z
1/2+x,1/2-y,z
loop_
_atom_site_type_symbol
_atom_site_label
_atom_site_fract_x
_atom_site_fract_y
_atom_site_fract_z
Si Si1 0.330225 0.464648 0.686447
Si Si2 0.736864 0.885512 0.000000
Si Si3 0.418649 0.312898 0.881228
Si Si4 0.077277 0.303835 0.838877
Si Si5 0.824651 0.460364 0.883475
Si Si6 0.853916 0.887041 0.500000
Si Si7 0.000000 0.500000 0.750000
O O1 0.314502 0.500000 0.750000
O O2 0.397499 0.561323 0.660270
O O3 0.358368 0.304665 0.682727
O O4 0.250945 0.489009 0.653290
O O5 0.695514 0.950525 0.947308
O O6 0.825558 0.948319 0.000000
O O7 0.723758 0.715398 0.000000
O O8 0.508468 0.275049 0.871488
O O9 0.366664 0.180619 0.862502
O O10 0.406067 0.357116 0.945571
O O11 0.117780 0.407442 0.882407
O O12 0.052611 0.397136 0.786479
#
# Coordination Sequence:
#
# PCOD8295010 Si02
#       7
#    16   8  16  16  16   8   4
#     4  12  27  42  66 100 138 174 228 285 340 405
#     4  10  22  41  68  98 136 173 219 282 345 389
#     4  11  23  46  66 102 139 175 231 278 343 412
#     4  12  26  44  69  97 133 185 224 282 345 404
#     4  11  24  44  70  99 133 179 230 277 338 413
#     4  10  22  41  73  99 139 181 222 287 336 406
#     4  12  24  48  70  90 144 180 232 276 346 416
#
# _framework density 21.460258
#
# number of rings (size 3 to 8) (size 9 to 14) (size 15 to 20)
#    0.000    0.762    3.810    2.857    4.000    3.048 
#    0.000    5.714    0.000    0.000    0.000    0.000 
#    0.000    0.000    0.000    0.000    0.000    0.000 
#
# Total GULP energy -520885.046347 kJ/mol
# GULP energy per Si atom -12402.024913 kJ/mol
# Density = 2.141141 g / cm^3
# Si number density = 21.460258 Si / 1000 Ang^3
#
#
#
# Elastic Constant Matrix: (Units=GPa)
#
#
# Indices 1 2 3 4 5 6 
#
# 1 82.4817 10.4593 27.4898 0.0000 0.0000 0.0000
# 2 10.4593 77.1050 26.8291 0.0000 0.0000 0.0000
# 3 27.4898 26.8291 123.5297 0.0000 0.0000 0.0000
# 4 0.0000 0.0000 0.0000 50.9979 0.0000 0.0000
# 5 0.0000 0.0000 0.0000 0.0000 0.4426 0.0000
# 6 0.0000 0.0000 0.0000 0.0000 0.0000 2.6313
#
#
#
# Elastic Compliance Matrix: (Units=1/GPa)
#
#
# Indices 1 2 3 4 5 6 
#
# 1 0.013144 -0.000828 -0.002745 0.000000 0.000000 0.000000
# 2 -0.000828 0.014082 -0.002874 0.000000 0.000000 0.000000
# 3 -0.002745 -0.002874 0.009330 0.000000 0.000000 0.000000
# 4 0.000000 0.000000 0.000000 0.019609 0.000000 0.000000
# 5 0.000000 0.000000 0.000000 0.000000 2.259607 0.000000
# 6 0.000000 0.000000 0.000000 0.000000 0.000000 0.380046
#
#
# Mechanical properties :
#
#
# Convention : Reuss Voigt Hill
#
# Bulk Modulus (GPa) = 42.26251 45.85253 44.05752
# Shear Modulus (GPa) = 1.84054 25.37023 13.60538
#
# Velocity S-wave (km/s) = 0.92710 3.44204 2.52063
# Velocity P-wave (km/s) = 4.56970 6.09996 5.38942
#
# Compressibility (1/GPa) = 0.02366163
#
# Stress axis : x y z
#
# Youngs Moduli (GPa) = 76.08156 71.01418 107.17707
#
# Poissons Ratio (x) = 0.05878 0.29422
# Poissons Ratio (y) = 0.06298 0.30804
# Poissons Ratio (z) = 0.20886 0.20411
#
# Static dielectric constant tensor:
#      x y z
#    x 4.088420 0.000000 0.000000 
#    y 0.000000 4.195040 0.000000 
#    z 0.000000 0.000000 4.422230 
# 
# 
# High freq. dielectric constant tensor:
#      x y z
#    x 1.838030 0.000000 0.000000 
#    y 0.000000 1.862170 0.000000 
#    z 0.000000 0.000000 1.852240 
# 
# From -- ./inp_files/45230.got.cif
#   From: 2010.03.12/outbox.cif.g09.slc.cpg/sg72_23_cif.got.tgz:45230.got - 2010.04.16 14:54:00.
