data_PCOD8295328
_publ_section_title
;
Structure prediction by ZEFSAII (Michael W. Deem and Ramdas Pophale) SiO2 
 PCOD8295328
Probable space group: I B A M
;
_chemical_formula_sum "Si O2"
_cell_formula_units_Z 96
_cell_length_a 23.135452
_cell_length_b 11.241768
_cell_length_c 17.830283
_cell_angle_alpha 90.000000
_cell_angle_beta 90.000000
_cell_angle_gamma 90.000000
_cell_volume 4637.360340
_symmetry_space_group_name_H-M "I B A M"
_symmetry_group_IT_number 72
_symmetry_cell_setting 'orthorhombic'
loop_
_space_group_symop_operation_xyz
x,y,z
-x,-y,z
x,-y,1/2-z
-x,y,1/2-z
-x,-y,-z
x,y,-z
-x,y,1/2+z
x,-y,1/2+z
1/2+x,1/2+y,1/2+z
1/2-x,1/2-y,1/2+z
1/2+x,1/2-y,-z
1/2-x,1/2+y,-z
1/2-x,1/2-y,1/2-z
1/2+x,1/2+y,1/2-z
1/2-x,1/2+y,z
1/2+x,1/2-y,z
loop_
_atom_site_type_symbol
_atom_site_label
_atom_site_fract_x
_atom_site_fract_y
_atom_site_fract_z
Si Si1 0.622469 0.078512 0.912351
Si Si2 0.430430 0.656856 0.411695
Si Si3 0.170254 0.328586 0.588606
Si Si4 0.701000 0.698508 0.587145
Si Si5 0.529455 0.782766 0.674059
Si Si6 0.891395 0.060831 0.674574
O O1 0.673734 0.172446 0.898838
O O2 0.565700 0.112239 0.864946
O O3 0.644947 0.952888 0.880572
O O4 0.605347 0.073023 0.000000
O O5 0.435184 0.639113 0.500000
O O6 0.370897 0.720833 0.386971
O O7 0.483227 0.738679 0.386355
O O8 0.431778 0.527831 0.373369
O O9 0.173551 0.338430 0.500000
O O10 0.234199 0.302916 0.620780
O O11 0.701027 0.665245 0.500000
O O12 0.664513 0.596001 0.627057
O O13 0.500000 0.831579 0.750000
O O14 0.570674 0.674158 0.697319
O O15 0.869025 0.000000 0.750000
#
# Coordination Sequence:
#
# PCOD8295328 Si02
#       6
#    16  16  16  16  16  16
#     4   9  19  37  61  87 120 157 201 247 294 349
#     4  11  23  37  61  90 117 153 204 244 289 361
#     4   9  20  38  60  91 123 156 196 250 297 339
#     4   9  19  36  62  89 117 155 200 243 292 353
#     4  11  22  39  60  83 121 160 198 245 305 347
#     4  11  22  38  60  87 120 158 189 245 308 347
#
# _framework density 20.701432
#
# number of rings (size 3 to 8) (size 9 to 14) (size 15 to 20)
#    0.000    2.000    1.667    1.500    2.333    3.333 
#    0.000    6.667    0.000    0.000    0.000    0.000 
#    0.000    0.000    0.000    0.000    0.000    0.000 
#
# Total GULP energy -595381.933396 kJ/mol
# GULP energy per Si atom -12403.790279 kJ/mol
# Density = 2.065431 g / cm^3
# Si number density = 20.701432 Si / 1000 Ang^3
#
#
#
# Elastic Constant Matrix: (Units=GPa)
#
#
# Indices 1 2 3 4 5 6 
#
# 1 95.4554 1.8549 16.7417 0.0000 0.0000 0.0000
# 2 1.8549 42.3489 20.7846 0.0000 0.0000 0.0000
# 3 16.7417 20.7846 66.0301 0.0000 0.0000 0.0000
# 4 0.0000 0.0000 0.0000 18.0183 0.0000 0.0000
# 5 0.0000 0.0000 0.0000 0.0000 18.2509 0.0000
# 6 0.0000 0.0000 0.0000 0.0000 0.0000 16.1358
#
#
#
# Elastic Compliance Matrix: (Units=1/GPa)
#
#
# Indices 1 2 3 4 5 6 
#
# 1 0.011003 0.001049 -0.003120 0.000000 0.000000 0.000000
# 2 0.001049 0.028028 -0.009089 0.000000 0.000000 0.000000
# 3 -0.003120 -0.009089 0.018797 0.000000 0.000000 0.000000
# 4 0.000000 0.000000 0.000000 0.055499 0.000000 0.000000
# 5 0.000000 0.000000 0.000000 0.000000 0.054792 0.000000
# 6 0.000000 0.000000 0.000000 0.000000 0.000000 0.061974
#
#
# Mechanical properties :
#
#
# Convention : Reuss Voigt Hill
#
# Bulk Modulus (GPa) = 28.16190 31.39964 29.78077
# Shear Modulus (GPa) = 18.92166 21.44454 20.18310
#
# Velocity S-wave (km/s) = 3.02657 3.22203 3.12583
# Velocity P-wave (km/s) = 5.08398 5.38913 5.23878
#
# Compressibility (1/GPa) = 0.03550897
#
# Stress axis : x y z
#
# Youngs Moduli (GPa) = 90.88489 35.67855 53.20127
#
# Poissons Ratio (x) = -0.03744 0.16599
# Poissons Ratio (y) = -0.09537 0.48352
# Poissons Ratio (z) = 0.28357 0.32427
#
# Static dielectric constant tensor:
#      x y z
#    x 3.934860 0.000000 0.000000 
#    y 0.000000 3.750750 0.000000 
#    z 0.000000 0.000000 3.535600 
# 
# 
# High freq. dielectric constant tensor:
#      x y z
#    x 1.816770 0.000000 0.000000 
#    y 0.000000 1.811420 0.000000 
#    z 0.000000 0.000000 1.794810 
# 
# From -- ./inp_files/33274.got.cif
#   From: 2010.03.12/outbox.cif.g09.slc.cpg/sg72_17_cif.got.tgz:33274.got - 2010.04.16 14:54:00.
