data_PCOD8295017
_publ_section_title
;
Structure prediction by ZEFSAII (Michael W. Deem and Ramdas Pophale) SiO2 
 PCOD8295017
Probable space group: I B A M
;
_chemical_formula_sum "Si O2"
_cell_formula_units_Z 112
_cell_length_a 16.937165
_cell_length_b 21.914801
_cell_length_c 13.863076
_cell_angle_alpha 90.000000
_cell_angle_beta 90.000000
_cell_angle_gamma 90.000000
_cell_volume 5145.621696
_symmetry_space_group_name_H-M "I B A M"
_symmetry_group_IT_number 72
_symmetry_cell_setting 'orthorhombic'
loop_
_space_group_symop_operation_xyz
x,y,z
-x,-y,z
x,-y,1/2-z
-x,y,1/2-z
-x,-y,-z
x,y,-z
-x,y,1/2+z
x,-y,1/2+z
1/2+x,1/2+y,1/2+z
1/2-x,1/2-y,1/2+z
1/2+x,1/2-y,-z
1/2-x,1/2+y,-z
1/2-x,1/2-y,1/2-z
1/2+x,1/2+y,1/2-z
1/2-x,1/2+y,z
1/2+x,1/2-y,z
loop_
_atom_site_type_symbol
_atom_site_label
_atom_site_fract_x
_atom_site_fract_y
_atom_site_fract_z
Si Si1 0.059918 0.178362 0.108681
Si Si2 0.589616 0.751941 0.109232
Si Si3 0.342065 0.644956 0.290373
Si Si4 0.336350 0.855902 0.739100
Si Si5 0.547269 0.560105 0.889955
Si Si6 0.109904 0.547763 0.108830
Si Si7 0.435125 0.914255 0.108805
O O1 0.127548 0.174073 0.189222
O O2 0.002865 0.236566 0.131761
O O3 0.012831 0.115690 0.115831
O O4 0.095547 0.185286 0.000000
O O5 0.634617 0.687925 0.120292
O O6 0.633037 0.799124 0.178492
O O7 0.597834 0.775916 0.000000
O O8 0.248475 0.648961 0.286837
O O9 0.378696 0.577955 0.318555
O O10 0.327778 0.916712 0.673864
O O11 0.399925 0.862131 0.824432
O O12 0.500000 0.500000 0.853114
O O13 0.577417 0.549385 0.000000
O O14 0.096467 0.479487 0.146563
O O15 0.029379 0.587035 0.115941
O O16 0.141140 0.545623 0.000000
O O17 0.407691 0.902344 0.000000
#
# Coordination Sequence:
#
# PCOD8295017 Si02
#       7
#    16  16  16  16  16  16  16
#     4   9  20  39  61  84 115 162 212 257 311 374
#     4  10  22  42  63  81 113 164 214 258 310 378
#     4  11  23  38  59  91 131 162 200 265 334 378
#     4  12  23  36  59  96 127 155 199 262 330 385
#     4   9  18  37  63  87 115 163 220 260 295 359
#     4   9  19  39  62  84 118 165 207 249 301 374
#     4   9  20  39  62  85 118 164 208 248 301 374
#
# _framework density 21.766076999999999
#
# number of rings (size 3 to 8) (size 9 to 14) (size 15 to 20)
#    0.000    2.143    0.000    5.571    0.000    6.857 
#    5.143    2.143    0.000    0.857    0.000    0.000 
#    0.000    0.000    0.000    0.000    0.000    0.000 
#
# Total GULP energy -694042.833285 kJ/mol
# GULP energy per Si atom -12393.622023 kJ/mol
# Density = 2.171654 g / cm^3
# Si number density = 21.766077 Si / 1000 Ang^3
#
#
#
# Elastic Constant Matrix: (Units=GPa)
#
#
# Indices 1 2 3 4 5 6 
#
# 1 50.4805 29.8836 30.5764 0.0000 0.0000 0.0000
# 2 29.8836 72.3591 31.2434 0.0000 0.0000 0.0000
# 3 30.5764 31.2434 86.8655 0.0000 0.0000 0.0000
# 4 0.0000 0.0000 0.0000 40.6128 0.0000 0.0000
# 5 0.0000 0.0000 0.0000 0.0000 18.5214 0.0000
# 6 0.0000 0.0000 0.0000 0.0000 0.0000 23.8167
#
#
#
# Elastic Compliance Matrix: (Units=1/GPa)
#
#
# Indices 1 2 3 4 5 6 
#
# 1 0.029514 -0.009120 -0.007109 0.000000 0.000000 0.000000
# 2 -0.009120 0.019179 -0.003688 0.000000 0.000000 0.000000
# 3 -0.007109 -0.003688 0.015341 0.000000 0.000000 0.000000
# 4 0.000000 0.000000 0.000000 0.024623 0.000000 0.000000
# 5 0.000000 0.000000 0.000000 0.000000 0.053991 0.000000
# 6 0.000000 0.000000 0.000000 0.000000 0.000000 0.041987
#
#
# Mechanical properties :
#
#
# Convention : Reuss Voigt Hill
#
# Bulk Modulus (GPa) = 41.32095 43.67910 42.50002
# Shear Modulus (GPa) = 21.50215 24.45697 22.97956
#
# Velocity S-wave (km/s) = 3.14646 3.35569 3.25276
# Velocity P-wave (km/s) = 5.67676 5.92666 5.80305
#
# Compressibility (1/GPa) = 0.02420080
#
# Stress axis : x y z
#
# Youngs Moduli (GPa) = 33.88217 52.14123 65.18560
#
# Poissons Ratio (x) = 0.47550 0.46339
# Poissons Ratio (y) = 0.30899 0.24041
# Poissons Ratio (z) = 0.24086 0.19230
#
# Static dielectric constant tensor:
#      x y z
#    x 3.543310 0.000000 0.000000 
#    y 0.000000 3.969070 0.000000 
#    z 0.000000 0.000000 4.173170 
# 
# 
# High freq. dielectric constant tensor:
#      x y z
#    x 1.814730 0.000000 0.000000 
#    y 0.000000 1.855350 0.000000 
#    z 0.000000 0.000000 1.873440 
# 
# From -- ./inp_files/22089.got.cif
#   From: 2010.03.12/outbox.cif.g09.slc.cpg/sg72_12_cif.got.tgz:22089.got - 2010.04.16 14:54:00.
