data_PCOD8295811
_publ_section_title
;
Structure prediction by ZEFSAII (Michael W. Deem and Ramdas Pophale) SiO2 
 PCOD8295811
Probable space group: I B C A 
;
_chemical_formula_sum "Si O2"
_cell_formula_units_Z 96
_cell_length_a 9.289613
_cell_length_b 22.871839
_cell_length_c 23.927057
_cell_angle_alpha 90.000000
_cell_angle_beta 90.000000
_cell_angle_gamma 90.000000
_cell_volume 5083.794552
_symmetry_space_group_name_H-M "I B C A "
_symmetry_group_IT_number 73
_symmetry_cell_setting 'orthorhombic'
loop_
_space_group_symop_operation_xyz
x,y,z
-x,1/2-y,z
x,-y,1/2-z
1/2-x,y,-z
-x,-y,-z
x,1/2+y,-z
-x,y,1/2+z
1/2+x,-y,z
1/2+x,1/2+y,1/2+z
1/2-x,-y,1/2+z
1/2+x,1/2-y,-z
-x,1/2+y,1/2-z
1/2-x,1/2-y,1/2-z
1/2+x,y,1/2-z
1/2-x,1/2+y,z
x,1/2-y,1/2+z
loop_
_atom_site_type_symbol
_atom_site_label
_atom_site_fract_x
_atom_site_fract_y
_atom_site_fract_z
Si Si1 0.648984 0.500000 0.250000
Si Si2 0.525140 0.123343 0.902790
Si Si3 0.828221 0.432601 0.401414
Si Si4 0.750000 0.213324 0.500000
Si Si5 0.057552 0.884573 0.530976
Si Si6 0.000000 0.750000 0.424851
Si Si7 0.103570 0.464860 0.676191
Si Si8 0.250000 0.014234 0.000000
O O1 0.544495 0.460789 0.288707
O O2 0.753513 0.543403 0.285738
O O3 0.678532 0.097205 0.885256
O O4 0.506425 0.191863 0.886312
O O5 0.402149 0.085680 0.871072
O O6 0.509931 0.119876 0.969242
O O7 0.885685 0.469903 0.349410
O O8 0.828668 0.474103 0.455390
O O9 0.940396 0.381971 0.419364
O O10 0.837833 0.170372 0.458165
O O11 0.642428 0.252976 0.463976
O O12 0.140289 0.946078 0.535330
#
# Coordination Sequence:
#
# PCOD8295811 Si02
#       8
#     8  16  16   8  16   8  16   8
#     4  10  24  40  58  88 116 140 188 246 320 360
#     4  11  21  36  56  84 119 161 195 236 278 349
#     4  12  20  30  56  86 122 153 191 233 296 353
#     4   9  22  35  52  72 116 169 209 236 260 326
#     4  10  20  31  48  83 124 158 193 227 283 344
#     4  10  24  38  54  80 118 168 210 232 276 338
#     4  11  22  39  60  87 113 150 187 247 305 356
#     4  11  18  27  46  84 124 151 181 236 284 352
#
# _framework density 18.883531999999999
#
# number of rings (size 3 to 8) (size 9 to 14) (size 15 to 20)
#    0.000    1.333    5.000    1.500    4.667    0.000 
#    0.000    0.000    0.000    1.000    0.000    0.000 
#    0.000    0.000    0.000    0.000    0.000    0.000 
#
# Total GULP energy -595064.950842 kJ/mol
# GULP energy per Si atom -12397.186476 kJ/mol
# Density = 1.884055 g / cm^3
# Si number density = 18.883532 Si / 1000 Ang^3
#
#
#
# Elastic Constant Matrix: (Units=GPa)
#
#
# Indices 1 2 3 4 5 6 
#
# 1 102.5595 28.3586 27.7393 0.0000 0.0000 0.0000
# 2 28.3586 92.0571 21.8625 0.0000 0.0000 0.0000
# 3 27.7393 21.8625 60.2659 0.0000 0.0000 0.0000
# 4 0.0000 0.0000 0.0000 10.3109 0.0000 0.0000
# 5 0.0000 0.0000 0.0000 0.0000 32.9312 0.0000
# 6 0.0000 0.0000 0.0000 0.0000 0.0000 20.8049
#
#
#
# Elastic Compliance Matrix: (Units=1/GPa)
#
#
# Indices 1 2 3 4 5 6 
#
# 1 0.011653 -0.002534 -0.004444 0.000000 0.000000 0.000000
# 2 -0.002534 0.012438 -0.003346 0.000000 0.000000 0.000000
# 3 -0.004444 -0.003346 0.019852 0.000000 0.000000 0.000000
# 4 0.000000 0.000000 0.000000 0.096985 0.000000 0.000000
# 5 0.000000 0.000000 0.000000 0.000000 0.030366 0.000000
# 6 0.000000 0.000000 0.000000 0.000000 0.000000 0.048066
#
#
# Mechanical properties :
#
#
# Convention : Reuss Voigt Hill
#
# Bulk Modulus (GPa) = 42.92748 45.64482 44.28615
# Shear Modulus (GPa) = 20.17966 24.60420 22.39193
#
# Velocity S-wave (km/s) = 3.27255 3.61355 3.44727
# Velocity P-wave (km/s) = 6.08782 6.45248 6.27280
#
# Compressibility (1/GPa) = 0.02329510
#
# Stress axis : x y z
#
# Youngs Moduli (GPa) = 85.81265 80.39821 50.37153
#
# Poissons Ratio (x) = 0.20376 0.22387
# Poissons Ratio (y) = 0.21748 0.16852
# Poissons Ratio (z) = 0.38139 0.26898
#
# Static dielectric constant tensor:
#      x y z
#    x 3.796360 0.000000 0.000000 
#    y 0.000000 3.509050 0.000000 
#    z 0.000000 0.000000 3.275730 
# 
# 
# High freq. dielectric constant tensor:
#      x y z
#    x 1.756950 0.000000 0.000000 
#    y 0.000000 1.710060 0.000000 
#    z 0.000000 0.000000 1.695720 
# 
# From -- ./inp_files/7228.got.cif
#   From: 2010.03.12/outbox.cif.g09.slc.cpg/sg73_4_cif.got.tgz:7228.got - 2010.04.16 15:25:48.
