data_PCOD8295828
_publ_section_title
;
Structure prediction by ZEFSAII (Michael W. Deem and Ramdas Pophale) SiO2 
 PCOD8295828
Probable space group: I B C A 
;
_chemical_formula_sum "Si O2"
_cell_formula_units_Z 88
_cell_length_a 9.387567
_cell_length_b 20.978852
_cell_length_c 23.217583
_cell_angle_alpha 90.000000
_cell_angle_beta 90.000000
_cell_angle_gamma 90.000000
_cell_volume 4572.479589
_symmetry_space_group_name_H-M "I B C A "
_symmetry_group_IT_number 73
_symmetry_cell_setting 'orthorhombic'
loop_
_space_group_symop_operation_xyz
x,y,z
-x,1/2-y,z
x,-y,1/2-z
1/2-x,y,-z
-x,-y,-z
x,1/2+y,-z
-x,y,1/2+z
1/2+x,-y,z
1/2+x,1/2+y,1/2+z
1/2-x,-y,1/2+z
1/2+x,1/2-y,-z
-x,1/2+y,1/2-z
1/2-x,1/2-y,1/2-z
1/2+x,y,1/2-z
1/2-x,1/2+y,z
x,1/2-y,1/2+z
loop_
_atom_site_type_symbol
_atom_site_label
_atom_site_fract_x
_atom_site_fract_y
_atom_site_fract_z
Si Si1 0.250000 0.660013 0.500000
Si Si2 0.432673 0.475612 0.558973
Si Si3 0.258863 0.306957 0.178485
Si Si4 0.296800 0.574735 0.397723
Si Si5 0.500000 0.750000 0.746457
Si Si6 0.148722 0.260845 0.577461
Si Si7 0.750000 0.129020 0.500000
O O1 0.329952 0.617284 0.453666
O O2 0.134227 0.706320 0.471316
O O3 0.500000 0.500000 0.500000
O O4 0.332831 0.527402 0.589527
O O5 0.553632 0.462926 0.607789
O O6 0.348315 0.412520 0.541479
O O7 0.260480 0.380513 0.156784
O O8 0.400034 0.296939 0.216231
O O9 0.109633 0.295311 0.211644
O O10 0.269444 0.256627 0.124741
O O11 0.166712 0.328733 0.547170
O O12 0.000000 0.250000 0.611224
#
# Coordination Sequence:
#
# PCOD8295828 Si02
#       7
#     8  16  16  16   8  16   8
#     4   9  17  32  50  80 129 153 192 230 274 345
#     4  12  21  36  54  86 127 175 198 223 268 346
#     4  10  23  40  67  89 114 149 194 264 308 364
#     4  11  22  37  58  86 123 165 200 234 284 350
#     4  10  22  46  64  92 108 142 200 260 340 342
#     4  10  20  33  54  91 120 160 191 235 301 353
#     4  11  23  32  56  88 135 169 192 228 274 365
#
# _framework density 19.245574999999999
#
# number of rings (size 3 to 8) (size 9 to 14) (size 15 to 20)
#    0.000    1.455    4.545    1.091    5.091    0.000 
#    3.273    0.000    0.000    3.273    0.000    0.000 
#    0.000    0.000    0.000    0.000    0.000    0.000 
#
# Total GULP energy -545099.202063 kJ/mol
# GULP energy per Si atom -12388.618229 kJ/mol
# Density = 1.920177 g / cm^3
# Si number density = 19.245575 Si / 1000 Ang^3
#
#
#
# Elastic Constant Matrix: (Units=GPa)
#
#
# Indices 1 2 3 4 5 6 
#
# 1 141.7786 69.2026 53.2339 0.0000 0.0000 0.0000
# 2 69.2026 132.1151 56.6328 0.0000 0.0000 0.0000
# 3 53.2339 56.6328 85.9054 0.0000 0.0000 0.0000
# 4 0.0000 0.0000 0.0000 22.8818 0.0000 0.0000
# 5 0.0000 0.0000 0.0000 0.0000 27.3175 0.0000
# 6 0.0000 0.0000 0.0000 0.0000 0.0000 20.9886
#
#
#
# Elastic Compliance Matrix: (Units=1/GPa)
#
#
# Indices 1 2 3 4 5 6 
#
# 1 0.010361 -0.003729 -0.003962 0.000000 0.000000 0.000000
# 2 -0.003729 0.011893 -0.005530 0.000000 0.000000 0.000000
# 3 -0.003962 -0.005530 0.017742 0.000000 0.000000 0.000000
# 4 0.000000 0.000000 0.000000 0.043703 0.000000 0.000000
# 5 0.000000 0.000000 0.000000 0.000000 0.036607 0.000000
# 6 0.000000 0.000000 0.000000 0.000000 0.000000 0.047645
#
#
# Mechanical properties :
#
#
# Convention : Reuss Voigt Hill
#
# Bulk Modulus (GPa) = 73.77993 79.77086 76.77539
# Shear Modulus (GPa) = 25.13718 26.28622 25.71170
#
# Velocity S-wave (km/s) = 3.61796 3.69973 3.65907
# Velocity P-wave (km/s) = 7.47477 7.73237 7.60466
#
# Compressibility (1/GPa) = 0.01355382
#
# Stress axis : x y z
#
# Youngs Moduli (GPa) = 96.51603 84.08636 56.36499
#
# Poissons Ratio (x) = 0.31352 0.22334
# Poissons Ratio (y) = 0.35987 0.31167
# Poissons Ratio (z) = 0.38244 0.46496
#
# Static dielectric constant tensor:
#      x y z
#    x 4.326930 0.000000 0.000000 
#    y 0.000000 3.700960 0.000000 
#    z 0.000000 0.000000 3.446130 
# 
# 
# High freq. dielectric constant tensor:
#      x y z
#    x 1.760390 0.000000 0.000000 
#    y 0.000000 1.749600 0.000000 
#    z 0.000000 0.000000 1.723780 
# 
# From -- ./inp_files/6328.got.cif
#   From: 2010.03.12/outbox.cif.g09.slc.cpg/sg73_4_cif.got.tgz:6328.got - 2010.04.16 15:25:48.
