data_PCOD8295592
_publ_section_title
;
Structure prediction by ZEFSAII (Michael W. Deem and Ramdas Pophale) SiO2 
 PCOD8295592
Probable space group: I B C A 
;
_chemical_formula_sum "Si O2"
_cell_formula_units_Z 120
_cell_length_a 19.068119
_cell_length_b 14.555220
_cell_length_c 23.314336
_cell_angle_alpha 90.000000
_cell_angle_beta 90.000000
_cell_angle_gamma 90.000000
_cell_volume 6470.676365
_symmetry_space_group_name_H-M "I B C A "
_symmetry_group_IT_number 73
_symmetry_cell_setting 'orthorhombic'
loop_
_space_group_symop_operation_xyz
x,y,z
-x,1/2-y,z
x,-y,1/2-z
1/2-x,y,-z
-x,-y,-z
x,1/2+y,-z
-x,y,1/2+z
1/2+x,-y,z
1/2+x,1/2+y,1/2+z
1/2-x,-y,1/2+z
1/2+x,1/2-y,-z
-x,1/2+y,1/2-z
1/2-x,1/2-y,1/2-z
1/2+x,y,1/2-z
1/2-x,1/2+y,z
x,1/2-y,1/2+z
loop_
_atom_site_type_symbol
_atom_site_label
_atom_site_fract_x
_atom_site_fract_y
_atom_site_fract_z
Si Si1 0.683966 0.600554 0.134253
Si Si2 0.204449 0.580840 0.946535
Si Si3 0.651585 0.566737 0.868408
Si Si4 0.326502 0.778418 0.026031
Si Si5 0.581496 0.767628 0.423222
Si Si6 0.834041 0.893139 0.127601
Si Si7 0.712242 0.345607 0.245788
Si Si8 0.676402 0.000000 0.250000
O O1 0.768142 0.599225 0.134266
O O2 0.658115 0.669305 0.085213
O O3 0.647443 0.501613 0.124254
O O4 0.664433 0.635985 0.197846
O O5 0.149170 0.506976 0.920886
O O6 0.162126 0.669462 0.967059
O O7 0.255705 0.618058 0.896807
O O8 0.250000 0.538142 0.000000
O O9 0.599945 0.653352 0.876741
O O10 0.629848 0.522836 0.806603
O O11 0.250000 0.802029 0.000000
O O12 0.386390 0.808788 0.981756
O O13 0.500000 0.750000 0.428635
O O14 0.613846 0.667964 0.409820
O O15 0.839581 0.852705 0.191706
O O16 0.750000 0.250000 0.250000
O O17 0.773417 0.417163 0.233294
#
# Coordination Sequence:
#
# PCOD8295592 Si02
#       8
#    16  16  16  16  16  16  16   8
#     4  10  20  32  60  94 119 149 190 263 305 350
#     4  10  18  31  58  89 118 148 190 254 300 350
#     4  10  20  34  58  87 122 153 200 251 310 360
#     4  11  20  36  58  87 117 156 207 245 303 357
#     4  12  26  41  58  85 122 170 203 247 300 376
#     4  11  19  36  55  86 122 151 198 242 302 359
#     4  11  18  30  56  93 126 148 183 252 318 356
#     4  10  18  34  52  96 124 146 192 252 306 354
#
# _framework density 18.545202
#
# number of rings (size 3 to 8) (size 9 to 14) (size 15 to 20)
#    0.000    1.333    8.000    2.400    3.733    0.000 
#    0.000    2.667    2.933    0.800    0.000    0.000 
#    0.000    0.000    0.000    0.000    0.000    0.000 
#
# Total GULP energy -743721.390566 kJ/mol
# GULP energy per Si atom -12395.356509 kJ/mol
# Density = 1.850299 g / cm^3
# Si number density = 18.545202 Si / 1000 Ang^3
#
#
#
# Elastic Constant Matrix: (Units=GPa)
#
#
# Indices 1 2 3 4 5 6 
#
# 1 64.0454 33.0708 27.9115 0.0000 0.0000 0.0000
# 2 33.0708 102.0946 38.3395 0.0000 0.0000 0.0000
# 3 27.9115 38.3395 141.2557 0.0000 0.0000 0.0000
# 4 0.0000 0.0000 0.0000 38.1147 0.0000 0.0000
# 5 0.0000 0.0000 0.0000 0.0000 11.1655 0.0000
# 6 0.0000 0.0000 0.0000 0.0000 0.0000 11.2131
#
#
#
# Elastic Compliance Matrix: (Units=1/GPa)
#
#
# Indices 1 2 3 4 5 6 
#
# 1 0.019440 -0.005405 -0.002374 0.000000 0.000000 0.000000
# 2 -0.005405 0.012410 -0.002300 0.000000 0.000000 0.000000
# 3 -0.002374 -0.002300 0.008173 0.000000 0.000000 0.000000
# 4 0.000000 0.000000 0.000000 0.026237 0.000000 0.000000
# 5 0.000000 0.000000 0.000000 0.000000 0.089561 0.000000
# 6 0.000000 0.000000 0.000000 0.000000 0.000000 0.089182
#
#
# Mechanical properties :
#
#
# Convention : Reuss Voigt Hill
#
# Bulk Modulus (GPa) = 50.34533 56.22660 53.28597
# Shear Modulus (GPa) = 18.39711 25.97026 22.18369
#
# Velocity S-wave (km/s) = 3.15304 3.74622 3.46236
# Velocity P-wave (km/s) = 6.36096 7.00690 6.69173
#
# Compressibility (1/GPa) = 0.01986281
#
# Stress axis : x y z
#
# Youngs Moduli (GPa) = 51.44105 80.58316 122.35774
#
# Poissons Ratio (x) = 0.43559 0.29048
# Poissons Ratio (y) = 0.27806 0.28143
# Poissons Ratio (z) = 0.12212 0.18535
#
# Static dielectric constant tensor:
#      x y z
#    x 2.687320 0.000000 0.000000 
#    y 0.000000 3.599470 0.000000 
#    z 0.000000 0.000000 3.974470 
# 
# 
# High freq. dielectric constant tensor:
#      x y z
#    x 1.626560 0.000000 0.000000 
#    y 0.000000 1.737820 0.000000 
#    z 0.000000 0.000000 1.747050 
# 
# From -- ./inp_files/29896.got.cif
#   From: 2010.03.12/outbox.cif.g09.slc.cpg/sg73_15_cif.got.tgz:29896.got - 2010.04.16 15:25:48.
