data_PCOD8295956
_publ_section_title
;
Structure prediction by ZEFSAII (Michael W. Deem and Ramdas Pophale) SiO2 
 PCOD8295956
Probable space group: I B C A 
;
_chemical_formula_sum "Si O2"
_cell_formula_units_Z 88
_cell_length_a 15.691327
_cell_length_b 11.482075
_cell_length_c 23.070460
_cell_angle_alpha 90.000000
_cell_angle_beta 90.000000
_cell_angle_gamma 90.000000
_cell_volume 4156.581557
_symmetry_space_group_name_H-M "I B C A "
_symmetry_group_IT_number 73
_symmetry_cell_setting 'orthorhombic'
loop_
_space_group_symop_operation_xyz
x,y,z
-x,1/2-y,z
x,-y,1/2-z
1/2-x,y,-z
-x,-y,-z
x,1/2+y,-z
-x,y,1/2+z
1/2+x,-y,z
1/2+x,1/2+y,1/2+z
1/2-x,-y,1/2+z
1/2+x,1/2-y,-z
-x,1/2+y,1/2-z
1/2-x,1/2-y,1/2-z
1/2+x,y,1/2-z
1/2-x,1/2+y,z
x,1/2-y,1/2+z
loop_
_atom_site_type_symbol
_atom_site_label
_atom_site_fract_x
_atom_site_fract_y
_atom_site_fract_z
Si Si1 0.594140 0.492419 0.077501
Si Si2 0.309775 0.000000 0.750000
Si Si3 0.312374 0.878589 0.170499
Si Si4 0.557683 0.859135 0.467274
Si Si5 0.172560 0.767178 0.615291
Si Si6 0.597063 0.235530 0.237114
O O1 0.608417 0.576653 0.132282
O O2 0.500971 0.433668 0.077166
O O3 0.668812 0.394499 0.084544
O O4 0.598805 0.565430 0.018509
O O5 0.253468 0.979898 0.808774
O O6 0.370610 0.889646 0.741565
O O7 0.266167 0.774457 0.134704
O O8 0.347108 0.831554 0.230742
O O9 0.500000 0.750000 0.490258
O O10 0.640619 0.823298 0.432429
O O11 0.107834 0.762211 0.669364
O O12 0.500000 0.250000 0.255378
#
# Coordination Sequence:
#
# PCOD8295956 Si02
#       6
#    16   8  16  16  16  16
#     4  10  20  38  61  84 115 155 193 247 297 339
#     4  10  22  40  58  86 124 158 192 242 302 356
#     4  11  22  37  61  90 121 156 197 243 293 357
#     4   9  20  39  62  86 114 153 200 242 294 355
#     4  10  21  40  60  85 119 156 195 238 300 359
#     4  11  23  38  61  92 122 157 200 241 294 362
#
# _framework density 21.171243
#
# number of rings (size 3 to 8) (size 9 to 14) (size 15 to 20)
#    0.000    1.818    0.000    6.000    0.000    6.545 
#    0.000   16.364    0.000    0.000    0.000    0.000 
#    0.000    0.000    0.000    0.000    0.000    0.000 
#
# Total GULP energy -545362.200100 kJ/mol
# GULP energy per Si atom -12394.595457 kJ/mol
# Density = 2.112306 g / cm^3
# Si number density = 21.171243 Si / 1000 Ang^3
#
#
#
# Elastic Constant Matrix: (Units=GPa)
#
#
# Indices 1 2 3 4 5 6 
#
# 1 73.1217 43.2415 32.8984 0.0000 0.0000 0.0000
# 2 43.2415 115.2942 64.4197 0.0000 0.0000 0.0000
# 3 32.8984 64.4197 88.5961 0.0000 0.0000 0.0000
# 4 0.0000 0.0000 0.0000 40.1608 0.0000 0.0000
# 5 0.0000 0.0000 0.0000 0.0000 32.7956 0.0000
# 6 0.0000 0.0000 0.0000 0.0000 0.0000 19.3769
#
#
#
# Elastic Compliance Matrix: (Units=1/GPa)
#
#
# Indices 1 2 3 4 5 6 
#
# 1 0.018033 -0.005090 -0.002995 0.000000 0.000000 0.000000
# 2 -0.005090 0.016045 -0.009777 0.000000 0.000000 0.000000
# 3 -0.002995 -0.009777 0.019508 0.000000 0.000000 0.000000
# 4 0.000000 0.000000 0.000000 0.024900 0.000000 0.000000
# 5 0.000000 0.000000 0.000000 0.000000 0.030492 0.000000
# 6 0.000000 0.000000 0.000000 0.000000 0.000000 0.051608
#
#
# Mechanical properties :
#
#
# Convention : Reuss Voigt Hill
#
# Bulk Modulus (GPa) = 55.98190 62.01457 58.99823
# Shear Modulus (GPa) = 24.72011 27.56349 26.14180
#
# Velocity S-wave (km/s) = 3.42076 3.61214 3.51775
# Velocity P-wave (km/s) = 6.48860 6.83756 6.66537
#
# Compressibility (1/GPa) = 0.01786292
#
# Stress axis : x y z
#
# Youngs Moduli (GPa) = 55.45244 62.32468 51.26042
#
# Poissons Ratio (x) = 0.31722 0.15355
# Poissons Ratio (y) = 0.28224 0.50115
# Poissons Ratio (z) = 0.16611 0.60932
#
# Static dielectric constant tensor:
#      x y z
#    x 3.627010 0.000000 0.000000 
#    y 0.000000 4.046700 0.000000 
#    z 0.000000 0.000000 3.697860 
# 
# 
# High freq. dielectric constant tensor:
#      x y z
#    x 1.812920 0.000000 0.000000 
#    y 0.000000 1.841850 0.000000 
#    z 0.000000 0.000000 1.825210 
# 
# From -- ./inp_files/10947.got.cif
#   From: 2010.03.12/outbox.cif.g09.slc.cpg/sg73_6_cif.got.tgz:10947.got - 2010.04.16 15:25:48.
