data_PCOD8295936
_publ_section_title
;
Structure prediction by ZEFSAII (Michael W. Deem and Ramdas Pophale) SiO2 
 PCOD8295936
Probable space group: I B C A 
;
_chemical_formula_sum "Si O2"
_cell_formula_units_Z 64
_cell_length_a 16.071016
_cell_length_b 9.935938
_cell_length_c 17.574136
_cell_angle_alpha 90.000000
_cell_angle_beta 90.000000
_cell_angle_gamma 90.000000
_cell_volume 2806.248907
_symmetry_space_group_name_H-M "I B C A "
_symmetry_group_IT_number 73
_symmetry_cell_setting 'orthorhombic'
loop_
_space_group_symop_operation_xyz
x,y,z
-x,1/2-y,z
x,-y,1/2-z
1/2-x,y,-z
-x,-y,-z
x,1/2+y,-z
-x,y,1/2+z
1/2+x,-y,z
1/2+x,1/2+y,1/2+z
1/2-x,-y,1/2+z
1/2+x,1/2-y,-z
-x,1/2+y,1/2-z
1/2-x,1/2-y,1/2-z
1/2+x,y,1/2-z
1/2-x,1/2+y,z
x,1/2-y,1/2+z
loop_
_atom_site_type_symbol
_atom_site_label
_atom_site_fract_x
_atom_site_fract_y
_atom_site_fract_z
Si Si1 0.504463 0.904072 0.681963
Si Si2 0.792349 0.283909 0.919907
Si Si3 0.166842 0.993930 0.109649
Si Si4 0.085688 0.507249 0.042712
O O1 0.500000 0.750000 0.709553
O O2 0.575542 0.910606 0.616163
O O3 0.533828 0.000000 0.750000
O O4 0.416347 0.960104 0.652008
O O5 0.800285 0.153334 0.864354
O O6 0.737225 0.395118 0.875629
O O7 0.886251 0.342999 0.931223
O O8 0.750000 0.248483 0.000000
O O9 0.154573 0.962665 0.018791
O O10 0.000000 0.500000 0.000000
#
# Coordination Sequence:
#
# PCOD8295936 Si02
#       4
#    16  16  16  16
#     4  11  27  45  65  92 132 177 229 274 329 389
#     4  10  20  37  65 101 136 165 210 268 335 392
#     4  10  23  40  68 100 131 168 217 272 335 399
#     4   9  21  37  67  97 129 163 217 274 328 384
#
# _framework density 22.806245000000001
#
# number of rings (size 3 to 8) (size 9 to 14) (size 15 to 20)
#    0.000    2.000    0.000    2.250   17.500    2.000 
#    0.000    2.500    0.000    0.000    0.000    0.000 
#    0.000    0.000    0.000    0.000    0.000    0.000 
#
# Total GULP energy -396471.240385 kJ/mol
# GULP energy per Si atom -12389.726262 kJ/mol
# Density = 2.275434 g / cm^3
# Si number density = 22.806245 Si / 1000 Ang^3
#
#
#
# Elastic Constant Matrix: (Units=GPa)
#
#
# Indices 1 2 3 4 5 6 
#
# 1 94.8682 42.6421 9.9498 0.0000 0.0000 0.0000
# 2 42.6421 164.7980 24.3539 0.0000 0.0000 0.0000
# 3 9.9498 24.3539 77.9778 0.0000 0.0000 0.0000
# 4 0.0000 0.0000 0.0000 23.4673 0.0000 0.0000
# 5 0.0000 0.0000 0.0000 0.0000 8.1911 0.0000
# 6 0.0000 0.0000 0.0000 0.0000 0.0000 41.7959
#
#
#
# Elastic Compliance Matrix: (Units=1/GPa)
#
#
# Indices 1 2 3 4 5 6 
#
# 1 0.011954 -0.003006 -0.000586 0.000000 0.000000 0.000000
# 2 -0.003006 0.007118 -0.001839 0.000000 0.000000 0.000000
# 3 -0.000586 -0.001839 0.013473 0.000000 0.000000 0.000000
# 4 0.000000 0.000000 0.000000 0.042613 0.000000 0.000000
# 5 0.000000 0.000000 0.000000 0.000000 0.122084 0.000000
# 6 0.000000 0.000000 0.000000 0.000000 0.000000 0.023926
#
#
# Mechanical properties :
#
#
# Convention : Reuss Voigt Hill
#
# Bulk Modulus (GPa) = 46.12392 54.61506 50.36949
# Shear Modulus (GPa) = 20.89788 32.07072 26.48430
#
# Velocity S-wave (km/s) = 3.03037 3.75404 3.41144
# Velocity P-wave (km/s) = 5.70196 6.54139 6.13604
#
# Compressibility (1/GPa) = 0.02168073
#
# Stress axis : x y z
#
# Youngs Moduli (GPa) = 83.65549 140.49302 74.22001
#
# Poissons Ratio (x) = 0.42238 0.04352
# Poissons Ratio (y) = 0.25151 0.13652
# Poissons Ratio (z) = 0.04905 0.25842
#
# Static dielectric constant tensor:
#      x y z
#    x 4.263700 0.000000 0.000000 
#    y 0.000000 3.954240 0.000000 
#    z 0.000000 0.000000 4.139660 
# 
# 
# High freq. dielectric constant tensor:
#      x y z
#    x 1.904770 0.000000 0.000000 
#    y 0.000000 1.909580 0.000000 
#    z 0.000000 0.000000 1.856820 
# 
# From -- ./inp_files/5191.got.cif
#   From: 2010.03.12/outbox.cif.g09.slc.cpg/sg73_3_cif.got.tgz:5191.got - 2010.04.16 15:25:48.
