data_PCOD8295128
_publ_section_title
;
Structure prediction by ZEFSAII (Michael W. Deem and Ramdas Pophale) SiO2 
 PCOD8295128
Probable space group: I B A M
;
_chemical_formula_sum "Si O2"
_cell_formula_units_Z 64
_cell_length_a 19.775568
_cell_length_b 8.065315
_cell_length_c 18.779585
_cell_angle_alpha 90.000000
_cell_angle_beta 90.000000
_cell_angle_gamma 90.000000
_cell_volume 2995.272168
_symmetry_space_group_name_H-M "I B A M"
_symmetry_group_IT_number 72
_symmetry_cell_setting 'orthorhombic'
loop_
_space_group_symop_operation_xyz
x,y,z
-x,-y,z
x,-y,1/2-z
-x,y,1/2-z
-x,-y,-z
x,y,-z
-x,y,1/2+z
x,-y,1/2+z
1/2+x,1/2+y,1/2+z
1/2-x,1/2-y,1/2+z
1/2+x,1/2-y,-z
1/2-x,1/2+y,-z
1/2-x,1/2-y,1/2-z
1/2+x,1/2+y,1/2-z
1/2-x,1/2+y,z
1/2+x,1/2-y,z
loop_
_atom_site_type_symbol
_atom_site_label
_atom_site_fract_x
_atom_site_fract_y
_atom_site_fract_z
Si Si1 0.926544 0.149513 0.304649
Si Si2 0.827674 0.396530 0.920040
Si Si3 0.682422 0.713952 0.581238
Si Si4 0.452980 0.159879 0.825539
O O1 0.870117 0.130106 0.364913
O O2 0.923835 0.321970 0.256071
O O3 0.001104 0.172608 0.340306
O O4 0.918984 0.000000 0.250000
O O5 0.756927 0.328632 0.889301
O O6 0.829319 0.592505 0.916245
O O7 0.890310 0.324040 0.877731
O O8 0.835428 0.330745 0.000000
O O9 0.673067 0.646255 0.500000
O O10 0.500000 0.000000 0.840177
#
# Coordination Sequence:
#
# PCOD8295128 Si02
#       4
#    16  16  16  16
#     4  11  24  42  63  96 132 168 212 267 320 381
#     4  10  23  42  67  97 129 170 217 265 319 382
#     4  10  23  44  67  94 130 168 214 267 321 383
#     4  11  22  41  66  92 130 169 213 264 319 380
#
# _framework density 21.367007000000001
#
# number of rings (size 3 to 8) (size 9 to 14) (size 15 to 20)
#    0.000    1.500    2.500    3.000    3.500    2.500 
#    0.000    0.000    0.000    9.000    0.000    0.000 
#    0.000    0.000    0.000    0.000    0.000    0.000 
#
# Total GULP energy -396473.697640 kJ/mol
# GULP energy per Si atom -12389.803051 kJ/mol
# Density = 2.131838 g / cm^3
# Si number density = 21.367007 Si / 1000 Ang^3
#
#
#
# Elastic Constant Matrix: (Units=GPa)
#
#
# Indices 1 2 3 4 5 6 
#
# 1 206.0396 35.2882 118.2088 0.0000 0.0000 0.0000
# 2 35.2882 45.7807 33.6899 0.0000 0.0000 0.0000
# 3 118.2088 33.6899 107.1987 0.0000 0.0000 0.0000
# 4 0.0000 0.0000 0.0000 29.5879 0.0000 0.0000
# 5 0.0000 0.0000 0.0000 0.0000 -200.8968 0.0000
# 6 0.0000 0.0000 0.0000 0.0000 0.0000 38.1043
#
#
#
# Elastic Compliance Matrix: (Units=1/GPa)
#
#
# Indices 1 2 3 4 5 6 
#
# 1 0.013229 0.000700 -0.014808 0.000000 0.000000 0.000000
# 2 0.000700 0.028452 -0.009714 0.000000 0.000000 0.000000
# 3 -0.014808 -0.009714 0.028710 0.000000 0.000000 0.000000
# 4 0.000000 0.000000 0.000000 0.033798 0.000000 0.000000
# 5 0.000000 0.000000 0.000000 0.000000 -0.004978 0.000000
# 6 0.000000 0.000000 0.000000 0.000000 0.000000 0.026244
#
#
# Mechanical properties :
#
#
# Convention : Reuss Voigt Hill
#
# Bulk Modulus (GPa) = 43.95979 81.48809 62.72394
# Shear Modulus (GPa) = 27.67327 -15.18544 6.24391
#
# Velocity S-wave (km/s) = 3.60271 -2.66878 1.71131
# Velocity P-wave (km/s) = 6.15828 5.35944 5.77269
#
# Compressibility (1/GPa) = 0.02274806
#
# Stress axis : x y z
#
# Youngs Moduli (GPa) = 75.59136 35.14694 34.83134
#
# Poissons Ratio (x) = -0.02460 0.51577
# Poissons Ratio (y) = -0.05291 0.33834
# Poissons Ratio (z) = 1.11933 0.34140
#
# Static dielectric constant tensor:
#      x y z
#    x 4.372790 0.000000 0.000000 
#    y 0.000000 4.172750 0.000000 
#    z 0.000000 0.000000 3.983220 
# 
# 
# High freq. dielectric constant tensor:
#      x y z
#    x 1.844120 0.000000 0.000000 
#    y 0.000000 1.847860 0.000000 
#    z 0.000000 0.000000 1.822890 
# 
# From -- ./inp_files/44646.got.cif
#   From: 2010.03.12/outbox.cif.g09.slc.cpg/sg72_23_cif.got.tgz:44646.got - 2010.04.16 14:54:00.
