data_PCOD8295064
_publ_section_title
;
Structure prediction by ZEFSAII (Michael W. Deem and Ramdas Pophale) SiO2 
 PCOD8295064
Probable space group: I B A M
;
_chemical_formula_sum "Si O2"
_cell_formula_units_Z 96
_cell_length_a 10.772386
_cell_length_b 23.955826
_cell_length_c 16.926720
_cell_angle_alpha 90.000000
_cell_angle_beta 90.000000
_cell_angle_gamma 90.000000
_cell_volume 4368.133139
_symmetry_space_group_name_H-M "I B A M"
_symmetry_group_IT_number 72
_symmetry_cell_setting 'orthorhombic'
loop_
_space_group_symop_operation_xyz
x,y,z
-x,-y,z
x,-y,1/2-z
-x,y,1/2-z
-x,-y,-z
x,y,-z
-x,y,1/2+z
x,-y,1/2+z
1/2+x,1/2+y,1/2+z
1/2-x,1/2-y,1/2+z
1/2+x,1/2-y,-z
1/2-x,1/2+y,-z
1/2-x,1/2-y,1/2-z
1/2+x,1/2+y,1/2-z
1/2-x,1/2+y,z
1/2+x,1/2-y,z
loop_
_atom_site_type_symbol
_atom_site_label
_atom_site_fract_x
_atom_site_fract_y
_atom_site_fract_z
Si Si1 0.450609 0.209244 0.409585
Si Si2 0.769068 0.857343 0.651518
Si Si3 0.786665 0.089369 0.589767
Si Si4 0.112785 0.643285 0.199433
Si Si5 0.144318 0.016026 0.335221
Si Si6 0.527789 0.677197 0.342437
O O1 0.496334 0.212584 0.500000
O O2 0.345151 0.161155 0.404169
O O3 0.563329 0.197257 0.348451
O O4 0.400044 0.269328 0.378787
O O5 0.727947 0.841982 0.742168
O O6 0.811325 0.921794 0.644329
O O7 0.888715 0.823430 0.621131
O O8 0.781631 0.109348 0.500000
O O9 0.655765 0.100935 0.632039
O O10 0.897366 0.121657 0.634733
O O11 0.802523 0.023045 0.595473
O O12 0.000000 0.616289 0.250000
O O13 0.202159 0.000000 0.250000
O O14 0.000000 0.000000 0.333030
O O15 0.500000 0.677505 0.250000
#
# Coordination Sequence:
#
# PCOD8295064 Si02
#       6
#    16  16  16  16  16  16
#     4  11  27  44  64  99 145 186 229 293 347 402
#     4  11  23  44  72 101 133 180 237 284 343 420
#     4  12  25  41  69 108 142 174 226 298 359 408
#     4  10  22  45  69  96 128 187 237 277 337 414
#     4  11  21  42  72 102 137 179 230 281 347 424
#     4  12  23  43  71 101 136 183 235 278 351 428
#
# _framework density 21.977352
#
# number of rings (size 3 to 8) (size 9 to 14) (size 15 to 20)
#    0.000    0.833    5.000    2.500    2.333    3.667 
#    0.000    5.833    0.000    5.000    0.000    0.000 
#    0.000    0.000    0.000    0.000    0.000    0.000 
#
# Total GULP energy -594761.976577 kJ/mol
# GULP energy per Si atom -12390.874512 kJ/mol
# Density = 2.192733 g / cm^3
# Si number density = 21.977352 Si / 1000 Ang^3
#
#
#
# Elastic Constant Matrix: (Units=GPa)
#
#
# Indices 1 2 3 4 5 6 
#
# 1 90.1972 43.7312 42.4033 0.0000 0.0000 0.0000
# 2 43.7312 133.5060 41.7043 0.0000 0.0000 0.0000
# 3 42.4033 41.7043 141.7062 0.0000 -0.0001 0.0000
# 4 0.0000 0.0000 0.0000 29.1095 0.0000 0.0000
# 5 0.0000 0.0000 -0.0001 0.0000 16.6590 0.0000
# 6 0.0000 0.0000 0.0000 0.0000 0.0000 32.7319
#
#
#
# Elastic Compliance Matrix: (Units=1/GPa)
#
#
# Indices 1 2 3 4 5 6 
#
# 1 0.014398 -0.003712 -0.003216 0.000000 0.000000 0.000000
# 2 -0.003712 0.009205 -0.001599 0.000000 0.000000 0.000000
# 3 -0.003216 -0.001599 0.008490 0.000000 0.000000 0.000000
# 4 0.000000 0.000000 0.000000 0.034353 0.000000 0.000000
# 5 0.000000 0.000000 0.000000 0.000000 0.060027 0.000000
# 6 0.000000 0.000000 0.000000 0.000000 0.000000 0.030551
#
#
# Mechanical properties :
#
#
# Convention : Reuss Voigt Hill
#
# Bulk Modulus (GPa) = 66.48571 69.00970 67.74770
# Shear Modulus (GPa) = 27.91870 31.53812 29.72841
#
# Velocity S-wave (km/s) = 3.56805 3.79229 3.68188
# Velocity P-wave (km/s) = 6.87693 7.11644 6.99771
#
# Compressibility (1/GPa) = 0.01504083
#
# Stress axis : x y z
#
# Youngs Moduli (GPa) = 69.45241 108.63140 117.79019
#
# Poissons Ratio (x) = 0.40320 0.37883
# Poissons Ratio (y) = 0.25779 0.18829
# Poissons Ratio (z) = 0.22337 0.17365
#
# Static dielectric constant tensor:
#      x y z
#    x 4.174050 0.000000 0.000000 
#    y 0.000000 3.831730 0.000000 
#    z 0.000000 0.000000 3.929070 
# 
# 
# High freq. dielectric constant tensor:
#      x y z
#    x 1.862640 0.000000 0.000000 
#    y 0.000000 1.855240 0.000000 
#    z 0.000000 0.000000 1.861930 
# 
# From -- ./inp_files/29485.got.cif
#   From: 2010.03.12/outbox.cif.g09.slc.cpg/sg72_15_cif.got.tgz:29485.got - 2010.04.16 14:54:00.
