data_PCOD8295157
_publ_section_title
;
Structure prediction by ZEFSAII (Michael W. Deem and Ramdas Pophale) SiO2 
 PCOD8295157
Probable space group: I B A M
;
_chemical_formula_sum "Si O2"
_cell_formula_units_Z 52
_cell_length_a 4.749644
_cell_length_b 25.041812
_cell_length_c 18.689166
_cell_angle_alpha 90.000000
_cell_angle_beta 90.000000
_cell_angle_gamma 90.000000
_cell_volume 2222.883650
_symmetry_space_group_name_H-M "I B A M"
_symmetry_group_IT_number 72
_symmetry_cell_setting 'orthorhombic'
loop_
_space_group_symop_operation_xyz
x,y,z
-x,-y,z
x,-y,1/2-z
-x,y,1/2-z
-x,-y,-z
x,y,-z
-x,y,1/2+z
x,-y,1/2+z
1/2+x,1/2+y,1/2+z
1/2-x,1/2-y,1/2+z
1/2+x,1/2-y,-z
1/2-x,1/2+y,-z
1/2-x,1/2-y,1/2-z
1/2+x,1/2+y,1/2-z
1/2-x,1/2+y,z
1/2+x,1/2-y,z
loop_
_atom_site_type_symbol
_atom_site_label
_atom_site_fract_x
_atom_site_fract_y
_atom_site_fract_z
Si Si1 0.500000 0.000000 0.750000
Si Si2 0.165249 0.949128 0.373632
Si Si3 0.462883 0.786572 0.330403
Si Si4 0.334029 0.884983 0.919165
O O1 0.707815 0.037506 0.704263
O O2 0.429783 0.931583 0.421621
O O3 0.933394 0.901866 0.370406
O O4 0.000000 0.000000 0.407228
O O5 0.500000 0.809284 0.250000
O O6 0.145468 0.766994 0.342765
O O7 0.529321 0.832085 0.387095
O O8 0.230899 0.874304 0.000000
#
# Coordination Sequence:
#
# PCOD8295157 Si02
#       4
#     4  16  16  16
#     4  12  26  48  68 104 130 192 232 296 346 396
#     4  12  26  45  70 100 141 181 237 285 345 413
#     4  10  23  44  69 100 135 177 231 291 345 404
#     4  12  27  44  70 105 141 189 231 283 359 422
#
# _framework density 23.393035999999999
#
# number of rings (size 3 to 8) (size 9 to 14) (size 15 to 20)
#    0.000    0.615    3.077    3.231    2.154    4.923 
#    0.000    0.000    0.000    0.000    0.000    0.000 
#    0.000    0.000    0.000    0.000    0.000    0.000 
#
# Total GULP energy -322396.932739 kJ/mol
# GULP energy per Si atom -12399.882028 kJ/mol
# Density = 2.333979 g / cm^3
# Si number density = 23.393036 Si / 1000 Ang^3
#
#
#
# Elastic Constant Matrix: (Units=GPa)
#
#
# Indices 1 2 3 4 5 6 
#
# 1 121.3014 24.0734 41.8524 0.0000 0.0000 0.0000
# 2 24.0734 84.0202 65.8804 0.0000 0.0000 0.0000
# 3 41.8524 65.8804 128.1837 0.0000 0.0000 0.0000
# 4 0.0000 0.0000 0.0000 11.2488 0.0000 0.0000
# 5 0.0000 0.0000 0.0000 0.0000 30.7854 0.0000
# 6 0.0000 0.0000 0.0000 0.0000 0.0000 29.0298
#
#
#
# Elastic Compliance Matrix: (Units=1/GPa)
#
#
# Indices 1 2 3 4 5 6 
#
# 1 0.009302 -0.000475 -0.002793 0.000000 0.000000 0.000000
# 2 -0.000475 0.019960 -0.010103 0.000000 0.000000 0.000000
# 3 -0.002793 -0.010103 0.013906 0.000000 0.000000 0.000000
# 4 0.000000 0.000000 0.000000 0.088898 0.000000 0.000000
# 5 0.000000 0.000000 0.000000 0.000000 0.032483 0.000000
# 6 0.000000 0.000000 0.000000 0.000000 0.000000 0.034447
#
#
# Mechanical properties :
#
#
# Convention : Reuss Voigt Hill
#
# Bulk Modulus (GPa) = 60.88341 66.34642 63.61492
# Shear Modulus (GPa) = 21.62495 27.65941 24.64218
#
# Velocity S-wave (km/s) = 3.04372 3.44230 3.24913
# Velocity P-wave (km/s) = 6.19961 6.65000 6.42875
#
# Compressibility (1/GPa) = 0.01642484
#
# Stress axis : x y z
#
# Youngs Moduli (GPa) = 107.50543 50.09965 71.91216
#
# Poissons Ratio (x) = 0.02381 0.20084
# Poissons Ratio (y) = 0.05110 0.72656
# Poissons Ratio (z) = 0.30024 0.50618
#
# Static dielectric constant tensor:
#      x y z
#    x 4.658230 0.000000 0.000000 
#    y 0.000000 4.023250 0.000000 
#    z 0.000000 0.000000 3.871140 
# 
# 
# High freq. dielectric constant tensor:
#      x y z
#    x 1.957010 0.000000 0.000000 
#    y 0.000000 1.917450 0.000000 
#    z 0.000000 0.000000 1.901400 
# 
# From -- ./inp_files/34588.got.cif
#   From: 2010.03.12/outbox.cif.g09.slc.cpg/sg72_18_cif.got.tgz:34588.got - 2010.04.16 14:54:00.
