data_PCOD8295626
_publ_section_title
;
Structure prediction by ZEFSAII (Michael W. Deem and Ramdas Pophale) SiO2 
 PCOD8295626
Probable space group: I B C A 
;
_chemical_formula_sum "Si O2"
_cell_formula_units_Z 88
_cell_length_a 13.539778
_cell_length_b 13.833363
_cell_length_c 23.901978
_cell_angle_alpha 90.000000
_cell_angle_beta 90.000000
_cell_angle_gamma 90.000000
_cell_volume 4476.856351
_symmetry_space_group_name_H-M "I B C A "
_symmetry_group_IT_number 73
_symmetry_cell_setting 'orthorhombic'
loop_
_space_group_symop_operation_xyz
x,y,z
-x,1/2-y,z
x,-y,1/2-z
1/2-x,y,-z
-x,-y,-z
x,1/2+y,-z
-x,y,1/2+z
1/2+x,-y,z
1/2+x,1/2+y,1/2+z
1/2-x,-y,1/2+z
1/2+x,1/2-y,-z
-x,1/2+y,1/2-z
1/2-x,1/2-y,1/2-z
1/2+x,y,1/2-z
1/2-x,1/2+y,z
x,1/2-y,1/2+z
loop_
_atom_site_type_symbol
_atom_site_label
_atom_site_fract_x
_atom_site_fract_y
_atom_site_fract_z
Si Si1 0.976970 0.362842 0.375904
Si Si2 0.380662 0.495762 0.684042
Si Si3 0.812900 0.996833 0.882394
Si Si4 0.496090 0.135088 0.886093
Si Si5 0.037770 0.143762 0.991859
Si Si6 0.250000 0.569554 0.000000
O O1 0.046727 0.407653 0.329073
O O2 0.003782 0.413163 0.436122
O O3 0.000000 0.250000 0.372651
O O4 0.863524 0.398470 0.368023
O O5 0.376345 0.500000 0.750000
O O6 0.271618 0.475885 0.662089
O O7 0.420173 0.593380 0.654509
O O8 0.767503 0.997328 0.945312
O O9 0.889515 0.909262 0.871052
O O10 0.500000 0.250000 0.879124
O O11 0.514599 0.105813 0.951532
O O12 0.000000 0.250000 0.979888
O O13 0.156409 0.140441 0.994156
#
# Coordination Sequence:
#
# PCOD8295626 Si02
#       6
#    16  16  16  16  16   8
#     4  10  22  41  61  91 124 157 199 251 303 358
#     4  11  24  41  61  87 122 161 208 248 296 361
#     4  10  22  36  61  89 121 159 203 249 300 360
#     4   9  21  40  62  89 122 159 197 249 305 360
#     4   9  18  36  60  94 127 152 192 249 301 366
#     4  10  18  34  62  88 126 162 194 248 306 358
#
# _framework density 19.656649999999999
#
# number of rings (size 3 to 8) (size 9 to 14) (size 15 to 20)
#    0.000    2.182    1.818    0.000    2.545    7.273 
#    9.818    1.818    0.000    0.000    0.000    0.000 
#    0.000    0.000    0.000    0.000    0.000    0.000 
#
# Total GULP energy -545167.611205 kJ/mol
# GULP energy per Si atom -12390.172982 kJ/mol
# Density = 1.961191 g / cm^3
# Si number density = 19.656650 Si / 1000 Ang^3
#
#
#
# Elastic Constant Matrix: (Units=GPa)
#
#
# Indices 1 2 3 4 5 6 
#
# 1 102.5525 23.2489 49.9904 0.0000 0.0000 0.0000
# 2 23.2489 97.4397 20.1673 0.0000 0.0000 0.0000
# 3 49.9904 20.1673 144.3371 0.0000 0.0000 0.0000
# 4 0.0000 0.0000 0.0000 15.5923 0.0000 0.0000
# 5 0.0000 0.0000 0.0000 0.0000 3.4389 0.0000
# 6 0.0000 0.0000 0.0000 0.0000 0.0000 10.5677
#
#
#
# Elastic Compliance Matrix: (Units=1/GPa)
#
#
# Indices 1 2 3 4 5 6 
#
# 1 0.012130 -0.002085 -0.003910 0.000000 0.000000 0.000000
# 2 -0.002085 0.010927 -0.000805 0.000000 0.000000 0.000000
# 3 -0.003910 -0.000805 0.008395 0.000000 0.000000 0.000000
# 4 0.000000 0.000000 0.000000 0.064134 0.000000 0.000000
# 5 0.000000 0.000000 0.000000 0.000000 0.290795 0.000000
# 6 0.000000 0.000000 0.000000 0.000000 0.000000 0.094628
#
#
# Mechanical properties :
#
#
# Convention : Reuss Voigt Hill
#
# Bulk Modulus (GPa) = 56.01418 59.01584 57.51501
# Shear Modulus (GPa) = 9.98886 22.64794 16.31840
#
# Velocity S-wave (km/s) = 2.25670 3.39806 2.88440
# Velocity P-wave (km/s) = 5.94545 6.74420 6.35738
#
# Compressibility (1/GPa) = 0.01785262
#
# Stress axis : x y z
#
# Youngs Moduli (GPa) = 82.44297 91.51853 119.12184
#
# Poissons Ratio (x) = 0.19081 0.46573
# Poissons Ratio (y) = 0.17188 0.09585
# Poissons Ratio (z) = 0.32233 0.07364
#
# Static dielectric constant tensor:
#      x y z
#    x 3.643790 0.000000 0.000000 
#    y 0.000000 3.516370 0.000000 
#    z 0.000000 0.000000 3.692350 
# 
# 
# High freq. dielectric constant tensor:
#      x y z
#    x 1.769300 0.000000 0.000000 
#    y 0.000000 1.757020 0.000000 
#    z 0.000000 0.000000 1.763130 
# 
# From -- ./inp_files/16230.got.cif
#   From: 2010.03.12/outbox.cif.g09.slc.cpg/sg73_9_cif.got.tgz:16230.got - 2010.04.16 15:25:48.
