data_PCOD8295757
_publ_section_title
;
Structure prediction by ZEFSAII (Michael W. Deem and Ramdas Pophale) SiO2 
 PCOD8295757
Probable space group: I B C A 
;
_chemical_formula_sum "Si O2"
_cell_formula_units_Z 96
_cell_length_a 23.857802
_cell_length_b 23.287834
_cell_length_c 8.654129
_cell_angle_alpha 90.000000
_cell_angle_beta 90.000000
_cell_angle_gamma 90.000000
_cell_volume 4808.204065
_symmetry_space_group_name_H-M "I B C A "
_symmetry_group_IT_number 73
_symmetry_cell_setting 'orthorhombic'
loop_
_space_group_symop_operation_xyz
x,y,z
-x,1/2-y,z
x,-y,1/2-z
1/2-x,y,-z
-x,-y,-z
x,1/2+y,-z
-x,y,1/2+z
1/2+x,-y,z
1/2+x,1/2+y,1/2+z
1/2-x,-y,1/2+z
1/2+x,1/2-y,-z
-x,1/2+y,1/2-z
1/2-x,1/2-y,1/2-z
1/2+x,y,1/2-z
1/2-x,1/2+y,z
x,1/2-y,1/2+z
loop_
_atom_site_type_symbol
_atom_site_label
_atom_site_fract_x
_atom_site_fract_y
_atom_site_fract_z
Si Si1 0.300777 0.548177 0.122877
Si Si2 0.005880 0.000000 0.750000
Si Si3 0.925996 0.558735 0.479414
Si Si4 0.000000 0.750000 0.800602
Si Si5 0.563161 0.690061 0.442373
Si Si6 0.716082 0.324789 0.783021
Si Si7 0.679921 0.272396 0.093271
O O1 0.289096 0.500000 0.250000
O O2 0.361535 0.537963 0.043716
O O3 0.301882 0.609100 0.212030
O O4 0.250000 0.546743 0.000000
O O5 0.964504 0.046024 0.669899
O O6 0.047402 0.971805 0.627191
O O7 0.926287 0.625810 0.507316
O O8 0.016096 0.803847 0.690160
O O9 0.050292 0.727543 0.906316
O O10 0.616673 0.717057 0.357663
O O11 0.782585 0.317884 0.809199
O O12 0.697445 0.294234 0.623242
O O13 0.685688 0.286121 0.912787
#
# Coordination Sequence:
#
# PCOD8295757 Si02
#       7
#    16   8  16   8  16  16  16
#     4  12  25  46  66  95 131 170 212 271 330 384
#     4  10  24  42  66  92 118 176 230 256 314 382
#     4  11  22  43  66  90 127 169 214 273 310 380
#     4  10  24  34  54  92 122 162 204 244 310 372
#     4  11  20  38  58  86 125 161 197 258 308 363
#     4  10  20  40  61  95 120 160 199 252 306 385
#     4  10  19  36  65  85 123 156 201 242 316 366
#
# _framework density 19.965875
#
# number of rings (size 3 to 8) (size 9 to 14) (size 15 to 20)
#    0.000    1.333    4.167    2.000    1.167    0.000 
#    6.000    1.667    0.000    0.000    0.000    0.000 
#    0.000    0.000    0.000    0.000    0.000    0.000 
#
# Total GULP energy -594992.787903 kJ/mol
# GULP energy per Si atom -12395.683081 kJ/mol
# Density = 1.992043 g / cm^3
# Si number density = 19.965875 Si / 1000 Ang^3
#
#
#
# Elastic Constant Matrix: (Units=GPa)
#
#
# Indices 1 2 3 4 5 6 
#
# 1 134.9377 42.6376 43.3241 0.0000 0.0000 0.0000
# 2 42.6376 114.6103 57.8397 0.0000 0.0000 0.0000
# 3 43.3241 57.8397 80.7594 0.0000 0.0000 0.0000
# 4 0.0000 0.0000 0.0000 28.1982 0.0000 0.0000
# 5 0.0000 0.0000 0.0000 0.0000 25.7432 0.0000
# 6 0.0000 0.0000 0.0000 0.0000 0.0000 25.4770
#
#
#
# Elastic Compliance Matrix: (Units=1/GPa)
#
#
# Indices 1 2 3 4 5 6 
#
# 1 0.009103 -0.001444 -0.003849 0.000000 0.000000 0.000000
# 2 -0.001444 0.013893 -0.009175 0.000000 0.000000 0.000000
# 3 -0.003849 -0.009175 0.021019 0.000000 0.000000 0.000000
# 4 0.000000 0.000000 0.000000 0.035463 0.000000 0.000000
# 5 0.000000 0.000000 0.000000 0.000000 0.038845 0.000000
# 6 0.000000 0.000000 0.000000 0.000000 0.000000 0.039251
#
#
# Mechanical properties :
#
#
# Convention : Reuss Voigt Hill
#
# Bulk Modulus (GPa) = 66.32403 68.65668 67.49036
# Shear Modulus (GPa) = 26.10458 28.31742 27.21100
#
# Velocity S-wave (km/s) = 3.61980 3.77011 3.69572
# Velocity P-wave (km/s) = 7.12471 7.30844 7.21716
#
# Compressibility (1/GPa) = 0.01507749
#
# Stress axis : x y z
#
# Youngs Moduli (GPa) = 109.85468 71.97911 47.57635
#
# Poissons Ratio (x) = 0.10393 0.18313
# Poissons Ratio (y) = 0.15862 0.43653
# Poissons Ratio (z) = 0.42285 0.66044
#
# Static dielectric constant tensor:
#      x y z
#    x 3.944220 0.000000 0.000000 
#    y 0.000000 3.598180 0.000000 
#    z 0.000000 0.000000 3.677800 
# 
# 
# High freq. dielectric constant tensor:
#      x y z
#    x 1.795680 0.000000 0.000000 
#    y 0.000000 1.768550 0.000000 
#    z 0.000000 0.000000 1.778740 
# 
# From -- ./inp_files/7204.got.cif
#   From: 2010.03.12/outbox.cif.g09.slc.cpg/sg73_4_cif.got.tgz:7204.got - 2010.04.16 15:25:48.
