data_PCOD8295786
_publ_section_title
;
Structure prediction by ZEFSAII (Michael W. Deem and Ramdas Pophale) SiO2 
 PCOD8295786
Probable space group: I B C A 
;
_chemical_formula_sum "Si O2"
_cell_formula_units_Z 128
_cell_length_a 16.504084
_cell_length_b 22.077761
_cell_length_c 17.854989
_cell_angle_alpha 90.000000
_cell_angle_beta 90.000000
_cell_angle_gamma 90.000000
_cell_volume 6505.879872
_symmetry_space_group_name_H-M "I B C A "
_symmetry_group_IT_number 73
_symmetry_cell_setting 'orthorhombic'
loop_
_space_group_symop_operation_xyz
x,y,z
-x,1/2-y,z
x,-y,1/2-z
1/2-x,y,-z
-x,-y,-z
x,1/2+y,-z
-x,y,1/2+z
1/2+x,-y,z
1/2+x,1/2+y,1/2+z
1/2-x,-y,1/2+z
1/2+x,1/2-y,-z
-x,1/2+y,1/2-z
1/2-x,1/2-y,1/2-z
1/2+x,y,1/2-z
1/2-x,1/2+y,z
x,1/2-y,1/2+z
loop_
_atom_site_type_symbol
_atom_site_label
_atom_site_fract_x
_atom_site_fract_y
_atom_site_fract_z
Si Si1 0.579507 0.937667 0.568167
Si Si2 0.754242 0.764919 0.162633
Si Si3 0.439483 0.977457 0.667380
Si Si4 0.823872 0.175904 0.053048
Si Si5 0.470691 0.595382 0.411310
Si Si6 0.859901 0.069653 0.445360
Si Si7 0.411873 0.721784 0.416065
Si Si8 0.693762 0.394083 0.893551
O O1 0.522177 0.946150 0.639762
O O2 0.644680 0.886664 0.588264
O O3 0.526231 0.910659 0.501058
O O4 0.620960 0.999374 0.539471
O O5 0.750000 0.750000 0.250000
O O6 0.701087 0.713754 0.124392
O O7 0.846908 0.760704 0.131738
O O8 0.711587 0.827911 0.140315
O O9 0.364909 0.930782 0.662376
O O10 0.454674 0.000000 0.750000
O O11 0.422642 0.037766 0.619831
O O12 0.750000 0.157996 0.000000
O O13 0.886100 0.215778 0.003101
O O14 0.567446 0.598509 0.394625
O O15 0.421492 0.653793 0.382399
O O16 0.846018 0.106878 0.523102
O O17 0.779272 0.071465 0.395764
O O18 0.500000 0.750000 0.411663
#
# Coordination Sequence:
#
# PCOD8295786 Si02
#       8
#    16  16  16  16  16  16  16  16
#     4  10  19  41  62  95 124 155 207 265 319 375
#     4  11  26  45  58  91 134 175 211 260 318 396
#     4  11  23  40  61  92 131 166 202 258 325 388
#     4   9  22  39  67  88 123 165 213 267 318 379
#     4  10  19  39  65  91 124 154 215 265 316 373
#     4  10  20  35  67  94 116 155 209 273 311 368
#     4  10  22  39  68  94 119 165 221 271 314 370
#     4  11  23  37  64  88 126 165 212 259 321 372
#
# _framework density 19.674510000000001
#
# number of rings (size 3 to 8) (size 9 to 14) (size 15 to 20)
#    0.000    1.750    2.500    1.500   10.500    1.000 
#    6.750    1.250    0.000    0.000    0.000    0.000 
#    0.000    0.000    0.000    0.000    0.000    0.000 
#
# Total GULP energy -793227.528965 kJ/mol
# GULP energy per Si atom -12394.180140 kJ/mol
# Density = 1.962973 g / cm^3
# Si number density = 19.674510 Si / 1000 Ang^3
#
#
#
# Elastic Constant Matrix: (Units=GPa)
#
#
# Indices 1 2 3 4 5 6 
#
# 1 109.1644 74.8414 52.9002 0.0000 0.0000 0.0000
# 2 74.8414 131.0975 54.9649 0.0001 0.0000 -0.0001
# 3 52.9002 54.9649 109.0917 0.0004 0.0000 -0.0001
# 4 0.0000 0.0001 0.0004 20.5623 0.0000 -0.0001
# 5 0.0000 0.0000 0.0000 0.0000 15.9256 0.0000
# 6 0.0000 -0.0001 -0.0001 -0.0001 0.0000 57.7549
#
#
#
# Elastic Compliance Matrix: (Units=1/GPa)
#
#
# Indices 1 2 3 4 5 6 
#
# 1 0.016378 -0.007633 -0.004097 0.000000 0.000000 0.000000
# 2 -0.007633 0.013228 -0.002964 0.000000 0.000000 0.000000
# 3 -0.004097 -0.002964 0.012646 0.000000 0.000000 0.000000
# 4 0.000000 0.000000 0.000000 0.048633 0.000000 0.000000
# 5 0.000000 0.000000 0.000000 0.000000 0.062792 0.000000
# 6 0.000000 0.000000 0.000000 0.000000 0.000000 0.017315
#
#
# Mechanical properties :
#
#
# Convention : Reuss Voigt Hill
#
# Bulk Modulus (GPa) = 77.71776 79.41853 78.56815
# Shear Modulus (GPa) = 24.43000 29.95834 27.19417
#
# Velocity S-wave (km/s) = 3.52761 3.90641 3.72183
# Velocity P-wave (km/s) = 7.49530 7.79747 7.64788
#
# Compressibility (1/GPa) = 0.01286707
#
# Stress axis : x y z
#
# Youngs Moduli (GPa) = 61.05573 75.59849 79.07519
#
# Poissons Ratio (x) = 0.57702 0.32393
# Poissons Ratio (y) = 0.46602 0.23434
# Poissons Ratio (z) = 0.25012 0.22404
#
# Static dielectric constant tensor:
#      x y z
#    x 3.796840 0.000000 0.000000 
#    y 0.000000 3.782300 0.000000 
#    z 0.000000 0.000000 3.404550 
# 
# 
# High freq. dielectric constant tensor:
#      x y z
#    x 1.778500 0.000000 0.000000 
#    y 0.000000 1.776640 0.000000 
#    z 0.000000 0.000000 1.733800 
# 
# From -- ./inp_files/22858.got.cif
#   From: 2010.03.12/outbox.cif.g09.slc.cpg/sg73_12_cif.got.tgz:22858.got - 2010.04.16 15:25:48.
