data_PCOD8295551
_publ_section_title
;
Structure prediction by ZEFSAII (Michael W. Deem and Ramdas Pophale) SiO2 
 PCOD8295551
Probable space group: I B C A 
;
_chemical_formula_sum "Si O2"
_cell_formula_units_Z 80
_cell_length_a 27.568393
_cell_length_b 16.142679
_cell_length_c 8.483619
_cell_angle_alpha 90.000000
_cell_angle_beta 90.000000
_cell_angle_gamma 90.000000
_cell_volume 3775.445610
_symmetry_space_group_name_H-M "I B C A "
_symmetry_group_IT_number 73
_symmetry_cell_setting 'orthorhombic'
loop_
_space_group_symop_operation_xyz
x,y,z
-x,1/2-y,z
x,-y,1/2-z
1/2-x,y,-z
-x,-y,-z
x,1/2+y,-z
-x,y,1/2+z
1/2+x,-y,z
1/2+x,1/2+y,1/2+z
1/2-x,-y,1/2+z
1/2+x,1/2-y,-z
-x,1/2+y,1/2-z
1/2-x,1/2-y,1/2-z
1/2+x,y,1/2-z
1/2-x,1/2+y,z
x,1/2-y,1/2+z
loop_
_atom_site_type_symbol
_atom_site_label
_atom_site_fract_x
_atom_site_fract_y
_atom_site_fract_z
Si Si1 0.649884 0.198536 0.487949
Si Si2 0.540862 0.647775 0.983982
Si Si3 0.250000 0.885295 0.500000
Si Si4 0.292712 0.000000 0.750000
Si Si5 0.944855 0.830387 0.147135
Si Si6 0.863154 0.132118 0.859542
O O1 0.703363 0.170171 0.537986
O O2 0.609750 0.147914 0.591005
O O3 0.638231 0.178826 0.307262
O O4 0.648831 0.297911 0.509351
O O5 0.548870 0.654244 0.169030
O O6 0.546803 0.735599 0.897673
O O7 0.486510 0.614949 0.943413
O O8 0.583822 0.593503 0.903554
O O9 0.258099 0.941492 0.651496
O O10 0.326079 0.944443 0.865670
#
# Coordination Sequence:
#
# PCOD8295551 Si02
#       6
#    16  16   8   8  16  16
#     4  10  20  35  56  83 111 145 195 237 272 327
#     4  10  17  28  51  80 114 144 176 227 282 330
#     4  10  24  40  58  82 110 150 192 236 282 330
#     4  10  24  40  58  80 114 152 184 232 290 342
#     4  10  17  28  50  83 113 142 182 231 276 324
#     4  10  20  36  57  84 114 146 185 232 282 335
#
# _framework density 21.189551000000002
#
# number of rings (size 3 to 8) (size 9 to 14) (size 15 to 20)
#    0.000    2.000    0.000    8.400    0.000    7.200 
#    0.000    0.000    0.000   12.000    0.000    0.000 
#    0.000    0.000    0.000    0.000    0.000    0.000 
#
# Total GULP energy -495696.093828 kJ/mol
# GULP energy per Si atom -12392.402346 kJ/mol
# Density = 2.114132 g / cm^3
# Si number density = 21.189551 Si / 1000 Ang^3
#
#
#
# Elastic Constant Matrix: (Units=GPa)
#
#
# Indices 1 2 3 4 5 6 
#
# 1 189.6065 22.8642 35.6736 0.0000 0.0000 0.0000
# 2 22.8642 37.0247 1.0531 0.0000 0.0000 0.0000
# 3 35.6736 1.0531 88.2102 0.0000 0.0000 0.0000
# 4 0.0000 0.0000 0.0000 14.8066 0.0000 0.0000
# 5 0.0000 0.0000 0.0000 0.0000 39.6258 0.0000
# 6 0.0000 0.0000 0.0000 0.0000 0.0000 -1.8247
#
#
#
# Elastic Compliance Matrix: (Units=1/GPa)
#
#
# Indices 1 2 3 4 5 6 
#
# 1 0.006189 -0.003752 -0.002458 0.000000 0.000000 0.000000
# 2 -0.003752 0.029293 0.001168 0.000000 0.000000 0.000000
# 3 -0.002458 0.001168 0.012317 0.000000 0.000000 0.000000
# 4 0.000000 0.000000 0.000000 0.067538 0.000000 0.000000
# 5 0.000000 0.000000 0.000000 0.000000 0.025236 0.000000
# 6 0.000000 0.000000 0.000000 0.000000 0.000000 -0.548025
#
#
# Mechanical properties :
#
#
# Convention : Reuss Voigt Hill
#
# Bulk Modulus (GPa) = 26.51569 48.22480 37.37025
# Shear Modulus (GPa) = -12.99387 27.53823 7.27218
#
# Velocity S-wave (km/s) = -2.47902 3.60893 1.85457
# Velocity P-wave (km/s) = 2.08488 6.33829 4.71809
#
# Compressibility (1/GPa) = 0.03771351
#
# Stress axis : x y z
#
# Youngs Moduli (GPa) = 161.57650 34.13807 81.19041
#
# Poissons Ratio (x) = 0.12809 0.19958
# Poissons Ratio (y) = 0.60624 -0.09480
# Poissons Ratio (z) = 0.39718 -0.03986
#
# Static dielectric constant tensor:
#      x y z
#    x 5.033100 0.000000 0.000000 
#    y 0.000000 3.511990 0.000000 
#    z 0.000000 0.000000 3.745300 
# 
# 
# High freq. dielectric constant tensor:
#      x y z
#    x 1.861060 0.000000 0.000000 
#    y 0.000000 1.776650 0.000000 
#    z 0.000000 0.000000 1.834780 
# 
# From -- ./inp_files/7756.got.cif
#   From: 2010.03.12/outbox.cif.g09.slc.cpg/sg73_4_cif.got.tgz:7756.got - 2010.04.16 15:25:48.
