data_PCOD8295874
_publ_section_title
;
Structure prediction by ZEFSAII (Michael W. Deem and Ramdas Pophale) SiO2 
 PCOD8295874
Probable space group: I B C A 
;
_chemical_formula_sum "Si O2"
_cell_formula_units_Z 104
_cell_length_a 19.853784
_cell_length_b 9.078397
_cell_length_c 26.615338
_cell_angle_alpha 90.000000
_cell_angle_beta 90.000000
_cell_angle_gamma 90.000000
_cell_volume 4797.162710
_symmetry_space_group_name_H-M "I B C A "
_symmetry_group_IT_number 73
_symmetry_cell_setting 'orthorhombic'
loop_
_space_group_symop_operation_xyz
x,y,z
-x,1/2-y,z
x,-y,1/2-z
1/2-x,y,-z
-x,-y,-z
x,1/2+y,-z
-x,y,1/2+z
1/2+x,-y,z
1/2+x,1/2+y,1/2+z
1/2-x,-y,1/2+z
1/2+x,1/2-y,-z
-x,1/2+y,1/2-z
1/2-x,1/2-y,1/2-z
1/2+x,y,1/2-z
1/2-x,1/2+y,z
x,1/2-y,1/2+z
loop_
_atom_site_type_symbol
_atom_site_label
_atom_site_fract_x
_atom_site_fract_y
_atom_site_fract_z
Si Si1 0.315320 0.527503 0.644878
Si Si2 0.388595 0.898250 0.441754
Si Si3 0.922281 0.240199 0.639576
Si Si4 0.416787 0.457966 0.196353
Si Si5 0.500000 0.250000 0.128263
Si Si6 0.286099 0.231526 0.697380
Si Si7 0.425624 0.788528 0.026252
O O1 0.321914 0.456164 0.588414
O O2 0.386088 0.608989 0.656300
O O3 0.304036 0.396931 0.683077
O O4 0.256609 0.649189 0.653240
O O5 0.440184 0.821827 0.403471
O O6 0.372449 0.778326 0.485464
O O7 0.421358 0.036116 0.470456
O O8 0.912522 0.213756 0.580151
O O9 0.000000 0.250000 0.655026
O O10 0.888994 0.102560 0.667799
O O11 0.449488 0.500000 0.250000
O O12 0.472705 0.380924 0.162646
O O13 0.354079 0.354522 0.207143
O O14 0.250000 0.250000 0.750000
O O15 0.500000 0.750000 0.005997
#
# Coordination Sequence:
#
# PCOD8295874 Si02
#       7
#    16  16  16  16   8  16  16
#     4  11  23  44  66 101 133 178 229 303 336 408
#     4  11  23  39  67 102 139 179 223 289 355 418
#     4  10  23  42  68 102 143 180 227 286 362 422
#     4  12  26  43  67  99 137 189 227 295 356 430
#     4  12  24  44  66 108 144 178 232 290 376 418
#     4  12  25  45  72  94 128 185 254 285 338 414
#     4  10  20  35  65 100 136 182 223 274 342 431
#
# _framework density 21.679482
#
# number of rings (size 3 to 8) (size 9 to 14) (size 15 to 20)
#    0.000    0.923    2.308    6.462    3.231    0.000 
#    2.769    0.000    0.000   19.385    0.000    0.000 
#    0.000    0.000    0.000    0.000    0.000    0.000 
#
# Total GULP energy -644693.934963 kJ/mol
# GULP energy per Si atom -12397.960288 kJ/mol
# Density = 2.163014 g / cm^3
# Si number density = 21.679482 Si / 1000 Ang^3
#
#
#
# Elastic Constant Matrix: (Units=GPa)
#
#
# Indices 1 2 3 4 5 6 
#
# 1 52.4480 23.9470 30.8262 0.0000 0.0000 0.0000
# 2 23.9470 135.4950 66.0574 0.0000 0.0000 0.0000
# 3 30.8262 66.0574 125.0801 0.0000 0.0000 0.0000
# 4 0.0000 0.0000 0.0000 40.4875 0.0000 0.0000
# 5 0.0000 0.0000 0.0000 0.0000 23.8978 0.0000
# 6 0.0000 0.0000 0.0000 0.0000 0.0000 41.2946
#
#
#
# Elastic Compliance Matrix: (Units=1/GPa)
#
#
# Indices 1 2 3 4 5 6 
#
# 1 0.022590 -0.001722 -0.004658 0.000000 0.000000 0.000000
# 2 -0.001722 0.010071 -0.004894 0.000000 0.000000 0.000000
# 3 -0.004658 -0.004894 0.011728 0.000000 0.000000 0.000000
# 4 0.000000 0.000000 0.000000 0.024699 0.000000 0.000000
# 5 0.000000 0.000000 0.000000 0.000000 0.041845 0.000000
# 6 0.000000 0.000000 0.000000 0.000000 0.000000 0.024216
#
#
# Mechanical properties :
#
#
# Convention : Reuss Voigt Hill
#
# Bulk Modulus (GPa) = 45.78618 61.63160 53.70889
# Shear Modulus (GPa) = 30.30723 33.94883 32.12803
#
# Velocity S-wave (km/s) = 3.74300 3.96149 3.85379
# Velocity P-wave (km/s) = 6.31233 7.02957 6.68058
#
# Compressibility (1/GPa) = 0.02184065
#
# Stress axis : x y z
#
# Youngs Moduli (GPa) = 44.26652 99.29809 85.26839
#
# Poissons Ratio (x) = 0.17095 0.39720
# Poissons Ratio (y) = 0.07621 0.41733
# Poissons Ratio (z) = 0.20621 0.48599
#
# Static dielectric constant tensor:
#      x y z
#    x 3.764020 0.000000 0.000000 
#    y 0.000000 4.281520 0.000000 
#    z 0.000000 0.000000 4.063490 
# 
# 
# High freq. dielectric constant tensor:
#      x y z
#    x 1.820460 0.000000 0.000000 
#    y 0.000000 1.876860 0.000000 
#    z 0.000000 0.000000 1.857180 
# 
# From -- ./inp_files/32657.got.cif
#   From: 2010.03.12/outbox.cif.g09.slc.cpg/sg73_17_cif.got.tgz:32657.got - 2010.04.16 15:25:48.
