data_PCOD8295158
_publ_section_title
;
Structure prediction by ZEFSAII (Michael W. Deem and Ramdas Pophale) SiO2 
 PCOD8295158
Probable space group: I B A M
;
_chemical_formula_sum "Si O2"
_cell_formula_units_Z 68
_cell_length_a 8.713448
_cell_length_b 22.069594
_cell_length_c 14.491936
_cell_angle_alpha 90.000000
_cell_angle_beta 90.000000
_cell_angle_gamma 90.000000
_cell_volume 2786.832040
_symmetry_space_group_name_H-M "I B A M"
_symmetry_group_IT_number 72
_symmetry_cell_setting 'orthorhombic'
loop_
_space_group_symop_operation_xyz
x,y,z
-x,-y,z
x,-y,1/2-z
-x,y,1/2-z
-x,-y,-z
x,y,-z
-x,y,1/2+z
x,-y,1/2+z
1/2+x,1/2+y,1/2+z
1/2-x,1/2-y,1/2+z
1/2+x,1/2-y,-z
1/2-x,1/2+y,-z
1/2-x,1/2-y,1/2-z
1/2+x,1/2+y,1/2-z
1/2-x,1/2+y,z
1/2+x,1/2-y,z
loop_
_atom_site_type_symbol
_atom_site_label
_atom_site_fract_x
_atom_site_fract_y
_atom_site_fract_z
Si Si1 0.476929 0.933569 0.642606
Si Si2 0.000000 0.000000 0.750000
Si Si3 0.362310 0.412772 0.394896
Si Si4 0.899424 0.313593 0.657514
Si Si5 0.928534 0.199210 0.102469
O O1 0.500000 0.944200 0.750000
O O2 0.318175 0.902365 0.612602
O O3 0.596528 0.880965 0.610330
O O4 0.500000 0.000000 0.594185
O O5 0.891828 0.036860 0.681854
O O6 0.405741 0.432356 0.500000
O O7 0.453788 0.352707 0.365454
O O8 0.977587 0.261524 0.597247
O O9 0.000000 0.316991 0.750000
O O10 0.718016 0.298523 0.671508
O O11 0.864579 0.186179 0.000000
#
# Coordination Sequence:
#
# PCOD8295158 Si02
#       5
#    16   4  16  16  16
#     4  10  23  44  69 103 144 193 238 292 367 433
#     4  12  26  44  78  98 152 188 238 300 360 426
#     4  11  27  46  73 109 145 193 247 299 363 439
#     4  11  24  41  71 103 140 188 245 298 365 440
#     4  11  25  45  70 103 144 186 240 305 368 432
#
# _framework density 24.400466999999999
#
# number of rings (size 3 to 8) (size 9 to 14) (size 15 to 20)
#    0.000    1.176    0.000    4.588   11.529    4.235 
#    0.000    0.000    0.000    0.000    0.000    0.000 
#    0.000    0.000    0.000    0.000    0.000    0.000 
#
# Total GULP energy -421278.637470 kJ/mol
# GULP energy per Si atom -12390.548161 kJ/mol
# Density = 2.434493 g / cm^3
# Si number density = 24.400467 Si / 1000 Ang^3
#
#
#
# Elastic Constant Matrix: (Units=GPa)
#
#
# Indices 1 2 3 4 5 6 
#
# 1 160.3041 73.4655 18.9915 0.0000 0.0000 0.0000
# 2 73.4655 195.3672 28.3767 0.0000 0.0000 0.0000
# 3 18.9915 28.3767 102.2369 -0.0002 0.0001 0.0000
# 4 0.0000 0.0000 -0.0002 6.4269 0.0000 0.0000
# 5 0.0000 0.0000 0.0001 0.0000 30.3501 0.0000
# 6 0.0000 0.0000 0.0000 0.0000 0.0000 -32.4223
#
#
#
# Elastic Compliance Matrix: (Units=1/GPa)
#
#
# Indices 1 2 3 4 5 6 
#
# 1 0.007577 -0.002756 -0.000643 0.000000 0.000000 0.000000
# 2 -0.002756 0.006336 -0.001247 0.000000 0.000000 0.000000
# 3 -0.000643 -0.001247 0.010247 0.000000 0.000000 0.000000
# 4 0.000000 0.000000 0.000000 0.155595 0.000000 0.000000
# 5 0.000000 0.000000 0.000000 0.000000 0.032949 0.000000
# 6 0.000000 0.000000 0.000000 0.000000 0.000000 -0.030843
#
#
# Mechanical properties :
#
#
# Convention : Reuss Voigt Hill
#
# Bulk Modulus (GPa) = 67.25237 77.73062 72.49150
# Shear Modulus (GPa) = 25.49619 23.34258 24.41938
#
# Velocity S-wave (km/s) = 3.23601 3.09632 3.16694
# Velocity P-wave (km/s) = 6.44857 6.68643 6.56858
#
# Compressibility (1/GPa) = 0.01486936
#
# Stress axis : x y z
#
# Youngs Moduli (GPa) = 131.97263 157.82803 97.59345
#
# Poissons Ratio (x) = 0.43498 0.06271
# Poissons Ratio (y) = 0.36372 0.12167
# Poissons Ratio (z) = 0.08481 0.19676
#
# Static dielectric constant tensor:
#      x y z
#    x 4.295580 0.000000 0.000000 
#    y 0.000000 5.188330 0.000000 
#    z 0.000000 0.000000 4.151070 
# 
# 
# High freq. dielectric constant tensor:
#      x y z
#    x 1.968830 0.000000 0.000000 
#    y 0.000000 1.988850 0.000000 
#    z 0.000000 0.000000 1.959230 
# 
# From -- ./inp_files/27811.got.cif
#   From: 2010.03.12/outbox.cif.g09.slc.cpg/sg72_14_cif.got.tgz:27811.got - 2010.04.16 14:54:00.
