data_PCOD8295980
_publ_section_title
;
Structure prediction by ZEFSAII (Michael W. Deem and Ramdas Pophale) SiO2 
 PCOD8295980
Probable space group: I B C A 
;
_chemical_formula_sum "Si O2"
_cell_formula_units_Z 104
_cell_length_a 8.514137
_cell_length_b 27.952746
_cell_length_c 21.074906
_cell_angle_alpha 90.000000
_cell_angle_beta 90.000000
_cell_angle_gamma 90.000000
_cell_volume 5015.690830
_symmetry_space_group_name_H-M "I B C A "
_symmetry_group_IT_number 73
_symmetry_cell_setting 'orthorhombic'
loop_
_space_group_symop_operation_xyz
x,y,z
-x,1/2-y,z
x,-y,1/2-z
1/2-x,y,-z
-x,-y,-z
x,1/2+y,-z
-x,y,1/2+z
1/2+x,-y,z
1/2+x,1/2+y,1/2+z
1/2-x,-y,1/2+z
1/2+x,1/2-y,-z
-x,1/2+y,1/2-z
1/2-x,1/2-y,1/2-z
1/2+x,y,1/2-z
1/2-x,1/2+y,z
x,1/2-y,1/2+z
loop_
_atom_site_type_symbol
_atom_site_label
_atom_site_fract_x
_atom_site_fract_y
_atom_site_fract_z
Si Si1 0.071889 0.845169 0.617109
Si Si2 0.467737 0.067957 0.207802
Si Si3 0.250000 0.820508 0.500000
Si Si4 0.500000 0.250000 0.451274
Si Si5 0.271481 0.802068 0.721765
Si Si6 0.232054 0.828381 0.926529
Si Si7 0.716100 0.000000 0.250000
Si Si8 0.426065 0.857482 0.188843
O O1 0.200248 0.852758 0.560443
O O2 0.144057 0.807777 0.666428
O O3 0.041394 0.896641 0.648522
O O4 0.907907 0.821792 0.597457
O O5 0.616250 0.033071 0.202074
O O6 0.482142 0.094263 0.276820
O O7 0.315897 0.034505 0.204955
O O8 0.407324 0.789025 0.507664
O O9 0.638646 0.278092 0.413943
O O10 0.250000 0.750000 0.750000
O O11 0.234130 0.840056 0.777173
O O12 0.443549 0.815124 0.694611
O O13 0.128080 0.866175 0.884661
O O14 0.250000 0.843865 0.000000
#
# Coordination Sequence:
#
# PCOD8295980 Si02
#       8
#    16  16   8   8  16  16   8  16
#     4  11  24  43  65  91 136 170 228 276 332 387
#     4  10  21  42  66 105 124 165 206 276 343 417
#     4  12  22  42  62  88 126 188 222 288 306 386
#     4  12  24  40  56  86 124 174 256 262 310 352
#     4  11  24  39  60  91 128 180 219 281 324 375
#     4  12  25  42  61  90 128 189 229 284 311 375
#     4  10  20  38  74 100 128 156 204 266 358 422
#     4  11  23  41  60  93 138 165 224 277 333 387
#
# _framework density 20.734931
#
# number of rings (size 3 to 8) (size 9 to 14) (size 15 to 20)
#    0.000    0.923    2.308    6.000    4.308    0.000 
#    8.308    0.000    0.000    0.923    8.000    0.000 
#    0.000    0.000    0.000    0.000    0.000    0.000 
#
# Total GULP energy -644394.936741 kJ/mol
# GULP energy per Si atom -12392.210322 kJ/mol
# Density = 2.068774 g / cm^3
# Si number density = 20.734931 Si / 1000 Ang^3
#
#
#
# Elastic Constant Matrix: (Units=GPa)
#
#
# Indices 1 2 3 4 5 6 
#
# 1 140.3544 49.0935 63.3499 0.0000 0.0000 0.0001
# 2 49.0935 96.0338 50.2541 0.0000 0.0000 0.0001
# 3 63.3499 50.2541 131.0915 -0.0001 0.0000 0.0007
# 4 0.0000 0.0000 -0.0001 16.5785 0.0000 0.0002
# 5 0.0000 0.0000 0.0000 0.0000 37.6822 0.0002
# 6 0.0001 0.0001 0.0007 0.0002 0.0002 517.1150
#
#
#
# Elastic Compliance Matrix: (Units=1/GPa)
#
#
# Indices 1 2 3 4 5 6 
#
# 1 0.009831 -0.003177 -0.003533 0.000000 0.000000 0.000000
# 2 -0.003177 0.014053 -0.003852 0.000000 0.000000 0.000000
# 3 -0.003533 -0.003852 0.010812 0.000000 0.000000 0.000000
# 4 0.000000 0.000000 0.000000 0.060319 0.000000 0.000000
# 5 0.000000 0.000000 0.000000 0.000000 0.026538 0.000000
# 6 0.000000 0.000000 0.000000 0.000000 0.000000 0.001934
#
#
# Mechanical properties :
#
#
# Convention : Reuss Voigt Hill
#
# Bulk Modulus (GPa) = 73.67917 76.98607 75.33262
# Shear Modulus (GPa) = 33.52708 127.92728 80.72718
#
# Velocity S-wave (km/s) = 4.02548 7.86323 6.24640
# Velocity P-wave (km/s) = 7.56419 10.93846 9.40390
#
# Compressibility (1/GPa) = 0.01357236
#
# Stress axis : x y z
#
# Youngs Moduli (GPa) = 101.72369 71.16058 92.48873
#
# Poissons Ratio (x) = 0.22606 0.32674
# Poissons Ratio (y) = 0.32315 0.35626
# Poissons Ratio (z) = 0.35937 0.27411
#
# Static dielectric constant tensor:
#      x y z
#    x 4.215700 0.000000 0.000000 
#    y 0.000000 2.788390 0.000000 
#    z 0.000000 0.000000 3.970090 
# 
# 
# High freq. dielectric constant tensor:
#      x y z
#    x 1.846940 0.000000 0.000000 
#    y 0.000000 1.773840 0.000000 
#    z 0.000000 0.000000 1.799690 
# 
# From -- ./inp_files/25080.got.cif
#   From: 2010.03.12/outbox.cif.g09.slc.cpg/sg73_13_cif.got.tgz:25080.got - 2010.04.16 15:25:48.
