data_PCOD8295697
_publ_section_title
;
Structure prediction by ZEFSAII (Michael W. Deem and Ramdas Pophale) SiO2 
 PCOD8295697
Probable space group: I B C A 
;
_chemical_formula_sum "Si O2"
_cell_formula_units_Z 80
_cell_length_a 22.796958
_cell_length_b 8.848047
_cell_length_c 16.031312
_cell_angle_alpha 90.000000
_cell_angle_beta 90.000000
_cell_angle_gamma 90.000000
_cell_volume 3233.652792
_symmetry_space_group_name_H-M "I B C A "
_symmetry_group_IT_number 73
_symmetry_cell_setting 'orthorhombic'
loop_
_space_group_symop_operation_xyz
x,y,z
-x,1/2-y,z
x,-y,1/2-z
1/2-x,y,-z
-x,-y,-z
x,1/2+y,-z
-x,y,1/2+z
1/2+x,-y,z
1/2+x,1/2+y,1/2+z
1/2-x,-y,1/2+z
1/2+x,1/2-y,-z
-x,1/2+y,1/2-z
1/2-x,1/2-y,1/2-z
1/2+x,y,1/2-z
1/2-x,1/2+y,z
x,1/2-y,1/2+z
loop_
_atom_site_type_symbol
_atom_site_label
_atom_site_fract_x
_atom_site_fract_y
_atom_site_fract_z
Si Si1 0.060348 0.978057 0.543182
Si Si2 0.941559 0.334013 0.788100
Si Si3 0.735574 0.573425 0.595516
Si Si4 0.632969 0.749540 0.038258
Si Si5 0.330771 0.206077 0.643337
O O1 0.089370 0.130022 0.583669
O O2 0.049273 0.854989 0.613730
O O3 0.102620 0.911947 0.471746
O O4 0.000000 0.000000 0.500000
O O5 0.933412 0.500000 0.750000
O O6 0.881743 0.229491 0.785161
O O7 0.000000 0.250000 0.751227
O O8 0.750000 0.517272 0.500000
O O9 0.691740 0.719053 0.590947
O O10 0.709774 0.442638 0.656523
O O11 0.793590 0.637397 0.640582
O O12 0.643831 0.676540 0.948278
#
# Coordination Sequence:
#
# PCOD8295697 Si02
#       5
#    16  16  16  16  16
#     4  11  21  37  63 102 135 170 226 290 336 407
#     4  11  27  50  68  92 134 180 234 287 353 426
#     4  10  19  33  63 100 143 178 213 273 348 402
#     4  10  19  32  58  97 140 171 210 274 345 394
#     4  10  21  38  62  98 134 175 226 270 333 414
#
# _framework density 24.739823999999999
#
# number of rings (size 3 to 8) (size 9 to 14) (size 15 to 20)
#    0.000    1.600    2.000    4.800    5.600    1.600 
#    0.000    1.000    0.000    0.000    0.000    0.000 
#    0.000    0.000    0.000    0.000    0.000    0.000 
#
# Total GULP energy -495564.833200 kJ/mol
# GULP energy per Si atom -12389.120830 kJ/mol
# Density = 2.468351 g / cm^3
# Si number density = 24.739824 Si / 1000 Ang^3
#
#
#
# Elastic Constant Matrix: (Units=GPa)
#
#
# Indices 1 2 3 4 5 6 
#
# 1 142.5800 55.5407 15.5082 0.0000 0.0000 0.0000
# 2 55.5407 124.6287 5.1703 0.0000 0.0000 0.0000
# 3 15.5082 5.1703 7.8368 0.0000 0.0000 0.0000
# 4 0.0000 0.0000 0.0000 28.4100 0.0000 0.0000
# 5 0.0000 0.0000 0.0000 0.0000 20.4119 0.0000
# 6 0.0000 0.0000 0.0000 0.0000 0.0000 60.2577
#
#
#
# Elastic Compliance Matrix: (Units=1/GPa)
#
#
# Indices 1 2 3 4 5 6 
#
# 1 0.010531 -0.003936 -0.018243 0.000000 0.000000 0.000000
# 2 -0.003936 0.009721 0.001376 0.000000 0.000000 0.000000
# 3 -0.018243 0.001376 0.162797 0.000000 0.000000 0.000000
# 4 0.000000 0.000000 0.000000 0.035199 0.000000 0.000000
# 5 0.000000 0.000000 0.000000 0.000000 0.048991 0.000000
# 6 0.000000 0.000000 0.000000 0.000000 0.000000 0.016595
#
#
# Mechanical properties :
#
#
# Convention : Reuss Voigt Hill
#
# Bulk Modulus (GPa) = 7.07000 47.49820 27.28410
# Shear Modulus (GPa) = 13.41961 35.07099 24.24530
#
# Velocity S-wave (km/s) = 2.33154 3.76918 3.13391
# Velocity P-wave (km/s) = 3.17994 6.17924 4.91401
#
# Compressibility (1/GPa) = 0.14144275
#
# Stress axis : x y z
#
# Youngs Moduli (GPa) = 94.95509 102.87003 6.14262
#
# Poissons Ratio (x) = 0.40494 0.11206
# Poissons Ratio (y) = 0.37378 -0.00845
# Poissons Ratio (z) = 1.73229 -0.14159
#
# Static dielectric constant tensor:
#      x y z
#    x 4.797100 0.000000 0.000000 
#    y 0.000000 6.328880 0.000000 
#    z 0.000000 0.000000 3.828920 
# 
# 
# High freq. dielectric constant tensor:
#      x y z
#    x 2.004060 0.000000 0.000000 
#    y 0.000000 1.993300 0.000000 
#    z 0.000000 0.000000 1.920130 
# 
# From -- ./inp_files/23796.got.cif
#   From: 2010.03.12/outbox.cif.g09.slc.cpg/sg73_12_cif.got.tgz:23796.got - 2010.04.16 15:25:48.
