data_PCOD8295505
_publ_section_title
;
Structure prediction by ZEFSAII (Michael W. Deem and Ramdas Pophale) SiO2 
 PCOD8295505
Probable space group: I B A M
;
_chemical_formula_sum "Si O2"
_cell_formula_units_Z 84
_cell_length_a 24.007817
_cell_length_b 11.780260
_cell_length_c 18.208057
_cell_angle_alpha 90.000000
_cell_angle_beta 90.000000
_cell_angle_gamma 90.000000
_cell_volume 5149.572206
_symmetry_space_group_name_H-M "I B A M"
_symmetry_group_IT_number 72
_symmetry_cell_setting 'orthorhombic'
loop_
_space_group_symop_operation_xyz
x,y,z
-x,-y,z
x,-y,1/2-z
-x,y,1/2-z
-x,-y,-z
x,y,-z
-x,y,1/2+z
x,-y,1/2+z
1/2+x,1/2+y,1/2+z
1/2-x,1/2-y,1/2+z
1/2+x,1/2-y,-z
1/2-x,1/2+y,-z
1/2-x,1/2-y,1/2-z
1/2+x,1/2+y,1/2-z
1/2-x,1/2+y,z
1/2+x,1/2-y,z
loop_
_atom_site_type_symbol
_atom_site_label
_atom_site_fract_x
_atom_site_fract_y
_atom_site_fract_z
Si Si1 0.545824 0.282188 0.195230
Si Si2 0.826720 0.748384 0.201739
Si Si3 0.542838 0.909090 0.416095
Si Si4 0.169609 0.442759 0.915087
Si Si5 0.731646 0.096085 0.310123
Si Si6 0.500000 0.500000 0.750000
O O1 0.500000 0.226442 0.250000
O O2 0.608929 0.265637 0.220746
O O3 0.537588 0.216345 0.118862
O O4 0.535611 0.419021 0.194540
O O5 0.814637 0.666690 0.132742
O O6 0.795884 0.865721 0.178674
O O7 0.802369 0.703618 0.278963
O O8 0.527387 0.887685 0.500000
O O9 0.603722 0.964123 0.406072
O O10 0.500000 0.000000 0.380892
O O11 0.203757 0.552141 0.885690
O O12 0.185712 0.421629 0.000000
O O13 0.727662 0.000000 0.250000
#
# Coordination Sequence:
#
# PCOD8295505 Si02
#       6
#    16  16  16  16  16   4
#     4   9  19  32  50  72 100 129 168 209 246 289
#     4   9  18  32  47  71  95 127 160 201 243 290
#     4   9  18  32  51  75 101 128 159 206 265 306
#     4   9  18  31  47  71  99 124 160 200 242 298
#     4   9  18  30  49  70  93 125 159 197 243 287
#     4   8  20  32  44  76  92 128 170 206 226 288
#
# _framework density 16.312034000000001
#
# number of rings (size 3 to 8) (size 9 to 14) (size 15 to 20)
#    0.571    2.476    0.000    0.000    4.000    1.143 
#    0.000    0.476    0.000    0.000    0.000    0.000 
#    0.000    0.000    0.000    0.000    0.000    0.000 
#
# Total GULP energy -520324.961788 kJ/mol
# GULP energy per Si atom -12388.689566 kJ/mol
# Density = 1.627491 g / cm^3
# Si number density = 16.312034 Si / 1000 Ang^3
#
#
#
# Elastic Constant Matrix: (Units=GPa)
#
#
# Indices 1 2 3 4 5 6 
#
# 1 94.4124 29.3911 28.7320 0.0000 0.0000 0.0000
# 2 29.3911 70.3158 19.3123 0.0000 0.0000 0.0000
# 3 28.7320 19.3123 63.9237 0.0000 0.0000 0.0000
# 4 0.0000 0.0000 0.0000 17.5316 0.0000 0.0000
# 5 0.0000 0.0000 0.0000 0.0000 22.8179 0.0000
# 6 0.0000 0.0000 0.0000 0.0000 0.0000 31.8348
#
#
#
# Elastic Compliance Matrix: (Units=1/GPa)
#
#
# Indices 1 2 3 4 5 6 
#
# 1 0.013361 -0.004291 -0.004709 0.000000 0.000000 0.000000
# 2 -0.004291 0.016887 -0.003173 0.000000 0.000000 0.000000
# 3 -0.004709 -0.003173 0.018719 0.000000 0.000000 0.000000
# 4 0.000000 0.000000 0.000000 0.057040 0.000000 0.000000
# 5 0.000000 0.000000 0.000000 0.000000 0.043825 0.000000
# 6 0.000000 0.000000 0.000000 0.000000 0.000000 0.031412
#
#
# Mechanical properties :
#
#
# Convention : Reuss Voigt Hill
#
# Bulk Modulus (GPa) = 40.61727 42.61365 41.61546
# Shear Modulus (GPa) = 23.38676 24.51796 23.95236
#
# Velocity S-wave (km/s) = 3.79055 3.88114 3.83611
# Velocity P-wave (km/s) = 6.64168 6.80184 6.72224
#
# Compressibility (1/GPa) = 0.02462007
#
# Stress axis : x y z
#
# Youngs Moduli (GPa) = 74.84599 59.21815 53.42246
#
# Poissons Ratio (x) = 0.25413 0.25156
# Poissons Ratio (y) = 0.32119 0.16950
# Poissons Ratio (z) = 0.35244 0.18789
#
# Static dielectric constant tensor:
#      x y z
#    x 3.171960 0.000000 0.000000 
#    y 0.000000 3.074590 0.000000 
#    z 0.000000 0.000000 2.971160 
# 
# 
# High freq. dielectric constant tensor:
#      x y z
#    x 1.634590 0.000000 0.000000 
#    y 0.000000 1.618150 0.000000 
#    z 0.000000 0.000000 1.609300 
# 
# From -- ./inp_files/37054.got.cif
#   From: 2010.03.12/outbox.cif.g09.slc.cpg/sg72_19_cif.got.tgz:37054.got - 2010.04.16 14:54:00.
