data_PCOD8295294
_publ_section_title
;
Structure prediction by ZEFSAII (Michael W. Deem and Ramdas Pophale) SiO2 
 PCOD8295294
Probable space group: I B A M
;
_chemical_formula_sum "Si O2"
_cell_formula_units_Z 96
_cell_length_a 21.880914
_cell_length_b 14.193961
_cell_length_c 14.502648
_cell_angle_alpha 90.000000
_cell_angle_beta 90.000000
_cell_angle_gamma 90.000000
_cell_volume 4504.186587
_symmetry_space_group_name_H-M "I B A M"
_symmetry_group_IT_number 72
_symmetry_cell_setting 'orthorhombic'
loop_
_space_group_symop_operation_xyz
x,y,z
-x,-y,z
x,-y,1/2-z
-x,y,1/2-z
-x,-y,-z
x,y,-z
-x,y,1/2+z
x,-y,1/2+z
1/2+x,1/2+y,1/2+z
1/2-x,1/2-y,1/2+z
1/2+x,1/2-y,-z
1/2-x,1/2+y,-z
1/2-x,1/2-y,1/2-z
1/2+x,1/2+y,1/2-z
1/2-x,1/2+y,z
1/2+x,1/2-y,z
loop_
_atom_site_type_symbol
_atom_site_label
_atom_site_fract_x
_atom_site_fract_y
_atom_site_fract_z
Si Si1 0.750359 0.504643 0.890852
Si Si2 0.149714 0.348931 0.895855
Si Si3 0.739792 0.790495 0.895784
Si Si4 0.413896 0.426335 0.000000
Si Si5 0.549684 0.623267 0.500000
Si Si6 0.652655 0.640855 0.826793
Si Si7 0.937677 0.776167 0.191971
O O1 0.815078 0.554874 0.869260
O O2 0.753644 0.396805 0.859210
O O3 0.698515 0.552029 0.827183
O O4 0.733880 0.518819 0.000000
O O5 0.195152 0.259621 0.891476
O O6 0.095179 0.326200 0.822966
O O7 0.123980 0.358318 0.000000
O O8 0.691211 0.737739 0.831315
O O9 0.714511 0.790799 0.000000
O O10 0.485645 0.426424 0.000000
O O11 0.398360 0.539684 0.000000
O O12 0.390641 0.368900 0.913553
O O13 0.553267 0.687275 0.589599
O O14 0.607541 0.647842 0.739883
O O15 0.000000 0.763103 0.250000
#
# Coordination Sequence:
#
# PCOD8295294 Si02
#       7
#    16  16  16   8   8  16  16
#     4   9  18  34  61  95 128 168 203 250 315 376
#     4   9  19  37  59  86 125 163 206 252 310 378
#     4   9  18  35  63  93 128 168 202 247 316 370
#     4  11  22  42  63  88 132 160 206 259 297 373
#     4  11  26  44  59  88 126 174 206 247 312 368
#     4  11  21  38  64  97 126 164 210 257 307 375
#     4  12  25  41  63  90 122 167 212 258 311 370
#
# _framework density 21.313504999999999
#
# number of rings (size 3 to 8) (size 9 to 14) (size 15 to 20)
#    0.000    1.833    4.167    1.000    2.333    3.333 
#    0.000    2.500    0.000    2.000    0.000    4.667 
#    0.000    0.000    0.000    0.000    0.000    0.000 
#
# Total GULP energy -594921.903428 kJ/mol
# GULP energy per Si atom -12394.206321 kJ/mol
# Density = 2.126499 g / cm^3
# Si number density = 21.313505 Si / 1000 Ang^3
#
#
#
# Elastic Constant Matrix: (Units=GPa)
#
#
# Indices 1 2 3 4 5 6 
#
# 1 85.1161 30.3360 31.1071 0.0000 0.0000 0.0000
# 2 30.3360 127.1167 8.7651 0.0000 0.0000 0.0000
# 3 31.1071 8.7651 85.8545 0.0000 0.0000 0.0000
# 4 0.0000 0.0000 0.0000 12.9442 0.0000 0.0000
# 5 0.0000 0.0000 0.0000 0.0000 26.7138 0.0000
# 6 0.0000 0.0000 0.0000 0.0000 0.0000 16.0015
#
#
#
# Elastic Compliance Matrix: (Units=1/GPa)
#
#
# Indices 1 2 3 4 5 6 
#
# 1 0.014706 -0.003164 -0.005005 0.000000 0.000000 0.000000
# 2 -0.003164 0.008603 0.000268 0.000000 0.000000 0.000000
# 3 -0.005005 0.000268 0.013434 0.000000 0.000000 0.000000
# 4 0.000000 0.000000 0.000000 0.077254 0.000000 0.000000
# 5 0.000000 0.000000 0.000000 0.000000 0.037434 0.000000
# 6 0.000000 0.000000 0.000000 0.000000 0.000000 0.062494
#
#
# Mechanical properties :
#
#
# Convention : Reuss Voigt Hill
#
# Bulk Modulus (GPa) = 47.75506 48.72263 48.23884
# Shear Modulus (GPa) = 21.12308 26.32386 23.72347
#
# Velocity S-wave (km/s) = 3.15153 3.51818 3.33989
# Velocity P-wave (km/s) = 5.97474 6.27798 6.12824
#
# Compressibility (1/GPa) = 0.02094019
#
# Stress axis : x y z
#
# Youngs Moduli (GPa) = 68.00099 116.23237 74.43950
#
# Poissons Ratio (x) = 0.36780 0.37258
# Poissons Ratio (y) = 0.21518 -0.01996
# Poissons Ratio (z) = 0.34036 -0.03117
#
# Static dielectric constant tensor:
#      x y z
#    x 3.920470 0.000000 0.000000 
#    y 0.000000 3.748070 0.000000 
#    z 0.000000 0.000000 3.881760 
# 
# 
# High freq. dielectric constant tensor:
#      x y z
#    x 1.822990 0.000000 0.000000 
#    y 0.000000 1.822630 0.000000 
#    z 0.000000 0.000000 1.846270 
# 
# From -- ./inp_files/25138.got.cif
#   From: 2010.03.12/outbox.cif.g09.slc.cpg/sg72_13_cif.got.tgz:25138.got - 2010.04.16 14:54:00.
