data_PCOD8295405
_publ_section_title
;
Structure prediction by ZEFSAII (Michael W. Deem and Ramdas Pophale) SiO2 
 PCOD8295405
Probable space group: I B A M
;
_chemical_formula_sum "Si O2"
_cell_formula_units_Z 60
_cell_length_a 5.337595
_cell_length_b 21.473499
_cell_length_c 22.739557
_cell_angle_alpha 90.000000
_cell_angle_beta 90.000000
_cell_angle_gamma 90.000000
_cell_volume 2606.336187
_symmetry_space_group_name_H-M "I B A M"
_symmetry_group_IT_number 72
_symmetry_cell_setting 'orthorhombic'
loop_
_space_group_symop_operation_xyz
x,y,z
-x,-y,z
x,-y,1/2-z
-x,y,1/2-z
-x,-y,-z
x,y,-z
-x,y,1/2+z
x,-y,1/2+z
1/2+x,1/2+y,1/2+z
1/2-x,1/2-y,1/2+z
1/2+x,1/2-y,-z
1/2-x,1/2+y,-z
1/2-x,1/2-y,1/2-z
1/2+x,1/2+y,1/2-z
1/2-x,1/2+y,z
1/2+x,1/2-y,z
loop_
_atom_site_type_symbol
_atom_site_label
_atom_site_fract_x
_atom_site_fract_y
_atom_site_fract_z
Si Si1 0.000000 0.000000 0.899158
Si Si2 0.234074 0.289359 0.619647
Si Si3 0.756194 0.443816 0.500000
Si Si4 0.751870 0.862701 0.000000
Si Si5 0.846102 0.095394 0.308312
Si Si6 0.500000 0.000000 0.250000
O O1 0.001857 0.936309 0.861070
O O2 0.238289 0.988934 0.942585
O O3 0.495637 0.254218 0.629486
O O4 0.227384 0.318074 0.555453
O O5 0.213283 0.342434 0.669378
O O6 0.520845 0.396111 0.500000
O O7 0.020102 0.409859 0.500000
O O8 0.650663 0.042144 0.294311
O O9 0.000000 0.111820 0.250000
#
# Coordination Sequence:
#
# PCOD8295405 Si02
#       6
#     8  16   8   8  16   4
#     4  11  23  48  68 118 151 191 240 316 382 455
#     4  12  29  50  76 106 151 198 254 309 365 449
#     4  11  26  41  78 113 153 187 243 306 381 461
#     4  12  24  48  74 109 149 197 249 306 379 445
#     4  12  27  47  76 109 150 200 250 311 381 446
#     4  12  26  44  80 108 144 196 250 314 380 456
#
# _framework density 23.020820000000001
#
# number of rings (size 3 to 8) (size 9 to 14) (size 15 to 20)
#    0.000    0.267    5.333    2.400    7.467    3.200 
#    0.000    0.000    0.000    0.000    0.000    0.000 
#    0.000    0.000    0.000    0.000    0.000    0.000 
#
# Total GULP energy -371907.274548 kJ/mol
# GULP energy per Si atom -12396.909152 kJ/mol
# Density = 2.296842 g / cm^3
# Si number density = 23.020820 Si / 1000 Ang^3
#
#
#
# Elastic Constant Matrix: (Units=GPa)
#
#
# Indices 1 2 3 4 5 6 
#
# 1 119.6876 49.0570 33.0912 0.0000 0.0000 0.0000
# 2 49.0570 123.4978 68.9021 0.0000 0.0000 0.0000
# 3 33.0912 68.9021 164.0184 0.0000 0.0000 0.0000
# 4 0.0000 0.0000 0.0000 220.2886 0.0000 0.0000
# 5 0.0000 0.0000 0.0000 0.0000 16.6289 0.0000
# 6 0.0000 0.0000 0.0000 0.0000 0.0000 63.1051
#
#
#
# Elastic Compliance Matrix: (Units=1/GPa)
#
#
# Indices 1 2 3 4 5 6 
#
# 1 0.010006 -0.003720 -0.000456 0.000000 0.000000 0.000000
# 2 -0.003720 0.011959 -0.004273 0.000000 0.000000 0.000000
# 3 -0.000456 -0.004273 0.007984 0.000000 0.000000 0.000000
# 4 0.000000 0.000000 0.000000 0.004539 0.000000 0.000000
# 5 0.000000 0.000000 0.000000 0.000000 0.060136 0.000000
# 6 0.000000 0.000000 0.000000 0.000000 0.000000 0.015847
#
#
# Mechanical properties :
#
#
# Convention : Reuss Voigt Hill
#
# Bulk Modulus (GPa) = 76.62715 78.81160 77.71938
# Shear Modulus (GPa) = 37.95906 77.08142 57.52024
#
# Velocity S-wave (km/s) = 4.06507 5.79276 5.00404
# Velocity P-wave (km/s) = 7.44254 8.89104 8.19884
#
# Compressibility (1/GPa) = 0.01305020
#
# Stress axis : x y z
#
# Youngs Moduli (GPa) = 99.93998 83.61655 125.24973
#
# Poissons Ratio (x) = 0.31108 0.05710
# Poissons Ratio (y) = 0.37181 0.53524
# Poissons Ratio (z) = 0.04556 0.35733
#
# Static dielectric constant tensor:
#      x y z
#    x 27.514220 0.000000 0.000000 
#    y 0.000000 4.407520 0.000000 
#    z 0.000000 0.000000 4.442120 
# 
# 
# High freq. dielectric constant tensor:
#      x y z
#    x 1.906910 0.000000 0.000000 
#    y 0.000000 1.924170 0.000000 
#    z 0.000000 0.000000 1.933650 
# 
# From -- ./inp_files/34740.got.cif
#   From: 2010.03.12/outbox.cif.g09.slc.cpg/sg72_18_cif.got.tgz:34740.got - 2010.04.16 14:54:00.
