data_PCOD8295973
_publ_section_title
;
Structure prediction by ZEFSAII (Michael W. Deem and Ramdas Pophale) SiO2 
 PCOD8295973
Probable space group: I B C A 
;
_chemical_formula_sum "Si O2"
_cell_formula_units_Z 88
_cell_length_a 16.286408
_cell_length_b 18.153149
_cell_length_c 13.681421
_cell_angle_alpha 90.000000
_cell_angle_beta 90.000000
_cell_angle_gamma 90.000000
_cell_volume 4044.906524
_symmetry_space_group_name_H-M "I B C A "
_symmetry_group_IT_number 73
_symmetry_cell_setting 'orthorhombic'
loop_
_space_group_symop_operation_xyz
x,y,z
-x,1/2-y,z
x,-y,1/2-z
1/2-x,y,-z
-x,-y,-z
x,1/2+y,-z
-x,y,1/2+z
1/2+x,-y,z
1/2+x,1/2+y,1/2+z
1/2-x,-y,1/2+z
1/2+x,1/2-y,-z
-x,1/2+y,1/2-z
1/2-x,1/2-y,1/2-z
1/2+x,y,1/2-z
1/2-x,1/2+y,z
x,1/2-y,1/2+z
loop_
_atom_site_type_symbol
_atom_site_label
_atom_site_fract_x
_atom_site_fract_y
_atom_site_fract_z
Si Si1 0.250000 0.512534 0.000000
Si Si2 0.723795 0.688919 0.823329
Si Si3 0.638800 0.388840 0.418265
Si Si4 0.054772 0.186187 0.413521
Si Si5 0.500343 0.837883 0.208612
Si Si6 0.842483 0.928569 0.813006
O O1 0.182232 0.466122 0.060399
O O2 0.297098 0.558964 0.083162
O O3 0.750000 0.750000 0.750000
O O4 0.790498 0.673558 0.908161
O O5 0.639545 0.717797 0.869976
O O6 0.716841 0.613277 0.762511
O O7 0.576425 0.374704 0.507277
O O8 0.581467 0.382362 0.322759
O O9 0.002581 0.150944 0.325522
O O10 0.000000 0.250000 0.463592
O O11 0.500000 0.750000 0.182255
O O12 0.579518 0.877232 0.160829
O O13 0.869786 0.000000 0.750000
#
# Coordination Sequence:
#
# PCOD8295973 Si02
#       6
#     8  16  16  16  16  16
#     4  12  24  44  68 102 138 194 236 284 364 434
#     4  11  22  42  70 100 140 186 236 298 357 421
#     4  12  21  43  69  99 142 187 240 288 362 426
#     4  10  20  38  65  99 136 179 230 295 355 411
#     4  10  23  44  67  99 140 183 239 304 359 418
#     4  11  23  48  68  99 146 184 234 303 353 435
#
# _framework density 21.755756999999999
#
# number of rings (size 3 to 8) (size 9 to 14) (size 15 to 20)
#    0.000    1.091    3.636    4.909    0.000    0.727 
#   16.364    0.000    0.000    0.000    0.000    0.000 
#    0.000    0.000    0.000    0.000    0.000    0.000 
#
# Total GULP energy -545265.425270 kJ/mol
# GULP energy per Si atom -12392.396029 kJ/mol
# Density = 2.170624 g / cm^3
# Si number density = 21.755757 Si / 1000 Ang^3
#
#
#
# Elastic Constant Matrix: (Units=GPa)
#
#
# Indices 1 2 3 4 5 6 
#
# 1 116.7043 45.1090 50.0241 0.0000 0.0000 0.0000
# 2 45.1090 104.7815 32.8827 0.0000 0.0000 0.0000
# 3 50.0241 32.8827 91.4854 0.0000 0.0000 0.0000
# 4 0.0000 0.0000 0.0000 29.0902 0.0000 0.0000
# 5 0.0000 0.0000 0.0000 0.0000 44.0436 0.0000
# 6 0.0000 0.0000 0.0000 0.0000 0.0000 45.6128
#
#
#
# Elastic Compliance Matrix: (Units=1/GPa)
#
#
# Indices 1 2 3 4 5 6 
#
# 1 0.012280 -0.003584 -0.005427 0.000000 0.000000 0.000000
# 2 -0.003584 0.011803 -0.002283 0.000000 0.000000 0.000000
# 3 -0.005427 -0.002283 0.014718 0.000000 0.000000 0.000000
# 4 0.000000 0.000000 0.000000 0.034376 0.000000 0.000000
# 5 0.000000 0.000000 0.000000 0.000000 0.022705 0.000000
# 6 0.000000 0.000000 0.000000 0.000000 0.000000 0.021924
#
#
# Mechanical properties :
#
#
# Convention : Reuss Voigt Hill
#
# Bulk Modulus (GPa) = 61.67036 63.22251 62.44644
# Shear Modulus (GPa) = 34.29443 36.07968 35.18705
#
# Velocity S-wave (km/s) = 3.97462 4.07676 4.02601
# Velocity P-wave (km/s) = 7.03361 7.16123 7.09771
#
# Compressibility (1/GPa) = 0.01621524
#
# Stress axis : x y z
#
# Youngs Moduli (GPa) = 81.43433 84.72564 67.94197
#
# Poissons Ratio (x) = 0.30362 0.36869
# Poissons Ratio (y) = 0.29183 0.15510
# Poissons Ratio (z) = 0.44191 0.19341
#
# Static dielectric constant tensor:
#      x y z
#    x 4.226200 0.000000 0.000000 
#    y 0.000000 5.003150 0.000000 
#    z 0.000000 0.000000 4.166900 
# 
# 
# High freq. dielectric constant tensor:
#      x y z
#    x 1.868430 0.000000 0.000000 
#    y 0.000000 1.828790 0.000000 
#    z 0.000000 0.000000 1.865920 
# 
# From -- ./inp_files/17931.got.cif
#   From: 2010.03.12/outbox.cif.g09.slc.cpg/sg73_9_cif.got.tgz:17931.got - 2010.04.16 15:25:48.
