data_PCOD8295507
_publ_section_title
;
Structure prediction by ZEFSAII (Michael W. Deem and Ramdas Pophale) SiO2 
 PCOD8295507
Probable space group: I B A M
;
_chemical_formula_sum "Si O2"
_cell_formula_units_Z 80
_cell_length_a 22.416729
_cell_length_b 8.341681
_cell_length_c 21.540953
_cell_angle_alpha 90.000000
_cell_angle_beta 90.000000
_cell_angle_gamma 90.000000
_cell_volume 4028.011784
_symmetry_space_group_name_H-M "I B A M"
_symmetry_group_IT_number 72
_symmetry_cell_setting 'orthorhombic'
loop_
_space_group_symop_operation_xyz
x,y,z
-x,-y,z
x,-y,1/2-z
-x,y,1/2-z
-x,-y,-z
x,y,-z
-x,y,1/2+z
x,-y,1/2+z
1/2+x,1/2+y,1/2+z
1/2-x,1/2-y,1/2+z
1/2+x,1/2-y,-z
1/2-x,1/2+y,-z
1/2-x,1/2-y,1/2-z
1/2+x,1/2+y,1/2-z
1/2-x,1/2+y,z
1/2+x,1/2-y,z
loop_
_atom_site_type_symbol
_atom_site_label
_atom_site_fract_x
_atom_site_fract_y
_atom_site_fract_z
Si Si1 0.778675 0.040368 0.145065
Si Si2 0.911470 0.500000 0.750000
Si Si3 0.601000 0.886450 0.570733
Si Si4 0.171342 0.266530 0.819613
Si Si5 0.313581 0.169816 0.929439
Si Si6 0.000000 0.500000 0.646232
O O1 0.818326 0.923996 0.189483
O O2 0.741676 0.931475 0.097033
O O3 0.733697 0.140030 0.188534
O O4 0.821192 0.164634 0.108442
O O5 0.873440 0.655182 0.770169
O O6 0.949897 0.572269 0.692809
O O7 0.598821 0.824219 0.500000
O O8 0.646538 0.778616 0.609819
O O9 0.534572 0.875712 0.600998
O O10 0.624675 0.070242 0.574763
O O11 0.298040 0.212538 0.000000
#
# Coordination Sequence:
#
# PCOD8295507 Si02
#       6
#    16   8  16  16  16   8
#     4   9  17  28  43  68 102 131 156 189 226 278
#     4   9  18  32  50  68  86 118 162 205 242 278
#     4   9  17  29  48  73  96 121 156 195 236 284
#     4   9  18  30  46  71  98 126 159 189 230 282
#     4   9  16  26  43  69 102 135 161 185 225 284
#     4   9  17  32  52  68  87 115 158 210 248 275
#
# _framework density 19.860916
#
# number of rings (size 3 to 8) (size 9 to 14) (size 15 to 20)
#    0.000    3.000    0.000    0.900    0.000    6.400 
#    0.000    0.000    0.000    4.800    0.000   35.000 
#    0.000    0.000    0.000    0.000    0.000    0.000 
#
# Total GULP energy -495572.764097 kJ/mol
# GULP energy per Si atom -12389.319102 kJ/mol
# Density = 1.981571 g / cm^3
# Si number density = 19.860916 Si / 1000 Ang^3
#
#
#
# Elastic Constant Matrix: (Units=GPa)
#
#
# Indices 1 2 3 4 5 6 
#
# 1 58.3023 19.5915 21.8049 0.0000 0.0000 0.0000
# 2 19.5915 87.5794 17.1138 0.0000 0.0000 0.0000
# 3 21.8049 17.1138 81.3254 0.0000 0.0000 0.0000
# 4 0.0000 0.0000 0.0000 21.7822 0.0000 0.0000
# 5 0.0000 0.0000 0.0000 0.0000 18.9994 0.0000
# 6 0.0000 0.0000 0.0000 0.0000 0.0000 3.3712
#
#
#
# Elastic Compliance Matrix: (Units=1/GPa)
#
#
# Indices 1 2 3 4 5 6 
#
# 1 0.020090 -0.003589 -0.004631 0.000000 0.000000 0.000000
# 2 -0.003589 0.012549 -0.001678 0.000000 0.000000 0.000000
# 3 -0.004631 -0.001678 0.013891 0.000000 0.000000 0.000000
# 4 0.000000 0.000000 0.000000 0.045909 0.000000 0.000000
# 5 0.000000 0.000000 0.000000 0.000000 0.052633 0.000000
# 6 0.000000 0.000000 0.000000 0.000000 0.000000 0.296633
#
#
# Mechanical properties :
#
#
# Convention : Reuss Voigt Hill
#
# Bulk Modulus (GPa) = 37.40739 38.24749 37.82744
# Shear Modulus (GPa) = 10.62893 20.07701 15.35297
#
# Velocity S-wave (km/s) = 2.31588 3.18288 2.78335
# Velocity P-wave (km/s) = 5.10163 5.72775 5.42373
#
# Compressibility (1/GPa) = 0.02673268
#
# Stress axis : x y z
#
# Youngs Moduli (GPa) = 49.77564 79.68698 71.98795
#
# Poissons Ratio (x) = 0.28601 0.33339
# Poissons Ratio (y) = 0.17865 0.12083
# Poissons Ratio (z) = 0.23052 0.13375
#
# Static dielectric constant tensor:
#      x y z
#    x 3.683370 0.000000 0.000000 
#    y 0.000000 3.450330 0.000000 
#    z 0.000000 0.000000 3.737550 
# 
# 
# High freq. dielectric constant tensor:
#      x y z
#    x 1.760670 0.000000 0.000000 
#    y 0.000000 1.735770 0.000000 
#    z 0.000000 0.000000 1.788410 
# 
# From -- ./inp_files/45194.got.cif
#   From: 2010.03.12/outbox.cif.g09.slc.cpg/sg72_23_cif.got.tgz:45194.got - 2010.04.16 14:54:00.
