data_PCOD8295214
_publ_section_title
;
Structure prediction by ZEFSAII (Michael W. Deem and Ramdas Pophale) SiO2 
 PCOD8295214
Probable space group: I B A M
;
_chemical_formula_sum "Si O2"
_cell_formula_units_Z 64
_cell_length_a 14.282039
_cell_length_b 8.463596
_cell_length_c 22.383609
_cell_angle_alpha 90.000000
_cell_angle_beta 90.000000
_cell_angle_gamma 90.000000
_cell_volume 2705.672641
_symmetry_space_group_name_H-M "I B A M"
_symmetry_group_IT_number 72
_symmetry_cell_setting 'orthorhombic'
loop_
_space_group_symop_operation_xyz
x,y,z
-x,-y,z
x,-y,1/2-z
-x,y,1/2-z
-x,-y,-z
x,y,-z
-x,y,1/2+z
x,-y,1/2+z
1/2+x,1/2+y,1/2+z
1/2-x,1/2-y,1/2+z
1/2+x,1/2-y,-z
1/2-x,1/2+y,-z
1/2-x,1/2-y,1/2-z
1/2+x,1/2+y,1/2-z
1/2-x,1/2+y,z
1/2+x,1/2-y,z
loop_
_atom_site_type_symbol
_atom_site_label
_atom_site_fract_x
_atom_site_fract_y
_atom_site_fract_z
Si Si1 0.554875 0.662276 0.138341
Si Si2 0.123988 0.289839 0.886671
Si Si3 0.720777 0.515464 0.930413
Si Si4 0.353714 0.187143 0.747559
O O1 0.500000 0.500000 0.150861
O O2 0.486024 0.771951 0.095804
O O3 0.649247 0.635005 0.101342
O O4 0.580776 0.743693 0.200946
O O5 0.174289 0.456232 0.902370
O O6 0.111022 0.254597 0.816466
O O7 0.191485 0.163800 0.918936
O O8 0.722676 0.552997 0.000000
O O9 0.250000 0.250000 0.750000
O O10 0.355907 0.000000 0.750000
#
# Coordination Sequence:
#
# PCOD8295214 Si02
#       4
#    16  16  16  16
#     4  10  25  43  72 104 140 183 235 288 362 426
#     4  11  24  43  67  98 138 179 227 292 351 416
#     4  11  24  44  68  98 135 187 241 288 344 414
#     4  12  25  44  74 107 147 185 229 292 364 437
#
# _framework density 23.654008000000001
#
# number of rings (size 3 to 8) (size 9 to 14) (size 15 to 20)
#    0.000    1.000    2.500    3.000    3.500   10.500 
#    0.000    0.000    0.000    3.000    0.000    0.000 
#    0.000    0.000    0.000    0.000    0.000    0.000 
#
# Total GULP energy -396634.404733 kJ/mol
# GULP energy per Si atom -12394.825148 kJ/mol
# Density = 2.360017 g / cm^3
# Si number density = 23.654008 Si / 1000 Ang^3
#
#
#
# Elastic Constant Matrix: (Units=GPa)
#
#
# Indices 1 2 3 4 5 6 
#
# 1 111.3238 31.8769 29.6748 0.0000 0.0000 0.0000
# 2 31.8769 33.3844 26.1930 0.0000 0.0000 0.0000
# 3 29.6748 26.1930 140.8399 0.0000 0.0000 0.0000
# 4 0.0000 0.0000 0.0000 30.5542 0.0000 0.0000
# 5 0.0000 0.0000 0.0000 0.0000 16.3702 0.0000
# 6 0.0000 0.0000 0.0000 0.0000 0.0000 36.2668
#
#
#
# Elastic Compliance Matrix: (Units=1/GPa)
#
#
# Indices 1 2 3 4 5 6 
#
# 1 0.012391 -0.011454 -0.000480 0.000000 0.000000 0.000000
# 2 -0.011454 0.045660 -0.006078 0.000000 0.000000 0.000000
# 3 -0.000480 -0.006078 0.008332 0.000000 0.000000 0.000000
# 4 0.000000 0.000000 0.000000 0.032729 0.000000 0.000000
# 5 0.000000 0.000000 0.000000 0.000000 0.061087 0.000000
# 6 0.000000 0.000000 0.000000 0.000000 0.000000 0.027573
#
#
# Mechanical properties :
#
#
# Convention : Reuss Voigt Hill
#
# Bulk Modulus (GPa) = 32.94173 51.22638 42.08405
# Shear Modulus (GPa) = 21.37516 29.82513 25.60014
#
# Velocity S-wave (km/s) = 3.00935 3.55476 3.29336
# Velocity P-wave (km/s) = 5.10212 6.20902 5.68259
#
# Compressibility (1/GPa) = 0.03035663
#
# Stress axis : x y z
#
# Youngs Moduli (GPa) = 80.70553 21.90099 120.02025
#
# Poissons Ratio (x) = 0.25086 0.05767
# Poissons Ratio (y) = 0.92442 0.72952
# Poissons Ratio (z) = 0.03878 0.13312
#
# Static dielectric constant tensor:
#      x y z
#    x 7.541680 0.000000 0.000000 
#    y 0.000000 4.272930 0.000000 
#    z 0.000000 0.000000 4.208160 
# 
# 
# High freq. dielectric constant tensor:
#      x y z
#    x 1.965410 0.000000 0.000000 
#    y 0.000000 1.935200 0.000000 
#    z 0.000000 0.000000 1.925530 
# 
# From -- ./inp_files/41903.got.cif
#   From: 2010.03.12/outbox.cif.g09.slc.cpg/sg72_21_cif.got.tgz:41903.got - 2010.04.16 14:54:00.
