data_PCOD8295288
_publ_section_title
;
Structure prediction by ZEFSAII (Michael W. Deem and Ramdas Pophale) SiO2 
 PCOD8295288
Probable space group: I B A M
;
_chemical_formula_sum "Si O2"
_cell_formula_units_Z 88
_cell_length_a 9.530954
_cell_length_b 19.175975
_cell_length_c 23.498323
_cell_angle_alpha 90.000000
_cell_angle_beta 90.000000
_cell_angle_gamma 90.000000
_cell_volume 4294.678890
_symmetry_space_group_name_H-M "I B A M"
_symmetry_group_IT_number 72
_symmetry_cell_setting 'orthorhombic'
loop_
_space_group_symop_operation_xyz
x,y,z
-x,-y,z
x,-y,1/2-z
-x,y,1/2-z
-x,-y,-z
x,y,-z
-x,y,1/2+z
x,-y,1/2+z
1/2+x,1/2+y,1/2+z
1/2-x,1/2-y,1/2+z
1/2+x,1/2-y,-z
1/2-x,1/2+y,-z
1/2-x,1/2-y,1/2-z
1/2+x,1/2+y,1/2-z
1/2-x,1/2+y,z
1/2+x,1/2-y,z
loop_
_atom_site_type_symbol
_atom_site_label
_atom_site_fract_x
_atom_site_fract_y
_atom_site_fract_z
Si Si1 0.491781 0.210225 0.893256
Si Si2 0.248739 0.500000 0.250000
Si Si3 0.298513 0.327008 0.563810
Si Si4 0.072334 0.068315 0.152214
Si Si5 0.899403 0.810875 0.300123
Si Si6 0.386927 0.870300 0.204049
O O1 0.612720 0.257002 0.922219
O O2 0.369967 0.185507 0.936309
O O3 0.402721 0.252703 0.847659
O O4 0.563295 0.144360 0.860918
O O5 0.339132 0.451025 0.291587
O O6 0.151887 0.548334 0.289975
O O7 0.339043 0.349987 0.500000
O O8 0.334089 0.390434 0.606452
O O9 0.944340 0.115068 0.173565
O O10 0.000000 0.000000 0.124286
O O11 0.740796 0.819123 0.279278
O O12 0.000000 0.786509 0.250000
O O13 0.500000 0.848279 0.250000
#
# Coordination Sequence:
#
# PCOD8295288 Si02
#       6
#    16   8  16  16  16  16
#     4  11  24  42  63  93 126 165 213 275 329 385
#     4  12  22  42  60 100 134 174 206 254 320 406
#     4  11  25  44  68  92 122 168 224 282 329 378
#     4  11  21  38  68  92 129 170 214 260 322 393
#     4  11  21  37  62  91 129 167 206 256 324 394
#     4  12  24  36  60  95 133 171 202 256 323 398
#
# _framework density 20.490473000000001
#
# number of rings (size 3 to 8) (size 9 to 14) (size 15 to 20)
#    0.000    0.727    5.455    2.727    2.545    1.818 
#    0.000    0.000    0.000    3.273    0.000    0.000 
#    0.000    0.000    0.000    0.000    0.000    0.000 
#
# Total GULP energy -545603.810802 kJ/mol
# GULP energy per Si atom -12400.086609 kJ/mol
# Density = 2.044384 g / cm^3
# Si number density = 20.490473 Si / 1000 Ang^3
#
#
#
# Elastic Constant Matrix: (Units=GPa)
#
#
# Indices 1 2 3 4 5 6 
#
# 1 122.1316 24.1000 31.8264 0.0000 0.0000 0.0000
# 2 24.1000 96.0370 30.3851 0.0000 0.0000 0.0000
# 3 31.8264 30.3851 105.8696 0.0000 0.0000 0.0000
# 4 0.0000 0.0000 0.0000 19.4368 0.0000 0.0000
# 5 0.0000 0.0000 0.0000 0.0000 26.5794 0.0000
# 6 0.0000 0.0000 0.0000 0.0000 0.0000 23.8968
#
#
#
# Elastic Compliance Matrix: (Units=1/GPa)
#
#
# Indices 1 2 3 4 5 6 
#
# 1 0.009091 -0.001558 -0.002286 0.000000 0.000000 0.000000
# 2 -0.001558 0.011720 -0.002895 0.000000 0.000000 0.000000
# 3 -0.002286 -0.002895 0.010964 0.000000 0.000000 0.000000
# 4 0.000000 0.000000 0.000000 0.051449 0.000000 0.000000
# 5 0.000000 0.000000 0.000000 0.000000 0.037623 0.000000
# 6 0.000000 0.000000 0.000000 0.000000 0.000000 0.041847
#
#
# Mechanical properties :
#
#
# Convention : Reuss Voigt Hill
#
# Bulk Modulus (GPa) = 54.65627 55.18458 54.92043
# Shear Modulus (GPa) = 27.43187 29.83106 28.63147
#
# Velocity S-wave (km/s) = 3.66288 3.81970 3.74211
# Velocity P-wave (km/s) = 6.67988 6.81497 6.74776
#
# Compressibility (1/GPa) = 0.01829616
#
# Stress axis : x y z
#
# Youngs Moduli (GPa) = 109.99899 85.32657 91.21053
#
# Poissons Ratio (x) = 0.13295 0.20848
# Poissons Ratio (y) = 0.17140 0.26407
# Poissons Ratio (z) = 0.25143 0.24704
#
# Static dielectric constant tensor:
#      x y z
#    x 3.848310 0.000000 0.000000 
#    y 0.000000 3.866630 0.000000 
#    z 0.000000 0.000000 3.484670 
# 
# 
# High freq. dielectric constant tensor:
#      x y z
#    x 1.818380 0.000000 0.000000 
#    y 0.000000 1.804880 0.000000 
#    z 0.000000 0.000000 1.772580 
# 
# From -- ./inp_files/42270.got.cif
#   From: 2010.03.12/outbox.cif.g09.slc.cpg/sg72_22_cif.got.tgz:42270.got - 2010.04.16 14:54:00.
