data_PCOD8295663
_publ_section_title
;
Structure prediction by ZEFSAII (Michael W. Deem and Ramdas Pophale) SiO2 
 PCOD8295663
Probable space group: I B C A 
;
_chemical_formula_sum "Si O2"
_cell_formula_units_Z 96
_cell_length_a 22.592979
_cell_length_b 12.920063
_cell_length_c 15.835400
_cell_angle_alpha 90.000000
_cell_angle_beta 90.000000
_cell_angle_gamma 90.000000
_cell_volume 4622.396206
_symmetry_space_group_name_H-M "I B C A "
_symmetry_group_IT_number 73
_symmetry_cell_setting 'orthorhombic'
loop_
_space_group_symop_operation_xyz
x,y,z
-x,1/2-y,z
x,-y,1/2-z
1/2-x,y,-z
-x,-y,-z
x,1/2+y,-z
-x,y,1/2+z
1/2+x,-y,z
1/2+x,1/2+y,1/2+z
1/2-x,-y,1/2+z
1/2+x,1/2-y,-z
-x,1/2+y,1/2-z
1/2-x,1/2-y,1/2-z
1/2+x,y,1/2-z
1/2-x,1/2+y,z
x,1/2-y,1/2+z
loop_
_atom_site_type_symbol
_atom_site_label
_atom_site_fract_x
_atom_site_fract_y
_atom_site_fract_z
Si Si1 0.415568 0.500000 0.750000
Si Si2 0.865498 0.154843 0.383721
Si Si3 0.706077 0.000000 0.250000
Si Si4 0.611158 0.413670 0.935219
Si Si5 0.983336 0.634190 0.300988
Si Si6 0.740724 0.407478 0.909472
Si Si7 0.390189 0.383279 0.165145
O O1 0.375580 0.577564 0.805364
O O2 0.457135 0.567310 0.687153
O O3 0.897740 0.104260 0.465177
O O4 0.794869 0.173418 0.399363
O O5 0.893111 0.266823 0.368185
O O6 0.747783 0.985195 0.168954
O O7 0.664375 0.900468 0.269656
O O8 0.556634 0.364132 0.885221
O O9 0.674062 0.360180 0.907348
O O10 0.614923 0.536441 0.913104
O O11 0.949210 0.591044 0.218050
O O12 0.000000 0.750000 0.279674
O O13 0.750000 0.465500 0.000000
#
# Coordination Sequence:
#
# PCOD8295663 Si02
#       7
#     8  16   8  16  16  16  16
#     4  12  24  40  60  92 136 162 210 288 308 374
#     4  11  25  40  64 104 132 163 220 275 327 377
#     4  10  18  38  68  88 128 186 210 260 334 394
#     4  10  22  45  66  92 131 174 215 262 328 398
#     4  12  22  42  66  90 124 171 223 265 319 388
#     4   9  19  39  63  94 134 166 216 269 319 396
#     4  11  20  41  68  90 124 179 217 253 325 405
#
# _framework density 20.768447999999999
#
# number of rings (size 3 to 8) (size 9 to 14) (size 15 to 20)
#    0.000    1.333    6.667    0.500    0.000    2.667 
#    3.000   21.667    0.000    0.000    0.000    0.000 
#    0.000    0.000    0.000    0.000    0.000    0.000 
#
# Total GULP energy -594711.884359 kJ/mol
# GULP energy per Si atom -12389.830924 kJ/mol
# Density = 2.072118 g / cm^3
# Si number density = 20.768448 Si / 1000 Ang^3
#
#
#
# Elastic Constant Matrix: (Units=GPa)
#
#
# Indices 1 2 3 4 5 6 
#
# 1 80.2321 20.1435 28.4261 0.0000 0.0000 0.0000
# 2 20.1435 101.0630 35.3887 0.0000 0.0000 0.0000
# 3 28.4261 35.3887 139.8193 0.0000 0.0000 0.0000
# 4 0.0000 0.0000 0.0000 32.5454 0.0000 0.0000
# 5 0.0000 0.0000 0.0000 0.0000 21.9204 0.0000
# 6 0.0000 0.0000 0.0000 0.0000 0.0000 22.8959
#
#
#
# Elastic Compliance Matrix: (Units=1/GPa)
#
#
# Indices 1 2 3 4 5 6 
#
# 1 0.013768 -0.001936 -0.002309 0.000000 0.000000 0.000000
# 2 -0.001936 0.011129 -0.002423 0.000000 0.000000 0.000000
# 3 -0.002309 -0.002423 0.008235 0.000000 0.000000 0.000000
# 4 0.000000 0.000000 0.000000 0.030726 0.000000 0.000000
# 5 0.000000 0.000000 0.000000 0.000000 0.045620 0.000000
# 6 0.000000 0.000000 0.000000 0.000000 0.000000 0.043676
#
#
# Mechanical properties :
#
#
# Convention : Reuss Voigt Hill
#
# Bulk Modulus (GPa) = 50.51568 54.33679 52.42623
# Shear Modulus (GPa) = 28.88694 31.28275 30.08485
#
# Velocity S-wave (km/s) = 3.73353 3.88527 3.81016
# Velocity P-wave (km/s) = 6.55452 6.80787 6.68239
#
# Compressibility (1/GPa) = 0.01979584
#
# Stress axis : x y z
#
# Youngs Moduli (GPa) = 72.63251 89.85398 121.43424
#
# Poissons Ratio (x) = 0.17392 0.28042
# Poissons Ratio (y) = 0.14059 0.29427
# Poissons Ratio (z) = 0.16772 0.21774
#
# Static dielectric constant tensor:
#      x y z
#    x 3.956620 0.000000 0.000000 
#    y 0.000000 3.436990 0.000000 
#    z 0.000000 0.000000 3.914310 
# 
# 
# High freq. dielectric constant tensor:
#      x y z
#    x 1.822040 0.000000 0.000000 
#    y 0.000000 1.778520 0.000000 
#    z 0.000000 0.000000 1.818300 
# 
# From -- ./inp_files/13670.got.cif
#   From: 2010.03.12/outbox.cif.g09.slc.cpg/sg73_7_cif.got.tgz:13670.got - 2010.04.16 15:25:48.
