data_PCOD8295279
_publ_section_title
;
Structure prediction by ZEFSAII (Michael W. Deem and Ramdas Pophale) SiO2 
 PCOD8295279
Probable space group: I B A M
;
_chemical_formula_sum "Si O2"
_cell_formula_units_Z 80
_cell_length_a 18.507103
_cell_length_b 26.813513
_cell_length_c 8.357755
_cell_angle_alpha 90.000000
_cell_angle_beta 90.000000
_cell_angle_gamma 90.000000
_cell_volume 4147.456076
_symmetry_space_group_name_H-M "I B A M"
_symmetry_group_IT_number 72
_symmetry_cell_setting 'orthorhombic'
loop_
_space_group_symop_operation_xyz
x,y,z
-x,-y,z
x,-y,1/2-z
-x,y,1/2-z
-x,-y,-z
x,y,-z
-x,y,1/2+z
x,-y,1/2+z
1/2+x,1/2+y,1/2+z
1/2-x,1/2-y,1/2+z
1/2+x,1/2-y,-z
1/2-x,1/2+y,-z
1/2-x,1/2-y,1/2-z
1/2+x,1/2+y,1/2-z
1/2-x,1/2+y,z
1/2+x,1/2-y,z
loop_
_atom_site_type_symbol
_atom_site_label
_atom_site_fract_x
_atom_site_fract_y
_atom_site_fract_z
Si Si1 0.346043 0.552730 0.312407
Si Si2 0.714489 0.107481 0.314186
Si Si3 0.711371 0.701358 0.185063
Si Si4 0.922742 0.851994 0.187179
Si Si5 0.078216 0.554958 0.310129
O O1 0.376928 0.500000 0.250000
O O2 0.332310 0.550628 0.500000
O O3 0.269745 0.562742 0.224843
O O4 0.403069 0.596164 0.273907
O O5 0.719626 0.121380 0.500000
O O6 0.734800 0.155317 0.209497
O O7 0.633801 0.093046 0.268035
O O8 0.750000 0.750000 0.250000
O O9 0.635889 0.690932 0.275696
O O10 0.693439 0.708135 0.000000
O O11 0.000000 0.833231 0.250000
O O12 0.925152 0.862156 0.000000
O O13 0.097067 0.500000 0.250000
O O14 0.082374 0.556505 0.500000
O O15 0.000000 0.571988 0.250000
#
# Coordination Sequence:
#
# PCOD8295279 Si02
#       5
#    16  16  16  16  16
#     4  11  21  35  54  81 113 150 190 231 273 325
#     4  11  21  36  56  81 110 145 185 231 278 330
#     4  11  22  40  63  88 113 145 184 229 278 330
#     4  11  22  39  60  86 116 150 186 228 276 329
#     4  11  21  35  53  78 110 148 187 229 277 332
#
# _framework density 19.288931000000002
#
# number of rings (size 3 to 8) (size 9 to 14) (size 15 to 20)
#    0.000    1.000    0.000   12.600    0.000    0.400 
#    0.000    3.000    0.000    0.000    0.000    0.000 
#    0.000    0.000    0.000    0.000    0.000    0.000 
#
# Total GULP energy -496229.536389 kJ/mol
# GULP energy per Si atom -12405.738410 kJ/mol
# Density = 1.924503 g / cm^3
# Si number density = 19.288931 Si / 1000 Ang^3
#
#
#
# Elastic Constant Matrix: (Units=GPa)
#
#
# Indices 1 2 3 4 5 6 
#
# 1 133.5695 50.5489 16.3107 0.0000 0.0000 0.0000
# 2 50.5489 91.0559 11.4218 0.0000 0.0000 0.0000
# 3 16.3107 11.4218 116.0543 0.0000 0.0000 0.0000
# 4 0.0000 0.0000 0.0000 33.0001 0.0000 0.0000
# 5 0.0000 0.0000 0.0000 0.0000 35.5674 0.0000
# 6 0.0000 0.0000 0.0000 0.0000 0.0000 15.0781
#
#
#
# Elastic Compliance Matrix: (Units=1/GPa)
#
#
# Indices 1 2 3 4 5 6 
#
# 1 0.009557 -0.005201 -0.000831 0.000000 0.000000 0.000000
# 2 -0.005201 0.013950 -0.000642 0.000000 0.000000 0.000000
# 3 -0.000831 -0.000642 0.008797 0.000000 0.000000 0.000000
# 4 0.000000 0.000000 0.000000 0.030303 0.000000 0.000000
# 5 0.000000 0.000000 0.000000 0.000000 0.028116 0.000000
# 6 0.000000 0.000000 0.000000 0.000000 0.000000 0.066321
#
#
# Mechanical properties :
#
#
# Convention : Reuss Voigt Hill
#
# Bulk Modulus (GPa) = 52.75679 55.24917 54.00298
# Shear Modulus (GPa) = 28.29498 34.22235 31.25867
#
# Velocity S-wave (km/s) = 3.83417 4.21669 4.02997
# Velocity P-wave (km/s) = 6.85648 7.23964 7.05067
#
# Compressibility (1/GPa) = 0.01895491
#
# Stress axis : x y z
#
# Youngs Moduli (GPa) = 104.64052 71.68431 113.67949
#
# Poissons Ratio (x) = 0.37283 0.09450
# Poissons Ratio (y) = 0.54423 0.07298
# Poissons Ratio (z) = 0.08698 0.04602
#
# Static dielectric constant tensor:
#      x y z
#    x 3.422030 0.000000 0.000000 
#    y 0.000000 3.317780 0.000000 
#    z 0.000000 0.000000 3.774070 
# 
# 
# High freq. dielectric constant tensor:
#      x y z
#    x 1.753090 0.000000 0.000000 
#    y 0.000000 1.733060 0.000000 
#    z 0.000000 0.000000 1.777290 
# 
# From -- ./inp_files/4794.got.cif
#   From: 2010.03.12/outbox.cif.g09.slc.cpg/sg72_3_cif.got.tgz:4794.got - 2010.04.16 14:54:00.
