data_PCOD8295751
_publ_section_title
;
Structure prediction by ZEFSAII (Michael W. Deem and Ramdas Pophale) SiO2 
 PCOD8295751
Probable space group: I B C A 
;
_chemical_formula_sum "Si O2"
_cell_formula_units_Z 112
_cell_length_a 16.642915
_cell_length_b 20.139101
_cell_length_c 16.795087
_cell_angle_alpha 90.000000
_cell_angle_beta 90.000000
_cell_angle_gamma 90.000000
_cell_volume 5629.265508
_symmetry_space_group_name_H-M "I B C A "
_symmetry_group_IT_number 73
_symmetry_cell_setting 'orthorhombic'
loop_
_space_group_symop_operation_xyz
x,y,z
-x,1/2-y,z
x,-y,1/2-z
1/2-x,y,-z
-x,-y,-z
x,1/2+y,-z
-x,y,1/2+z
1/2+x,-y,z
1/2+x,1/2+y,1/2+z
1/2-x,-y,1/2+z
1/2+x,1/2-y,-z
-x,1/2+y,1/2-z
1/2-x,1/2-y,1/2-z
1/2+x,y,1/2-z
1/2-x,1/2+y,z
x,1/2-y,1/2+z
loop_
_atom_site_type_symbol
_atom_site_label
_atom_site_fract_x
_atom_site_fract_y
_atom_site_fract_z
Si Si1 0.318921 0.841124 0.763003
Si Si2 0.064425 0.137622 0.397019
Si Si3 0.330903 0.977843 0.954078
Si Si4 0.604763 0.906586 0.939765
Si Si5 0.631784 0.739775 0.473668
Si Si6 0.262271 0.956946 0.320194
Si Si7 0.717182 0.761000 0.629787
O O1 0.404395 0.850900 0.807046
O O2 0.299045 0.906684 0.717658
O O3 0.324660 0.782365 0.698482
O O4 0.247778 0.828421 0.828066
O O5 0.122460 0.091062 0.448992
O O6 0.063322 0.210815 0.438679
O O7 0.979932 0.098632 0.393719
O O8 0.301511 0.998795 0.867478
O O9 0.250000 0.962916 0.000000
O O10 0.386955 0.034169 0.996024
O O11 0.607400 0.836746 0.987581
O O12 0.672771 0.918535 0.873460
O O13 0.654862 0.772884 0.558278
O O14 0.703370 0.729626 0.409974
O O15 0.304956 0.000000 0.250000
#
# Coordination Sequence:
#
# PCOD8295751 Si02
#       7
#    16  16  16  16  16  16  16
#     4  10  19  36  59  90 117 156 200 249 297 362
#     4  11  23  38  62  90 125 158 197 260 314 360
#     4  10  23  39  64  88 116 161 213 250 291 367
#     4  11  23  40  61  90 123 161 199 255 316 363
#     4  10  20  36  65  87 119 159 206 249 302 362
#     4  11  21  39  62  85 118 158 209 245 299 368
#     4   9  19  33  62  89 113 154 205 247 289 355
#
# _framework density 19.896023
#
# number of rings (size 3 to 8) (size 9 to 14) (size 15 to 20)
#    0.000    1.714    2.857    1.714    8.000    0.000 
#    2.571    0.000    9.429    0.000    0.000    0.000 
#    0.000    0.000    0.000    0.000    0.000    0.000 
#
# Total GULP energy -693807.045798 kJ/mol
# GULP energy per Si atom -12389.411532 kJ/mol
# Density = 1.985074 g / cm^3
# Si number density = 19.896023 Si / 1000 Ang^3
#
#
#
# Elastic Constant Matrix: (Units=GPa)
#
#
# Indices 1 2 3 4 5 6 
#
# 1 74.7954 15.6531 24.5810 0.0000 0.0000 0.0000
# 2 15.6531 73.6078 19.2484 0.0000 0.0000 0.0000
# 3 24.5810 19.2484 100.7549 0.0000 0.0000 0.0000
# 4 0.0000 0.0000 0.0000 12.7270 0.0000 0.0000
# 5 0.0000 0.0000 0.0000 0.0000 2.4745 0.0000
# 6 0.0000 0.0000 0.0000 0.0000 0.0000 51.0296
#
#
#
# Elastic Compliance Matrix: (Units=1/GPa)
#
#
# Indices 1 2 3 4 5 6 
#
# 1 0.014907 -0.002336 -0.003191 0.000000 0.000000 0.000000
# 2 -0.002336 0.014666 -0.002232 0.000000 0.000000 0.000000
# 3 -0.003191 -0.002232 0.011130 0.000000 0.000000 0.000000
# 4 0.000000 0.000000 0.000000 0.078573 0.000000 0.000000
# 5 0.000000 0.000000 0.000000 0.000000 0.404118 0.000000
# 6 0.000000 0.000000 0.000000 0.000000 0.000000 0.019596
#
#
# Mechanical properties :
#
#
# Convention : Reuss Voigt Hill
#
# Bulk Modulus (GPa) = 39.70414 40.90254 40.30334
# Shear Modulus (GPa) = 8.81985 25.89126 17.35556
#
# Velocity S-wave (km/s) = 2.10775 3.61131 2.95670
# Velocity P-wave (km/s) = 5.09142 6.16372 5.65306
#
# Compressibility (1/GPa) = 0.02518629
#
# Stress axis : x y z
#
# Youngs Moduli (GPa) = 67.08159 68.18553 89.84816
#
# Poissons Ratio (x) = 0.15926 0.28668
# Poissons Ratio (y) = 0.15669 0.20054
# Poissons Ratio (z) = 0.21403 0.15219
#
# Static dielectric constant tensor:
#      x y z
#    x 3.451160 0.000000 0.000000 
#    y 0.000000 3.751650 0.000000 
#    z 0.000000 0.000000 3.525980 
# 
# 
# High freq. dielectric constant tensor:
#      x y z
#    x 1.746580 0.000000 0.000000 
#    y 0.000000 1.786580 0.000000 
#    z 0.000000 0.000000 1.782970 
# 
# From -- ./inp_files/22757.got.cif
#   From: 2010.03.12/outbox.cif.g09.slc.cpg/sg73_12_cif.got.tgz:22757.got - 2010.04.16 15:25:48.
