data_PCOD8295016
_publ_section_title
;
Structure prediction by ZEFSAII (Michael W. Deem and Ramdas Pophale) SiO2 
 PCOD8295016
Probable space group: I B A M
;
_chemical_formula_sum "Si O2"
_cell_formula_units_Z 56
_cell_length_a 30.279568
_cell_length_b 8.664050
_cell_length_c 8.127547
_cell_angle_alpha 90.000000
_cell_angle_beta 90.000000
_cell_angle_gamma 90.000000
_cell_volume 2132.210680
_symmetry_space_group_name_H-M "I B A M"
_symmetry_group_IT_number 72
_symmetry_cell_setting 'orthorhombic'
loop_
_space_group_symop_operation_xyz
x,y,z
-x,-y,z
x,-y,1/2-z
-x,y,1/2-z
-x,-y,-z
x,y,-z
-x,y,1/2+z
x,-y,1/2+z
1/2+x,1/2+y,1/2+z
1/2-x,1/2-y,1/2+z
1/2+x,1/2-y,-z
1/2-x,1/2+y,-z
1/2-x,1/2-y,1/2-z
1/2+x,1/2+y,1/2-z
1/2-x,1/2+y,z
1/2+x,1/2-y,z
loop_
_atom_site_type_symbol
_atom_site_label
_atom_site_fract_x
_atom_site_fract_y
_atom_site_fract_z
Si Si1 0.243305 0.336262 0.000000
Si Si2 0.864372 0.795620 0.684080
Si Si3 0.952369 0.674671 0.193735
Si Si4 0.186095 0.068512 0.000000
Si Si5 0.684072 0.000000 0.750000
O O1 0.294936 0.386534 0.000000
O O2 0.216098 0.390058 0.845661
O O3 0.235242 0.150290 0.000000
O O4 0.861509 0.882999 0.500000
O O5 0.915932 0.786247 0.725864
O O6 0.847255 0.621097 0.655523
O O7 0.840119 0.889014 0.831695
O O8 0.945435 0.500000 0.250000
O O9 0.000000 0.737004 0.250000
O O10 0.947266 0.682405 0.000000
#
# Coordination Sequence:
#
# PCOD8295016 Si02
#       5
#     8  16  16   8   8
#     4  12  26  48  76 107 150 205 253 311 387 438
#     4  10  22  42  63 105 149 197 251 317 366 454
#     4  11  21  35  67 109 156 199 251 320 377 462
#     4  10  26  48  72 100 151 201 256 320 376 463
#     4  12  24  42  77 102 146 196 253 314 368 454
#
# _framework density 26.263822000000001
#
# number of rings (size 3 to 8) (size 9 to 14) (size 15 to 20)
#    0.857    0.286    2.857    5.143    2.000    5.714 
#    0.000    0.000    6.286    0.000    0.000    8.000 
#    0.000    0.000    0.000    0.000    0.000    0.000 
#
# Total GULP energy -346887.612026 kJ/mol
# GULP energy per Si atom -12388.843287 kJ/mol
# Density = 2.620404 g / cm^3
# Si number density = 26.263822 Si / 1000 Ang^3
#
#
#
# Elastic Constant Matrix: (Units=GPa)
#
#
# Indices 1 2 3 4 5 6 
#
# 1 223.8976 57.0980 72.6273 0.0000 0.0000 0.0000
# 2 57.0980 106.9969 52.1301 0.0000 0.0000 0.0000
# 3 72.6273 52.1301 212.0233 0.0000 0.0000 0.0000
# 4 0.0000 0.0000 0.0000 25.9049 0.0000 0.0000
# 5 0.0000 0.0000 0.0000 0.0000 -5.9150 0.0000
# 6 0.0000 0.0000 0.0000 0.0000 0.0000 38.3721
#
#
#
# Elastic Compliance Matrix: (Units=1/GPa)
#
#
# Indices 1 2 3 4 5 6 
#
# 1 0.005474 -0.002281 -0.001314 0.000000 0.000000 0.000000
# 2 -0.002281 0.011568 -0.002063 0.000000 0.000000 0.000000
# 3 -0.001314 -0.002063 0.005674 0.000000 0.000000 0.000000
# 4 0.000000 0.000000 0.000000 0.038603 0.000000 0.000000
# 5 0.000000 0.000000 0.000000 0.000000 -0.169062 0.000000
# 6 0.000000 0.000000 0.000000 0.000000 0.000000 0.026061
#
#
# Mechanical properties :
#
#
# Convention : Reuss Voigt Hill
#
# Bulk Modulus (GPa) = 87.71928 100.73650 94.22789
# Shear Modulus (GPa) = -75.11440 35.74323 -19.68558
#
# Velocity S-wave (km/s) = -5.35369 3.69308 -2.74073
# Velocity P-wave (km/s) = 2.17813 7.52489 5.09312
#
# Compressibility (1/GPa) = 0.01140000
#
# Stress axis : x y z
#
# Youngs Moduli (GPa) = 182.66926 86.44244 176.24486
#
# Poissons Ratio (x) = 0.19717 0.23165
# Poissons Ratio (y) = 0.41666 0.36359
# Poissons Ratio (z) = 0.24010 0.17833
#
# Static dielectric constant tensor:
#      x y z
#    x 5.251750 0.000000 0.000000 
#    y 0.000000 5.105580 0.000000 
#    z 0.000000 0.000000 4.938480 
# 
# 
# High freq. dielectric constant tensor:
#      x y z
#    x 2.073720 0.000000 0.000000 
#    y 0.000000 2.062380 0.000000 
#    z 0.000000 0.000000 2.073830 
# 
# From -- ./inp_files/8861.got.cif
#   From: 2010.03.12/outbox.cif.g09.slc.cpg/sg72_5_cif.got.tgz:8861.got - 2010.04.16 14:54:00.
