data_PCOD8295025
_publ_section_title
;
Structure prediction by ZEFSAII (Michael W. Deem and Ramdas Pophale) SiO2 
 PCOD8295025
Probable space group: I B A M
;
_chemical_formula_sum "Si O2"
_cell_formula_units_Z 48
_cell_length_a 13.929109
_cell_length_b 11.071365
_cell_length_c 13.615006
_cell_angle_alpha 90.000000
_cell_angle_beta 90.000000
_cell_angle_gamma 90.000000
_cell_volume 2099.627937
_symmetry_space_group_name_H-M "I B A M"
_symmetry_group_IT_number 72
_symmetry_cell_setting 'orthorhombic'
loop_
_space_group_symop_operation_xyz
x,y,z
-x,-y,z
x,-y,1/2-z
-x,y,1/2-z
-x,-y,-z
x,y,-z
-x,y,1/2+z
x,-y,1/2+z
1/2+x,1/2+y,1/2+z
1/2-x,1/2-y,1/2+z
1/2+x,1/2-y,-z
1/2-x,1/2+y,-z
1/2-x,1/2-y,1/2-z
1/2+x,1/2+y,1/2-z
1/2-x,1/2+y,z
1/2+x,1/2-y,z
loop_
_atom_site_type_symbol
_atom_site_label
_atom_site_fract_x
_atom_site_fract_y
_atom_site_fract_z
Si Si1 0.200764 0.044507 0.889956
Si Si2 0.585288 0.913086 0.111780
Si Si3 0.896529 0.163998 0.780267
O O1 0.314102 0.016156 0.881348
O O2 0.171602 0.153358 0.816242
O O3 0.145746 0.920999 0.865332
O O4 0.173827 0.085826 0.000000
O O5 0.593172 0.799381 0.182959
O O6 0.500000 0.000000 0.149062
O O7 0.564353 0.870773 0.000000
O O8 0.000000 0.113379 0.750000
#
# Coordination Sequence:
#
# PCOD8295025 Si02
#       3
#    16  16  16
#     4  10  22  42  66  94 128 167 214 265 320 379
#     4  10  23  43  67  95 128 168 214 265 319 379
#     4  11  24  40  63  95 130 170 212 262 319 380
#
# _framework density 22.861194999999999
#
# number of rings (size 3 to 8) (size 9 to 14) (size 15 to 20)
#    0.000    1.667    0.000    4.000    0.000   12.667 
#    0.000    6.667    0.000    1.000    0.000    0.000 
#    0.000    0.000    0.000    0.000    0.000    0.000 
#
# Total GULP energy -297594.265766 kJ/mol
# GULP energy per Si atom -12399.761074 kJ/mol
# Density = 2.280916 g / cm^3
# Si number density = 22.861195 Si / 1000 Ang^3
#
#
#
# Elastic Constant Matrix: (Units=GPa)
#
#
# Indices 1 2 3 4 5 6 
#
# 1 165.5051 62.0184 58.6599 0.0000 0.0000 0.0000
# 2 62.0184 156.5473 73.9219 0.0000 0.0000 0.0000
# 3 58.6599 73.9219 161.1409 0.0000 0.0000 0.0000
# 4 0.0000 0.0000 0.0000 27.6352 0.0000 0.0000
# 5 0.0000 0.0000 0.0000 0.0000 35.5824 0.0000
# 6 0.0000 0.0000 0.0000 0.0000 0.0000 26.1020
#
#
#
# Elastic Compliance Matrix: (Units=1/GPa)
#
#
# Indices 1 2 3 4 5 6 
#
# 1 0.007457 -0.002135 -0.001735 0.000000 0.000000 0.000000
# 2 -0.002135 0.008765 -0.003244 0.000000 0.000000 0.000000
# 3 -0.001735 -0.003244 0.008326 0.000000 0.000000 0.000000
# 4 0.000000 0.000000 0.000000 0.036186 0.000000 0.000000
# 5 0.000000 0.000000 0.000000 0.000000 0.028104 0.000000
# 6 0.000000 0.000000 0.000000 0.000000 0.000000 0.038311
#
#
# Mechanical properties :
#
#
# Convention : Reuss Voigt Hill
#
# Bulk Modulus (GPa) = 96.89898 96.93265 96.91581
# Shear Modulus (GPa) = 34.52641 37.10347 35.81494
#
# Velocity S-wave (km/s) = 3.89043 4.03300 3.96236
# Velocity P-wave (km/s) = 7.91570 8.01120 7.96360
#
# Compressibility (1/GPa) = 0.01032003
#
# Stress axis : x y z
#
# Youngs Moduli (GPa) = 134.10019 114.08539 120.11235
#
# Poissons Ratio (x) = 0.24355 0.20843
# Poissons Ratio (y) = 0.28628 0.38963
# Poissons Ratio (z) = 0.23270 0.37008
#
# Static dielectric constant tensor:
#      x y z
#    x 4.542090 0.000000 0.000000 
#    y 0.000000 3.690310 0.000000 
#    z 0.000000 0.000000 4.337240 
# 
# 
# High freq. dielectric constant tensor:
#      x y z
#    x 1.923640 0.000000 0.000000 
#    y 0.000000 1.880730 0.000000 
#    z 0.000000 0.000000 1.916350 
# 
# From -- ./inp_files/19272.got.cif
#   From: 2010.03.12/outbox.cif.g09.slc.cpg/sg72_10_cif.got.tgz:19272.got - 2010.04.16 14:54:00.
