data_PCOD8295990
_publ_section_title
;
Structure prediction by ZEFSAII (Michael W. Deem and Ramdas Pophale) SiO2 
 PCOD8295990
Probable space group: I B C A 
;
_chemical_formula_sum "Si O2"
_cell_formula_units_Z 120
_cell_length_a 16.828299
_cell_length_b 25.606399
_cell_length_c 14.029698
_cell_angle_alpha 90.000000
_cell_angle_beta 90.000000
_cell_angle_gamma 90.000000
_cell_volume 6045.567170
_symmetry_space_group_name_H-M "I B C A "
_symmetry_group_IT_number 73
_symmetry_cell_setting 'orthorhombic'
loop_
_space_group_symop_operation_xyz
x,y,z
-x,1/2-y,z
x,-y,1/2-z
1/2-x,y,-z
-x,-y,-z
x,1/2+y,-z
-x,y,1/2+z
1/2+x,-y,z
1/2+x,1/2+y,1/2+z
1/2-x,-y,1/2+z
1/2+x,1/2-y,-z
-x,1/2+y,1/2-z
1/2-x,1/2-y,1/2-z
1/2+x,y,1/2-z
1/2-x,1/2+y,z
x,1/2-y,1/2+z
loop_
_atom_site_type_symbol
_atom_site_label
_atom_site_fract_x
_atom_site_fract_y
_atom_site_fract_z
Si Si1 0.851346 0.269866 0.414533
Si Si2 0.086387 0.104392 0.699654
Si Si3 0.917645 0.776999 0.777293
Si Si4 0.327232 0.500000 0.750000
Si Si5 0.238810 0.933249 0.394635
Si Si6 0.173528 0.803152 0.884788
Si Si7 0.921604 0.878954 0.897283
Si Si8 0.875382 0.852232 0.105077
O O1 0.911399 0.292956 0.334674
O O2 0.766534 0.296736 0.398901
O O3 0.877336 0.286331 0.521022
O O4 0.851717 0.207707 0.405469
O O5 0.116701 0.045835 0.711831
O O6 0.151769 0.137220 0.640356
O O7 0.071291 0.133907 0.801468
O O8 0.005261 0.099735 0.640339
O O9 0.849987 0.734064 0.797108
O O10 0.901984 0.825048 0.845810
O O11 0.000000 0.750000 0.801908
O O12 0.268307 0.480367 0.669298
O O13 0.250000 0.955156 0.500000
O O14 0.147506 0.919920 0.370434
O O15 0.291417 0.881238 0.381747
O O16 0.923216 0.871242 0.011652
#
# Coordination Sequence:
#
# PCOD8295990 Si02
#       8
#    16  16  16   8  16  16  16  16
#     4  11  23  36  60  90 129 176 201 246 307 377
#     4  11  24  43  61  93 126 169 207 271 335 366
#     4  12  22  35  57  93 131 167 200 249 309 385
#     4  10  24  46  68  82 126 168 210 286 330 368
#     4   9  21  41  66  93 112 160 221 264 311 378
#     4  11  23  38  57  91 128 165 215 250 304 381
#     4  11  22  38  65  94 125 162 213 262 308 396
#     4  10  20  39  65  88 131 169 210 247 310 388
#
# _framework density 19.849254999999999
#
# number of rings (size 3 to 8) (size 9 to 14) (size 15 to 20)
#    0.000    1.333    4.000    1.200    7.467    3.200 
#    2.400    7.333    0.000    0.000    0.000    0.000 
#    0.000    0.000    0.000    0.000    0.000    0.000 
#
# Total GULP energy -743960.779759 kJ/mol
# GULP energy per Si atom -12399.346329 kJ/mol
# Density = 1.980408 g / cm^3
# Si number density = 19.849255 Si / 1000 Ang^3
#
#
#
# Elastic Constant Matrix: (Units=GPa)
#
#
# Indices 1 2 3 4 5 6 
#
# 1 104.6026 49.5237 44.4633 0.0000 0.0000 0.0000
# 2 49.5237 131.6974 52.4697 -0.0001 0.0000 0.0000
# 3 44.4633 52.4697 129.8458 -0.0001 -0.0001 -0.0001
# 4 0.0000 -0.0001 -0.0001 34.9321 -0.0001 0.0000
# 5 0.0000 0.0000 -0.0001 -0.0001 31.7535 0.0000
# 6 0.0000 0.0000 -0.0001 0.0000 0.0000 19.6037
#
#
#
# Elastic Compliance Matrix: (Units=1/GPa)
#
#
# Indices 1 2 3 4 5 6 
#
# 1 0.012443 -0.003554 -0.002825 0.000000 0.000000 0.000000
# 2 -0.003554 0.010065 -0.002850 0.000000 0.000000 0.000000
# 3 -0.002825 -0.002850 0.009821 0.000000 0.000000 0.000000
# 4 0.000000 0.000000 0.000000 0.028627 0.000000 0.000000
# 5 0.000000 0.000000 0.000000 0.000000 0.031493 0.000000
# 6 0.000000 0.000000 0.000000 0.000000 0.000000 0.051011
#
#
# Mechanical properties :
#
#
# Convention : Reuss Voigt Hill
#
# Bulk Modulus (GPa) = 72.09281 73.22881 72.66081
# Shear Modulus (GPa) = 30.02264 31.90380 30.96322
#
# Velocity S-wave (km/s) = 3.89335 4.01347 3.95387
# Velocity P-wave (km/s) = 7.52395 7.64525 7.58484
#
# Compressibility (1/GPa) = 0.01387101
#
# Stress axis : x y z
#
# Youngs Moduli (GPa) = 80.36471 99.35311 101.82686
#
# Poissons Ratio (x) = 0.35307 0.28766
# Poissons Ratio (y) = 0.28559 0.29024
# Poissons Ratio (z) = 0.22703 0.28319
#
# Static dielectric constant tensor:
#      x y z
#    x 3.494830 0.000000 0.000000 
#    y 0.000000 3.414700 0.000000 
#    z 0.000000 0.000000 4.221840 
# 
# 
# High freq. dielectric constant tensor:
#      x y z
#    x 1.767480 0.000000 0.000000 
#    y 0.000000 1.755220 0.000000 
#    z 0.000000 0.000000 1.796270 
# 
# From -- ./inp_files/18276.got.cif
#   From: 2010.03.12/outbox.cif.g09.slc.cpg/sg73_10_cif.got.tgz:18276.got - 2010.04.16 15:25:48.
