data_PCOD8295042
_publ_section_title
;
Structure prediction by ZEFSAII (Michael W. Deem and Ramdas Pophale) SiO2 
 PCOD8295042
Probable space group: I B A M
;
_chemical_formula_sum "Si O2"
_cell_formula_units_Z 84
_cell_length_a 9.905114
_cell_length_b 19.219465
_cell_length_c 21.679661
_cell_angle_alpha 90.000000
_cell_angle_beta 90.000000
_cell_angle_gamma 90.000000
_cell_volume 4127.178567
_symmetry_space_group_name_H-M "I B A M"
_symmetry_group_IT_number 72
_symmetry_cell_setting 'orthorhombic'
loop_
_space_group_symop_operation_xyz
x,y,z
-x,-y,z
x,-y,1/2-z
-x,y,1/2-z
-x,-y,-z
x,y,-z
-x,y,1/2+z
x,-y,1/2+z
1/2+x,1/2+y,1/2+z
1/2-x,1/2-y,1/2+z
1/2+x,1/2-y,-z
1/2-x,1/2+y,-z
1/2-x,1/2-y,1/2-z
1/2+x,1/2+y,1/2-z
1/2-x,1/2+y,z
1/2+x,1/2-y,z
loop_
_atom_site_type_symbol
_atom_site_label
_atom_site_fract_x
_atom_site_fract_y
_atom_site_fract_z
Si Si1 0.367875 0.784024 0.789938
Si Si2 0.578323 0.653157 0.367305
Si Si3 0.221747 0.107834 0.629612
Si Si4 0.740172 0.675037 0.000000
Si Si5 0.746242 0.467825 0.811297
Si Si6 0.066589 0.196168 0.000000
Si Si7 0.500000 0.000000 0.250000
O O1 0.500000 0.799284 0.750000
O O2 0.250000 0.750000 0.750000
O O3 0.403797 0.731925 0.845407
O O4 0.320491 0.856276 0.820597
O O5 0.428724 0.628962 0.351567
O O6 0.683119 0.604333 0.331975
O O7 0.606627 0.650453 0.440497
O O8 0.258017 0.127323 0.559922
O O9 0.236430 0.024662 0.634262
O O10 0.857193 0.731309 0.000000
O O11 0.593909 0.712360 0.000000
O O12 0.672828 0.500000 0.750000
O O13 0.903341 0.452465 0.793689
#
# Coordination Sequence:
#
# PCOD8295042 Si02
#       7
#    16  16  16   8  16   8   4
#     4  12  24  36  62  97 130 166 222 269 325 387
#     4  11  23  42  65  96 128 174 218 273 320 394
#     4  11  23  41  66  95 131 170 220 267 329 386
#     4  10  22  43  63  98 126 174 221 272 321 383
#     4  10  23  42  64  92 136 167 215 267 331 388
#     4  10  22  43  65  94 130 168 225 268 327 377
#     4   8  24  44  58  94 132 172 206 258 330 396
#
# _framework density 20.352886999999999
#
# number of rings (size 3 to 8) (size 9 to 14) (size 15 to 20)
#    0.571    0.762    3.810    1.714    1.333    1.524 
#    3.429    2.857    0.000    1.143    0.000    0.000 
#    0.000    0.000    0.000    0.000    0.000    0.000 
#
# Total GULP energy -520799.667582 kJ/mol
# GULP energy per Si atom -12399.992085 kJ/mol
# Density = 2.030656 g / cm^3
# Si number density = 20.352887 Si / 1000 Ang^3
#
#
#
# Elastic Constant Matrix: (Units=GPa)
#
#
# Indices 1 2 3 4 5 6 
#
# 1 103.3399 18.7487 46.6305 0.0000 0.0000 0.0000
# 2 18.7487 74.0329 20.7257 0.0000 0.0000 0.0000
# 3 46.6305 20.7257 116.9561 0.0000 0.0000 0.0000
# 4 0.0000 0.0000 0.0000 30.6020 0.0000 0.0000
# 5 0.0000 0.0000 0.0000 0.0000 24.9948 0.0000
# 6 0.0000 0.0000 0.0000 0.0000 0.0000 29.8964
#
#
#
# Elastic Compliance Matrix: (Units=1/GPa)
#
#
# Indices 1 2 3 4 5 6 
#
# 1 0.012021 -0.001791 -0.004475 0.000000 0.000000 0.000000
# 2 -0.001791 0.014480 -0.001852 0.000000 0.000000 0.000000
# 3 -0.004475 -0.001852 0.010663 0.000000 0.000000 0.000000
# 4 0.000000 0.000000 0.000000 0.032678 0.000000 0.000000
# 5 0.000000 0.000000 0.000000 0.000000 0.040008 0.000000
# 6 0.000000 0.000000 0.000000 0.000000 0.000000 0.033449
#
#
# Mechanical properties :
#
#
# Convention : Reuss Voigt Hill
#
# Bulk Modulus (GPa) = 47.78637 51.83762 49.81199
# Shear Modulus (GPa) = 30.02806 30.98024 30.50415
#
# Velocity S-wave (km/s) = 3.84522 3.90571 3.87559
# Velocity P-wave (km/s) = 6.57603 6.77231 6.67489
#
# Compressibility (1/GPa) = 0.02092647
#
# Stress axis : x y z
#
# Youngs Moduli (GPa) = 83.18568 69.06279 93.78483
#
# Poissons Ratio (x) = 0.12372 0.41973
# Poissons Ratio (y) = 0.14902 0.17366
# Poissons Ratio (z) = 0.37229 0.12788
#
# Static dielectric constant tensor:
#      x y z
#    x 3.804830 0.000000 0.000000 
#    y 0.000000 3.484910 0.000000 
#    z 0.000000 0.000000 3.813370 
# 
# 
# High freq. dielectric constant tensor:
#      x y z
#    x 1.799850 0.000000 0.000000 
#    y 0.000000 1.785860 0.000000 
#    z 0.000000 0.000000 1.802520 
# 
# From -- ./inp_files/36829.got.cif
#   From: 2010.03.12/outbox.cif.g09.slc.cpg/sg72_19_cif.got.tgz:36829.got - 2010.04.16 14:54:00.
