data_PCOD8295513
_publ_section_title
;
Structure prediction by ZEFSAII (Michael W. Deem and Ramdas Pophale) SiO2 
 PCOD8295513
Probable space group: I B A M
;
_chemical_formula_sum "Si O2"
_cell_formula_units_Z 48
_cell_length_a 27.000000
_cell_length_b 21.000000
_cell_length_c 9.000000
_cell_angle_alpha 90.000000
_cell_angle_beta 90.000000
_cell_angle_gamma 90.000000
_cell_volume 5103.000000
_symmetry_space_group_name_H-M "I B A M"
_symmetry_group_IT_number 72
_symmetry_cell_setting 'orthorhombic'
loop_
_space_group_symop_operation_xyz
x,y,z
-x,-y,z
x,-y,1/2-z
-x,y,1/2-z
-x,-y,-z
x,y,-z
-x,y,1/2+z
x,-y,1/2+z
1/2+x,1/2+y,1/2+z
1/2-x,1/2-y,1/2+z
1/2+x,1/2-y,-z
1/2-x,1/2+y,-z
1/2-x,1/2-y,1/2-z
1/2+x,1/2+y,1/2-z
1/2-x,1/2+y,z
1/2+x,1/2-y,z
loop_
_atom_site_type_symbol
_atom_site_label
_atom_site_fract_x
_atom_site_fract_y
_atom_site_fract_z
Si Si1 0.085486 0.310351 0.330863
Si Si2 0.632611 0.569241 0.323937
Si Si3 0.947579 0.178694 0.677002
Si Si4 0.053037 0.561511 0.678533
Si Si5 0.285994 0.653917 0.324726
Si Si6 0.198280 0.702812 0.164745
O O1 0.063008 0.311588 0.500000
O O2 0.071661 0.243738 0.252593
O O3 0.069826 0.368850 0.229006
O O4 0.143329 0.321954 0.341877
O O5 0.621967 0.500000 0.250000
O O6 0.638361 0.559472 0.500000
O O7 0.588596 0.619171 0.287051
O O8 0.683180 0.599135 0.258649
O O9 0.952521 0.189047 0.500000
O O10 0.000000 0.160579 0.750000
O O11 0.082950 0.500000 0.750000
O O12 0.053567 0.557361 0.500000
O O13 0.000000 0.554676 0.750000
O O14 0.290075 0.641271 0.500000
O O15 0.228735 0.654428 0.271009
O O16 0.304439 0.724305 0.276228
O O17 0.222554 0.702443 0.000000
#
# Coordination Sequence:
#
# PCOD8295513 Si02
#       6
#    16  16  16  16  16  16
#     4  11  21  37  60  88 121 156 194 241 293 348
#     4  11  24  41  62  86 118 158 202 250 304 363
#     4  11  24  40  60  87 118 155 200 253 303 356
#     4  11  22  38  58  82 113 152 195 237 287 346
#     4  10  19  35  59  87 116 150 190 236 286 342
#     4   9  19  34  57  87 118 151 187 234 285 341
#
# _framework density 9.4062319999999993
#
# number of rings (size 3 to 8) (size 9 to 14) (size 15 to 20)
#    0.000    1.500    1.667    4.500    0.000    4.333 
#    0.000    2.500    0.000    4.000    0.000    0.000 
#    0.000    0.000    0.000    0.000    0.000    0.000 
#
# Total GULP energy -594823.798649 kJ/mol
# GULP energy per Si atom -12392.162472 kJ/mol
# Density = 0.938482 g / cm^3
# Si number density = 9.406232 Si / 1000 Ang^3
#
#
#
# Elastic Constant Matrix: (Units=GPa)
#
#
# Indices 1 2 3 4 5 6 
#
# 1 77.2854 45.8828 42.2353 0.0000 0.0000 0.0000
# 2 45.8828 167.8644 74.8359 0.0000 0.0000 0.0000
# 3 42.2353 74.8359 166.8600 0.0000 0.0000 0.0000
# 4 0.0000 0.0000 0.0000 44.7325 0.0000 0.0000
# 5 0.0000 0.0000 0.0000 0.0000 20.5053 0.0000
# 6 0.0000 0.0000 0.0000 0.0000 0.0000 29.7398
#
#
#
# Elastic Compliance Matrix: (Units=1/GPa)
#
#
# Indices 1 2 3 4 5 6 
#
# 1 0.016342 -0.003278 -0.002666 0.000000 0.000000 0.000000
# 2 -0.003278 0.008104 -0.002805 0.000000 0.000000 0.000000
# 3 -0.002666 -0.002805 0.007926 0.000000 0.000000 0.000000
# 4 0.000000 0.000000 0.000000 0.022355 0.000000 0.000000
# 5 0.000000 0.000000 0.000000 0.000000 0.048768 0.000000
# 6 0.000000 0.000000 0.000000 0.000000 0.000000 0.033625
#
#
# Mechanical properties :
#
#
# Convention : Reuss Voigt Hill
#
# Bulk Modulus (GPa) = 67.23397 81.99085 74.61241
# Shear Modulus (GPa) = 31.33308 35.59924 33.46616
#
# Velocity S-wave (km/s) = 4.08554 4.35480 4.22232
# Velocity P-wave (km/s) = 7.62051 8.30443 7.96981
#
# Compressibility (1/GPa) = 0.01487343
#
# Stress axis : x y z
#
# Youngs Moduli (GPa) = 61.19072 123.40231 126.17028
#
# Poissons Ratio (x) = 0.40454 0.33640
# Poissons Ratio (y) = 0.20060 0.35386
# Poissons Ratio (z) = 0.16315 0.34610
#
# Static dielectric constant tensor:
#      x y z
#    x 3.435130 0.000000 0.000000 
#    y 0.000000 20.843030 0.000000 
#    z 0.000000 0.000000 3.899690 
# 
# 
# High freq. dielectric constant tensor:
#      x y z
#    x 1.723030 0.000000 0.000000 
#    y 0.000000 1.744850 0.000000 
#    z 0.000000 0.000000 1.759600 
# 
# From -- ./inp_files/8066.got.cif
#   From: 2010.03.12/outbox.ucp.g09.slc.cvg/sg72_5_cif.got.tgz:8066.got - 2010.05.04 20:02:29.
