data_PCOD8295860
_publ_section_title
;
Structure prediction by ZEFSAII (Michael W. Deem and Ramdas Pophale) SiO2 
 PCOD8295860
Probable space group: I B C A 
;
_chemical_formula_sum "Si O2"
_cell_formula_units_Z 120
_cell_length_a 28.206213
_cell_length_b 15.944039
_cell_length_c 13.435544
_cell_angle_alpha 90.000000
_cell_angle_beta 90.000000
_cell_angle_gamma 90.000000
_cell_volume 6042.245747
_symmetry_space_group_name_H-M "I B C A "
_symmetry_group_IT_number 73
_symmetry_cell_setting 'orthorhombic'
loop_
_space_group_symop_operation_xyz
x,y,z
-x,1/2-y,z
x,-y,1/2-z
1/2-x,y,-z
-x,-y,-z
x,1/2+y,-z
-x,y,1/2+z
1/2+x,-y,z
1/2+x,1/2+y,1/2+z
1/2-x,-y,1/2+z
1/2+x,1/2-y,-z
-x,1/2+y,1/2-z
1/2-x,1/2-y,1/2-z
1/2+x,y,1/2-z
1/2-x,1/2+y,z
x,1/2-y,1/2+z
loop_
_atom_site_type_symbol
_atom_site_label
_atom_site_fract_x
_atom_site_fract_y
_atom_site_fract_z
Si Si1 0.000000 0.750000 0.493307
Si Si2 0.844632 0.236399 0.513034
Si Si3 0.422500 0.332172 0.625777
Si Si4 0.779296 0.849581 0.844641
Si Si5 0.377948 0.503872 0.637120
Si Si6 0.079573 0.321536 0.141509
Si Si7 0.228034 0.509995 0.399662
Si Si8 0.779754 0.681860 0.132676
O O1 0.030500 0.809786 0.564746
O O2 0.032429 0.695969 0.420458
O O3 0.875873 0.210943 0.418530
O O4 0.815362 0.157916 0.561059
O O5 0.876298 0.266530 0.605133
O O6 0.812772 0.312349 0.466176
O O7 0.414213 0.430312 0.610844
O O8 0.428536 0.306132 0.741101
O O9 0.750305 0.937364 0.828276
O O10 0.743296 0.773242 0.860734
O O11 0.806374 0.835328 0.738322
O O12 0.360800 0.500000 0.750000
O O13 0.409044 0.583943 0.613704
O O14 0.328069 0.502674 0.581130
O O15 0.250000 0.477457 0.500000
O O16 0.241991 0.606332 0.377623
#
# Coordination Sequence:
#
# PCOD8295860 Si02
#       8
#     8  16  16  16  16  16  16  16
#     4  10  22  38  62  86 106 134 168 220 288 350
#     4  11  21  35  55  80 112 154 191 229 277 323
#     4  10  21  38  59  83 110 139 178 225 278 340
#     4  11  22  35  52  77 113 154 197 241 279 319
#     4  10  20  35  55  78 107 143 181 223 267 317
#     4  10  21  38  59  83 110 139 178 225 278 340
#     4  12  22  34  55  82 115 155 198 236 272 321
#     4  11  22  35  52  77 113 154 197 241 279 319
#
# _framework density 19.860166
#
# number of rings (size 3 to 8) (size 9 to 14) (size 15 to 20)
#    0.000    1.333    0.000    7.600    0.000    4.800 
#    0.000    0.000    0.000    0.000    0.000   14.933 
#    0.000    0.000    0.000    0.000    0.000    0.000 
#
# Total GULP energy -743361.512884 kJ/mol
# GULP energy per Si atom -12389.358548 kJ/mol
# Density = 1.981496 g / cm^3
# Si number density = 19.860166 Si / 1000 Ang^3
#
#
#
# Elastic Constant Matrix: (Units=GPa)
#
#
# Indices 1 2 3 4 5 6 
#
# 1 117.9578 49.1107 64.4584 0.0000 0.0000 0.0000
# 2 49.1107 121.5215 32.4664 0.0000 0.0000 0.0000
# 3 64.4584 32.4664 124.3907 0.0000 0.0000 0.0000
# 4 0.0000 0.0000 0.0000 19.4896 0.0000 0.0000
# 5 0.0000 0.0000 0.0000 0.0000 28.8614 0.0000
# 6 0.0000 0.0000 0.0000 0.0000 0.0000 40.0280
#
#
#
# Elastic Compliance Matrix: (Units=1/GPa)
#
#
# Indices 1 2 3 4 5 6 
#
# 1 0.013274 -0.003791 -0.005889 0.000000 0.000000 0.000000
# 2 -0.003791 0.009929 -0.000627 0.000000 0.000000 0.000000
# 3 -0.005889 -0.000627 0.011254 0.000000 0.000000 0.000000
# 4 0.000000 0.000000 0.000000 0.051309 0.000000 0.000000
# 5 0.000000 0.000000 0.000000 0.000000 0.034648 0.000000
# 6 0.000000 0.000000 0.000000 0.000000 0.000000 0.024983
#
#
# Mechanical properties :
#
#
# Convention : Reuss Voigt Hill
#
# Bulk Modulus (GPa) = 72.23829 72.88233 72.56031
# Shear Modulus (GPa) = 29.30387 32.19809 30.75098
#
# Velocity S-wave (km/s) = 3.84540 4.03083 3.93921
# Velocity P-wave (km/s) = 7.49457 7.64466 7.56999
#
# Compressibility (1/GPa) = 0.01384307
#
# Stress axis : x y z
#
# Youngs Moduli (GPa) = 75.33466 100.71924 88.85370
#
# Poissons Ratio (x) = 0.38184 0.52326
# Poissons Ratio (y) = 0.28560 0.05570
# Poissons Ratio (z) = 0.44365 0.06314
#
# Static dielectric constant tensor:
#      x y z
#    x 3.471280 0.000000 0.000000 
#    y 0.000000 3.321220 0.000000 
#    z 0.000000 0.000000 3.995870 
# 
# 
# High freq. dielectric constant tensor:
#      x y z
#    x 1.753690 0.000000 0.000000 
#    y 0.000000 1.777370 0.000000 
#    z 0.000000 0.000000 1.797030 
# 
# From -- ./inp_files/20146.got.cif
#   From: 2010.03.12/outbox.cif.g09.slc.cpg/sg73_11_cif.got.tgz:20146.got - 2010.04.16 15:25:48.
