data_PCOD8295688
_publ_section_title
;
Structure prediction by ZEFSAII (Michael W. Deem and Ramdas Pophale) SiO2 
 PCOD8295688
Probable space group: I B C A 
;
_chemical_formula_sum "Si O2"
_cell_formula_units_Z 128
_cell_length_a 23.620591
_cell_length_b 25.324236
_cell_length_c 11.535029
_cell_angle_alpha 90.000000
_cell_angle_beta 90.000000
_cell_angle_gamma 90.000000
_cell_volume 6899.947758
_symmetry_space_group_name_H-M "I B C A "
_symmetry_group_IT_number 73
_symmetry_cell_setting 'orthorhombic'
loop_
_space_group_symop_operation_xyz
x,y,z
-x,1/2-y,z
x,-y,1/2-z
1/2-x,y,-z
-x,-y,-z
x,1/2+y,-z
-x,y,1/2+z
1/2+x,-y,z
1/2+x,1/2+y,1/2+z
1/2-x,-y,1/2+z
1/2+x,1/2-y,-z
-x,1/2+y,1/2-z
1/2-x,1/2-y,1/2-z
1/2+x,y,1/2-z
1/2-x,1/2+y,z
x,1/2-y,1/2+z
loop_
_atom_site_type_symbol
_atom_site_label
_atom_site_fract_x
_atom_site_fract_y
_atom_site_fract_z
Si Si1 0.386454 0.804998 0.088116
Si Si2 0.867396 0.696227 0.521049
Si Si3 0.381900 0.940739 0.708193
Si Si4 0.292504 0.201737 0.237528
Si Si5 0.994866 0.188859 0.219346
Si Si6 0.783319 0.124934 0.610866
Si Si7 0.942108 0.372549 0.401761
Si Si8 0.547024 0.114922 0.466330
O O1 0.323255 0.808680 0.139504
O O2 0.429120 0.822643 0.191198
O O3 0.398029 0.746108 0.039213
O O4 0.394835 0.846015 0.982794
O O5 0.838404 0.716491 0.638996
O O6 0.821118 0.674248 0.430652
O O7 0.910354 0.647641 0.550648
O O8 0.319760 0.919809 0.674917
O O9 0.408779 0.908662 0.813649
O O10 0.422069 0.935085 0.594594
O O11 0.376186 0.000000 0.750000
O O12 0.250000 0.250000 0.250000
O O13 0.260763 0.147690 0.204308
O O14 0.000000 0.250000 0.202344
O O15 0.017182 0.172338 0.345767
O O16 0.034579 0.158195 0.130948
O O17 0.750000 0.100338 0.500000
O O18 0.989506 0.406265 0.473281
#
# Coordination Sequence:
#
# PCOD8295688 Si02
#       8
#    16  16  16  16  16  16  16  16
#     4  11  22  32  51  81 116 155 188 223 271 331
#     4  10  19  32  53  78 112 156 184 213 273 341
#     4  10  22  42  64  81 107 147 199 253 289 327
#     4  11  22  33  51  77 114 157 190 224 275 333
#     4  10  19  31  50  79 118 154 180 212 267 339
#     4   9  20  40  56  79 109 146 194 230 284 342
#     4  10  23  34  54  86 117 149 185 229 282 347
#     4   9  19  36  54  83 115 144 184 226 281 343
#
# _framework density 18.550865999999999
#
# number of rings (size 3 to 8) (size 9 to 14) (size 15 to 20)
#    0.000    2.000    2.500    0.750    5.250    0.500 
#    0.000    1.250    0.000    0.000    0.000    2.625 
#    0.000    0.000    0.000    0.000    0.000    0.000 
#
# Total GULP energy -793208.708874 kJ/mol
# GULP energy per Si atom -12393.886076 kJ/mol
# Density = 1.850864 g / cm^3
# Si number density = 18.550866 Si / 1000 Ang^3
#
#
#
# Elastic Constant Matrix: (Units=GPa)
#
#
# Indices 1 2 3 4 5 6 
#
# 1 105.4859 51.2078 58.8685 0.0000 0.0000 0.0000
# 2 51.2078 85.8659 43.6061 0.0000 0.0000 0.0000
# 3 58.8685 43.6061 89.8668 0.0000 0.0000 0.0000
# 4 0.0000 0.0000 0.0000 9.2394 0.0000 0.0000
# 5 0.0000 0.0000 0.0000 0.0000 37.8844 0.0000
# 6 0.0000 0.0000 0.0000 0.0000 0.0000 19.5361
#
#
#
# Elastic Compliance Matrix: (Units=1/GPa)
#
#
# Indices 1 2 3 4 5 6 
#
# 1 0.016949 -0.005931 -0.008225 0.000000 0.000000 0.000000
# 2 -0.005931 0.017530 -0.004621 0.000000 0.000000 0.000000
# 3 -0.008225 -0.004621 0.018758 0.000000 0.000000 0.000000
# 4 0.000000 0.000000 0.000000 0.108232 0.000000 0.000000
# 5 0.000000 0.000000 0.000000 0.000000 0.026396 0.000000
# 6 0.000000 0.000000 0.000000 0.000000 0.000000 0.051187
#
#
# Mechanical properties :
#
#
# Convention : Reuss Voigt Hill
#
# Bulk Modulus (GPa) = 63.76283 65.39814 64.58049
# Shear Modulus (GPa) = 17.74097 21.83438 19.78768
#
# Velocity S-wave (km/s) = 3.09583 3.43447 3.26954
# Velocity P-wave (km/s) = 6.87208 7.14544 7.01009
#
# Compressibility (1/GPa) = 0.01568312
#
# Stress axis : x y z
#
# Youngs Moduli (GPa) = 58.99974 57.04575 53.31189
#
# Poissons Ratio (x) = 0.33834 0.43848
# Poissons Ratio (y) = 0.34993 0.24634
# Poissons Ratio (z) = 0.48527 0.26359
#
# Static dielectric constant tensor:
#      x y z
#    x 3.683120 0.000000 0.000000 
#    y 0.000000 2.984050 0.000000 
#    z 0.000000 0.000000 3.531680 
# 
# 
# High freq. dielectric constant tensor:
#      x y z
#    x 1.733680 0.000000 0.000000 
#    y 0.000000 1.670100 0.000000 
#    z 0.000000 0.000000 1.725240 
# 
# From -- ./inp_files/13945.got.cif
#   From: 2010.03.12/outbox.cif.g09.slc.cpg/sg73_7_cif.got.tgz:13945.got - 2010.04.16 15:25:48.
