data_PCOD8295615
_publ_section_title
;
Structure prediction by ZEFSAII (Michael W. Deem and Ramdas Pophale) SiO2 
 PCOD8295615
Probable space group: I B C A 
;
_chemical_formula_sum "Si O2"
_cell_formula_units_Z 104
_cell_length_a 21.768641
_cell_length_b 30.676221
_cell_length_c 7.997481
_cell_angle_alpha 90.000000
_cell_angle_beta 90.000000
_cell_angle_gamma 90.000000
_cell_volume 5340.555001
_symmetry_space_group_name_H-M "I B C A "
_symmetry_group_IT_number 73
_symmetry_cell_setting 'orthorhombic'
loop_
_space_group_symop_operation_xyz
x,y,z
-x,1/2-y,z
x,-y,1/2-z
1/2-x,y,-z
-x,-y,-z
x,1/2+y,-z
-x,y,1/2+z
1/2+x,-y,z
1/2+x,1/2+y,1/2+z
1/2-x,-y,1/2+z
1/2+x,1/2-y,-z
-x,1/2+y,1/2-z
1/2-x,1/2-y,1/2-z
1/2+x,y,1/2-z
1/2-x,1/2+y,z
x,1/2-y,1/2+z
loop_
_atom_site_type_symbol
_atom_site_label
_atom_site_fract_x
_atom_site_fract_y
_atom_site_fract_z
Si Si1 0.359249 0.791699 0.653719
Si Si2 0.030276 0.086248 0.362221
Si Si3 0.562635 0.363540 0.949639
Si Si4 0.339058 0.121143 0.234798
Si Si5 0.323058 0.700567 0.524564
Si Si6 0.250000 0.154331 0.000000
Si Si7 0.415798 0.453670 0.826748
O O1 0.424968 0.812471 0.595972
O O2 0.353299 0.740421 0.626108
O O3 0.305527 0.814617 0.549669
O O4 0.354456 0.802455 0.847019
O O5 0.073136 0.106299 0.216458
O O6 0.064991 0.050004 0.476664
O O7 0.005832 0.126800 0.479257
O O8 0.971803 0.062547 0.285355
O O9 0.611754 0.375603 0.088031
O O10 0.343598 0.158148 0.374902
O O11 0.270970 0.123712 0.154195
O O12 0.353247 0.074808 0.317962
O O13 0.250000 0.705726 0.500000
O O14 0.397544 0.500000 0.750000
#
# Coordination Sequence:
#
# PCOD8295615 Si02
#       7
#    16  16  16  16  16   8  16
#     4  11  20  32  54  82 113 141 183 228 269 322
#     4   9  18  35  57  83 109 141 185 228 283 327
#     4   9  19  34  56  81 111 146 179 230 278 331
#     4  10  21  34  54  79 110 144 180 227 283 323
#     4  12  21  34  55  83 112 146 187 231 273 322
#     4  10  18  34  50  74 108 142 178 220 270 322
#     4  10  19  34  58  84 108 139 181 232 279 337
#
# _framework density 19.473631999999998
#
# number of rings (size 3 to 8) (size 9 to 14) (size 15 to 20)
#    0.000    1.846    2.308    3.692    0.000    0.000 
#    0.000    0.000    1.692   31.385    0.000    0.000 
#    0.000    0.000    0.000    0.000    0.000    0.000 
#
# Total GULP energy -644213.763981 kJ/mol
# GULP energy per Si atom -12388.726230 kJ/mol
# Density = 1.942931 g / cm^3
# Si number density = 19.473632 Si / 1000 Ang^3
#
#
#
# Elastic Constant Matrix: (Units=GPa)
#
#
# Indices 1 2 3 4 5 6 
#
# 1 20.7421 26.3133 12.6042 0.0000 0.0000 0.0000
# 2 26.3133 121.1551 35.0463 0.0000 0.0000 0.0000
# 3 12.6042 35.0463 112.6004 0.0000 0.0000 0.0000
# 4 0.0000 0.0000 0.0000 33.7441 0.0000 0.0000
# 5 0.0000 0.0000 0.0000 0.0000 26.1377 0.0000
# 6 0.0000 0.0000 0.0000 0.0000 0.0000 22.9383
#
#
#
# Elastic Compliance Matrix: (Units=1/GPa)
#
#
# Indices 1 2 3 4 5 6 
#
# 1 0.067641 -0.013737 -0.003296 0.000000 0.000000 0.000000
# 2 -0.013737 0.011860 -0.002154 0.000000 0.000000 0.000000
# 3 -0.003296 -0.002154 0.009920 0.000000 0.000000 0.000000
# 4 0.000000 0.000000 0.000000 0.029635 0.000000 0.000000
# 5 0.000000 0.000000 0.000000 0.000000 0.038259 0.000000
# 6 0.000000 0.000000 0.000000 0.000000 0.000000 0.043595
#
#
# Mechanical properties :
#
#
# Convention : Reuss Voigt Hill
#
# Bulk Modulus (GPa) = 19.58953 44.71390 32.15171
# Shear Modulus (GPa) = 19.50836 28.59961 24.05398
#
# Velocity S-wave (km/s) = 3.16853 3.83643 3.51837
# Velocity P-wave (km/s) = 4.84432 6.52958 5.74904
#
# Compressibility (1/GPa) = 0.05104768
#
# Stress axis : x y z
#
# Youngs Moduli (GPa) = 14.78395 84.31367 100.80389
#
# Poissons Ratio (x) = 1.15824 0.33223
# Poissons Ratio (y) = 0.20309 0.21711
# Poissons Ratio (z) = 0.04873 0.18159
#
# Static dielectric constant tensor:
#      x y z
#    x 3.787870 0.000000 0.000000 
#    y 0.000000 3.769280 0.000000 
#    z 0.000000 0.000000 3.993580 
# 
# 
# High freq. dielectric constant tensor:
#      x y z
#    x 1.728250 0.000000 0.000000 
#    y 0.000000 1.736450 0.000000 
#    z 0.000000 0.000000 1.785620 
# 
# From -- ./inp_files/7310.got.cif
#   From: 2010.03.12/outbox.cif.g09.slc.cpg/sg73_4_cif.got.tgz:7310.got - 2010.04.16 15:25:48.
