data_PCOD8295061
_publ_section_title
;
Structure prediction by ZEFSAII (Michael W. Deem and Ramdas Pophale) SiO2 
 PCOD8295061
Probable space group: I B A M
;
_chemical_formula_sum "Si O2"
_cell_formula_units_Z 64
_cell_length_a 14.038432
_cell_length_b 10.141225
_cell_length_c 18.212590
_cell_angle_alpha 90.000000
_cell_angle_beta 90.000000
_cell_angle_gamma 90.000000
_cell_volume 2592.869935
_symmetry_space_group_name_H-M "I B A M"
_symmetry_group_IT_number 72
_symmetry_cell_setting 'orthorhombic'
loop_
_space_group_symop_operation_xyz
x,y,z
-x,-y,z
x,-y,1/2-z
-x,y,1/2-z
-x,-y,-z
x,y,-z
-x,y,1/2+z
x,-y,1/2+z
1/2+x,1/2+y,1/2+z
1/2-x,1/2-y,1/2+z
1/2+x,1/2-y,-z
1/2-x,1/2+y,-z
1/2-x,1/2-y,1/2-z
1/2+x,1/2+y,1/2-z
1/2-x,1/2+y,z
1/2+x,1/2-y,z
loop_
_atom_site_type_symbol
_atom_site_label
_atom_site_fract_x
_atom_site_fract_y
_atom_site_fract_z
Si Si1 0.782099 0.540149 0.083027
Si Si2 0.893075 0.864560 0.775884
Si Si3 0.053235 0.265452 0.917097
Si Si4 0.657512 0.224401 0.357658
O O1 0.888624 0.598690 0.088438
O O2 0.703740 0.645716 0.107213
O O3 0.778200 0.405679 0.131022
O O4 0.759617 0.497536 0.000000
O O5 0.893824 0.839870 0.863526
O O6 0.846394 0.742850 0.730771
O O7 0.000000 0.874250 0.750000
O O8 0.841531 0.000000 0.750000
O O9 0.945547 0.295226 0.893826
O O10 0.056707 0.208372 0.000000
#
# Coordination Sequence:
#
# PCOD8295061 Si02
#       4
#    16  16  16  16
#     4  11  24  42  67 106 142 179 233 279 338 420
#     4   9  21  43  67  99 137 177 230 282 336 412
#     4  10  22  44  73  99 136 184 230 282 343 404
#     4  11  24  44  70 101 143 183 225 289 344 403
#
# _framework density 24.683074000000001
#
# number of rings (size 3 to 8) (size 9 to 14) (size 15 to 20)
#    0.000    1.750    0.000    3.000    3.500    4.000 
#    0.000   15.000    0.000    0.000    0.000    0.000 
#    0.000    0.000    0.000    0.000    0.000    0.000 
#
# Total GULP energy -396675.515235 kJ/mol
# GULP energy per Si atom -12396.109851 kJ/mol
# Density = 2.462689 g / cm^3
# Si number density = 24.683074 Si / 1000 Ang^3
#
#
#
# Elastic Constant Matrix: (Units=GPa)
#
#
# Indices 1 2 3 4 5 6 
#
# 1 82.2965 11.6390 15.6229 0.0000 0.0000 0.0000
# 2 11.6390 127.7142 53.4118 0.0000 0.0000 0.0000
# 3 15.6229 53.4118 172.1451 0.0000 0.0000 0.0000
# 4 0.0000 0.0000 0.0000 -8.6780 0.0000 0.0000
# 5 0.0000 0.0000 0.0000 0.0000 26.4066 0.0000
# 6 0.0000 0.0000 0.0000 0.0000 0.0000 33.1763
#
#
#
# Elastic Compliance Matrix: (Units=1/GPa)
#
#
# Indices 1 2 3 4 5 6 
#
# 1 0.012428 -0.000759 -0.000892 0.000000 0.000000 0.000000
# 2 -0.000759 0.009044 -0.002737 0.000000 0.000000 0.000000
# 3 -0.000892 -0.002737 0.006739 0.000000 0.000000 0.000000
# 4 0.000000 0.000000 0.000000 -0.115235 0.000000 0.000000
# 5 0.000000 0.000000 0.000000 0.000000 0.037869 0.000000
# 6 0.000000 0.000000 0.000000 0.000000 0.000000 0.030142
#
#
# Mechanical properties :
#
#
# Convention : Reuss Voigt Hill
#
# Bulk Modulus (GPa) = 51.45765 60.38927 55.92346
# Shear Modulus (GPa) = -1331.05204 30.27978 -650.38613
#
# Velocity S-wave (km/s) = -23.24710 3.50629 -16.25013
# Velocity P-wave (km/s) = 26.45142 6.39617 18.14892
#
# Compressibility (1/GPa) = 0.01943346
#
# Stress axis : x y z
#
# Youngs Moduli (GPa) = 80.46363 110.57173 148.38363
#
# Poissons Ratio (x) = 0.08397 0.13240
# Poissons Ratio (y) = 0.06111 0.40615
# Poissons Ratio (z) = 0.07179 0.30265
#
# Static dielectric constant tensor:
#      x y z
#    x 4.600730 0.000000 0.000000 
#    y 0.000000 4.742570 0.000000 
#    z 0.000000 0.000000 4.998080 
# 
# 
# High freq. dielectric constant tensor:
#      x y z
#    x 2.004620 0.000000 0.000000 
#    y 0.000000 1.969510 0.000000 
#    z 0.000000 0.000000 1.990190 
# 
# From -- ./inp_files/30126.got.cif
#   From: 2010.03.12/outbox.cif.g09.slc.cpg/sg72_16_cif.got.tgz:30126.got - 2010.04.16 14:54:00.
