data_PCOD8295062
_publ_section_title
;
Structure prediction by ZEFSAII (Michael W. Deem and Ramdas Pophale) SiO2 
 PCOD8295062
Probable space group: I B A M
;
_chemical_formula_sum "Si O2"
_cell_formula_units_Z 116
_cell_length_a 27.125349
_cell_length_b 8.737039
_cell_length_c 23.087063
_cell_angle_alpha 90.000000
_cell_angle_beta 90.000000
_cell_angle_gamma 90.000000
_cell_volume 5471.523854
_symmetry_space_group_name_H-M "I B A M"
_symmetry_group_IT_number 72
_symmetry_cell_setting 'orthorhombic'
loop_
_space_group_symop_operation_xyz
x,y,z
-x,-y,z
x,-y,1/2-z
-x,y,1/2-z
-x,-y,-z
x,y,-z
-x,y,1/2+z
x,-y,1/2+z
1/2+x,1/2+y,1/2+z
1/2-x,1/2-y,1/2+z
1/2+x,1/2-y,-z
1/2-x,1/2+y,-z
1/2-x,1/2-y,1/2-z
1/2+x,1/2+y,1/2-z
1/2-x,1/2+y,z
1/2+x,1/2-y,z
loop_
_atom_site_type_symbol
_atom_site_label
_atom_site_fract_x
_atom_site_fract_y
_atom_site_fract_z
Si Si1 0.211206 0.849938 0.783048
Si Si2 0.707792 0.696651 0.435525
Si Si3 0.599001 0.396904 0.067393
Si Si4 0.278140 0.983970 0.123604
Si Si5 0.000000 0.000000 0.750000
Si Si6 0.013306 0.326860 0.066457
Si Si7 0.366802 0.109861 0.197122
Si Si8 0.557653 0.661757 0.148834
O O1 0.250000 0.750000 0.750000
O O2 0.235692 0.889955 0.843730
O O3 0.159723 0.763105 0.782408
O O4 0.197024 0.000000 0.750000
O O5 0.719505 0.645692 0.500000
O O6 0.655498 0.630816 0.415936
O O7 0.705851 0.880232 0.430595
O O8 0.753207 0.639992 0.396509
O O9 0.569812 0.233556 0.074203
O O10 0.585245 0.526645 0.114210
O O11 0.593179 0.452769 0.000000
O O12 0.327108 0.013997 0.160527
O O13 0.964803 0.104316 0.790252
O O14 0.000000 0.500000 0.086908
O O15 0.985453 0.206005 0.105626
O O16 0.996243 0.310051 0.000000
O O17 0.411771 0.180085 0.159809
O O18 0.385040 0.000000 0.250000
#
# Coordination Sequence:
#
# PCOD8295062 Si02
#       8
#    16  16  16  16   4  16  16  16
#     4  12  20  39  64  92 125 165 223 275 312 381
#     4  11  25  41  63  97 137 177 218 271 335 395
#     4  10  22  45  74 100 133 179 234 284 336 409
#     4  12  22  42  64  92 133 179 220 273 331 390
#     4  12  28  48  68  92 144 176 218 270 368 404
#     4  10  22  44  75 105 133 170 226 292 349 407
#     4  12  27  42  65 100 129 179 231 276 331 402
#     4  12  26  46  68 100 134 180 227 282 345 420
#
# _framework density 21.200675
#
# number of rings (size 3 to 8) (size 9 to 14) (size 15 to 20)
#    0.000    0.690    5.517    1.655    2.897    3.310 
#    0.000    1.379    0.000    0.000    0.000    0.000 
#    0.000    0.000    0.000    0.000    0.000    0.000 
#
# Total GULP energy -718623.165110 kJ/mol
# GULP energy per Si atom -12390.054571 kJ/mol
# Density = 2.115242 g / cm^3
# Si number density = 21.200675 Si / 1000 Ang^3
#
#
#
# Elastic Constant Matrix: (Units=GPa)
#
#
# Indices 1 2 3 4 5 6 
#
# 1 65.9068 23.6379 36.4528 0.0000 0.0000 0.0000
# 2 23.6379 112.9770 44.1600 0.0000 0.0000 0.0000
# 3 36.4528 44.1600 82.5578 0.0000 0.0000 0.0000
# 4 0.0000 0.0000 0.0000 42.6221 0.0000 0.0000
# 5 0.0000 0.0000 0.0000 0.0000 25.4546 0.0000
# 6 0.0000 0.0000 0.0000 0.0000 0.0000 35.8985
#
#
#
# Elastic Compliance Matrix: (Units=1/GPa)
#
#
# Indices 1 2 3 4 5 6 
#
# 1 0.020153 -0.000934 -0.008399 0.000000 0.000000 0.000000
# 2 -0.000934 0.011234 -0.005597 0.000000 0.000000 0.000000
# 3 -0.008399 -0.005597 0.018815 0.000000 0.000000 0.000000
# 4 0.000000 0.000000 0.000000 0.023462 0.000000 0.000000
# 5 0.000000 0.000000 0.000000 0.000000 0.039286 0.000000
# 6 0.000000 0.000000 0.000000 0.000000 0.000000 0.027856
#
#
# Mechanical properties :
#
#
# Convention : Reuss Voigt Hill
#
# Bulk Modulus (GPa) = 49.15626 52.21588 50.68607
# Shear Modulus (GPa) = 28.17731 31.27444 29.72588
#
# Velocity S-wave (km/s) = 3.64960 3.84495 3.74855
# Velocity P-wave (km/s) = 6.40281 6.66291 6.53415
#
# Compressibility (1/GPa) = 0.02034329
#
# Stress axis : x y z
#
# Youngs Moduli (GPa) = 49.61957 89.01193 53.14855
#
# Poissons Ratio (x) = 0.08310 0.44640
# Poissons Ratio (y) = 0.04632 0.29748
# Poissons Ratio (z) = 0.41676 0.49821
#
# Static dielectric constant tensor:
#      x y z
#    x 3.856830 0.000000 0.000000 
#    y 0.000000 3.974450 0.000000 
#    z 0.000000 0.000000 3.897940 
# 
# 
# High freq. dielectric constant tensor:
#      x y z
#    x 1.828210 0.000000 0.000000 
#    y 0.000000 1.843970 0.000000 
#    z 0.000000 0.000000 1.834290 
# 
# From -- ./inp_files/46014.got.cif
#   From: 2010.03.12/outbox.cif.g09.slc.cpg/sg72_24_cif.got.tgz:46014.got - 2010.04.16 14:54:00.
