data_PCOD8295239
_publ_section_title
;
Structure prediction by ZEFSAII (Michael W. Deem and Ramdas Pophale) SiO2 
 PCOD8295239
Probable space group: I B A M
;
_chemical_formula_sum "Si O2"
_cell_formula_units_Z 96
_cell_length_a 12.415482
_cell_length_b 22.784278
_cell_length_c 17.596175
_cell_angle_alpha 90.000000
_cell_angle_beta 90.000000
_cell_angle_gamma 90.000000
_cell_volume 4977.567156
_symmetry_space_group_name_H-M "I B A M"
_symmetry_group_IT_number 72
_symmetry_cell_setting 'orthorhombic'
loop_
_space_group_symop_operation_xyz
x,y,z
-x,-y,z
x,-y,1/2-z
-x,y,1/2-z
-x,-y,-z
x,y,-z
-x,y,1/2+z
x,-y,1/2+z
1/2+x,1/2+y,1/2+z
1/2-x,1/2-y,1/2+z
1/2+x,1/2-y,-z
1/2-x,1/2+y,-z
1/2-x,1/2-y,1/2-z
1/2+x,1/2+y,1/2-z
1/2-x,1/2+y,z
1/2+x,1/2-y,z
loop_
_atom_site_type_symbol
_atom_site_label
_atom_site_fract_x
_atom_site_fract_y
_atom_site_fract_z
Si Si1 0.244881 0.148093 0.084577
Si Si2 0.072358 0.271466 0.188137
Si Si3 0.607341 0.071051 0.500000
Si Si4 0.642292 0.934007 0.500000
Si Si5 0.245693 0.359151 0.128952
Si Si6 0.620093 0.354267 0.229883
Si Si7 0.882302 0.755509 0.584797
O O1 0.340312 0.100000 0.075759
O O2 0.156453 0.125228 0.145258
O O3 0.296695 0.208185 0.118760
O O4 0.191800 0.158437 0.000000
O O5 0.147069 0.317062 0.147270
O O6 0.128844 0.217164 0.233636
O O7 0.000000 0.306375 0.250000
O O8 0.996762 0.241352 0.125443
O O9 0.481380 0.086636 0.500000
O O10 0.640474 0.003628 0.500000
O O11 0.704014 0.911689 0.575584
O O12 0.298413 0.382124 0.207705
O O13 0.334253 0.320862 0.084797
O O14 0.500000 0.376549 0.250000
O O15 0.905313 0.733734 0.500000
#
# Coordination Sequence:
#
# PCOD8295239 Si02
#       7
#    16  16   8   8  16  16  16
#     4   9  20  38  64  82 119 163 203 248 298 364
#     4  11  21  32  52  81 129 163 187 237 295 368
#     4   9  22  47  65  85 115 157 213 252 316 343
#     4  11  24  41  65  91 117 157 201 272 298 357
#     4  12  22  34  56  90 129 155 199 242 308 358
#     4  11  21  37  56  92 127 167 192 244 299 369
#     4  11  20  32  52  88 121 158 201 233 298 374
#
# _framework density 19.286531
#
# number of rings (size 3 to 8) (size 9 to 14) (size 15 to 20)
#    0.500    0.833    5.833    2.500    1.167    0.667 
#    1.500    0.833    0.000    5.000    0.000    0.000 
#    0.000    0.000    0.000    0.000    0.000    0.000 
#
# Total GULP energy -594868.303701 kJ/mol
# GULP energy per Si atom -12393.089660 kJ/mol
# Density = 1.924263 g / cm^3
# Si number density = 19.286531 Si / 1000 Ang^3
#
#
#
# Elastic Constant Matrix: (Units=GPa)
#
#
# Indices 1 2 3 4 5 6 
#
# 1 93.5236 25.5880 54.7254 0.0000 0.0000 0.0000
# 2 25.5880 51.4279 20.7206 0.0000 0.0000 0.0000
# 3 54.7254 20.7206 110.9280 0.0001 0.0000 0.0000
# 4 0.0000 0.0000 0.0001 10.7714 0.0000 0.0000
# 5 0.0000 0.0000 0.0000 0.0000 40.1024 0.0000
# 6 0.0000 0.0000 0.0000 0.0000 0.0000 24.5773
#
#
#
# Elastic Compliance Matrix: (Units=1/GPa)
#
#
# Indices 1 2 3 4 5 6 
#
# 1 0.016244 -0.005248 -0.007034 0.000000 0.000000 0.000000
# 2 -0.005248 0.022723 -0.001655 0.000000 0.000000 0.000000
# 3 -0.007034 -0.001655 0.012794 0.000000 0.000000 0.000000
# 4 0.000000 0.000000 0.000000 0.092838 0.000000 0.000000
# 5 0.000000 0.000000 0.000000 0.000000 0.024936 0.000000
# 6 0.000000 0.000000 0.000000 0.000000 0.000000 0.040688
#
#
# Mechanical properties :
#
#
# Convention : Reuss Voigt Hill
#
# Bulk Modulus (GPa) = 41.86433 50.88306 46.37370
# Shear Modulus (GPa) = 20.32026 25.41327 22.86677
#
# Velocity S-wave (km/s) = 3.24944 3.63391 3.44704
# Velocity P-wave (km/s) = 5.98599 6.63679 6.31978
#
# Compressibility (1/GPa) = 0.02388668
#
# Stress axis : x y z
#
# Youngs Moduli (GPa) = 61.56066 44.00835 78.16179
#
# Poissons Ratio (x) = 0.23098 0.54975
# Poissons Ratio (y) = 0.32310 0.12937
# Poissons Ratio (z) = 0.43299 0.07284
#
# Static dielectric constant tensor:
#      x y z
#    x 3.596460 0.000000 0.000000 
#    y 0.000000 3.041800 0.000000 
#    z 0.000000 0.000000 3.650590 
# 
# 
# High freq. dielectric constant tensor:
#      x y z
#    x 1.757560 0.000000 0.000000 
#    y 0.000000 1.689940 0.000000 
#    z 0.000000 0.000000 1.763000 
# 
# From -- ./inp_files/29508.got.cif
#   From: 2010.03.12/outbox.cif.g09.slc.cpg/sg72_15_cif.got.tgz:29508.got - 2010.04.16 14:54:00.
