data_PCOD8295071
_publ_section_title
;
Structure prediction by ZEFSAII (Michael W. Deem and Ramdas Pophale) SiO2 
 PCOD8295071
Probable space group: I B A M
;
_chemical_formula_sum "Si O2"
_cell_formula_units_Z 96
_cell_length_a 19.673180
_cell_length_b 8.978174
_cell_length_c 24.977601
_cell_angle_alpha 90.000000
_cell_angle_beta 90.000000
_cell_angle_gamma 90.000000
_cell_volume 4411.774511
_symmetry_space_group_name_H-M "I B A M"
_symmetry_group_IT_number 72
_symmetry_cell_setting 'orthorhombic'
loop_
_space_group_symop_operation_xyz
x,y,z
-x,-y,z
x,-y,1/2-z
-x,y,1/2-z
-x,-y,-z
x,y,-z
-x,y,1/2+z
x,-y,1/2+z
1/2+x,1/2+y,1/2+z
1/2-x,1/2-y,1/2+z
1/2+x,1/2-y,-z
1/2-x,1/2+y,-z
1/2-x,1/2-y,1/2-z
1/2+x,1/2+y,1/2-z
1/2-x,1/2+y,z
1/2+x,1/2-y,z
loop_
_atom_site_type_symbol
_atom_site_label
_atom_site_fract_x
_atom_site_fract_y
_atom_site_fract_z
Si Si1 0.044449 0.618488 0.303653
Si Si2 0.160845 0.538796 0.845860
Si Si3 0.731286 0.311938 0.378905
Si Si4 0.470153 0.653975 0.890569
Si Si5 0.062540 0.391702 0.440514
Si Si6 0.671362 0.419468 0.062053
O O1 0.114517 0.524128 0.296951
O O2 0.056099 0.768046 0.336069
O O3 0.000000 0.500000 0.339372
O O4 0.000000 0.647136 0.250000
O O5 0.222561 0.423173 0.845358
O O6 0.186923 0.708986 0.837610
O O7 0.121135 0.536969 0.903022
O O8 0.680931 0.413852 0.414336
O O9 0.775137 0.198138 0.414316
O O10 0.500000 0.500000 0.870368
O O11 0.532836 0.735859 0.918889
O O12 0.405501 0.636725 0.929042
O O13 0.094302 0.366256 0.500000
O O14 0.000000 0.500000 0.446023
O O15 0.686131 0.428780 0.000000
#
# Coordination Sequence:
#
# PCOD8295071 Si02
#       6
#    16  16  16  16  16  16
#     4  11  23  44  72  94 113 158 219 279 342 406
#     4  11  20  42  62  96 126 170 216 263 325 381
#     4  10  23  36  62  91 132 183 220 260 306 384
#     4  12  23  38  61  96 133 166 212 278 342 383
#     4  11  21  36  61  91 132 179 221 263 312 384
#     4  11  22  37  57  93 139 185 226 257 303 385
#
# _framework density 21.759951999999998
#
# number of rings (size 3 to 8) (size 9 to 14) (size 15 to 20)
#    0.000    1.000    5.000    2.000    0.000    8.333 
#    0.000    0.000    0.000    4.000    0.000    0.000 
#    0.000    0.000    0.000    0.000    0.000    0.000 
#
# Total GULP energy -594689.137991 kJ/mol
# GULP energy per Si atom -12389.357041 kJ/mol
# Density = 2.171043 g / cm^3
# Si number density = 21.759952 Si / 1000 Ang^3
#
#
#
# Elastic Constant Matrix: (Units=GPa)
#
#
# Indices 1 2 3 4 5 6 
#
# 1 72.8476 20.0169 15.2319 0.0000 0.0000 0.0000
# 2 20.0169 133.7656 24.3720 0.0000 0.0000 0.0000
# 3 15.2319 24.3720 66.9652 0.0000 0.0000 0.0000
# 4 0.0000 0.0000 0.0000 10.4158 0.0000 0.0000
# 5 0.0000 0.0000 0.0000 0.0000 25.7040 0.0000
# 6 0.0000 0.0000 0.0000 0.0000 0.0000 47.3135
#
#
#
# Elastic Compliance Matrix: (Units=1/GPa)
#
#
# Indices 1 2 3 4 5 6 
#
# 1 0.014770 -0.001712 -0.002737 0.000000 0.000000 0.000000
# 2 -0.001712 0.008205 -0.002597 0.000000 0.000000 0.000000
# 3 -0.002737 -0.002597 0.016501 0.000000 0.000000 0.000000
# 4 0.000000 0.000000 0.000000 0.096008 0.000000 0.000000
# 5 0.000000 0.000000 0.000000 0.000000 0.038904 0.000000
# 6 0.000000 0.000000 0.000000 0.000000 0.000000 0.021136
#
#
# Mechanical properties :
#
#
# Convention : Reuss Voigt Hill
#
# Bulk Modulus (GPa) = 39.39274 43.64668 41.51971
# Shear Modulus (GPa) = 22.92787 30.95052 26.93920
#
# Velocity S-wave (km/s) = 3.24955 3.77551 3.52236
# Velocity P-wave (km/s) = 5.67645 6.25362 5.97201
#
# Compressibility (1/GPa) = 0.02538539
#
# Stress axis : x y z
#
# Youngs Moduli (GPa) = 67.70575 121.87630 60.60330
#
# Poissons Ratio (x) = 0.20860 0.16585
# Poissons Ratio (y) = 0.11588 0.15738
# Poissons Ratio (z) = 0.18528 0.31650
#
# Static dielectric constant tensor:
#      x y z
#    x 4.385940 0.000000 0.000000 
#    y 0.000000 4.329410 0.000000 
#    z 0.000000 0.000000 3.638150 
# 
# 
# High freq. dielectric constant tensor:
#      x y z
#    x 1.868720 0.000000 0.000000 
#    y 0.000000 1.870420 0.000000 
#    z 0.000000 0.000000 1.822320 
# 
# From -- ./inp_files/49347.got.cif
#   From: 2010.03.12/outbox.cif.g09.slc.cpg/sg72_25_cif.got.tgz:49347.got - 2010.04.16 14:54:00.
