data_PCOD8295630
_publ_section_title
;
Structure prediction by ZEFSAII (Michael W. Deem and Ramdas Pophale) SiO2 
 PCOD8295630
Probable space group: I B C A 
;
_chemical_formula_sum "Si O2"
_cell_formula_units_Z 120
_cell_length_a 18.390786
_cell_length_b 21.563841
_cell_length_c 15.847046
_cell_angle_alpha 90.000000
_cell_angle_beta 90.000000
_cell_angle_gamma 90.000000
_cell_volume 6284.557879
_symmetry_space_group_name_H-M "I B C A "
_symmetry_group_IT_number 73
_symmetry_cell_setting 'orthorhombic'
loop_
_space_group_symop_operation_xyz
x,y,z
-x,1/2-y,z
x,-y,1/2-z
1/2-x,y,-z
-x,-y,-z
x,1/2+y,-z
-x,y,1/2+z
1/2+x,-y,z
1/2+x,1/2+y,1/2+z
1/2-x,-y,1/2+z
1/2+x,1/2-y,-z
-x,1/2+y,1/2-z
1/2-x,1/2-y,1/2-z
1/2+x,y,1/2-z
1/2-x,1/2+y,z
x,1/2-y,1/2+z
loop_
_atom_site_type_symbol
_atom_site_label
_atom_site_fract_x
_atom_site_fract_y
_atom_site_fract_z
Si Si1 0.329834 0.834687 0.501198
Si Si2 0.472453 0.546984 0.383337
Si Si3 0.904310 0.121964 0.171622
Si Si4 0.411121 0.696989 0.841141
Si Si5 0.827068 0.194881 0.035108
Si Si6 0.459479 0.915725 0.561019
Si Si7 0.581285 0.000000 0.750000
Si Si8 0.569961 0.173494 0.115737
O O1 0.250000 0.866229 0.500000
O O2 0.347724 0.827660 0.401778
O O3 0.325507 0.768712 0.549644
O O4 0.386957 0.875290 0.553749
O O5 0.506425 0.571191 0.470419
O O6 0.433539 0.481029 0.396973
O O7 0.534471 0.541458 0.313642
O O8 0.418066 0.602292 0.351234
O O9 0.917475 0.163703 0.252855
O O10 0.841238 0.156515 0.120314
O O11 0.980475 0.116367 0.121196
O O12 0.874593 0.052620 0.197462
O O13 0.399099 0.771434 0.824323
O O14 0.483849 0.685034 0.895491
O O15 0.750000 0.171174 0.000000
O O16 0.893653 0.178577 0.974954
#
# Coordination Sequence:
#
# PCOD8295630 Si02
#       8
#    16  16  16  16  16  16   8  16
#     4  10  20  38  56  82 124 157 196 240 299 362
#     4  10  18  35  56  83 116 147 188 239 299 341
#     4  11  20  37  60  89 114 150 204 248 297 363
#     4  10  20  33  59  87 111 149 189 251 303 332
#     4  10  22  38  58  82 117 163 199 239 295 361
#     4  10  20  33  60  86 108 155 200 239 288 357
#     4  10  20  32  58  86 118 146 184 248 304 342
#     4  10  18  36  57  80 115 146 191 247 285 346
#
# _framework density 19.094422000000002
#
# number of rings (size 3 to 8) (size 9 to 14) (size 15 to 20)
#    0.000    1.867    4.000    0.000    0.000    2.667 
#    0.000    8.000    0.000    0.000    0.000    0.000 
#    0.000    0.000    0.000    0.000    0.000    0.000 
#
# Total GULP energy -743337.408403 kJ/mol
# GULP energy per Si atom -12388.956807 kJ/mol
# Density = 1.905096 g / cm^3
# Si number density = 19.094422 Si / 1000 Ang^3
#
#
#
# Elastic Constant Matrix: (Units=GPa)
#
#
# Indices 1 2 3 4 5 6 
#
# 1 100.2189 45.7040 44.3700 0.0000 0.0000 0.0000
# 2 45.7040 145.3393 50.3884 0.0000 0.0000 0.0000
# 3 44.3700 50.3884 95.4866 0.0000 0.0000 0.0000
# 4 0.0000 0.0000 0.0000 37.2357 0.0000 0.0000
# 5 0.0000 0.0000 0.0000 0.0000 11.5512 0.0000
# 6 0.0000 0.0000 0.0000 0.0000 0.0000 15.8434
#
#
#
# Elastic Compliance Matrix: (Units=1/GPa)
#
#
# Indices 1 2 3 4 5 6 
#
# 1 0.013260 -0.002489 -0.004848 0.000000 0.000000 0.000000
# 2 -0.002489 0.008888 -0.003534 0.000000 0.000000 0.000000
# 3 -0.004848 -0.003534 0.014590 0.000000 0.000000 0.000000
# 4 0.000000 0.000000 0.000000 0.026856 0.000000 0.000000
# 5 0.000000 0.000000 0.000000 0.000000 0.086571 0.000000
# 6 0.000000 0.000000 0.000000 0.000000 0.000000 0.063118
#
#
# Mechanical properties :
#
#
# Convention : Reuss Voigt Hill
#
# Bulk Modulus (GPa) = 66.68154 69.10773 67.89463
# Shear Modulus (GPa) = 20.83132 26.29822 23.56477
#
# Velocity S-wave (km/s) = 3.30656 3.71519 3.51681
# Velocity P-wave (km/s) = 7.04099 7.39423 7.21977
#
# Compressibility (1/GPa) = 0.01499666
#
# Stress axis : x y z
#
# Youngs Moduli (GPa) = 75.41745 112.50770 68.53922
#
# Poissons Ratio (x) = 0.28002 0.33227
# Poissons Ratio (y) = 0.18771 0.24221
# Poissons Ratio (z) = 0.36562 0.39758
#
# Static dielectric constant tensor:
#      x y z
#    x 3.199740 0.000000 0.000000 
#    y 0.000000 4.200990 0.000000 
#    z 0.000000 0.000000 3.445790 
# 
# 
# High freq. dielectric constant tensor:
#      x y z
#    x 1.697430 0.000000 0.000000 
#    y 0.000000 1.768450 0.000000 
#    z 0.000000 0.000000 1.734600 
# 
# From -- ./inp_files/18262.got.cif
#   From: 2010.03.12/outbox.cif.g09.slc.cpg/sg73_10_cif.got.tgz:18262.got - 2010.04.16 15:25:48.
