data_PCOD8295399
_publ_section_title
;
Structure prediction by ZEFSAII (Michael W. Deem and Ramdas Pophale) SiO2 
 PCOD8295399
Probable space group: I B A M
;
_chemical_formula_sum "Si O2"
_cell_formula_units_Z 64
_cell_length_a 9.786189
_cell_length_b 18.061458
_cell_length_c 16.631719
_cell_angle_alpha 90.000000
_cell_angle_beta 90.000000
_cell_angle_gamma 90.000000
_cell_volume 2939.703594
_symmetry_space_group_name_H-M "I B A M"
_symmetry_group_IT_number 72
_symmetry_cell_setting 'orthorhombic'
loop_
_space_group_symop_operation_xyz
x,y,z
-x,-y,z
x,-y,1/2-z
-x,y,1/2-z
-x,-y,-z
x,y,-z
-x,y,1/2+z
x,-y,1/2+z
1/2+x,1/2+y,1/2+z
1/2-x,1/2-y,1/2+z
1/2+x,1/2-y,-z
1/2-x,1/2+y,-z
1/2-x,1/2-y,1/2-z
1/2+x,1/2+y,1/2-z
1/2-x,1/2+y,z
1/2+x,1/2-y,z
loop_
_atom_site_type_symbol
_atom_site_label
_atom_site_fract_x
_atom_site_fract_y
_atom_site_fract_z
Si Si1 0.007203 0.716883 0.657332
Si Si2 0.097736 0.433115 0.407330
Si Si3 0.791580 0.825687 0.406716
Si Si4 0.346219 0.514051 0.343625
O O1 0.162842 0.719322 0.627663
O O2 0.000000 0.740386 0.750000
O O3 0.939527 0.636668 0.647014
O O4 0.926772 0.777478 0.605443
O O5 0.074886 0.411515 0.500000
O O6 0.253718 0.456418 0.392834
O O7 0.000000 0.500000 0.380834
O O8 0.768859 0.843099 0.500000
O O9 0.801813 0.902526 0.360179
O O10 0.500000 0.500000 0.372947
O O11 0.327780 0.500000 0.250000
#
# Coordination Sequence:
#
# PCOD8295399 Si02
#       4
#    16  16  16  16
#     4  12  27  45  73 102 143 186 231 284 350 417
#     4  11  23  43  69  99 135 178 231 285 343 406
#     4  12  26  47  71 104 144 183 232 286 348 418
#     4  11  26  44  71 101 140 180 232 289 345 411
#
# _framework density 21.770903000000001
#
# number of rings (size 3 to 8) (size 9 to 14) (size 15 to 20)
#    0.000    0.500    2.500    5.250    7.000    2.000 
#    0.000    0.000    0.000    0.000    0.000    0.000 
#    0.000    0.000    0.000    0.000    0.000    0.000 
#
# Total GULP energy -397135.370891 kJ/mol
# GULP energy per Si atom -12410.480340 kJ/mol
# Density = 2.172135 g / cm^3
# Si number density = 21.770903 Si / 1000 Ang^3
#
#
#
# Elastic Constant Matrix: (Units=GPa)
#
#
# Indices 1 2 3 4 5 6 
#
# 1 124.5144 11.9536 32.0224 0.0000 0.0000 0.0000
# 2 11.9536 63.4225 26.8984 0.0000 0.0000 0.0000
# 3 32.0224 26.8984 107.1953 0.0000 0.0000 0.0000
# 4 0.0000 0.0000 0.0000 36.9803 0.0000 0.0000
# 5 0.0000 0.0000 0.0000 0.0000 33.0485 0.0000
# 6 0.0000 0.0000 0.0000 0.0000 0.0000 41.3755
#
#
#
# Elastic Compliance Matrix: (Units=1/GPa)
#
#
# Indices 1 2 3 4 5 6 
#
# 1 0.008720 -0.000603 -0.002454 0.000000 0.000000 0.000000
# 2 -0.000603 0.017687 -0.004258 0.000000 0.000000 0.000000
# 3 -0.002454 -0.004258 0.011130 0.000000 0.000000 0.000000
# 4 0.000000 0.000000 0.000000 0.027041 0.000000 0.000000
# 5 0.000000 0.000000 0.000000 0.000000 0.030259 0.000000
# 6 0.000000 0.000000 0.000000 0.000000 0.000000 0.024169
#
#
# Mechanical properties :
#
#
# Convention : Reuss Voigt Hill
#
# Bulk Modulus (GPa) = 43.65299 48.54235 46.09767
# Shear Modulus (GPa) = 35.39294 37.23139 36.31216
#
# Velocity S-wave (km/s) = 4.03637 4.13988 4.08845
# Velocity P-wave (km/s) = 6.46666 6.72285 6.59600
#
# Compressibility (1/GPa) = 0.02290794
#
# Stress axis : x y z
#
# Youngs Moduli (GPa) = 114.67752 56.53931 89.84556
#
# Poissons Ratio (x) = 0.03409 0.22045
# Poissons Ratio (y) = 0.06914 0.38257
# Poissons Ratio (z) = 0.28138 0.24075
#
# Static dielectric constant tensor:
#      x y z
#    x 4.234610 0.000000 0.000000 
#    y 0.000000 3.906610 0.000000 
#    z 0.000000 0.000000 3.890090 
# 
# 
# High freq. dielectric constant tensor:
#      x y z
#    x 1.873540 0.000000 0.000000 
#    y 0.000000 1.859870 0.000000 
#    z 0.000000 0.000000 1.863320 
# 
# From -- ./inp_files/19676.got.cif
#   From: 2010.03.12/outbox.cif.g09.slc.cpg/sg72_10_cif.got.tgz:19676.got - 2010.04.16 14:54:00.
