data_PCOD8295598
_publ_section_title
;
Structure prediction by ZEFSAII (Michael W. Deem and Ramdas Pophale) SiO2 
 PCOD8295598
Probable space group: I B C A 
;
_chemical_formula_sum "Si O2"
_cell_formula_units_Z 88
_cell_length_a 25.302033
_cell_length_b 27.725770
_cell_length_c 5.300372
_cell_angle_alpha 90.000000
_cell_angle_beta 90.000000
_cell_angle_gamma 90.000000
_cell_volume 3718.308207
_symmetry_space_group_name_H-M "I B C A "
_symmetry_group_IT_number 73
_symmetry_cell_setting 'orthorhombic'
loop_
_space_group_symop_operation_xyz
x,y,z
-x,1/2-y,z
x,-y,1/2-z
1/2-x,y,-z
-x,-y,-z
x,1/2+y,-z
-x,y,1/2+z
1/2+x,-y,z
1/2+x,1/2+y,1/2+z
1/2-x,-y,1/2+z
1/2+x,1/2-y,-z
-x,1/2+y,1/2-z
1/2-x,1/2-y,1/2-z
1/2+x,y,1/2-z
1/2-x,1/2+y,z
x,1/2-y,1/2+z
loop_
_atom_site_type_symbol
_atom_site_label
_atom_site_fract_x
_atom_site_fract_y
_atom_site_fract_z
Si Si1 0.529101 0.336320 0.565001
Si Si2 0.250000 0.281215 0.000000
Si Si3 0.028601 0.450621 0.912884
Si Si4 0.853304 0.951320 0.502872
Si Si5 0.364785 0.282080 0.013638
Si Si6 0.689510 0.443314 0.001780
O O1 0.495823 0.315856 0.325528
O O2 0.527209 0.393508 0.575486
O O3 0.590117 0.322360 0.532256
O O4 0.250000 0.250000 0.750000
O O5 0.193259 0.309146 0.990880
O O6 0.013930 0.468721 0.626118
O O7 0.086445 0.468602 0.989805
O O8 0.838464 0.920754 0.753115
O O9 0.816551 0.998834 0.499560
O O10 0.839696 0.921290 0.249234
O O11 0.371228 0.247436 0.254732
O O12 0.750000 0.427476 0.000000
#
# Coordination Sequence:
#
# PCOD8295598 Si02
#       6
#    16   8  16  16  16  16
#     4  10  21  35  52  75 103 138 169 210 260 303
#     4   8  16  30  48  70  96 130 160 188 248 302
#     4  10  21  37  52  71 101 141 176 205 252 308
#     4  10  18  32  53  75  97 137 168 204 250 305
#     4  10  19  32  53  78 102 133 166 212 256 305
#     4  10  19  33  53  78 105 130 165 209 266 308
#
# _framework density 23.666677
#
# number of rings (size 3 to 8) (size 9 to 14) (size 15 to 20)
#    0.000    2.182    0.000    4.909    0.000    2.182 
#    0.000   10.909    6.000    0.000    4.727    0.000 
#    0.000    0.000    0.000    0.000    0.000    0.000 
#
# Total GULP energy -545291.544565 kJ/mol
# GULP energy per Si atom -12392.989649 kJ/mol
# Density = 2.361281 g / cm^3
# Si number density = 23.666677 Si / 1000 Ang^3
#
#
#
# Elastic Constant Matrix: (Units=GPa)
#
#
# Indices 1 2 3 4 5 6 
#
# 1 217.1030 22.6053 85.6625 0.0000 0.0000 0.0000
# 2 22.6053 17.5164 25.1409 0.0000 0.0000 0.0000
# 3 85.6625 25.1409 243.3208 0.0000 0.0000 0.0000
# 4 0.0000 0.0000 0.0000 15.3726 0.0000 0.0000
# 5 0.0000 0.0000 0.0000 0.0000 44.9814 0.0000
# 6 0.0000 0.0000 0.0000 0.0000 0.0000 8.5857
#
#
#
# Elastic Compliance Matrix: (Units=1/GPa)
#
#
# Indices 1 2 3 4 5 6 
#
# 1 0.005738 -0.005291 -0.001474 0.000000 0.000000 0.000000
# 2 -0.005291 0.071907 -0.005567 0.000000 0.000000 0.000000
# 3 -0.001474 -0.005567 0.005204 0.000000 0.000000 0.000000
# 4 0.000000 0.000000 0.000000 0.065051 0.000000 0.000000
# 5 0.000000 0.000000 0.000000 0.000000 0.022231 0.000000
# 6 0.000000 0.000000 0.000000 0.000000 0.000000 0.116472
#
#
# Mechanical properties :
#
#
# Convention : Reuss Voigt Hill
#
# Bulk Modulus (GPa) = 17.18599 82.75084 49.96842
# Shear Modulus (GPa) = 15.12118 36.75671 25.93894
#
# Velocity S-wave (km/s) = 2.53043 3.94521 3.31420
# Velocity P-wave (km/s) = 3.97680 7.46954 5.98368
#
# Compressibility (1/GPa) = 0.05818691
#
# Stress axis : x y z
#
# Youngs Moduli (GPa) = 174.26428 13.90679 192.16662
#
# Poissons Ratio (x) = 0.07357 0.28318
# Poissons Ratio (y) = 0.92195 1.06983
# Poissons Ratio (z) = 0.25680 0.07742
#
# Static dielectric constant tensor:
#      x y z
#    x 4.666800 0.000000 0.000000 
#    y 0.000000 2.793450 0.000000 
#    z 0.000000 0.000000 6.992500 
# 
# 
# High freq. dielectric constant tensor:
#      x y z
#    x 1.954890 0.000000 0.000000 
#    y 0.000000 1.875170 0.000000 
#    z 0.000000 0.000000 1.981770 
# 
# From -- ./inp_files/2266.got.cif
#   From: 2010.03.12/outbox.cif.g09.slc.cpg/sg73_2_cif.got.tgz:2266.got - 2010.04.16 15:25:48.
