data_PCOD8295594
_publ_section_title
;
Structure prediction by ZEFSAII (Michael W. Deem and Ramdas Pophale) SiO2 
 PCOD8295594
Probable space group: I B C A 
;
_chemical_formula_sum "Si O2"
_cell_formula_units_Z 56
_cell_length_a 5.317227
_cell_length_b 30.508851
_cell_length_c 12.463358
_cell_angle_alpha 90.000000
_cell_angle_beta 90.000000
_cell_angle_gamma 90.000000
_cell_volume 2021.836922
_symmetry_space_group_name_H-M "I B C A "
_symmetry_group_IT_number 73
_symmetry_cell_setting 'orthorhombic'
loop_
_space_group_symop_operation_xyz
x,y,z
-x,1/2-y,z
x,-y,1/2-z
1/2-x,y,-z
-x,-y,-z
x,1/2+y,-z
-x,y,1/2+z
1/2+x,-y,z
1/2+x,1/2+y,1/2+z
1/2-x,-y,1/2+z
1/2+x,1/2-y,-z
-x,1/2+y,1/2-z
1/2-x,1/2-y,1/2-z
1/2+x,y,1/2-z
1/2-x,1/2+y,z
x,1/2-y,1/2+z
loop_
_atom_site_type_symbol
_atom_site_label
_atom_site_fract_x
_atom_site_fract_y
_atom_site_fract_z
Si Si1 0.000000 0.250000 0.679910
Si Si2 0.807860 0.520987 0.122664
Si Si3 0.612032 0.879602 0.364951
Si Si4 0.105886 0.843727 0.375645
O O1 0.250000 0.250000 0.750000
O O2 0.025588 0.293207 0.606706
O O3 0.525299 0.511878 0.170933
O O4 0.924013 0.568688 0.146568
O O5 0.750000 0.511360 0.000000
O O6 0.378370 0.855927 0.428242
O O7 0.650816 0.856291 0.249610
O O8 0.879157 0.872680 0.426144
#
# Coordination Sequence:
#
# PCOD8295594 Si02
#       4
#     8  16  16  16
#     4  12  16  30  48  74 110 134 162 190 232 300
#     4  10  21  37  54  70  92 129 176 217 252 296
#     4  10  18  32  48  72 102 128 162 208 247 297
#     4  10  19  30  48  77 107 131 159 196 248 302
#
# _framework density 27.697586999999999
#
# number of rings (size 3 to 8) (size 9 to 14) (size 15 to 20)
#    0.000    1.714    5.714    1.714    0.000    0.000 
#    0.000   17.143    0.000    0.000    0.000    6.000 
#    0.000    0.000    0.000    0.000    0.000    0.000 
#
# Total GULP energy -346954.629915 kJ/mol
# GULP energy per Si atom -12391.236783 kJ/mol
# Density = 2.763455 g / cm^3
# Si number density = 27.697587 Si / 1000 Ang^3
#
#
#
# Elastic Constant Matrix: (Units=GPa)
#
#
# Indices 1 2 3 4 5 6 
#
# 1 292.7968 88.5628 22.3776 0.0000 0.0000 0.0000
# 2 88.5628 201.3869 -8.7897 0.0000 -0.0001 0.0000
# 3 22.3776 -8.7897 58.5139 0.0001 -0.0001 0.0000
# 4 0.0000 0.0000 0.0001 17.3843 -0.0001 0.0000
# 5 0.0000 -0.0001 -0.0001 -0.0001 42.9701 0.0000
# 6 0.0000 0.0000 0.0000 0.0000 0.0000 61.2128
#
#
#
# Elastic Compliance Matrix: (Units=1/GPa)
#
#
# Indices 1 2 3 4 5 6 
#
# 1 0.004132 -0.001899 -0.001865 0.000000 0.000000 0.000000
# 2 -0.001899 0.005871 0.001608 0.000000 0.000000 0.000000
# 3 -0.001865 0.001608 0.018045 0.000000 0.000000 0.000000
# 4 0.000000 0.000000 0.000000 0.057523 0.000000 0.000000
# 5 0.000000 0.000000 0.000000 0.000000 0.023272 0.000000
# 6 0.000000 0.000000 0.000000 0.000000 0.000000 0.016336
#
#
# Mechanical properties :
#
#
# Convention : Reuss Voigt Hill
#
# Bulk Modulus (GPa) = 42.13095 84.11099 63.12097
# Shear Modulus (GPa) = 36.38918 54.34990 45.36954
#
# Velocity S-wave (km/s) = 3.62857 4.43455 4.05165
# Velocity P-wave (km/s) = 5.72708 7.52687 6.68780
#
# Compressibility (1/GPa) = 0.02373552
#
# Stress axis : x y z
#
# Youngs Moduli (GPa) = 242.00264 170.33778 55.41731
#
# Poissons Ratio (x) = 0.32340 0.10338
# Poissons Ratio (y) = 0.45947 -0.08911
# Poissons Ratio (z) = 0.45145 -0.27390
#
# Static dielectric constant tensor:
#      x y z
#    x 6.674150 0.000000 0.000000 
#    y 0.000000 4.881400 0.000000 
#    z 0.000000 0.000000 4.970250 
# 
# 
# High freq. dielectric constant tensor:
#      x y z
#    x 2.169420 0.000000 0.000000 
#    y 0.000000 2.094960 0.000000 
#    z 0.000000 0.000000 2.150780 
# 
# From -- ./inp_files/1003.got.cif
#   From: 2010.03.12/outbox.cif.g09.slc.cpg/sg73_1_cif.got.tgz:1003.got - 2010.04.16 15:25:48.
