data_PCOD8295393
_publ_section_title
;
Structure prediction by ZEFSAII (Michael W. Deem and Ramdas Pophale) SiO2 
 PCOD8295393
Probable space group: I B A M
;
_chemical_formula_sum "Si O2"
_cell_formula_units_Z 80
_cell_length_a 9.875201
_cell_length_b 17.057296
_cell_length_c 22.594408
_cell_angle_alpha 90.000000
_cell_angle_beta 90.000000
_cell_angle_gamma 90.000000
_cell_volume 3805.897579
_symmetry_space_group_name_H-M "I B A M"
_symmetry_group_IT_number 72
_symmetry_cell_setting 'orthorhombic'
loop_
_space_group_symop_operation_xyz
x,y,z
-x,-y,z
x,-y,1/2-z
-x,y,1/2-z
-x,-y,-z
x,y,-z
-x,y,1/2+z
x,-y,1/2+z
1/2+x,1/2+y,1/2+z
1/2-x,1/2-y,1/2+z
1/2+x,1/2-y,-z
1/2-x,1/2+y,-z
1/2-x,1/2-y,1/2-z
1/2+x,1/2+y,1/2-z
1/2-x,1/2+y,z
1/2+x,1/2-y,z
loop_
_atom_site_type_symbol
_atom_site_label
_atom_site_fract_x
_atom_site_fract_y
_atom_site_fract_z
Si Si1 0.272700 0.160005 0.630134
Si Si2 0.982793 0.588490 0.568151
Si Si3 0.656924 0.907290 0.751739
Si Si4 0.735974 0.342569 0.126364
Si Si5 0.978931 0.091617 0.931838
O O1 0.423779 0.145606 0.606413
O O2 0.262352 0.130955 0.697409
O O3 0.236147 0.250643 0.626399
O O4 0.172052 0.111117 0.588808
O O5 0.024546 0.593469 0.500000
O O6 0.000000 0.500000 0.592263
O O7 0.828910 0.615885 0.576875
O O8 0.500000 0.881203 0.750000
O O9 0.730561 0.876742 0.809836
O O10 0.670814 0.000000 0.750000
O O11 0.581578 0.359994 0.109274
O O12 0.997683 0.116708 0.000000
O O13 0.000000 0.000000 0.923085
#
# Coordination Sequence:
#
# PCOD8295393 Si02
#       5
#    16  16  16  16  16
#     4  12  25  42  66  99 133 167 214 272 329 382
#     4  11  23  42  69  96 127 177 231 265 308 387
#     4  11  23  43  71  95 124 169 223 273 318 383
#     4  12  25  42  66  99 133 167 214 272 329 382
#     4  11  25  44  65  94 135 175 211 259 322 389
#
# _framework density 21.020009000000002
#
# number of rings (size 3 to 8) (size 9 to 14) (size 15 to 20)
#    0.000    0.600    2.000    6.600    0.000    8.800 
#    0.000    2.000    0.000    0.000    0.000    0.000 
#    0.000    0.000    0.000    0.000    0.000    0.000 
#
# Total GULP energy -496384.211755 kJ/mol
# GULP energy per Si atom -12409.605294 kJ/mol
# Density = 2.097217 g / cm^3
# Si number density = 21.020009 Si / 1000 Ang^3
#
#
#
# Elastic Constant Matrix: (Units=GPa)
#
#
# Indices 1 2 3 4 5 6 
#
# 1 73.2865 20.4838 28.6729 0.0000 0.0000 0.0000
# 2 20.4838 120.6688 46.4291 0.0000 0.0000 0.0000
# 3 28.6729 46.4291 127.9041 0.0000 0.0000 0.0000
# 4 0.0000 0.0000 0.0000 -12.4841 0.0000 0.0000
# 5 0.0000 0.0000 0.0000 0.0000 42.7955 0.0000
# 6 0.0000 0.0000 0.0000 0.0000 0.0000 36.8528
#
#
#
# Elastic Compliance Matrix: (Units=1/GPa)
#
#
# Indices 1 2 3 4 5 6 
#
# 1 0.015179 -0.001473 -0.002868 0.000000 0.000000 0.000000
# 2 -0.001473 0.009775 -0.003218 0.000000 0.000000 0.000000
# 3 -0.002868 -0.003218 0.009630 0.000000 0.000000 0.000000
# 4 0.000000 0.000000 0.000000 -0.080102 0.000000 0.000000
# 5 0.000000 0.000000 0.000000 0.000000 0.023367 0.000000
# 6 0.000000 0.000000 0.000000 0.000000 0.000000 0.027135
#
#
# Mechanical properties :
#
#
# Convention : Reuss Voigt Hill
#
# Bulk Modulus (GPa) = 51.37391 57.00346 54.18869
# Shear Modulus (GPa) = 188.03159 28.51775 108.27467
#
# Velocity S-wave (km/s) = 9.46825 3.68733 7.18485
# Velocity P-wave (km/s) = 12.00100 6.73098 9.72960
#
# Compressibility (1/GPa) = 0.01946513
#
# Stress axis : x y z
#
# Youngs Moduli (GPa) = 65.88091 102.29665 103.84743
#
# Poissons Ratio (x) = 0.15070 0.29783
# Poissons Ratio (y) = 0.09705 0.33421
# Poissons Ratio (z) = 0.18895 0.32922
#
# Static dielectric constant tensor:
#      x y z
#    x 3.804200 0.000000 0.000000 
#    y 0.000000 3.788790 0.000000 
#    z 0.000000 0.000000 3.867720 
# 
# 
# High freq. dielectric constant tensor:
#      x y z
#    x 1.827300 0.000000 0.000000 
#    y 0.000000 1.834190 0.000000 
#    z 0.000000 0.000000 1.837570 
# 
# From -- ./inp_files/47195.got.cif
#   From: 2010.03.12/outbox.cif.g09.slc.cpg/sg72_24_cif.got.tgz:47195.got - 2010.04.16 14:54:00.
