data_PCOD8295939
_publ_section_title
;
Structure prediction by ZEFSAII (Michael W. Deem and Ramdas Pophale) SiO2 
 PCOD8295939
Probable space group: I B C A 
;
_chemical_formula_sum "Si O2"
_cell_formula_units_Z 88
_cell_length_a 22.991267
_cell_length_b 10.017426
_cell_length_c 19.599191
_cell_angle_alpha 90.000000
_cell_angle_beta 90.000000
_cell_angle_gamma 90.000000
_cell_volume 4513.954667
_symmetry_space_group_name_H-M "I B C A "
_symmetry_group_IT_number 73
_symmetry_cell_setting 'orthorhombic'
loop_
_space_group_symop_operation_xyz
x,y,z
-x,1/2-y,z
x,-y,1/2-z
1/2-x,y,-z
-x,-y,-z
x,1/2+y,-z
-x,y,1/2+z
1/2+x,-y,z
1/2+x,1/2+y,1/2+z
1/2-x,-y,1/2+z
1/2+x,1/2-y,-z
-x,1/2+y,1/2-z
1/2-x,1/2-y,1/2-z
1/2+x,y,1/2-z
1/2-x,1/2+y,z
x,1/2-y,1/2+z
loop_
_atom_site_type_symbol
_atom_site_label
_atom_site_fract_x
_atom_site_fract_y
_atom_site_fract_z
Si Si1 0.774997 0.789005 0.427634
Si Si2 0.002509 0.588837 0.432044
Si Si3 0.589390 0.933934 0.179366
Si Si4 0.691155 0.000000 0.750000
Si Si5 0.387072 0.648065 0.642675
Si Si6 0.721669 0.528674 0.644829
O O1 0.750000 0.831014 0.500000
O O2 0.844190 0.813845 0.420050
O O3 0.766252 0.631147 0.416733
O O4 0.740651 0.878708 0.373051
O O5 0.062200 0.559233 0.390835
O O6 0.000000 0.750000 0.447321
O O7 0.000000 0.500000 0.500000
O O8 0.951166 0.528753 0.384954
O O9 0.585818 0.773988 0.182525
O O10 0.566456 0.000000 0.250000
O O11 0.655047 0.980968 0.166947
O O12 0.648816 0.078165 0.798970
O O13 0.736461 0.912886 0.795308
#
# Coordination Sequence:
#
# PCOD8295939 Si02
#       6
#    16  16  16   8  16  16
#     4  10  21  36  56  86 121 155 196 236 292 360
#     4  10  23  46  62  87 121 158 205 254 301 352
#     4  10  21  38  64  87 118 156 199 247 298 358
#     4  10  20  38  58  88 124 146 196 240 300 352
#     4   9  22  39  59  86 123 158 190 255 294 355
#     4  10  21  35  59  87 117 157 188 244 294 352
#
# _framework density 19.495100999999998
#
# number of rings (size 3 to 8) (size 9 to 14) (size 15 to 20)
#    0.000    2.182    0.909    0.545    6.364    2.182 
#   13.091    0.000    0.000    0.000    0.000    0.000 
#    0.000    0.000    0.000    0.000    0.000    0.000 
#
# Total GULP energy -545095.272106 kJ/mol
# GULP energy per Si atom -12388.528912 kJ/mol
# Density = 1.945073 g / cm^3
# Si number density = 19.495101 Si / 1000 Ang^3
#
#
#
# Elastic Constant Matrix: (Units=GPa)
#
#
# Indices 1 2 3 4 5 6 
#
# 1 127.9208 33.5272 76.6606 0.0000 0.0000 0.0000
# 2 33.5272 62.8558 47.2418 0.0000 0.0000 0.0000
# 3 76.6606 47.2418 146.5409 0.0000 0.0000 0.0000
# 4 0.0000 0.0000 0.0000 30.6474 0.0000 0.0000
# 5 0.0000 0.0000 0.0000 0.0000 39.1739 0.0000
# 6 0.0000 0.0000 0.0000 0.0000 0.0000 24.6577
#
#
#
# Elastic Compliance Matrix: (Units=1/GPa)
#
#
# Indices 1 2 3 4 5 6 
#
# 1 0.011603 -0.002147 -0.005378 0.000000 0.000000 0.000000
# 2 -0.002147 0.021394 -0.005774 0.000000 0.000000 0.000000
# 3 -0.005378 -0.005774 0.011499 0.000000 0.000000 0.000000
# 4 0.000000 0.000000 0.000000 0.032629 0.000000 0.000000
# 5 0.000000 0.000000 0.000000 0.000000 0.025527 0.000000
# 6 0.000000 0.000000 0.000000 0.000000 0.000000 0.040555
#
#
# Mechanical properties :
#
#
# Convention : Reuss Voigt Hill
#
# Bulk Modulus (GPa) = 55.87067 72.46409 64.16738
# Shear Modulus (GPa) = 28.44615 30.88834 29.66725
#
# Velocity S-wave (km/s) = 3.82402 3.98479 3.90523
# Velocity P-wave (km/s) = 6.94396 7.64346 7.30209
#
# Compressibility (1/GPa) = 0.01789848
#
# Stress axis : x y z
#
# Youngs Moduli (GPa) = 86.18602 46.74148 86.96693
#
# Poissons Ratio (x) = 0.10036 0.46768
# Poissons Ratio (y) = 0.18505 0.50213
# Poissons Ratio (z) = 0.46348 0.26988
#
# Static dielectric constant tensor:
#      x y z
#    x 3.878180 0.000000 0.000000 
#    y 0.000000 3.486610 0.000000 
#    z 0.000000 0.000000 3.652030 
# 
# 
# High freq. dielectric constant tensor:
#      x y z
#    x 1.774160 0.000000 0.000000 
#    y 0.000000 1.742150 0.000000 
#    z 0.000000 0.000000 1.758570 
# 
# From -- ./inp_files/11866.got.cif
#   From: 2010.03.12/outbox.cif.g09.slc.cpg/sg73_6_cif.got.tgz:11866.got - 2010.04.16 15:25:48.
