data_PCOD8295588
_publ_section_title
;
Structure prediction by ZEFSAII (Michael W. Deem and Ramdas Pophale) SiO2 
 PCOD8295588
Probable space group: I B C A 
;
_chemical_formula_sum "Si O2"
_cell_formula_units_Z 88
_cell_length_a 12.491098
_cell_length_b 23.529014
_cell_length_c 14.376299
_cell_angle_alpha 90.000000
_cell_angle_beta 90.000000
_cell_angle_gamma 90.000000
_cell_volume 4225.240564
_symmetry_space_group_name_H-M "I B C A "
_symmetry_group_IT_number 73
_symmetry_cell_setting 'orthorhombic'
loop_
_space_group_symop_operation_xyz
x,y,z
-x,1/2-y,z
x,-y,1/2-z
1/2-x,y,-z
-x,-y,-z
x,1/2+y,-z
-x,y,1/2+z
1/2+x,-y,z
1/2+x,1/2+y,1/2+z
1/2-x,-y,1/2+z
1/2+x,1/2-y,-z
-x,1/2+y,1/2-z
1/2-x,1/2-y,1/2-z
1/2+x,y,1/2-z
1/2-x,1/2+y,z
x,1/2-y,1/2+z
loop_
_atom_site_type_symbol
_atom_site_label
_atom_site_fract_x
_atom_site_fract_y
_atom_site_fract_z
Si Si1 0.068406 0.928833 0.330472
Si Si2 0.048487 0.142095 0.526848
Si Si3 0.506177 0.050237 0.120931
Si Si4 0.750000 0.206851 0.000000
Si Si5 0.406637 0.785672 0.398709
Si Si6 0.208732 0.396143 0.395543
O O1 0.031181 0.931465 0.225569
O O2 0.194574 0.915260 0.330295
O O3 0.002204 0.878840 0.377633
O O4 0.046309 0.985760 0.391166
O O5 0.065387 0.092085 0.450686
O O6 0.163764 0.167534 0.552256
O O7 0.969341 0.191030 0.489461
O O8 0.378235 0.053130 0.102183
O O9 0.808942 0.244319 0.922609
O O10 0.500000 0.750000 0.341498
O O11 0.352016 0.840832 0.350542
O O12 0.250000 0.382436 0.500000
#
# Coordination Sequence:
#
# PCOD8295588 Si02
#       6
#    16  16  16   8  16  16
#     4  11  22  39  61  86 124 157 200 247 296 356
#     4  10  20  35  58  86 114 157 197 244 294 362
#     4  10  24  38  57  91 120 154 204 245 290 362
#     4  10  18  30  60  86 112 146 198 250 306 340
#     4   9  17  34  59  90 113 153 206 239 293 365
#     4  11  20  38  65  84 116 172 194 237 307 353
#
# _framework density 20.827216
#
# number of rings (size 3 to 8) (size 9 to 14) (size 15 to 20)
#    0.000    1.818    4.545    0.545    0.000    5.818 
#    0.000    0.000    0.000   65.455    0.000    0.000 
#    0.000    0.000    0.000    0.000    0.000    0.000 
#
# Total GULP energy -545320.373666 kJ/mol
# GULP energy per Si atom -12393.644856 kJ/mol
# Density = 2.077981 g / cm^3
# Si number density = 20.827216 Si / 1000 Ang^3
#
#
#
# Elastic Constant Matrix: (Units=GPa)
#
#
# Indices 1 2 3 4 5 6 
#
# 1 166.3467 69.4750 10.2850 0.0000 0.0000 0.0000
# 2 69.4750 98.7826 10.2696 -0.0002 0.0000 0.0000
# 3 10.2850 10.2696 28.7284 -0.0002 0.0000 0.0000
# 4 0.0000 -0.0002 -0.0002 13.7703 0.0000 0.0000
# 5 0.0000 0.0000 0.0000 0.0000 21.7767 0.0000
# 6 0.0000 0.0000 0.0000 0.0000 0.0000 50.0802
#
#
#
# Elastic Compliance Matrix: (Units=1/GPa)
#
#
# Indices 1 2 3 4 5 6 
#
# 1 0.008536 -0.005906 -0.000945 0.000000 0.000000 0.000000
# 2 -0.005906 0.014599 -0.003105 0.000000 0.000000 0.000000
# 3 -0.000945 -0.003105 0.036257 0.000000 0.000000 0.000000
# 4 0.000000 0.000000 0.000000 0.072620 0.000000 0.000000
# 5 0.000000 0.000000 0.000000 0.000000 0.045921 0.000000
# 6 0.000000 0.000000 0.000000 0.000000 0.000000 0.019968
#
#
# Mechanical properties :
#
#
# Convention : Reuss Voigt Hill
#
# Bulk Modulus (GPa) = 25.32779 52.65743 38.99261
# Shear Modulus (GPa) = 21.64761 30.71400 26.18080
#
# Velocity S-wave (km/s) = 3.22746 3.84436 3.54933
# Velocity P-wave (km/s) = 5.10646 6.71143 5.96319
#
# Compressibility (1/GPa) = 0.03948232
#
# Stress axis : x y z
#
# Youngs Moduli (GPa) = 117.14517 68.49589 27.58092
#
# Poissons Ratio (x) = 0.40450 0.02607
# Poissons Ratio (y) = 0.69180 0.08563
# Poissons Ratio (z) = 0.11071 0.21266
#
# Static dielectric constant tensor:
#      x y z
#    x 4.211610 0.000000 0.000000 
#    y 0.000000 4.247030 0.000000 
#    z 0.000000 0.000000 3.247630 
# 
# 
# High freq. dielectric constant tensor:
#      x y z
#    x 1.832750 0.000000 0.000000 
#    y 0.000000 1.830580 0.000000 
#    z 0.000000 0.000000 1.764650 
# 
# From -- ./inp_files/16134.got.cif
#   From: 2010.03.12/outbox.cif.g09.slc.cpg/sg73_9_cif.got.tgz:16134.got - 2010.04.16 15:25:48.
