data_PCOD8295527
_publ_section_title
;
Structure prediction by ZEFSAII (Michael W. Deem and Ramdas Pophale) SiO2 
 PCOD8295527
Probable space group: I B C A 
;
_chemical_formula_sum "Si O2"
_cell_formula_units_Z 72
_cell_length_a 31.734179
_cell_length_b 26.252372
_cell_length_c 5.224109
_cell_angle_alpha 90.000000
_cell_angle_beta 90.000000
_cell_angle_gamma 90.000000
_cell_volume 4352.192003
_symmetry_space_group_name_H-M "I B C A "
_symmetry_group_IT_number 73
_symmetry_cell_setting 'orthorhombic'
loop_
_space_group_symop_operation_xyz
x,y,z
-x,1/2-y,z
x,-y,1/2-z
1/2-x,y,-z
-x,-y,-z
x,1/2+y,-z
-x,y,1/2+z
1/2+x,-y,z
1/2+x,1/2+y,1/2+z
1/2-x,-y,1/2+z
1/2+x,1/2-y,-z
-x,1/2+y,1/2-z
1/2-x,1/2-y,1/2-z
1/2+x,y,1/2-z
1/2-x,1/2+y,z
x,1/2-y,1/2+z
loop_
_atom_site_type_symbol
_atom_site_label
_atom_site_fract_x
_atom_site_fract_y
_atom_site_fract_z
Si Si1 0.481718 0.806853 0.751115
Si Si2 0.250000 0.091510 0.500000
Si Si3 0.168390 0.882427 0.235337
Si Si4 0.614350 0.783464 0.226499
Si Si5 0.170599 0.942436 0.755668
O O1 0.500000 0.750000 0.779566
O O2 0.502956 0.835431 0.509203
O O3 0.431732 0.808158 0.728827
O O4 0.218585 0.125417 0.322068
O O5 0.221051 0.056760 0.686635
O O6 0.148702 0.827392 0.269583
O O7 0.160362 0.915542 0.488258
O O8 0.147896 0.911921 0.990153
O O9 0.621247 0.747894 0.469305
O O10 0.153478 0.000000 0.750000
#
# Coordination Sequence:
#
# PCOD8295527 Si02
#       5
#    16   8  16  16  16
#     4  10  16  30  49  75  93 127 160 214 244 296
#     4   8  22  32  54  72 104 126 170 222 252 300
#     4  10  22  33  49  78 103 131 175 209 244 312
#     4  12  21  34  52  71 108 144 166 201 253 289
#     4  10  20  34  57  75  98 129 165 218 271 294
#
# _framework density 16.543388
#
# number of rings (size 3 to 8) (size 9 to 14) (size 15 to 20)
#    1.333    0.444    4.444    2.667    3.111    0.000 
#    0.000    1.111    0.000    0.000    0.000    0.000 
#    0.000   17.778    0.000    0.000    0.000    0.000 
#
# Total GULP energy -445988.882544 kJ/mol
# GULP energy per Si atom -12388.580071 kJ/mol
# Density = 1.650573 g / cm^3
# Si number density = 16.543388 Si / 1000 Ang^3
#
#
#
# Elastic Constant Matrix: (Units=GPa)
#
#
# Indices 1 2 3 4 5 6 
#
# 1 39.9869 36.7360 23.4457 0.0000 0.0000 0.0000
# 2 36.7360 86.3761 60.5965 0.0000 0.0000 0.0000
# 3 23.4457 60.5965 170.1568 0.0000 0.0000 0.0000
# 4 0.0000 0.0000 0.0000 -2.4421 0.0000 0.0000
# 5 0.0000 0.0000 0.0000 0.0000 21.1044 0.0000
# 6 0.0000 0.0000 0.0000 0.0000 0.0000 0.2895
#
#
#
# Elastic Compliance Matrix: (Units=1/GPa)
#
#
# Indices 1 2 3 4 5 6 
#
# 1 0.041118 -0.018013 0.000749 0.000000 0.000000 0.000000
# 2 -0.018013 0.023324 -0.005824 0.000000 0.000000 0.000000
# 3 0.000749 -0.005824 0.007848 0.000000 0.000000 0.000000
# 4 0.000000 0.000000 0.000000 -0.409481 0.000000 0.000000
# 5 0.000000 0.000000 0.000000 0.000000 0.047383 0.000000
# 6 0.000000 0.000000 0.000000 0.000000 0.000000 3.454178
#
#
# Mechanical properties :
#
#
# Convention : Reuss Voigt Hill
#
# Bulk Modulus (GPa) = 38.29431 59.78625 49.04028
# Shear Modulus (GPa) = 1.55316 15.50646 8.52981
#
# Velocity S-wave (km/s) = 0.96999 3.06489 2.27315
# Velocity P-wave (km/s) = 4.94495 6.98157 6.04958
#
# Compressibility (1/GPa) = 0.02611354
#
# Stress axis : x y z
#
# Youngs Moduli (GPa) = 24.32052 42.87374 127.42361
#
# Poissons Ratio (x) = 0.77229 -0.09548
# Poissons Ratio (y) = 0.43809 0.74215
# Poissons Ratio (z) = -0.01822 0.24971
#
# Static dielectric constant tensor:
#      x y z
#    x 2.912950 0.000000 0.000000 
#    y 0.000000 2.486080 0.000000 
#    z 0.000000 0.000000 4.634210 
# 
# 
# High freq. dielectric constant tensor:
#      x y z
#    x 1.611000 0.000000 0.000000 
#    y 0.000000 1.587840 0.000000 
#    z 0.000000 0.000000 1.671480 
# 
# From -- ./inp_files/2601.got.cif
#   From: 2010.03.12/outbox.cif.g09.slc.cpg/sg73_2_cif.got.tgz:2601.got - 2010.04.16 15:25:48.
