data_PCOD8295167
_publ_section_title
;
Structure prediction by ZEFSAII (Michael W. Deem and Ramdas Pophale) SiO2 
 PCOD8295167
Probable space group: I B A M
;
_chemical_formula_sum "Si O2"
_cell_formula_units_Z 80
_cell_length_a 26.173271
_cell_length_b 10.374087
_cell_length_c 13.666918
_cell_angle_alpha 90.000000
_cell_angle_beta 90.000000
_cell_angle_gamma 90.000000
_cell_volume 3710.893379
_symmetry_space_group_name_H-M "I B A M"
_symmetry_group_IT_number 72
_symmetry_cell_setting 'orthorhombic'
loop_
_space_group_symop_operation_xyz
x,y,z
-x,-y,z
x,-y,1/2-z
-x,y,1/2-z
-x,-y,-z
x,y,-z
-x,y,1/2+z
x,-y,1/2+z
1/2+x,1/2+y,1/2+z
1/2-x,1/2-y,1/2+z
1/2+x,1/2-y,-z
1/2-x,1/2+y,-z
1/2-x,1/2-y,1/2-z
1/2+x,1/2+y,1/2-z
1/2-x,1/2+y,z
1/2+x,1/2-y,z
loop_
_atom_site_type_symbol
_atom_site_label
_atom_site_fract_x
_atom_site_fract_y
_atom_site_fract_z
Si Si1 0.548214 0.855690 0.692260
Si Si2 0.028891 0.197491 0.000000
Si Si3 0.420858 0.437353 0.000000
Si Si4 0.645602 0.006614 0.883597
Si Si5 0.394555 0.368435 0.206950
Si Si6 0.692157 0.793574 0.254664
O O1 0.500000 0.916909 0.750000
O O2 0.531652 0.787814 0.593201
O O3 0.589030 0.968976 0.663467
O O4 0.569740 0.750718 0.767285
O O5 0.976893 0.120540 0.000000
O O6 0.075310 0.093639 0.000000
O O7 0.389292 0.384752 0.091296
O O8 0.681037 0.129600 0.855518
O O9 0.672014 0.880258 0.836842
O O10 0.642259 0.991686 0.000000
O O11 0.418055 0.500000 0.250000
O O12 0.338852 0.340531 0.252638
O O13 0.750000 0.750000 0.250000
#
# Coordination Sequence:
#
# PCOD8295167 Si02
#       6
#    16   8   8  16  16  16
#     4  11  21  39  67  97 144 187 223 272 337 404
#     4  11  20  34  61  94 140 189 230 273 332 397
#     4  11  22  34  59  98 138 179 240 282 330 405
#     4  10  23  45  72 103 135 178 229 280 337 416
#     4  11  23  38  62  96 135 177 227 284 338 399
#     4  10  25  47  70  95 134 171 224 290 354 405
#
# _framework density 21.558150999999999
#
# number of rings (size 3 to 8) (size 9 to 14) (size 15 to 20)
#    0.000    1.400    5.000    0.000    4.200    1.200 
#    0.000    8.000    0.000   12.000    0.000    0.000 
#    0.000    0.000    0.000    0.000    0.000    0.000 
#
# Total GULP energy -495791.228038 kJ/mol
# GULP energy per Si atom -12394.780701 kJ/mol
# Density = 2.150908 g / cm^3
# Si number density = 21.558151 Si / 1000 Ang^3
#
#
#
# Elastic Constant Matrix: (Units=GPa)
#
#
# Indices 1 2 3 4 5 6 
#
# 1 141.6809 39.1597 30.7236 0.0000 0.0000 0.0000
# 2 39.1597 117.9215 45.0152 0.0000 0.0000 0.0000
# 3 30.7236 45.0152 163.1422 0.0000 0.0000 0.0000
# 4 0.0000 0.0000 0.0000 35.3295 0.0000 0.0000
# 5 0.0000 0.0000 0.0000 0.0000 23.0579 0.0000
# 6 0.0000 0.0000 0.0000 0.0000 0.0000 19.0671
#
#
#
# Elastic Compliance Matrix: (Units=1/GPa)
#
#
# Indices 1 2 3 4 5 6 
#
# 1 0.007876 -0.002290 -0.000851 0.000000 0.000000 0.000000
# 2 -0.002290 0.010145 -0.002368 0.000000 0.000000 0.000000
# 3 -0.000851 -0.002368 0.006943 0.000000 0.000000 0.000000
# 4 0.000000 0.000000 0.000000 0.028305 0.000000 0.000000
# 5 0.000000 0.000000 0.000000 0.000000 0.043369 0.000000
# 6 0.000000 0.000000 0.000000 0.000000 0.000000 0.052446
#
#
# Mechanical properties :
#
#
# Convention : Reuss Voigt Hill
#
# Bulk Modulus (GPa) = 71.71159 72.50464 72.10811
# Shear Modulus (GPa) = 30.34873 36.01396 33.18135
#
# Velocity S-wave (km/s) = 3.75608 4.09167 3.92746
# Velocity P-wave (km/s) = 7.22131 7.48515 7.35442
#
# Compressibility (1/GPa) = 0.01394475
#
# Stress axis : x y z
#
# Youngs Moduli (GPa) = 126.97172 98.57324 144.02433
#
# Poissons Ratio (x) = 0.22578 0.12259
# Poissons Ratio (y) = 0.29083 0.34103
# Poissons Ratio (z) = 0.10808 0.23341
#
# Static dielectric constant tensor:
#      x y z
#    x 3.884320 0.000000 0.000000 
#    y 0.000000 4.141460 0.000000 
#    z 0.000000 0.000000 3.936850 
# 
# 
# High freq. dielectric constant tensor:
#      x y z
#    x 1.827180 0.000000 0.000000 
#    y 0.000000 1.869730 0.000000 
#    z 0.000000 0.000000 1.852590 
# 
# From -- ./inp_files/24935.got.cif
#   From: 2010.03.12/outbox.cif.g09.slc.cpg/sg72_13_cif.got.tgz:24935.got - 2010.04.16 14:54:00.
