data_PCOD8295184
_publ_section_title
;
Structure prediction by ZEFSAII (Michael W. Deem and Ramdas Pophale) SiO2 
 PCOD8295184
Probable space group: I B A M
;
_chemical_formula_sum "Si O2"
_cell_formula_units_Z 56
_cell_length_a 17.304640
_cell_length_b 7.603923
_cell_length_c 15.245683
_cell_angle_alpha 90.000000
_cell_angle_beta 90.000000
_cell_angle_gamma 90.000000
_cell_volume 2006.074995
_symmetry_space_group_name_H-M "I B A M"
_symmetry_group_IT_number 72
_symmetry_cell_setting 'orthorhombic'
loop_
_space_group_symop_operation_xyz
x,y,z
-x,-y,z
x,-y,1/2-z
-x,y,1/2-z
-x,-y,-z
x,y,-z
-x,y,1/2+z
x,-y,1/2+z
1/2+x,1/2+y,1/2+z
1/2-x,1/2-y,1/2+z
1/2+x,1/2-y,-z
1/2-x,1/2+y,-z
1/2-x,1/2-y,1/2-z
1/2+x,1/2+y,1/2-z
1/2-x,1/2+y,z
1/2+x,1/2-y,z
loop_
_atom_site_type_symbol
_atom_site_label
_atom_site_fract_x
_atom_site_fract_y
_atom_site_fract_z
Si Si1 0.001949 0.792159 0.353079
Si Si2 0.228514 0.956011 0.000000
Si Si3 0.230765 0.000000 0.750000
Si Si4 0.664337 0.782352 0.146695
Si Si5 0.878641 0.298403 0.500000
O O1 0.070284 0.707741 0.410985
O O2 0.000000 0.747833 0.250000
O O3 0.923556 0.695712 0.385060
O O4 0.000000 0.000000 0.372286
O O5 0.210139 0.839443 0.082276
O O6 0.182435 0.137891 0.000000
O O7 0.324794 0.978404 0.000000
O O8 0.288127 0.961604 0.665929
O O9 0.172727 0.834345 0.763026
#
# Coordination Sequence:
#
# PCOD8295184 Si02
#       5
#    16   8   8  16   8
#     4  11  23  42  73 108 142 194 246 312 372 460
#     4  12  25  42  75 106 144 196 250 326 365 453
#     4  10  24  40  72 106 148 190 250 306 364 458
#     4  11  23  43  70 104 146 194 248 310 374 448
#     4  12  26  47  74 111 150 196 264 312 386 448
#
# _framework density 27.915206999999999
#
# number of rings (size 3 to 8) (size 9 to 14) (size 15 to 20)
#    0.000    0.857    2.857    4.714    8.000    0.000 
#    0.000    0.714    0.000    3.429    0.000    0.000 
#    0.000    0.000    0.000    0.000    0.000    0.000 
#
# Total GULP energy -346883.918136 kJ/mol
# GULP energy per Si atom -12388.711362 kJ/mol
# Density = 2.785167 g / cm^3
# Si number density = 27.915207 Si / 1000 Ang^3
#
#
#
# Elastic Constant Matrix: (Units=GPa)
#
#
# Indices 1 2 3 4 5 6 
#
# 1 234.7122 44.0134 57.2966 0.0000 0.0000 0.0000
# 2 44.0134 64.9015 3.1830 0.0000 0.0000 0.0000
# 3 57.2966 3.1830 94.7820 0.0000 0.0000 0.0000
# 4 0.0000 0.0000 0.0000-5054.2926 0.0000 0.0000
# 5 0.0000 0.0000 0.0000 0.0000 67.5113 0.0000
# 6 0.0000 0.0000 0.0000 0.0000 0.0000 51.7427
#
#
#
# Elastic Compliance Matrix: (Units=1/GPa)
#
#
# Indices 1 2 3 4 5 6 
#
# 1 0.005789 -0.003761 -0.003373 0.000000 0.000000 0.000000
# 2 -0.003761 0.017876 0.001673 0.000000 0.000000 0.000000
# 3 -0.003373 0.001673 0.012534 0.000000 0.000000 0.000000
# 4 0.000000 0.000000 0.000000 -0.000198 0.000000 0.000000
# 5 0.000000 0.000000 0.000000 0.000000 0.014812 0.000000
# 6 0.000000 0.000000 0.000000 0.000000 0.000000 0.019326
#
#
# Mechanical properties :
#
#
# Convention : Reuss Voigt Hill
#
# Bulk Modulus (GPa) = 39.56156 67.04241 53.30199
# Shear Modulus (GPa) = 55.87384 -967.68087 -455.90351
#
# Velocity S-wave (km/s) = 4.47873 -18.63874 -12.79343
# Velocity P-wave (km/s) = 6.39907 20.95555 14.11005
#
# Compressibility (1/GPa) = 0.02527706
#
# Stress axis : x y z
#
# Youngs Moduli (GPa) = 172.73567 55.94045 79.78580
#
# Poissons Ratio (x) = 0.21037 0.26914
# Poissons Ratio (y) = 0.64958 -0.13348
# Poissons Ratio (z) = 0.58269 -0.09359
#
# Static dielectric constant tensor:
#      x y z
#    x 5.372420 0.000000 0.000000 
#    y 0.000000 9.596230 0.000000 
#    z 0.000000 0.000000 4.553020 
# 
# 
# High freq. dielectric constant tensor:
#      x y z
#    x 2.138870 0.000000 0.000000 
#    y 0.000000 2.119130 0.000000 
#    z 0.000000 0.000000 2.150620 
# 
# From -- ./inp_files/31116.got.cif
#   From: 2010.03.12/outbox.cif.g09.slc.cpg/sg72_16_cif.got.tgz:31116.got - 2010.04.16 14:54:00.
