data_PCOD8295519
_publ_section_title
;
Structure prediction by ZEFSAII (Michael W. Deem and Ramdas Pophale) SiO2 
 PCOD8295519
Probable space group: I B C A 
;
_chemical_formula_sum "Si O2"
_cell_formula_units_Z 64
_cell_length_a 36.117502
_cell_length_b 12.269477
_cell_length_c 5.352177
_cell_angle_alpha 90.000000
_cell_angle_beta 90.000000
_cell_angle_gamma 90.000000
_cell_volume 2371.779023
_symmetry_space_group_name_H-M "I B C A "
_symmetry_group_IT_number 73
_symmetry_cell_setting 'orthorhombic'
loop_
_space_group_symop_operation_xyz
x,y,z
-x,1/2-y,z
x,-y,1/2-z
1/2-x,y,-z
-x,-y,-z
x,1/2+y,-z
-x,y,1/2+z
1/2+x,-y,z
1/2+x,1/2+y,1/2+z
1/2-x,-y,1/2+z
1/2+x,1/2-y,-z
-x,1/2+y,1/2-z
1/2-x,1/2-y,1/2-z
1/2+x,y,1/2-z
1/2-x,1/2+y,z
x,1/2-y,1/2+z
loop_
_atom_site_type_symbol
_atom_site_label
_atom_site_fract_x
_atom_site_fract_y
_atom_site_fract_z
Si Si1 0.868246 0.877338 0.397041
Si Si2 0.398060 0.868729 0.604019
Si Si3 0.211114 0.817683 0.947389
Si Si4 0.984096 0.120203 0.512083
O O1 0.880766 0.751410 0.348772
O O2 0.893279 0.927276 0.623685
O O3 0.825310 0.891777 0.475546
O O4 0.875450 0.930729 0.120686
O O5 0.440321 0.868392 0.524274
O O6 0.210057 0.725531 0.162694
O O7 0.250000 0.882484 0.000000
O O8 0.002312 0.178210 0.755598
O O9 0.000000 0.000000 0.500000
#
# Coordination Sequence:
#
# PCOD8295519 Si02
#       4
#    16  16  16  16
#     4  10  17  30  43  70 100 127 155 183 228 286
#     4  10  18  30  48  65  91 124 154 194 234 282
#     4  10  16  25  41  63  96 137 162 180 211 267
#     4  10  21  37  52  66  85 116 157 205 248 285
#
# _framework density 26.983961000000001
#
# number of rings (size 3 to 8) (size 9 to 14) (size 15 to 20)
#    0.000    2.000    5.000    1.500    0.000    0.000 
#    0.000   15.000    0.000    0.000    0.000    0.000 
#    0.000    0.000    0.000  153.000    0.000    0.000 
#
# Total GULP energy -396477.904877 kJ/mol
# GULP energy per Si atom -12389.934527 kJ/mol
# Density = 2.692254 g / cm^3
# Si number density = 26.983961 Si / 1000 Ang^3
#
#
#
# Elastic Constant Matrix: (Units=GPa)
#
#
# Indices 1 2 3 4 5 6 
#
# 1 252.1651 1.4665 70.1425 0.1334 0.0046 0.0024
# 2 1.4665 72.4344 9.5100 -0.0725 0.0016 0.0007
# 3 70.1425 9.5100 285.7990 0.5104 0.0000 0.0017
# 4 0.1334 -0.0725 0.5104 5299.8295 -0.1905 0.0101
# 5 0.0046 0.0016 0.0000 -0.1905 55.0343 0.0043
# 6 0.0024 0.0007 0.0017 0.0101 0.0043 20.6841
#
#
#
# Elastic Compliance Matrix: (Units=1/GPa)
#
#
# Indices 1 2 3 4 5 6 
#
# 1 0.004256 0.000051 -0.001046 0.000000 0.000000 0.000000
# 2 0.000051 0.013867 -0.000474 0.000000 0.000000 0.000000
# 3 -0.001046 -0.000474 0.003772 0.000000 0.000000 0.000000
# 4 0.000000 0.000000 0.000000 0.000189 0.000001 0.000000
# 5 0.000000 0.000000 0.000000 0.000001 0.018170 -0.000004
# 6 0.000000 0.000000 0.000000 0.000000 -0.000004 0.048346
#
#
# Mechanical properties :
#
#
# Convention : Reuss Voigt Hill
#
# Bulk Modulus (GPa) = 52.75237 85.84848 69.30043
# Shear Modulus (GPa) = 51.09477 1110.39488 580.74483
#
# Velocity S-wave (km/s) = 4.35618 20.30751 14.68624
# Velocity P-wave (km/s) = 6.70028 24.11937 17.70081
#
# Compressibility (1/GPa) = 0.01895650
#
# Stress axis : x y z
#
# Youngs Moduli (GPa) = 234.93993 72.11471 265.14414
#
# Poissons Ratio (x) = -0.00369 0.27743
# Poissons Ratio (y) = -0.01203 0.12567
# Poissons Ratio (z) = 0.24583 0.03418
#
# Static dielectric constant tensor:
#      x y z
#    x 5.167830 -0.000020 -0.000530 
#    y -0.000020 4.851170 0.000080 
#    z -0.000530 0.000080 4.464440 
# 
# 
# High freq. dielectric constant tensor:
#      x y z
#    x 2.078150 0.000000 0.000000 
#    y 0.000000 2.103370 0.000000 
#    z 0.000000 0.000000 2.142840 
# 
# From -- ./inp_files/2111.got.cif
#   From: 2010.03.12/outbox.cif.g09.slc.cpg/sg73_2_cif.got.tgz:2111.got - 2010.04.16 15:25:48.
