data_PCOD8295716
_publ_section_title
;
Structure prediction by ZEFSAII (Michael W. Deem and Ramdas Pophale) SiO2 
 PCOD8295716
Probable space group: I B C A 
;
_chemical_formula_sum "Si O2"
_cell_formula_units_Z 120
_cell_length_a 27.072459
_cell_length_b 10.523898
_cell_length_c 20.329315
_cell_angle_alpha 90.000000
_cell_angle_beta 90.000000
_cell_angle_gamma 90.000000
_cell_volume 5791.980354
_symmetry_space_group_name_H-M "I B C A "
_symmetry_group_IT_number 73
_symmetry_cell_setting 'orthorhombic'
loop_
_space_group_symop_operation_xyz
x,y,z
-x,1/2-y,z
x,-y,1/2-z
1/2-x,y,-z
-x,-y,-z
x,1/2+y,-z
-x,y,1/2+z
1/2+x,-y,z
1/2+x,1/2+y,1/2+z
1/2-x,-y,1/2+z
1/2+x,1/2-y,-z
-x,1/2+y,1/2-z
1/2-x,1/2-y,1/2-z
1/2+x,y,1/2-z
1/2-x,1/2+y,z
x,1/2-y,1/2+z
loop_
_atom_site_type_symbol
_atom_site_label
_atom_site_fract_x
_atom_site_fract_y
_atom_site_fract_z
Si Si1 0.295838 0.337355 0.085528
Si Si2 0.564001 0.957793 0.322609
Si Si3 0.476635 0.608934 0.634051
Si Si4 0.086379 0.500000 0.250000
Si Si5 0.686365 0.820744 0.562278
Si Si6 0.360492 0.932770 0.588896
Si Si7 0.897653 0.007521 0.451336
Si Si8 0.617142 0.795803 0.846968
O O1 0.237787 0.331825 0.102116
O O2 0.310487 0.485493 0.082807
O O3 0.328653 0.263859 0.139867
O O4 0.305143 0.278702 0.013307
O O5 0.575734 0.808245 0.327924
O O6 0.549402 0.000000 0.250000
O O7 0.518784 0.000357 0.369211
O O8 0.612686 0.034800 0.343301
O O9 0.500000 0.750000 0.633270
O O10 0.445938 0.586237 0.700912
O O11 0.441649 0.588587 0.570048
O O12 0.121087 0.402179 0.290215
O O13 0.652884 0.713332 0.594759
O O14 0.655999 0.950816 0.568704
O O15 0.398323 0.967420 0.529379
O O16 0.903258 0.140960 0.413798
#
# Coordination Sequence:
#
# PCOD8295716 Si02
#       8
#    16  16  16   8  16  16  16  16
#     4   9  20  33  60  91 121 163 200 249 305 373
#     4  11  23  41  66  86 122 167 213 248 298 367
#     4  11  22  39  62  90 119 165 212 251 303 375
#     4  10  22  34  64  84 122 166 208 262 304 358
#     4  10  19  34  61  91 126 158 200 250 308 373
#     4  10  21  38  61  90 126 159 197 256 311 358
#     4  10  22  37  60  95 126 155 199 261 316 352
#     4  10  21  40  60  93 126 158 211 257 305 363
#
# _framework density 20.718302999999999
#
# number of rings (size 3 to 8) (size 9 to 14) (size 15 to 20)
#    0.000    1.867    2.000    1.600    1.867    4.267 
#    0.000    0.000    1.467    4.800    0.000    0.000 
#    0.000    0.000    0.000    0.000    0.000    0.000 
#
# Total GULP energy -743872.125571 kJ/mol
# GULP energy per Si atom -12397.868760 kJ/mol
# Density = 2.067115 g / cm^3
# Si number density = 20.718303 Si / 1000 Ang^3
#
#
#
# Elastic Constant Matrix: (Units=GPa)
#
#
# Indices 1 2 3 4 5 6 
#
# 1 108.7909 35.9976 30.4018 0.0000 0.0000 0.0000
# 2 35.9976 99.8310 24.8301 0.0000 0.0000 0.0000
# 3 30.4018 24.8301 46.1560 0.0000 0.0000 0.0000
# 4 0.0000 0.0000 0.0000 28.1565 0.0000 0.0000
# 5 0.0000 0.0000 0.0000 0.0000 23.3512 0.0000
# 6 0.0000 0.0000 0.0000 0.0000 0.0000 22.8289
#
#
#
# Elastic Compliance Matrix: (Units=1/GPa)
#
#
# Indices 1 2 3 4 5 6 
#
# 1 0.011862 -0.002694 -0.006364 0.000000 0.000000 0.000000
# 2 -0.002694 0.012176 -0.004776 0.000000 0.000000 0.000000
# 3 -0.006364 -0.004776 0.028426 0.000000 0.000000 0.000000
# 4 0.000000 0.000000 0.000000 0.035516 0.000000 0.000000
# 5 0.000000 0.000000 0.000000 0.000000 0.042824 0.000000
# 6 0.000000 0.000000 0.000000 0.000000 0.000000 0.043804
#
#
# Mechanical properties :
#
#
# Convention : Reuss Voigt Hill
#
# Bulk Modulus (GPa) = 40.32724 48.58186 44.45455
# Shear Modulus (GPa) = 23.74828 25.77054 24.75941
#
# Velocity S-wave (km/s) = 3.38930 3.53066 3.46070
# Velocity P-wave (km/s) = 5.90112 6.33407 6.12142
#
# Compressibility (1/GPa) = 0.02479714
#
# Stress axis : x y z
#
# Youngs Moduli (GPa) = 84.30412 82.12673 35.17876
#
# Poissons Ratio (x) = 0.22129 0.22386
# Poissons Ratio (y) = 0.22715 0.16800
# Poissons Ratio (z) = 0.53647 0.39220
#
# Static dielectric constant tensor:
#      x y z
#    x 3.738770 0.000000 0.000000 
#    y 0.000000 3.744790 0.000000 
#    z 0.000000 0.000000 3.606730 
# 
# 
# High freq. dielectric constant tensor:
#      x y z
#    x 1.805260 0.000000 0.000000 
#    y 0.000000 1.818430 0.000000 
#    z 0.000000 0.000000 1.788580 
# 
# From -- ./inp_files/30190.got.cif
#   From: 2010.03.12/outbox.cif.g09.slc.cpg/sg73_16_cif.got.tgz:30190.got - 2010.04.16 15:25:48.
