data_PCOD8295237
_publ_section_title
;
Structure prediction by ZEFSAII (Michael W. Deem and Ramdas Pophale) SiO2 
 PCOD8295237
Probable space group: I B A M
;
_chemical_formula_sum "Si O2"
_cell_formula_units_Z 96
_cell_length_a 26.780100
_cell_length_b 25.207028
_cell_length_c 9.568325
_cell_angle_alpha 90.000000
_cell_angle_beta 90.000000
_cell_angle_gamma 90.000000
_cell_volume 6459.066508
_symmetry_space_group_name_H-M "I B A M"
_symmetry_group_IT_number 72
_symmetry_cell_setting 'orthorhombic'
loop_
_space_group_symop_operation_xyz
x,y,z
-x,-y,z
x,-y,1/2-z
-x,y,1/2-z
-x,-y,-z
x,y,-z
-x,y,1/2+z
x,-y,1/2+z
1/2+x,1/2+y,1/2+z
1/2-x,1/2-y,1/2+z
1/2+x,1/2-y,-z
1/2-x,1/2+y,-z
1/2-x,1/2-y,1/2-z
1/2+x,1/2+y,1/2-z
1/2-x,1/2+y,z
1/2+x,1/2-y,z
loop_
_atom_site_type_symbol
_atom_site_label
_atom_site_fract_x
_atom_site_fract_y
_atom_site_fract_z
Si Si1 0.241695 0.171203 0.843326
Si Si2 0.351628 0.618013 0.739666
Si Si3 0.900079 0.225743 0.837765
Si Si4 0.096284 0.072116 0.000000
Si Si5 0.500000 0.682798 0.250000
Si Si6 0.010427 0.896819 0.000000
Si Si7 0.383015 0.548285 0.500000
Si Si8 0.320183 0.220944 0.658999
O O1 0.205220 0.124269 0.791935
O O2 0.287703 0.175384 0.735483
O O3 0.210912 0.225314 0.846935
O O4 0.261333 0.158540 0.000000
O O5 0.370290 0.670331 0.660055
O O6 0.388415 0.607054 0.867795
O O7 0.353897 0.568330 0.636024
O O8 0.951702 0.220859 0.751308
O O9 0.869425 0.270286 0.752782
O O10 0.908030 0.242984 0.000000
O O11 0.121573 0.014872 0.000000
O O12 0.036653 0.063578 0.000000
O O13 0.492059 0.643347 0.375103
O O14 0.059728 0.932419 0.000000
O O15 0.333585 0.203137 0.500000
#
# Coordination Sequence:
#
# PCOD8295237 Si02
#       8
#    16  16  16   8   8   8   8  16
#     4   9  17  30  46  64  86 107 131 164 219 273
#     4  11  20  33  48  63  82 111 142 183 231 281
#     4  11  20  32  46  63  89 113 143 181 224 267
#     4  12  23  34  50  60  85 109 154 198 241 285
#     4  12  20  30  49  62  84 116 156 184 227 274
#     4  12  21  36  46  62  78 114 152 200 242 280
#     4  12  23  36  44  66  83 113 148 200 247 277
#     4   9  19  28  46  71  86 105 129 170 213 266
#
# _framework density 14.862830000000001
#
# number of rings (size 3 to 8) (size 9 to 14) (size 15 to 20)
#    0.000    1.333    5.833    1.250    3.500    2.000 
#    0.000    2.500    0.000    0.000    0.000    0.000 
#    0.000    0.000    0.000    0.000    0.000    0.000 
#
# Total GULP energy -595078.209042 kJ/mol
# GULP energy per Si atom -12397.462688 kJ/mol
# Density = 1.482900 g / cm^3
# Si number density = 14.862830 Si / 1000 Ang^3
#
#
#
# Elastic Constant Matrix: (Units=GPa)
#
#
# Indices 1 2 3 4 5 6 
#
# 1 62.2056 28.2299 18.5340 0.0000 0.0000 0.0000
# 2 28.2299 30.0964 14.5011 0.0000 0.0000 0.0000
# 3 18.5340 14.5011 84.5717 0.0000 0.0000 0.0000
# 4 0.0000 0.0000 0.0000 13.0759 0.0000 0.0000
# 5 0.0000 0.0000 0.0000 0.0000 -21.2945 0.0000
# 6 0.0000 0.0000 0.0000 0.0000 0.0000 20.3580
#
#
#
# Elastic Compliance Matrix: (Units=1/GPa)
#
#
# Indices 1 2 3 4 5 6 
#
# 1 0.028238 -0.025622 -0.001795 0.000000 0.000000 0.000000
# 2 -0.025622 0.059467 -0.004581 0.000000 0.000000 0.000000
# 3 -0.001795 -0.004581 0.013003 0.000000 0.000000 0.000000
# 4 0.000000 0.000000 0.000000 0.076477 0.000000 0.000000
# 5 0.000000 0.000000 0.000000 0.000000 -0.046961 0.000000
# 6 0.000000 0.000000 0.000000 0.000000 0.000000 0.049121
#
#
# Mechanical properties :
#
#
# Convention : Reuss Voigt Hill
#
# Bulk Modulus (GPa) = 27.23960 33.26706 30.25333
# Shear Modulus (GPa) = 19.56339 10.13514 14.84927
#
# Velocity S-wave (km/s) = 3.63197 2.61418 3.16426
# Velocity P-wave (km/s) = 5.99628 5.61633 5.80941
#
# Compressibility (1/GPa) = 0.03671126
#
# Stress axis : x y z
#
# Youngs Moduli (GPa) = 35.41292 16.81609 76.90385
#
# Poissons Ratio (x) = 0.43086 0.13806
# Poissons Ratio (y) = 0.90735 0.35233
# Poissons Ratio (z) = 0.06357 0.07704
#
# Static dielectric constant tensor:
#      x y z
#    x 3.035790 0.000000 0.000000 
#    y 0.000000 2.475090 0.000000 
#    z 0.000000 0.000000 3.190890 
# 
# 
# High freq. dielectric constant tensor:
#      x y z
#    x 1.554480 0.000000 0.000000 
#    y 0.000000 1.505430 0.000000 
#    z 0.000000 0.000000 1.595670 
# 
# From -- ./inp_files/8311.got.cif
#   From: 2010.03.12/outbox.cif.g09.slc.cpg/sg72_5_cif.got.tgz:8311.got - 2010.04.16 14:54:00.
