data_PCOD8295235
_publ_section_title
;
Structure prediction by ZEFSAII (Michael W. Deem and Ramdas Pophale) SiO2 
 PCOD8295235
Probable space group: I B A M
;
_chemical_formula_sum "Si O2"
_cell_formula_units_Z 80
_cell_length_a 10.256211
_cell_length_b 24.227725
_cell_length_c 20.206796
_cell_angle_alpha 90.000000
_cell_angle_beta 90.000000
_cell_angle_gamma 90.000000
_cell_volume 5021.078827
_symmetry_space_group_name_H-M "I B A M"
_symmetry_group_IT_number 72
_symmetry_cell_setting 'orthorhombic'
loop_
_space_group_symop_operation_xyz
x,y,z
-x,-y,z
x,-y,1/2-z
-x,y,1/2-z
-x,-y,-z
x,y,-z
-x,y,1/2+z
x,-y,1/2+z
1/2+x,1/2+y,1/2+z
1/2-x,1/2-y,1/2+z
1/2+x,1/2-y,-z
1/2-x,1/2+y,-z
1/2-x,1/2-y,1/2-z
1/2+x,1/2+y,1/2-z
1/2-x,1/2+y,z
1/2+x,1/2-y,z
loop_
_atom_site_type_symbol
_atom_site_label
_atom_site_fract_x
_atom_site_fract_y
_atom_site_fract_z
Si Si1 0.721581 0.561518 0.000000
Si Si2 0.849694 0.672578 0.000000
Si Si3 0.500000 0.297103 0.326674
Si Si4 0.250000 0.250000 0.109552
Si Si5 0.221581 0.938482 0.500000
Si Si6 0.849694 0.672578 0.500000
Si Si7 0.500000 0.391731 0.429499
O O1 0.630482 0.570180 0.065804
O O2 0.838049 0.606226 0.000000
O O3 0.781713 0.500000 0.000000
O O4 0.778303 0.696531 0.935321
O O5 0.000000 0.690583 0.000000
O O6 0.500000 0.311835 0.250000
O O7 0.626912 0.261658 0.344127
O O8 0.373088 0.261658 0.344127
O O9 0.500000 0.354991 0.364862
O O10 0.278303 0.196531 0.064679
O O11 0.338048 0.893774 0.500000
O O12 0.130482 0.929820 0.565804
O O13 0.500000 0.355811 0.500000
#
# Coordination Sequence:
#
# PCOD8295235 Si02
#       7
#     8   8  16  16   8   8  16
#     4   9  17  31  54  77 100 129 174 222 264 298
#     4  11  20  30  57  78 101 140 178 218 252 315
#     4  12  22  34  54  81 110 141 174 210 258 318
#     4  11  21  36  50  80 112 136 178 208 264 310
#     4   9  17  31  54  77 100 129 174 222 264 298
#     4  11  20  30  57  78 101 140 178 218 252 315
#     4   8  16  32  52  77  98 136 165 213 261 300
#
# _framework density 15.932831
#
# number of rings (size 3 to 8) (size 9 to 14) (size 15 to 20)
#    1.200    0.400    6.000    1.800    2.800    0.400 
#    0.000    0.000    0.000    2.400    0.000    0.000 
#    0.000    4.800    0.000    0.000    0.000    0.000 
#
# Total GULP energy -495603.667323 kJ/mol
# GULP energy per Si atom -12390.091683 kJ/mol
# Density = 1.589657 g / cm^3
# Si number density = 15.932831 Si / 1000 Ang^3
#
#
#
# Elastic Constant Matrix: (Units=GPa)
#
#
# Indices 1 2 3 4 5 6 
#
# 1 87.0549 23.3525 28.5521 0.0000 0.0000 0.0000
# 2 23.3525 109.2059 39.6601 0.0000 0.0000 0.0000
# 3 28.5521 39.6601 105.7700 0.0000 0.0000 0.0000
# 4 0.0000 0.0000 0.0000 10.1041 0.0000 0.0000
# 5 0.0000 0.0000 0.0000 0.0000 9.3925 0.0000
# 6 0.0000 0.0000 0.0000 0.0000 0.0000 22.6404
#
#
#
# Elastic Compliance Matrix: (Units=1/GPa)
#
#
# Indices 1 2 3 4 5 6 
#
# 1 0.012878 -0.001726 -0.002829 0.000000 0.000000 0.000000
# 2 -0.001726 0.010832 -0.003596 0.000000 0.000000 0.000000
# 3 -0.002829 -0.003596 0.011566 0.000000 0.000000 0.000000
# 4 0.000000 0.000000 0.000000 0.098969 0.000000 0.000000
# 5 0.000000 0.000000 0.000000 0.000000 0.106468 0.000000
# 6 0.000000 0.000000 0.000000 0.000000 0.000000 0.044169
#
#
# Mechanical properties :
#
#
# Convention : Reuss Voigt Hill
#
# Bulk Modulus (GPa) = 52.70275 53.90667 53.30471
# Shear Modulus (GPa) = 16.25969 22.45848 19.35908
#
# Velocity S-wave (km/s) = 3.19802 3.75850 3.48953
# Velocity P-wave (km/s) = 6.84005 7.26239 7.05438
#
# Compressibility (1/GPa) = 0.01897434
#
# Stress axis : x y z
#
# Youngs Moduli (GPa) = 77.65201 92.31912 86.45754
#
# Poissons Ratio (x) = 0.15938 0.24459
# Poissons Ratio (y) = 0.13406 0.31087
# Poissons Ratio (z) = 0.21968 0.33194
#
# Static dielectric constant tensor:
#      x y z
#    x 3.086430 0.000000 0.000000 
#    y 0.000000 2.736000 0.000000 
#    z 0.000000 0.000000 2.704810 
# 
# 
# High freq. dielectric constant tensor:
#      x y z
#    x 1.621930 0.000000 0.000000 
#    y 0.000000 1.594170 0.000000 
#    z 0.000000 0.000000 1.573860 
# 
# From -- ./inp_files/28243.got.cif
#   From: 2010.03.12/outbox.cif.g09.slc.cpg/sg72_15_cif.got.tgz:28243.got - 2010.04.16 14:54:00.
