data_PCOD8295432
_publ_section_title
;
Structure prediction by ZEFSAII (Michael W. Deem and Ramdas Pophale) SiO2 
 PCOD8295432
Probable space group: I B A M
;
_chemical_formula_sum "Si O2"
_cell_formula_units_Z 96
_cell_length_a 9.739096
_cell_length_b 22.029338
_cell_length_c 22.002163
_cell_angle_alpha 90.000000
_cell_angle_beta 90.000000
_cell_angle_gamma 90.000000
_cell_volume 4720.472490
_symmetry_space_group_name_H-M "I B A M"
_symmetry_group_IT_number 72
_symmetry_cell_setting 'orthorhombic'
loop_
_space_group_symop_operation_xyz
x,y,z
-x,-y,z
x,-y,1/2-z
-x,y,1/2-z
-x,-y,-z
x,y,-z
-x,y,1/2+z
x,-y,1/2+z
1/2+x,1/2+y,1/2+z
1/2-x,1/2-y,1/2+z
1/2+x,1/2-y,-z
1/2-x,1/2+y,-z
1/2-x,1/2-y,1/2-z
1/2+x,1/2+y,1/2-z
1/2-x,1/2+y,z
1/2+x,1/2-y,z
loop_
_atom_site_type_symbol
_atom_site_label
_atom_site_fract_x
_atom_site_fract_y
_atom_site_fract_z
Si Si1 0.837397 0.500850 0.680572
Si Si2 0.514231 0.332815 0.067770
Si Si3 0.231933 0.876060 0.139625
Si Si4 0.268429 0.872031 0.624772
Si Si5 0.661643 0.309315 0.242514
Si Si6 0.031479 0.691880 0.572215
O O1 0.780674 0.500000 0.750000
O O2 0.785306 0.444650 0.640422
O O3 0.783884 0.558942 0.644629
O O4 0.000000 0.500000 0.682174
O O5 0.418733 0.372820 0.111094
O O6 0.665308 0.363589 0.068080
O O7 0.518685 0.262557 0.088690
O O8 0.455307 0.336008 0.000000
O O9 0.222185 0.856495 0.209311
O O10 0.325850 0.832048 0.098999
O O11 0.190228 0.835043 0.676571
O O12 0.414221 0.844330 0.607586
O O13 0.500000 0.295831 0.250000
O O14 0.750000 0.250000 0.250000
O O15 0.025873 0.680152 0.500000
#
# Coordination Sequence:
#
# PCOD8295432 Si02
#       6
#    16  16  16  16  16  16
#     4  11  24  45  66  93 133 181 219 270 336 405
#     4  11  24  44  67  98 138 176 216 275 346 395
#     4  12  24  43  68 100 133 175 229 272 332 402
#     4  12  24  43  68 100 133 175 229 272 332 402
#     4  12  26  41  66 105 141 172 218 282 343 403
#     4  11  24  44  71 100 136 180 222 275 334 403
#
# _framework density 20.336946000000001
#
# number of rings (size 3 to 8) (size 9 to 14) (size 15 to 20)
#    0.000    0.500    5.000    4.000    2.333    3.333 
#    0.000    6.667    0.000    0.000    0.000    0.000 
#    0.000    0.000    0.000    0.000    0.000    0.000 
#
# Total GULP energy -595357.706350 kJ/mol
# GULP energy per Si atom -12403.285549 kJ/mol
# Density = 2.029066 g / cm^3
# Si number density = 20.336946 Si / 1000 Ang^3
#
#
#
# Elastic Constant Matrix: (Units=GPa)
#
#
# Indices 1 2 3 4 5 6 
#
# 1 93.7886 39.2409 22.2752 0.0000 0.0000 0.0000
# 2 39.2409 136.9780 40.0201 0.0000 0.0000 0.0000
# 3 22.2752 40.0201 80.8215 0.0000 0.0000 0.0000
# 4 0.0000 0.0000 0.0000 21.0894 0.0000 0.0000
# 5 0.0000 0.0000 0.0000 0.0000 33.8217 0.0000
# 6 0.0000 0.0000 0.0000 0.0000 0.0000 33.2712
#
#
#
# Elastic Compliance Matrix: (Units=1/GPa)
#
#
# Indices 1 2 3 4 5 6 
#
# 1 0.012368 -0.002978 -0.001934 0.000000 0.000000 0.000000
# 2 -0.002978 0.009252 -0.003761 0.000000 0.000000 0.000000
# 3 -0.001934 -0.003761 0.014768 0.000000 0.000000 0.000000
# 4 0.000000 0.000000 0.000000 0.047417 0.000000 0.000000
# 5 0.000000 0.000000 0.000000 0.000000 0.029567 0.000000
# 6 0.000000 0.000000 0.000000 0.000000 0.000000 0.030056
#
#
# Mechanical properties :
#
#
# Convention : Reuss Voigt Hill
#
# Bulk Modulus (GPa) = 52.51361 57.18449 54.84905
# Shear Modulus (GPa) = 29.91847 31.63994 30.77920
#
# Velocity S-wave (km/s) = 3.83970 3.94862 3.89454
# Velocity P-wave (km/s) = 6.74801 6.99774 6.87401
#
# Compressibility (1/GPa) = 0.01904268
#
# Stress axis : x y z
#
# Youngs Moduli (GPa) = 80.85654 108.08137 67.71335
#
# Poissons Ratio (x) = 0.32186 0.13096
# Poissons Ratio (y) = 0.24079 0.25465
# Poissons Ratio (z) = 0.15638 0.40646
#
# Static dielectric constant tensor:
#      x y z
#    x 3.744830 0.000000 0.000000 
#    y 0.000000 3.643150 0.000000 
#    z 0.000000 0.000000 3.803500 
# 
# 
# High freq. dielectric constant tensor:
#      x y z
#    x 1.808340 0.000000 0.000000 
#    y 0.000000 1.791800 0.000000 
#    z 0.000000 0.000000 1.806470 
# 
# From -- ./inp_files/37127.got.cif
#   From: 2010.03.12/outbox.cif.g09.slc.cpg/sg72_19_cif.got.tgz:37127.got - 2010.04.16 14:54:00.
