data_PCOD8295063
_publ_section_title
;
Structure prediction by ZEFSAII (Michael W. Deem and Ramdas Pophale) SiO2 
 PCOD8295063
Probable space group: I B A M
;
_chemical_formula_sum "Si O2"
_cell_formula_units_Z 112
_cell_length_a 11.613756
_cell_length_b 14.980354
_cell_length_c 27.528248
_cell_angle_alpha 90.000000
_cell_angle_beta 90.000000
_cell_angle_gamma 90.000000
_cell_volume 4789.314380
_symmetry_space_group_name_H-M "I B A M"
_symmetry_group_IT_number 72
_symmetry_cell_setting 'orthorhombic'
loop_
_space_group_symop_operation_xyz
x,y,z
-x,-y,z
x,-y,1/2-z
-x,y,1/2-z
-x,-y,-z
x,y,-z
-x,y,1/2+z
x,-y,1/2+z
1/2+x,1/2+y,1/2+z
1/2-x,1/2-y,1/2+z
1/2+x,1/2-y,-z
1/2-x,1/2+y,-z
1/2-x,1/2-y,1/2-z
1/2+x,1/2+y,1/2-z
1/2-x,1/2+y,z
1/2+x,1/2-y,z
loop_
_atom_site_type_symbol
_atom_site_label
_atom_site_fract_x
_atom_site_fract_y
_atom_site_fract_z
Si Si1 0.465758 0.321546 0.681034
Si Si2 0.423307 0.874467 0.204030
Si Si3 0.271204 0.679136 0.557954
Si Si4 0.705747 0.361208 0.096841
Si Si5 0.496133 0.406954 0.946470
Si Si6 0.831336 0.102754 0.232655
Si Si7 0.121651 0.525904 0.606331
O O1 0.481555 0.213801 0.680224
O O2 0.399421 0.360272 0.635051
O O3 0.585485 0.377491 0.686138
O O4 0.382146 0.335087 0.726170
O O5 0.500000 0.908261 0.250000
O O6 0.294479 0.859283 0.222826
O O7 0.409916 0.948031 0.161597
O O8 0.257034 0.695710 0.500000
O O9 0.264740 0.766726 0.591053
O O10 0.400072 0.657016 0.576281
O O11 0.179678 0.604958 0.575374
O O12 0.627875 0.372611 0.048502
O O13 0.796121 0.439209 0.107567
O O14 0.500000 0.500000 0.916997
O O15 0.445439 0.424952 0.000000
O O16 0.832820 0.000000 0.250000
O O17 0.000000 0.500000 0.580651
#
# Coordination Sequence:
#
# PCOD8295063 Si02
#       7
#    16  16  16  16  16  16  16
#     4  11  24  42  72 104 139 189 252 315 376 450
#     4  12  27  47  73 101 150 205 254 315 387 471
#     4  11  26  50  78 113 152 200 256 315 390 472
#     4  12  26  45  76 110 155 197 251 317 387 460
#     4  10  22  44  75 107 143 191 247 308 374 449
#     4  11  25  44  68 104 143 190 252 313 384 452
#     4  12  30  49  72 112 156 206 255 318 394 470
#
# _framework density 23.385393000000001
#
# number of rings (size 3 to 8) (size 9 to 14) (size 15 to 20)
#    0.000    0.714    4.286    2.571    8.000    2.000 
#    0.000    0.000    0.000    0.000    0.000    0.000 
#    0.000    0.000    0.000    0.000    0.000    0.000 
#
# Total GULP energy -693764.969764 kJ/mol
# GULP energy per Si atom -12388.660174 kJ/mol
# Density = 2.333217 g / cm^3
# Si number density = 23.385393 Si / 1000 Ang^3
#
#
#
# Elastic Constant Matrix: (Units=GPa)
#
#
# Indices 1 2 3 4 5 6 
#
# 1 173.9344 64.3607 31.4741 0.0000 0.0000 0.0000
# 2 64.3607 157.9422 32.8057 0.0000 0.0000 0.0000
# 3 31.4741 32.8057 71.3567 0.0000 0.0000 0.0000
# 4 0.0000 0.0000 0.0000 21.7703 0.0000 0.0000
# 5 0.0000 0.0000 0.0000 0.0000 21.6953 0.0000
# 6 0.0000 0.0000 0.0000 0.0000 0.0000 38.1689
#
#
#
# Elastic Compliance Matrix: (Units=1/GPa)
#
#
# Indices 1 2 3 4 5 6 
#
# 1 0.007011 -0.002449 -0.001967 0.000000 0.000000 0.000000
# 2 -0.002449 0.007855 -0.002531 0.000000 0.000000 0.000000
# 3 -0.001967 -0.002531 0.016045 0.000000 0.000000 0.000000
# 4 0.000000 0.000000 0.000000 0.045934 0.000000 0.000000
# 5 0.000000 0.000000 0.000000 0.000000 0.046093 0.000000
# 6 0.000000 0.000000 0.000000 0.000000 0.000000 0.026199
#
#
# Mechanical properties :
#
#
# Convention : Reuss Voigt Hill
#
# Bulk Modulus (GPa) = 58.76022 73.39047 66.07534
# Shear Modulus (GPa) = 29.63771 34.63308 32.13539
#
# Velocity S-wave (km/s) = 3.56386 3.85251 3.71100
# Velocity P-wave (km/s) = 6.48970 7.15823 6.83215
#
# Compressibility (1/GPa) = 0.01701832
#
# Stress axis : x y z
#
# Youngs Moduli (GPa) = 142.62851 127.30821 62.32334
#
# Poissons Ratio (x) = 0.31172 0.12258
# Poissons Ratio (y) = 0.34923 0.15776
# Poissons Ratio (z) = 0.28053 0.32225
#
# Static dielectric constant tensor:
#      x y z
#    x 4.517340 0.000000 0.000000 
#    y 0.000000 4.366170 0.000000 
#    z 0.000000 0.000000 4.788940 
# 
# 
# High freq. dielectric constant tensor:
#      x y z
#    x 1.942610 0.000000 0.000000 
#    y 0.000000 1.936550 0.000000 
#    z 0.000000 0.000000 1.922690 
# 
# From -- ./inp_files/51465.got.cif
#   From: 2010.03.12/outbox.cif.g09.slc.cpg/sg72_26_cif.got.tgz:51465.got - 2010.04.16 14:54:00.
