data_PCOD8295082
_publ_section_title
;
Structure prediction by ZEFSAII (Michael W. Deem and Ramdas Pophale) SiO2 
 PCOD8295082
Probable space group: I B A M
;
_chemical_formula_sum "Si O2"
_cell_formula_units_Z 72
_cell_length_a 21.547335
_cell_length_b 17.310755
_cell_length_c 10.186137
_cell_angle_alpha 90.000000
_cell_angle_beta 90.000000
_cell_angle_gamma 90.000000
_cell_volume 3799.435590
_symmetry_space_group_name_H-M "I B A M"
_symmetry_group_IT_number 72
_symmetry_cell_setting 'orthorhombic'
loop_
_space_group_symop_operation_xyz
x,y,z
-x,-y,z
x,-y,1/2-z
-x,y,1/2-z
-x,-y,-z
x,y,-z
-x,y,1/2+z
x,-y,1/2+z
1/2+x,1/2+y,1/2+z
1/2-x,1/2-y,1/2+z
1/2+x,1/2-y,-z
1/2-x,1/2+y,-z
1/2-x,1/2-y,1/2-z
1/2+x,1/2+y,1/2-z
1/2-x,1/2+y,z
1/2+x,1/2-y,z
loop_
_atom_site_type_symbol
_atom_site_label
_atom_site_fract_x
_atom_site_fract_y
_atom_site_fract_z
Si Si1 0.426880 0.213305 0.241121
Si Si2 0.793591 0.000000 0.750000
Si Si3 0.732354 0.255022 0.500000
Si Si4 0.791799 0.511845 0.000000
Si Si5 0.365550 0.867770 0.500000
Si Si6 0.145254 0.146510 0.352911
Si Si7 0.856029 0.675955 0.000000
O O1 0.500000 0.209644 0.250000
O O2 0.404358 0.157340 0.125950
O O3 0.407677 0.302298 0.216532
O O4 0.399128 0.179737 0.374291
O O5 0.749974 0.993031 0.875177
O O6 0.838874 0.926232 0.737958
O O7 0.703592 0.169448 0.500000
O O8 0.706872 0.300055 0.629998
O O9 0.806988 0.252422 0.500000
O O10 0.853885 0.459437 0.000000
O O11 0.813501 0.599881 0.000000
O O12 0.122632 0.120872 0.500000
#
# Coordination Sequence:
#
# PCOD8295082 Si02
#       7
#    16   8   8   8   8  16   8
#     4  11  24  43  64  86 122 172 222 256 290 355
#     4  12  20  38  61  96 137 156 186 252 332 388
#     4   8  18  38  54  93 119 153 193 261 296 373
#     4  12  24  38  59 100 138 155 196 254 323 383
#     4  10  23  38  66  84 126 168 198 253 326 354
#     4   9  20  40  63  91 129 159 197 258 314 371
#     4  12  23  38  62  97 127 157 217 254 307 368
#
# _framework density 18.950182000000002
#
# number of rings (size 3 to 8) (size 9 to 14) (size 15 to 20)
#    0.667    0.889    4.444    2.000    3.111    1.778 
#    0.000    3.889    0.000    1.333    0.000    0.000 
#    0.000    0.000    0.000    0.000    0.000    0.000 
#
# Total GULP energy -446306.996945 kJ/mol
# GULP energy per Si atom -12397.416582 kJ/mol
# Density = 1.890705 g / cm^3
# Si number density = 18.950182 Si / 1000 Ang^3
#
#
#
# Elastic Constant Matrix: (Units=GPa)
#
#
# Indices 1 2 3 4 5 6 
#
# 1 117.7744 34.9484 49.6899 0.0000 0.0000 0.0000
# 2 34.9484 73.9462 35.1617 0.0000 0.0000 0.0000
# 3 49.6899 35.1617 142.7735 0.0000 0.0000 0.0000
# 4 0.0000 0.0000 0.0000 -8.5600 0.0000 0.0000
# 5 0.0000 0.0000 0.0000 0.0000 37.2519 0.0000
# 6 0.0000 0.0000 0.0000 0.0000 0.0000 25.7820
#
#
#
# Elastic Compliance Matrix: (Units=1/GPa)
#
#
# Indices 1 2 3 4 5 6 
#
# 1 0.010801 -0.003757 -0.002834 0.000000 0.000000 0.000000
# 2 -0.003757 0.016624 -0.002786 0.000000 0.000000 0.000000
# 3 -0.002834 -0.002786 0.008677 0.000000 0.000000 0.000000
# 4 0.000000 0.000000 0.000000 -0.116822 0.000000 0.000000
# 5 0.000000 0.000000 0.000000 0.000000 0.026844 0.000000
# 6 0.000000 0.000000 0.000000 0.000000 0.000000 0.038787
#
#
# Mechanical properties :
#
#
# Convention : Reuss Voigt Hill
#
# Bulk Modulus (GPa) = 57.64789 63.78826 60.71807
# Shear Modulus (GPa) = 529.15395 25.20770 277.18082
#
# Velocity S-wave (km/s) = 16.72843 3.65116 12.10726
# Velocity P-wave (km/s) = 20.08998 7.17696 15.08503
#
# Compressibility (1/GPa) = 0.01734669
#
# Stress axis : x y z
#
# Youngs Moduli (GPa) = 92.58032 60.15350 115.25225
#
# Poissons Ratio (x) = 0.22602 0.32661
# Poissons Ratio (y) = 0.34787 0.32114
# Poissons Ratio (z) = 0.26236 0.16761
#
# Static dielectric constant tensor:
#      x y z
#    x 3.253830 0.000000 0.000000 
#    y 0.000000 3.465760 0.000000 
#    z 0.000000 0.000000 3.483350 
# 
# 
# High freq. dielectric constant tensor:
#      x y z
#    x 1.714820 0.000000 0.000000 
#    y 0.000000 1.730570 0.000000 
#    z 0.000000 0.000000 1.746380 
# 
# From -- ./inp_files/6744.got.cif
#   From: 2010.03.12/outbox.cif.g09.slc.cpg/sg72_4_cif.got.tgz:6744.got - 2010.04.16 14:54:00.
