data_PCOD8295582
_publ_section_title
;
Structure prediction by ZEFSAII (Michael W. Deem and Ramdas Pophale) SiO2 
 PCOD8295582
Probable space group: I B C A 
;
_chemical_formula_sum "Si O2"
_cell_formula_units_Z 120
_cell_length_a 25.070932
_cell_length_b 8.481628
_cell_length_c 29.011096
_cell_angle_alpha 90.000000
_cell_angle_beta 90.000000
_cell_angle_gamma 90.000000
_cell_volume 6168.986725
_symmetry_space_group_name_H-M "I B C A "
_symmetry_group_IT_number 73
_symmetry_cell_setting 'orthorhombic'
loop_
_space_group_symop_operation_xyz
x,y,z
-x,1/2-y,z
x,-y,1/2-z
1/2-x,y,-z
-x,-y,-z
x,1/2+y,-z
-x,y,1/2+z
1/2+x,-y,z
1/2+x,1/2+y,1/2+z
1/2-x,-y,1/2+z
1/2+x,1/2-y,-z
-x,1/2+y,1/2-z
1/2-x,1/2-y,1/2-z
1/2+x,y,1/2-z
1/2-x,1/2+y,z
x,1/2-y,1/2+z
loop_
_atom_site_type_symbol
_atom_site_label
_atom_site_fract_x
_atom_site_fract_y
_atom_site_fract_z
Si Si1 0.071937 0.613998 0.964749
Si Si2 0.303830 0.500000 0.250000
Si Si3 0.942378 0.686814 0.639809
Si Si4 0.865405 0.952574 0.608376
Si Si5 0.722174 0.203892 0.164811
Si Si6 0.860602 0.544987 0.698059
Si Si7 0.839200 0.288224 0.173776
Si Si8 0.546647 0.032216 0.943388
O O1 0.123914 0.525543 0.942556
O O2 0.073475 0.798135 0.951889
O O3 0.017301 0.535899 0.946703
O O4 0.072414 0.590172 0.019825
O O5 0.270633 0.416872 0.208473
O O6 0.338213 0.638989 0.225919
O O7 0.910126 0.823378 0.615056
O O8 0.914861 0.640926 0.688315
O O9 0.940906 0.534121 0.606996
O O10 0.000000 0.750000 0.652326
O O11 0.806539 0.880492 0.620561
O O12 0.875244 0.096235 0.643481
O O13 0.689059 0.356084 0.179699
O O14 0.780022 0.268169 0.151593
O O15 0.851283 0.500000 0.750000
O O16 0.866505 0.380590 0.671232
#
# Coordination Sequence:
#
# PCOD8295582 Si02
#       8
#    16   8  16  16  16  16  16  16
#     4  10  19  34  58  95 116 147 181 232 297 346
#     4  10  18  30  54  82 112 146 190 248 310 340
#     4  11  22  40  57  79 117 157 196 248 291 347
#     4  10  21  36  55  84 120 155 190 233 294 355
#     4  10  21  33  56  85 116 153 188 248 297 349
#     4  11  22  36  55  81 111 152 201 239 293 351
#     4  11  21  34  54  85 115 148 194 245 300 349
#     4  10  20  33  61  88 121 144 184 239 290 341
#
# _framework density 19.45214
#
# number of rings (size 3 to 8) (size 9 to 14) (size 15 to 20)
#    0.000    1.600    2.667    3.600    3.733    0.000 
#    0.000    1.333    0.000    0.000    0.000   31.733 
#    0.000    0.000    0.000    0.000    0.000    0.000 
#
# Total GULP energy -743521.710551 kJ/mol
# GULP energy per Si atom -12392.028509 kJ/mol
# Density = 1.940787 g / cm^3
# Si number density = 19.452140 Si / 1000 Ang^3
#
#
#
# Elastic Constant Matrix: (Units=GPa)
#
#
# Indices 1 2 3 4 5 6 
#
# 1 56.6641 18.6096 12.8595 0.0000 0.0000 0.0000
# 2 18.6096 104.5235 10.9848 0.0000 0.0000 0.0000
# 3 12.8595 10.9848 38.3415 0.0000 0.0000 0.0000
# 4 0.0000 0.0000 0.0000 37.8512 0.0000 0.0000
# 5 0.0000 0.0000 0.0000 0.0000 111.5669 0.0000
# 6 0.0000 0.0000 0.0000 0.0000 0.0000 13.4118
#
#
#
# Elastic Compliance Matrix: (Units=1/GPa)
#
#
# Indices 1 2 3 4 5 6 
#
# 1 0.019939 -0.002936 -0.005846 0.000000 0.000000 0.000000
# 2 -0.002936 0.010296 -0.001965 0.000000 0.000000 0.000000
# 3 -0.005846 -0.001965 0.028605 0.000000 0.000000 0.000000
# 4 0.000000 0.000000 0.000000 0.026419 0.000000 0.000000
# 5 0.000000 0.000000 0.000000 0.000000 0.008963 0.000000
# 6 0.000000 0.000000 0.000000 0.000000 0.000000 0.074561
#
#
# Mechanical properties :
#
#
# Convention : Reuss Voigt Hill
#
# Bulk Modulus (GPa) = 26.77657 31.60409 29.19033
# Shear Modulus (GPa) = 24.66368 43.03766 33.85067
#
# Velocity S-wave (km/s) = 3.56464 4.70881 4.17610
# Velocity P-wave (km/s) = 5.54414 6.77099 6.18804
#
# Compressibility (1/GPa) = 0.03734608
#
# Stress axis : x y z
#
# Youngs Moduli (GPa) = 50.15371 97.12118 34.95855
#
# Poissons Ratio (x) = 0.28510 0.20438
# Poissons Ratio (y) = 0.14723 0.06871
# Poissons Ratio (z) = 0.29321 0.19088
#
# Static dielectric constant tensor:
#      x y z
#    x 3.301780 0.000000 0.000000 
#    y 0.000000 4.069400 0.000000 
#    z 0.000000 0.000000 3.365480 
# 
# 
# High freq. dielectric constant tensor:
#      x y z
#    x 1.724530 0.000000 0.000000 
#    y 0.000000 1.792710 0.000000 
#    z 0.000000 0.000000 1.729480 
# 
# From -- ./inp_files/33002.got.cif
#   From: 2010.03.12/outbox.cif.g09.slc.cpg/sg73_17_cif.got.tgz:33002.got - 2010.04.16 15:25:48.
