data_PCOD8295572
_publ_section_title
;
Structure prediction by ZEFSAII (Michael W. Deem and Ramdas Pophale) SiO2 
 PCOD8295572
Probable space group: I B C A 
;
_chemical_formula_sum "Si O2"
_cell_formula_units_Z 96
_cell_length_a 8.861324
_cell_length_b 23.276630
_cell_length_c 23.346793
_cell_angle_alpha 90.000000
_cell_angle_beta 90.000000
_cell_angle_gamma 90.000000
_cell_volume 4815.550616
_symmetry_space_group_name_H-M "I B C A "
_symmetry_group_IT_number 73
_symmetry_cell_setting 'orthorhombic'
loop_
_space_group_symop_operation_xyz
x,y,z
-x,1/2-y,z
x,-y,1/2-z
1/2-x,y,-z
-x,-y,-z
x,1/2+y,-z
-x,y,1/2+z
1/2+x,-y,z
1/2+x,1/2+y,1/2+z
1/2-x,-y,1/2+z
1/2+x,1/2-y,-z
-x,1/2+y,1/2-z
1/2-x,1/2-y,1/2-z
1/2+x,y,1/2-z
1/2-x,1/2+y,z
x,1/2-y,1/2+z
loop_
_atom_site_type_symbol
_atom_site_label
_atom_site_fract_x
_atom_site_fract_y
_atom_site_fract_z
Si Si1 0.500000 0.750000 0.744607
Si Si2 0.862987 0.937418 0.805429
Si Si3 0.887073 0.000000 0.250000
Si Si4 0.383975 0.462444 0.429058
Si Si5 0.099713 0.916115 0.024263
Si Si6 0.820933 0.358031 0.941452
Si Si7 0.262432 0.684300 0.816207
O O1 0.419966 0.703403 0.786638
O O2 0.372599 0.773316 0.701417
O O3 0.725297 0.983185 0.801636
O O4 0.942001 0.946812 0.866150
O O5 0.788387 0.876679 0.791895
O O6 0.002338 0.946289 0.762165
O O7 0.512287 0.441481 0.470718
O O8 0.351448 0.530387 0.435168
O O9 0.232356 0.424775 0.437961
O O10 0.002695 0.865940 0.055281
O O11 0.250000 0.885760 0.000000
O O12 0.779553 0.319689 0.885833
O O13 0.750000 0.330058 0.000000
#
# Coordination Sequence:
#
# PCOD8295572 Si02
#       7
#     8  16   8  16  16  16  16
#     4  10  22  42  68  86 102 146 208 252 310 344
#     4  10  21  35  53  79 116 155 182 230 272 332
#     4  10  22  34  48  80 122 154 192 208 274 340
#     4   9  18  30  50  73 113 157 193 221 264 322
#     4  10  18  29  49  81 110 153 194 221 258 337
#     4   9  19  36  55  82 120 153 185 238 295 341
#     4  10  21  41  64  85 113 146 197 255 295 347
#
# _framework density 19.935414000000002
#
# number of rings (size 3 to 8) (size 9 to 14) (size 15 to 20)
#    0.000    2.333    0.000    3.500    7.000    0.000 
#    0.000   10.833    0.000    0.000    0.000    0.000 
#    0.000    0.000    0.000    0.000    0.000    0.000 
#
# Total GULP energy -594665.534332 kJ/mol
# GULP energy per Si atom -12388.865299 kJ/mol
# Density = 1.989004 g / cm^3
# Si number density = 19.935414 Si / 1000 Ang^3
#
#
#
# Elastic Constant Matrix: (Units=GPa)
#
#
# Indices 1 2 3 4 5 6 
#
# 1 99.4590 22.6736 34.7750 0.0000 0.0000 0.0000
# 2 22.6736 58.8061 34.9921 0.0000 0.0000 0.0000
# 3 34.7750 34.9921 114.0514 0.0000 0.0000 0.0000
# 4 0.0000 0.0000 0.0000 27.9515 0.0000 0.0000
# 5 0.0000 0.0000 0.0000 0.0000 21.7001 0.0000
# 6 0.0000 0.0000 0.0000 0.0000 0.0000 23.1874
#
#
#
# Elastic Compliance Matrix: (Units=1/GPa)
#
#
# Indices 1 2 3 4 5 6 
#
# 1 0.011647 -0.002909 -0.002659 0.000000 0.000000 0.000000
# 2 -0.002909 0.021529 -0.005719 0.000000 0.000000 0.000000
# 3 -0.002659 -0.005719 0.011333 0.000000 0.000000 0.000000
# 4 0.000000 0.000000 0.000000 0.035776 0.000000 0.000000
# 5 0.000000 0.000000 0.000000 0.000000 0.046083 0.000000
# 6 0.000000 0.000000 0.000000 0.000000 0.000000 0.043127
#
#
# Mechanical properties :
#
#
# Convention : Reuss Voigt Hill
#
# Bulk Modulus (GPa) = 45.58398 50.79979 48.19188
# Shear Modulus (GPa) = 25.07772 26.55951 25.81862
#
# Velocity S-wave (km/s) = 3.55060 3.65400 3.60267
# Velocity P-wave (km/s) = 6.30274 6.58329 6.44454
#
# Compressibility (1/GPa) = 0.02193753
#
# Stress axis : x y z
#
# Youngs Moduli (GPa) = 85.85813 46.44835 88.23632
#
# Poissons Ratio (x) = 0.13510 0.23461
# Poissons Ratio (y) = 0.24973 0.50458
# Poissons Ratio (z) = 0.22829 0.26562
#
# Static dielectric constant tensor:
#      x y z
#    x 3.785790 0.000000 0.000000 
#    y 0.000000 3.359020 0.000000 
#    z 0.000000 0.000000 3.812040 
# 
# 
# High freq. dielectric constant tensor:
#      x y z
#    x 1.791510 0.000000 0.000000 
#    y 0.000000 1.732700 0.000000 
#    z 0.000000 0.000000 1.779300 
# 
# From -- ./inp_files/7854.got.cif
#   From: 2010.03.12/outbox.cif.g09.slc.cpg/sg73_4_cif.got.tgz:7854.got - 2010.04.16 15:25:48.
