data_PCOD8295019
_publ_section_title
;
Structure prediction by ZEFSAII (Michael W. Deem and Ramdas Pophale) SiO2 
 PCOD8295019
Probable space group: I B A M
;
_chemical_formula_sum "Si O2"
_cell_formula_units_Z 112
_cell_length_a 21.639827
_cell_length_b 12.741129
_cell_length_c 20.351813
_cell_angle_alpha 90.000000
_cell_angle_beta 90.000000
_cell_angle_gamma 90.000000
_cell_volume 5611.316959
_symmetry_space_group_name_H-M "I B A M"
_symmetry_group_IT_number 72
_symmetry_cell_setting 'orthorhombic'
loop_
_space_group_symop_operation_xyz
x,y,z
-x,-y,z
x,-y,1/2-z
-x,y,1/2-z
-x,-y,-z
x,y,-z
-x,y,1/2+z
x,-y,1/2+z
1/2+x,1/2+y,1/2+z
1/2-x,1/2-y,1/2+z
1/2+x,1/2-y,-z
1/2-x,1/2+y,-z
1/2-x,1/2-y,1/2-z
1/2+x,1/2+y,1/2-z
1/2-x,1/2+y,z
1/2+x,1/2-y,z
loop_
_atom_site_type_symbol
_atom_site_label
_atom_site_fract_x
_atom_site_fract_y
_atom_site_fract_z
Si Si1 0.753405 0.916144 0.153847
Si Si2 0.069365 0.541845 0.076824
Si Si3 0.568638 0.460174 0.816350
Si Si4 0.643058 0.712020 0.274611
Si Si5 0.354742 0.946446 0.187961
Si Si6 0.349181 0.457701 0.926079
Si Si7 0.644783 0.233283 0.624025
O O1 0.798792 0.861168 0.206260
O O2 0.708152 0.831775 0.120046
O O3 0.712060 0.999806 0.191805
O O4 0.788930 0.980027 0.097532
O O5 0.112130 0.463997 0.118574
O O6 0.085768 0.661198 0.101206
O O7 0.000000 0.500000 0.089805
O O8 0.085804 0.532363 0.000000
O O9 0.500000 0.500000 0.810919
O O10 0.604712 0.500000 0.750000
O O11 0.581188 0.334744 0.810659
O O12 0.592652 0.507439 0.883478
O O13 0.655544 0.824385 0.304734
O O14 0.632612 0.720997 0.196789
O O15 0.391973 0.000000 0.250000
O O16 0.344282 0.331659 0.923537
O O17 0.362391 0.492206 0.000000
#
# Coordination Sequence:
#
# PCOD8295019 Si02
#       7
#    16  16  16  16  16  16  16
#     4  10  23  36  62  89 134 158 200 252 323 366
#     4  10  23  43  61  84 126 168 203 254 317 373
#     4  10  22  42  64  88 123 163 206 258 320 364
#     4  11  21  38  63  97 122 160 206 259 314 371
#     4  11  22  38  61  98 119 159 210 261 308 368
#     4  11  24  39  60  92 124 165 212 253 306 373
#     4  11  21  38  64  91 121 164 208 255 307 376
#
# _framework density 19.959662999999999
#
# number of rings (size 3 to 8) (size 9 to 14) (size 15 to 20)
#    0.000    1.429    4.286    1.714    2.000    4.571 
#    0.000    2.857    0.000    0.000    0.000    0.000 
#    0.000    0.000    0.000    0.000    0.000    0.000 
#
# Total GULP energy -693890.377569 kJ/mol
# GULP energy per Si atom -12390.899599 kJ/mol
# Density = 1.991423 g / cm^3
# Si number density = 19.959663 Si / 1000 Ang^3
#
#
#
# Elastic Constant Matrix: (Units=GPa)
#
#
# Indices 1 2 3 4 5 6 
#
# 1 113.3292 58.2550 58.9125 0.0000 0.0000 0.0000
# 2 58.2550 133.3886 54.2035 0.0000 0.0000 0.0000
# 3 58.9125 54.2035 158.2526 0.0000 0.0000 0.0000
# 4 0.0000 0.0000 0.0000 26.8290 0.0000 0.0000
# 5 0.0000 0.0000 0.0000 0.0000 13.8631 0.0000
# 6 0.0000 0.0000 0.0000 0.0000 0.0000 17.3985
#
#
#
# Elastic Compliance Matrix: (Units=1/GPa)
#
#
# Indices 1 2 3 4 5 6 
#
# 1 0.012695 -0.004210 -0.003284 0.000000 0.000000 0.000000
# 2 -0.004210 0.010105 -0.001894 0.000000 0.000000 0.000000
# 3 -0.003284 -0.001894 0.008190 0.000000 0.000000 0.000000
# 4 0.000000 0.000000 0.000000 0.037273 0.000000 0.000000
# 5 0.000000 0.000000 0.000000 0.000000 0.072134 0.000000
# 6 0.000000 0.000000 0.000000 0.000000 0.000000 0.057476
#
#
# Mechanical properties :
#
#
# Convention : Reuss Voigt Hill
#
# Bulk Modulus (GPa) = 81.86822 83.07916 82.47369
# Shear Modulus (GPa) = 22.65306 27.19141 24.92224
#
# Velocity S-wave (km/s) = 3.37254 3.69496 3.53743
# Velocity P-wave (km/s) = 7.50142 7.74064 7.62197
#
# Compressibility (1/GPa) = 0.01221475
#
# Stress axis : x y z
#
# Youngs Moduli (GPa) = 78.77122 98.96030 122.09639
#
# Poissons Ratio (x) = 0.41660 0.40097
# Poissons Ratio (y) = 0.33161 0.23124
# Poissons Ratio (z) = 0.25869 0.18742
#
# Static dielectric constant tensor:
#      x y z
#    x 3.763540 0.000000 0.000000 
#    y 0.000000 3.955150 0.000000 
#    z 0.000000 0.000000 3.740370 
# 
# 
# High freq. dielectric constant tensor:
#      x y z
#    x 1.764840 0.000000 0.000000 
#    y 0.000000 1.793460 0.000000 
#    z 0.000000 0.000000 1.781090 
# 
# From -- ./inp_files/40333.got.cif
#   From: 2010.03.12/outbox.cif.g09.slc.cpg/sg72_21_cif.got.tgz:40333.got - 2010.04.16 14:54:00.
