data_PCOD8295698
_publ_section_title
;
Structure prediction by ZEFSAII (Michael W. Deem and Ramdas Pophale) SiO2 
 PCOD8295698
Probable space group: I B C A 
;
_chemical_formula_sum "Si O2"
_cell_formula_units_Z 80
_cell_length_a 22.912686
_cell_length_b 13.662125
_cell_length_c 13.440052
_cell_angle_alpha 90.000000
_cell_angle_beta 90.000000
_cell_angle_gamma 90.000000
_cell_volume 4207.219852
_symmetry_space_group_name_H-M "I B C A "
_symmetry_group_IT_number 73
_symmetry_cell_setting 'orthorhombic'
loop_
_space_group_symop_operation_xyz
x,y,z
-x,1/2-y,z
x,-y,1/2-z
1/2-x,y,-z
-x,-y,-z
x,1/2+y,-z
-x,y,1/2+z
1/2+x,-y,z
1/2+x,1/2+y,1/2+z
1/2-x,-y,1/2+z
1/2+x,1/2-y,-z
-x,1/2+y,1/2-z
1/2-x,1/2-y,1/2-z
1/2+x,y,1/2-z
1/2-x,1/2+y,z
x,1/2-y,1/2+z
loop_
_atom_site_type_symbol
_atom_site_label
_atom_site_fract_x
_atom_site_fract_y
_atom_site_fract_z
Si Si1 0.330380 0.472753 0.860789
Si Si2 0.170525 0.272910 0.218681
Si Si3 0.744800 0.154687 0.611561
Si Si4 0.042647 0.337928 0.251731
Si Si5 0.955619 0.501577 0.908016
O O1 0.356162 0.500000 0.750000
O O2 0.306237 0.362347 0.852192
O O3 0.275787 0.541290 0.889676
O O4 0.386276 0.482592 0.935402
O O5 0.192545 0.171892 0.166717
O O6 0.197492 0.280404 0.329366
O O7 0.101999 0.280828 0.227193
O O8 0.750000 0.193522 0.500000
O O9 0.024091 0.409194 0.161981
O O10 0.041924 0.396680 0.354806
O O11 0.000000 0.250000 0.265447
O O12 0.000000 0.500000 0.000000
#
# Coordination Sequence:
#
# PCOD8295698 Si02
#       5
#    16  16  16  16  16
#     4   9  16  37  59  73 111 155 177 225 298 337
#     4   9  19  38  57  79 115 153 181 230 297 341
#     4  10  19  32  59  83 107 144 198 233 269 347
#     4  10  20  39  60  81 120 154 185 241 297 338
#     4  10  19  36  60  84 109 152 198 227 282 357
#
# _framework density 19.014932999999999
#
# number of rings (size 3 to 8) (size 9 to 14) (size 15 to 20)
#    0.000    2.400    6.000    0.000    0.000    3.200 
#    7.200    0.000   22.000    0.000    0.000    0.000 
#    0.000    0.000    0.000    0.000    0.000    0.000 
#
# Total GULP energy -495548.336458 kJ/mol
# GULP energy per Si atom -12388.708411 kJ/mol
# Density = 1.897165 g / cm^3
# Si number density = 19.014933 Si / 1000 Ang^3
#
#
#
# Elastic Constant Matrix: (Units=GPa)
#
#
# Indices 1 2 3 4 5 6 
#
# 1 105.6551 56.4629 52.1488 0.0000 0.0000 0.0000
# 2 56.4629 88.5596 25.6904 0.0000 0.0000 0.0000
# 3 52.1488 25.6904 97.3648 0.0000 0.0000 0.0000
# 4 0.0000 0.0000 0.0000 7.6424 0.0000 0.0000
# 5 0.0000 0.0000 0.0000 0.0000 32.3741 0.0000
# 6 0.0000 0.0000 0.0000 0.0000 0.0000 34.9999
#
#
#
# Elastic Compliance Matrix: (Units=1/GPa)
#
#
# Indices 1 2 3 4 5 6 
#
# 1 0.018042 -0.009421 -0.007178 0.000000 0.000000 0.000000
# 2 -0.009421 0.017147 0.000521 0.000000 0.000000 0.000000
# 3 -0.007178 0.000521 0.013977 0.000000 0.000000 0.000000
# 4 0.000000 0.000000 0.000000 0.130849 0.000000 0.000000
# 5 0.000000 0.000000 0.000000 0.000000 0.030889 0.000000
# 6 0.000000 0.000000 0.000000 0.000000 0.000000 0.028572
#
#
# Mechanical properties :
#
#
# Convention : Reuss Voigt Hill
#
# Bulk Modulus (GPa) = 58.78044 62.24263 60.51153
# Shear Modulus (GPa) = 18.03096 25.48844 21.75970
#
# Velocity S-wave (km/s) = 3.08271 3.66518 3.38649
# Velocity P-wave (km/s) = 6.60687 7.12152 6.86901
#
# Compressibility (1/GPa) = 0.01701246
#
# Stress axis : x y z
#
# Youngs Moduli (GPa) = 55.42617 58.31915 71.54418
#
# Poissons Ratio (x) = 0.54942 0.51351
# Poissons Ratio (y) = 0.52216 -0.03731
# Poissons Ratio (z) = 0.39783 -0.03041
#
# Static dielectric constant tensor:
#      x y z
#    x 3.449390 0.000000 0.000000 
#    y 0.000000 3.652490 0.000000 
#    z 0.000000 0.000000 3.297130 
# 
# 
# High freq. dielectric constant tensor:
#      x y z
#    x 1.735140 0.000000 0.000000 
#    y 0.000000 1.734080 0.000000 
#    z 0.000000 0.000000 1.714910 
# 
# From -- ./inp_files/13434.got.cif
#   From: 2010.03.12/outbox.cif.g09.slc.cpg/sg73_7_cif.got.tgz:13434.got - 2010.04.16 15:25:48.
