data_PCOD8295006
_publ_section_title
;
Structure prediction by ZEFSAII (Michael W. Deem and Ramdas Pophale) SiO2 
 PCOD8295006
Probable space group: I B A M
;
_chemical_formula_sum "Si O2"
_cell_formula_units_Z 64
_cell_length_a 18.682896
_cell_length_b 8.925792
_cell_length_c 16.418151
_cell_angle_alpha 90.000000
_cell_angle_beta 90.000000
_cell_angle_gamma 90.000000
_cell_volume 2737.885010
_symmetry_space_group_name_H-M "I B A M"
_symmetry_group_IT_number 72
_symmetry_cell_setting 'orthorhombic'
loop_
_space_group_symop_operation_xyz
x,y,z
-x,-y,z
x,-y,1/2-z
-x,y,1/2-z
-x,-y,-z
x,y,-z
-x,y,1/2+z
x,-y,1/2+z
1/2+x,1/2+y,1/2+z
1/2-x,1/2-y,1/2+z
1/2+x,1/2-y,-z
1/2-x,1/2+y,-z
1/2-x,1/2-y,1/2-z
1/2+x,1/2+y,1/2-z
1/2-x,1/2+y,z
1/2+x,1/2-y,z
loop_
_atom_site_type_symbol
_atom_site_label
_atom_site_fract_x
_atom_site_fract_y
_atom_site_fract_z
Si Si1 0.580069 0.349472 0.407449
Si Si2 0.801657 0.388545 0.092278
Si Si3 0.445010 0.348467 0.675150
Si Si4 0.699935 0.197783 0.175983
O O1 0.597769 0.395864 0.500000
O O2 0.631607 0.214681 0.380344
O O3 0.496380 0.299162 0.400440
O O4 0.592103 0.491299 0.346774
O O5 0.729152 0.289897 0.097855
O O6 0.795391 0.522002 0.157249
O O7 0.810696 0.447796 0.000000
O O8 0.500000 0.359173 0.750000
O O9 0.383305 0.230020 0.692849
O O10 0.750000 0.250000 0.250000
#
# Coordination Sequence:
#
# PCOD8295006 Si02
#       4
#    16  16  16  16
#     4  10  22  41  66  97 129 165 212 265 326 393
#     4  11  25  44  68  99 133 172 221 275 331 392
#     4  11  23  41  65  95 131 173 217 264 323 390
#     4  12  26  44  66  95 133 176 221 272 328 389
#
# _framework density 23.375709000000001
#
# number of rings (size 3 to 8) (size 9 to 14) (size 15 to 20)
#    0.000    1.000    0.000    7.500    0.000   13.000 
#    0.000    5.000    0.000    0.000    0.000    0.000 
#    0.000    0.000    0.000    0.000    0.000    0.000 
#
# Total GULP energy -396592.205157 kJ/mol
# GULP energy per Si atom -12393.506411 kJ/mol
# Density = 2.332251 g / cm^3
# Si number density = 23.375709 Si / 1000 Ang^3
#
#
#
# Elastic Constant Matrix: (Units=GPa)
#
#
# Indices 1 2 3 4 5 6 
#
# 1 129.8652 64.7418 25.6923 0.0000 0.0000 0.0000
# 2 64.7418 147.7894 52.4363 0.0000 0.0000 0.0000
# 3 25.6923 52.4363 96.4506 0.0000 0.0000 0.0000
# 4 0.0000 0.0000 0.0000 37.2164 0.0000 0.0000
# 5 0.0000 0.0000 0.0000 0.0000 33.7484 0.0000
# 6 0.0000 0.0000 0.0000 0.0000 0.0000 52.6527
#
#
#
# Elastic Compliance Matrix: (Units=1/GPa)
#
#
# Indices 1 2 3 4 5 6 
#
# 1 0.009861 -0.004197 -0.000345 0.000000 0.000000 0.000000
# 2 -0.004197 0.010170 -0.004411 0.000000 0.000000 0.000000
# 3 -0.000345 -0.004411 0.012858 0.000000 0.000000 0.000000
# 4 0.000000 0.000000 0.000000 0.026870 0.000000 0.000000
# 5 0.000000 0.000000 0.000000 0.000000 0.029631 0.000000
# 6 0.000000 0.000000 0.000000 0.000000 0.000000 0.018992
#
#
# Mechanical properties :
#
#
# Convention : Reuss Voigt Hill
#
# Bulk Modulus (GPa) = 66.74375 73.31621 70.02998
# Shear Modulus (GPa) = 38.08558 40.13915 39.11236
#
# Velocity S-wave (km/s) = 4.04081 4.14832 4.09492
# Velocity P-wave (km/s) = 7.09827 7.37409 7.23749
#
# Compressibility (1/GPa) = 0.01498268
#
# Stress axis : x y z
#
# Youngs Moduli (GPa) = 101.40875 98.32633 77.77304
#
# Poissons Ratio (x) = 0.41272 0.02681
# Poissons Ratio (y) = 0.42566 0.34306
# Poissons Ratio (z) = 0.03496 0.43372
#
# Static dielectric constant tensor:
#      x y z
#    x 4.858690 0.000000 0.000000 
#    y 0.000000 4.055670 0.000000 
#    z 0.000000 0.000000 4.715640 
# 
# 
# High freq. dielectric constant tensor:
#      x y z
#    x 1.932170 0.000000 0.000000 
#    y 0.000000 1.908310 0.000000 
#    z 0.000000 0.000000 1.941710 
# 
# From -- ./inp_files/32197.got.cif
#   From: 2010.03.12/outbox.cif.g09.slc.cpg/sg72_17_cif.got.tgz:32197.got - 2010.04.16 14:54:00.
