data_PCOD8295922
_publ_section_title
;
Structure prediction by ZEFSAII (Michael W. Deem and Ramdas Pophale) SiO2 
 PCOD8295922
Probable space group: I B C A 
;
_chemical_formula_sum "Si O2"
_cell_formula_units_Z 120
_cell_length_a 23.206693
_cell_length_b 9.526858
_cell_length_c 27.701121
_cell_angle_alpha 90.000000
_cell_angle_beta 90.000000
_cell_angle_gamma 90.000000
_cell_volume 6124.354106
_symmetry_space_group_name_H-M "I B C A "
_symmetry_group_IT_number 73
_symmetry_cell_setting 'orthorhombic'
loop_
_space_group_symop_operation_xyz
x,y,z
-x,1/2-y,z
x,-y,1/2-z
1/2-x,y,-z
-x,-y,-z
x,1/2+y,-z
-x,y,1/2+z
1/2+x,-y,z
1/2+x,1/2+y,1/2+z
1/2-x,-y,1/2+z
1/2+x,1/2-y,-z
-x,1/2+y,1/2-z
1/2-x,1/2-y,1/2-z
1/2+x,y,1/2-z
1/2-x,1/2+y,z
x,1/2-y,1/2+z
loop_
_atom_site_type_symbol
_atom_site_label
_atom_site_fract_x
_atom_site_fract_y
_atom_site_fract_z
Si Si1 0.178160 0.084684 0.117652
Si Si2 0.522930 0.590560 0.294056
Si Si3 0.776898 0.279419 0.398391
Si Si4 0.935173 0.723038 0.037028
Si Si5 0.135465 0.960149 0.487214
Si Si6 0.250000 0.114639 0.500000
Si Si7 0.893687 0.715006 0.637186
Si Si8 0.399241 0.982215 0.804980
O O1 0.221536 0.212713 0.127106
O O2 0.212501 0.937292 0.119848
O O3 0.147166 0.100084 0.066158
O O4 0.131685 0.095706 0.160585
O O5 0.500000 0.750000 0.281305
O O6 0.550004 0.500000 0.250000
O O7 0.571156 0.589720 0.336607
O O8 0.467973 0.499273 0.310971
O O9 0.765963 0.282777 0.455887
O O10 0.831654 0.177908 0.386288
O O11 0.913687 0.577905 0.015196
O O12 0.933780 0.718079 0.095360
O O13 0.000000 0.750000 0.018679
O O14 0.890386 0.841186 0.020744
O O15 0.194469 0.017592 0.511315
O O16 0.880820 0.827471 0.678799
O O17 0.378873 0.000000 0.750000
#
# Coordination Sequence:
#
# PCOD8295922 Si02
#       8
#    16  16  16  16  16   8  16  16
#     4  10  21  37  56  86 117 149 200 248 298 356
#     4   9  18  35  64  87 112 149 201 246 301 360
#     4  10  21  35  57  84 120 150 198 249 295 352
#     4  12  23  40  60  87 126 163 199 242 304 369
#     4  11  24  37  62  87 121 161 204 249 296 359
#     4  10  20  38  62  88 114 156 214 250 288 348
#     4  10  20  37  61  88 116 158 199 242 302 362
#     4   9  17  36  62  84 108 154 201 239 296 363
#
# _framework density 19.593903000000001
#
# number of rings (size 3 to 8) (size 9 to 14) (size 15 to 20)
#    0.000    1.867    4.000    2.400    3.733    1.067 
#    0.000    7.333    0.000    0.000    0.000    0.000 
#    0.000    0.000    0.000    0.000    0.000    0.000 
#
# Total GULP energy -743598.180917 kJ/mol
# GULP energy per Si atom -12393.303015 kJ/mol
# Density = 1.954931 g / cm^3
# Si number density = 19.593903 Si / 1000 Ang^3
#
#
#
# Elastic Constant Matrix: (Units=GPa)
#
#
# Indices 1 2 3 4 5 6 
#
# 1 111.3933 20.0888 50.9114 0.0000 0.0000 0.0000
# 2 20.0888 48.9001 29.6070 0.0000 0.0000 0.0000
# 3 50.9114 29.6070 115.7262 0.0000 0.0000 0.0000
# 4 0.0000 0.0000 0.0000 17.9680 0.0000 0.0000
# 5 0.0000 0.0000 0.0000 0.0000 30.9669 0.0000
# 6 0.0000 0.0000 0.0000 0.0000 0.0000 34.9783
#
#
#
# Elastic Compliance Matrix: (Units=1/GPa)
#
#
# Indices 1 2 3 4 5 6 
#
# 1 0.011391 -0.001947 -0.004513 0.000000 0.000000 0.000000
# 2 -0.001947 0.024531 -0.005419 0.000000 0.000000 0.000000
# 3 -0.004513 -0.005419 0.012013 0.000000 0.000000 0.000000
# 4 0.000000 0.000000 0.000000 0.055655 0.000000 0.000000
# 5 0.000000 0.000000 0.000000 0.000000 0.032293 0.000000
# 6 0.000000 0.000000 0.000000 0.000000 0.000000 0.028589
#
#
# Mechanical properties :
#
#
# Convention : Reuss Voigt Hill
#
# Bulk Modulus (GPa) = 41.36352 53.02600 47.19476
# Shear Modulus (GPa) = 25.47266 28.47680 26.97473
#
# Velocity S-wave (km/s) = 3.60950 3.81642 3.71440
# Velocity P-wave (km/s) = 6.20706 6.82212 6.52184
#
# Compressibility (1/GPa) = 0.02417589
#
# Stress axis : x y z
#
# Youngs Moduli (GPa) = 87.78843 40.76490 83.24316
#
# Poissons Ratio (x) = 0.07937 0.37569
# Poissons Ratio (y) = 0.17093 0.45112
# Poissons Ratio (z) = 0.39620 0.22092
#
# Static dielectric constant tensor:
#      x y z
#    x 3.873610 0.000000 0.000000 
#    y 0.000000 3.362770 0.000000 
#    z 0.000000 0.000000 3.671400 
# 
# 
# High freq. dielectric constant tensor:
#      x y z
#    x 1.771020 0.000000 0.000000 
#    y 0.000000 1.738000 0.000000 
#    z 0.000000 0.000000 1.753200 
# 
# From -- ./inp_files/32782.got.cif
#   From: 2010.03.12/outbox.cif.g09.slc.cpg/sg73_17_cif.got.tgz:32782.got - 2010.04.16 15:25:48.
