data_PCOD8295224
_publ_section_title
;
Structure prediction by ZEFSAII (Michael W. Deem and Ramdas Pophale) SiO2 
 PCOD8295224
Probable space group: I B A M
;
_chemical_formula_sum "Si O2"
_cell_formula_units_Z 72
_cell_length_a 17.041538
_cell_length_b 13.631655
_cell_length_c 14.350886
_cell_angle_alpha 90.000000
_cell_angle_beta 90.000000
_cell_angle_gamma 90.000000
_cell_volume 3333.773484
_symmetry_space_group_name_H-M "I B A M"
_symmetry_group_IT_number 72
_symmetry_cell_setting 'orthorhombic'
loop_
_space_group_symop_operation_xyz
x,y,z
-x,-y,z
x,-y,1/2-z
-x,y,1/2-z
-x,-y,-z
x,y,-z
-x,y,1/2+z
x,-y,1/2+z
1/2+x,1/2+y,1/2+z
1/2-x,1/2-y,1/2+z
1/2+x,1/2-y,-z
1/2-x,1/2+y,-z
1/2-x,1/2-y,1/2-z
1/2+x,1/2+y,1/2-z
1/2-x,1/2+y,z
1/2+x,1/2-y,z
loop_
_atom_site_type_symbol
_atom_site_label
_atom_site_fract_x
_atom_site_fract_y
_atom_site_fract_z
Si Si1 0.376038 0.968930 0.150754
Si Si2 0.878659 0.157582 0.500000
Si Si3 0.512174 0.647639 0.854134
Si Si4 0.622560 0.439859 0.500000
Si Si5 0.215578 0.645958 0.500000
Si Si6 0.476296 0.142695 0.894650
O O1 0.452114 0.899737 0.167142
O O2 0.339437 0.000000 0.250000
O O3 0.403668 0.067938 0.099009
O O4 0.311614 0.911244 0.092152
O O5 0.811630 0.240817 0.500000
O O6 0.929912 0.165896 0.406311
O O7 0.839814 0.048696 0.500000
O O8 0.500000 0.606990 0.750000
O O9 0.553654 0.754803 0.851510
O O10 0.567257 0.571313 0.908974
O O11 0.689949 0.357268 0.500000
O O12 0.509373 0.159038 0.000000
#
# Coordination Sequence:
#
# PCOD8295224 Si02
#       6
#    16   8  16   8   8  16
#     4  11  20  34  60  96 134 173 213 265 323 385
#     4  11  24  46  68  89 129 178 213 267 325 380
#     4  11  21  42  72  97 125 168 228 271 306 375
#     4  11  28  45  67  97 127 171 218 265 328 389
#     4  12  24  46  62  94 141 172 205 266 341 389
#     4  11  17  33  64  98 132 170 221 269 319 370
#
# _framework density 21.597147
#
# number of rings (size 3 to 8) (size 9 to 14) (size 15 to 20)
#    0.000    0.889    6.667    4.667    0.000    3.556 
#    4.000    1.111    0.000    0.000    0.000    0.000 
#    0.000    0.000    0.000    0.000    0.000    0.000 
#
# Total GULP energy -446447.171649 kJ/mol
# GULP energy per Si atom -12401.310324 kJ/mol
# Density = 2.154799 g / cm^3
# Si number density = 21.597147 Si / 1000 Ang^3
#
#
#
# Elastic Constant Matrix: (Units=GPa)
#
#
# Indices 1 2 3 4 5 6 
#
# 1 80.7569 27.2398 38.7892 0.0000 0.0000 0.0000
# 2 27.2398 137.4442 33.4867 0.0000 0.0000 0.0000
# 3 38.7892 33.4867 161.2768 0.0000 0.0000 0.0000
# 4 0.0000 0.0000 0.0000 19.6594 0.0000 0.0000
# 5 0.0000 0.0000 0.0000 0.0000 8.2734 0.0000
# 6 0.0000 0.0000 0.0000 0.0000 0.0000 26.9254
#
#
#
# Elastic Compliance Matrix: (Units=1/GPa)
#
#
# Indices 1 2 3 4 5 6 
#
# 1 0.014576 -0.002143 -0.003061 0.000000 0.000000 0.000000
# 2 -0.002143 0.007978 -0.001141 0.000000 0.000000 0.000000
# 3 -0.003061 -0.001141 0.007174 0.000000 0.000000 0.000000
# 4 0.000000 0.000000 0.000000 0.050866 0.000000 0.000000
# 5 0.000000 0.000000 0.000000 0.000000 0.120869 0.000000
# 6 0.000000 0.000000 0.000000 0.000000 0.000000 0.037140
#
#
# Mechanical properties :
#
#
# Convention : Reuss Voigt Hill
#
# Bulk Modulus (GPa) = 58.69227 64.27881 61.48554
# Shear Modulus (GPa) = 19.45739 29.63578 24.54659
#
# Velocity S-wave (km/s) = 3.00480 3.70835 3.37496
# Velocity P-wave (km/s) = 6.26684 6.93996 6.61197
#
# Compressibility (1/GPa) = 0.01703802
#
# Stress axis : x y z
#
# Youngs Moduli (GPa) = 68.60668 125.33776 139.39986
#
# Poissons Ratio (x) = 0.26861 0.42666
# Poissons Ratio (y) = 0.14703 0.15908
# Poissons Ratio (z) = 0.20999 0.14303
#
# Static dielectric constant tensor:
#      x y z
#    x 3.333380 0.000000 0.000000 
#    y 0.000000 4.153240 0.000000 
#    z 0.000000 0.000000 3.888570 
# 
# 
# High freq. dielectric constant tensor:
#      x y z
#    x 1.789680 0.000000 0.000000 
#    y 0.000000 1.870160 0.000000 
#    z 0.000000 0.000000 1.850600 
# 
# From -- ./inp_files/23021.got.cif
#   From: 2010.03.12/outbox.cif.g09.slc.cpg/sg72_12_cif.got.tgz:23021.got - 2010.04.16 14:54:00.
