data_PCOD8295331
_publ_section_title
;
Structure prediction by ZEFSAII (Michael W. Deem and Ramdas Pophale) SiO2 
 PCOD8295331
Probable space group: I B A M
;
_chemical_formula_sum "Si O2"
_cell_formula_units_Z 112
_cell_length_a 14.514754
_cell_length_b 14.516168
_cell_length_c 25.103158
_cell_angle_alpha 90.000000
_cell_angle_beta 90.000000
_cell_angle_gamma 90.000000
_cell_volume 5289.200436
_symmetry_space_group_name_H-M "I B A M"
_symmetry_group_IT_number 72
_symmetry_cell_setting 'orthorhombic'
loop_
_space_group_symop_operation_xyz
x,y,z
-x,-y,z
x,-y,1/2-z
-x,y,1/2-z
-x,-y,-z
x,y,-z
-x,y,1/2+z
x,-y,1/2+z
1/2+x,1/2+y,1/2+z
1/2-x,1/2-y,1/2+z
1/2+x,1/2-y,-z
1/2-x,1/2+y,-z
1/2-x,1/2-y,1/2-z
1/2+x,1/2+y,1/2-z
1/2-x,1/2+y,z
1/2+x,1/2-y,z
loop_
_atom_site_type_symbol
_atom_site_label
_atom_site_fract_x
_atom_site_fract_y
_atom_site_fract_z
Si Si1 0.641618 0.789905 0.439296
Si Si2 0.290226 0.858616 0.439302
Si Si3 0.255677 0.102336 0.273863
Si Si4 0.954368 0.738410 0.606620
Si Si5 0.397671 0.755720 0.273884
Si Si6 0.738324 0.954256 0.606623
Si Si7 0.075394 0.075282 0.558575
O O1 0.608798 0.773074 0.500000
O O2 0.705235 0.704954 0.419883
O O3 0.555345 0.805372 0.399808
O O4 0.698574 0.883968 0.436834
O O5 0.273385 0.891435 0.500000
O O6 0.384279 0.801630 0.436856
O O7 0.305761 0.944912 0.399840
O O8 0.344266 0.155695 0.249973
O O9 0.163002 0.163036 0.264314
O O10 0.276891 0.089772 0.335863
O O11 0.242276 0.000000 0.250000
O O12 0.910292 0.723087 0.664117
O O13 0.969463 0.844720 0.593414
O O14 0.500000 0.742358 0.250000
O O15 0.844598 0.969697 0.593373
O O16 0.109222 0.109130 0.500000
O O17 0.000000 0.000000 0.549499
#
# Coordination Sequence:
#
# PCOD8295331 Si02
#       7
#    16  16  16  16  16  16  16
#     4  11  23  40  65  97 136 177 219 269 334 407
#     4  11  23  40  65  97 136 177 219 269 334 407
#     4  11  25  46  69  97 133 174 230 289 342 401
#     4  12  23  42  66  95 132 177 222 274 337 399
#     4  11  25  46  69  97 133 174 230 289 342 401
#     4  12  23  42  66  95 132 177 222 274 337 399
#     4  11  22  38  63  96 134 171 218 267 325 405
#
# _framework density 21.175222000000002
#
# number of rings (size 3 to 8) (size 9 to 14) (size 15 to 20)
#    0.000    0.714    2.857    5.143    0.000    8.000 
#    0.000    4.286    0.000    0.000    0.000    0.000 
#    0.000    0.000    0.000    0.000    0.000    0.000 
#
# Total GULP energy -694406.407660 kJ/mol
# GULP energy per Si atom -12400.114423 kJ/mol
# Density = 2.112703 g / cm^3
# Si number density = 21.175222 Si / 1000 Ang^3
#
#
#
# Elastic Constant Matrix: (Units=GPa)
#
#
# Indices 1 2 3 4 5 6 
#
# 1 87.0393 104.2010 47.8094 0.0000 0.0000 0.0000
# 2 104.2010 90.6977 48.0926 0.0000 0.0000 0.0000
# 3 47.8094 48.0926 107.7302 0.0000 0.0000 0.0000
# 4 0.0000 0.0000 0.0000 40.5682 0.0000 0.0000
# 5 0.0000 0.0000 0.0000 0.0000 40.6110 0.0000
# 6 0.0000 0.0000 0.0000 0.0000 0.0000 28.1212
#
#
#
# Elastic Compliance Matrix: (Units=1/GPa)
#
#
# Indices 1 2 3 4 5 6 
#
# 1 -0.029986 0.035889 -0.002714 0.000000 0.000000 0.000000
# 2 0.035889 -0.028510 -0.003200 0.000000 0.000000 0.000000
# 3 -0.002714 -0.003200 0.011915 0.000000 0.000000 0.000000
# 4 0.000000 0.000000 0.000000 0.024650 0.000000 0.000000
# 5 0.000000 0.000000 0.000000 0.000000 0.024624 0.000000
# 6 0.000000 0.000000 0.000000 0.000000 0.000000 0.035560
#
#
# Mechanical properties :
#
#
# Convention : Reuss Voigt Hill
#
# Bulk Modulus (GPa) = 74.79463 76.18591 75.49027
# Shear Modulus (GPa) = -290.01827 27.55104 -131.23362
#
# Velocity S-wave (km/s) = -11.71574 3.61099 -7.88097
# Velocity P-wave (km/s) = 12.14960 7.31044 6.86186
#
# Compressibility (1/GPa) = 0.01336994
#
# Stress axis : x y z
#
# Youngs Moduli (GPa) = -33.34924 -35.07505 83.92463
#
# Poissons Ratio (x) = 1.25882 0.22780
# Poissons Ratio (y) = 1.19688 0.26854
# Poissons Ratio (z) = -0.09052 -0.11223
#
# Static dielectric constant tensor:
#      x y z
#    x 3.849350 0.000000 0.000000 
#    y 0.000000 3.848680 0.000000 
#    z 0.000000 0.000000 4.008540 
# 
# 
# High freq. dielectric constant tensor:
#      x y z
#    x 1.836390 0.000000 0.000000 
#    y 0.000000 1.836420 0.000000 
#    z 0.000000 0.000000 1.832700 
# 
# From -- ./inp_files/44338.got.cif
#   From: 2010.03.12/outbox.cif.g09.slc.cpg/sg72_23_cif.got.tgz:44338.got - 2010.04.16 14:54:00.
