data_PCOD8295194
_publ_section_title
;
Structure prediction by ZEFSAII (Michael W. Deem and Ramdas Pophale) SiO2 
 PCOD8295194
Probable space group: I B A M
;
_chemical_formula_sum "Si O2"
_cell_formula_units_Z 104
_cell_length_a 12.781863
_cell_length_b 15.716330
_cell_length_c 24.451726
_cell_angle_alpha 90.000000
_cell_angle_beta 90.000000
_cell_angle_gamma 90.000000
_cell_volume 4911.959962
_symmetry_space_group_name_H-M "I B A M"
_symmetry_group_IT_number 72
_symmetry_cell_setting 'orthorhombic'
loop_
_space_group_symop_operation_xyz
x,y,z
-x,-y,z
x,-y,1/2-z
-x,y,1/2-z
-x,-y,-z
x,y,-z
-x,y,1/2+z
x,-y,1/2+z
1/2+x,1/2+y,1/2+z
1/2-x,1/2-y,1/2+z
1/2+x,1/2-y,-z
1/2-x,1/2+y,-z
1/2-x,1/2-y,1/2-z
1/2+x,1/2+y,1/2-z
1/2-x,1/2+y,z
1/2+x,1/2-y,z
loop_
_atom_site_type_symbol
_atom_site_label
_atom_site_fract_x
_atom_site_fract_y
_atom_site_fract_z
Si Si1 0.791327 0.713145 0.691872
Si Si2 0.632771 0.356526 0.105603
Si Si3 0.372825 0.902300 0.000000
Si Si4 0.095637 0.827700 0.106006
Si Si5 0.575921 0.788677 0.000000
Si Si6 0.302126 0.724213 0.000000
Si Si7 0.616877 0.968402 0.807593
Si Si8 0.754106 0.524051 0.906609
O O1 0.750000 0.750000 0.750000
O O2 0.690479 0.684892 0.657236
O O3 0.856450 0.783608 0.659487
O O4 0.871930 0.633803 0.694784
O O5 0.513230 0.372330 0.123733
O O6 0.687123 0.440191 0.081472
O O7 0.630665 0.292969 0.054098
O O8 0.287568 0.826170 0.000000
O O9 0.351201 0.962761 0.947946
O O10 0.491148 0.864834 0.000000
O O11 0.176437 0.897905 0.086832
O O12 0.070841 0.764310 0.056124
O O13 0.693091 0.827612 0.000000
O O14 0.500000 0.000000 0.820979
O O15 0.656219 0.000000 0.750000
O O16 0.696508 0.015352 0.847336
#
# Coordination Sequence:
#
# PCOD8295194 Si02
#       8
#    16  16   8  16   8   8  16  16
#     4  11  25  43  67  98 131 175 227 286 347 411
#     4  11  24  41  65  96 134 173 224 281 339 413
#     4  12  23  38  65  96 133 178 216 274 334 410
#     4  12  23  41  69  95 134 175 229 277 336 414
#     4  12  24  38  66 100 129 175 224 267 337 393
#     4  12  21  40  61  96 133 166 220 280 324 399
#     4  10  24  43  66  94 131 171 225 281 341 410
#     4  11  24  42  64  96 136 179 218 277 349 396
#
# _framework density 21.172812
#
# number of rings (size 3 to 8) (size 9 to 14) (size 15 to 20)
#    0.000    0.769    4.615    1.846    2.154    3.077 
#    0.000    3.462    0.000    2.769    0.000    0.000 
#    0.000    0.000    0.000    0.000    0.000    0.000 
#
# Total GULP energy -644498.658060 kJ/mol
# GULP energy per Si atom -12394.204963 kJ/mol
# Density = 2.112462 g / cm^3
# Si number density = 21.172812 Si / 1000 Ang^3
#
#
#
# Elastic Constant Matrix: (Units=GPa)
#
#
# Indices 1 2 3 4 5 6 
#
# 1 136.1573 31.5269 37.7063 0.0000 0.0000 0.0000
# 2 31.5269 73.2455 37.1706 0.0000 0.0000 0.0000
# 3 37.7063 37.1706 122.8175 0.0000 0.0000 0.0000
# 4 0.0000 0.0000 0.0000 32.0801 0.0000 0.0000
# 5 0.0000 0.0000 0.0000 0.0000 -69.2506 0.0000
# 6 0.0000 0.0000 0.0000 0.0000 0.0000 31.7034
#
#
#
# Elastic Compliance Matrix: (Units=1/GPa)
#
#
# Indices 1 2 3 4 5 6 
#
# 1 0.008471 -0.002748 -0.001769 0.000000 0.000000 0.000000
# 2 -0.002748 0.017022 -0.004308 0.000000 0.000000 0.000000
# 3 -0.001769 -0.004308 0.009989 0.000000 0.000000 0.000000
# 4 0.000000 0.000000 0.000000 0.031172 0.000000 0.000000
# 5 0.000000 0.000000 0.000000 0.000000 -0.014440 0.000000
# 6 0.000000 0.000000 0.000000 0.000000 0.000000 0.031542
#
#
# Mechanical properties :
#
#
# Convention : Reuss Voigt Hill
#
# Bulk Modulus (GPa) = 56.08081 60.55865 58.31973
# Shear Modulus (GPa) = 46.57684 13.96099 30.26892
#
# Velocity S-wave (km/s) = 4.69534 2.57063 3.78512
# Velocity P-wave (km/s) = 7.47928 6.12169 6.83427
#
# Compressibility (1/GPa) = 0.01783141
#
# Stress axis : x y z
#
# Youngs Moduli (GPa) = 118.05457 58.74799 100.11039
#
# Poissons Ratio (x) = 0.16146 0.17707
# Poissons Ratio (y) = 0.32446 0.43126
# Poissons Ratio (z) = 0.20881 0.25308
#
# Static dielectric constant tensor:
#      x y z
#    x 3.988550 0.000000 0.000000 
#    y 0.000000 4.063500 0.000000 
#    z 0.000000 0.000000 3.855440 
# 
# 
# High freq. dielectric constant tensor:
#      x y z
#    x 1.844100 0.000000 0.000000 
#    y 0.000000 1.830540 0.000000 
#    z 0.000000 0.000000 1.836370 
# 
# From -- ./inp_files/44489.got.cif
#   From: 2010.03.12/outbox.cif.g09.slc.cpg/sg72_23_cif.got.tgz:44489.got - 2010.04.16 14:54:00.
