data_PCOD8295487
_publ_section_title
;
Structure prediction by ZEFSAII (Michael W. Deem and Ramdas Pophale) SiO2 
 PCOD8295487
Probable space group: I B A M
;
_chemical_formula_sum "Si O2"
_cell_formula_units_Z 52
_cell_length_a 11.247547
_cell_length_b 7.495864
_cell_length_c 24.736489
_cell_angle_alpha 90.000000
_cell_angle_beta 90.000000
_cell_angle_gamma 90.000000
_cell_volume 2085.535432
_symmetry_space_group_name_H-M "I B A M"
_symmetry_group_IT_number 72
_symmetry_cell_setting 'orthorhombic'
loop_
_space_group_symop_operation_xyz
x,y,z
-x,-y,z
x,-y,1/2-z
-x,y,1/2-z
-x,-y,-z
x,y,-z
-x,y,1/2+z
x,-y,1/2+z
1/2+x,1/2+y,1/2+z
1/2-x,1/2-y,1/2+z
1/2+x,1/2-y,-z
1/2-x,1/2+y,-z
1/2-x,1/2-y,1/2-z
1/2+x,1/2+y,1/2-z
1/2-x,1/2+y,z
1/2+x,1/2-y,z
loop_
_atom_site_type_symbol
_atom_site_label
_atom_site_fract_x
_atom_site_fract_y
_atom_site_fract_z
Si Si1 0.380599 0.613262 0.349612
Si Si2 0.386043 0.879950 0.439729
Si Si3 0.344859 0.750835 0.896126
Si Si4 0.000000 0.000000 0.750000
O O1 0.442130 0.752345 0.392535
O O2 0.417105 0.405327 0.364432
O O3 0.237363 0.638542 0.353241
O O4 0.419665 0.633073 0.287168
O O5 0.426168 0.824333 0.500000
O O6 0.241946 0.858425 0.437046
O O7 0.418233 0.093727 0.429332
#
# Coordination Sequence:
#
# PCOD8295487 Si02
#       4
#    16  16  16   4
#     4   9  20  36  55  82 111 142 187 221 271 319
#     4   9  15  29  56  86 109 134 175 228 275 324
#     4   8  17  32  55  84 107 134 184 223 267 325
#     4  12  24  40  56  72 116 156 184 230 266 308
#
# _framework density 24.933644999999999
#
# number of rings (size 3 to 8) (size 9 to 14) (size 15 to 20)
#    1.846    1.231    0.000    0.923    0.000    2.462 
#    0.000    3.846    0.000    1.846    0.000    0.000 
#    0.000    0.000    0.000    0.000    0.000    0.000 
#
# Total GULP energy -322226.859385 kJ/mol
# GULP energy per Si atom -12393.340746 kJ/mol
# Density = 2.487689 g / cm^3
# Si number density = 24.933645 Si / 1000 Ang^3
#
#
#
# Elastic Constant Matrix: (Units=GPa)
#
#
# Indices 1 2 3 4 5 6 
#
# 1 79.2066 63.9842 67.6429 0.0000 0.0000 0.0000
# 2 63.9842 178.8026 78.2509 0.0000 0.0000 0.0000
# 3 67.6429 78.2509 222.4476 0.0000 0.0000 0.0000
# 4 0.0000 0.0000 0.0000 33.4372 0.0000 0.0000
# 5 0.0000 0.0000 0.0000 0.0000 44.5036 0.0000
# 6 0.0000 0.0000 0.0000 0.0000 0.0000 73.8381
#
#
#
# Elastic Compliance Matrix: (Units=1/GPa)
#
#
# Indices 1 2 3 4 5 6 
#
# 1 0.020851 -0.005539 -0.004392 0.000000 0.000000 0.000000
# 2 -0.005539 0.008082 -0.001159 0.000000 0.000000 0.000000
# 3 -0.004392 -0.001159 0.006238 0.000000 0.000000 0.000000
# 4 0.000000 0.000000 0.000000 0.029907 0.000000 0.000000
# 5 0.000000 0.000000 0.000000 0.000000 0.022470 0.000000
# 6 0.000000 0.000000 0.000000 0.000000 0.000000 0.013543
#
#
# Mechanical properties :
#
#
# Convention : Reuss Voigt Hill
#
# Bulk Modulus (GPa) = 76.97235 100.02367 88.49801
# Shear Modulus (GPa) = 39.18462 48.39437 43.78949
#
# Velocity S-wave (km/s) = 3.96859 4.41037 4.19530
# Velocity P-wave (km/s) = 7.20677 8.13254 7.68361
#
# Compressibility (1/GPa) = 0.01299168
#
# Stress axis : x y z
#
# Youngs Moduli (GPa) = 47.96034 123.73080 160.29561
#
# Poissons Ratio (x) = 0.68539 0.70398
# Poissons Ratio (y) = 0.26567 0.18572
# Poissons Ratio (z) = 0.21063 0.14336
#
# Static dielectric constant tensor:
#      x y z
#    x 4.850020 0.000000 0.000000 
#    y 0.000000 4.444610 0.000000 
#    z 0.000000 0.000000 3.930660 
# 
# 
# High freq. dielectric constant tensor:
#      x y z
#    x 2.078330 0.000000 0.000000 
#    y 0.000000 1.999460 0.000000 
#    z 0.000000 0.000000 1.949550 
# 
# From -- ./inp_files/31030.got.cif
#   From: 2010.03.12/outbox.cif.g09.slc.cpg/sg72_16_cif.got.tgz:31030.got - 2010.04.16 14:54:00.
