data_PCOD8295379
_publ_section_title
;
Structure prediction by ZEFSAII (Michael W. Deem and Ramdas Pophale) SiO2 
 PCOD8295379
Probable space group: I B A M
;
_chemical_formula_sum "Si O2"
_cell_formula_units_Z 64
_cell_length_a 13.702069
_cell_length_b 14.625540
_cell_length_c 15.613301
_cell_angle_alpha 90.000000
_cell_angle_beta 90.000000
_cell_angle_gamma 90.000000
_cell_volume 3128.907991
_symmetry_space_group_name_H-M "I B A M"
_symmetry_group_IT_number 72
_symmetry_cell_setting 'orthorhombic'
loop_
_space_group_symop_operation_xyz
x,y,z
-x,-y,z
x,-y,1/2-z
-x,y,1/2-z
-x,-y,-z
x,y,-z
-x,y,1/2+z
x,-y,1/2+z
1/2+x,1/2+y,1/2+z
1/2-x,1/2-y,1/2+z
1/2+x,1/2-y,-z
1/2-x,1/2+y,-z
1/2-x,1/2-y,1/2-z
1/2+x,1/2+y,1/2-z
1/2-x,1/2+y,z
1/2+x,1/2-y,z
loop_
_atom_site_type_symbol
_atom_site_label
_atom_site_fract_x
_atom_site_fract_y
_atom_site_fract_z
Si Si1 0.236185 0.146583 0.339894
Si Si2 0.903679 0.117110 0.500000
Si Si3 0.610562 0.014547 0.100500
Si Si4 0.739397 0.642721 0.650459
Si Si5 0.888568 0.907393 0.500000
O O1 0.345448 0.105378 0.353838
O O2 0.221279 0.254542 0.345898
O O3 0.202391 0.113874 0.245196
O O4 0.170913 0.104062 0.413382
O O5 0.849944 0.148290 0.414501
O O6 0.514635 0.343038 0.500000
O O7 0.918035 0.010823 0.500000
O O8 0.500000 0.000000 0.134289
O O9 0.675323 0.924818 0.119554
O O10 0.610644 0.033423 0.000000
#
# Coordination Sequence:
#
# PCOD8295379 Si02
#       5
#    16   8  16  16   8
#     4  11  23  41  65  92 125 164 206 253 311 371
#     4  11  23  40  62  89 122 162 206 250 306 366
#     4  11  23  41  67  95 125 164 209 258 314 372
#     4  11  23  41  65  92 125 164 206 253 311 371
#     4  11  23  40  62  89 122 162 206 250 306 366
#
# _framework density 20.454419999999999
#
# number of rings (size 3 to 8) (size 9 to 14) (size 15 to 20)
#    0.000    1.000    5.000    1.500    0.000    5.000 
#    0.000    7.500    0.000    0.000    0.000    0.000 
#    0.000    0.000    0.000    0.000    0.000    0.000 
#
# Total GULP energy -396589.598140 kJ/mol
# GULP energy per Si atom -12393.424942 kJ/mol
# Density = 2.040786 g / cm^3
# Si number density = 20.454420 Si / 1000 Ang^3
#
#
#
# Elastic Constant Matrix: (Units=GPa)
#
#
# Indices 1 2 3 4 5 6 
#
# 1 107.9471 -6.3886 46.8218 0.0000 0.0000 0.0000
# 2 -6.3886 55.1546 -9.4874 0.0000 0.0000 0.0000
# 3 46.8218 -9.4874 158.1414 0.0000 0.0000 0.0000
# 4 0.0000 0.0000 0.0000 24.8845 0.0000 0.0000
# 5 0.0000 0.0000 0.0000 0.0000 4.3535 0.0000
# 6 0.0000 0.0000 0.0000 0.0000 0.0000 15.2085
#
#
#
# Elastic Compliance Matrix: (Units=1/GPa)
#
#
# Indices 1 2 3 4 5 6 
#
# 1 0.010655 0.000699 -0.003113 0.000000 0.000000 0.000000
# 2 0.000699 0.018366 0.000895 0.000000 0.000000 0.000000
# 3 -0.003113 0.000895 0.007299 0.000000 0.000000 0.000000
# 4 0.000000 0.000000 0.000000 0.040186 0.000000 0.000000
# 5 0.000000 0.000000 0.000000 0.000000 0.229702 0.000000
# 6 0.000000 0.000000 0.000000 0.000000 0.000000 0.065753
#
#
# Mechanical properties :
#
#
# Convention : Reuss Voigt Hill
#
# Bulk Modulus (GPa) = 30.04672 42.57054 36.30863
# Shear Modulus (GPa) = 12.95026 28.24244 20.59635
#
# Velocity S-wave (km/s) = 2.51893 3.71988 3.17667
# Velocity P-wave (km/s) = 4.81472 6.26957 5.58968
#
# Compressibility (1/GPa) = 0.03328151
#
# Stress axis : x y z
#
# Youngs Moduli (GPa) = 93.84954 54.44923 137.00906
#
# Poissons Ratio (x) = -0.03805 0.42649
# Poissons Ratio (y) = -0.06558 -0.12261
# Poissons Ratio (z) = 0.29214 -0.04873
#
# Static dielectric constant tensor:
#      x y z
#    x 4.051440 0.000000 0.000000 
#    y 0.000000 3.865830 0.000000 
#    z 0.000000 0.000000 4.567510 
# 
# 
# High freq. dielectric constant tensor:
#      x y z
#    x 1.788210 0.000000 0.000000 
#    y 0.000000 1.803050 0.000000 
#    z 0.000000 0.000000 1.822410 
# 
# From -- ./inp_files/32357.got.cif
#   From: 2010.03.12/outbox.cif.g09.slc.cpg/sg72_17_cif.got.tgz:32357.got - 2010.04.16 14:54:00.
