data_PCOD8295058
_publ_section_title
;
Structure prediction by ZEFSAII (Michael W. Deem and Ramdas Pophale) SiO2 
 PCOD8295058
Probable space group: I B A M
;
_chemical_formula_sum "Si O2"
_cell_formula_units_Z 112
_cell_length_a 13.986279
_cell_length_b 11.625436
_cell_length_c 30.936017
_cell_angle_alpha 90.000000
_cell_angle_beta 90.000000
_cell_angle_gamma 90.000000
_cell_volume 5030.090915
_symmetry_space_group_name_H-M "I B A M"
_symmetry_group_IT_number 72
_symmetry_cell_setting 'orthorhombic'
loop_
_space_group_symop_operation_xyz
x,y,z
-x,-y,z
x,-y,1/2-z
-x,y,1/2-z
-x,-y,-z
x,y,-z
-x,y,1/2+z
x,-y,1/2+z
1/2+x,1/2+y,1/2+z
1/2-x,1/2-y,1/2+z
1/2+x,1/2-y,-z
1/2-x,1/2+y,-z
1/2-x,1/2-y,1/2-z
1/2+x,1/2+y,1/2-z
1/2-x,1/2+y,z
1/2+x,1/2-y,z
loop_
_atom_site_type_symbol
_atom_site_label
_atom_site_fract_x
_atom_site_fract_y
_atom_site_fract_z
Si Si1 0.731796 0.155218 0.187158
Si Si2 0.539139 0.121220 0.405211
Si Si3 0.111314 0.987030 0.952801
Si Si4 0.611596 0.271306 0.254373
Si Si5 0.698979 0.712074 0.906739
Si Si6 0.381146 0.742309 0.950404
Si Si7 0.092049 0.444913 0.311092
O O1 0.657201 0.248067 0.207314
O O2 0.824753 0.135859 0.218688
O O3 0.767269 0.212404 0.142741
O O4 0.678134 0.034019 0.179009
O O5 0.643706 0.168643 0.419542
O O6 0.465362 0.219710 0.418625
O O7 0.545681 0.110939 0.353876
O O8 0.500000 0.000000 0.425682
O O9 0.150721 0.112207 0.940071
O O10 0.131911 0.897646 0.914720
O O11 0.151952 0.947837 0.000000
O O12 0.000000 0.000000 0.957587
O O13 0.500000 0.308386 0.250000
O O14 0.630612 0.152182 0.279582
O O15 0.786668 0.686861 0.938852
O O16 0.413071 0.761327 0.000000
O O17 0.000000 0.500000 0.287252
#
# Coordination Sequence:
#
# PCOD8295058 Si02
#       7
#    16  16  16  16  16  16  16
#     4  11  25  39  68 106 135 176 240 287 340 425
#     4  11  25  44  68 100 137 178 237 288 346 422
#     4  10  22  44  70  94 131 184 232 280 351 419
#     4  11  23  43  70 101 138 184 229 284 355 419
#     4  12  24  43  68 100 140 182 232 295 352 418
#     4  11  26  44  69 103 139 180 231 290 352 425
#     4  11  21  42  70  99 132 182 228 285 354 414
#
# _framework density 22.265999000000001
#
# number of rings (size 3 to 8) (size 9 to 14) (size 15 to 20)
#    0.000    1.000    4.286    2.571    4.000    0.857 
#    0.000    0.000    0.000    0.857    0.000    0.000 
#    0.000    0.000    0.000    0.000    0.000    0.000 
#
# Total GULP energy -693978.723078 kJ/mol
# GULP energy per Si atom -12392.477198 kJ/mol
# Density = 2.221532 g / cm^3
# Si number density = 22.265999 Si / 1000 Ang^3
#
#
#
# Elastic Constant Matrix: (Units=GPa)
#
#
# Indices 1 2 3 4 5 6 
#
# 1 143.9604 39.0559 55.0031 0.0000 0.0000 0.0000
# 2 39.0559 71.4460 56.1857 0.0000 0.0000 0.0000
# 3 55.0031 56.1857 112.1766 0.0000 0.0000 0.0000
# 4 0.0000 0.0000 0.0000 24.7247 0.0000 0.0000
# 5 0.0000 0.0000 0.0000 0.0000 35.9679 0.0000
# 6 0.0000 0.0000 0.0000 0.0000 0.0000 35.5963
#
#
#
# Elastic Compliance Matrix: (Units=1/GPa)
#
#
# Indices 1 2 3 4 5 6 
#
# 1 0.008777 -0.002332 -0.003135 0.000000 0.000000 0.000000
# 2 -0.002332 0.023712 -0.010733 0.000000 0.000000 0.000000
# 3 -0.003135 -0.010733 0.015828 0.000000 0.000000 0.000000
# 4 0.000000 0.000000 0.000000 0.040445 0.000000 0.000000
# 5 0.000000 0.000000 0.000000 0.000000 0.027803 0.000000
# 6 0.000000 0.000000 0.000000 0.000000 0.000000 0.028093
#
#
# Mechanical properties :
#
#
# Convention : Reuss Voigt Hill
#
# Bulk Modulus (GPa) = 62.83236 69.78580 66.30908
# Shear Modulus (GPa) = 27.41765 31.08034 29.24899
#
# Velocity S-wave (km/s) = 3.51289 3.74018 3.62832
# Velocity P-wave (km/s) = 6.68836 7.07544 6.88462
#
# Compressibility (1/GPa) = 0.01591537
#
# Stress axis : x y z
#
# Youngs Moduli (GPa) = 113.93348 42.17262 63.17999
#
# Poissons Ratio (x) = 0.09835 0.19810
# Poissons Ratio (y) = 0.26571 0.67812
# Poissons Ratio (z) = 0.35724 0.45264
#
# Static dielectric constant tensor:
#      x y z
#    x 4.298740 0.000000 0.000000 
#    y 0.000000 24.664890 0.000000 
#    z 0.000000 0.000000 3.922810 
# 
# 
# High freq. dielectric constant tensor:
#      x y z
#    x 1.891490 0.000000 0.000000 
#    y 0.000000 1.859470 0.000000 
#    z 0.000000 0.000000 1.873640 
# 
# From -- ./inp_files/51774.got.cif
#   From: 2010.03.12/outbox.cif.g09.slc.cpg/sg72_26_cif.got.tgz:51774.got - 2010.04.16 14:54:00.
