data_PCOD8295640
_publ_section_title
;
Structure prediction by ZEFSAII (Michael W. Deem and Ramdas Pophale) SiO2 
 PCOD8295640
Probable space group: I B C A 
;
_chemical_formula_sum "Si O2"
_cell_formula_units_Z 96
_cell_length_a 27.806390
_cell_length_b 14.275592
_cell_length_c 12.807028
_cell_angle_alpha 90.000000
_cell_angle_beta 90.000000
_cell_angle_gamma 90.000000
_cell_volume 5083.784070
_symmetry_space_group_name_H-M "I B C A "
_symmetry_group_IT_number 73
_symmetry_cell_setting 'orthorhombic'
loop_
_space_group_symop_operation_xyz
x,y,z
-x,1/2-y,z
x,-y,1/2-z
1/2-x,y,-z
-x,-y,-z
x,1/2+y,-z
-x,y,1/2+z
1/2+x,-y,z
1/2+x,1/2+y,1/2+z
1/2-x,-y,1/2+z
1/2+x,1/2-y,-z
-x,1/2+y,1/2-z
1/2-x,1/2-y,1/2-z
1/2+x,y,1/2-z
1/2-x,1/2+y,z
x,1/2-y,1/2+z
loop_
_atom_site_type_symbol
_atom_site_label
_atom_site_fract_x
_atom_site_fract_y
_atom_site_fract_z
Si Si1 0.761183 0.820475 0.660902
Si Si2 0.046535 0.398071 0.780543
Si Si3 0.623843 0.515957 0.925177
Si Si4 0.195716 0.500000 0.750000
Si Si5 0.500000 0.750000 0.420678
Si Si6 0.669297 0.684798 0.019192
Si Si7 0.415928 0.676053 0.064847
O O1 0.750000 0.750000 0.750000
O O2 0.769463 0.917646 0.717625
O O3 0.808645 0.789415 0.594906
O O4 0.713824 0.828901 0.593523
O O5 0.023956 0.500000 0.750000
O O6 0.092542 0.416607 0.851766
O O7 0.063010 0.335411 0.681689
O O8 0.008207 0.340056 0.847546
O O9 0.664029 0.469699 0.850318
O O10 0.595083 0.429261 0.977223
O O11 0.644153 0.582544 0.015584
O O12 0.545634 0.727526 0.492214
O O13 0.632687 0.762705 0.062077
#
# Coordination Sequence:
#
# PCOD8295640 Si02
#       7
#    16  16  16   8   8  16  16
#     4  10  22  36  60  88 121 156 202 248 302 362
#     4  10  22  41  61  87 121 163 201 249 312 367
#     4  10  19  38  61  83 120 161 201 243 310 366
#     4  10  18  36  60  80 116 164 196 240 300 368
#     4  12  24  40  62  98 118 154 216 254 304 374
#     4  10  22  38  57  92 120 154 205 253 297 366
#     4  11  22  39  66  85 121 165 199 256 308 361
#
# _framework density 18.883571
#
# number of rings (size 3 to 8) (size 9 to 14) (size 15 to 20)
#    0.000    1.667    4.167    1.500    2.333    4.000 
#    3.000    3.333    0.000    0.000    0.000    0.000 
#    0.000    0.000    0.000    0.000    0.000    0.000 
#
# Total GULP energy -594984.900865 kJ/mol
# GULP energy per Si atom -12395.518768 kJ/mol
# Density = 1.884059 g / cm^3
# Si number density = 18.883571 Si / 1000 Ang^3
#
#
#
# Elastic Constant Matrix: (Units=GPa)
#
#
# Indices 1 2 3 4 5 6 
#
# 1 80.2829 46.4432 25.8648 0.0000 0.0000 0.0000
# 2 46.4432 101.0360 50.3016 0.0000 0.0000 0.0000
# 3 25.8648 50.3016 66.1657 0.0000 0.0000 0.0000
# 4 0.0000 0.0000 0.0000 36.8791 0.0000 0.0000
# 5 0.0000 0.0000 0.0000 0.0000 17.9016 0.0000
# 6 0.0000 0.0000 0.0000 0.0000 0.0000 35.2020
#
#
#
# Elastic Compliance Matrix: (Units=1/GPa)
#
#
# Indices 1 2 3 4 5 6 
#
# 1 0.017021 -0.007259 -0.001135 0.000000 0.000000 0.000000
# 2 -0.007259 0.019020 -0.011623 0.000000 0.000000 0.000000
# 3 -0.001135 -0.011623 0.024393 0.000000 0.000000 0.000000
# 4 0.000000 0.000000 0.000000 0.027116 0.000000 0.000000
# 5 0.000000 0.000000 0.000000 0.000000 0.055861 0.000000
# 6 0.000000 0.000000 0.000000 0.000000 0.000000 0.028407
#
#
# Mechanical properties :
#
#
# Convention : Reuss Voigt Hill
#
# Bulk Modulus (GPa) = 49.01610 54.74488 51.88049
# Shear Modulus (GPa) = 22.86737 26.32154 24.59446
#
# Velocity S-wave (km/s) = 3.48367 3.73753 3.61283
# Velocity P-wave (km/s) = 6.49574 6.90501 6.70350
#
# Compressibility (1/GPa) = 0.02040146
#
# Stress axis : x y z
#
# Youngs Moduli (GPa) = 58.75148 52.57492 40.99500
#
# Poissons Ratio (x) = 0.38163 0.04654
# Poissons Ratio (y) = 0.42646 0.47647
# Poissons Ratio (z) = 0.06670 0.61105
#
# Static dielectric constant tensor:
#      x y z
#    x 3.513940 0.000000 0.000000 
#    y 0.000000 3.761110 0.000000 
#    z 0.000000 0.000000 3.661290 
# 
# 
# High freq. dielectric constant tensor:
#      x y z
#    x 1.735400 0.000000 0.000000 
#    y 0.000000 1.738560 0.000000 
#    z 0.000000 0.000000 1.728330 
# 
# From -- ./inp_files/11206.got.cif
#   From: 2010.03.12/outbox.cif.g09.slc.cpg/sg73_6_cif.got.tgz:11206.got - 2010.04.16 15:25:48.
