data_PCOD8295815
_publ_section_title
;
Structure prediction by ZEFSAII (Michael W. Deem and Ramdas Pophale) SiO2 
 PCOD8295815
Probable space group: I B C A 
;
_chemical_formula_sum "Si O2"
_cell_formula_units_Z 80
_cell_length_a 29.185000
_cell_length_b 5.230818
_cell_length_c 28.258450
_cell_angle_alpha 90.000000
_cell_angle_beta 90.000000
_cell_angle_gamma 90.000000
_cell_volume 4313.975198
_symmetry_space_group_name_H-M "I B C A "
_symmetry_group_IT_number 73
_symmetry_cell_setting 'orthorhombic'
loop_
_space_group_symop_operation_xyz
x,y,z
-x,1/2-y,z
x,-y,1/2-z
1/2-x,y,-z
-x,-y,-z
x,1/2+y,-z
-x,y,1/2+z
1/2+x,-y,z
1/2+x,1/2+y,1/2+z
1/2-x,-y,1/2+z
1/2+x,1/2-y,-z
-x,1/2+y,1/2-z
1/2-x,1/2-y,1/2-z
1/2+x,y,1/2-z
1/2-x,1/2+y,z
x,1/2-y,1/2+z
loop_
_atom_site_type_symbol
_atom_site_label
_atom_site_fract_x
_atom_site_fract_y
_atom_site_fract_z
Si Si1 0.090101 0.327616 0.629028
Si Si2 0.124976 0.812182 0.679020
Si Si3 0.269584 0.772686 0.302949
Si Si4 0.438636 0.000000 0.250000
Si Si5 0.500000 0.250000 0.824743
Si Si6 0.947130 0.255083 0.529807
O O1 0.118978 0.578843 0.642518
O O2 0.037636 0.393409 0.643550
O O3 0.088440 0.279915 0.572970
O O4 0.111707 0.081386 0.654709
O O5 0.176607 0.818770 0.696839
O O6 0.094250 0.779968 0.727140
O O7 0.250000 0.750000 0.250000
O O8 0.255431 0.510168 0.329404
O O9 0.471887 0.058851 0.292724
O O10 0.936854 0.530428 0.507250
O O11 0.000000 0.250000 0.546943
#
# Coordination Sequence:
#
# PCOD8295815 Si02
#       6
#    16  16  16   8   8  16
#     4  11  22  37  53  80 115 142 190 232 275 325
#     4  11  23  35  55  79 110 149 187 238 274 320
#     4  10  20  35  55  76 104 142 183 229 278 331
#     4  10  20  34  48  72 104 154 202 222 258 320
#     4  10  20  32  48  70 104 156 186 228 256 300
#     4  10  20  36  58  82 108 147 189 229 285 344
#
# _framework density 18.544381999999999
#
# number of rings (size 3 to 8) (size 9 to 14) (size 15 to 20)
#    0.000    1.600    1.000    4.800    0.000    9.600 
#    0.000    0.000    0.000    0.000    0.000    0.000 
#    0.000   56.000    0.000    0.000    0.000    0.000 
#
# Total GULP energy -495603.187826 kJ/mol
# GULP energy per Si atom -12390.079696 kJ/mol
# Density = 1.850217 g / cm^3
# Si number density = 18.544382 Si / 1000 Ang^3
#
#
#
# Elastic Constant Matrix: (Units=GPa)
#
#
# Indices 1 2 3 4 5 6 
#
# 1 127.2155 40.8902 35.2129 0.0000 0.0000 0.0000
# 2 40.8902 133.2711 22.5834 0.0000 0.0000 0.0000
# 3 35.2129 22.5834 75.2054 0.0000 0.0000 0.0000
# 4 0.0000 0.0000 0.0000 19.7996 0.0000 0.0000
# 5 0.0000 0.0000 0.0000 0.0000 25.4281 0.0000
# 6 0.0000 0.0000 0.0000 0.0000 0.0000 25.6224
#
#
#
# Elastic Compliance Matrix: (Units=1/GPa)
#
#
# Indices 1 2 3 4 5 6 
#
# 1 0.009665 -0.002317 -0.003830 0.000000 0.000000 0.000000
# 2 -0.002317 0.008461 -0.001456 0.000000 0.000000 0.000000
# 3 -0.003830 -0.001456 0.015527 0.000000 0.000000 0.000000
# 4 0.000000 0.000000 0.000000 0.050506 0.000000 0.000000
# 5 0.000000 0.000000 0.000000 0.000000 0.039327 0.000000
# 6 0.000000 0.000000 0.000000 0.000000 0.000000 0.039028
#
#
# Mechanical properties :
#
#
# Convention : Reuss Voigt Hill
#
# Bulk Modulus (GPa) = 54.20435 59.22944 56.71689
# Shear Modulus (GPa) = 27.19321 29.97040 28.58180
#
# Velocity S-wave (km/s) = 3.83350 4.02449 3.93015
# Velocity P-wave (km/s) = 6.99194 7.32148 7.15860
#
# Compressibility (1/GPa) = 0.01844871
#
# Stress axis : x y z
#
# Youngs Moduli (GPa) = 103.46203 118.18932 64.40219
#
# Poissons Ratio (x) = 0.27379 0.24666
# Poissons Ratio (y) = 0.23967 0.09378
# Poissons Ratio (z) = 0.39625 0.17209
#
# Static dielectric constant tensor:
#      x y z
#    x 3.457610 0.000000 0.000000 
#    y 0.000000 3.453370 0.000000 
#    z 0.000000 0.000000 3.385120 
# 
# 
# High freq. dielectric constant tensor:
#      x y z
#    x 1.708950 0.000000 0.000000 
#    y 0.000000 1.732720 0.000000 
#    z 0.000000 0.000000 1.689210 
# 
# From -- ./inp_files/2669.got.cif
#   From: 2010.03.12/outbox.cif.g09.slc.cpg/sg73_2_cif.got.tgz:2669.got - 2010.04.16 15:25:48.
