data_PCOD8295386
_publ_section_title
;
Structure prediction by ZEFSAII (Michael W. Deem and Ramdas Pophale) SiO2 
 PCOD8295386
Probable space group: I B A M
;
_chemical_formula_sum "Si O2"
_cell_formula_units_Z 104
_cell_length_a 28.208355
_cell_length_b 8.684401
_cell_length_c 20.789767
_cell_angle_alpha 90.000000
_cell_angle_beta 90.000000
_cell_angle_gamma 90.000000
_cell_volume 5092.924655
_symmetry_space_group_name_H-M "I B A M"
_symmetry_group_IT_number 72
_symmetry_cell_setting 'orthorhombic'
loop_
_space_group_symop_operation_xyz
x,y,z
-x,-y,z
x,-y,1/2-z
-x,y,1/2-z
-x,-y,-z
x,y,-z
-x,y,1/2+z
x,-y,1/2+z
1/2+x,1/2+y,1/2+z
1/2-x,1/2-y,1/2+z
1/2+x,1/2-y,-z
1/2-x,1/2+y,-z
1/2-x,1/2-y,1/2-z
1/2+x,1/2+y,1/2-z
1/2-x,1/2+y,z
1/2+x,1/2-y,z
loop_
_atom_site_type_symbol
_atom_site_label
_atom_site_fract_x
_atom_site_fract_y
_atom_site_fract_z
Si Si1 0.887613 0.636131 0.572633
Si Si2 0.269468 0.390810 0.363782
Si Si3 0.788654 0.500000 0.750000
Si Si4 0.202807 0.814456 0.930044
Si Si5 0.450087 0.317379 0.830158
Si Si6 0.649465 0.154105 0.143684
Si Si7 0.558338 0.332451 0.180466
O O1 0.908290 0.609487 0.500000
O O2 0.852772 0.781475 0.570897
O O3 0.926878 0.686982 0.624618
O O4 0.858019 0.485656 0.594211
O O5 0.245667 0.389240 0.292681
O O6 0.229776 0.344258 0.415097
O O7 0.283515 0.567164 0.374493
O O8 0.315032 0.286643 0.379867
O O9 0.825229 0.399225 0.708878
O O10 0.217683 0.877797 0.000000
O O11 0.435315 0.493215 0.846018
O O12 0.505613 0.283246 0.839478
O O13 0.434920 0.304005 0.756191
O O14 0.597211 0.224363 0.148889
#
# Coordination Sequence:
#
# PCOD8295386 Si02
#       7
#    16  16   8  16  16  16  16
#     4  11  24  42  63  90 131 172 213 259 309 381
#     4  12  24  40  61  89 123 163 210 268 313 373
#     4  12  24  40  60  93 132 161 210 274 328 372
#     4  11  23  41  62  85 118 168 212 253 308 372
#     4   9  19  42  64  97 125 158 213 252 324 379
#     4  12  24  39  60  90 126 164 211 257 326 373
#     4   9  20  38  70  94 124 162 200 268 318 386
#
# _framework density 20.420487000000001
#
# number of rings (size 3 to 8) (size 9 to 14) (size 15 to 20)
#    0.000    1.231    3.077    3.692    0.000    4.308 
#    0.000    5.385    0.000    0.000    0.000    0.000 
#    0.000    0.000    0.000    0.000    0.000    0.000 
#
# Total GULP energy -644285.230832 kJ/mol
# GULP energy per Si atom -12390.100593 kJ/mol
# Density = 2.037401 g / cm^3
# Si number density = 20.420487 Si / 1000 Ang^3
#
#
#
# Elastic Constant Matrix: (Units=GPa)
#
#
# Indices 1 2 3 4 5 6 
#
# 1 97.5183 43.5213 44.6318 0.0000 0.0000 0.0000
# 2 43.5213 84.7266 39.9663 0.0000 0.0000 0.0000
# 3 44.6318 39.9663 98.1647 0.0000 0.0000 0.0000
# 4 0.0000 0.0000 0.0000 22.7322 0.0000 0.0000
# 5 0.0000 0.0000 0.0000 0.0000 20.1925 0.0000
# 6 0.0000 0.0000 0.0000 0.0000 0.0000 41.1222
#
#
#
# Elastic Compliance Matrix: (Units=1/GPa)
#
#
# Indices 1 2 3 4 5 6 
#
# 1 0.014741 -0.005459 -0.004480 0.000000 0.000000 0.000000
# 2 -0.005459 0.016630 -0.004289 0.000000 0.000000 0.000000
# 3 -0.004480 -0.004289 0.013970 0.000000 0.000000 0.000000
# 4 0.000000 0.000000 0.000000 0.043991 0.000000 0.000000
# 5 0.000000 0.000000 0.000000 0.000000 0.049523 0.000000
# 6 0.000000 0.000000 0.000000 0.000000 0.000000 0.024318
#
#
# Mechanical properties :
#
#
# Convention : Reuss Voigt Hill
#
# Bulk Modulus (GPa) = 59.22014 59.62758 59.42386
# Shear Modulus (GPa) = 25.34791 26.96204 26.15497
#
# Velocity S-wave (km/s) = 3.52703 3.63759 3.58274
# Velocity P-wave (km/s) = 6.75647 6.84880 6.80279
#
# Compressibility (1/GPa) = 0.01688615
#
# Stress axis : x y z
#
# Youngs Moduli (GPa) = 67.83830 60.13346 71.58330
#
# Poissons Ratio (x) = 0.32826 0.32067
# Poissons Ratio (y) = 0.37032 0.30699
# Poissons Ratio (z) = 0.30389 0.25789
#
# Static dielectric constant tensor:
#      x y z
#    x 3.743420 0.000000 0.000000 
#    y 0.000000 3.711830 0.000000 
#    z 0.000000 0.000000 3.582360 
# 
# 
# High freq. dielectric constant tensor:
#      x y z
#    x 1.804470 0.000000 0.000000 
#    y 0.000000 1.801060 0.000000 
#    z 0.000000 0.000000 1.784410 
# 
# From -- ./inp_files/40801.got.cif
#   From: 2010.03.12/outbox.cif.g09.slc.cpg/sg72_21_cif.got.tgz:40801.got - 2010.04.16 14:54:00.
