data_PCOD8295195
_publ_section_title
;
Structure prediction by ZEFSAII (Michael W. Deem and Ramdas Pophale) SiO2 
 PCOD8295195
Probable space group: I B A M
;
_chemical_formula_sum "Si O2"
_cell_formula_units_Z 56
_cell_length_a 16.283567
_cell_length_b 15.065293
_cell_length_c 10.167526
_cell_angle_alpha 90.000000
_cell_angle_beta 90.000000
_cell_angle_gamma 90.000000
_cell_volume 2494.264006
_symmetry_space_group_name_H-M "I B A M"
_symmetry_group_IT_number 72
_symmetry_cell_setting 'orthorhombic'
loop_
_space_group_symop_operation_xyz
x,y,z
-x,-y,z
x,-y,1/2-z
-x,y,1/2-z
-x,-y,-z
x,y,-z
-x,y,1/2+z
x,-y,1/2+z
1/2+x,1/2+y,1/2+z
1/2-x,1/2-y,1/2+z
1/2+x,1/2-y,-z
1/2-x,1/2+y,-z
1/2-x,1/2-y,1/2-z
1/2+x,1/2+y,1/2-z
1/2-x,1/2+y,z
1/2+x,1/2-y,z
loop_
_atom_site_type_symbol
_atom_site_label
_atom_site_fract_x
_atom_site_fract_y
_atom_site_fract_z
Si Si1 0.309363 0.678342 0.000000
Si Si2 0.064969 0.396030 0.354879
Si Si3 0.802596 0.155048 0.000000
Si Si4 0.301953 0.015241 0.000000
Si Si5 0.406955 0.300298 0.764665
O O1 0.233037 0.745643 0.000000
O O2 0.364787 0.693492 0.125457
O O3 0.277366 0.577974 0.000000
O O4 0.021815 0.386620 0.500000
O O5 0.142306 0.463564 0.370171
O O6 0.097574 0.301217 0.309686
O O7 0.000000 0.434374 0.250000
O O8 0.858850 0.140062 0.128728
O O9 0.727081 0.086157 0.000000
O O10 0.500000 0.334743 0.750000
#
# Coordination Sequence:
#
# PCOD8295195 Si02
#       5
#     8  16   8   8  16
#     4  12  25  44  68 105 142 184 248 294 367 432
#     4   9  19  40  71 107 141 183 243 298 365 428
#     4  12  23  45  74 104 146 192 229 303 373 425
#     4  10  24  43  69 110 146 184 243 297 367 435
#     4  11  23  44  74 104 139 192 245 297 362 427
#
# _framework density 22.451512000000001
#
# number of rings (size 3 to 8) (size 9 to 14) (size 15 to 20)
#    0.857    0.571    4.286    1.714    6.000    1.143 
#    0.000    5.714    3.143   10.286    0.000    0.000 
#    0.000    0.000    0.000    0.000    0.000    0.000 
#
# Total GULP energy -347150.364417 kJ/mol
# GULP energy per Si atom -12398.227301 kJ/mol
# Density = 2.240041 g / cm^3
# Si number density = 22.451512 Si / 1000 Ang^3
#
#
#
# Elastic Constant Matrix: (Units=GPa)
#
#
# Indices 1 2 3 4 5 6 
#
# 1 145.0892 23.4753 83.2529 0.0000 0.0000 0.0000
# 2 23.4753 71.2111 22.7247 0.0000 0.0000 0.0000
# 3 83.2529 22.7247 209.0041 0.0000 0.0000 0.0000
# 4 0.0000 0.0000 0.0000 16.7473 0.0000 0.0000
# 5 0.0000 0.0000 0.0000 0.0000 81.1878 0.0000
# 6 0.0000 0.0000 0.0000 0.0000 0.0000 -66.5344
#
#
#
# Elastic Compliance Matrix: (Units=1/GPa)
#
#
# Indices 1 2 3 4 5 6 
#
# 1 0.009183 -0.001927 -0.003448 0.000000 0.000000 0.000000
# 2 -0.001927 0.014952 -0.000858 0.000000 0.000000 0.000000
# 3 -0.003448 -0.000858 0.006251 0.000000 0.000000 0.000000
# 4 0.000000 0.000000 0.000000 0.059711 0.000000 0.000000
# 5 0.000000 0.000000 0.000000 0.000000 0.012317 0.000000
# 6 0.000000 0.000000 0.000000 0.000000 0.000000 -0.015030
#
#
# Mechanical properties :
#
#
# Convention : Reuss Voigt Hill
#
# Bulk Modulus (GPa) = 55.80505 76.02334 65.91419
# Shear Modulus (GPa) = 47.24825 26.00356 36.62590
#
# Velocity S-wave (km/s) = 4.59241 3.40694 4.04336
# Velocity P-wave (km/s) = 7.28218 7.02929 7.15685
#
# Compressibility (1/GPa) = 0.01791953
#
# Stress axis : x y z
#
# Youngs Moduli (GPa) = 108.90059 66.88159 159.96274
#
# Poissons Ratio (x) = 0.12886 0.55159
# Poissons Ratio (y) = 0.20982 0.13728
# Poissons Ratio (z) = 0.37552 0.05740
#
# Static dielectric constant tensor:
#      x y z
#    x 5.846060 0.000000 0.000000 
#    y 0.000000 3.738240 0.000000 
#    z 0.000000 0.000000 4.186700 
# 
# 
# High freq. dielectric constant tensor:
#      x y z
#    x 1.888910 0.000000 0.000000 
#    y 0.000000 1.867650 0.000000 
#    z 0.000000 0.000000 1.902700 
# 
# From -- ./inp_files/4205.got.cif
#   From: 2010.03.12/outbox.cif.g09.slc.cpg/sg72_3_cif.got.tgz:4205.got - 2010.04.16 14:54:00.
