data_PCOD8295764
_publ_section_title
;
Structure prediction by ZEFSAII (Michael W. Deem and Ramdas Pophale) SiO2 
 PCOD8295764
Probable space group: I B C A 
;
_chemical_formula_sum "Si O2"
_cell_formula_units_Z 96
_cell_length_a 9.045951
_cell_length_b 28.119056
_cell_length_c 18.328542
_cell_angle_alpha 90.000000
_cell_angle_beta 90.000000
_cell_angle_gamma 90.000000
_cell_volume 4662.113976
_symmetry_space_group_name_H-M "I B C A "
_symmetry_group_IT_number 73
_symmetry_cell_setting 'orthorhombic'
loop_
_space_group_symop_operation_xyz
x,y,z
-x,1/2-y,z
x,-y,1/2-z
1/2-x,y,-z
-x,-y,-z
x,1/2+y,-z
-x,y,1/2+z
1/2+x,-y,z
1/2+x,1/2+y,1/2+z
1/2-x,-y,1/2+z
1/2+x,1/2-y,-z
-x,1/2+y,1/2-z
1/2-x,1/2-y,1/2-z
1/2+x,y,1/2-z
1/2-x,1/2+y,z
x,1/2-y,1/2+z
loop_
_atom_site_type_symbol
_atom_site_label
_atom_site_fract_x
_atom_site_fract_y
_atom_site_fract_z
Si Si1 0.488015 0.631136 0.083281
Si Si2 0.250000 0.929854 0.500000
Si Si3 0.314515 0.120588 0.620423
Si Si4 0.410806 0.205071 0.522294
Si Si5 0.807925 0.101721 0.717146
Si Si6 0.054844 0.500000 0.750000
Si Si7 0.927461 0.054303 0.369522
O O1 0.384385 0.601227 0.030003
O O2 0.655072 0.610350 0.084236
O O3 0.421419 0.630361 0.165049
O O4 0.501871 0.683857 0.048536
O O5 0.179523 0.961800 0.564181
O O6 0.395905 0.165934 0.585709
O O7 0.294821 0.130041 0.707208
O O8 0.415240 0.074570 0.603875
O O9 0.500000 0.250000 0.553287
O O10 0.250000 0.223609 0.500000
O O11 0.649097 0.097114 0.677325
O O12 0.852978 0.047199 0.733811
O O13 0.951016 0.507576 0.679297
#
# Coordination Sequence:
#
# PCOD8295764 Si02
#       7
#    16   8  16  16  16   8  16
#     4  10  21  38  59  92 120 154 200 240 300 354
#     4  10  20  36  60  88 116 158 200 240 298 350
#     4  10  19  37  60  87 117 157 199 241 299 351
#     4  10  22  37  61  88 119 154 194 245 298 356
#     4  10  21  36  62  86 118 161 202 248 292 355
#     4  10  20  36  58  86 120 158 204 248 298 346
#     4  10  20  35  60  84 117 159 202 244 299 347
#
# _framework density 20.591517
#
# number of rings (size 3 to 8) (size 9 to 14) (size 15 to 20)
#    0.000    2.000    1.667    2.500    1.167    1.333 
#    0.000    4.167    9.167    5.000    0.000    0.000 
#    0.000    0.000    0.000    0.000    0.000    0.000 
#
# Total GULP energy -594951.440408 kJ/mol
# GULP energy per Si atom -12394.821675 kJ/mol
# Density = 2.054465 g / cm^3
# Si number density = 20.591517 Si / 1000 Ang^3
#
#
#
# Elastic Constant Matrix: (Units=GPa)
#
#
# Indices 1 2 3 4 5 6 
#
# 1 113.1235 42.7921 47.7620 0.0001 0.0000 0.0001
# 2 42.7921 73.6221 42.3573 0.0002 0.0000 0.0001
# 3 47.7620 42.3573 120.3289 0.0009 0.0002 0.0003
# 4 0.0001 0.0002 0.0009 23.3189 0.0001 0.0002
# 5 0.0000 0.0000 0.0002 0.0001 34.4210 0.0001
# 6 0.0001 0.0001 0.0003 0.0002 0.0001 18.6259
#
#
#
# Elastic Compliance Matrix: (Units=1/GPa)
#
#
# Indices 1 2 3 4 5 6 
#
# 1 0.012096 -0.005352 -0.002917 0.000000 0.000000 0.000000
# 2 -0.005352 0.019401 -0.004705 0.000000 0.000000 0.000000
# 3 -0.002917 -0.004705 0.011125 0.000000 0.000000 0.000000
# 4 0.000000 0.000000 0.000000 0.042884 0.000000 0.000000
# 5 0.000000 0.000000 0.000000 0.000000 0.029052 0.000000
# 6 0.000000 0.000000 0.000000 0.000000 0.000000 0.053689
#
#
# Mechanical properties :
#
#
# Convention : Reuss Voigt Hill
#
# Bulk Modulus (GPa) = 59.97812 63.65527 61.81669
# Shear Modulus (GPa) = 25.03097 26.88404 25.95751
#
# Velocity S-wave (km/s) = 3.49032 3.61721 3.55433
# Velocity P-wave (km/s) = 6.74047 6.95889 6.85055
#
# Compressibility (1/GPa) = 0.01667275
#
# Stress axis : x y z
#
# Youngs Moduli (GPa) = 82.66981 51.54436 89.89070
#
# Poissons Ratio (x) = 0.27589 0.26223
# Poissons Ratio (y) = 0.44249 0.42291
# Poissons Ratio (z) = 0.24117 0.24250
#
# Static dielectric constant tensor:
#      x y z
#    x 4.025290 0.000000 0.000000 
#    y 0.000000 3.197720 0.000000 
#    z 0.000000 0.000000 4.155660 
# 
# 
# High freq. dielectric constant tensor:
#      x y z
#    x 1.830920 0.000000 0.000000 
#    y 0.000000 1.747450 0.000000 
#    z 0.000000 0.000000 1.819540 
# 
# From -- ./inp_files/24917.got.cif
#   From: 2010.03.12/outbox.cif.g09.slc.cpg/sg73_13_cif.got.tgz:24917.got - 2010.04.16 15:25:48.
