data_PCOD8295482
_publ_section_title
;
Structure prediction by ZEFSAII (Michael W. Deem and Ramdas Pophale) SiO2 
 PCOD8295482
Probable space group: I B A M
;
_chemical_formula_sum "Si O2"
_cell_formula_units_Z 64
_cell_length_a 21.914836
_cell_length_b 5.144532
_cell_length_c 21.448303
_cell_angle_alpha 90.000000
_cell_angle_beta 90.000000
_cell_angle_gamma 90.000000
_cell_volume 2418.115463
_symmetry_space_group_name_H-M "I B A M"
_symmetry_group_IT_number 72
_symmetry_cell_setting 'orthorhombic'
loop_
_space_group_symop_operation_xyz
x,y,z
-x,-y,z
x,-y,1/2-z
-x,y,1/2-z
-x,-y,-z
x,y,-z
-x,y,1/2+z
x,-y,1/2+z
1/2+x,1/2+y,1/2+z
1/2-x,1/2-y,1/2+z
1/2+x,1/2-y,-z
1/2-x,1/2+y,-z
1/2-x,1/2-y,1/2-z
1/2+x,1/2+y,1/2-z
1/2-x,1/2+y,z
1/2+x,1/2-y,z
loop_
_atom_site_type_symbol
_atom_site_label
_atom_site_fract_x
_atom_site_fract_y
_atom_site_fract_z
Si Si1 0.818901 0.260563 0.790009
Si Si2 0.230432 0.157877 0.903413
Si Si3 0.561419 0.893125 0.862481
Si Si4 0.404381 0.396636 0.572836
O O1 0.790788 0.500000 0.750000
O O2 0.767320 0.214611 0.843264
O O3 0.883445 0.372336 0.814240
O O4 0.830692 0.000000 0.750000
O O5 0.231635 0.434154 0.940973
O O6 0.160638 0.073384 0.891240
O O7 0.551815 0.617074 0.897501
O O8 0.500000 0.000000 0.827759
O O9 0.571808 0.107871 0.916262
O O10 0.395395 0.448858 0.500000
#
# Coordination Sequence:
#
# PCOD8295482 Si02
#       4
#    16  16  16  16
#     4  12  26  46  75 105 148 194 240 296 373 442
#     4  12  23  45  70 109 149 184 240 299 369 446
#     4  12  27  51  72 105 147 188 256 312 354 434
#     4  12  26  48  75 107 147 194 243 300 379 440
#
# _framework density 26.466891
#
# number of rings (size 3 to 8) (size 9 to 14) (size 15 to 20)
#    0.000    0.000    5.000    4.500    0.000    7.500 
#    0.000    1.250    0.000    0.000    0.000    0.000 
#    0.000    0.000    0.000    0.000    0.000    0.000 
#
# Total GULP energy -396458.977223 kJ/mol
# GULP energy per Si atom -12389.343038 kJ/mol
# Density = 2.640665 g / cm^3
# Si number density = 26.466891 Si / 1000 Ang^3
#
#
#
# Elastic Constant Matrix: (Units=GPa)
#
#
# Indices 1 2 3 4 5 6 
#
# 1 127.3200 8.0333 36.3813 0.0000 0.0000 0.0000
# 2 8.0333 213.9367 20.1452 0.0000 0.0000 0.0000
# 3 36.3813 20.1452 101.3318 0.0000 0.0000 0.0000
# 4 0.0000 0.0000 0.0000 12.7988 0.0000 0.0000
# 5 0.0000 0.0000 0.0000 0.0000 -15.8134 0.0000
# 6 0.0000 0.0000 0.0000 0.0000 0.0000 38.1642
#
#
#
# Elastic Compliance Matrix: (Units=1/GPa)
#
#
# Indices 1 2 3 4 5 6 
#
# 1 0.008752 -0.000033 -0.003136 0.000000 0.000000 0.000000
# 2 -0.000033 0.004764 -0.000935 0.000000 0.000000 0.000000
# 3 -0.003136 -0.000935 0.011180 0.000000 0.000000 0.000000
# 4 0.000000 0.000000 0.000000 0.078132 0.000000 0.000000
# 5 0.000000 0.000000 0.000000 0.000000 -0.063237 0.000000
# 6 0.000000 0.000000 0.000000 0.000000 0.000000 0.026203
#
#
# Mechanical properties :
#
#
# Convention : Reuss Voigt Hill
#
# Bulk Modulus (GPa) = 60.65043 63.52312 62.08678
# Shear Modulus (GPa) = 62.89468 32.23183 47.56326
#
# Velocity S-wave (km/s) = 4.88007 3.49351 4.24380
# Velocity P-wave (km/s) = 7.39722 6.35027 6.89365
#
# Compressibility (1/GPa) = 0.01648793
#
# Stress axis : x y z
#
# Youngs Moduli (GPa) = 114.25493 209.92611 89.44309
#
# Poissons Ratio (x) = 0.00701 0.28047
# Poissons Ratio (y) = 0.00381 0.08363
# Poissons Ratio (z) = 0.35827 0.19629
#
# Static dielectric constant tensor:
#      x y z
#    x 5.036440 0.000000 0.000000 
#    y 0.000000 5.633750 0.000000 
#    z 0.000000 0.000000 4.468090 
# 
# 
# High freq. dielectric constant tensor:
#      x y z
#    x 2.070250 0.000000 0.000000 
#    y 0.000000 2.116540 0.000000 
#    z 0.000000 0.000000 2.030630 
# 
# From -- ./inp_files/45577.got.cif
#   From: 2010.03.12/outbox.cif.g09.slc.cpg/sg72_23_cif.got.tgz:45577.got - 2010.04.16 14:54:00.
