data_PCOD8295102
_publ_section_title
;
Structure prediction by ZEFSAII (Michael W. Deem and Ramdas Pophale) SiO2 
 PCOD8295102
Probable space group: I B A M
;
_chemical_formula_sum "Si O2"
_cell_formula_units_Z 64
_cell_length_a 11.203434
_cell_length_b 19.410093
_cell_length_c 12.815473
_cell_angle_alpha 90.000000
_cell_angle_beta 90.000000
_cell_angle_gamma 90.000000
_cell_volume 2786.848861
_symmetry_space_group_name_H-M "I B A M"
_symmetry_group_IT_number 72
_symmetry_cell_setting 'orthorhombic'
loop_
_space_group_symop_operation_xyz
x,y,z
-x,-y,z
x,-y,1/2-z
-x,y,1/2-z
-x,-y,-z
x,y,-z
-x,y,1/2+z
x,-y,1/2+z
1/2+x,1/2+y,1/2+z
1/2-x,1/2-y,1/2+z
1/2+x,1/2-y,-z
1/2-x,1/2+y,-z
1/2-x,1/2-y,1/2-z
1/2+x,1/2+y,1/2-z
1/2-x,1/2+y,z
1/2+x,1/2-y,z
loop_
_atom_site_type_symbol
_atom_site_label
_atom_site_fract_x
_atom_site_fract_y
_atom_site_fract_z
Si Si1 0.564253 0.410806 0.121382
Si Si2 0.704243 0.718549 0.616346
Si Si3 0.190702 0.044980 0.375775
Si Si4 0.134190 0.650796 0.281037
O O1 0.597000 0.332808 0.145263
O O2 0.672006 0.463880 0.154611
O O3 0.567816 0.421136 0.329606
O O4 0.543645 0.426697 0.000000
O O5 0.750348 0.706348 0.500000
O O6 0.815919 0.697197 0.686418
O O7 0.652165 0.795911 0.623563
O O8 0.211590 0.055480 0.500000
O O9 0.299493 0.079860 0.312457
O O10 0.000000 0.630646 0.250000
#
# Coordination Sequence:
#
# PCOD8295102 Si02
#       4
#    16  16  16  16
#     4   8  17  36  65  94 120 157 210 264 322 375
#     4  10  23  41  60  85 125 169 214 268 318 378
#     4   9  18  37  65  96 125 160 208 268 322 374
#     4  11  25  39  59  92 128 172 216 258 321 392
#
# _framework density 22.965005999999999
#
# number of rings (size 3 to 8) (size 9 to 14) (size 15 to 20)
#    0.000    2.500    0.000    2.250    7.000    3.000 
#    0.000    5.000    0.000    4.500    0.000    0.000 
#    0.000    0.000    0.000    0.000    0.000    0.000 
#
# Total GULP energy -396540.057301 kJ/mol
# GULP energy per Si atom -12391.876791 kJ/mol
# Density = 2.291274 g / cm^3
# Si number density = 22.965006 Si / 1000 Ang^3
#
#
#
# Elastic Constant Matrix: (Units=GPa)
#
#
# Indices 1 2 3 4 5 6 
#
# 1 154.7635 52.4504 43.9944 -0.0001 0.0000 0.0001
# 2 52.4504 104.9437 28.3109 0.0007 0.0000 -0.0002
# 3 43.9944 28.3109 56.6947 0.0006 0.0000 -0.0002
# 4 -0.0001 0.0007 0.0006 34.7940 0.0000 -0.0003
# 5 0.0000 0.0000 0.0000 0.0000 23.8256 0.0000
# 6 0.0001 -0.0002 -0.0002 -0.0003 0.0000 37.6624
#
#
#
# Elastic Compliance Matrix: (Units=1/GPa)
#
#
# Indices 1 2 3 4 5 6 
#
# 1 0.009059 -0.003041 -0.005511 0.000000 0.000000 0.000000
# 2 -0.003041 0.012033 -0.003649 0.000000 0.000000 0.000000
# 3 -0.005511 -0.003649 0.023737 0.000000 0.000000 0.000000
# 4 0.000000 0.000000 0.000000 0.028741 0.000000 0.000000
# 5 0.000000 0.000000 0.000000 0.000000 0.041972 0.000000
# 6 0.000000 0.000000 0.000000 0.000000 0.000000 0.026552
#
#
# Mechanical properties :
#
#
# Convention : Reuss Voigt Hill
#
# Bulk Modulus (GPa) = 48.95508 62.87924 55.91716
# Shear Modulus (GPa) = 28.85115 32.03283 30.44199
#
# Velocity S-wave (km/s) = 3.54829 3.73883 3.64480
# Velocity P-wave (km/s) = 6.17662 6.78810 6.48957
#
# Compressibility (1/GPa) = 0.02042689
#
# Stress axis : x y z
#
# Youngs Moduli (GPa) = 110.39262 83.10389 42.12833
#
# Poissons Ratio (x) = 0.25270 0.23217
# Poissons Ratio (y) = 0.33568 0.15374
# Poissons Ratio (z) = 0.60837 0.30327
#
# Static dielectric constant tensor:
#      x y z
#    x 3.768100 0.000000 0.000000 
#    y 0.000000 4.193490 0.000000 
#    z 0.000000 0.000000 4.469380 
# 
# 
# High freq. dielectric constant tensor:
#      x y z
#    x 1.870780 0.000000 0.000000 
#    y 0.000000 1.907830 0.000000 
#    z 0.000000 0.000000 1.941060 
# 
# From -- ./inp_files/11171.got.cif
#   From: 2010.03.12/outbox.cif.g09.slc.cpg/sg72_6_cif.got.tgz:11171.got - 2010.04.16 14:54:00.
