data_PCOD8295446
_publ_section_title
;
Structure prediction by ZEFSAII (Michael W. Deem and Ramdas Pophale) SiO2 
 PCOD8295446
Probable space group: I B A M
;
_chemical_formula_sum "Si O2"
_cell_formula_units_Z 48
_cell_length_a 8.758382
_cell_length_b 10.175443
_cell_length_c 20.581130
_cell_angle_alpha 90.000000
_cell_angle_beta 90.000000
_cell_angle_gamma 90.000000
_cell_volume 1834.198884
_symmetry_space_group_name_H-M "I B A M"
_symmetry_group_IT_number 72
_symmetry_cell_setting 'orthorhombic'
loop_
_space_group_symop_operation_xyz
x,y,z
-x,-y,z
x,-y,1/2-z
-x,y,1/2-z
-x,-y,-z
x,y,-z
-x,y,1/2+z
x,-y,1/2+z
1/2+x,1/2+y,1/2+z
1/2-x,1/2-y,1/2+z
1/2+x,1/2-y,-z
1/2-x,1/2+y,-z
1/2-x,1/2-y,1/2-z
1/2+x,1/2+y,1/2-z
1/2-x,1/2+y,z
1/2+x,1/2-y,z
loop_
_atom_site_type_symbol
_atom_site_label
_atom_site_fract_x
_atom_site_fract_y
_atom_site_fract_z
Si Si1 0.421838 0.137807 0.929749
Si Si2 0.830629 0.048471 0.654469
Si Si3 0.890135 0.316085 0.693280
O O1 0.245732 0.110737 0.909867
O O2 0.509760 0.213638 0.872229
O O3 0.500000 0.000000 0.939537
O O4 0.422820 0.213022 0.000000
O O5 0.823615 0.168858 0.708407
O O6 0.735243 0.926749 0.681530
O O7 0.000000 0.000000 0.639345
O O8 0.000000 0.366874 0.750000
#
# Coordination Sequence:
#
# PCOD8295446 Si02
#       3
#    16  16  16
#     4   9  21  43  69 101 145 191 233 286 353 420
#     4  11  25  45  74 107 140 185 242 299 357 424
#     4  11  26  48  74 106 146 190 238 296 361 429
#
# _framework density 26.169464999999999
#
# number of rings (size 3 to 8) (size 9 to 14) (size 15 to 20)
#    0.000    1.667    0.000    2.000    0.000   16.667 
#    0.000   11.667    0.000    0.000    0.000    0.000 
#    0.000    0.000    0.000    0.000    0.000    0.000 
#
# Total GULP energy -297431.913730 kJ/mol
# GULP energy per Si atom -12392.996405 kJ/mol
# Density = 2.610990 g / cm^3
# Si number density = 26.169465 Si / 1000 Ang^3
#
#
#
# Elastic Constant Matrix: (Units=GPa)
#
#
# Indices 1 2 3 4 5 6 
#
# 1 193.0211 66.1838 53.2090 0.0000 0.0000 0.0000
# 2 66.1838 143.6711 24.0791 0.0000 0.0000 0.0000
# 3 53.2090 24.0791 153.0986 0.0000 0.0000 0.0000
# 4 0.0000 0.0000 0.0000 61.4168 0.0000 0.0000
# 5 0.0000 0.0000 0.0000 0.0000 -34.6902 0.0000
# 6 0.0000 0.0000 0.0000 0.0000 0.0000 35.6589
#
#
#
# Elastic Compliance Matrix: (Units=1/GPa)
#
#
# Indices 1 2 3 4 5 6 
#
# 1 0.006639 -0.002744 -0.001876 0.000000 0.000000 0.000000
# 2 -0.002744 0.008283 -0.000349 0.000000 0.000000 0.000000
# 3 -0.001876 -0.000349 0.007239 0.000000 0.000000 0.000000
# 4 0.000000 0.000000 0.000000 0.016282 0.000000 0.000000
# 5 0.000000 0.000000 0.000000 0.000000 -0.028827 0.000000
# 6 0.000000 0.000000 0.000000 0.000000 0.000000 0.028044
#
#
# Mechanical properties :
#
#
# Convention : Reuss Voigt Hill
#
# Bulk Modulus (GPa) = 81.81446 86.30385 84.05916
# Shear Modulus (GPa) = 96.76682 35.56502 66.16592
#
# Velocity S-wave (km/s) = 6.08747 3.69050 5.03374
# Velocity P-wave (km/s) = 8.98559 7.15613 8.12253
#
# Compressibility (1/GPa) = 0.01222278
#
# Stress axis : x y z
#
# Youngs Moduli (GPa) = 150.63293 120.73186 138.14932
#
# Poissons Ratio (x) = 0.33127 0.25913
# Poissons Ratio (y) = 0.41331 0.04823
# Poissons Ratio (z) = 0.28254 0.04215
#
# Static dielectric constant tensor:
#      x y z
#    x 5.085560 0.000000 0.000000 
#    y 0.000000 4.896310 0.000000 
#    z 0.000000 0.000000 5.868850 
# 
# 
# High freq. dielectric constant tensor:
#      x y z
#    x 2.066220 0.000000 0.000000 
#    y 0.000000 2.052070 0.000000 
#    z 0.000000 0.000000 2.044740 
# 
# From -- ./inp_files/41737.got.cif
#   From: 2010.03.12/outbox.cif.g09.slc.cpg/sg72_21_cif.got.tgz:41737.got - 2010.04.16 14:54:00.
