data_PCOD8295509
_publ_section_title
;
Structure prediction by ZEFSAII (Michael W. Deem and Ramdas Pophale) SiO2 
 PCOD8295509
Probable space group: I B A M
;
_chemical_formula_sum "Si O2"
_cell_formula_units_Z 96
_cell_length_a 13.008353
_cell_length_b 25.997370
_cell_length_c 16.971737
_cell_angle_alpha 90.000000
_cell_angle_beta 90.000000
_cell_angle_gamma 90.000000
_cell_volume 5739.552357
_symmetry_space_group_name_H-M "I B A M"
_symmetry_group_IT_number 72
_symmetry_cell_setting 'orthorhombic'
loop_
_space_group_symop_operation_xyz
x,y,z
-x,-y,z
x,-y,1/2-z
-x,y,1/2-z
-x,-y,-z
x,y,-z
-x,y,1/2+z
x,-y,1/2+z
1/2+x,1/2+y,1/2+z
1/2-x,1/2-y,1/2+z
1/2+x,1/2-y,-z
1/2-x,1/2+y,-z
1/2-x,1/2-y,1/2-z
1/2+x,1/2+y,1/2-z
1/2-x,1/2+y,z
1/2+x,1/2-y,z
loop_
_atom_site_type_symbol
_atom_site_label
_atom_site_fract_x
_atom_site_fract_y
_atom_site_fract_z
Si Si1 0.111569 0.103696 0.411274
Si Si2 0.747137 0.713397 0.675195
Si Si3 0.618063 0.857622 0.733144
Si Si4 0.217750 0.058409 0.269870
Si Si5 0.576026 0.631981 0.679497
Si Si6 0.224197 0.310128 0.911163
O O1 0.124529 0.083322 0.500000
O O2 0.155273 0.060387 0.352392
O O3 0.175061 0.155808 0.395501
O O4 0.991431 0.115834 0.396149
O O5 0.750000 0.750000 0.750000
O O6 0.838097 0.672329 0.689857
O O7 0.640499 0.683259 0.663076
O O8 0.759818 0.750587 0.599698
O O9 0.500000 0.868087 0.750000
O O10 0.673698 0.912464 0.723354
O O11 0.635877 0.825422 0.652007
O O12 0.148951 0.084228 0.201848
O O13 0.241702 0.000000 0.250000
O O14 0.500000 0.645898 0.750000
O O15 0.182102 0.317846 0.000000
#
# Coordination Sequence:
#
# PCOD8295509 Si02
#       6
#    16  16  16  16  16  16
#     4   9  18  32  49  70  95 122 153 192 240 289
#     4   9  17  28  43  66  95 125 157 190 225 270
#     4   9  18  32  50  70  94 126 163 199 232 273
#     4   9  18  33  51  70  92 119 155 198 238 281
#     4   9  17  29  45  66  92 121 152 191 234 278
#     4   9  18  31  47  69  97 128 160 194 233 275
#
# _framework density 16.726043000000001
#
# number of rings (size 3 to 8) (size 9 to 14) (size 15 to 20)
#    0.000    3.000    0.000    3.000    0.000    9.333 
#    0.000    4.167    0.000    3.000    0.000    4.667 
#    0.000    0.000    0.000    0.000    0.000    0.000 
#
# Total GULP energy -594909.738840 kJ/mol
# GULP energy per Si atom -12393.952892 kJ/mol
# Density = 1.668797 g / cm^3
# Si number density = 16.726043 Si / 1000 Ang^3
#
#
#
# Elastic Constant Matrix: (Units=GPa)
#
#
# Indices 1 2 3 4 5 6 
#
# 1 107.7024 33.9184 34.7620 0.0000 0.0000 0.0000
# 2 33.9184 104.6912 36.1782 0.0000 0.0000 0.0000
# 3 34.7620 36.1782 81.5718 0.0000 0.0000 0.0000
# 4 0.0000 0.0000 0.0000 17.4153 0.0000 0.0000
# 5 0.0000 0.0000 0.0000 0.0000 18.6329 0.0000
# 6 0.0000 0.0000 0.0000 0.0000 0.0000 12.5397
#
#
#
# Elastic Compliance Matrix: (Units=1/GPa)
#
#
# Indices 1 2 3 4 5 6 
#
# 1 0.011233 -0.002344 -0.003747 0.000000 0.000000 0.000000
# 2 -0.002344 0.011770 -0.004221 0.000000 0.000000 0.000000
# 3 -0.003747 -0.004221 0.015728 0.000000 0.000000 0.000000
# 4 0.000000 0.000000 0.000000 0.057421 0.000000 0.000000
# 5 0.000000 0.000000 0.000000 0.000000 0.053669 0.000000
# 6 0.000000 0.000000 0.000000 0.000000 0.000000 0.079747
#
#
# Mechanical properties :
#
#
# Convention : Reuss Voigt Hill
#
# Bulk Modulus (GPa) = 55.23119 55.96473 55.59796
# Shear Modulus (GPa) = 19.51394 22.32469 20.91931
#
# Velocity S-wave (km/s) = 3.41938 3.65735 3.54036
# Velocity P-wave (km/s) = 6.97727 7.16710 7.07282
#
# Compressibility (1/GPa) = 0.01810571
#
# Stress axis : x y z
#
# Youngs Moduli (GPa) = 89.02721 84.96072 63.58044
#
# Poissons Ratio (x) = 0.19917 0.23824
# Poissons Ratio (y) = 0.20871 0.26839
# Poissons Ratio (z) = 0.33359 0.35864
#
# Static dielectric constant tensor:
#      x y z
#    x 3.073250 0.000000 0.000000 
#    y 0.000000 3.124470 0.000000 
#    z 0.000000 0.000000 2.633450 
# 
# 
# High freq. dielectric constant tensor:
#      x y z
#    x 1.633100 0.000000 0.000000 
#    y 0.000000 1.635790 0.000000 
#    z 0.000000 0.000000 1.629890 
# 
# From -- ./inp_files/29571.got.cif
#   From: 2010.03.12/outbox.cif.g09.slc.cpg/sg72_15_cif.got.tgz:29571.got - 2010.04.16 14:54:00.
