data_PCOD8295900
_publ_section_title
;
Structure prediction by ZEFSAII (Michael W. Deem and Ramdas Pophale) SiO2 
 PCOD8295900
Probable space group: I B C A 
;
_chemical_formula_sum "Si O2"
_cell_formula_units_Z 64
_cell_length_a 8.120800
_cell_length_b 16.099912
_cell_length_c 20.428320
_cell_angle_alpha 90.000000
_cell_angle_beta 90.000000
_cell_angle_gamma 90.000000
_cell_volume 2670.883648
_symmetry_space_group_name_H-M "I B C A "
_symmetry_group_IT_number 73
_symmetry_cell_setting 'orthorhombic'
loop_
_space_group_symop_operation_xyz
x,y,z
-x,1/2-y,z
x,-y,1/2-z
1/2-x,y,-z
-x,-y,-z
x,1/2+y,-z
-x,y,1/2+z
1/2+x,-y,z
1/2+x,1/2+y,1/2+z
1/2-x,-y,1/2+z
1/2+x,1/2-y,-z
-x,1/2+y,1/2-z
1/2-x,1/2-y,1/2-z
1/2+x,y,1/2-z
1/2-x,1/2+y,z
x,1/2-y,1/2+z
loop_
_atom_site_type_symbol
_atom_site_label
_atom_site_fract_x
_atom_site_fract_y
_atom_site_fract_z
Si Si1 0.695445 0.178888 0.700462
Si Si2 0.713179 0.119226 0.428630
Si Si3 0.586410 0.468109 0.376235
Si Si4 0.377890 0.413404 0.201360
O O1 0.750000 0.250000 0.750000
O O2 0.763495 0.190939 0.626678
O O3 0.782493 0.093176 0.728439
O O4 0.497509 0.167373 0.697033
O O5 0.750000 0.157546 0.500000
O O6 0.528029 0.084187 0.425118
O O7 0.845901 0.046717 0.415957
O O8 0.482382 0.502274 0.312622
O O9 0.732900 0.407495 0.352925
#
# Coordination Sequence:
#
# PCOD8295900 Si02
#       4
#    16  16  16  16
#     4  11  23  38  58  84 119 165 214 254 298 372
#     4  10  20  36  60  89 124 162 200 257 324 385
#     4   9  20  36  59  93 123 151 199 260 328 388
#     4  10  21  36  59  88 119 156 203 265 318 368
#
# _framework density 23.962108000000001
#
# number of rings (size 3 to 8) (size 9 to 14) (size 15 to 20)
#    0.000    2.000    0.000    3.000    0.000   17.000 
#    0.000    0.000    0.000   30.000    0.000    0.000 
#    0.000    0.000    0.000    0.000    0.000    0.000 
#
# Total GULP energy -396494.879255 kJ/mol
# GULP energy per Si atom -12390.464977 kJ/mol
# Density = 2.390757 g / cm^3
# Si number density = 23.962108 Si / 1000 Ang^3
#
#
#
# Elastic Constant Matrix: (Units=GPa)
#
#
# Indices 1 2 3 4 5 6 
#
# 1 162.1755 40.6499 61.0505 0.0000 0.0000 0.0000
# 2 40.6499 56.5196 48.7093 0.0000 0.0000 0.0000
# 3 61.0505 48.7093 188.6234 0.0000 0.0000 0.0000
# 4 0.0000 0.0000 0.0000 32.9800 0.0000 0.0000
# 5 0.0000 0.0000 0.0000 0.0000 30.5614 0.0000
# 6 0.0000 0.0000 0.0000 0.0000 0.0000 18.5517
#
#
#
# Elastic Compliance Matrix: (Units=1/GPa)
#
#
# Indices 1 2 3 4 5 6 
#
# 1 0.007793 -0.004413 -0.001383 0.000000 0.000000 0.000000
# 2 -0.004413 0.025257 -0.005094 0.000000 0.000000 0.000000
# 3 -0.001383 -0.005094 0.007064 0.000000 0.000000 0.000000
# 4 0.000000 0.000000 0.000000 0.030321 0.000000 0.000000
# 5 0.000000 0.000000 0.000000 0.000000 0.032721 0.000000
# 6 0.000000 0.000000 0.000000 0.000000 0.000000 0.053903
#
#
# Mechanical properties :
#
#
# Convention : Reuss Voigt Hill
#
# Bulk Modulus (GPa) = 54.54058 78.68198 66.61128
# Shear Modulus (GPa) = 27.03416 33.54587 30.29001
#
# Velocity S-wave (km/s) = 3.36252 3.74566 3.55925
# Velocity P-wave (km/s) = 6.15516 7.18428 6.68954
#
# Compressibility (1/GPa) = 0.01833497
#
# Stress axis : x y z
#
# Youngs Moduli (GPa) = 128.32322 39.59297 141.55308
#
# Poissons Ratio (x) = 0.17473 0.19571
# Poissons Ratio (y) = 0.56632 0.72105
# Poissons Ratio (z) = 0.17742 0.20168
#
# Static dielectric constant tensor:
#      x y z
#    x 4.952470 0.000000 0.000000 
#    y 0.000000 3.992490 0.000000 
#    z 0.000000 0.000000 4.206910 
# 
# 
# High freq. dielectric constant tensor:
#      x y z
#    x 1.985790 0.000000 0.000000 
#    y 0.000000 1.913800 0.000000 
#    z 0.000000 0.000000 1.927470 
# 
# From -- ./inp_files/5966.got.cif
#   From: 2010.03.12/outbox.cif.g09.slc.cpg/sg73_3_cif.got.tgz:5966.got - 2010.04.16 15:25:48.
