data_PCOD8295340
_publ_section_title
;
Structure prediction by ZEFSAII (Michael W. Deem and Ramdas Pophale) SiO2 
 PCOD8295340
Probable space group: I B A M
;
_chemical_formula_sum "Si O2"
_cell_formula_units_Z 64
_cell_length_a 21.304093
_cell_length_b 7.232976
_cell_length_c 17.960221
_cell_angle_alpha 90.000000
_cell_angle_beta 90.000000
_cell_angle_gamma 90.000000
_cell_volume 2767.526255
_symmetry_space_group_name_H-M "I B A M"
_symmetry_group_IT_number 72
_symmetry_cell_setting 'orthorhombic'
loop_
_space_group_symop_operation_xyz
x,y,z
-x,-y,z
x,-y,1/2-z
-x,y,1/2-z
-x,-y,-z
x,y,-z
-x,y,1/2+z
x,-y,1/2+z
1/2+x,1/2+y,1/2+z
1/2-x,1/2-y,1/2+z
1/2+x,1/2-y,-z
1/2-x,1/2+y,-z
1/2-x,1/2-y,1/2-z
1/2+x,1/2+y,1/2-z
1/2-x,1/2+y,z
1/2+x,1/2-y,z
loop_
_atom_site_type_symbol
_atom_site_label
_atom_site_fract_x
_atom_site_fract_y
_atom_site_fract_z
Si Si1 0.612418 0.340591 0.080596
Si Si2 0.067540 0.286832 0.230979
Si Si3 0.160511 0.811601 0.854999
Si Si4 0.283399 0.946782 0.084313
O O1 0.571625 0.241560 0.143087
O O2 0.616407 0.561804 0.092818
O O3 0.681526 0.249524 0.082482
O O4 0.580752 0.305632 0.000000
O O5 0.068272 0.500000 0.250000
O O6 0.126524 0.192340 0.274130
O O7 0.000000 0.198155 0.250000
O O8 0.227884 0.916282 0.855170
O O9 0.168917 0.606528 0.888447
O O10 0.258969 0.991985 0.000000
#
# Coordination Sequence:
#
# PCOD8295340 Si02
#       4
#    16  16  16  16
#     4  11  24  44  70 104 143 186 232 294 361 427
#     4  11  26  51  73 101 142 193 250 305 350 422
#     4  12  23  42  73 102 142 192 230 289 365 422
#     4  11  22  39  64 107 151 179 226 291 356 432
#
# _framework density 23.125344999999999
#
# number of rings (size 3 to 8) (size 9 to 14) (size 15 to 20)
#    0.000    0.750    5.000    3.000    0.000    3.000 
#    4.500    7.500    0.000    0.000    0.000    0.000 
#    0.000    0.000    0.000    0.000    0.000    0.000 
#
# Total GULP energy -396554.142898 kJ/mol
# GULP energy per Si atom -12392.316966 kJ/mol
# Density = 2.307271 g / cm^3
# Si number density = 23.125345 Si / 1000 Ang^3
#
#
#
# Elastic Constant Matrix: (Units=GPa)
#
#
# Indices 1 2 3 4 5 6 
#
# 1 106.3951 18.4569 81.0844 0.0000 0.0000 0.0000
# 2 18.4569 122.3834 44.3028 0.0000 0.0000 0.0000
# 3 81.0844 44.3028 197.7668 0.0000 0.0000 0.0000
# 4 0.0000 0.0000 0.0000 28.9408 0.0000 0.0000
# 5 0.0000 0.0000 0.0000 0.0000 -16.7336 0.0000
# 6 0.0000 0.0000 0.0000 0.0000 0.0000 -4.4069
#
#
#
# Elastic Compliance Matrix: (Units=1/GPa)
#
#
# Indices 1 2 3 4 5 6 
#
# 1 0.013671 -0.000036 -0.005597 0.000000 0.000000 0.000000
# 2 -0.000036 0.008892 -0.001977 0.000000 0.000000 0.000000
# 3 -0.005597 -0.001977 0.007794 0.000000 0.000000 0.000000
# 4 0.000000 0.000000 0.000000 0.034553 0.000000 0.000000
# 5 0.000000 0.000000 0.000000 0.000000 -0.059760 0.000000
# 6 0.000000 0.000000 0.000000 0.000000 0.000000 -0.226919
#
#
# Mechanical properties :
#
#
# Convention : Reuss Voigt Hill
#
# Bulk Modulus (GPa) = 66.06294 79.35929 72.71111
# Shear Modulus (GPa) = -24.81347 20.40682 -2.20333
#
# Velocity S-wave (km/s) = -3.27922 2.97382 -0.97716
# Velocity P-wave (km/s) = 3.78043 6.79581 5.49885
#
# Compressibility (1/GPa) = 0.01513708
#
# Stress axis : x y z
#
# Youngs Moduli (GPa) = 73.14968 112.45775 128.30069
#
# Poissons Ratio (x) = 0.00400 0.71810
# Poissons Ratio (y) = 0.00260 0.25370
# Poissons Ratio (z) = 0.40942 0.22237
#
# Static dielectric constant tensor:
#      x y z
#    x 4.096780 0.000000 0.000000 
#    y 0.000000 4.365890 0.000000 
#    z 0.000000 0.000000 4.168230 
# 
# 
# High freq. dielectric constant tensor:
#      x y z
#    x 1.883950 0.000000 0.000000 
#    y 0.000000 1.939710 0.000000 
#    z 0.000000 0.000000 1.907250 
# 
# From -- ./inp_files/27680.got.cif
#   From: 2010.03.12/outbox.cif.g09.slc.cpg/sg72_14_cif.got.tgz:27680.got - 2010.04.16 14:54:00.
