data_PCOD8295242
_publ_section_title
;
Structure prediction by ZEFSAII (Michael W. Deem and Ramdas Pophale) SiO2 
 PCOD8295242
Probable space group: I B A M
;
_chemical_formula_sum "Si O2"
_cell_formula_units_Z 96
_cell_length_a 9.098728
_cell_length_b 21.735569
_cell_length_c 22.502096
_cell_angle_alpha 90.000000
_cell_angle_beta 90.000000
_cell_angle_gamma 90.000000
_cell_volume 4450.150198
_symmetry_space_group_name_H-M "I B A M"
_symmetry_group_IT_number 72
_symmetry_cell_setting 'orthorhombic'
loop_
_space_group_symop_operation_xyz
x,y,z
-x,-y,z
x,-y,1/2-z
-x,y,1/2-z
-x,-y,-z
x,y,-z
-x,y,1/2+z
x,-y,1/2+z
1/2+x,1/2+y,1/2+z
1/2-x,1/2-y,1/2+z
1/2+x,1/2-y,-z
1/2-x,1/2+y,-z
1/2-x,1/2-y,1/2-z
1/2+x,1/2+y,1/2-z
1/2-x,1/2+y,z
1/2+x,1/2-y,z
loop_
_atom_site_type_symbol
_atom_site_label
_atom_site_fract_x
_atom_site_fract_y
_atom_site_fract_z
Si Si1 0.549344 0.820385 0.412620
Si Si2 0.073950 0.408660 0.500000
Si Si3 0.618961 0.688172 0.434342
Si Si4 0.345107 0.340363 0.779883
Si Si5 0.264963 0.973890 0.000000
Si Si6 0.340702 0.388263 0.096797
Si Si7 0.163975 0.701443 0.824022
O O1 0.429582 0.865876 0.441899
O O2 0.531923 0.752535 0.439620
O O3 0.714496 0.841833 0.425632
O O4 0.502402 0.818757 0.342410
O O5 0.220452 0.451620 0.500000
O O6 0.928749 0.449569 0.500000
O O7 0.687500 0.672647 0.500000
O O8 0.501336 0.636053 0.418306
O O9 0.737082 0.693440 0.382379
O O10 0.500000 0.353990 0.750000
O O11 0.320867 0.392259 0.831136
O O12 0.218942 0.341889 0.729464
O O13 0.343070 0.273027 0.808645
O O14 0.181170 0.952204 0.939320
#
# Coordination Sequence:
#
# PCOD8295242 Si02
#       7
#    16   8  16  16   8  16  16
#     4  11  20  33  53  84 114 148 190 239 291 349
#     4   9  20  35  59  81 113 143 188 251 298 346
#     4  12  21  33  52  85 121 159 189 231 296 360
#     4  11  21  35  53  80 119 164 194 223 283 357
#     4   9  20  39  57  83 107 149 194 243 304 342
#     4  11  21  35  56  80 115 154 191 238 288 357
#     4  11  23  33  50  82 125 156 186 230 282 359
#
# _framework density 21.572306000000001
#
# number of rings (size 3 to 8) (size 9 to 14) (size 15 to 20)
#    0.000    1.167    6.667    0.000    3.500    1.333 
#    0.000    0.000    0.000    3.000    0.000    5.833 
#    0.000    0.000    0.000    0.000    0.000    0.000 
#
# Total GULP energy -594753.094628 kJ/mol
# GULP energy per Si atom -12390.689471 kJ/mol
# Density = 2.152321 g / cm^3
# Si number density = 21.572306 Si / 1000 Ang^3
#
#
#
# Elastic Constant Matrix: (Units=GPa)
#
#
# Indices 1 2 3 4 5 6 
#
# 1 23.3355 9.8350 12.2791 0.0000 0.0000 0.0000
# 2 9.8350 48.6814 18.0291 0.0000 0.0000 0.0000
# 3 12.2791 18.0291 152.4919 0.0000 0.0000 0.0000
# 4 0.0000 0.0000 0.0000 15.8091 0.0000 0.0000
# 5 0.0000 0.0000 0.0000 0.0000 42.9091 0.0000
# 6 0.0000 0.0000 0.0000 0.0000 0.0000 24.9606
#
#
#
# Elastic Compliance Matrix: (Units=1/GPa)
#
#
# Indices 1 2 3 4 5 6 
#
# 1 0.047992 -0.008643 -0.002843 0.000000 0.000000 0.000000
# 2 -0.008643 0.023039 -0.002028 0.000000 0.000000 0.000000
# 3 -0.002843 -0.002028 0.007026 0.000000 0.000000 0.000000
# 4 0.000000 0.000000 0.000000 0.063255 0.000000 0.000000
# 5 0.000000 0.000000 0.000000 0.000000 0.023305 0.000000
# 6 0.000000 0.000000 0.000000 0.000000 0.000000 0.040063
#
#
# Mechanical properties :
#
#
# Convention : Reuss Voigt Hill
#
# Bulk Modulus (GPa) = 19.59628 33.86613 26.73121
# Shear Modulus (GPa) = 20.10319 29.02679 24.56499
#
# Velocity S-wave (km/s) = 3.05601 3.67216 3.37817
# Velocity P-wave (km/s) = 4.64284 5.80626 5.25684
#
# Compressibility (1/GPa) = 0.05103009
#
# Stress axis : x y z
#
# Youngs Moduli (GPa) = 20.83696 43.40485 142.32084
#
# Poissons Ratio (x) = 0.37514 0.40456
# Poissons Ratio (y) = 0.18009 0.28862
# Poissons Ratio (z) = 0.05923 0.08802
#
# Static dielectric constant tensor:
#      x y z
#    x 3.987920 0.000000 0.000000 
#    y 0.000000 3.700490 0.000000 
#    z 0.000000 0.000000 4.424400 
# 
# 
# High freq. dielectric constant tensor:
#      x y z
#    x 1.861520 0.000000 0.000000 
#    y 0.000000 1.786770 0.000000 
#    z 0.000000 0.000000 1.862800 
# 
# From -- ./inp_files/42498.got.cif
#   From: 2010.03.12/outbox.cif.g09.slc.cpg/sg72_22_cif.got.tgz:42498.got - 2010.04.16 14:54:00.
