data_PCOD8295352
_publ_section_title
;
Structure prediction by ZEFSAII (Michael W. Deem and Ramdas Pophale) SiO2 
 PCOD8295352
Probable space group: I B A M
;
_chemical_formula_sum "Si O2"
_cell_formula_units_Z 80
_cell_length_a 24.539792
_cell_length_b 8.987338
_cell_length_c 17.909763
_cell_angle_alpha 90.000000
_cell_angle_beta 90.000000
_cell_angle_gamma 90.000000
_cell_volume 3949.951757
_symmetry_space_group_name_H-M "I B A M"
_symmetry_group_IT_number 72
_symmetry_cell_setting 'orthorhombic'
loop_
_space_group_symop_operation_xyz
x,y,z
-x,-y,z
x,-y,1/2-z
-x,y,1/2-z
-x,-y,-z
x,y,-z
-x,y,1/2+z
x,-y,1/2+z
1/2+x,1/2+y,1/2+z
1/2-x,1/2-y,1/2+z
1/2+x,1/2-y,-z
1/2-x,1/2+y,-z
1/2-x,1/2-y,1/2-z
1/2+x,1/2+y,1/2-z
1/2-x,1/2+y,z
1/2+x,1/2-y,z
loop_
_atom_site_type_symbol
_atom_site_label
_atom_site_fract_x
_atom_site_fract_y
_atom_site_fract_z
Si Si1 0.185922 0.931429 0.583770
Si Si2 0.062200 0.336436 0.227919
Si Si3 0.147865 0.869541 0.804690
Si Si4 0.875928 0.629543 0.085180
Si Si5 0.796975 0.574669 0.329822
O O1 0.198409 0.980376 0.500000
O O2 0.167403 0.762042 0.588602
O O3 0.239939 0.955526 0.631522
O O4 0.139513 0.044220 0.616298
O O5 0.083411 0.500000 0.250000
O O6 0.093732 0.209396 0.273878
O O7 0.072873 0.325214 0.138555
O O8 0.000000 0.313932 0.250000
O O9 0.195755 0.750214 0.815825
O O10 0.168553 0.000000 0.750000
O O11 0.845473 0.483814 0.116138
O O12 0.896707 0.603780 0.000000
O O13 0.800891 0.500000 0.250000
#
# Coordination Sequence:
#
# PCOD8295352 Si02
#       5
#    16  16  16  16  16
#     4  11  25  39  58  94 137 172 209 265 319 375
#     4  11  23  46  70  93 120 165 221 271 323 394
#     4  12  22  41  64  95 128 168 217 264 321 379
#     4  11  22  42  64  92 132 168 208 268 324 376
#     4  12  22  38  63  93 127 177 219 248 305 388
#
# _framework density 20.253412000000001
#
# number of rings (size 3 to 8) (size 9 to 14) (size 15 to 20)
#    0.000    0.600    6.000    2.400    0.000    6.000 
#    0.000    3.000    0.000    2.400    0.000    0.000 
#    0.000    0.000    0.000    0.000    0.000    0.000 
#
# Total GULP energy -495837.218197 kJ/mol
# GULP energy per Si atom -12395.930455 kJ/mol
# Density = 2.020731 g / cm^3
# Si number density = 20.253412 Si / 1000 Ang^3
#
#
#
# Elastic Constant Matrix: (Units=GPa)
#
#
# Indices 1 2 3 4 5 6 
#
# 1 89.7606 25.7612 74.1486 0.0000 0.0000 0.0000
# 2 25.7612 128.0078 55.4207 0.0000 0.0000 0.0000
# 3 74.1486 55.4207 164.6882 0.0000 0.0000 0.0000
# 4 0.0000 0.0000 0.0000 31.7147 0.0000 0.0000
# 5 0.0000 0.0000 0.0000 0.0000 26.5994 0.0000
# 6 0.0000 0.0000 0.0000 0.0000 0.0000 27.4418
#
#
#
# Elastic Compliance Matrix: (Units=1/GPa)
#
#
# Indices 1 2 3 4 5 6 
#
# 1 0.017740 -0.000131 -0.007943 0.000000 0.000000 0.000000
# 2 -0.000131 0.009145 -0.003018 0.000000 0.000000 0.000000
# 3 -0.007943 -0.003018 0.010664 0.000000 0.000000 0.000000
# 4 0.000000 0.000000 0.000000 0.031531 0.000000 0.000000
# 5 0.000000 0.000000 0.000000 0.000000 0.037595 0.000000
# 6 0.000000 0.000000 0.000000 0.000000 0.000000 0.036441
#
#
# Mechanical properties :
#
#
# Convention : Reuss Voigt Hill
#
# Bulk Modulus (GPa) = 65.08773 77.01306 71.05039
# Shear Modulus (GPa) = 29.33887 32.29295 30.81591
#
# Velocity S-wave (km/s) = 3.81016 3.99738 3.90489
# Velocity P-wave (km/s) = 7.18073 7.70796 7.44901
#
# Compressibility (1/GPa) = 0.01536388
#
# Stress axis : x y z
#
# Youngs Moduli (GPa) = 56.37026 109.34614 93.77278
#
# Poissons Ratio (x) = 0.01435 0.74483
# Poissons Ratio (y) = 0.00740 0.28305
# Poissons Ratio (z) = 0.44775 0.33006
#
# Static dielectric constant tensor:
#      x y z
#    x 3.322600 0.000000 0.000000 
#    y 0.000000 4.045430 0.000000 
#    z 0.000000 0.000000 4.138760 
# 
# 
# High freq. dielectric constant tensor:
#      x y z
#    x 1.759240 0.000000 0.000000 
#    y 0.000000 1.807700 0.000000 
#    z 0.000000 0.000000 1.804270 
# 
# From -- ./inp_files/33758.got.cif
#   From: 2010.03.12/outbox.cif.g09.slc.cpg/sg72_17_cif.got.tgz:33758.got - 2010.04.16 14:54:00.
