data_PCOD8295515
_publ_section_title
;
Structure prediction by ZEFSAII (Michael W. Deem and Ramdas Pophale) SiO2 
 PCOD8295515
Probable space group: I B A M
;
_chemical_formula_sum "Si O2"
_cell_formula_units_Z 56
_cell_length_a 15.000000
_cell_length_b 24.000000
_cell_length_c 15.000000
_cell_angle_alpha 90.000000
_cell_angle_beta 90.000000
_cell_angle_gamma 90.000000
_cell_volume 5400.000000
_symmetry_space_group_name_H-M "I B A M"
_symmetry_group_IT_number 72
_symmetry_cell_setting 'orthorhombic'
loop_
_space_group_symop_operation_xyz
x,y,z
-x,-y,z
x,-y,1/2-z
-x,y,1/2-z
-x,-y,-z
x,y,-z
-x,y,1/2+z
x,-y,1/2+z
1/2+x,1/2+y,1/2+z
1/2-x,1/2-y,1/2+z
1/2+x,1/2-y,-z
1/2-x,1/2+y,-z
1/2-x,1/2-y,1/2-z
1/2+x,1/2+y,1/2-z
1/2-x,1/2+y,z
1/2+x,1/2-y,z
loop_
_atom_site_type_symbol
_atom_site_label
_atom_site_fract_x
_atom_site_fract_y
_atom_site_fract_z
Si Si1 0.470440 0.122334 0.603506
Si Si2 0.637784 0.519045 0.100625
Si Si3 0.335268 0.140845 0.832399
Si Si4 0.823206 0.552006 0.809604
Si Si5 0.342592 0.676862 0.096677
Si Si6 0.909179 0.728394 0.215017
Si Si7 0.972352 0.083148 0.347707
O O1 0.461448 0.132502 0.500000
O O2 0.574903 0.112348 0.627710
O O3 0.409172 0.069273 0.630556
O O4 0.434651 0.177285 0.651075
O O5 0.734687 0.538262 0.133948
O O6 0.597476 0.468498 0.159100
O O7 0.563960 0.568301 0.100568
O O8 0.649639 0.497555 0.000000
O O9 0.297210 0.103426 0.752778
O O10 0.253144 0.145684 0.900487
O O11 0.355442 0.203351 0.798486
O O12 0.853154 0.500000 0.750000
O O13 0.347953 0.725614 0.169071
O O14 0.424005 0.634080 0.104705
O O15 0.351061 0.704926 0.000000
O O16 0.000000 0.757213 0.250000
O O17 0.000000 0.101951 0.250000
#
# Coordination Sequence:
#
# PCOD8295515 Si02
#       7
#    16  16  16  16  16  16  16
#     4  10  21  41  62  85 114 149 189 239 290 334
#     4  11  21  37  58  85 117 152 190 237 288 339
#     4  10  22  39  59  82 115 155 189 228 289 351
#     4  11  22  38  60  84 111 149 194 234 280 343
#     4  12  22  35  57  88 117 147 191 242 280 331
#     4   9  20  38  61  83 111 151 191 232 286 345
#     4  11  22  37  57  82 118 158 189 227 286 351
#
# _framework density 10.370369999999999
#
# number of rings (size 3 to 8) (size 9 to 14) (size 15 to 20)
#    0.000    1.429    0.000    8.571    0.000    1.143 
#    0.000    4.286    0.000    0.000    0.000    0.000 
#    0.000    0.000    0.000    0.000    0.000    0.000 
#
# Total GULP energy -694269.904203 kJ/mol
# GULP energy per Si atom -12397.676861 kJ/mol
# Density = 1.034677 g / cm^3
# Si number density = 10.370370 Si / 1000 Ang^3
#
#
#
# Elastic Constant Matrix: (Units=GPa)
#
#
# Indices 1 2 3 4 5 6 
#
# 1 149.0269 36.9319 38.2330 0.0000 0.0000 0.0000
# 2 36.9319 51.4595 4.9711 0.0001 0.0000 0.0000
# 3 38.2330 4.9711 81.7269 0.0001 0.0000 0.0000
# 4 0.0000 0.0001 0.0001 15.5972 0.0000 0.0000
# 5 0.0000 0.0000 0.0000 0.0000 17.7375 0.0000
# 6 0.0000 0.0000 0.0000 0.0000 0.0000 27.4361
#
#
#
# Elastic Compliance Matrix: (Units=1/GPa)
#
#
# Indices 1 2 3 4 5 6 
#
# 1 0.009282 -0.006279 -0.003960 0.000000 0.000000 0.000000
# 2 -0.006279 0.023795 0.001490 0.000000 0.000000 0.000000
# 3 -0.003960 0.001490 0.013998 0.000000 0.000000 0.000000
# 4 0.000000 0.000000 0.000000 0.064114 0.000000 0.000000
# 5 0.000000 0.000000 0.000000 0.000000 0.056378 0.000000
# 6 0.000000 0.000000 0.000000 0.000000 0.000000 0.036448
#
#
# Mechanical properties :
#
#
# Convention : Reuss Voigt Hill
#
# Bulk Modulus (GPa) = 33.81057 49.16504 41.48781
# Shear Modulus (GPa) = 21.61000 25.62596 23.61798
#
# Velocity S-wave (km/s) = 3.23137 3.51883 3.37816
# Velocity P-wave (km/s) = 5.50084 6.34552 5.93822
#
# Compressibility (1/GPa) = 0.02957655
#
# Stress axis : x y z
#
# Youngs Moduli (GPa) = 107.73075 42.02497 71.43876
#
# Poissons Ratio (x) = 0.26389 0.28293
# Poissons Ratio (y) = 0.67647 -0.10646
# Poissons Ratio (z) = 0.42667 -0.06262
#
# Static dielectric constant tensor:
#      x y z
#    x 4.013160 0.000000 0.000000 
#    y 0.000000 3.592950 0.000000 
#    z 0.000000 0.000000 3.718900 
# 
# 
# High freq. dielectric constant tensor:
#      x y z
#    x 1.833180 0.000000 0.000000 
#    y 0.000000 1.795310 0.000000 
#    z 0.000000 0.000000 1.807440 
# 
# From -- ./inp_files/22158.got.cif
#   From: 2010.03.12/outbox.ucp.g09.slc.cvg/sg72_12_cif.got.tgz:22158.got - 2010.05.04 20:02:29.
