data_PCOD8295464
_publ_section_title
;
Structure prediction by ZEFSAII (Michael W. Deem and Ramdas Pophale) SiO2 
 PCOD8295464
Probable space group: I B A M
;
_chemical_formula_sum "Si O2"
_cell_formula_units_Z 64
_cell_length_a 7.014856
_cell_length_b 17.043161
_cell_length_c 22.953624
_cell_angle_alpha 90.000000
_cell_angle_beta 90.000000
_cell_angle_gamma 90.000000
_cell_volume 2744.227867
_symmetry_space_group_name_H-M "I B A M"
_symmetry_group_IT_number 72
_symmetry_cell_setting 'orthorhombic'
loop_
_space_group_symop_operation_xyz
x,y,z
-x,-y,z
x,-y,1/2-z
-x,y,1/2-z
-x,-y,-z
x,y,-z
-x,y,1/2+z
x,-y,1/2+z
1/2+x,1/2+y,1/2+z
1/2-x,1/2-y,1/2+z
1/2+x,1/2-y,-z
1/2-x,1/2+y,-z
1/2-x,1/2-y,1/2-z
1/2+x,1/2+y,1/2-z
1/2-x,1/2+y,z
1/2+x,1/2-y,z
loop_
_atom_site_type_symbol
_atom_site_label
_atom_site_fract_x
_atom_site_fract_y
_atom_site_fract_z
Si Si1 0.646578 0.283760 0.000000
Si Si2 0.545437 0.349820 0.317428
Si Si3 0.254166 0.620491 0.500000
Si Si4 0.822247 0.307539 0.876262
Si Si5 0.140385 0.428798 0.878364
O O1 0.464441 0.340218 0.000000
O O2 0.777100 0.295681 0.056348
O O3 0.597067 0.190436 0.000000
O O4 0.500000 0.342748 0.250000
O O5 0.343732 0.361019 0.349114
O O6 0.655171 0.273845 0.342013
O O7 0.682914 0.424031 0.332541
O O8 0.226016 0.564920 0.556247
O O9 0.023798 0.349111 0.870652
O O10 0.000000 0.500000 0.863888
#
# Coordination Sequence:
#
# PCOD8295464 Si02
#       5
#     8  16   8  16  16
#     4  12  20  39  74 111 144 189 252 308 371 438
#     4  12  25  45  75 106 139 191 258 312 360 446
#     4  12  21  41  67 104 152 191 238 310 373 453
#     4  12  23  43  74 106 143 191 248 310 368 449
#     4  12  27  45  68 106 150 194 244 308 386 445
#
# _framework density 23.321677999999999
#
# number of rings (size 3 to 8) (size 9 to 14) (size 15 to 20)
#    0.000    0.000    7.500    3.375    0.000    1.000 
#    0.000    5.000    0.000    0.000    0.000    0.000 
#    0.000    0.000    0.000    0.000    0.000    0.000 
#
# Total GULP energy -396720.119792 kJ/mol
# GULP energy per Si atom -12397.503744 kJ/mol
# Density = 2.326860 g / cm^3
# Si number density = 23.321678 Si / 1000 Ang^3
#
#
#
# Elastic Constant Matrix: (Units=GPa)
#
#
# Indices 1 2 3 4 5 6 
#
# 1 122.2206 16.8242 77.0068 0.0000 0.0000 0.0000
# 2 16.8242 37.8752 34.2500 0.0000 0.0000 0.0000
# 3 77.0068 34.2500 197.5028 0.0000 0.0000 0.0000
# 4 0.0000 0.0000 0.0000 -88.3163 -0.0001 0.0000
# 5 0.0000 0.0000 0.0000 -0.0001 12.1843 0.0000
# 6 0.0000 0.0000 0.0000 0.0000 0.0000 39.3174
#
#
#
# Elastic Compliance Matrix: (Units=1/GPa)
#
#
# Indices 1 2 3 4 5 6 
#
# 1 0.010891 -0.001183 -0.004041 0.000000 0.000000 0.000000
# 2 -0.001183 0.031441 -0.004991 0.000000 0.000000 0.000000
# 3 -0.004041 -0.004991 0.007504 0.000000 0.000000 0.000000
# 4 0.000000 0.000000 0.000000 -0.011323 0.000000 0.000000
# 5 0.000000 0.000000 0.000000 0.000000 0.082073 0.000000
# 6 0.000000 0.000000 0.000000 0.000000 0.000000 0.025434
#
#
# Mechanical properties :
#
#
# Convention : Reuss Voigt Hill
#
# Bulk Modulus (GPa) = 34.00707 68.19565 51.10136
# Shear Modulus (GPa) = 28.36814 7.93825 18.15319
#
# Velocity S-wave (km/s) = 3.49145 1.84694 2.79298
# Velocity P-wave (km/s) = 5.55581 5.81834 5.68859
#
# Compressibility (1/GPa) = 0.02940565
#
# Stress axis : x y z
#
# Youngs Moduli (GPa) = 91.81839 31.80511 133.25467
#
# Poissons Ratio (x) = 0.03764 0.53851
# Poissons Ratio (y) = 0.10866 0.66508
# Poissons Ratio (z) = 0.37106 0.15874
#
# Static dielectric constant tensor:
#      x y z
#    x 4.770010 0.000000 0.000000 
#    y 0.000000 3.880700 0.000000 
#    z 0.000000 0.000000 4.358480 
# 
# 
# High freq. dielectric constant tensor:
#      x y z
#    x 1.956340 0.000000 0.000000 
#    y 0.000000 1.887080 0.000000 
#    z 0.000000 0.000000 1.923430 
# 
# From -- ./inp_files/35412.got.cif
#   From: 2010.03.12/outbox.cif.g09.slc.cpg/sg72_18_cif.got.tgz:35412.got - 2010.04.16 14:54:00.
