data_PCOD8295388
_publ_section_title
;
Structure prediction by ZEFSAII (Michael W. Deem and Ramdas Pophale) SiO2 
 PCOD8295388
Probable space group: I B A M
;
_chemical_formula_sum "Si O2"
_cell_formula_units_Z 96
_cell_length_a 25.844994
_cell_length_b 12.657437
_cell_length_c 14.806247
_cell_angle_alpha 90.000000
_cell_angle_beta 90.000000
_cell_angle_gamma 90.000000
_cell_volume 4843.588063
_symmetry_space_group_name_H-M "I B A M"
_symmetry_group_IT_number 72
_symmetry_cell_setting 'orthorhombic'
loop_
_space_group_symop_operation_xyz
x,y,z
-x,-y,z
x,-y,1/2-z
-x,y,1/2-z
-x,-y,-z
x,y,-z
-x,y,1/2+z
x,-y,1/2+z
1/2+x,1/2+y,1/2+z
1/2-x,1/2-y,1/2+z
1/2+x,1/2-y,-z
1/2-x,1/2+y,-z
1/2-x,1/2-y,1/2-z
1/2+x,1/2+y,1/2-z
1/2-x,1/2+y,z
1/2+x,1/2-y,z
loop_
_atom_site_type_symbol
_atom_site_label
_atom_site_fract_x
_atom_site_fract_y
_atom_site_fract_z
Si Si1 0.384916 1.000000 0.103824
Si Si2 0.773345 0.139691 0.500000
Si Si3 0.895541 0.876356 0.500000
Si Si4 0.104459 0.123644 0.000000
Si Si5 0.940002 0.720140 0.354016
Si Si6 0.270120 1.000000 0.149193
Si Si7 0.726655 0.639691 0.000000
Si Si8 0.059998 0.720141 0.354016
O O1 0.417024 0.104887 0.126089
O O2 0.332094 1.000000 0.159666
O O3 0.417024 0.895113 0.126089
O O4 0.368924 0.000000 0.000000
O O5 0.834176 0.127248 0.500000
O O6 0.750543 0.098389 0.406429
O O7 0.750000 0.250000 0.500000
O O8 0.915062 0.814758 0.411539
O O9 0.834176 0.872752 0.500000
O O10 0.913992 1.000000 0.500000
O O11 0.084938 0.185242 0.088461
O O12 0.930847 0.749773 0.250000
O O13 1.000000 0.713702 0.379119
O O14 0.246526 0.000000 0.250000
O O15 0.249457 0.901611 0.093571
#
# Coordination Sequence:
#
# PCOD8295388 Si02
#       8
#    16   8   8   8  16  16   8  16
#     4  12  21  40  71 101 136 166 208 271 339 399
#     4  11  23  43  65  92 126 165 216 268 314 381
#     4  12  25  44  65  92 133 178 219 270 318 376
#     4  12  25  44  65  92 133 178 219 270 318 376
#     4  11  25  43  67 100 132 170 219 270 329 390
#     4  11  23  41  64  95 128 162 205 257 326 385
#     4  11  23  43  65  92 126 165 216 268 314 381
#     4  11  25  43  67 100 132 170 219 270 329 390
#
# _framework density 19.820017
#
# number of rings (size 3 to 8) (size 9 to 14) (size 15 to 20)
#    0.000    0.667    5.000    4.500    0.000    6.000 
#    0.000    1.667    0.000    0.000    0.000    0.000 
#    0.000    0.000    0.000    0.000    0.000    0.000 
#
# Total GULP energy -594921.274122 kJ/mol
# GULP energy per Si atom -12394.193211 kJ/mol
# Density = 1.977491 g / cm^3
# Si number density = 19.820017 Si / 1000 Ang^3
#
#
#
# Elastic Constant Matrix: (Units=GPa)
#
#
# Indices 1 2 3 4 5 6 
#
# 1 130.4925 73.7579 48.5964 0.0000 0.0000 0.0000
# 2 73.7579 187.5816 79.1298 0.0000 0.0000 0.0000
# 3 48.5964 79.1298 167.8515 0.0000 0.0000 0.0000
# 4 0.0000 0.0000 0.0000 1344.6244 0.0000 0.0000
# 5 0.0000 0.0000 0.0000 0.0000 26.9333 0.0000
# 6 0.0000 0.0000 0.0000 0.0000 0.0000 38.6393
#
#
#
# Elastic Compliance Matrix: (Units=1/GPa)
#
#
# Indices 1 2 3 4 5 6 
#
# 1 0.010079 -0.003410 -0.001310 0.000000 0.000000 0.000000
# 2 -0.003410 0.007808 -0.002694 0.000000 0.000000 0.000000
# 3 -0.001310 -0.002694 0.007607 0.000000 0.000000 0.000000
# 4 0.000000 0.000000 0.000000 0.000744 0.000000 0.000000
# 5 0.000000 0.000000 0.000000 0.000000 0.037129 0.000000
# 6 0.000000 0.000000 0.000000 0.000000 0.000000 0.025880
#
#
# Mechanical properties :
#
#
# Convention : Reuss Voigt Hill
#
# Bulk Modulus (GPa) = 93.76118 98.76598 96.26358
# Shear Modulus (GPa) = 46.45521 301.00216 173.72869
#
# Velocity S-wave (km/s) = 4.84659 12.33683 9.37248
# Velocity P-wave (km/s) = 8.87289 15.90187 12.87629
#
# Compressibility (1/GPa) = 0.01066540
#
# Stress axis : x y z
#
# Youngs Moduli (GPa) = 99.21774 128.06944 131.45986
#
# Poissons Ratio (x) = 0.43675 0.17225
# Poissons Ratio (y) = 0.33836 0.35411
# Poissons Ratio (z) = 0.13001 0.34498
#
# Static dielectric constant tensor:
#      x y z
#    x 3.771550 0.000000 0.000000 
#    y 0.000000 3.842950 0.000000 
#    z 0.000000 0.000000 3.894980 
# 
# 
# High freq. dielectric constant tensor:
#      x y z
#    x 1.786950 0.000000 0.000000 
#    y 0.000000 1.782020 0.000000 
#    z 0.000000 0.000000 1.790940 
# 
# From -- ./inp_files/25158.got.cif
#   From: 2010.03.12/outbox.cif.g09.slc.cpg/sg72_13_cif.got.tgz:25158.got - 2010.04.16 14:54:00.
