data_PCOD8295578
_publ_section_title
;
Structure prediction by ZEFSAII (Michael W. Deem and Ramdas Pophale) SiO2 
 PCOD8295578
Probable space group: I B C A 
;
_chemical_formula_sum "Si O2"
_cell_formula_units_Z 80
_cell_length_a 24.652837
_cell_length_b 17.857236
_cell_length_c 8.822899
_cell_angle_alpha 90.000000
_cell_angle_beta 90.000000
_cell_angle_gamma 90.000000
_cell_volume 3884.118311
_symmetry_space_group_name_H-M "I B C A "
_symmetry_group_IT_number 73
_symmetry_cell_setting 'orthorhombic'
loop_
_space_group_symop_operation_xyz
x,y,z
-x,1/2-y,z
x,-y,1/2-z
1/2-x,y,-z
-x,-y,-z
x,1/2+y,-z
-x,y,1/2+z
1/2+x,-y,z
1/2+x,1/2+y,1/2+z
1/2-x,-y,1/2+z
1/2+x,1/2-y,-z
-x,1/2+y,1/2-z
1/2-x,1/2-y,1/2-z
1/2+x,y,1/2-z
1/2-x,1/2+y,z
x,1/2-y,1/2+z
loop_
_atom_site_type_symbol
_atom_site_label
_atom_site_fract_x
_atom_site_fract_y
_atom_site_fract_z
Si Si1 0.981672 0.669324 0.583683
Si Si2 0.341624 0.151601 0.822850
Si Si3 0.638286 0.698367 0.341081
Si Si4 0.760914 0.668531 0.821369
Si Si5 0.549328 0.418566 0.804707
O O1 0.923961 0.672189 0.671115
O O2 0.978404 0.602840 0.462366
O O3 0.000000 0.750000 0.514232
O O4 0.029743 0.646158 0.693127
O O5 0.359295 0.214593 0.701597
O O6 0.283602 0.117312 0.767955
O O7 0.385545 0.085149 0.819320
O O8 0.338727 0.189276 0.988602
O O9 0.676849 0.648899 0.226204
O O10 0.750000 0.750000 0.750000
O O11 0.750000 0.663532 0.000000
O O12 0.530520 0.500000 0.750000
#
# Coordination Sequence:
#
# PCOD8295578 Si02
#       5
#    16  16  16  16  16
#     4  11  22  38  61  87 118 157 210 256 297 358
#     4  10  19  33  54  81 116 148 189 239 296 351
#     4  10  19  31  54  85 111 148 193 250 293 338
#     4  10  18  30  51  83 115 146 185 242 299 347
#     4  11  24  39  58  85 122 162 196 247 310 363
#
# _framework density 20.596696000000001
#
# number of rings (size 3 to 8) (size 9 to 14) (size 15 to 20)
#    0.000    1.600    2.000    6.600    2.800    1.600 
#    0.000    0.000    0.000    6.000    0.000    0.000 
#    0.000    0.000    0.000    0.000    0.000    0.000 
#
# Total GULP energy -495586.204328 kJ/mol
# GULP energy per Si atom -12389.655108 kJ/mol
# Density = 2.054982 g / cm^3
# Si number density = 20.596696 Si / 1000 Ang^3
#
#
#
# Elastic Constant Matrix: (Units=GPa)
#
#
# Indices 1 2 3 4 5 6 
#
# 1 113.7427 21.0258 46.4720 0.0000 0.0000 0.0000
# 2 21.0258 54.4584 23.3270 0.0000 0.0000 0.0000
# 3 46.4720 23.3270 113.1529 0.0000 0.0000 0.0000
# 4 0.0000 0.0000 0.0000 19.5445 0.0000 0.0000
# 5 0.0000 0.0000 0.0000 0.0000 29.5689 0.0000
# 6 0.0000 0.0000 0.0000 0.0000 0.0000 13.7228
#
#
#
# Elastic Compliance Matrix: (Units=1/GPa)
#
#
# Indices 1 2 3 4 5 6 
#
# 1 0.010867 -0.002505 -0.003947 0.000000 0.000000 0.000000
# 2 -0.002505 0.020719 -0.003242 0.000000 0.000000 0.000000
# 3 -0.003947 -0.003242 0.011127 0.000000 0.000000 0.000000
# 4 0.000000 0.000000 0.000000 0.051165 0.000000 0.000000
# 5 0.000000 0.000000 0.000000 0.000000 0.033819 0.000000
# 6 0.000000 0.000000 0.000000 0.000000 0.000000 0.072871
#
#
# Mechanical properties :
#
#
# Convention : Reuss Voigt Hill
#
# Bulk Modulus (GPa) = 42.87360 51.44485 47.15923
# Shear Modulus (GPa) = 21.95557 25.26919 23.61238
#
# Velocity S-wave (km/s) = 3.26847 3.50645 3.38955
# Velocity P-wave (km/s) = 5.92493 6.43623 6.18587
#
# Compressibility (1/GPa) = 0.02332438
#
# Stress axis : x y z
#
# Youngs Moduli (GPa) = 92.01817 48.26552 89.87154
#
# Poissons Ratio (x) = 0.12091 0.35471
# Poissons Ratio (y) = 0.23052 0.29140
# Poissons Ratio (z) = 0.36318 0.15650
#
# Static dielectric constant tensor:
#      x y z
#    x 4.733560 0.000000 0.000000 
#    y 0.000000 3.091570 0.000000 
#    z 0.000000 0.000000 3.759650 
# 
# 
# High freq. dielectric constant tensor:
#      x y z
#    x 1.832930 0.000000 0.000000 
#    y 0.000000 1.737610 0.000000 
#    z 0.000000 0.000000 1.813740 
# 
# From -- ./inp_files/7735.got.cif
#   From: 2010.03.12/outbox.cif.g09.slc.cpg/sg73_4_cif.got.tgz:7735.got - 2010.04.16 15:25:48.
