data_PCOD8295972
_publ_section_title
;
Structure prediction by ZEFSAII (Michael W. Deem and Ramdas Pophale) SiO2 
 PCOD8295972
Probable space group: I B C A 
;
_chemical_formula_sum "Si O2"
_cell_formula_units_Z 72
_cell_length_a 14.592492
_cell_length_b 19.394892
_cell_length_c 11.982681
_cell_angle_alpha 90.000000
_cell_angle_beta 90.000000
_cell_angle_gamma 90.000000
_cell_volume 3391.336056
_symmetry_space_group_name_H-M "I B C A "
_symmetry_group_IT_number 73
_symmetry_cell_setting 'orthorhombic'
loop_
_space_group_symop_operation_xyz
x,y,z
-x,1/2-y,z
x,-y,1/2-z
1/2-x,y,-z
-x,-y,-z
x,1/2+y,-z
-x,y,1/2+z
1/2+x,-y,z
1/2+x,1/2+y,1/2+z
1/2-x,-y,1/2+z
1/2+x,1/2-y,-z
-x,1/2+y,1/2-z
1/2-x,1/2-y,1/2-z
1/2+x,y,1/2-z
1/2-x,1/2+y,z
x,1/2-y,1/2+z
loop_
_atom_site_type_symbol
_atom_site_label
_atom_site_fract_x
_atom_site_fract_y
_atom_site_fract_z
Si Si1 0.754314 0.500000 0.250000
Si Si2 0.034750 0.327132 0.771024
Si Si3 0.503120 0.578482 0.580528
Si Si4 0.914364 0.052689 0.364169
Si Si5 0.165811 0.393105 0.920734
O O1 0.689266 0.447905 0.180492
O O2 0.815236 0.541512 0.160516
O O3 0.132132 0.332120 0.836691
O O4 0.000000 0.250000 0.771748
O O5 0.042587 0.354582 0.644091
O O6 0.960213 0.376237 0.828252
O O7 0.468912 0.519418 0.668781
O O8 0.584718 0.551202 0.500351
O O9 0.415810 0.594124 0.504900
O O10 0.250000 0.371034 0.000000
#
# Coordination Sequence:
#
# PCOD8295972 Si02
#       5
#     8  16  16  16  16
#     4  12  22  38  66 104 134 162 212 294 344 364
#     4  11  24  42  67  93 132 183 218 260 327 407
#     4  10  21  39  65  95 129 177 229 265 313 397
#     4  10  20  38  65  92 129 168 223 269 321 390
#     4  11  24  40  68 102 133 162 217 287 328 377
#
# _framework density 21.23057
#
# number of rings (size 3 to 8) (size 9 to 14) (size 15 to 20)
#    0.000    1.333    4.444    0.000    9.333    3.556 
#    0.000    4.444    4.889    0.000    0.000    0.000 
#    0.000    0.000    0.000    0.000    0.000    0.000 
#
# Total GULP energy -445970.516872 kJ/mol
# GULP energy per Si atom -12388.069913 kJ/mol
# Density = 2.118225 g / cm^3
# Si number density = 21.230570 Si / 1000 Ang^3
#
#
#
# Elastic Constant Matrix: (Units=GPa)
#
#
# Indices 1 2 3 4 5 6 
#
# 1 88.3633 34.3744 73.2744 0.0000 0.0000 0.0000
# 2 34.3744 139.0827 46.2524 0.0000 0.0000 0.0000
# 3 73.2744 46.2524 115.8286 -0.0001 0.0000 0.0000
# 4 0.0000 0.0000 -0.0001 23.5991 0.0000 0.0000
# 5 0.0000 0.0000 0.0000 0.0000 45.9953 0.0000
# 6 0.0000 0.0000 0.0000 0.0000 0.0000 26.8596
#
#
#
# Elastic Compliance Matrix: (Units=1/GPa)
#
#
# Indices 1 2 3 4 5 6 
#
# 1 0.023928 -0.001015 -0.014732 0.000000 0.000000 0.000000
# 2 -0.001015 0.008334 -0.002686 0.000000 0.000000 0.000000
# 3 -0.014732 -0.002686 0.019026 0.000000 0.000000 0.000000
# 4 0.000000 0.000000 0.000000 0.042375 0.000000 0.000000
# 5 0.000000 0.000000 0.000000 0.000000 0.021741 0.000000
# 6 0.000000 0.000000 0.000000 0.000000 0.000000 0.037231
#
#
# Mechanical properties :
#
#
# Convention : Reuss Voigt Hill
#
# Bulk Modulus (GPa) = 69.33693 72.34191 70.83942
# Shear Modulus (GPa) = 25.73253 31.91567 28.82410
#
# Velocity S-wave (km/s) = 3.48523 3.88143 3.68865
# Velocity P-wave (km/s) = 6.99469 7.36449 7.18197
#
# Compressibility (1/GPa) = 0.01442233
#
# Stress axis : x y z
#
# Youngs Moduli (GPa) = 41.79224 119.99058 52.56089
#
# Poissons Ratio (x) = 0.12175 0.77432
# Poissons Ratio (y) = 0.04241 0.14118
# Poissons Ratio (z) = 0.61568 0.32230
#
# Static dielectric constant tensor:
#      x y z
#    x 3.966120 0.000000 0.000000 
#    y 0.000000 3.488940 0.000000 
#    z 0.000000 0.000000 5.006580 
# 
# 
# High freq. dielectric constant tensor:
#      x y z
#    x 1.816250 0.000000 0.000000 
#    y 0.000000 1.791770 0.000000 
#    z 0.000000 0.000000 1.877320 
# 
# From -- ./inp_files/16803.got.cif
#   From: 2010.03.12/outbox.cif.g09.slc.cpg/sg73_9_cif.got.tgz:16803.got - 2010.04.16 15:25:48.
