data_PCOD8295189
_publ_section_title
;
Structure prediction by ZEFSAII (Michael W. Deem and Ramdas Pophale) SiO2 
 PCOD8295189
Probable space group: I B A M
;
_chemical_formula_sum "Si O2"
_cell_formula_units_Z 56
_cell_length_a 12.836881
_cell_length_b 8.391026
_cell_length_c 24.358665
_cell_angle_alpha 90.000000
_cell_angle_beta 90.000000
_cell_angle_gamma 90.000000
_cell_volume 2623.783911
_symmetry_space_group_name_H-M "I B A M"
_symmetry_group_IT_number 72
_symmetry_cell_setting 'orthorhombic'
loop_
_space_group_symop_operation_xyz
x,y,z
-x,-y,z
x,-y,1/2-z
-x,y,1/2-z
-x,-y,-z
x,y,-z
-x,y,1/2+z
x,-y,1/2+z
1/2+x,1/2+y,1/2+z
1/2-x,1/2-y,1/2+z
1/2+x,1/2-y,-z
1/2-x,1/2+y,-z
1/2-x,1/2-y,1/2-z
1/2+x,1/2+y,1/2-z
1/2-x,1/2+y,z
1/2+x,1/2-y,z
loop_
_atom_site_type_symbol
_atom_site_label
_atom_site_fract_x
_atom_site_fract_y
_atom_site_fract_z
Si Si1 0.035141 0.318169 0.414492
Si Si2 0.391776 0.333391 0.500000
Si Si3 0.242926 0.000000 0.250000
Si Si4 0.904834 0.260010 0.206955
Si Si5 0.179598 0.803292 0.000000
O O1 0.041315 0.264103 0.351822
O O2 0.144381 0.293238 0.445526
O O3 0.000000 0.500000 0.419431
O O4 0.956539 0.198603 0.444929
O O5 0.302632 0.201379 0.500000
O O6 0.356782 0.514982 0.500000
O O7 0.164638 0.102072 0.287351
O O8 0.320748 0.098288 0.211140
O O9 0.000000 0.271865 0.250000
#
# Coordination Sequence:
#
# PCOD8295189 Si02
#       5
#    16   8   8  16   8
#     4  11  23  41  65  93 127 167 213 269 330 388
#     4  11  24  43  64  92 126 169 218 267 332 390
#     4  10  24  42  64  96 128 172 218 258 332 394
#     4  11  24  43  66  95 132 170 215 271 323 390
#     4  11  24  41  64  92 128 167 216 269 322 398
#
# _framework density 21.343219999999999
#
# number of rings (size 3 to 8) (size 9 to 14) (size 15 to 20)
#    0.000    1.143    0.000    7.714    0.000   13.714 
#    0.000    0.000    0.000    0.000    0.000    0.000 
#    0.000    0.000    0.000    0.000    0.000    0.000 
#
# Total GULP energy -347121.383780 kJ/mol
# GULP energy per Si atom -12397.192278 kJ/mol
# Density = 2.129464 g / cm^3
# Si number density = 21.343220 Si / 1000 Ang^3
#
#
#
# Elastic Constant Matrix: (Units=GPa)
#
#
# Indices 1 2 3 4 5 6 
#
# 1 133.1362 52.7987 58.4514 0.0000 0.0000 0.0000
# 2 52.7987 147.4243 55.8606 0.0000 0.0000 0.0000
# 3 58.4514 55.8606 182.2271 0.0000 0.0000 0.0000
# 4 0.0000 0.0000 0.0000 31.2478 0.0000 0.0000
# 5 0.0000 0.0000 0.0000 0.0000 -7.1704 0.0000
# 6 0.0000 0.0000 0.0000 0.0000 0.0000 30.6364
#
#
#
# Elastic Compliance Matrix: (Units=1/GPa)
#
#
# Indices 1 2 3 4 5 6 
#
# 1 0.009519 -0.002548 -0.002272 0.000000 0.000000 0.000000
# 2 -0.002548 0.008357 -0.001744 0.000000 0.000000 0.000000
# 3 -0.002272 -0.001744 0.006751 0.000000 0.000000 0.000000
# 4 0.000000 0.000000 0.000000 0.032002 0.000000 0.000000
# 5 0.000000 0.000000 0.000000 0.000000 -0.139462 0.000000
# 6 0.000000 0.000000 0.000000 0.000000 0.000000 0.032641
#
#
# Mechanical properties :
#
#
# Convention : Reuss Voigt Hill
#
# Bulk Modulus (GPa) = 86.97513 88.55656 87.76585
# Shear Modulus (GPa) = -150.46742 30.65456 -59.90643
#
# Velocity S-wave (km/s) = -8.40547 3.79392 -5.30368
# Velocity P-wave (km/s) = 7.30503 7.79574 1.92485
#
# Compressibility (1/GPa) = 0.01149754
#
# Stress axis : x y z
#
# Youngs Moduli (GPa) = 105.04991 119.66420 148.12131
#
# Poissons Ratio (x) = 0.30494 0.33657
# Poissons Ratio (y) = 0.26769 0.25837
# Poissons Ratio (z) = 0.23870 0.20873
#
# Static dielectric constant tensor:
#      x y z
#    x 4.291730 0.000000 0.000000 
#    y 0.000000 4.072400 0.000000 
#    z 0.000000 0.000000 3.767070 
# 
# 
# High freq. dielectric constant tensor:
#      x y z
#    x 1.857000 0.000000 0.000000 
#    y 0.000000 1.856020 0.000000 
#    z 0.000000 0.000000 1.828370 
# 
# From -- ./inp_files/37663.got.cif
#   From: 2010.03.12/outbox.cif.g09.slc.cpg/sg72_19_cif.got.tgz:37663.got - 2010.04.16 14:54:00.
