data_PCOD8295792
_publ_section_title
;
Structure prediction by ZEFSAII (Michael W. Deem and Ramdas Pophale) SiO2 
 PCOD8295792
Probable space group: I B C A 
;
_chemical_formula_sum "Si O2"
_cell_formula_units_Z 80
_cell_length_a 27.643903
_cell_length_b 10.788261
_cell_length_c 14.041772
_cell_angle_alpha 90.000000
_cell_angle_beta 90.000000
_cell_angle_gamma 90.000000
_cell_volume 4187.672617
_symmetry_space_group_name_H-M "I B C A "
_symmetry_group_IT_number 73
_symmetry_cell_setting 'orthorhombic'
loop_
_space_group_symop_operation_xyz
x,y,z
-x,1/2-y,z
x,-y,1/2-z
1/2-x,y,-z
-x,-y,-z
x,1/2+y,-z
-x,y,1/2+z
1/2+x,-y,z
1/2+x,1/2+y,1/2+z
1/2-x,-y,1/2+z
1/2+x,1/2-y,-z
-x,1/2+y,1/2-z
1/2-x,1/2-y,1/2-z
1/2+x,y,1/2-z
1/2-x,1/2+y,z
x,1/2-y,1/2+z
loop_
_atom_site_type_symbol
_atom_site_label
_atom_site_fract_x
_atom_site_fract_y
_atom_site_fract_z
Si Si1 0.830266 0.000000 0.750000
Si Si2 0.088433 0.840385 0.163698
Si Si3 0.641228 0.680767 0.023154
Si Si4 0.697617 0.061665 0.456589
Si Si5 0.082800 0.119119 0.706247
Si Si6 0.508644 0.000000 0.250000
O O1 0.863489 0.112913 0.783092
O O2 0.798532 0.043285 0.658465
O O3 0.075513 0.710111 0.206544
O O4 0.042731 0.929659 0.175435
O O5 0.098409 0.822096 0.052922
O O6 0.669357 0.811424 0.018324
O O7 0.613785 0.677382 0.122861
O O8 0.674605 0.559600 0.006972
O O9 0.750000 0.079737 0.500000
O O10 0.110913 0.000000 0.750000
O O11 0.026739 0.082616 0.681564
#
# Coordination Sequence:
#
# PCOD8295792 Si02
#       6
#     8  16  16  16  16   8
#     4   9  20  40  67  84 128 172 189 258 330 363
#     4  10  19  40  60  89 127 165 212 247 321 371
#     4  11  23  41  69  92 128 172 208 266 321 380
#     4  11  23  44  65  99 125 163 217 262 317 387
#     4  10  21  38  60  92 126 166 211 259 310 375
#     4   9  22  36  61  88 130 164 209 266 290 381
#
# _framework density 19.103691000000001
#
# number of rings (size 3 to 8) (size 9 to 14) (size 15 to 20)
#    0.600    1.200    2.000    2.400    0.000    0.800 
#    5.400    5.000    0.000    0.000    0.000    0.000 
#    0.000    0.000    0.000    0.000    0.000    0.000 
#
# Total GULP energy -495557.951297 kJ/mol
# GULP energy per Si atom -12388.948782 kJ/mol
# Density = 1.906021 g / cm^3
# Si number density = 19.103691 Si / 1000 Ang^3
#
#
#
# Elastic Constant Matrix: (Units=GPa)
#
#
# Indices 1 2 3 4 5 6 
#
# 1 99.4329 37.1562 30.0782 0.0000 0.0000 0.0000
# 2 37.1562 128.1556 19.7669 0.0000 0.0000 0.0000
# 3 30.0782 19.7669 59.4876 0.0000 0.0000 0.0000
# 4 0.0000 0.0000 0.0000 26.8051 0.0000 0.0000
# 5 0.0000 0.0000 0.0000 0.0000 30.1545 0.0000
# 6 0.0000 0.0000 0.0000 0.0000 0.0000 -4.3945
#
#
#
# Elastic Compliance Matrix: (Units=1/GPa)
#
#
# Indices 1 2 3 4 5 6 
#
# 1 0.012795 -0.002858 -0.005520 0.000000 0.000000 0.000000
# 2 -0.002858 0.008863 -0.001500 0.000000 0.000000 0.000000
# 3 -0.005520 -0.001500 0.020099 0.000000 0.000000 0.000000
# 4 0.000000 0.000000 0.000000 0.037306 0.000000 0.000000
# 5 0.000000 0.000000 0.000000 0.000000 0.033163 0.000000
# 6 0.000000 0.000000 0.000000 0.000000 0.000000 -0.227557
#
#
# Mechanical properties :
#
#
# Convention : Reuss Voigt Hill
#
# Bulk Modulus (GPa) = 45.45064 51.23094 48.34079
# Shear Modulus (GPa) = -56.66269 23.85134 -16.40567
#
# Velocity S-wave (km/s) = -5.45206 3.53727 -2.93366
# Velocity P-wave (km/s) = 3.97368 6.59989 3.72616
#
# Compressibility (1/GPa) = 0.02200189
#
# Stress axis : x y z
#
# Youngs Moduli (GPa) = 78.15704 112.82802 49.75269
#
# Poissons Ratio (x) = 0.32249 0.27461
# Poissons Ratio (y) = 0.22339 0.07462
# Poissons Ratio (z) = 0.43139 0.16923
#
# Static dielectric constant tensor:
#      x y z
#    x 3.376330 0.000000 0.000000 
#    y 0.000000 3.735420 0.000000 
#    z 0.000000 0.000000 3.455980 
# 
# 
# High freq. dielectric constant tensor:
#      x y z
#    x 1.733610 0.000000 0.000000 
#    y 0.000000 1.763270 0.000000 
#    z 0.000000 0.000000 1.735620 
# 
# From -- ./inp_files/14612.got.cif
#   From: 2010.03.12/outbox.cif.g09.slc.cpg/sg73_8_cif.got.tgz:14612.got - 2010.04.16 15:25:48.
