data_PCOD8295628
_publ_section_title
;
Structure prediction by ZEFSAII (Michael W. Deem and Ramdas Pophale) SiO2 
 PCOD8295628
Probable space group: I B C A 
;
_chemical_formula_sum "Si O2"
_cell_formula_units_Z 120
_cell_length_a 13.882960
_cell_length_b 18.768357
_cell_length_c 22.909232
_cell_angle_alpha 90.000000
_cell_angle_beta 90.000000
_cell_angle_gamma 90.000000
_cell_volume 5969.237497
_symmetry_space_group_name_H-M "I B C A "
_symmetry_group_IT_number 73
_symmetry_cell_setting 'orthorhombic'
loop_
_space_group_symop_operation_xyz
x,y,z
-x,1/2-y,z
x,-y,1/2-z
1/2-x,y,-z
-x,-y,-z
x,1/2+y,-z
-x,y,1/2+z
1/2+x,-y,z
1/2+x,1/2+y,1/2+z
1/2-x,-y,1/2+z
1/2+x,1/2-y,-z
-x,1/2+y,1/2-z
1/2-x,1/2-y,1/2-z
1/2+x,y,1/2-z
1/2-x,1/2+y,z
x,1/2-y,1/2+z
loop_
_atom_site_type_symbol
_atom_site_label
_atom_site_fract_x
_atom_site_fract_y
_atom_site_fract_z
Si Si1 0.565022 0.398598 0.827129
Si Si2 0.105611 0.931888 0.529224
Si Si3 0.136729 0.853600 0.813046
Si Si4 0.743437 0.927630 0.781651
Si Si5 0.929510 0.987120 0.585037
Si Si6 0.281957 0.980920 0.113059
Si Si7 0.611119 0.269095 0.900649
Si Si8 0.250000 0.812469 0.500000
O O1 0.475522 0.360313 0.796789
O O2 0.642791 0.412453 0.776366
O O3 0.532530 0.473008 0.856803
O O4 0.613265 0.349047 0.876772
O O5 0.078532 0.950672 0.463326
O O6 0.170249 0.860975 0.533205
O O7 0.164410 0.000011 0.553386
O O8 0.005721 0.925563 0.566531
O O9 0.191331 0.860851 0.750595
O O10 0.165403 0.916213 0.856539
O O11 0.151646 0.780077 0.847744
O O12 0.714203 0.000000 0.750000
O O13 0.717449 0.944552 0.849244
O O14 0.825719 0.953465 0.598952
O O15 0.500000 0.250000 0.919573
O O16 0.687774 0.264137 0.954501
#
# Coordination Sequence:
#
# PCOD8295628 Si02
#       8
#    16  16  16  16  16  16  16   8
#     4  10  18  38  58  79 116 149 194 239 292 362
#     4  11  19  32  59  86 116 151 189 240 302 351
#     4  10  21  38  55  82 114 152 201 236 291 361
#     4   9  20  34  57  86 110 142 189 247 308 343
#     4  10  19  31  55  89 116 147 187 245 296 359
#     4  10  18  35  53  87 119 145 185 247 310 347
#     4  10  23  40  61  80 115 168 205 236 291 363
#     4  12  20  40  58  86 122 162 202 248 302 362
#
# _framework density 20.103069999999999
#
# number of rings (size 3 to 8) (size 9 to 14) (size 15 to 20)
#    0.000    1.867    4.000    0.800    0.000    2.133 
#    7.200    0.000    0.000    0.000    0.000    0.000 
#    0.000    0.000    0.000    0.000    0.000    0.000 
#
# Total GULP energy -743418.145269 kJ/mol
# GULP energy per Si atom -12390.302421 kJ/mol
# Density = 2.005731 g / cm^3
# Si number density = 20.103070 Si / 1000 Ang^3
#
#
#
# Elastic Constant Matrix: (Units=GPa)
#
#
# Indices 1 2 3 4 5 6 
#
# 1 112.9979 22.8573 42.7102 0.0000 0.0000 0.0000
# 2 22.8573 47.3952 14.5365 0.0000 0.0000 0.0000
# 3 42.7102 14.5365 61.3022 0.0000 0.0000 0.0000
# 4 0.0000 0.0000 0.0000 29.6538 0.0000 0.0000
# 5 0.0000 0.0000 0.0000 0.0000 40.9949 0.0000
# 6 0.0000 0.0000 0.0000 0.0000 0.0000 27.7951
#
#
#
# Elastic Compliance Matrix: (Units=1/GPa)
#
#
# Indices 1 2 3 4 5 6 
#
# 1 0.012570 -0.003641 -0.007894 0.000000 0.000000 0.000000
# 2 -0.003641 0.023809 -0.003109 0.000000 0.000000 0.000000
# 3 -0.007894 -0.003109 0.022550 0.000000 0.000000 0.000000
# 4 0.000000 0.000000 0.000000 0.033722 0.000000 0.000000
# 5 0.000000 0.000000 0.000000 0.000000 0.024393 0.000000
# 6 0.000000 0.000000 0.000000 0.000000 0.000000 0.035978
#
#
# Mechanical properties :
#
#
# Convention : Reuss Voigt Hill
#
# Bulk Modulus (GPa) = 33.73811 42.43370 38.08590
# Shear Modulus (GPa) = 26.01583 29.12819 27.57201
#
# Velocity S-wave (km/s) = 3.60129 3.81063 3.70744
# Velocity P-wave (km/s) = 5.84050 6.36514 6.10846
#
# Compressibility (1/GPa) = 0.02964007
#
# Stress axis : x y z
#
# Youngs Moduli (GPa) = 79.55399 42.00155 44.34588
#
# Poissons Ratio (x) = 0.15292 0.35008
# Poissons Ratio (y) = 0.28965 0.13787
# Poissons Ratio (z) = 0.62803 0.13058
#
# Static dielectric constant tensor:
#      x y z
#    x 3.928390 0.000000 0.000000 
#    y 0.000000 3.336130 0.000000 
#    z 0.000000 0.000000 3.737850 
# 
# 
# High freq. dielectric constant tensor:
#      x y z
#    x 1.800040 0.000000 0.000000 
#    y 0.000000 1.743100 0.000000 
#    z 0.000000 0.000000 1.775710 
# 
# From -- ./inp_files/29641.got.cif
#   From: 2010.03.12/outbox.cif.g09.slc.cpg/sg73_15_cif.got.tgz:29641.got - 2010.04.16 15:25:48.
