data_PCOD8295211
_publ_section_title
;
Structure prediction by ZEFSAII (Michael W. Deem and Ramdas Pophale) SiO2 
 PCOD8295211
Probable space group: I B A M
;
_chemical_formula_sum "Si O2"
_cell_formula_units_Z 48
_cell_length_a 25.690605
_cell_length_b 5.145346
_cell_length_c 15.199198
_cell_angle_alpha 90.000000
_cell_angle_beta 90.000000
_cell_angle_gamma 90.000000
_cell_volume 2009.137171
_symmetry_space_group_name_H-M "I B A M"
_symmetry_group_IT_number 72
_symmetry_cell_setting 'orthorhombic'
loop_
_space_group_symop_operation_xyz
x,y,z
-x,-y,z
x,-y,1/2-z
-x,y,1/2-z
-x,-y,-z
x,y,-z
-x,y,1/2+z
x,-y,1/2+z
1/2+x,1/2+y,1/2+z
1/2-x,1/2-y,1/2+z
1/2+x,1/2-y,-z
1/2-x,1/2+y,-z
1/2-x,1/2-y,1/2-z
1/2+x,1/2+y,1/2-z
1/2-x,1/2+y,z
1/2+x,1/2-y,z
loop_
_atom_site_type_symbol
_atom_site_label
_atom_site_fract_x
_atom_site_fract_y
_atom_site_fract_z
Si Si1 0.470266 0.748957 0.895728
Si Si2 0.353419 0.342571 0.341614
Si Si3 0.285788 0.000000 0.250000
Si Si4 0.713663 0.481629 0.500000
O O1 0.500000 0.500000 0.857433
O O2 0.411144 0.736321 0.866407
O O3 0.500000 0.000000 0.856664
O O4 0.472584 0.755147 0.000000
O O5 0.351426 0.500000 0.250000
O O6 0.323795 0.062746 0.332421
O O7 0.323953 0.511373 0.415148
O O8 0.250000 0.250000 0.250000
O O9 0.744600 0.212865 0.500000
#
# Coordination Sequence:
#
# PCOD8295211 Si02
#       4
#    16  16   8   8
#     4  10  24  48  77 108 149 195 248 310 376 447
#     4  12  28  50  78 114 153 200 256 313 379 454
#     4  12  26  46  71 102 149 196 246 310 368 434
#     4  12  30  48  76 110 152 204 252 306 380 454
#
# _framework density 23.890854000000001
#
# number of rings (size 3 to 8) (size 9 to 14) (size 15 to 20)
#    0.000    0.667    3.333    2.000    9.333    0.667 
#    0.000    0.000    0.000    0.000    0.000    0.000 
#    0.000    0.000    0.000    0.000    0.000    0.000 
#
# Total GULP energy -297398.595046 kJ/mol
# GULP energy per Si atom -12391.608127 kJ/mol
# Density = 2.383648 g / cm^3
# Si number density = 23.890854 Si / 1000 Ang^3
#
#
#
# Elastic Constant Matrix: (Units=GPa)
#
#
# Indices 1 2 3 4 5 6 
#
# 1 193.7282 85.1674 -9.3029 0.0000 0.0000 0.0000
# 2 85.1674 175.6887 16.6634 0.0000 0.0000 0.0000
# 3 -9.3029 16.6634 29.9790 0.0000 0.0000 0.0000
# 4 0.0000 0.0000 0.0000 19.0780 0.0000 0.0000
# 5 0.0000 0.0000 0.0000 0.0000 15.6270 0.0000
# 6 0.0000 0.0000 0.0000 0.0000 0.0000 35.0273
#
#
#
# Elastic Compliance Matrix: (Units=1/GPa)
#
#
# Indices 1 2 3 4 5 6 
#
# 1 0.007052 -0.003828 0.004316 0.000000 0.000000 0.000000
# 2 -0.003828 0.008086 -0.005683 0.000000 0.000000 0.000000
# 3 0.004316 -0.005683 0.037855 0.000000 0.000000 0.000000
# 4 0.000000 0.000000 0.000000 0.052417 0.000000 0.000000
# 5 0.000000 0.000000 0.000000 0.000000 0.063992 0.000000
# 6 0.000000 0.000000 0.000000 0.000000 0.000000 0.028549
#
#
# Mechanical properties :
#
#
# Convention : Reuss Voigt Hill
#
# Bulk Modulus (GPa) = 23.47196 64.93907 44.20551
# Shear Modulus (GPa) = 22.46779 34.40432 28.43606
#
# Velocity S-wave (km/s) = 3.06998 3.79893 3.45374
# Velocity P-wave (km/s) = 4.73417 6.81785 5.86922
#
# Compressibility (1/GPa) = 0.04260403
#
# Stress axis : x y z
#
# Youngs Moduli (GPa) = 141.80471 123.66331 26.41689
#
# Poissons Ratio (x) = 0.47337 -0.11401
# Poissons Ratio (y) = 0.54281 0.15012
# Poissons Ratio (z) = -0.61203 0.70273
#
# Static dielectric constant tensor:
#      x y z
#    x 4.741120 0.000000 0.000000 
#    y 0.000000 4.010040 0.000000 
#    z 0.000000 0.000000 4.541240 
# 
# 
# High freq. dielectric constant tensor:
#      x y z
#    x 1.977430 0.000000 0.000000 
#    y 0.000000 1.958350 0.000000 
#    z 0.000000 0.000000 1.944000 
# 
# From -- ./inp_files/25581.got.cif
#   From: 2010.03.12/outbox.cif.g09.slc.cpg/sg72_13_cif.got.tgz:25581.got - 2010.04.16 14:54:00.
