data_PCOD8295905
_publ_section_title
;
Structure prediction by ZEFSAII (Michael W. Deem and Ramdas Pophale) SiO2 
 PCOD8295905
Probable space group: I B C A 
;
_chemical_formula_sum "Si O2"
_cell_formula_units_Z 104
_cell_length_a 22.383069
_cell_length_b 10.183313
_cell_length_c 21.473638
_cell_angle_alpha 90.000000
_cell_angle_beta 90.000000
_cell_angle_gamma 90.000000
_cell_volume 4894.567856
_symmetry_space_group_name_H-M "I B C A "
_symmetry_group_IT_number 73
_symmetry_cell_setting 'orthorhombic'
loop_
_space_group_symop_operation_xyz
x,y,z
-x,1/2-y,z
x,-y,1/2-z
1/2-x,y,-z
-x,-y,-z
x,1/2+y,-z
-x,y,1/2+z
1/2+x,-y,z
1/2+x,1/2+y,1/2+z
1/2-x,-y,1/2+z
1/2+x,1/2-y,-z
-x,1/2+y,1/2-z
1/2-x,1/2-y,1/2-z
1/2+x,y,1/2-z
1/2-x,1/2+y,z
x,1/2-y,1/2+z
loop_
_atom_site_type_symbol
_atom_site_label
_atom_site_fract_x
_atom_site_fract_y
_atom_site_fract_z
Si Si1 0.129173 0.634414 0.958853
Si Si2 0.502843 0.104755 0.200589
Si Si3 0.671465 0.611012 0.097870
Si Si4 0.250800 0.377858 0.209357
Si Si5 0.124476 0.410203 0.858497
Si Si6 0.590732 0.369268 0.093444
Si Si7 0.250000 0.980555 0.500000
O O1 0.125936 0.780215 0.929764
O O2 0.114232 0.522653 0.909484
O O3 0.083442 0.623200 0.017848
O O4 0.197446 0.615448 0.979137
O O5 0.500000 0.250000 0.230971
O O6 0.571666 0.068064 0.190692
O O7 0.469975 0.108398 0.132817
O O8 0.475182 0.000000 0.250000
O O9 0.700615 0.663262 0.160315
O O10 0.635392 0.481351 0.115293
O O11 0.726764 0.577338 0.053207
O O12 0.228580 0.500000 0.250000
O O13 0.250000 0.250000 0.250000
O O14 0.313396 0.418496 0.177966
O O15 0.120517 0.269913 0.891773
#
# Coordination Sequence:
#
# PCOD8295905 Si02
#       7
#    16  16  16  16  16  16   8
#     4  11  22  37  65  97 129 168 216 270 331 403
#     4  10  24  45  69  90 125 176 226 277 333 395
#     4  11  23  38  63  96 127 171 211 267 327 402
#     4  12  25  39  59  92 134 171 211 263 321 398
#     4  11  23  43  63  91 130 175 219 270 338 391
#     4  10  23  41  64  94 124 166 220 278 329 386
#     4  10  20  36  62  88 132 164 214 258 330 390
#
# _framework density 21.248045000000001
#
# number of rings (size 3 to 8) (size 9 to 14) (size 15 to 20)
#    0.000    1.231    1.538    4.615    4.308    4.923 
#    0.000    1.538    0.000    0.000    0.000    0.000 
#    0.000    0.000    0.000    0.000    0.000    0.000 
#
# Total GULP energy -644695.035967 kJ/mol
# GULP energy per Si atom -12397.981461 kJ/mol
# Density = 2.119968 g / cm^3
# Si number density = 21.248045 Si / 1000 Ang^3
#
#
#
# Elastic Constant Matrix: (Units=GPa)
#
#
# Indices 1 2 3 4 5 6 
#
# 1 57.7133 18.9897 30.5848 0.0000 0.0000 0.0000
# 2 18.9897 140.8982 57.9306 0.0000 0.0000 0.0000
# 3 30.5848 57.9306 109.8288 0.0000 0.0000 0.0000
# 4 0.0000 0.0000 0.0000 40.7663 0.0000 0.0000
# 5 0.0000 0.0000 0.0000 0.0000 17.3568 0.0000
# 6 0.0000 0.0000 0.0000 0.0000 0.0000 23.4120
#
#
#
# Elastic Compliance Matrix: (Units=1/GPa)
#
#
# Indices 1 2 3 4 5 6 
#
# 1 0.020357 -0.000527 -0.005391 0.000000 0.000000 0.000000
# 2 -0.000527 0.009076 -0.004641 0.000000 0.000000 0.000000
# 3 -0.005391 -0.004641 0.013054 0.000000 0.000000 0.000000
# 4 0.000000 0.000000 0.000000 0.024530 0.000000 0.000000
# 5 0.000000 0.000000 0.000000 0.000000 0.057614 0.000000
# 6 0.000000 0.000000 0.000000 0.000000 0.000000 0.042713
#
#
# Mechanical properties :
#
#
# Convention : Reuss Voigt Hill
#
# Bulk Modulus (GPa) = 46.79401 58.16118 52.47759
# Shear Modulus (GPa) = 25.56414 29.70271 27.63343
#
# Velocity S-wave (km/s) = 3.47238 3.74291 3.61018
# Velocity P-wave (km/s) = 6.17633 6.79051 6.49069
#
# Compressibility (1/GPa) = 0.02137026
#
# Stress axis : x y z
#
# Youngs Moduli (GPa) = 49.12219 110.17602 76.60418
#
# Poissons Ratio (x) = 0.05808 0.41297
# Poissons Ratio (y) = 0.02590 0.35549
# Poissons Ratio (z) = 0.26482 0.51129
#
# Static dielectric constant tensor:
#      x y z
#    x 3.824220 0.000000 0.000000 
#    y 0.000000 3.913190 0.000000 
#    z 0.000000 0.000000 3.996590 
# 
# 
# High freq. dielectric constant tensor:
#      x y z
#    x 1.813040 0.000000 0.000000 
#    y 0.000000 1.851430 0.000000 
#    z 0.000000 0.000000 1.841290 
# 
# From -- ./inp_files/27602.got.cif
#   From: 2010.03.12/outbox.cif.g09.slc.cpg/sg73_14_cif.got.tgz:27602.got - 2010.04.16 15:25:48.
