data_PCOD8295119
_publ_section_title
;
Structure prediction by ZEFSAII (Michael W. Deem and Ramdas Pophale) SiO2 
 PCOD8295119
Probable space group: I B A M
;
_chemical_formula_sum "Si O2"
_cell_formula_units_Z 96
_cell_length_a 13.718385
_cell_length_b 20.405021
_cell_length_c 17.098163
_cell_angle_alpha 90.000000
_cell_angle_beta 90.000000
_cell_angle_gamma 90.000000
_cell_volume 4786.185051
_symmetry_space_group_name_H-M "I B A M"
_symmetry_group_IT_number 72
_symmetry_cell_setting 'orthorhombic'
loop_
_space_group_symop_operation_xyz
x,y,z
-x,-y,z
x,-y,1/2-z
-x,y,1/2-z
-x,-y,-z
x,y,-z
-x,y,1/2+z
x,-y,1/2+z
1/2+x,1/2+y,1/2+z
1/2-x,1/2-y,1/2+z
1/2+x,1/2-y,-z
1/2-x,1/2+y,-z
1/2-x,1/2-y,1/2-z
1/2+x,1/2+y,1/2-z
1/2-x,1/2+y,z
1/2+x,1/2-y,z
loop_
_atom_site_type_symbol
_atom_site_label
_atom_site_fract_x
_atom_site_fract_y
_atom_site_fract_z
Si Si1 0.964551 0.427615 0.663782
Si Si2 0.754342 0.065076 0.800389
Si Si3 0.083237 0.317865 0.410435
Si Si4 0.043386 0.806846 0.408586
Si Si5 0.564383 0.439222 0.591767
Si Si6 0.730966 0.311790 0.195648
O O1 0.848492 0.420216 0.658659
O O2 0.000000 0.500000 0.641280
O O3 0.000000 0.407716 0.750000
O O4 0.009222 0.377821 0.601357
O O5 0.831101 0.054881 0.868894
O O6 0.791059 0.124656 0.747249
O O7 0.742751 0.000000 0.750000
O O8 0.117217 0.316248 0.500000
O O9 0.176678 0.328077 0.357241
O O10 0.031126 0.250528 0.386891
O O11 0.070943 0.806613 0.500000
O O12 0.140486 0.795809 0.359590
O O13 0.991912 0.873910 0.383091
O O14 0.500000 0.500000 0.620617
O O15 0.583548 0.441375 0.500000
O O16 0.750000 0.250000 0.250000
#
# Coordination Sequence:
#
# PCOD8295119 Si02
#       6
#    16  16  16  16  16  16
#     4  11  21  42  64  88 126 162 202 257 313 368
#     4  12  23  38  65  93 121 161 204 257 311 367
#     4  11  24  41  62  90 124 163 207 259 314 374
#     4  10  23  42  61  86 125 164 202 256 311 370
#     4  10  23  43  64  89 126 166 207 256 310 371
#     4  12  24  38  63  92 120 163 207 256 312 375
#
# _framework density 20.057728000000001
#
# number of rings (size 3 to 8) (size 9 to 14) (size 15 to 20)
#    0.000    1.000    3.333    3.500    0.000    4.667 
#    0.000    8.333    0.000    0.000    0.000    0.000 
#    0.000    0.000    0.000    0.000    0.000    0.000 
#
# Total GULP energy -595564.668502 kJ/mol
# GULP energy per Si atom -12407.597260 kJ/mol
# Density = 2.001208 g / cm^3
# Si number density = 20.057728 Si / 1000 Ang^3
#
#
#
# Elastic Constant Matrix: (Units=GPa)
#
#
# Indices 1 2 3 4 5 6 
#
# 1 133.3743 14.4381 52.5660 0.0000 0.0000 0.0000
# 2 14.4381 106.9793 25.3094 0.0001 -0.0001 0.0000
# 3 52.5660 25.3094 52.9482 0.0002 -0.0003 0.0000
# 4 0.0000 0.0001 0.0002 30.3838 -0.0001 0.0000
# 5 0.0000 -0.0001 -0.0003 -0.0001 57.8062 0.0000
# 6 0.0000 0.0000 0.0000 0.0000 0.0000 28.6609
#
#
#
# Elastic Compliance Matrix: (Units=1/GPa)
#
#
# Indices 1 2 3 4 5 6 
#
# 1 0.012503 0.001408 -0.013086 0.000000 0.000000 0.000000
# 2 0.001408 0.010698 -0.006512 0.000000 0.000000 0.000000
# 3 -0.013086 -0.006512 0.034990 0.000000 0.000000 0.000000
# 4 0.000000 0.000000 0.000000 0.032912 0.000000 0.000000
# 5 0.000000 0.000000 0.000000 0.000000 0.017299 0.000000
# 6 0.000000 0.000000 0.000000 0.000000 0.000000 0.034891
#
#
# Mechanical properties :
#
#
# Convention : Reuss Voigt Hill
#
# Bulk Modulus (GPa) = 45.84489 53.10321 49.47405
# Shear Modulus (GPa) = 26.74623 36.76939 31.75781
#
# Velocity S-wave (km/s) = 3.65562 4.28621 3.98341
# Velocity P-wave (km/s) = 6.38155 7.14340 6.77319
#
# Compressibility (1/GPa) = 0.02181268
#
# Stress axis : x y z
#
# Youngs Moduli (GPa) = 79.98361 93.47424 28.57943
#
# Poissons Ratio (x) = -0.13165 0.37398
# Poissons Ratio (y) = -0.11265 0.18611
# Poissons Ratio (z) = 1.04663 0.60870
#
# Static dielectric constant tensor:
#      x y z
#    x 3.783260 0.000000 0.000000 
#    y 0.000000 3.853930 0.000000 
#    z 0.000000 0.000000 3.676800 
# 
# 
# High freq. dielectric constant tensor:
#      x y z
#    x 1.794910 0.000000 0.000000 
#    y 0.000000 1.801870 0.000000 
#    z 0.000000 0.000000 1.780640 
# 
# From -- ./inp_files/21812.got.cif
#   From: 2010.03.12/outbox.cif.g09.slc.cpg/sg72_11_cif.got.tgz:21812.got - 2010.04.16 14:54:00.
