data_PCOD8295223
_publ_section_title
;
Structure prediction by ZEFSAII (Michael W. Deem and Ramdas Pophale) SiO2 
 PCOD8295223
Probable space group: I B A M
;
_chemical_formula_sum "Si O2"
_cell_formula_units_Z 96
_cell_length_a 11.600414
_cell_length_b 18.545976
_cell_length_c 22.567356
_cell_angle_alpha 90.000000
_cell_angle_beta 90.000000
_cell_angle_gamma 90.000000
_cell_volume 4855.163529
_symmetry_space_group_name_H-M "I B A M"
_symmetry_group_IT_number 72
_symmetry_cell_setting 'orthorhombic'
loop_
_space_group_symop_operation_xyz
x,y,z
-x,-y,z
x,-y,1/2-z
-x,y,1/2-z
-x,-y,-z
x,y,-z
-x,y,1/2+z
x,-y,1/2+z
1/2+x,1/2+y,1/2+z
1/2-x,1/2-y,1/2+z
1/2+x,1/2-y,-z
1/2-x,1/2+y,-z
1/2-x,1/2-y,1/2-z
1/2+x,1/2+y,1/2-z
1/2-x,1/2+y,z
1/2+x,1/2-y,z
loop_
_atom_site_type_symbol
_atom_site_label
_atom_site_fract_x
_atom_site_fract_y
_atom_site_fract_z
Si Si1 0.695845 0.651328 0.169219
Si Si2 0.717830 0.784012 0.000000
Si Si3 0.556671 0.186327 0.187423
Si Si4 0.336611 0.186899 0.873503
Si Si5 0.131003 0.848599 0.698022
Si Si6 0.020652 0.810607 0.500000
Si Si7 0.486101 0.580527 0.395762
O O1 0.830403 0.637267 0.179798
O O2 0.674430 0.728767 0.140611
O O3 0.626380 0.644235 0.231162
O O4 0.647822 0.593266 0.122210
O O5 0.701321 0.830917 0.059334
O O6 0.607064 0.727683 0.000000
O O7 0.858082 0.761298 0.000000
O O8 0.500000 0.169268 0.250000
O O9 0.469260 0.163942 0.135118
O O10 0.585384 0.270114 0.179939
O O11 0.261049 0.142938 0.826127
O O12 0.056591 0.909539 0.665467
O O13 0.029460 0.861526 0.557046
O O14 0.500000 0.500000 0.420906
#
# Coordination Sequence:
#
# PCOD8295223 Si02
#       7
#    16   8  16  16  16   8  16
#     4  11  21  33  56  90 123 157 201 250 309 372
#     4  12  24  38  66  92 128 152 194 262 316 372
#     4  11  17  32  57  90 122 153 187 253 330 364
#     4  11  20  34  56  89 123 152 190 256 324 366
#     4  11  19  34  56  87 124 153 198 244 308 371
#     4  12  25  46  64 100 123 156 204 262 322 366
#     4  12  25  41  60  85 125 170 210 247 288 364
#
# _framework density 19.772763999999999
#
# number of rings (size 3 to 8) (size 9 to 14) (size 15 to 20)
#    0.000    0.667    8.333    1.750    2.333    1.333 
#    0.000    0.000    0.000    1.000    0.000    2.333 
#    0.000    0.000    0.000    0.000    0.000    0.000 
#
# Total GULP energy -594670.862801 kJ/mol
# GULP energy per Si atom -12388.976308 kJ/mol
# Density = 1.972776 g / cm^3
# Si number density = 19.772764 Si / 1000 Ang^3
#
#
#
# Elastic Constant Matrix: (Units=GPa)
#
#
# Indices 1 2 3 4 5 6 
#
# 1 150.7053 29.0771 26.4372 0.0000 0.0000 0.0000
# 2 29.0771 44.0016 7.5942 0.0000 0.0000 0.0000
# 3 26.4372 7.5942 99.0082 0.0000 0.0000 0.0000
# 4 0.0000 0.0000 0.0000 10.8192 0.0000 0.0000
# 5 0.0000 0.0000 0.0000 0.0000 31.7869 0.0000
# 6 0.0000 0.0000 0.0000 0.0000 0.0000 17.0532
#
#
#
# Elastic Compliance Matrix: (Units=1/GPa)
#
#
# Indices 1 2 3 4 5 6 
#
# 1 0.007887 -0.004913 -0.001729 0.000000 0.000000 0.000000
# 2 -0.004913 0.026092 -0.000689 0.000000 0.000000 0.000000
# 3 -0.001729 -0.000689 0.010615 0.000000 0.000000 0.000000
# 4 0.000000 0.000000 0.000000 0.092428 0.000000 0.000000
# 5 0.000000 0.000000 0.000000 0.000000 0.031460 0.000000
# 6 0.000000 0.000000 0.000000 0.000000 0.000000 0.058640
#
#
# Mechanical properties :
#
#
# Convention : Reuss Voigt Hill
#
# Bulk Modulus (GPa) = 33.41105 46.65913 40.03509
# Shear Modulus (GPa) = 19.86005 27.30563 23.58284
#
# Velocity S-wave (km/s) = 3.17269 3.72017 3.45729
# Velocity P-wave (km/s) = 5.50958 6.48859 6.01902
#
# Compressibility (1/GPa) = 0.02993022
#
# Stress axis : x y z
#
# Youngs Moduli (GPa) = 126.79484 38.32557 94.20860
#
# Poissons Ratio (x) = 0.18831 0.16289
# Poissons Ratio (y) = 0.62298 0.06495
# Poissons Ratio (z) = 0.21924 0.02642
#
# Static dielectric constant tensor:
#      x y z
#    x 4.405150 0.000000 0.000000 
#    y 0.000000 2.936660 0.000000 
#    z 0.000000 0.000000 3.818220 
# 
# 
# High freq. dielectric constant tensor:
#      x y z
#    x 1.800240 0.000000 0.000000 
#    y 0.000000 1.682310 0.000000 
#    z 0.000000 0.000000 1.786600 
# 
# From -- ./inp_files/43374.got.cif
#   From: 2010.03.12/outbox.cif.g09.slc.cpg/sg72_22_cif.got.tgz:43374.got - 2010.04.16 14:54:00.
