data_PCOD8295156
_publ_section_title
;
Structure prediction by ZEFSAII (Michael W. Deem and Ramdas Pophale) SiO2 
 PCOD8295156
Probable space group: I B A M
;
_chemical_formula_sum "Si O2"
_cell_formula_units_Z 68
_cell_length_a 8.694566
_cell_length_b 21.596170
_cell_length_c 14.861321
_cell_angle_alpha 90.000000
_cell_angle_beta 90.000000
_cell_angle_gamma 90.000000
_cell_volume 2790.500219
_symmetry_space_group_name_H-M "I B A M"
_symmetry_group_IT_number 72
_symmetry_cell_setting 'orthorhombic'
loop_
_space_group_symop_operation_xyz
x,y,z
-x,-y,z
x,-y,1/2-z
-x,y,1/2-z
-x,-y,-z
x,y,-z
-x,y,1/2+z
x,-y,1/2+z
1/2+x,1/2+y,1/2+z
1/2-x,1/2-y,1/2+z
1/2+x,1/2-y,-z
1/2-x,1/2+y,-z
1/2-x,1/2-y,1/2-z
1/2+x,1/2+y,1/2-z
1/2-x,1/2+y,z
1/2+x,1/2-y,z
loop_
_atom_site_type_symbol
_atom_site_label
_atom_site_fract_x
_atom_site_fract_y
_atom_site_fract_z
Si Si1 0.000000 0.000000 0.250000
Si Si2 0.016770 0.431574 0.101669
Si Si3 0.601236 0.190657 0.665384
Si Si4 0.366705 0.587393 0.397477
Si Si5 0.924840 0.796762 0.900967
O O1 0.103999 0.961364 0.181390
O O2 0.184929 0.401373 0.106602
O O3 0.000000 0.500000 0.146278
O O4 0.905638 0.383395 0.151550
O O5 0.956581 0.437420 0.000000
O O6 0.500000 0.211621 0.750000
O O7 0.783208 0.206068 0.669930
O O8 0.519695 0.232698 0.589496
O O9 0.409958 0.564894 0.500000
O O10 0.455307 0.649985 0.371995
O O11 0.856188 0.811435 0.000000
#
# Coordination Sequence:
#
# PCOD8295156 Si02
#       5
#     4  16  16  16  16
#     4  12  26  40  74  94 144 176 222 288 344 406
#     4  10  23  44  68  96 137 184 230 278 341 416
#     4  12  26  41  69 102 136 172 228 292 349 421
#     4  10  25  44  69 102 136 182 235 283 343 422
#     4  11  24  45  70  96 135 181 231 283 350 421
#
# _framework density 24.368390000000002
#
# number of rings (size 3 to 8) (size 9 to 14) (size 15 to 20)
#    0.000    1.176    0.000    4.588    8.235    2.353 
#    0.000    0.000    0.000    0.000    0.000    0.000 
#    0.000    0.000    0.000    0.000    0.000    0.000 
#
# Total GULP energy -421398.179260 kJ/mol
# GULP energy per Si atom -12394.064096 kJ/mol
# Density = 2.431293 g / cm^3
# Si number density = 24.368390 Si / 1000 Ang^3
#
#
#
# Elastic Constant Matrix: (Units=GPa)
#
#
# Indices 1 2 3 4 5 6 
#
# 1 132.5595 61.4425 16.0024 0.0000 0.0000 0.0000
# 2 61.4425 154.7882 18.9793 0.0001 0.0000 0.0000
# 3 16.0024 18.9793 78.2032 -0.0011 -0.0001 -0.0001
# 4 0.0000 0.0001 -0.0011 81.5109 0.0001 0.0001
# 5 0.0000 0.0000 -0.0001 0.0001 29.4554 0.0000
# 6 0.0000 0.0000 -0.0001 0.0001 0.0000 44.0119
#
#
#
# Elastic Compliance Matrix: (Units=1/GPa)
#
#
# Indices 1 2 3 4 5 6 
#
# 1 0.009326 -0.003574 -0.001041 0.000000 0.000000 0.000000
# 2 -0.003574 0.008028 -0.001217 0.000000 0.000000 0.000000
# 3 -0.001041 -0.001217 0.013296 0.000000 0.000000 0.000000
# 4 0.000000 0.000000 0.000000 0.012268 0.000000 0.000000
# 5 0.000000 0.000000 0.000000 0.000000 0.033950 0.000000
# 6 0.000000 0.000000 0.000000 0.000000 0.000000 0.022721
#
#
# Mechanical properties :
#
#
# Convention : Reuss Voigt Hill
#
# Bulk Modulus (GPa) = 52.67145 62.04437 57.35791
# Shear Modulus (GPa) = 42.52332 48.93740 45.73036
#
# Velocity S-wave (km/s) = 4.18188 4.48619 4.33670
# Velocity P-wave (km/s) = 6.70664 7.23539 6.97603
#
# Compressibility (1/GPa) = 0.01898562
#
# Stress axis : x y z
#
# Youngs Moduli (GPa) = 107.22499 124.55632 75.21304
#
# Poissons Ratio (x) = 0.44521 0.07829
# Poissons Ratio (y) = 0.38326 0.09154
# Poissons Ratio (z) = 0.11161 0.15159
#
# Static dielectric constant tensor:
#      x y z
#    x 4.140540 0.000000 0.000000 
#    y 0.000000 4.323940 0.000000 
#    z 0.000000 0.000000 4.581130 
# 
# 
# High freq. dielectric constant tensor:
#      x y z
#    x 1.964740 0.000000 0.000000 
#    y 0.000000 1.972260 0.000000 
#    z 0.000000 0.000000 1.968140 
# 
# From -- ./inp_files/27800.got.cif
#   From: 2010.03.12/outbox.cif.g09.slc.cpg/sg72_14_cif.got.tgz:27800.got - 2010.04.16 14:54:00.
