data_PCOD8295929
_publ_section_title
;
Structure prediction by ZEFSAII (Michael W. Deem and Ramdas Pophale) SiO2 
 PCOD8295929
Probable space group: I B C A 
;
_chemical_formula_sum "Si O2"
_cell_formula_units_Z 112
_cell_length_a 25.836535
_cell_length_b 14.396560
_cell_length_c 14.631571
_cell_angle_alpha 90.000000
_cell_angle_beta 90.000000
_cell_angle_gamma 90.000000
_cell_volume 5442.318566
_symmetry_space_group_name_H-M "I B C A "
_symmetry_group_IT_number 73
_symmetry_cell_setting 'orthorhombic'
loop_
_space_group_symop_operation_xyz
x,y,z
-x,1/2-y,z
x,-y,1/2-z
1/2-x,y,-z
-x,-y,-z
x,1/2+y,-z
-x,y,1/2+z
1/2+x,-y,z
1/2+x,1/2+y,1/2+z
1/2-x,-y,1/2+z
1/2+x,1/2-y,-z
-x,1/2+y,1/2-z
1/2-x,1/2-y,1/2-z
1/2+x,y,1/2-z
1/2-x,1/2+y,z
x,1/2-y,1/2+z
loop_
_atom_site_type_symbol
_atom_site_label
_atom_site_fract_x
_atom_site_fract_y
_atom_site_fract_z
Si Si1 0.228094 0.010552 0.895089
Si Si2 0.031247 0.924425 0.828079
Si Si3 0.618984 0.866038 0.286836
Si Si4 0.079486 0.047429 0.120502
Si Si5 0.051249 0.202403 0.827096
Si Si6 0.263007 0.640760 0.262708
Si Si7 0.890296 0.037500 0.421088
O O1 0.258451 0.087742 0.834864
O O2 0.168636 0.043250 0.888932
O O3 0.230004 0.910156 0.843209
O O4 0.250000 0.005503 0.000000
O O5 0.036966 0.826011 0.777052
O O6 0.981099 0.928456 0.893857
O O7 0.022680 0.000000 0.750000
O O8 0.083372 0.941517 0.886931
O O9 0.605889 0.871023 0.179438
O O10 0.599727 0.770648 0.329031
O O11 0.679717 0.872456 0.302073
O O12 0.586649 0.947706 0.333428
O O13 0.111386 0.044092 0.028552
O O14 0.071134 0.116139 0.884816
O O15 0.000000 0.250000 0.871232
O O16 0.250000 0.750000 0.250000
#
# Coordination Sequence:
#
# PCOD8295929 Si02
#       7
#    16  16  16  16  16  16  16
#     4  11  24  46  66  98 135 174 231 284 336 395
#     4  10  20  37  62  90 125 162 201 256 316 388
#     4  11  21  40  66  83 129 171 215 251 332 379
#     4  11  20  42  61  92 122 174 205 255 321 399
#     4  11  22  41  61  98 130 166 210 269 320 395
#     4  11  25  41  68  96 130 178 228 281 338 400
#     4  11  24  38  68  91 130 165 217 265 327 379
#
# _framework density 20.579464999999999
#
# number of rings (size 3 to 8) (size 9 to 14) (size 15 to 20)
#    0.000    1.143    2.857    5.571    8.000    0.571 
#    5.143    2.857    0.000    0.000    0.000    0.000 
#    0.000    0.000    0.000    0.000    0.000    0.000 
#
# Total GULP energy -694099.703316 kJ/mol
# GULP energy per Si atom -12394.637559 kJ/mol
# Density = 2.053262 g / cm^3
# Si number density = 20.579465 Si / 1000 Ang^3
#
#
#
# Elastic Constant Matrix: (Units=GPa)
#
#
# Indices 1 2 3 4 5 6 
#
# 1 131.7294 20.7949 22.1611 0.0000 0.0000 0.0000
# 2 20.7949 90.7284 31.0696 0.0000 0.0000 0.0000
# 3 22.1611 31.0696 102.3515 0.0000 0.0000 0.0000
# 4 0.0000 0.0000 0.0000 13.2680 0.0000 0.0000
# 5 0.0000 0.0000 0.0000 0.0000 30.6387 0.0000
# 6 0.0000 0.0000 0.0000 0.0000 0.0000 27.5647
#
#
#
# Elastic Compliance Matrix: (Units=1/GPa)
#
#
# Indices 1 2 3 4 5 6 
#
# 1 0.008032 -0.001390 -0.001317 0.000000 0.000000 0.000000
# 2 -0.001390 0.012541 -0.003506 0.000000 0.000000 0.000000
# 3 -0.001317 -0.003506 0.011120 0.000000 0.000000 0.000000
# 4 0.000000 0.000000 0.000000 0.075369 0.000000 0.000000
# 5 0.000000 0.000000 0.000000 0.000000 0.032638 0.000000
# 6 0.000000 0.000000 0.000000 0.000000 0.000000 0.036278
#
#
# Mechanical properties :
#
#
# Convention : Reuss Voigt Hill
#
# Bulk Modulus (GPa) = 51.90266 52.54007 52.22136
# Shear Modulus (GPa) = 25.66366 31.01318 28.33842
#
# Velocity S-wave (km/s) = 3.53519 3.88622 3.71485
# Velocity P-wave (km/s) = 6.47602 6.76185 6.62048
#
# Compressibility (1/GPa) = 0.01926684
#
# Stress axis : x y z
#
# Youngs Moduli (GPa) = 124.49678 79.73789 89.93017
#
# Poissons Ratio (x) = 0.11083 0.11846
# Poissons Ratio (y) = 0.17304 0.31530
# Poissons Ratio (z) = 0.16399 0.27956
#
# Static dielectric constant tensor:
#      x y z
#    x 3.793160 0.000000 0.000000 
#    y 0.000000 3.904320 0.000000 
#    z 0.000000 0.000000 3.867560 
# 
# 
# High freq. dielectric constant tensor:
#      x y z
#    x 1.820380 0.000000 0.000000 
#    y 0.000000 1.799210 0.000000 
#    z 0.000000 0.000000 1.793130 
# 
# From -- ./inp_files/19419.got.cif
#   From: 2010.03.12/outbox.cif.g09.slc.cpg/sg73_10_cif.got.tgz:19419.got - 2010.04.16 15:25:48.
