data_PCOD8295803
_publ_section_title
;
Structure prediction by ZEFSAII (Michael W. Deem and Ramdas Pophale) SiO2 
 PCOD8295803
Probable space group: I B C A 
;
_chemical_formula_sum "Si O2"
_cell_formula_units_Z 104
_cell_length_a 18.729529
_cell_length_b 25.359188
_cell_length_c 8.954880
_cell_angle_alpha 90.000000
_cell_angle_beta 90.000000
_cell_angle_gamma 90.000000
_cell_volume 4253.260374
_symmetry_space_group_name_H-M "I B C A "
_symmetry_group_IT_number 73
_symmetry_cell_setting 'orthorhombic'
loop_
_space_group_symop_operation_xyz
x,y,z
-x,1/2-y,z
x,-y,1/2-z
1/2-x,y,-z
-x,-y,-z
x,1/2+y,-z
-x,y,1/2+z
1/2+x,-y,z
1/2+x,1/2+y,1/2+z
1/2-x,-y,1/2+z
1/2+x,1/2-y,-z
-x,1/2+y,1/2-z
1/2-x,1/2-y,1/2-z
1/2+x,y,1/2-z
1/2-x,1/2+y,z
x,1/2-y,1/2+z
loop_
_atom_site_type_symbol
_atom_site_label
_atom_site_fract_x
_atom_site_fract_y
_atom_site_fract_z
Si Si1 0.250000 0.356970 0.500000
Si Si2 0.824099 0.500000 0.250000
Si Si3 0.925909 0.597081 0.962497
Si Si4 0.723133 0.908271 0.702296
Si Si5 0.598686 0.712099 0.964008
Si Si6 0.750000 0.180830 0.000000
Si Si7 0.563967 0.923516 0.189096
Si Si8 0.111369 0.688908 0.877126
O O1 0.214068 0.396521 0.378166
O O2 0.193048 0.317274 0.572213
O O3 0.772327 0.458900 0.333818
O O4 0.877351 0.532818 0.362630
O O5 0.851275 0.584509 0.883008
O O6 0.983794 0.564215 0.865279
O O7 0.939839 0.660737 0.964450
O O8 0.928220 0.577058 0.131973
O O9 0.767016 0.857860 0.640007
O O10 0.600715 0.711659 0.787238
O O11 0.679722 0.714797 0.029054
O O12 0.568105 0.768942 0.017874
O O13 0.578331 0.868688 0.106990
#
# Coordination Sequence:
#
# PCOD8295803 Si02
#       8
#     8   8  16  16  16   8  16  16
#     4  12  23  39  68 108 144 182 249 305 352 428
#     4  12  24  48  76 104 140 186 236 304 380 428
#     4  10  26  48  70 100 143 188 238 299 361 435
#     4  11  24  42  72 102 140 187 238 305 362 435
#     4  10  22  39  66  97 142 189 228 288 361 421
#     4  10  19  43  62  92 140 184 225 291 356 416
#     4  11  26  49  71 104 145 187 245 305 358 442
#     4  11  24  41  64 107 144 187 239 297 350 438
#
# _framework density 24.451830000000001
#
# number of rings (size 3 to 8) (size 9 to 14) (size 15 to 20)
#    0.000    1.231    3.077    2.308    6.462    4.923 
#    0.000    3.077    0.000    0.000    0.000    0.000 
#    0.000    0.000    0.000    0.000    0.000    0.000 
#
# Total GULP energy -644415.967456 kJ/mol
# GULP energy per Si atom -12392.614759 kJ/mol
# Density = 2.439618 g / cm^3
# Si number density = 24.451830 Si / 1000 Ang^3
#
#
#
# Elastic Constant Matrix: (Units=GPa)
#
#
# Indices 1 2 3 4 5 6 
#
# 1 99.6586 39.5276 38.5462 0.0000 0.0000 0.0000
# 2 39.5276 131.8175 32.4305 0.0000 0.0000 0.0000
# 3 38.5462 32.4305 111.4730 0.0000 0.0000 0.0000
# 4 0.0000 0.0000 0.0000 13.2464 0.0000 0.0000
# 5 0.0000 0.0000 0.0000 0.0000 35.8714 0.0000
# 6 0.0000 0.0000 0.0000 0.0000 0.0000 11.8221
#
#
#
# Elastic Compliance Matrix: (Units=1/GPa)
#
#
# Indices 1 2 3 4 5 6 
#
# 1 0.012535 -0.002900 -0.003491 0.000000 0.000000 0.000000
# 2 -0.002900 0.008842 -0.001570 0.000000 0.000000 0.000000
# 3 -0.003491 -0.001570 0.010634 0.000000 0.000000 0.000000
# 4 0.000000 0.000000 0.000000 0.075492 0.000000 0.000000
# 5 0.000000 0.000000 0.000000 0.000000 0.027877 0.000000
# 6 0.000000 0.000000 0.000000 0.000000 0.000000 0.084588
#
#
# Mechanical properties :
#
#
# Convention : Reuss Voigt Hill
#
# Bulk Modulus (GPa) = 62.14785 62.66197 62.40491
# Shear Modulus (GPa) = 20.72521 27.68429 24.20475
#
# Velocity S-wave (km/s) = 2.91450 3.36846 3.14967
# Velocity P-wave (km/s) = 6.06609 6.38835 6.22930
#
# Compressibility (1/GPa) = 0.01609066
#
# Stress axis : x y z
#
# Youngs Moduli (GPa) = 79.77936 113.09668 94.03392
#
# Poissons Ratio (x) = 0.32797 0.32824
# Poissons Ratio (y) = 0.23135 0.14760
# Poissons Ratio (z) = 0.27848 0.17752
#
# Static dielectric constant tensor:
#      x y z
#    x 4.421490 0.000000 0.000000 
#    y 0.000000 4.533060 0.000000 
#    z 0.000000 0.000000 4.264340 
# 
# 
# High freq. dielectric constant tensor:
#      x y z
#    x 1.975880 0.000000 0.000000 
#    y 0.000000 1.977390 0.000000 
#    z 0.000000 0.000000 1.956030 
# 
# From -- ./inp_files/6597.got.cif
#   From: 2010.03.12/outbox.cif.g09.slc.cpg/sg73_4_cif.got.tgz:6597.got - 2010.04.16 15:25:48.
