data_PCOD8295799
_publ_section_title
;
Structure prediction by ZEFSAII (Michael W. Deem and Ramdas Pophale) SiO2 
 PCOD8295799
Probable space group: I B C A 
;
_chemical_formula_sum "Si O2"
_cell_formula_units_Z 72
_cell_length_a 8.483223
_cell_length_b 23.804825
_cell_length_c 15.053470
_cell_angle_alpha 90.000000
_cell_angle_beta 90.000000
_cell_angle_gamma 90.000000
_cell_volume 3039.922404
_symmetry_space_group_name_H-M "I B C A "
_symmetry_group_IT_number 73
_symmetry_cell_setting 'orthorhombic'
loop_
_space_group_symop_operation_xyz
x,y,z
-x,1/2-y,z
x,-y,1/2-z
1/2-x,y,-z
-x,-y,-z
x,1/2+y,-z
-x,y,1/2+z
1/2+x,-y,z
1/2+x,1/2+y,1/2+z
1/2-x,-y,1/2+z
1/2+x,1/2-y,-z
-x,1/2+y,1/2-z
1/2-x,1/2-y,1/2-z
1/2+x,y,1/2-z
1/2-x,1/2+y,z
x,1/2-y,1/2+z
loop_
_atom_site_type_symbol
_atom_site_label
_atom_site_fract_x
_atom_site_fract_y
_atom_site_fract_z
Si Si1 0.750000 0.114090 0.000000
Si Si2 0.721352 0.803724 0.644350
Si Si3 0.097368 0.458948 0.138500
Si Si4 0.142603 0.684119 0.833711
Si Si5 0.250975 0.433178 0.319467
O O1 0.816649 0.157372 0.925604
O O2 0.619262 0.073681 0.955002
O O3 0.830214 0.803118 0.730333
O O4 0.543890 0.829077 0.656264
O O5 0.699692 0.738845 0.611270
O O6 0.208549 0.431266 0.214601
O O7 0.137072 0.525321 0.125684
O O8 0.922679 0.459113 0.173510
O O9 0.246099 0.629627 0.861150
#
# Coordination Sequence:
#
# PCOD8295799 Si02
#       5
#     8  16  16  16  16
#     4  12  22  42  58 100 132 164 188 292 318 364
#     4  10  22  38  71  91 127 161 215 255 329 357
#     4  11  24  37  71  88 133 162 219 259 321 362
#     4  10  19  42  66  92 117 172 212 256 293 411
#     4  11  20  42  63  95 116 179 214 253 296 404
#
# _framework density 23.684816000000001
#
# number of rings (size 3 to 8) (size 9 to 14) (size 15 to 20)
#    0.000    1.333    4.444    2.667    0.000    0.889 
#    0.000   10.000    0.000    0.000    0.000    0.000 
#    0.000    0.000    0.000    0.000    0.000    0.000 
#
# Total GULP energy -446043.599420 kJ/mol
# GULP energy per Si atom -12390.099984 kJ/mol
# Density = 2.363091 g / cm^3
# Si number density = 23.684816 Si / 1000 Ang^3
#
#
#
# Elastic Constant Matrix: (Units=GPa)
#
#
# Indices 1 2 3 4 5 6 
#
# 1 76.2220 22.7968 21.8346 0.0000 0.0000 0.0000
# 2 22.7968 174.5311 34.7192 -0.0001 0.0000 0.0000
# 3 21.8346 34.7192 78.0629 -0.0011 -0.0001 -0.0001
# 4 0.0000 -0.0001 -0.0011 46.6077 0.0000 0.0000
# 5 0.0000 0.0000 -0.0001 0.0000 10.5999 -0.0001
# 6 0.0000 0.0000 -0.0001 0.0000 -0.0001 23.8856
#
#
#
# Elastic Compliance Matrix: (Units=1/GPa)
#
#
# Indices 1 2 3 4 5 6 
#
# 1 0.014485 -0.001191 -0.003522 0.000000 0.000000 0.000000
# 2 -0.001191 0.006384 -0.002506 0.000000 0.000000 0.000000
# 3 -0.003522 -0.002506 0.014910 0.000000 0.000000 0.000000
# 4 0.000000 0.000000 0.000000 0.021456 0.000000 0.000000
# 5 0.000000 0.000000 0.000000 0.000000 0.094340 0.000000
# 6 0.000000 0.000000 0.000000 0.000000 0.000000 0.041866
#
#
# Mechanical properties :
#
#
# Convention : Reuss Voigt Hill
#
# Bulk Modulus (GPa) = 46.85973 54.16858 50.51416
# Shear Modulus (GPa) = 23.25669 32.84966 28.05317
#
# Velocity S-wave (km/s) = 3.13697 3.72822 3.44530
# Velocity P-wave (km/s) = 5.74007 6.43840 6.09924
#
# Compressibility (1/GPa) = 0.02134028
#
# Stress axis : x y z
#
# Youngs Moduli (GPa) = 69.03838 156.64712 67.07019
#
# Poissons Ratio (x) = 0.18663 0.23619
# Poissons Ratio (y) = 0.08225 0.16808
# Poissons Ratio (z) = 0.24312 0.39256
#
# Static dielectric constant tensor:
#      x y z
#    x 3.948210 0.000000 0.000000 
#    y 0.000000 5.033010 0.000000 
#    z 0.000000 0.000000 3.962740 
# 
# 
# High freq. dielectric constant tensor:
#      x y z
#    x 1.911730 0.000000 0.000000 
#    y 0.000000 1.981210 0.000000 
#    z 0.000000 0.000000 1.894630 
# 
# From -- ./inp_files/20701.got.cif
#   From: 2010.03.12/outbox.cif.g09.slc.cpg/sg73_11_cif.got.tgz:20701.got - 2010.04.16 15:25:48.
