data_PCOD8295503
_publ_section_title
;
Structure prediction by ZEFSAII (Michael W. Deem and Ramdas Pophale) SiO2 
 PCOD8295503
Probable space group: I B A M
;
_chemical_formula_sum "Si O2"
_cell_formula_units_Z 80
_cell_length_a 9.648171
_cell_length_b 28.158377
_cell_length_c 16.412067
_cell_angle_alpha 90.000000
_cell_angle_beta 90.000000
_cell_angle_gamma 90.000000
_cell_volume 4458.778441
_symmetry_space_group_name_H-M "I B A M"
_symmetry_group_IT_number 72
_symmetry_cell_setting 'orthorhombic'
loop_
_space_group_symop_operation_xyz
x,y,z
-x,-y,z
x,-y,1/2-z
-x,y,1/2-z
-x,-y,-z
x,y,-z
-x,y,1/2+z
x,-y,1/2+z
1/2+x,1/2+y,1/2+z
1/2-x,1/2-y,1/2+z
1/2+x,1/2-y,-z
1/2-x,1/2+y,-z
1/2-x,1/2-y,1/2-z
1/2+x,1/2+y,1/2-z
1/2-x,1/2+y,z
1/2+x,1/2-y,z
loop_
_atom_site_type_symbol
_atom_site_label
_atom_site_fract_x
_atom_site_fract_y
_atom_site_fract_z
Si Si1 0.098062 0.886813 0.174548
Si Si2 0.344677 0.294752 0.737749
Si Si3 0.368282 0.940920 0.404076
Si Si4 0.821061 0.453142 0.596539
Si Si5 0.664655 0.360043 0.906989
O O1 0.180066 0.838385 0.198982
O O2 0.206756 0.926594 0.149810
O O3 0.000000 0.902706 0.250000
O O4 0.994129 0.878114 0.098868
O O5 0.500000 0.276250 0.750000
O O6 0.250000 0.250000 0.750000
O O7 0.317174 0.312621 0.645894
O O8 0.353937 0.942238 0.500000
O O9 0.528422 0.931477 0.380653
O O10 0.269556 0.899660 0.369480
O O11 0.317087 0.992367 0.373315
O O12 0.791684 0.447904 0.500000
O O13 0.701090 0.347898 0.000000
#
# Coordination Sequence:
#
# PCOD8295503 Si02
#       5
#    16  16  16  16  16
#     4   9  19  33  49  71 100 132 165 204 248 295
#     4   9  20  37  52  69  96 127 159 204 258 302
#     4   8  16  29  49  76 103 129 165 205 241 282
#     4   9  16  30  50  74 103 135 167 203 242 287
#     4   9  17  33  53  74  98 128 165 205 244 294
#
# _framework density 17.942135
#
# number of rings (size 3 to 8) (size 9 to 14) (size 15 to 20)
#    0.000    3.600    0.000    1.800    0.000    2.400 
#    0.000   19.000    0.000    9.600    0.000    0.000 
#    0.000    0.000    0.000    0.000    0.000    0.000 
#
# Total GULP energy -495654.221917 kJ/mol
# GULP energy per Si atom -12391.355548 kJ/mol
# Density = 1.790130 g / cm^3
# Si number density = 17.942135 Si / 1000 Ang^3
#
#
#
# Elastic Constant Matrix: (Units=GPa)
#
#
# Indices 1 2 3 4 5 6 
#
# 1 112.7406 94.5552 45.7774 0.0000 0.0000 0.0000
# 2 94.5552 119.4545 54.6265 0.0000 0.0000 0.0000
# 3 45.7774 54.6265 65.6857 -0.0004 -0.0002 0.0000
# 4 0.0000 0.0000 -0.0004 19.6537 0.0000 0.0000
# 5 0.0000 0.0000 -0.0002 0.0000 24.5673 -0.0001
# 6 0.0000 0.0000 0.0000 0.0000 -0.0001 46.6548
#
#
#
# Elastic Compliance Matrix: (Units=1/GPa)
#
#
# Indices 1 2 3 4 5 6 
#
# 1 0.026500 -0.020221 -0.001652 0.000000 0.000000 0.000000
# 2 -0.020221 0.028938 -0.009974 0.000000 0.000000 0.000000
# 3 -0.001652 -0.009974 0.024670 0.000000 0.000000 0.000000
# 4 0.000000 0.000000 0.000000 0.050881 0.000000 0.000000
# 5 0.000000 0.000000 0.000000 0.000000 0.040705 0.000000
# 6 0.000000 0.000000 0.000000 0.000000 0.000000 0.021434
#
#
# Mechanical properties :
#
#
# Convention : Reuss Voigt Hill
#
# Bulk Modulus (GPa) = 60.92019 76.42210 68.67114
# Shear Modulus (GPa) = 19.06275 25.03661 22.04968
#
# Velocity S-wave (km/s) = 3.26307 3.73957 3.50942
# Velocity P-wave (km/s) = 6.94437 7.83147 7.40122
#
# Compressibility (1/GPa) = 0.01641492
#
# Stress axis : x y z
#
# Youngs Moduli (GPa) = 37.73655 34.55637 40.53508
#
# Poissons Ratio (x) = 0.69875 0.06696
# Poissons Ratio (y) = 0.76305 0.40430
# Poissons Ratio (z) = 0.06233 0.34467
#
# Static dielectric constant tensor:
#      x y z
#    x 3.566160 0.000000 0.000000 
#    y 0.000000 3.320970 0.000000 
#    z 0.000000 0.000000 3.142030 
# 
# 
# High freq. dielectric constant tensor:
#      x y z
#    x 1.697570 0.000000 0.000000 
#    y 0.000000 1.679050 0.000000 
#    z 0.000000 0.000000 1.683650 
# 
# From -- ./inp_files/28120.got.cif
#   From: 2010.03.12/outbox.cif.g09.slc.cpg/sg72_15_cif.got.tgz:28120.got - 2010.04.16 14:54:00.
