data_PCOD8295538
_publ_section_title
;
Structure prediction by ZEFSAII (Michael W. Deem and Ramdas Pophale) SiO2 
 PCOD8295538
Probable space group: I B C A 
;
_chemical_formula_sum "Si O2"
_cell_formula_units_Z 88
_cell_length_a 22.763065
_cell_length_b 5.270202
_cell_length_c 31.932178
_cell_angle_alpha 90.000000
_cell_angle_beta 90.000000
_cell_angle_gamma 90.000000
_cell_volume 3830.774091
_symmetry_space_group_name_H-M "I B C A "
_symmetry_group_IT_number 73
_symmetry_cell_setting 'orthorhombic'
loop_
_space_group_symop_operation_xyz
x,y,z
-x,1/2-y,z
x,-y,1/2-z
1/2-x,y,-z
-x,-y,-z
x,1/2+y,-z
-x,y,1/2+z
1/2+x,-y,z
1/2+x,1/2+y,1/2+z
1/2-x,-y,1/2+z
1/2+x,1/2-y,-z
-x,1/2+y,1/2-z
1/2-x,1/2-y,1/2-z
1/2+x,y,1/2-z
1/2-x,1/2+y,z
x,1/2-y,1/2+z
loop_
_atom_site_type_symbol
_atom_site_label
_atom_site_fract_x
_atom_site_fract_y
_atom_site_fract_z
Si Si1 0.000000 0.250000 0.972254
Si Si2 0.592236 0.755721 0.723278
Si Si3 0.725583 0.265092 0.296681
Si Si4 0.316665 0.263497 0.517952
Si Si5 0.607173 0.748974 0.408852
Si Si6 0.065139 0.751020 0.367738
O O1 0.057981 0.247372 0.944198
O O2 0.000000 0.500000 0.000000
O O3 0.586810 0.500000 0.750000
O O4 0.656697 0.799126 0.704940
O O5 0.552962 0.735769 0.682007
O O6 0.571830 0.000000 0.750000
O O7 0.750000 0.250000 0.250000
O O8 0.754829 0.506639 0.320359
O O9 0.250000 0.267250 0.500000
O O10 0.348672 0.515763 0.500881
O O11 0.328255 0.257312 0.568205
O O12 0.600722 0.502934 0.379448
O O13 0.602370 0.003535 0.381432
O O14 0.000000 0.750000 0.388799
#
# Coordination Sequence:
#
# PCOD8295538 Si02
#       6
#     8  16  16  16  16  16
#     4  12  22  36  68 106 118 162 226 270 314 388
#     4  12  23  39  67  96 121 173 236 287 337 401
#     4  10  16  32  60  85 117 145 195 279 342 368
#     4  10  21  40  71  98 133 178 216 267 329 392
#     4  12  23  44  67  95 141 175 221 274 341 408
#     4  12  26  45  64  93 140 187 218 289 356 392
#
# _framework density 22.971858999999998
#
# number of rings (size 3 to 8) (size 9 to 14) (size 15 to 20)
#    0.000    0.727    5.455    4.364    0.000    0.727 
#    0.000    0.000   24.000    0.000    0.000    0.000 
#    0.000    0.000    0.000    0.000    0.000    0.000 
#
# Total GULP energy -545294.672340 kJ/mol
# GULP energy per Si atom -12393.060735 kJ/mol
# Density = 2.291957 g / cm^3
# Si number density = 22.971859 Si / 1000 Ang^3
#
#
#
# Elastic Constant Matrix: (Units=GPa)
#
#
# Indices 1 2 3 4 5 6 
#
# 1 75.8683 1.9584 20.5271 0.0000 0.0000 0.0000
# 2 1.9584 237.4864 62.2622 0.0000 0.0000 0.0000
# 3 20.5271 62.2622 117.6514 0.0000 0.0000 0.0000
# 4 0.0000 0.0000 0.0000 35.1808 0.0000 0.0000
# 5 0.0000 0.0000 0.0000 0.0000 29.0012 0.0000
# 6 0.0000 0.0000 0.0000 0.0000 0.0000 4.1711
#
#
#
# Elastic Compliance Matrix: (Units=1/GPa)
#
#
# Indices 1 2 3 4 5 6 
#
# 1 0.013908 0.000606 -0.002747 0.000000 0.000000 0.000000
# 2 0.000606 0.004915 -0.002707 0.000000 0.000000 0.000000
# 3 -0.002747 -0.002707 0.010412 0.000000 0.000000 0.000000
# 4 0.000000 0.000000 0.000000 0.028425 0.000000 0.000000
# 5 0.000000 0.000000 0.000000 0.000000 0.034481 0.000000
# 6 0.000000 0.000000 0.000000 0.000000 0.000000 0.239747
#
#
# Mechanical properties :
#
#
# Convention : Reuss Voigt Hill
#
# Bulk Modulus (GPa) = 51.18155 66.72239 58.95197
# Shear Modulus (GPa) = 14.36378 36.75451 25.55915
#
# Velocity S-wave (km/s) = 2.50327 4.00431 3.33923
# Velocity P-wave (km/s) = 5.53928 7.10547 6.37069
#
# Compressibility (1/GPa) = 0.01953829
#
# Stress axis : x y z
#
# Youngs Moduli (GPa) = 71.89921 203.43977 96.04739
#
# Poissons Ratio (x) = -0.12319 0.26385
# Poissons Ratio (y) = -0.04354 0.26000
# Poissons Ratio (z) = 0.19751 0.55070
#
# Static dielectric constant tensor:
#      x y z
#    x 4.005820 0.000000 0.000000 
#    y 0.000000 4.869360 0.000000 
#    z 0.000000 0.000000 3.818140 
# 
# 
# High freq. dielectric constant tensor:
#      x y z
#    x 1.898150 0.000000 0.000000 
#    y 0.000000 1.942070 0.000000 
#    z 0.000000 0.000000 1.882270 
# 
# From -- ./inp_files/30627.got.cif
#   From: 2010.03.12/outbox.cif.g09.slc.cpg/sg73_16_cif.got.tgz:30627.got - 2010.04.16 15:25:48.
