data_PCOD8295364
_publ_section_title
;
Structure prediction by ZEFSAII (Michael W. Deem and Ramdas Pophale) SiO2 
 PCOD8295364
Probable space group: I B A M
;
_chemical_formula_sum "Si O2"
_cell_formula_units_Z 116
_cell_length_a 21.848050
_cell_length_b 14.027114
_cell_length_c 18.206969
_cell_angle_alpha 90.000000
_cell_angle_beta 90.000000
_cell_angle_gamma 90.000000
_cell_volume 5579.800357
_symmetry_space_group_name_H-M "I B A M"
_symmetry_group_IT_number 72
_symmetry_cell_setting 'orthorhombic'
loop_
_space_group_symop_operation_xyz
x,y,z
-x,-y,z
x,-y,1/2-z
-x,y,1/2-z
-x,-y,-z
x,y,-z
-x,y,1/2+z
x,-y,1/2+z
1/2+x,1/2+y,1/2+z
1/2-x,1/2-y,1/2+z
1/2+x,1/2-y,-z
1/2-x,1/2+y,-z
1/2-x,1/2-y,1/2-z
1/2+x,1/2+y,1/2-z
1/2-x,1/2+y,z
1/2+x,1/2-y,z
loop_
_atom_site_type_symbol
_atom_site_label
_atom_site_fract_x
_atom_site_fract_y
_atom_site_fract_z
Si Si1 0.500000 0.500000 0.250000
Si Si2 0.270421 0.479246 0.668389
Si Si3 0.020950 0.390679 0.672121
Si Si4 0.102326 0.124323 0.185439
Si Si5 0.272131 0.198576 0.086358
Si Si6 0.921272 0.295923 0.414067
Si Si7 0.639446 0.785230 0.795949
Si Si8 0.695284 0.848830 0.348038
O O1 0.458236 0.436814 0.303151
O O2 0.245417 0.500000 0.750000
O O3 0.341795 0.450133 0.670990
O O4 0.230771 0.406107 0.621132
O O5 0.249915 0.578850 0.630007
O O6 0.093176 0.367694 0.674730
O O7 0.000000 0.500000 0.662471
O O8 0.000000 0.349530 0.750000
O O9 0.989262 0.329370 0.608132
O O10 0.091641 0.189265 0.114397
O O11 0.111462 0.191592 0.257113
O O12 0.326548 0.251804 0.130646
O O13 0.209306 0.251550 0.107000
O O14 0.284881 0.195482 0.000000
O O15 0.914801 0.296836 0.500000
O O16 0.873273 0.372288 0.377827
O O17 0.689617 0.830683 0.739764
#
# Coordination Sequence:
#
# PCOD8295364 Si02
#       8
#     4  16  16  16  16  16  16  16
#     4  12  24  40  74 108 118 164 234 290 312 396
#     4  12  23  40  69  99 131 175 221 279 330 400
#     4  11  23  40  67  99 125 167 226 281 326 390
#     4  11  23  42  69 100 129 171 227 276 328 394
#     4  12  26  42  65 100 140 173 218 280 344 404
#     4  11  24  45  68  93 136 180 215 272 344 400
#     4  11  22  44  68  93 131 177 222 268 332 400
#     4  11  23  41  69  97 127 179 223 270 329 410
#
# _framework density 20.789275
#
# number of rings (size 3 to 8) (size 9 to 14) (size 15 to 20)
#    0.000    0.690    7.586    2.483    1.931    1.931 
#    0.000    0.345    0.000    0.000    0.000    0.000 
#    0.000    0.000    0.000    0.000    0.000    0.000 
#
# Total GULP energy -718582.590154 kJ/mol
# GULP energy per Si atom -12389.355003 kJ/mol
# Density = 2.074196 g / cm^3
# Si number density = 20.789275 Si / 1000 Ang^3
#
#
#
# Elastic Constant Matrix: (Units=GPa)
#
#
# Indices 1 2 3 4 5 6 
#
# 1 92.9794 52.9265 40.2689 0.0000 0.0000 0.0000
# 2 52.9265 110.5342 33.9019 0.0000 0.0000 0.0000
# 3 40.2689 33.9019 151.8096 0.0000 0.0000 0.0000
# 4 0.0000 0.0000 0.0000 16.7440 0.0000 0.0000
# 5 0.0000 0.0000 0.0000 0.0000 26.6107 0.0000
# 6 0.0000 0.0000 0.0000 0.0000 0.0000 39.2250
#
#
#
# Elastic Compliance Matrix: (Units=1/GPa)
#
#
# Indices 1 2 3 4 5 6 
#
# 1 0.015735 -0.006714 -0.002675 0.000000 0.000000 0.000000
# 2 -0.006714 0.012577 -0.001028 0.000000 0.000000 0.000000
# 3 -0.002675 -0.001028 0.007526 0.000000 0.000000 0.000000
# 4 0.000000 0.000000 0.000000 0.059723 0.000000 0.000000
# 5 0.000000 0.000000 0.000000 0.000000 0.037579 0.000000
# 6 0.000000 0.000000 0.000000 0.000000 0.000000 0.025494
#
#
# Mechanical properties :
#
#
# Convention : Reuss Voigt Hill
#
# Bulk Modulus (GPa) = 66.64114 67.72419 67.18267
# Shear Modulus (GPa) = 27.10484 31.73100 29.41792
#
# Velocity S-wave (km/s) = 3.61472 3.91105 3.76580
# Velocity P-wave (km/s) = 7.03894 7.28301 7.16202
#
# Compressibility (1/GPa) = 0.01500575
#
# Stress axis : x y z
#
# Youngs Moduli (GPa) = 63.55151 79.50979 132.87005
#
# Poissons Ratio (x) = 0.53384 0.35537
# Poissons Ratio (y) = 0.42669 0.13655
# Poissons Ratio (z) = 0.16997 0.08171
#
# Static dielectric constant tensor:
#      x y z
#    x 4.011500 0.000000 0.000000 
#    y 0.000000 3.818150 0.000000 
#    z 0.000000 0.000000 3.522800 
# 
# 
# High freq. dielectric constant tensor:
#      x y z
#    x 1.821400 0.000000 0.000000 
#    y 0.000000 1.812490 0.000000 
#    z 0.000000 0.000000 1.788470 
# 
# From -- ./inp_files/33429.got.cif
#   From: 2010.03.12/outbox.cif.g09.slc.cpg/sg72_17_cif.got.tgz:33429.got - 2010.04.16 14:54:00.
