data_PCOD8295704
_publ_section_title
;
Structure prediction by ZEFSAII (Michael W. Deem and Ramdas Pophale) SiO2 
 PCOD8295704
Probable space group: I B C A 
;
_chemical_formula_sum "Si O2"
_cell_formula_units_Z 88
_cell_length_a 16.882797
_cell_length_b 12.499957
_cell_length_c 19.148771
_cell_angle_alpha 90.000000
_cell_angle_beta 90.000000
_cell_angle_gamma 90.000000
_cell_volume 4041.046269
_symmetry_space_group_name_H-M "I B C A "
_symmetry_group_IT_number 73
_symmetry_cell_setting 'orthorhombic'
loop_
_space_group_symop_operation_xyz
x,y,z
-x,1/2-y,z
x,-y,1/2-z
1/2-x,y,-z
-x,-y,-z
x,1/2+y,-z
-x,y,1/2+z
1/2+x,-y,z
1/2+x,1/2+y,1/2+z
1/2-x,-y,1/2+z
1/2+x,1/2-y,-z
-x,1/2+y,1/2-z
1/2-x,1/2-y,1/2-z
1/2+x,y,1/2-z
1/2-x,1/2+y,z
x,1/2-y,1/2+z
loop_
_atom_site_type_symbol
_atom_site_label
_atom_site_fract_x
_atom_site_fract_y
_atom_site_fract_z
Si Si1 0.143592 0.872768 0.894355
Si Si2 0.281484 0.376075 0.747080
Si Si3 0.750000 0.751454 0.000000
Si Si4 0.860421 0.877571 0.100141
Si Si5 0.500000 0.250000 0.361514
Si Si6 0.602014 0.628421 0.748934
Si Si7 0.000000 0.750000 0.640759
O O1 0.164013 0.848040 0.813477
O O2 0.058791 0.818654 0.909998
O O3 0.136564 0.996722 0.911023
O O4 0.210171 0.824657 0.943529
O O5 0.261382 0.500000 0.750000
O O6 0.326983 0.346706 0.676320
O O7 0.192930 0.321924 0.748354
O O8 0.810552 0.829006 0.037772
O O9 0.947946 0.828335 0.093006
O O10 0.447137 0.333548 0.317796
O O11 0.602633 0.500000 0.750000
O O12 0.557695 0.672416 0.816276
#
# Coordination Sequence:
#
# PCOD8295704 Si02
#       7
#    16  16   8  16   8  16   8
#     4  11  24  44  66  95 128 165 212 264 312 374
#     4   9  19  38  66  90 120 161 207 256 304 358
#     4  12  26  44  68  90 124 172 214 256 320 382
#     4  11  24  44  66  95 128 165 212 264 312 374
#     4  11  22  35  60  90 128 168 208 256 320 374
#     4  10  19  33  57  96 132 163 204 260 317 373
#     4  11  22  35  60  90 128 168 208 256 320 374
#
# _framework density 21.776537999999999
#
# number of rings (size 3 to 8) (size 9 to 14) (size 15 to 20)
#    0.000    1.455    0.000    6.000    0.000    4.364 
#    0.000    7.273    0.000    0.000    0.000    0.000 
#    0.000    0.000    0.000    0.000    0.000    0.000 
#
# Total GULP energy -545707.905002 kJ/mol
# GULP energy per Si atom -12402.452386 kJ/mol
# Density = 2.172697 g / cm^3
# Si number density = 21.776538 Si / 1000 Ang^3
#
#
#
# Elastic Constant Matrix: (Units=GPa)
#
#
# Indices 1 2 3 4 5 6 
#
# 1 143.3872 47.2466 14.2607 0.0000 0.0000 0.0000
# 2 47.2466 125.5499 16.0482 0.0000 0.0000 0.0000
# 3 14.2607 16.0482 60.7374 0.0000 0.0000 0.0000
# 4 0.0000 0.0000 0.0000 16.4678 0.0000 0.0000
# 5 0.0000 0.0000 0.0000 0.0000 1.6816 0.0000
# 6 0.0000 0.0000 0.0000 0.0000 0.0000 38.7929
#
#
#
# Elastic Compliance Matrix: (Units=1/GPa)
#
#
# Indices 1 2 3 4 5 6 
#
# 1 0.008035 -0.002880 -0.001126 0.000000 0.000000 0.000000
# 2 -0.002880 0.009276 -0.001775 0.000000 0.000000 0.000000
# 3 -0.001126 -0.001775 0.017198 0.000000 0.000000 0.000000
# 4 0.000000 0.000000 0.000000 0.060724 0.000000 0.000000
# 5 0.000000 0.000000 0.000000 0.000000 0.594656 0.000000
# 6 0.000000 0.000000 0.000000 0.000000 0.000000 0.025778
#
#
# Mechanical properties :
#
#
# Convention : Reuss Voigt Hill
#
# Bulk Modulus (GPa) = 43.57714 53.86506 48.72110
# Shear Modulus (GPa) = 6.80387 28.19642 17.50014
#
# Velocity S-wave (km/s) = 1.76952 3.60225 2.83790
# Velocity P-wave (km/s) = 4.92234 6.48773 5.75847
#
# Compressibility (1/GPa) = 0.02294781
#
# Stress axis : x y z
#
# Youngs Moduli (GPa) = 124.45570 107.81055 58.14798
#
# Poissons Ratio (x) = 0.31048 0.06545
# Poissons Ratio (y) = 0.35841 0.10319
# Poissons Ratio (z) = 0.14009 0.19133
#
# Static dielectric constant tensor:
#      x y z
#    x 4.270760 0.000000 0.000000 
#    y 0.000000 4.224120 0.000000 
#    z 0.000000 0.000000 3.620330 
# 
# 
# High freq. dielectric constant tensor:
#      x y z
#    x 1.874510 0.000000 0.000000 
#    y 0.000000 1.892000 0.000000 
#    z 0.000000 0.000000 1.826930 
# 
# From -- ./inp_files/25957.got.cif
#   From: 2010.03.12/outbox.cif.g09.slc.cpg/sg73_13_cif.got.tgz:25957.got - 2010.04.16 15:25:48.
