data_PCOD8295012
_publ_section_title
;
Structure prediction by ZEFSAII (Michael W. Deem and Ramdas Pophale) SiO2 
 PCOD8295012
Probable space group: I B A M
;
_chemical_formula_sum "Si O2"
_cell_formula_units_Z 112
_cell_length_a 14.829820
_cell_length_b 11.509114
_cell_length_c 29.083744
_cell_angle_alpha 90.000000
_cell_angle_beta 90.000000
_cell_angle_gamma 90.000000
_cell_volume 4963.957846
_symmetry_space_group_name_H-M "I B A M"
_symmetry_group_IT_number 72
_symmetry_cell_setting 'orthorhombic'
loop_
_space_group_symop_operation_xyz
x,y,z
-x,-y,z
x,-y,1/2-z
-x,y,1/2-z
-x,-y,-z
x,y,-z
-x,y,1/2+z
x,-y,1/2+z
1/2+x,1/2+y,1/2+z
1/2-x,1/2-y,1/2+z
1/2+x,1/2-y,-z
1/2-x,1/2+y,-z
1/2-x,1/2-y,1/2-z
1/2+x,1/2+y,1/2-z
1/2-x,1/2+y,z
1/2+x,1/2-y,z
loop_
_atom_site_type_symbol
_atom_site_label
_atom_site_fract_x
_atom_site_fract_y
_atom_site_fract_z
Si Si1 0.497367 0.362459 0.683570
Si Si2 0.329890 0.206860 0.689721
Si Si3 0.812607 0.358282 0.053031
Si Si4 0.884912 0.088013 0.448748
Si Si5 0.102823 0.508401 0.134906
Si Si6 0.066405 0.846907 0.084757
Si Si7 0.641309 0.799441 0.208255
O O1 0.500000 0.500000 0.691895
O O2 0.394532 0.319077 0.684279
O O3 0.545890 0.318107 0.637166
O O4 0.563470 0.297272 0.719450
O O5 0.355530 0.112790 0.651549
O O6 0.333800 0.152727 0.741145
O O7 0.227486 0.247079 0.681393
O O8 0.705637 0.340157 0.061869
O O9 0.845216 0.455730 0.088618
O O10 0.859756 0.236549 0.062992
O O11 0.830734 0.396577 0.000000
O O12 0.882498 0.036856 0.500000
O O13 0.972373 0.169594 0.442875
O O14 0.895639 0.978013 0.415308
O O15 0.104674 0.596651 0.177443
O O16 0.000000 0.500000 0.119423
#
# Coordination Sequence:
#
# PCOD8295012 Si02
#       7
#    16  16  16  16  16  16  16
#     4  12  25  43  70 104 136 179 226 289 342 403
#     4  11  27  45  71 101 139 182 232 281 346 407
#     4  11  25  43  69 105 137 177 232 289 348 410
#     4  10  22  41  69  97 131 183 234 286 344 408
#     4  12  25  47  72  99 141 188 225 281 350 418
#     4  11  21  42  68  98 135 181 232 283 342 413
#     4  11  26  46  70 103 135 185 232 284 340 413
#
# _framework density 22.562642
#
# number of rings (size 3 to 8) (size 9 to 14) (size 15 to 20)
#    0.000    0.857    4.286    2.571    6.000    2.000 
#    2.571    0.000    0.000    0.000    0.000    0.000 
#    0.000    0.000    0.000    0.000    0.000    0.000 
#
# Total GULP energy -694458.649001 kJ/mol
# GULP energy per Si atom -12401.047304 kJ/mol
# Density = 2.251129 g / cm^3
# Si number density = 22.562642 Si / 1000 Ang^3
#
#
#
# Elastic Constant Matrix: (Units=GPa)
#
#
# Indices 1 2 3 4 5 6 
#
# 1 171.4928 53.7661 12.9189 0.0000 0.0000 0.0000
# 2 53.7661 105.2448 13.3599 0.0000 0.0000 0.0000
# 3 12.9189 13.3599 69.6596 0.0000 0.0000 0.0000
# 4 0.0000 0.0000 0.0000 11.8026 0.0000 0.0000
# 5 0.0000 0.0000 0.0000 0.0000 33.5582 0.0000
# 6 0.0000 0.0000 0.0000 0.0000 0.0000 37.4748
#
#
#
# Elastic Compliance Matrix: (Units=1/GPa)
#
#
# Indices 1 2 3 4 5 6 
#
# 1 0.006970 -0.003481 -0.000625 0.000000 0.000000 0.000000
# 2 -0.003481 0.011478 -0.001556 0.000000 0.000000 0.000000
# 3 -0.000625 -0.001556 0.014770 0.000000 0.000000 0.000000
# 4 0.000000 0.000000 0.000000 0.084727 0.000000 0.000000
# 5 0.000000 0.000000 0.000000 0.000000 0.029799 0.000000
# 6 0.000000 0.000000 0.000000 0.000000 0.000000 0.026685
#
#
# Mechanical properties :
#
#
# Convention : Reuss Voigt Hill
#
# Bulk Modulus (GPa) = 45.67584 56.27634 50.97609
# Shear Modulus (GPa) = 25.90019 34.32395 30.11207
#
# Velocity S-wave (km/s) = 3.39178 3.90458 3.65718
# Velocity P-wave (km/s) = 5.96882 6.73232 6.36203
#
# Compressibility (1/GPa) = 0.02189341
#
# Stress axis : x y z
#
# Youngs Moduli (GPa) = 143.47907 87.12629 67.70584
#
# Poissons Ratio (x) = 0.30331 0.04231
# Poissons Ratio (y) = 0.49949 0.10533
# Poissons Ratio (z) = 0.08966 0.13554
#
# Static dielectric constant tensor:
#      x y z
#    x 4.400730 0.000000 0.000000 
#    y 0.000000 3.773140 0.000000 
#    z 0.000000 0.000000 4.238480 
# 
# 
# High freq. dielectric constant tensor:
#      x y z
#    x 1.908280 0.000000 0.000000 
#    y 0.000000 1.869360 0.000000 
#    z 0.000000 0.000000 1.905520 
# 
# From -- ./inp_files/51783.got.cif
#   From: 2010.03.12/outbox.cif.g09.slc.cpg/sg72_26_cif.got.tgz:51783.got - 2010.04.16 14:54:00.
