data_PCOD8295434
_publ_section_title
;
Structure prediction by ZEFSAII (Michael W. Deem and Ramdas Pophale) SiO2 
 PCOD8295434
Probable space group: I B A M
;
_chemical_formula_sum "Si O2"
_cell_formula_units_Z 80
_cell_length_a 20.428709
_cell_length_b 10.705418
_cell_length_c 14.387227
_cell_angle_alpha 90.000000
_cell_angle_beta 90.000000
_cell_angle_gamma 90.000000
_cell_volume 3146.455886
_symmetry_space_group_name_H-M "I B A M"
_symmetry_group_IT_number 72
_symmetry_cell_setting 'orthorhombic'
loop_
_space_group_symop_operation_xyz
x,y,z
-x,-y,z
x,-y,1/2-z
-x,y,1/2-z
-x,-y,-z
x,y,-z
-x,y,1/2+z
x,-y,1/2+z
1/2+x,1/2+y,1/2+z
1/2-x,1/2-y,1/2+z
1/2+x,1/2-y,-z
1/2-x,1/2+y,-z
1/2-x,1/2-y,1/2-z
1/2+x,1/2+y,1/2-z
1/2-x,1/2+y,z
1/2+x,1/2-y,z
loop_
_atom_site_type_symbol
_atom_site_label
_atom_site_fract_x
_atom_site_fract_y
_atom_site_fract_z
Si Si1 0.391686 0.040170 0.099911
Si Si2 0.723623 0.314486 0.500000
Si Si3 0.182653 0.268895 0.696057
Si Si4 0.094685 0.105673 0.177084
Si Si5 0.016669 0.326712 0.147356
Si Si6 0.816617 0.079752 0.500000
O O1 0.338684 0.086476 0.177303
O O2 0.453387 0.135209 0.088517
O O3 0.417362 0.900781 0.118666
O O4 0.355650 0.039921 0.000000
O O5 0.682861 0.292243 0.406153
O O6 0.785969 0.219733 0.500000
O O7 0.737054 0.465908 0.500000
O O8 0.250000 0.250000 0.750000
O O9 0.127955 0.210188 0.759652
O O10 0.030682 0.177604 0.136365
O O11 0.140110 0.060241 0.092864
O O12 0.073834 0.000000 0.250000
O O13 0.000000 0.370342 0.250000
#
# Coordination Sequence:
#
# PCOD8295434 Si02
#       6
#    16   8  16  16  16   8
#     4  11  24  45  76 116 156 194 258 335 390 471
#     4  12  26  50  71 108 153 205 266 328 392 481
#     4  12  25  48  73 108 156 205 253 319 399 467
#     4  12  27  48  71 105 153 204 262 320 383 479
#     4  11  24  45  74 114 151 198 261 319 402 469
#     4  12  28  48  75 108 153 203 272 328 400 473
#
# _framework density 25.425433000000002
#
# number of rings (size 3 to 8) (size 9 to 14) (size 15 to 20)
#    0.000    0.400    7.000    2.400    2.800    2.000 
#    7.200    0.000    0.000    3.600    0.000    0.000 
#    0.000    0.000    0.000    0.000    0.000    0.000 
#
# Total GULP energy -495539.778340 kJ/mol
# GULP energy per Si atom -12388.494459 kJ/mol
# Density = 2.536756 g / cm^3
# Si number density = 25.425433 Si / 1000 Ang^3
#
#
#
# Elastic Constant Matrix: (Units=GPa)
#
#
# Indices 1 2 3 4 5 6 
#
# 1 70.5562 45.1065 15.2867 0.0000 0.0000 0.0000
# 2 45.1065 149.8535 35.5652 0.0000 0.0000 0.0000
# 3 15.2867 35.5652 149.4989 0.0000 0.0000 0.0000
# 4 0.0000 0.0000 0.0000 27.7401 0.0000 0.0000
# 5 0.0000 0.0000 0.0000 0.0000 21.5578 0.0000
# 6 0.0000 0.0000 0.0000 0.0000 0.0000 44.5620
#
#
#
# Elastic Compliance Matrix: (Units=1/GPa)
#
#
# Indices 1 2 3 4 5 6 
#
# 1 0.017596 -0.005161 -0.000572 0.000000 0.000000 0.000000
# 2 -0.005161 0.008586 -0.001515 0.000000 0.000000 0.000000
# 3 -0.000572 -0.001515 0.007108 0.000000 0.000000 0.000000
# 4 0.000000 0.000000 0.000000 0.036049 0.000000 0.000000
# 5 0.000000 0.000000 0.000000 0.000000 0.046387 0.000000
# 6 0.000000 0.000000 0.000000 0.000000 0.000000 0.022441
#
#
# Mechanical properties :
#
#
# Convention : Reuss Voigt Hill
#
# Bulk Modulus (GPa) = 53.20375 62.42503 57.81439
# Shear Modulus (GPa) = 31.46108 37.03535 34.24821
#
# Velocity S-wave (km/s) = 3.52147 3.82072 3.67414
# Velocity P-wave (km/s) = 6.12414 6.63847 6.38649
#
# Compressibility (1/GPa) = 0.01879567
#
# Stress axis : x y z
#
# Youngs Moduli (GPa) = 56.83015 116.46635 140.68977
#
# Poissons Ratio (x) = 0.60107 0.08041
# Poissons Ratio (y) = 0.29330 0.21313
# Poissons Ratio (z) = 0.03248 0.17643
#
# Static dielectric constant tensor:
#      x y z
#    x 4.489920 0.000000 0.000000 
#    y 0.000000 4.999090 0.000000 
#    z 0.000000 0.000000 4.866610 
# 
# 
# High freq. dielectric constant tensor:
#      x y z
#    x 1.995130 0.000000 0.000000 
#    y 0.000000 2.013080 0.000000 
#    z 0.000000 0.000000 2.034320 
# 
# From -- ./inp_files/24941.got.cif
#   From: 2010.03.12/outbox.cif.g09.slc.cpg/sg72_13_cif.got.tgz:24941.got - 2010.04.16 14:54:00.
