data_PCOD8295039
_publ_section_title
;
Structure prediction by ZEFSAII (Michael W. Deem and Ramdas Pophale) SiO2 
 PCOD8295039
Probable space group: I B A M
;
_chemical_formula_sum "Si O2"
_cell_formula_units_Z 68
_cell_length_a 5.014296
_cell_length_b 20.059834
_cell_length_c 24.244369
_cell_angle_alpha 90.000000
_cell_angle_beta 90.000000
_cell_angle_gamma 90.000000
_cell_volume 2438.642776
_symmetry_space_group_name_H-M "I B A M"
_symmetry_group_IT_number 72
_symmetry_cell_setting 'orthorhombic'
loop_
_space_group_symop_operation_xyz
x,y,z
-x,-y,z
x,-y,1/2-z
-x,y,1/2-z
-x,-y,-z
x,y,-z
-x,y,1/2+z
x,-y,1/2+z
1/2+x,1/2+y,1/2+z
1/2-x,1/2-y,1/2+z
1/2+x,1/2-y,-z
1/2-x,1/2+y,-z
1/2-x,1/2-y,1/2-z
1/2+x,1/2+y,1/2-z
1/2-x,1/2+y,z
1/2+x,1/2-y,z
loop_
_atom_site_type_symbol
_atom_site_label
_atom_site_fract_x
_atom_site_fract_y
_atom_site_fract_z
Si Si1 0.851544 0.706381 0.000000
Si Si2 0.252125 0.954691 0.560145
Si Si3 0.227278 0.609395 0.827512
Si Si4 0.500000 0.297982 0.250000
Si Si5 0.500000 0.000000 0.750000
Si Si6 0.869335 0.296063 0.619645
O O1 0.898413 0.668198 0.941436
O O2 0.044735 0.770355 0.000000
O O3 0.309279 0.919130 0.500000
O O4 0.180043 0.905025 0.609959
O O5 0.500000 0.000000 0.578658
O O6 0.000000 0.000000 0.550879
O O7 0.465766 0.653787 0.802749
O O8 0.945152 0.649984 0.833067
O O9 0.184832 0.544987 0.789347
O O10 0.750000 0.250000 0.250000
O O11 0.078703 0.235021 0.627260
#
# Coordination Sequence:
#
# PCOD8295039 Si02
#       6
#     8  16  16   8   4  16
#     4   8  16  34  62 101 141 176 232 296 370 456
#     4  10  24  47  75 111 153 200 256 318 397 484
#     4  12  27  48  82 105 165 195 272 325 397 481
#     4  12  29  51  78 113 153 212 272 330 398 470
#     4  12  30  50  74 126 150 222 268 338 408 470
#     4  10  22  42  70 104 142 189 240 302 378 452
#
# _framework density 27.884364000000001
#
# number of rings (size 3 to 8) (size 9 to 14) (size 15 to 20)
#    0.000    1.412    1.176    2.118    4.941    5.647 
#    0.000    0.000    0.000    0.000    0.000    0.000 
#    0.000    0.000    0.000    0.000    0.000    0.000 
#
# Total GULP energy -421318.066333 kJ/mol
# GULP energy per Si atom -12391.707833 kJ/mol
# Density = 2.782090 g / cm^3
# Si number density = 27.884364 Si / 1000 Ang^3
#
#
#
# Elastic Constant Matrix: (Units=GPa)
#
#
# Indices 1 2 3 4 5 6 
#
# 1 117.2028 28.3273 38.0913 0.0000 0.0000 0.0000
# 2 28.3273 107.8231 99.0932 0.0000 0.0000 0.0000
# 3 38.0913 99.0932 204.7708 0.0000 0.0000 0.0000
# 4 0.0000 0.0000 0.0000 71.5848 0.0000 0.0000
# 5 0.0000 0.0000 0.0000 0.0000 35.5602 0.0000
# 6 0.0000 0.0000 0.0000 0.0000 0.0000 27.5337
#
#
#
# Elastic Compliance Matrix: (Units=1/GPa)
#
#
# Indices 1 2 3 4 5 6 
#
# 1 0.009218 -0.001523 -0.000978 0.000000 0.000000 0.000000
# 2 -0.001523 0.016955 -0.007921 0.000000 0.000000 0.000000
# 3 -0.000978 -0.007921 0.008899 0.000000 0.000000 0.000000
# 4 0.000000 0.000000 0.000000 0.013969 0.000000 0.000000
# 5 0.000000 0.000000 0.000000 0.000000 0.028121 0.000000
# 6 0.000000 0.000000 0.000000 0.000000 0.000000 0.036319
#
#
# Mechanical properties :
#
#
# Convention : Reuss Voigt Hill
#
# Bulk Modulus (GPa) = 70.28954 84.53561 77.41258
# Shear Modulus (GPa) = 35.95354 44.55473 40.25414
#
# Velocity S-wave (km/s) = 3.59469 4.00163 3.80361
# Velocity P-wave (km/s) = 6.51853 7.19257 6.86383
#
# Compressibility (1/GPa) = 0.01422687
#
# Stress axis : x y z
#
# Youngs Moduli (GPa) = 108.48202 58.98069 112.37609
#
# Poissons Ratio (x) = 0.08985 0.10985
# Poissons Ratio (y) = 0.16526 0.89017
# Poissons Ratio (z) = 0.10605 0.46721
#
# Static dielectric constant tensor:
#      x y z
#    x 4.886420 0.000000 0.000000 
#    y 0.000000 4.881650 0.000000 
#    z 0.000000 0.000000 6.214390 
# 
# 
# High freq. dielectric constant tensor:
#      x y z
#    x 2.132650 0.000000 0.000000 
#    y 0.000000 2.102470 0.000000 
#    z 0.000000 0.000000 2.166570 
# 
# From -- ./inp_files/46584.got.cif
#   From: 2010.03.12/outbox.cif.g09.slc.cpg/sg72_24_cif.got.tgz:46584.got - 2010.04.16 14:54:00.
