data_PCOD8295583
_publ_section_title
;
Structure prediction by ZEFSAII (Michael W. Deem and Ramdas Pophale) SiO2 
 PCOD8295583
Probable space group: I B C A 
;
_chemical_formula_sum "Si O2"
_cell_formula_units_Z 96
_cell_length_a 18.852205
_cell_length_b 17.672924
_cell_length_c 14.909933
_cell_angle_alpha 90.000000
_cell_angle_beta 90.000000
_cell_angle_gamma 90.000000
_cell_volume 4967.595848
_symmetry_space_group_name_H-M "I B C A "
_symmetry_group_IT_number 73
_symmetry_cell_setting 'orthorhombic'
loop_
_space_group_symop_operation_xyz
x,y,z
-x,1/2-y,z
x,-y,1/2-z
1/2-x,y,-z
-x,-y,-z
x,1/2+y,-z
-x,y,1/2+z
1/2+x,-y,z
1/2+x,1/2+y,1/2+z
1/2-x,-y,1/2+z
1/2+x,1/2-y,-z
-x,1/2+y,1/2-z
1/2-x,1/2-y,1/2-z
1/2+x,y,1/2-z
1/2-x,1/2+y,z
x,1/2-y,1/2+z
loop_
_atom_site_type_symbol
_atom_site_label
_atom_site_fract_x
_atom_site_fract_y
_atom_site_fract_z
Si Si1 0.315735 0.821829 0.693381
Si Si2 0.052597 0.085647 0.218932
Si Si3 0.976303 0.163691 0.060882
Si Si4 0.019075 0.836118 0.626303
Si Si5 0.833701 0.702289 0.658265
Si Si6 0.826251 0.715951 0.976292
O O1 0.368922 0.892600 0.682595
O O2 0.233891 0.849976 0.685317
O O3 0.330571 0.780857 0.787506
O O4 0.324447 0.759552 0.617041
O O5 0.994511 0.108378 0.143825
O O6 0.040688 0.131271 0.309870
O O7 0.046995 0.000000 0.250000
O O8 0.892258 0.158535 0.035317
O O9 0.000000 0.250000 0.086116
O O10 0.017301 0.129097 0.974195
O O11 0.095024 0.845938 0.676213
O O12 0.000000 0.750000 0.608481
O O13 0.839132 0.722260 0.553301
O O14 0.750000 0.675365 0.000000
#
# Coordination Sequence:
#
# PCOD8295583 Si02
#       6
#    16  16  16  16  16  16
#     4  10  19  32  51  80 112 141 185 235 290 349
#     4  12  24  36  53  82 121 164 192 231 298 368
#     4  11  19  35  59  85 115 147 198 256 292 337
#     4  11  19  35  59  82 111 143 198 256 289 341
#     4  10  18  31  55  83 104 136 185 249 297 327
#     4  10  18  30  54  87 112 135 184 249 305 332
#
# _framework density 19.325244000000001
#
# number of rings (size 3 to 8) (size 9 to 14) (size 15 to 20)
#    0.000    1.333    6.667    1.500    0.000    0.667 
#    0.000    0.833    0.000    0.000    0.000   12.833 
#    0.000    0.000    0.000    0.000    0.000    0.000 
#
# Total GULP energy -594744.395623 kJ/mol
# GULP energy per Si atom -12390.508242 kJ/mol
# Density = 1.928126 g / cm^3
# Si number density = 19.325244 Si / 1000 Ang^3
#
#
#
# Elastic Constant Matrix: (Units=GPa)
#
#
# Indices 1 2 3 4 5 6 
#
# 1 167.0348 48.3623 32.9494 0.0000 0.0000 0.0000
# 2 48.3623 44.3971 32.5997 0.0000 0.0000 0.0000
# 3 32.9494 32.5997 100.6243 0.0000 0.0000 0.0000
# 4 0.0000 0.0000 0.0000 5.3387 0.0000 0.0000
# 5 0.0000 0.0000 0.0000 0.0000 30.5835 0.0000
# 6 0.0000 0.0000 0.0000 0.0000 0.0000 12.8968
#
#
#
# Elastic Compliance Matrix: (Units=1/GPa)
#
#
# Indices 1 2 3 4 5 6 
#
# 1 0.008751 -0.009748 0.000292 0.000000 0.000000 0.000000
# 2 -0.009748 0.040412 -0.009901 0.000000 0.000000 0.000000
# 3 0.000292 -0.009901 0.013050 0.000000 0.000000 0.000000
# 4 0.000000 0.000000 0.000000 0.187313 0.000000 0.000000
# 5 0.000000 0.000000 0.000000 0.000000 0.032697 0.000000
# 6 0.000000 0.000000 0.000000 0.000000 0.000000 0.077538
#
#
# Mechanical properties :
#
#
# Convention : Reuss Voigt Hill
#
# Bulk Modulus (GPa) = 42.55073 59.98657 51.26865
# Shear Modulus (GPa) = 12.30596 22.97346 17.63971
#
# Velocity S-wave (km/s) = 2.52619 3.45161 3.02450
# Velocity P-wave (km/s) = 5.52945 6.85512 6.22766
#
# Compressibility (1/GPa) = 0.02350136
#
# Stress axis : x y z
#
# Youngs Moduli (GPa) = 114.26752 24.74510 76.62969
#
# Poissons Ratio (x) = 0.24121 -0.02240
# Poissons Ratio (y) = 1.11384 0.75868
# Poissons Ratio (z) = -0.03341 0.24499
#
# Static dielectric constant tensor:
#      x y z
#    x 6.239760 0.000000 0.000000 
#    y 0.000000 2.630460 0.000000 
#    z 0.000000 0.000000 3.885060 
# 
# 
# High freq. dielectric constant tensor:
#      x y z
#    x 1.779440 0.000000 0.000000 
#    y 0.000000 1.657650 0.000000 
#    z 0.000000 0.000000 1.780310 
# 
# From -- ./inp_files/17067.got.cif
#   From: 2010.03.12/outbox.cif.g09.slc.cpg/sg73_9_cif.got.tgz:17067.got - 2010.04.16 15:25:48.
