data_PCOD8295552
_publ_section_title
;
Structure prediction by ZEFSAII (Michael W. Deem and Ramdas Pophale) SiO2 
 PCOD8295552
Probable space group: I B C A 
;
_chemical_formula_sum "Si O2"
_cell_formula_units_Z 120
_cell_length_a 25.613996
_cell_length_b 9.332902
_cell_length_c 27.976947
_cell_angle_alpha 90.000000
_cell_angle_beta 90.000000
_cell_angle_gamma 90.000000
_cell_volume 6687.970719
_symmetry_space_group_name_H-M "I B C A "
_symmetry_group_IT_number 73
_symmetry_cell_setting 'orthorhombic'
loop_
_space_group_symop_operation_xyz
x,y,z
-x,1/2-y,z
x,-y,1/2-z
1/2-x,y,-z
-x,-y,-z
x,1/2+y,-z
-x,y,1/2+z
1/2+x,-y,z
1/2+x,1/2+y,1/2+z
1/2-x,-y,1/2+z
1/2+x,1/2-y,-z
-x,1/2+y,1/2-z
1/2-x,1/2-y,1/2-z
1/2+x,y,1/2-z
1/2-x,1/2+y,z
x,1/2-y,1/2+z
loop_
_atom_site_type_symbol
_atom_site_label
_atom_site_fract_x
_atom_site_fract_y
_atom_site_fract_z
Si Si1 0.498998 0.092136 0.360266
Si Si2 0.406190 0.601056 0.867328
Si Si3 0.690414 0.503250 0.192657
Si Si4 0.937735 0.754700 0.042419
Si Si5 0.718179 0.809625 0.204780
Si Si6 0.867716 0.500000 0.250000
Si Si7 0.455177 0.952078 0.536731
Si Si8 0.953105 0.338298 0.303436
O O1 0.500000 0.250000 0.337723
O O2 0.524651 0.098659 0.412327
O O3 0.439291 0.043672 0.364019
O O4 0.529358 0.991198 0.323589
O O5 0.353571 0.571751 0.838954
O O6 0.401908 0.647517 0.922754
O O7 0.436987 0.735801 0.846250
O O8 0.677756 0.500000 0.250000
O O9 0.698781 0.668764 0.176057
O O10 0.741272 0.412038 0.177478
O O11 0.917399 0.590249 0.043376
O O12 0.000000 0.750000 0.057333
O O13 0.927752 0.817362 0.989066
O O14 0.750000 0.750000 0.250000
O O15 0.668972 0.912516 0.214045
O O16 0.903129 0.372682 0.271300
O O17 0.500000 0.000000 0.500000
O O18 0.000000 0.250000 0.276128
#
# Coordination Sequence:
#
# PCOD8295552 Si02
#       8
#    16  16  16  16  16   8  16  16
#     4  11  21  34  47  76 114 152 187 232 264 338
#     4  11  20  36  54  75 116 148 182 231 293 331
#     4  10  21  36  58  82 105 138 183 243 289 337
#     4  10  17  31  51  79 107 157 182 228 276 335
#     4  10  19  38  59  85 101 133 191 251 296 330
#     4  12  22  38  64  76 112 158 198 240 290 342
#     4  10  17  29  52  72 105 151 190 222 275 325
#     4  10  23  39  51  73 115 157 193 225 276 344
#
# _framework density 17.942661999999999
#
# number of rings (size 3 to 8) (size 9 to 14) (size 15 to 20)
#    0.000    1.600    6.000    3.200    1.867    0.533 
#    7.200    0.000    0.000    0.000    0.000    0.000 
#    0.000    8.533    0.000    0.000    0.000    0.000 
#
# Total GULP energy -743317.035843 kJ/mol
# GULP energy per Si atom -12388.617264 kJ/mol
# Density = 1.790182 g / cm^3
# Si number density = 17.942662 Si / 1000 Ang^3
#
#
#
# Elastic Constant Matrix: (Units=GPa)
#
#
# Indices 1 2 3 4 5 6 
#
# 1 95.4751 51.4398 35.3141 0.0000 0.0000 0.0000
# 2 51.4398 147.3978 20.4967 0.0000 0.0000 0.0000
# 3 35.3141 20.4967 46.3474 0.0000 0.0000 0.0000
# 4 0.0000 0.0000 0.0000 21.2698 0.0000 0.0000
# 5 0.0000 0.0000 0.0000 0.0000 6.2418 0.0000
# 6 0.0000 0.0000 0.0000 0.0000 0.0000 30.2390
#
#
#
# Elastic Compliance Matrix: (Units=1/GPa)
#
#
# Indices 1 2 3 4 5 6 
#
# 1 0.016866 -0.004368 -0.010919 0.000000 0.000000 0.000000
# 2 -0.004368 0.008360 -0.000369 0.000000 0.000000 0.000000
# 3 -0.010919 -0.000369 0.030059 0.000000 0.000000 0.000000
# 4 0.000000 0.000000 0.000000 0.047015 0.000000 0.000000
# 5 0.000000 0.000000 0.000000 0.000000 0.160209 0.000000
# 6 0.000000 0.000000 0.000000 0.000000 0.000000 0.033070
#
#
# Mechanical properties :
#
#
# Convention : Reuss Voigt Hill
#
# Bulk Modulus (GPa) = 41.71381 55.96904 48.84143
# Shear Modulus (GPa) = 14.93061 23.68145 19.30603
#
# Velocity S-wave (km/s) = 2.88779 3.63690 3.28378
# Velocity P-wave (km/s) = 5.86669 6.99264 6.45427
#
# Compressibility (1/GPa) = 0.02397288
#
# Stress axis : x y z
#
# Youngs Moduli (GPa) = 59.29132 119.61825 33.26752
#
# Poissons Ratio (x) = 0.52244 0.36326
# Poissons Ratio (y) = 0.25896 0.01229
# Poissons Ratio (z) = 0.64742 0.04417
#
# Static dielectric constant tensor:
#      x y z
#    x 2.579930 0.000000 0.000000 
#    y 0.000000 4.005630 0.000000 
#    z 0.000000 0.000000 3.108660 
# 
# 
# High freq. dielectric constant tensor:
#      x y z
#    x 1.650870 0.000000 0.000000 
#    y 0.000000 1.729450 0.000000 
#    z 0.000000 0.000000 1.660810 
# 
# From -- ./inp_files/34805.got.cif
#   From: 2010.03.12/outbox.cif.g09.slc.cpg/sg73_18_cif.got.tgz:34805.got - 2010.04.16 15:25:48.
