data_PCOD8295785
_publ_section_title
;
Structure prediction by ZEFSAII (Michael W. Deem and Ramdas Pophale) SiO2 
 PCOD8295785
Probable space group: I B C A 
;
_chemical_formula_sum "Si O2"
_cell_formula_units_Z 112
_cell_length_a 22.529300
_cell_length_b 18.376360
_cell_length_c 14.021698
_cell_angle_alpha 90.000000
_cell_angle_beta 90.000000
_cell_angle_gamma 90.000000
_cell_volume 5805.074497
_symmetry_space_group_name_H-M "I B C A "
_symmetry_group_IT_number 73
_symmetry_cell_setting 'orthorhombic'
loop_
_space_group_symop_operation_xyz
x,y,z
-x,1/2-y,z
x,-y,1/2-z
1/2-x,y,-z
-x,-y,-z
x,1/2+y,-z
-x,y,1/2+z
1/2+x,-y,z
1/2+x,1/2+y,1/2+z
1/2-x,-y,1/2+z
1/2+x,1/2-y,-z
-x,1/2+y,1/2-z
1/2-x,1/2-y,1/2-z
1/2+x,y,1/2-z
1/2-x,1/2+y,z
x,1/2-y,1/2+z
loop_
_atom_site_type_symbol
_atom_site_label
_atom_site_fract_x
_atom_site_fract_y
_atom_site_fract_z
Si Si1 0.563516 0.564778 0.411174
Si Si2 0.156810 0.280089 0.743165
Si Si3 0.508894 0.426056 0.886774
Si Si4 0.632806 0.433035 0.808672
Si Si5 0.544152 0.813471 0.751578
Si Si6 0.765127 0.225420 0.402007
Si Si7 0.188731 0.424340 0.490272
O O1 0.526109 0.590243 0.503563
O O2 0.539699 0.488514 0.372721
O O3 0.556209 0.628550 0.334843
O O4 0.632672 0.544901 0.432451
O O5 0.129621 0.360504 0.754732
O O6 0.106101 0.221786 0.718039
O O7 0.182460 0.265449 0.847605
O O8 0.206837 0.277291 0.662736
O O9 0.566542 0.457095 0.834006
O O10 0.484460 0.351915 0.840838
O O11 0.662367 0.500000 0.750000
O O12 0.669282 0.410019 0.901662
O O13 0.500000 0.750000 0.788446
O O14 0.750000 0.268924 0.500000
O O15 0.790133 0.147211 0.433845
O O16 0.250000 0.473299 0.500000
#
# Coordination Sequence:
#
# PCOD8295785 Si02
#       7
#    16  16  16  16  16  16  16
#     4  10  22  42  62  91 123 166 207 259 317 371
#     4  11  22  38  65  95 123 168 212 258 314 377
#     4  10  23  42  63  87 130 166 200 259 324 374
#     4  11  21  38  63  90 124 168 213 255 314 380
#     4  12  23  37  61  99 125 161 212 256 307 381
#     4  10  20  41  66  88 127 167 207 257 323 372
#     4  10  19  39  65  86 119 168 205 253 317 373
#
# _framework density 19.293465999999999
#
# number of rings (size 3 to 8) (size 9 to 14) (size 15 to 20)
#    0.000    1.429    5.714    1.286    0.000    0.571 
#    2.571    5.000    0.000    0.000    0.000    0.000 
#    0.000    0.000    0.000    0.000    0.000    0.000 
#
# Total GULP energy -693877.254304 kJ/mol
# GULP energy per Si atom -12390.665255 kJ/mol
# Density = 1.924955 g / cm^3
# Si number density = 19.293466 Si / 1000 Ang^3
#
#
#
# Elastic Constant Matrix: (Units=GPa)
#
#
# Indices 1 2 3 4 5 6 
#
# 1 141.4958 48.1698 39.4723 0.0000 0.0000 0.0000
# 2 48.1698 93.1734 37.0114 0.0000 0.0000 0.0000
# 3 39.4723 37.0114 84.7192 0.0000 0.0000 0.0000
# 4 0.0000 0.0000 0.0000 21.9423 0.0000 0.0000
# 5 0.0000 0.0000 0.0000 0.0000 29.7899 0.0000
# 6 0.0000 0.0000 0.0000 0.0000 0.0000 28.7187
#
#
#
# Elastic Compliance Matrix: (Units=1/GPa)
#
#
# Indices 1 2 3 4 5 6 
#
# 1 0.009035 -0.003628 -0.002624 0.000000 0.000000 0.000000
# 2 -0.003628 0.014443 -0.004619 0.000000 0.000000 0.000000
# 3 -0.002624 -0.004619 0.015044 0.000000 0.000000 0.000000
# 4 0.000000 0.000000 0.000000 0.045574 0.000000 0.000000
# 5 0.000000 0.000000 0.000000 0.000000 0.033568 0.000000
# 6 0.000000 0.000000 0.000000 0.000000 0.000000 0.034820
#
#
# Mechanical properties :
#
#
# Convention : Reuss Voigt Hill
#
# Bulk Modulus (GPa) = 59.60016 63.18838 61.39427
# Shear Modulus (GPa) = 27.80518 29.07251 28.43884
#
# Velocity S-wave (km/s) = 3.80039 3.88604 3.84345
# Velocity P-wave (km/s) = 7.08631 7.27718 7.18238
#
# Compressibility (1/GPa) = 0.01677848
#
# Stress axis : x y z
#
# Youngs Moduli (GPa) = 110.68496 69.23534 66.46954
#
# Poissons Ratio (x) = 0.25121 0.17443
# Poissons Ratio (y) = 0.40161 0.30705
# Poissons Ratio (z) = 0.29047 0.31983
#
# Static dielectric constant tensor:
#      x y z
#    x 3.990800 0.000000 0.000000 
#    y 0.000000 3.327650 0.000000 
#    z 0.000000 0.000000 3.760940 
# 
# 
# High freq. dielectric constant tensor:
#      x y z
#    x 1.770640 0.000000 0.000000 
#    y 0.000000 1.728310 0.000000 
#    z 0.000000 0.000000 1.755740 
# 
# From -- ./inp_files/19397.got.cif
#   From: 2010.03.12/outbox.cif.g09.slc.cpg/sg73_10_cif.got.tgz:19397.got - 2010.04.16 15:25:48.
