data_PCOD8295608
_publ_section_title
;
Structure prediction by ZEFSAII (Michael W. Deem and Ramdas Pophale) SiO2 
 PCOD8295608
Probable space group: I B C A 
;
_chemical_formula_sum "Si O2"
_cell_formula_units_Z 96
_cell_length_a 11.378700
_cell_length_b 22.870184
_cell_length_c 18.431196
_cell_angle_alpha 90.000000
_cell_angle_beta 90.000000
_cell_angle_gamma 90.000000
_cell_volume 4796.404741
_symmetry_space_group_name_H-M "I B C A "
_symmetry_group_IT_number 73
_symmetry_cell_setting 'orthorhombic'
loop_
_space_group_symop_operation_xyz
x,y,z
-x,1/2-y,z
x,-y,1/2-z
1/2-x,y,-z
-x,-y,-z
x,1/2+y,-z
-x,y,1/2+z
1/2+x,-y,z
1/2+x,1/2+y,1/2+z
1/2-x,-y,1/2+z
1/2+x,1/2-y,-z
-x,1/2+y,1/2-z
1/2-x,1/2-y,1/2-z
1/2+x,y,1/2-z
1/2-x,1/2+y,z
x,1/2-y,1/2+z
loop_
_atom_site_type_symbol
_atom_site_label
_atom_site_fract_x
_atom_site_fract_y
_atom_site_fract_z
Si Si1 0.240983 0.675862 0.326555
Si Si2 0.300877 0.598264 0.921914
Si Si3 0.684763 0.303750 0.834298
Si Si4 0.983643 0.384419 0.697280
Si Si5 0.154517 0.514787 0.832480
Si Si6 0.543731 0.896876 0.360714
O O1 0.247084 0.684742 0.240360
O O2 0.195609 0.736673 0.360468
O O3 0.146141 0.623560 0.336416
O O4 0.363252 0.656854 0.364399
O O5 0.243682 0.658814 0.897457
O O6 0.268374 0.544044 0.869103
O O7 0.442721 0.607074 0.922054
O O8 0.250000 0.582098 0.000000
O O9 0.550869 0.323821 0.821463
O O10 0.978769 0.395579 0.783283
O O11 0.046798 0.439586 0.660751
O O12 0.189228 0.500000 0.750000
O O13 0.116151 0.456287 0.873585
#
# Coordination Sequence:
#
# PCOD8295608 Si02
#       6
#    16  16  16  16  16  16
#     4  10  18  32  61  89 115 142 199 260 300 348
#     4  11  23  40  59  80 125 167 200 240 312 385
#     4   9  19  34  56  88 116 151 194 246 306 355
#     4   9  17  33  56  90 119 147 187 258 311 343
#     4   9  21  36  61  87 116 151 201 261 303 356
#     4  10  21  33  56  89 115 154 198 246 303 363
#
# _framework density 20.014990999999998
#
# number of rings (size 3 to 8) (size 9 to 14) (size 15 to 20)
#    0.000    2.333    1.667    1.500    2.333    2.000 
#    0.000    0.000   14.667    0.000    0.000    0.000 
#    0.000    0.000    0.000    0.000    0.000    0.000 
#
# Total GULP energy -595076.210201 kJ/mol
# GULP energy per Si atom -12397.421046 kJ/mol
# Density = 1.996944 g / cm^3
# Si number density = 20.014991 Si / 1000 Ang^3
#
#
#
# Elastic Constant Matrix: (Units=GPa)
#
#
# Indices 1 2 3 4 5 6 
#
# 1 101.5833 37.1160 26.6288 0.0000 0.0000 0.0000
# 2 37.1160 107.3035 28.3864 0.0000 0.0000 0.0000
# 3 26.6288 28.3864 49.4681 0.0000 0.0000 0.0000
# 4 0.0000 0.0000 0.0000 16.3230 0.0000 0.0000
# 5 0.0000 0.0000 0.0000 0.0000 22.4982 0.0000
# 6 0.0000 0.0000 0.0000 0.0000 0.0000 22.1382
#
#
#
# Elastic Compliance Matrix: (Units=1/GPa)
#
#
# Indices 1 2 3 4 5 6 
#
# 1 0.012194 -0.002925 -0.004885 0.000000 0.000000 0.000000
# 2 -0.002925 0.011689 -0.005133 0.000000 0.000000 0.000000
# 3 -0.004885 -0.005133 0.025790 0.000000 0.000000 0.000000
# 4 0.000000 0.000000 0.000000 0.061263 0.000000 0.000000
# 5 0.000000 0.000000 0.000000 0.000000 0.044448 0.000000
# 6 0.000000 0.000000 0.000000 0.000000 0.000000 0.045171
#
#
# Mechanical properties :
#
#
# Convention : Reuss Voigt Hill
#
# Bulk Modulus (GPa) = 42.04148 49.17972 45.61060
# Shear Modulus (GPa) = 21.33378 23.27347 22.30363
#
# Velocity S-wave (km/s) = 3.26834 3.41369 3.34180
# Velocity P-wave (km/s) = 5.94082 6.33739 6.14230
#
# Compressibility (1/GPa) = 0.02378603
#
# Stress axis : x y z
#
# Youngs Moduli (GPa) = 82.01028 85.54979 38.77455
#
# Poissons Ratio (x) = 0.25027 0.18942
# Poissons Ratio (y) = 0.23991 0.19902
# Poissons Ratio (z) = 0.40063 0.43911
#
# Static dielectric constant tensor:
#      x y z
#    x 3.611360 0.000000 0.000000 
#    y 0.000000 3.803170 0.000000 
#    z 0.000000 0.000000 3.091740 
# 
# 
# High freq. dielectric constant tensor:
#      x y z
#    x 1.786360 0.000000 0.000000 
#    y 0.000000 1.790410 0.000000 
#    z 0.000000 0.000000 1.717530 
# 
# From -- ./inp_files/13616.got.cif
#   From: 2010.03.12/outbox.cif.g09.slc.cpg/sg73_7_cif.got.tgz:13616.got - 2010.04.16 15:25:48.
