data_PCOD8295051
_publ_section_title
;
Structure prediction by ZEFSAII (Michael W. Deem and Ramdas Pophale) SiO2 
 PCOD8295051
Probable space group: I B A M
;
_chemical_formula_sum "Si O2"
_cell_formula_units_Z 56
_cell_length_a 18.737709
_cell_length_b 12.941691
_cell_length_c 10.099453
_cell_angle_alpha 90.000000
_cell_angle_beta 90.000000
_cell_angle_gamma 90.000000
_cell_volume 2449.093517
_symmetry_space_group_name_H-M "I B A M"
_symmetry_group_IT_number 72
_symmetry_cell_setting 'orthorhombic'
loop_
_space_group_symop_operation_xyz
x,y,z
-x,-y,z
x,-y,1/2-z
-x,y,1/2-z
-x,-y,-z
x,y,-z
-x,y,1/2+z
x,-y,1/2+z
1/2+x,1/2+y,1/2+z
1/2-x,1/2-y,1/2+z
1/2+x,1/2-y,-z
1/2-x,1/2+y,-z
1/2-x,1/2-y,1/2-z
1/2+x,1/2+y,1/2-z
1/2-x,1/2+y,z
1/2+x,1/2-y,z
loop_
_atom_site_type_symbol
_atom_site_label
_atom_site_fract_x
_atom_site_fract_y
_atom_site_fract_z
Si Si1 0.756421 0.613161 0.000000
Si Si2 0.444664 0.687636 0.142041
Si Si3 0.132284 0.611948 0.728688
Si Si4 0.338995 0.557445 0.000000
Si Si5 0.697440 0.167305 0.500000
O O1 0.800332 0.587761 0.134090
O O2 0.673507 0.566803 0.000000
O O3 0.748283 0.734902 0.000000
O O4 0.500000 0.646194 0.250000
O O5 0.420868 0.805601 0.163395
O O6 0.484896 0.685893 0.000000
O O7 0.377531 0.606479 0.130754
O O8 0.094409 0.500000 0.750000
O O9 0.150330 0.663494 0.868917
O O10 0.253354 0.574148 0.000000
#
# Coordination Sequence:
#
# PCOD8295051 Si02
#       5
#     8  16  16   8   8
#     4  12  22  42  66 104 147 180 230 297 370 422
#     4  10  24  46  69 100 143 192 246 288 342 435
#     4  12  23  40  68 109 141 181 231 298 373 422
#     4  10  22  43  72 102 139 183 242 292 357 432
#     4  12  24  37  70 110 145 173 227 307 375 419
#
# _framework density 22.865603
#
# number of rings (size 3 to 8) (size 9 to 14) (size 15 to 20)
#    0.857    0.000    7.143    0.857    2.000    0.571 
#    0.000    1.429    3.143    5.143    0.000    0.000 
#    0.000    0.000    0.000    0.000    0.000    0.000 
#
# Total GULP energy -346888.401405 kJ/mol
# GULP energy per Si atom -12388.871479 kJ/mol
# Density = 2.281356 g / cm^3
# Si number density = 22.865603 Si / 1000 Ang^3
#
#
#
# Elastic Constant Matrix: (Units=GPa)
#
#
# Indices 1 2 3 4 5 6 
#
# 1 59.8652 8.0071 38.2825 0.0000 0.0000 0.0000
# 2 8.0071 37.1692 15.2786 0.0000 0.0000 0.0000
# 3 38.2825 15.2786 165.8994 0.0000 0.0000 0.0000
# 4 0.0000 0.0000 0.0000 2.5916 0.0000 0.0000
# 5 0.0000 0.0000 0.0000 0.0000 45.0953 0.0000
# 6 0.0000 0.0000 0.0000 0.0000 0.0000 29.7182
#
#
#
# Elastic Compliance Matrix: (Units=1/GPa)
#
#
# Indices 1 2 3 4 5 6 
#
# 1 0.019814 -0.002483 -0.004344 0.000000 0.000000 0.000000
# 2 -0.002483 0.028274 -0.002031 0.000000 0.000000 0.000000
# 3 -0.004344 -0.002031 0.007217 0.000000 0.000000 0.000000
# 4 0.000000 0.000000 0.000000 0.385861 0.000000 0.000000
# 5 0.000000 0.000000 0.000000 0.000000 0.022175 0.000000
# 6 0.000000 0.000000 0.000000 0.000000 0.000000 0.033649
#
#
# Mechanical properties :
#
#
# Convention : Reuss Voigt Hill
#
# Bulk Modulus (GPa) = 26.60287 42.89667 34.74977
# Shear Modulus (GPa) = 9.48344 28.90540 19.19442
#
# Velocity S-wave (km/s) = 2.03874 3.55934 2.90046
# Velocity P-wave (km/s) = 4.14749 5.97435 5.14269
#
# Compressibility (1/GPa) = 0.03758993
#
# Stress axis : x y z
#
# Youngs Moduli (GPa) = 50.46967 35.36856 138.55996
#
# Poissons Ratio (x) = 0.08782 0.60184
# Poissons Ratio (y) = 0.12531 0.28140
# Poissons Ratio (z) = 0.21922 0.07183
#
# Static dielectric constant tensor:
#      x y z
#    x 3.617270 0.000000 0.000000 
#    y 0.000000 4.130820 0.000000 
#    z 0.000000 0.000000 4.363270 
# 
# 
# High freq. dielectric constant tensor:
#      x y z
#    x 1.861550 0.000000 0.000000 
#    y 0.000000 1.921810 0.000000 
#    z 0.000000 0.000000 1.909750 
# 
# From -- ./inp_files/3267.got.cif
#   From: 2010.03.12/outbox.cif.g09.slc.cpg/sg72_2_cif.got.tgz:3267.got - 2010.04.16 14:54:00.
