data_PCOD8295531
_publ_section_title
;
Structure prediction by ZEFSAII (Michael W. Deem and Ramdas Pophale) SiO2 
 PCOD8295531
Probable space group: I B C A 
;
_chemical_formula_sum "Si O2"
_cell_formula_units_Z 88
_cell_length_a 5.254328
_cell_length_b 29.220522
_cell_length_c 26.054349
_cell_angle_alpha 90.000000
_cell_angle_beta 90.000000
_cell_angle_gamma 90.000000
_cell_volume 4000.233811
_symmetry_space_group_name_H-M "I B C A "
_symmetry_group_IT_number 73
_symmetry_cell_setting 'orthorhombic'
loop_
_space_group_symop_operation_xyz
x,y,z
-x,1/2-y,z
x,-y,1/2-z
1/2-x,y,-z
-x,-y,-z
x,1/2+y,-z
-x,y,1/2+z
1/2+x,-y,z
1/2+x,1/2+y,1/2+z
1/2-x,-y,1/2+z
1/2+x,1/2-y,-z
-x,1/2+y,1/2-z
1/2-x,1/2-y,1/2-z
1/2+x,y,1/2-z
1/2-x,1/2+y,z
x,1/2-y,1/2+z
loop_
_atom_site_type_symbol
_atom_site_label
_atom_site_fract_x
_atom_site_fract_y
_atom_site_fract_z
Si Si1 0.856980 0.697377 0.773417
Si Si2 0.000000 0.250000 0.032255
Si Si3 0.646320 0.825744 0.612743
Si Si4 0.732780 0.524337 0.439460
Si Si5 0.606391 0.905179 0.770287
Si Si6 0.137784 0.616403 0.114826
O O1 0.629117 0.720899 0.740010
O O2 0.795470 0.700651 0.833960
O O3 0.879176 0.645017 0.755183
O O4 0.908743 0.208272 0.066764
O O5 0.750000 0.265158 0.000000
O O6 0.396864 0.855809 0.621692
O O7 0.897709 0.853700 0.595793
O O8 0.750000 0.519484 0.500000
O O9 0.498764 0.494452 0.416451
O O10 0.688635 0.577102 0.426308
O O11 0.365845 0.931476 0.744973
O O12 0.563120 0.904853 0.830760
#
# Coordination Sequence:
#
# PCOD8295531 Si02
#       6
#    16   8  16  16  16  16
#     4  10  16  32  57  90 126 154 197 252 319 357
#     4  12  30  52  62  84 138 176 202 284 330 340
#     4  12  23  40  67  95 120 173 222 248 315 392
#     4  10  23  43  62  89 129 161 202 274 331 354
#     4  10  16  30  54  91 128 156 191 248 319 352
#     4  12  21  36  71  98 118 167 222 251 303 408
#
# _framework density 21.998714
#
# number of rings (size 3 to 8) (size 9 to 14) (size 15 to 20)
#    0.000    1.091    7.273    2.182    0.000    2.182 
#    0.000    0.909    0.000    3.273    0.000    0.000 
#    0.000    0.000    0.000    0.000    0.000    0.000 
#
# Total GULP energy -545583.880069 kJ/mol
# GULP energy per Si atom -12399.633638 kJ/mol
# Density = 2.194864 g / cm^3
# Si number density = 21.998714 Si / 1000 Ang^3
#
#
#
# Elastic Constant Matrix: (Units=GPa)
#
#
# Indices 1 2 3 4 5 6 
#
# 1 213.5726 47.0558 46.2646 0.0000 0.0000 0.0000
# 2 47.0558 61.9863 28.3891 0.0000 0.0000 0.0000
# 3 46.2646 28.3891 54.2959 0.0000 0.0000 0.0000
# 4 0.0000 0.0000 0.0000 6.9547 0.0000 0.0000
# 5 0.0000 0.0000 0.0000 0.0000 29.3495 0.0000
# 6 0.0000 0.0000 0.0000 0.0000 0.0000 22.1551
#
#
#
# Elastic Compliance Matrix: (Units=1/GPa)
#
#
# Indices 1 2 3 4 5 6 
#
# 1 0.006133 -0.002975 -0.003670 0.000000 0.000000 0.000000
# 2 -0.002975 0.022655 -0.009311 0.000000 0.000000 0.000000
# 3 -0.003670 -0.009311 0.026413 0.000000 0.000000 0.000000
# 4 0.000000 0.000000 0.000000 0.143788 0.000000 0.000000
# 5 0.000000 0.000000 0.000000 0.000000 0.034072 0.000000
# 6 0.000000 0.000000 0.000000 0.000000 0.000000 0.045136
#
#
# Mechanical properties :
#
#
# Convention : Reuss Voigt Hill
#
# Bulk Modulus (GPa) = 42.93761 63.69710 53.31735
# Shear Modulus (GPa) = 15.72964 25.56821 20.64892
#
# Velocity S-wave (km/s) = 2.67690 3.41289 3.06705
# Velocity P-wave (km/s) = 5.39583 6.67444 6.06890
#
# Compressibility (1/GPa) = 0.02328960
#
# Stress axis : x y z
#
# Youngs Moduli (GPa) = 163.06047 44.14058 37.85985
#
# Poissons Ratio (x) = 0.13130 0.13896
# Poissons Ratio (y) = 0.48503 0.35250
# Poissons Ratio (z) = 0.59848 0.41098
#
# Static dielectric constant tensor:
#      x y z
#    x 56.517190 0.000000 0.000000 
#    y 0.000000 3.583480 0.000000 
#    z 0.000000 0.000000 3.878750 
# 
# 
# High freq. dielectric constant tensor:
#      x y z
#    x 1.910190 0.000000 0.000000 
#    y 0.000000 1.835470 0.000000 
#    z 0.000000 0.000000 1.856370 
# 
# From -- ./inp_files/3114.got.cif
#   From: 2010.03.12/outbox.cif.g09.slc.cpg/sg73_2_cif.got.tgz:3114.got - 2010.04.16 15:25:48.
