data_PCOD8295875
_publ_section_title
;
Structure prediction by ZEFSAII (Michael W. Deem and Ramdas Pophale) SiO2 
 PCOD8295875
Probable space group: I B C A 
;
_chemical_formula_sum "Si O2"
_cell_formula_units_Z 88
_cell_length_a 15.596330
_cell_length_b 18.242055
_cell_length_c 17.615520
_cell_angle_alpha 90.000000
_cell_angle_beta 90.000000
_cell_angle_gamma 90.000000
_cell_volume 5011.775911
_symmetry_space_group_name_H-M "I B C A "
_symmetry_group_IT_number 73
_symmetry_cell_setting 'orthorhombic'
loop_
_space_group_symop_operation_xyz
x,y,z
-x,1/2-y,z
x,-y,1/2-z
1/2-x,y,-z
-x,-y,-z
x,1/2+y,-z
-x,y,1/2+z
1/2+x,-y,z
1/2+x,1/2+y,1/2+z
1/2-x,-y,1/2+z
1/2+x,1/2-y,-z
-x,1/2+y,1/2-z
1/2-x,1/2-y,1/2-z
1/2+x,y,1/2-z
1/2-x,1/2+y,z
x,1/2-y,1/2+z
loop_
_atom_site_type_symbol
_atom_site_label
_atom_site_fract_x
_atom_site_fract_y
_atom_site_fract_z
Si Si1 0.913151 0.031461 0.334806
Si Si2 0.167085 0.575120 0.456916
Si Si3 0.500000 0.250000 0.660475
Si Si4 0.164999 0.181562 0.804034
Si Si5 0.428671 0.391924 0.102291
Si Si6 0.758012 0.676518 0.148174
O O1 0.857365 0.105365 0.344299
O O2 0.012438 0.045574 0.358455
O O3 0.912597 0.000000 0.250000
O O4 0.866748 0.975354 0.389996
O O5 0.250000 0.540265 0.500000
O O6 0.089396 0.586843 0.515268
O O7 0.195170 0.653636 0.420592
O O8 0.422551 0.274104 0.716016
O O9 0.520896 0.315591 0.603028
O O10 0.218472 0.236796 0.859382
O O11 0.214970 0.162517 0.728508
O O12 0.339453 0.378876 0.146970
#
# Coordination Sequence:
#
# PCOD8295875 Si02
#       6
#    16  16   8  16  16  16
#     4  11  20  35  55  81 111 147 185 230 278 334
#     4  10  20  36  54  78 111 148 176 223 283 339
#     4   8  16  32  54  76 104 140 178 222 272 314
#     4   9  17  32  56  80 105 136 183 232 269 315
#     4   9  19  34  54  76 109 147 180 219 280 332
#     4   9  17  34  56  78 103 142 182 228 273 322
#
# _framework density 17.558646
#
# number of rings (size 3 to 8) (size 9 to 14) (size 15 to 20)
#    0.000    2.545    1.818    0.545    0.000    0.000 
#    6.545    7.273    4.000    0.000    0.000    0.000 
#    0.000    0.000    0.000    0.000    0.000    0.000 
#
# Total GULP energy -545181.624661 kJ/mol
# GULP energy per Si atom -12390.491470 kJ/mol
# Density = 1.751868 g / cm^3
# Si number density = 17.558646 Si / 1000 Ang^3
#
#
#
# Elastic Constant Matrix: (Units=GPa)
#
#
# Indices 1 2 3 4 5 6 
#
# 1 86.4673 53.3337 64.1815 0.0000 0.0000 0.0000
# 2 53.3337 92.5790 62.3119 0.0000 0.0000 0.0000
# 3 64.1815 62.3119 122.7926 0.0000 0.0000 0.0000
# 4 0.0000 0.0000 0.0000 22.5789 0.0000 0.0000
# 5 0.0000 0.0000 0.0000 0.0000 34.3712 0.0000
# 6 0.0000 0.0000 0.0000 0.0000 0.0000 23.4733
#
#
#
# Elastic Compliance Matrix: (Units=1/GPa)
#
#
# Indices 1 2 3 4 5 6 
#
# 1 0.021811 -0.007430 -0.007630 0.000000 0.000000 0.000000
# 2 -0.007430 0.018935 -0.005726 0.000000 0.000000 0.000000
# 3 -0.007630 -0.005726 0.015037 0.000000 0.000000 0.000000
# 4 0.000000 0.000000 0.000000 0.044289 0.000000 0.000000
# 5 0.000000 0.000000 0.000000 0.000000 0.029094 0.000000
# 6 0.000000 0.000000 0.000000 0.000000 0.000000 0.042602
#
#
# Mechanical properties :
#
#
# Convention : Reuss Voigt Hill
#
# Bulk Modulus (GPa) = 70.35597 73.49923 71.92760
# Shear Modulus (GPa) = 22.92762 24.21880 23.57321
#
# Velocity S-wave (km/s) = 3.61747 3.71793 3.66805
# Velocity P-wave (km/s) = 7.58975 7.77051 7.68066
#
# Compressibility (1/GPa) = 0.01421344
#
# Stress axis : x y z
#
# Youngs Moduli (GPa) = 45.84770 52.81118 66.50074
#
# Poissons Ratio (x) = 0.39237 0.50741
# Poissons Ratio (y) = 0.34063 0.38075
# Poissons Ratio (z) = 0.34983 0.30237
#
# Static dielectric constant tensor:
#      x y z
#    x 3.577720 0.000000 0.000000 
#    y 0.000000 3.343520 0.000000 
#    z 0.000000 0.000000 3.114100 
# 
# 
# High freq. dielectric constant tensor:
#      x y z
#    x 1.689240 0.000000 0.000000 
#    y 0.000000 1.675800 0.000000 
#    z 0.000000 0.000000 1.660450 
# 
# From -- ./inp_files/16974.got.cif
#   From: 2010.03.12/outbox.cif.g09.slc.cpg/sg73_9_cif.got.tgz:16974.got - 2010.04.16 15:25:48.
