data_PCOD8295810
_publ_section_title
;
Structure prediction by ZEFSAII (Michael W. Deem and Ramdas Pophale) SiO2 
 PCOD8295810
Probable space group: I B C A 
;
_chemical_formula_sum "Si O2"
_cell_formula_units_Z 120
_cell_length_a 8.566361
_cell_length_b 24.734186
_cell_length_c 29.059733
_cell_angle_alpha 90.000000
_cell_angle_beta 90.000000
_cell_angle_gamma 90.000000
_cell_volume 6157.233369
_symmetry_space_group_name_H-M "I B C A "
_symmetry_group_IT_number 73
_symmetry_cell_setting 'orthorhombic'
loop_
_space_group_symop_operation_xyz
x,y,z
-x,1/2-y,z
x,-y,1/2-z
1/2-x,y,-z
-x,-y,-z
x,1/2+y,-z
-x,y,1/2+z
1/2+x,-y,z
1/2+x,1/2+y,1/2+z
1/2-x,-y,1/2+z
1/2+x,1/2-y,-z
-x,1/2+y,1/2-z
1/2-x,1/2-y,1/2-z
1/2+x,y,1/2-z
1/2-x,1/2+y,z
x,1/2-y,1/2+z
loop_
_atom_site_type_symbol
_atom_site_label
_atom_site_fract_x
_atom_site_fract_y
_atom_site_fract_z
Si Si1 0.764884 0.080468 0.360905
Si Si2 0.738854 0.809086 0.191415
Si Si3 0.967080 0.005789 0.886493
Si Si4 0.661944 0.857067 0.952793
Si Si5 0.500000 0.750000 0.252406
Si Si6 0.822798 0.245246 0.396234
Si Si7 0.294277 0.455566 0.949742
Si Si8 0.198942 0.157677 0.454244
O O1 0.756783 0.127204 0.321721
O O2 0.608773 0.043487 0.356728
O O3 0.772862 0.104450 0.412495
O O4 0.920187 0.042837 0.354273
O O5 0.590093 0.795106 0.222387
O O6 0.714579 0.775231 0.144754
O O7 0.892296 0.788234 0.216976
O O8 0.051272 0.984349 0.932402
O O9 0.829276 0.040435 0.908197
O O10 0.690359 0.794550 0.939831
O O11 0.476658 0.865721 0.957289
O O12 0.750000 0.871676 0.000000
O O13 0.768279 0.304833 0.410487
O O14 0.000000 0.250000 0.378603
O O15 0.321854 0.391496 0.953331
O O16 0.250000 0.480099 0.000000
O O17 0.250000 0.190918 0.500000
#
# Coordination Sequence:
#
# PCOD8295810 Si02
#       8
#    16  16  16  16   8  16  16  16
#     4  10  22  38  59  82 116 154 199 238 285 327
#     4  10  21  41  64  94 118 146 176 226 287 360
#     4  10  21  36  52  76 106 152 198 244 282 326
#     4  10  20  33  50  74 111 157 197 238 282 324
#     4  10  22  40  70  98 122 136 172 218 290 366
#     4   9  18  35  55  77 112 152 184 224 283 346
#     4  10  20  31  47  71 105 149 202 249 283 311
#     4  10  20  32  48  75 110 153 199 237 278 327
#
# _framework density 19.489270999999999
#
# number of rings (size 3 to 8) (size 9 to 14) (size 15 to 20)
#    0.000    2.133    2.000    0.800    3.733    3.200 
#    2.400    4.000    0.000    2.400    0.000    0.000 
#    0.000    0.000    0.000    0.000    0.000    0.000 
#
# Total GULP energy -743529.178338 kJ/mol
# GULP energy per Si atom -12392.152972 kJ/mol
# Density = 1.944491 g / cm^3
# Si number density = 19.489271 Si / 1000 Ang^3
#
#
#
# Elastic Constant Matrix: (Units=GPa)
#
#
# Indices 1 2 3 4 5 6 
#
# 1 59.9146 37.4399 26.9203 0.0000 0.0000 0.0000
# 2 37.4399 107.6536 45.0502 0.0000 0.0000 0.0000
# 3 26.9203 45.0502 74.3749 0.0000 0.0000 0.0000
# 4 0.0000 0.0000 0.0000 19.0707 0.0000 0.0000
# 5 0.0000 0.0000 0.0000 0.0000 15.0267 0.0000
# 6 0.0000 0.0000 0.0000 0.0000 0.0000 25.9573
#
#
#
# Elastic Compliance Matrix: (Units=1/GPa)
#
#
# Indices 1 2 3 4 5 6 
#
# 1 0.022415 -0.005894 -0.004543 0.000000 0.000000 0.000000
# 2 -0.005894 0.013993 -0.006342 0.000000 0.000000 0.000000
# 3 -0.004543 -0.006342 0.018931 0.000000 0.000000 0.000000
# 4 0.000000 0.000000 0.000000 0.052437 0.000000 0.000000
# 5 0.000000 0.000000 0.000000 0.000000 0.066548 0.000000
# 6 0.000000 0.000000 0.000000 0.000000 0.000000 0.038525
#
#
# Mechanical properties :
#
#
# Convention : Reuss Voigt Hill
#
# Bulk Modulus (GPa) = 45.91329 51.19599 48.55464
# Shear Modulus (GPa) = 19.71079 20.84646 20.27862
#
# Velocity S-wave (km/s) = 3.18365 3.27408 3.22918
# Velocity P-wave (km/s) = 6.09291 6.37327 6.23467
#
# Compressibility (1/GPa) = 0.02178019
#
# Stress axis : x y z
#
# Youngs Moduli (GPa) = 44.61318 71.46357 52.82235
#
# Poissons Ratio (x) = 0.42124 0.23996
# Poissons Ratio (y) = 0.26297 0.33502
# Poissons Ratio (z) = 0.20267 0.45325
#
# Static dielectric constant tensor:
#      x y z
#    x 3.530690 0.000000 0.000000 
#    y 0.000000 3.664520 0.000000 
#    z 0.000000 0.000000 3.331250 
# 
# 
# High freq. dielectric constant tensor:
#      x y z
#    x 1.754030 0.000000 0.000000 
#    y 0.000000 1.765980 0.000000 
#    z 0.000000 0.000000 1.728300 
# 
# From -- ./inp_files/7466.got.cif
#   From: 2010.03.12/outbox.cif.g09.slc.cpg/sg73_4_cif.got.tgz:7466.got - 2010.04.16 15:25:48.
