data_PCOD8295739
_publ_section_title
;
Structure prediction by ZEFSAII (Michael W. Deem and Ramdas Pophale) SiO2 
 PCOD8295739
Probable space group: I B C A 
;
_chemical_formula_sum "Si O2"
_cell_formula_units_Z 96
_cell_length_a 11.379135
_cell_length_b 17.838280
_cell_length_c 23.444011
_cell_angle_alpha 90.000000
_cell_angle_beta 90.000000
_cell_angle_gamma 90.000000
_cell_volume 4758.763731
_symmetry_space_group_name_H-M "I B C A "
_symmetry_group_IT_number 73
_symmetry_cell_setting 'orthorhombic'
loop_
_space_group_symop_operation_xyz
x,y,z
-x,1/2-y,z
x,-y,1/2-z
1/2-x,y,-z
-x,-y,-z
x,1/2+y,-z
-x,y,1/2+z
1/2+x,-y,z
1/2+x,1/2+y,1/2+z
1/2-x,-y,1/2+z
1/2+x,1/2-y,-z
-x,1/2+y,1/2-z
1/2-x,1/2-y,1/2-z
1/2+x,y,1/2-z
1/2-x,1/2+y,z
x,1/2-y,1/2+z
loop_
_atom_site_type_symbol
_atom_site_label
_atom_site_fract_x
_atom_site_fract_y
_atom_site_fract_z
Si Si1 0.109266 0.910463 0.678831
Si Si2 0.431343 0.918508 0.196771
Si Si3 0.842550 0.063551 0.628007
Si Si4 0.507309 0.581959 0.024968
Si Si5 0.271348 0.596292 0.600245
Si Si6 0.037317 0.833657 0.085822
O O1 0.084663 0.877192 0.742099
O O2 0.231178 0.886095 0.647963
O O3 0.005374 0.888535 0.636367
O O4 0.120271 0.998256 0.690956
O O5 0.568153 0.927990 0.181061
O O6 0.350704 0.872405 0.152559
O O7 0.907525 0.097178 0.572382
O O8 0.801897 0.979372 0.613486
O O9 0.640174 0.585996 0.047741
O O10 0.500000 0.500000 0.000000
O O11 0.484152 0.642025 0.975056
O O12 0.178377 0.660696 0.584475
O O13 0.000000 0.750000 0.100633
#
# Coordination Sequence:
#
# PCOD8295739 Si02
#       6
#    16  16  16  16  16  16
#     4  10  21  35  58  95 120 158 200 259 314 372
#     4   9  19  34  65  91 119 148 201 273 316 352
#     4  10  19  35  62  95 119 147 207 263 313 364
#     4  11  21  39  65  90 119 161 212 269 312 362
#     4  10  20  38  61  92 125 157 202 262 319 365
#     4  12  25  41  58  89 132 172 206 246 317 388
#
# _framework density 20.173306
#
# number of rings (size 3 to 8) (size 9 to 14) (size 15 to 20)
#    0.000    1.667    3.333    2.500    2.333    3.333 
#    6.000    0.833    0.000    0.000    0.000    0.000 
#    0.000    0.000    0.000    0.000    0.000    0.000 
#
# Total GULP energy -594801.564660 kJ/mol
# GULP energy per Si atom -12391.699264 kJ/mol
# Density = 2.012739 g / cm^3
# Si number density = 20.173306 Si / 1000 Ang^3
#
#
#
# Elastic Constant Matrix: (Units=GPa)
#
#
# Indices 1 2 3 4 5 6 
#
# 1 110.9298 26.5516 56.9488 0.0000 0.0000 0.0000
# 2 26.5516 38.6040 26.7067 0.0000 0.0000 0.0000
# 3 56.9488 26.7067 153.1533 0.0000 0.0000 0.0000
# 4 0.0000 0.0000 0.0000 11.2572 0.0000 0.0000
# 5 0.0000 0.0000 0.0000 0.0000 31.8516 0.0000
# 6 0.0000 0.0000 0.0000 0.0000 0.0000 18.3135
#
#
#
# Elastic Compliance Matrix: (Units=1/GPa)
#
#
# Indices 1 2 3 4 5 6 
#
# 1 0.012253 -0.005999 -0.003510 0.000000 0.000000 0.000000
# 2 -0.005999 0.032395 -0.003418 0.000000 0.000000 0.000000
# 3 -0.003510 -0.003418 0.008431 0.000000 0.000000 0.000000
# 4 0.000000 0.000000 0.000000 0.088832 0.000000 0.000000
# 5 0.000000 0.000000 0.000000 0.000000 0.031396 0.000000
# 6 0.000000 0.000000 0.000000 0.000000 0.000000 0.054605
#
#
# Mechanical properties :
#
#
# Convention : Reuss Voigt Hill
#
# Bulk Modulus (GPa) = 36.73281 58.12238 47.42759
# Shear Modulus (GPa) = 19.02303 25.11646 22.06974
#
# Velocity S-wave (km/s) = 3.07413 3.53233 3.31117
# Velocity P-wave (km/s) = 5.55414 6.74615 6.17896
#
# Compressibility (1/GPa) = 0.02722362
#
# Stress axis : x y z
#
# Youngs Moduli (GPa) = 81.61598 30.86904 118.61538
#
# Poissons Ratio (x) = 0.18518 0.41633
# Poissons Ratio (y) = 0.48961 0.40546
# Poissons Ratio (z) = 0.28646 0.10552
#
# Static dielectric constant tensor:
#      x y z
#    x 4.096930 0.000000 0.000000 
#    y 0.000000 2.961710 0.000000 
#    z 0.000000 0.000000 4.413050 
# 
# 
# High freq. dielectric constant tensor:
#      x y z
#    x 1.808520 0.000000 0.000000 
#    y 0.000000 1.714330 0.000000 
#    z 0.000000 0.000000 1.808040 
# 
# From -- ./inp_files/31746.got.cif
#   From: 2010.03.12/outbox.cif.g09.slc.cpg/sg73_16_cif.got.tgz:31746.got - 2010.04.16 15:25:48.
