data_PCOD8295044
_publ_section_title
;
Structure prediction by ZEFSAII (Michael W. Deem and Ramdas Pophale) SiO2 
 PCOD8295044
Probable space group: I B A M
;
_chemical_formula_sum "Si O2"
_cell_formula_units_Z 72
_cell_length_a 14.192155
_cell_length_b 7.703880
_cell_length_c 27.771596
_cell_angle_alpha 90.000000
_cell_angle_beta 90.000000
_cell_angle_gamma 90.000000
_cell_volume 3036.397980
_symmetry_space_group_name_H-M "I B A M"
_symmetry_group_IT_number 72
_symmetry_cell_setting 'orthorhombic'
loop_
_space_group_symop_operation_xyz
x,y,z
-x,-y,z
x,-y,1/2-z
-x,y,1/2-z
-x,-y,-z
x,y,-z
-x,y,1/2+z
x,-y,1/2+z
1/2+x,1/2+y,1/2+z
1/2-x,1/2-y,1/2+z
1/2+x,1/2-y,-z
1/2-x,1/2+y,-z
1/2-x,1/2-y,1/2-z
1/2+x,1/2+y,1/2-z
1/2-x,1/2+y,z
1/2+x,1/2-y,z
loop_
_atom_site_type_symbol
_atom_site_label
_atom_site_fract_x
_atom_site_fract_y
_atom_site_fract_z
Si Si1 0.056377 0.336198 0.391326
Si Si2 0.307823 0.500000 0.750000
Si Si3 0.212140 0.832479 0.945182
Si Si4 0.371501 0.859129 0.286392
Si Si5 0.101836 0.181462 0.055141
O O1 0.159515 0.312006 0.413156
O O2 0.066856 0.355993 0.334321
O O3 0.000000 0.500000 0.413076
O O4 0.987348 0.178928 0.408736
O O5 0.372832 0.659751 0.732824
O O6 0.238153 0.575993 0.792509
O O7 0.324374 0.838147 0.933323
O O8 0.166715 0.016266 0.934736
O O9 0.199699 0.770556 0.000000
O O10 0.419662 0.000000 0.250000
O O11 0.063973 0.185310 0.000000
#
# Coordination Sequence:
#
# PCOD8295044 Si02
#       5
#    16   8  16  16  16
#     4  12  25  39  65 102 135 179 227 286 341 424
#     4   8  18  44  75  97 128 184 226 294 356 428
#     4  10  22  43  68  97 140 187 227 284 346 409
#     4   9  20  43  69 100 138 177 228 297 358 407
#     4  10  22  43  66  98 142 183 230 282 340 416
#
# _framework density 23.712306999999999
#
# number of rings (size 3 to 8) (size 9 to 14) (size 15 to 20)
#    0.667    1.333    0.000    2.667    0.000    9.333 
#    8.000    0.000    0.000    0.000    2.889    0.000 
#    0.000    0.000    0.000    0.000    0.000    0.000 
#
# Total GULP energy -445992.511055 kJ/mol
# GULP energy per Si atom -12388.680863 kJ/mol
# Density = 2.365834 g / cm^3
# Si number density = 23.712307 Si / 1000 Ang^3
#
#
#
# Elastic Constant Matrix: (Units=GPa)
#
#
# Indices 1 2 3 4 5 6 
#
# 1 101.0028 7.6025 49.1837 0.0000 0.0000 0.0000
# 2 7.6025 98.5617 25.2821 0.0000 0.0000 0.0000
# 3 49.1837 25.2821 110.8717 0.0000 0.0000 0.0000
# 4 0.0000 0.0000 0.0000 27.0472 0.0000 0.0000
# 5 0.0000 0.0000 0.0000 0.0000 42.1053 0.0000
# 6 0.0000 0.0000 0.0000 0.0000 0.0000 21.7254
#
#
#
# Elastic Compliance Matrix: (Units=1/GPa)
#
#
# Indices 1 2 3 4 5 6 
#
# 1 0.012651 0.000493 -0.005725 0.000000 0.000000 0.000000
# 2 0.000493 0.010795 -0.002680 0.000000 0.000000 0.000000
# 3 -0.005725 -0.002680 0.012170 0.000000 0.000000 0.000000
# 4 0.000000 0.000000 0.000000 0.036972 0.000000 0.000000
# 5 0.000000 0.000000 0.000000 0.000000 0.023750 0.000000
# 6 0.000000 0.000000 0.000000 0.000000 0.000000 0.046029
#
#
# Mechanical properties :
#
#
# Convention : Reuss Voigt Hill
#
# Bulk Modulus (GPa) = 50.52443 52.73029 51.62736
# Shear Modulus (GPa) = 30.34168 33.40012 31.87090
#
# Velocity S-wave (km/s) = 3.58100 3.75715 3.67013
# Velocity P-wave (km/s) = 6.20093 6.41150 6.30709
#
# Compressibility (1/GPa) = 0.01979241
#
# Stress axis : x y z
#
# Youngs Moduli (GPa) = 79.04378 92.63180 82.16892
#
# Poissons Ratio (x) = -0.04563 0.47038
# Poissons Ratio (y) = -0.03893 0.22023
# Poissons Ratio (z) = 0.45249 0.24827
#
# Static dielectric constant tensor:
#      x y z
#    x 4.504480 0.000000 0.000000 
#    y 0.000000 4.468420 0.000000 
#    z 0.000000 0.000000 3.701520 
# 
# 
# High freq. dielectric constant tensor:
#      x y z
#    x 1.949420 0.000000 0.000000 
#    y 0.000000 1.954190 0.000000 
#    z 0.000000 0.000000 1.895600 
# 
# From -- ./inp_files/48470.got.cif
#   From: 2010.03.12/outbox.cif.g09.slc.cpg/sg72_25_cif.got.tgz:48470.got - 2010.04.16 14:54:00.
