data_PCOD8295820
_publ_section_title
;
Structure prediction by ZEFSAII (Michael W. Deem and Ramdas Pophale) SiO2 
 PCOD8295820
Probable space group: I B C A 
;
_chemical_formula_sum "Si O2"
_cell_formula_units_Z 96
_cell_length_a 13.518564
_cell_length_b 20.251382
_cell_length_c 17.236464
_cell_angle_alpha 90.000000
_cell_angle_beta 90.000000
_cell_angle_gamma 90.000000
_cell_volume 4718.819918
_symmetry_space_group_name_H-M "I B C A "
_symmetry_group_IT_number 73
_symmetry_cell_setting 'orthorhombic'
loop_
_space_group_symop_operation_xyz
x,y,z
-x,1/2-y,z
x,-y,1/2-z
1/2-x,y,-z
-x,-y,-z
x,1/2+y,-z
-x,y,1/2+z
1/2+x,-y,z
1/2+x,1/2+y,1/2+z
1/2-x,-y,1/2+z
1/2+x,1/2-y,-z
-x,1/2+y,1/2-z
1/2-x,1/2-y,1/2-z
1/2+x,y,1/2-z
1/2-x,1/2+y,z
x,1/2-y,1/2+z
loop_
_atom_site_type_symbol
_atom_site_label
_atom_site_fract_x
_atom_site_fract_y
_atom_site_fract_z
Si Si1 0.174968 0.164735 0.428242
Si Si2 0.457830 0.486557 0.837685
Si Si3 0.464022 0.612010 0.939984
Si Si4 0.779038 0.306554 0.910375
Si Si5 0.128609 0.410778 0.607205
Si Si6 0.754771 0.535151 0.908484
O O1 0.250000 0.164027 0.500000
O O2 0.198035 0.232227 0.380547
O O3 0.197472 0.100053 0.375808
O O4 0.059556 0.159207 0.454629
O O5 0.426888 0.500000 0.750000
O O6 0.496149 0.550276 0.886042
O O7 0.540604 0.428845 0.834347
O O8 0.366205 0.456269 0.882342
O O9 0.378783 0.652265 0.895193
O O10 0.417416 0.587144 0.020797
O O11 0.683402 0.341785 0.870147
O O12 0.750000 0.305046 0.000000
O O13 0.211265 0.466579 0.620859
O O14 0.750000 0.535324 0.000000
#
# Coordination Sequence:
#
# PCOD8295820 Si02
#       6
#    16  16  16  16  16  16
#     4  10  20  32  56  92 122 149 195 243 300 350
#     4  12  25  37  57  92 119 153 203 257 301 346
#     4  11  19  37  62  86 123 155 196 246 297 358
#     4   9  19  34  57  89 118 153 190 248 298 350
#     4  11  19  37  63  86 119 155 201 242 306 350
#     4  11  19  36  61  89 118 150 197 244 298 358
#
# _framework density 20.344069999999999
#
# number of rings (size 3 to 8) (size 9 to 14) (size 15 to 20)
#    0.000    1.333    5.000    3.500    0.000    0.667 
#    0.000    2.500    0.000    6.000    0.000    0.000 
#    0.000    0.000    0.000    0.000    0.000    0.000 
#
# Total GULP energy -594730.566517 kJ/mol
# GULP energy per Si atom -12390.220136 kJ/mol
# Density = 2.029777 g / cm^3
# Si number density = 20.344070 Si / 1000 Ang^3
#
#
#
# Elastic Constant Matrix: (Units=GPa)
#
#
# Indices 1 2 3 4 5 6 
#
# 1 153.1186 55.3987 17.5226 0.0000 0.0000 0.0000
# 2 55.3987 132.2452 8.3274 0.0001 0.0000 0.0000
# 3 17.5226 8.3274 38.7102 0.0004 0.0000 -0.0001
# 4 0.0000 0.0001 0.0004 -13.1666 0.0000 -0.0001
# 5 0.0000 0.0000 0.0000 0.0000 12.0599 0.0000
# 6 0.0000 0.0000 -0.0001 -0.0001 0.0000 29.8920
#
#
#
# Elastic Compliance Matrix: (Units=1/GPa)
#
#
# Indices 1 2 3 4 5 6 
#
# 1 0.008016 -0.003172 -0.002946 0.000000 0.000000 0.000000
# 2 -0.003172 0.008921 -0.000483 0.000000 0.000000 0.000000
# 3 -0.002946 -0.000483 0.027270 0.000001 0.000000 0.000000
# 4 0.000000 0.000000 0.000001 -0.075950 0.000000 0.000000
# 5 0.000000 0.000000 0.000000 0.000000 0.082919 0.000000
# 6 0.000000 0.000000 0.000000 0.000000 0.000000 0.033454
#
#
# Mechanical properties :
#
#
# Convention : Reuss Voigt Hill
#
# Bulk Modulus (GPa) = 32.25356 54.06351 43.15853
# Shear Modulus (GPa) = 46.22430 21.94542 34.08486
#
# Velocity S-wave (km/s) = 4.77185 3.28794 4.09763
# Velocity P-wave (km/s) = 6.80068 6.40674 6.60665
#
# Compressibility (1/GPa) = 0.03100433
#
# Stress axis : x y z
#
# Youngs Moduli (GPa) = 124.75366 112.09414 36.66977
#
# Poissons Ratio (x) = 0.35561 0.10803
# Poissons Ratio (y) = 0.39577 0.01772
# Poissons Ratio (z) = 0.36752 0.05415
#
# Static dielectric constant tensor:
#      x y z
#    x 3.916560 0.000000 0.000000 
#    y 0.000000 4.890590 0.000000 
#    z 0.000000 0.000000 2.993980 
# 
# 
# High freq. dielectric constant tensor:
#      x y z
#    x 1.821370 0.000000 0.000000 
#    y 0.000000 1.803140 0.000000 
#    z 0.000000 0.000000 1.719770 
# 
# From -- ./inp_files/21347.got.cif
#   From: 2010.03.12/outbox.cif.g09.slc.cpg/sg73_11_cif.got.tgz:21347.got - 2010.04.16 15:25:48.
