data_PCOD8295114
_publ_section_title
;
Structure prediction by ZEFSAII (Michael W. Deem and Ramdas Pophale) SiO2 
 PCOD8295114
Probable space group: I B A M
;
_chemical_formula_sum "Si O2"
_cell_formula_units_Z 80
_cell_length_a 5.166040
_cell_length_b 24.273320
_cell_length_c 30.176696
_cell_angle_alpha 90.000000
_cell_angle_beta 90.000000
_cell_angle_gamma 90.000000
_cell_volume 3784.065400
_symmetry_space_group_name_H-M "I B A M"
_symmetry_group_IT_number 72
_symmetry_cell_setting 'orthorhombic'
loop_
_space_group_symop_operation_xyz
x,y,z
-x,-y,z
x,-y,1/2-z
-x,y,1/2-z
-x,-y,-z
x,y,-z
-x,y,1/2+z
x,-y,1/2+z
1/2+x,1/2+y,1/2+z
1/2-x,1/2-y,1/2+z
1/2+x,1/2-y,-z
1/2-x,1/2+y,-z
1/2-x,1/2-y,1/2-z
1/2+x,1/2+y,1/2-z
1/2-x,1/2+y,z
1/2+x,1/2-y,z
loop_
_atom_site_type_symbol
_atom_site_label
_atom_site_fract_x
_atom_site_fract_y
_atom_site_fract_z
Si Si1 0.751756 0.937354 0.230390
Si Si2 0.887817 0.591991 0.000000
Si Si3 0.648440 0.600962 0.366947
Si Si4 0.391734 0.663803 0.000000
Si Si5 0.626483 0.944334 0.593904
Si Si6 0.140687 0.215515 0.096113
O O1 0.500000 0.907165 0.250000
O O2 0.760242 0.928403 0.178152
O O3 0.000000 0.906020 0.250000
O O4 0.751942 0.000000 0.250000
O O5 0.683774 0.641517 0.000000
O O6 0.829357 0.552728 0.958461
O O7 0.179146 0.615360 0.000000
O O8 0.401671 0.566102 0.383156
O O9 0.577779 0.665430 0.369429
O O10 0.904363 0.601035 0.397883
O O11 0.365906 0.699542 0.955663
O O12 0.500000 0.000000 0.612955
O O13 0.422183 0.239577 0.106628
#
# Coordination Sequence:
#
# PCOD8295114 Si02
#       6
#    16   8  16   8  16  16
#     4  10  23  41  68  99 132 163 208 273 348 418
#     4  12  21  43  58  91 142 187 230 275 331 396
#     4  12  25  44  66 101 137 173 227 285 340 416
#     4  12  22  41  65  93 134 181 243 297 328 374
#     4  12  25  39  65  94 138 191 222 270 337 410
#     4  12  24  42  67  96 134 184 232 290 342 386
#
# _framework density 21.141283000000001
#
# number of rings (size 3 to 8) (size 9 to 14) (size 15 to 20)
#    0.000    0.400    4.000    5.100    8.400    0.000 
#    0.000    3.000    0.000    3.600    0.000    0.000 
#    0.000    0.000    0.000    0.000    0.000    0.000 
#
# Total GULP energy -495681.090404 kJ/mol
# GULP energy per Si atom -12392.027260 kJ/mol
# Density = 2.109316 g / cm^3
# Si number density = 21.141283 Si / 1000 Ang^3
#
#
#
# Elastic Constant Matrix: (Units=GPa)
#
#
# Indices 1 2 3 4 5 6 
#
# 1 164.5643 11.4495 62.2498 0.0000 0.0000 0.0000
# 2 11.4495 76.4646 56.6623 0.0000 0.0000 0.0000
# 3 62.2498 56.6623 122.0201 0.0000 0.0000 0.0000
# 4 0.0000 0.0000 0.0000 19.7289 0.0000 0.0000
# 5 0.0000 0.0000 0.0000 0.0000 40.8916 0.0000
# 6 0.0000 0.0000 0.0000 0.0000 0.0000 26.5436
#
#
#
# Elastic Compliance Matrix: (Units=1/GPa)
#
#
# Indices 1 2 3 4 5 6 
#
# 1 0.007891 0.002747 -0.005301 0.000000 0.000000 0.000000
# 2 0.002747 0.020895 -0.011104 0.000000 0.000000 0.000000
# 3 -0.005301 -0.011104 0.016056 0.000000 0.000000 0.000000
# 4 0.000000 0.000000 0.000000 0.050687 0.000000 0.000000
# 5 0.000000 0.000000 0.000000 0.000000 0.024455 0.000000
# 6 0.000000 0.000000 0.000000 0.000000 0.000000 0.037674
#
#
# Mechanical properties :
#
#
# Convention : Reuss Voigt Hill
#
# Bulk Modulus (GPa) = 57.06167 69.30803 63.18485
# Shear Modulus (GPa) = 26.20309 32.94532 29.57421
#
# Velocity S-wave (km/s) = 3.52437 3.95186 3.74422
# Velocity P-wave (km/s) = 6.60385 7.32649 6.97453
#
# Compressibility (1/GPa) = 0.01752490
#
# Stress axis : x y z
#
# Youngs Moduli (GPa) = 126.73025 47.85767 62.28104
#
# Poissons Ratio (x) = -0.13145 0.33015
# Poissons Ratio (y) = -0.34809 0.69159
# Poissons Ratio (z) = 0.67180 0.53143
#
# Static dielectric constant tensor:
#      x y z
#    x 3.569350 0.000000 0.000000 
#    y 0.000000 3.720090 0.000000 
#    z 0.000000 0.000000 3.793390 
# 
# 
# High freq. dielectric constant tensor:
#      x y z
#    x 1.867510 0.000000 0.000000 
#    y 0.000000 1.800510 0.000000 
#    z 0.000000 0.000000 1.815180 
# 
# From -- ./inp_files/50278.got.cif
#   From: 2010.03.12/outbox.cif.g09.slc.cpg/sg72_26_cif.got.tgz:50278.got - 2010.04.16 14:54:00.
