data_PCOD8295695
_publ_section_title
;
Structure prediction by ZEFSAII (Michael W. Deem and Ramdas Pophale) SiO2 
 PCOD8295695
Probable space group: I B C A 
;
_chemical_formula_sum "Si O2"
_cell_formula_units_Z 112
_cell_length_a 30.839162
_cell_length_b 32.696809
_cell_length_c 5.151303
_cell_angle_alpha 90.000000
_cell_angle_beta 90.000000
_cell_angle_gamma 90.000000
_cell_volume 5194.276146
_symmetry_space_group_name_H-M "I B C A "
_symmetry_group_IT_number 73
_symmetry_cell_setting 'orthorhombic'
loop_
_space_group_symop_operation_xyz
x,y,z
-x,1/2-y,z
x,-y,1/2-z
1/2-x,y,-z
-x,-y,-z
x,1/2+y,-z
-x,y,1/2+z
1/2+x,-y,z
1/2+x,1/2+y,1/2+z
1/2-x,-y,1/2+z
1/2+x,1/2-y,-z
-x,1/2+y,1/2-z
1/2-x,1/2-y,1/2-z
1/2+x,y,1/2-z
1/2-x,1/2+y,z
x,1/2-y,1/2+z
loop_
_atom_site_type_symbol
_atom_site_label
_atom_site_fract_x
_atom_site_fract_y
_atom_site_fract_z
Si Si1 0.335314 0.234826 0.454366
Si Si2 0.126670 0.544638 0.153346
Si Si3 0.527984 0.851738 0.281071
Si Si4 0.569511 0.769748 0.146491
Si Si5 0.905815 0.581234 0.149779
Si Si6 0.827659 0.643259 0.105915
Si Si7 0.704776 0.106777 0.605757
O O1 0.309490 0.259304 0.682342
O O2 0.379699 0.258454 0.366157
O O3 0.343179 0.188132 0.527616
O O4 0.140687 0.500000 0.250000
O O5 0.091755 0.560331 0.366947
O O6 0.170715 0.570157 0.128451
O O7 0.104222 0.547201 0.870488
O O8 0.510148 0.847117 0.572099
O O9 0.563891 0.817211 0.218714
O O10 0.550020 0.896305 0.266326
O O11 0.547213 0.742046 0.373203
O O12 0.869368 0.615096 0.113644
O O13 0.793023 0.627894 0.888702
O O14 0.807382 0.641600 0.393240
O O15 0.750000 0.087937 0.500000
#
# Coordination Sequence:
#
# PCOD8295695 Si02
#       7
#    16  16  16  16  16  16  16
#     4  10  19  32  54  80 107 145 202 252 285 325
#     4  10  21  39  66  95 118 149 191 237 290 350
#     4  12  25  39  58  85 120 158 196 248 308 357
#     4  10  21  35  52  78 113 149 192 241 295 344
#     4  10  21  39  61  85 118 156 200 240 282 353
#     4  10  20  36  60  85 114 161 208 241 280 348
#     4  10  21  38  61  91 124 155 188 234 296 357
#
# _framework density 21.562194999999999
#
# number of rings (size 3 to 8) (size 9 to 14) (size 15 to 20)
#    0.000    1.714    0.000    5.143    0.000    8.571 
#    0.000    4.286    0.000   17.143    0.000    0.000 
#    0.000    0.000    0.000    0.000    0.000    0.000 
#
# Total GULP energy -693835.375734 kJ/mol
# GULP energy per Si atom -12389.917424 kJ/mol
# Density = 2.151312 g / cm^3
# Si number density = 21.562195 Si / 1000 Ang^3
#
#
#
# Elastic Constant Matrix: (Units=GPa)
#
#
# Indices 1 2 3 4 5 6 
#
# 1 44.4034 27.7618 17.3037 0.0000 0.0000 0.0000
# 2 27.7618 105.3381 48.3541 0.0000 0.0000 0.0000
# 3 17.3037 48.3541 177.9430 0.0000 0.0000 0.0000
# 4 0.0000 0.0000 0.0000 31.2429 0.0000 0.0000
# 5 0.0000 0.0000 0.0000 0.0000 21.0197 0.0000
# 6 0.0000 0.0000 0.0000 0.0000 0.0000 17.6216
#
#
#
# Elastic Compliance Matrix: (Units=1/GPa)
#
#
# Indices 1 2 3 4 5 6 
#
# 1 0.027061 -0.006768 -0.000792 0.000000 0.000000 0.000000
# 2 -0.006768 0.012539 -0.002749 0.000000 0.000000 0.000000
# 3 -0.000792 -0.002749 0.006444 0.000000 0.000000 0.000000
# 4 0.000000 0.000000 0.000000 0.032007 0.000000 0.000000
# 5 0.000000 0.000000 0.000000 0.000000 0.047574 0.000000
# 6 0.000000 0.000000 0.000000 0.000000 0.000000 0.056749
#
#
# Mechanical properties :
#
#
# Convention : Reuss Voigt Hill
#
# Bulk Modulus (GPa) = 39.33204 57.16930 48.25067
# Shear Modulus (GPa) = 23.64418 29.59450 26.61934
#
# Velocity S-wave (km/s) = 3.31502 3.70877 3.51741
# Velocity P-wave (km/s) = 5.73875 6.70158 6.23877
#
# Compressibility (1/GPa) = 0.02542456
#
# Stress axis : x y z
#
# Youngs Moduli (GPa) = 36.95332 79.75126 155.18606
#
# Poissons Ratio (x) = 0.53978 0.12295
# Poissons Ratio (y) = 0.25011 0.42663
# Poissons Ratio (z) = 0.02928 0.21925
#
# Static dielectric constant tensor:
#      x y z
#    x 3.533700 0.000000 0.000000 
#    y 0.000000 3.708960 0.000000 
#    z 0.000000 0.000000 5.045200 
# 
# 
# High freq. dielectric constant tensor:
#      x y z
#    x 1.808040 0.000000 0.000000 
#    y 0.000000 1.828500 0.000000 
#    z 0.000000 0.000000 1.886720 
# 
# From -- ./inp_files/3265.got.cif
#   From: 2010.03.12/outbox.cif.g09.slc.cpg/sg73_2_cif.got.tgz:3265.got - 2010.04.16 15:25:48.
