data_PCOD8295944
_publ_section_title
;
Structure prediction by ZEFSAII (Michael W. Deem and Ramdas Pophale) SiO2 
 PCOD8295944
Probable space group: I B C A 
;
_chemical_formula_sum "Si O2"
_cell_formula_units_Z 120
_cell_length_a 26.118468
_cell_length_b 8.687593
_cell_length_c 29.657066
_cell_angle_alpha 90.000000
_cell_angle_beta 90.000000
_cell_angle_gamma 90.000000
_cell_volume 6729.384598
_symmetry_space_group_name_H-M "I B C A "
_symmetry_group_IT_number 73
_symmetry_cell_setting 'orthorhombic'
loop_
_space_group_symop_operation_xyz
x,y,z
-x,1/2-y,z
x,-y,1/2-z
1/2-x,y,-z
-x,-y,-z
x,1/2+y,-z
-x,y,1/2+z
1/2+x,-y,z
1/2+x,1/2+y,1/2+z
1/2-x,-y,1/2+z
1/2+x,1/2-y,-z
-x,1/2+y,1/2-z
1/2-x,1/2-y,1/2-z
1/2+x,y,1/2-z
1/2-x,1/2+y,z
x,1/2-y,1/2+z
loop_
_atom_site_type_symbol
_atom_site_label
_atom_site_fract_x
_atom_site_fract_y
_atom_site_fract_z
Si Si1 0.855080 0.145859 0.384011
Si Si2 0.790678 0.754561 0.188741
Si Si3 0.049612 0.669685 0.063955
Si Si4 0.276889 0.865788 0.106597
Si Si5 0.051089 0.340578 0.023857
Si Si6 0.344669 0.707953 0.043658
Si Si7 0.816178 0.374239 0.456696
Si Si8 0.740462 0.500000 0.750000
O O1 0.846073 0.224489 0.335167
O O2 0.914473 0.110449 0.394507
O O3 0.846665 0.263846 0.424018
O O4 0.813947 0.009588 0.384618
O O5 0.749393 0.699490 0.151543
O O6 0.796494 0.623207 0.226239
O O7 0.774919 0.914273 0.212605
O O8 0.039141 0.520730 0.032378
O O9 0.000000 0.750000 0.086752
O O10 0.068169 0.800764 0.027964
O O11 0.312372 0.726803 0.089531
O O12 0.237711 0.916071 0.067035
O O13 0.100020 0.284704 0.052752
O O14 0.000000 0.250000 0.038104
O O15 0.349291 0.527507 0.033524
O O16 0.311134 0.789789 0.004532
#
# Coordination Sequence:
#
# PCOD8295944 Si02
#       8
#    16  16  16  16  16  16  16   8
#     4  11  21  37  55  80 110 143 185 230 276 317
#     4  10  21  37  59  84 116 144 177 214 269 340
#     4  11  22  37  55  74 104 147 193 245 280 313
#     4  11  22  37  50  79 114 148 183 228 265 324
#     4  11  22  36  53  72 102 146 205 241 274 307
#     4  12  22  35  51  73 107 154 194 231 274 313
#     4  11  23  33  50  71 108 153 193 224 265 324
#     4  10  20  38  60  84 112 148 172 208 270 350
#
# _framework density 17.832239999999999
#
# number of rings (size 3 to 8) (size 9 to 14) (size 15 to 20)
#    0.000    1.067    4.000    5.200    3.733    1.067 
#    0.000    0.000    0.000    0.000    0.000    0.933 
#    0.000    0.000    0.000    0.000    0.000    0.000 
#
# Total GULP energy -743369.210340 kJ/mol
# GULP energy per Si atom -12389.486839 kJ/mol
# Density = 1.779165 g / cm^3
# Si number density = 17.832240 Si / 1000 Ang^3
#
#
#
# Elastic Constant Matrix: (Units=GPa)
#
#
# Indices 1 2 3 4 5 6 
#
# 1 84.7678 23.8406 38.3220 0.0000 0.0000 0.0000
# 2 23.8406 105.1808 33.5871 0.0000 0.0000 0.0000
# 3 38.3220 33.5871 77.6367 0.0000 0.0000 0.0000
# 4 0.0000 0.0000 0.0000 27.7638 0.0000 0.0000
# 5 0.0000 0.0000 0.0000 0.0000 4.8700 0.0000
# 6 0.0000 0.0000 0.0000 0.0000 0.0000 22.7477
#
#
#
# Elastic Compliance Matrix: (Units=1/GPa)
#
#
# Indices 1 2 3 4 5 6 
#
# 1 0.015321 -0.001227 -0.007032 0.000000 0.000000 0.000000
# 2 -0.001227 0.011130 -0.004209 0.000000 0.000000 0.000000
# 3 -0.007032 -0.004209 0.018172 0.000000 0.000000 0.000000
# 4 0.000000 0.000000 0.000000 0.036018 0.000000 0.000000
# 5 0.000000 0.000000 0.000000 0.000000 0.205338 0.000000
# 6 0.000000 0.000000 0.000000 0.000000 0.000000 0.043960
#
#
# Mechanical properties :
#
#
# Convention : Reuss Voigt Hill
#
# Bulk Modulus (GPa) = 50.79507 51.00941 50.90224
# Shear Modulus (GPa) = 13.83366 22.53201 18.18283
#
# Velocity S-wave (km/s) = 2.78828 3.55851 3.19668
# Velocity P-wave (km/s) = 6.23801 6.74917 6.49862
#
# Compressibility (1/GPa) = 0.01968695
#
# Stress axis : x y z
#
# Youngs Moduli (GPa) = 65.27015 89.84961 55.02889
#
# Poissons Ratio (x) = 0.11028 0.38694
# Poissons Ratio (y) = 0.08011 0.23162
# Poissons Ratio (z) = 0.45895 0.37819
#
# Static dielectric constant tensor:
#      x y z
#    x 3.416110 0.000000 0.000000 
#    y 0.000000 3.506040 0.000000 
#    z 0.000000 0.000000 3.224480 
# 
# 
# High freq. dielectric constant tensor:
#      x y z
#    x 1.676410 0.000000 0.000000 
#    y 0.000000 1.712100 0.000000 
#    z 0.000000 0.000000 1.656540 
# 
# From -- ./inp_files/34875.got.cif
#   From: 2010.03.12/outbox.cif.g09.slc.cpg/sg73_18_cif.got.tgz:34875.got - 2010.04.16 15:25:48.
