data_PCOD8295136
_publ_section_title
;
Structure prediction by ZEFSAII (Michael W. Deem and Ramdas Pophale) SiO2 
 PCOD8295136
Probable space group: I B A M
;
_chemical_formula_sum "Si O2"
_cell_formula_units_Z 112
_cell_length_a 30.736527
_cell_length_b 11.669790
_cell_length_c 14.789684
_cell_angle_alpha 90.000000
_cell_angle_beta 90.000000
_cell_angle_gamma 90.000000
_cell_volume 5304.894234
_symmetry_space_group_name_H-M "I B A M"
_symmetry_group_IT_number 72
_symmetry_cell_setting 'orthorhombic'
loop_
_space_group_symop_operation_xyz
x,y,z
-x,-y,z
x,-y,1/2-z
-x,y,1/2-z
-x,-y,-z
x,y,-z
-x,y,1/2+z
x,-y,1/2+z
1/2+x,1/2+y,1/2+z
1/2-x,1/2-y,1/2+z
1/2+x,1/2-y,-z
1/2-x,1/2+y,-z
1/2-x,1/2-y,1/2-z
1/2+x,1/2+y,1/2-z
1/2-x,1/2+y,z
1/2+x,1/2-y,z
loop_
_atom_site_type_symbol
_atom_site_label
_atom_site_fract_x
_atom_site_fract_y
_atom_site_fract_z
Si Si1 0.413570 0.709379 0.899189
Si Si2 0.150738 0.022108 0.849653
Si Si3 0.892246 0.374570 0.751846
Si Si4 0.223344 0.801021 0.395272
Si Si5 0.706402 0.125098 0.258678
Si Si6 0.504011 0.632679 0.849675
Si Si7 0.403470 0.694904 0.597972
O O1 0.391697 0.602592 0.847161
O O2 0.399882 0.824504 0.847826
O O3 0.465136 0.690469 0.906561
O O4 0.393873 0.718049 0.000000
O O5 0.190805 0.088423 0.898385
O O6 0.168320 0.000000 0.750000
O O7 0.135355 0.899159 0.888905
O O8 0.914675 0.500000 0.750000
O O9 0.843171 0.388906 0.786192
O O10 0.911240 0.289974 0.826215
O O11 0.231896 0.765037 0.500000
O O12 0.269129 0.819353 0.344003
O O13 0.204414 0.696041 0.335881
O O14 0.728312 0.000000 0.250000
O O15 0.500000 0.500000 0.836625
O O16 0.500000 0.690731 0.750000
O O17 0.548976 0.640152 0.903611
O O18 0.394246 0.750868 0.500000
#
# Coordination Sequence:
#
# PCOD8295136 Si02
#       7
#    16  16  16  16  16  16  16
#     4  12  23  39  65  97 129 170 219 267 323 393
#     4  12  21  39  64  97 137 168 205 259 331 398
#     4  11  25  46  66  87 123 175 227 273 323 382
#     4  11  23  40  65  99 131 167 217 273 331 398
#     4  10  23  43  64  89 127 174 218 272 328 390
#     4  11  21  37  62  97 136 171 208 259 329 403
#     4  12  24  40  65 100 134 168 210 268 332 394
#
# _framework density 21.112580000000001
#
# number of rings (size 3 to 8) (size 9 to 14) (size 15 to 20)
#    0.000    0.714    5.714    2.143    0.000    3.429 
#    0.000    4.286    0.000    1.714    0.000    0.000 
#    0.000    0.000    0.000    0.000    0.000    0.000 
#
# Total GULP energy -693794.606194 kJ/mol
# GULP energy per Si atom -12389.189396 kJ/mol
# Density = 2.106453 g / cm^3
# Si number density = 21.112580 Si / 1000 Ang^3
#
#
#
# Elastic Constant Matrix: (Units=GPa)
#
#
# Indices 1 2 3 4 5 6 
#
# 1 74.9492 10.5486 15.8902 0.0000 0.0000 0.0000
# 2 10.5486 111.9008 39.4950 0.0000 0.0000 0.0000
# 3 15.8902 39.4950 141.6945 0.0000 0.0000 0.0000
# 4 0.0000 0.0000 0.0000 -3.0376 0.0000 0.0000
# 5 0.0000 0.0000 0.0000 0.0000 0.6382 0.0000
# 6 0.0000 0.0000 0.0000 0.0000 0.0000 20.5656
#
#
#
# Elastic Compliance Matrix: (Units=1/GPa)
#
#
# Indices 1 2 3 4 5 6 
#
# 1 0.013737 -0.000833 -0.001308 0.000000 0.000000 0.000000
# 2 -0.000833 0.009962 -0.002683 0.000000 0.000000 0.000000
# 3 -0.001308 -0.002683 0.007952 0.000000 0.000000 0.000000
# 4 0.000000 0.000000 0.000000 -0.329210 0.000000 0.000000
# 5 0.000000 0.000000 0.000000 0.000000 1.567026 0.000000
# 6 0.000000 0.000000 0.000000 0.000000 0.000000 0.048625
#
#
# Mechanical properties :
#
#
# Convention : Reuss Voigt Hill
#
# Bulk Modulus (GPa) = 45.45129 51.15689 48.30409
# Shear Modulus (GPa) = 3.74511 21.14062 12.44286
#
# Velocity S-wave (km/s) = 1.33331 3.16781 2.43030
# Velocity P-wave (km/s) = 4.89337 6.13703 5.55015
#
# Compressibility (1/GPa) = 0.02200158
#
# Stress axis : x y z
#
# Youngs Moduli (GPa) = 72.79599 100.38041 125.75312
#
# Poissons Ratio (x) = 0.08364 0.16452
# Poissons Ratio (y) = 0.06065 0.33744
# Poissons Ratio (z) = 0.09524 0.26935
#
# Static dielectric constant tensor:
#      x y z
#    x 3.882970 0.000000 0.000000 
#    y 0.000000 4.007340 0.000000 
#    z 0.000000 0.000000 3.736700 
# 
# 
# High freq. dielectric constant tensor:
#      x y z
#    x 1.828750 0.000000 0.000000 
#    y 0.000000 1.808660 0.000000 
#    z 0.000000 0.000000 1.831250 
# 
# From -- ./inp_files/26370.got.cif
#   From: 2010.03.12/outbox.cif.g09.slc.cpg/sg72_14_cif.got.tgz:26370.got - 2010.04.16 14:54:00.
