data_PCOD8295586
_publ_section_title
;
Structure prediction by ZEFSAII (Michael W. Deem and Ramdas Pophale) SiO2 
 PCOD8295586
Probable space group: I B C A 
;
_chemical_formula_sum "Si O2"
_cell_formula_units_Z 120
_cell_length_a 18.926086
_cell_length_b 17.514484
_cell_length_c 19.587894
_cell_angle_alpha 90.000000
_cell_angle_beta 90.000000
_cell_angle_gamma 90.000000
_cell_volume 6493.007452
_symmetry_space_group_name_H-M "I B C A "
_symmetry_group_IT_number 73
_symmetry_cell_setting 'orthorhombic'
loop_
_space_group_symop_operation_xyz
x,y,z
-x,1/2-y,z
x,-y,1/2-z
1/2-x,y,-z
-x,-y,-z
x,1/2+y,-z
-x,y,1/2+z
1/2+x,-y,z
1/2+x,1/2+y,1/2+z
1/2-x,-y,1/2+z
1/2+x,1/2-y,-z
-x,1/2+y,1/2-z
1/2-x,1/2-y,1/2-z
1/2+x,y,1/2-z
1/2-x,1/2+y,z
x,1/2-y,1/2+z
loop_
_atom_site_type_symbol
_atom_site_label
_atom_site_fract_x
_atom_site_fract_y
_atom_site_fract_z
Si Si1 0.023057 0.484786 0.075890
Si Si2 0.640338 0.674760 0.822625
Si Si3 0.000000 0.750000 0.630976
Si Si4 0.404020 0.629216 0.944462
Si Si5 0.394356 0.493832 0.173932
Si Si6 0.972378 0.331329 0.079544
Si Si7 0.228669 0.775603 0.576131
Si Si8 0.152205 0.343129 0.669285
O O1 0.088300 0.543352 0.087776
O O2 0.959860 0.507151 0.124471
O O3 0.037324 0.393314 0.086947
O O4 0.000000 0.500000 0.000000
O O5 0.560678 0.708534 0.824523
O O6 0.646044 0.585103 0.838153
O O7 0.690471 0.710046 0.880433
O O8 0.668158 0.688352 0.745348
O O9 0.963354 0.685182 0.585751
O O10 0.324308 0.652968 0.928928
O O11 0.416858 0.632175 0.025761
O O12 0.425799 0.500000 0.250000
O O13 0.340306 0.564751 0.163120
O O14 0.929207 0.322055 0.150070
O O15 0.000000 0.250000 0.054287
O O16 0.250000 0.746322 0.500000
O O17 0.297320 0.801713 0.616226
#
# Coordination Sequence:
#
# PCOD8295586 Si02
#       8
#    16  16   8  16  16  16  16  16
#     4   9  18  31  52  82 110 137 182 229 288 329
#     4  10  21  36  61  83 109 147 193 237 280 344
#     4  10  18  30  56  86 106 130 186 238 284 316
#     4  10  18  33  55  78 112 145 182 240 273 337
#     4   9  18  36  59  80 109 147 186 229 282 349
#     4  10  19  32  55  83 115 143 181 237 291 329
#     4  11  22  37  55  80 116 155 193 230 284 334
#     4  10  21  38  56  81 116 153 187 226 286 351
#
# _framework density 18.48142
#
# number of rings (size 3 to 8) (size 9 to 14) (size 15 to 20)
#    0.000    2.133    3.333    0.400    0.933    0.000 
#    0.000    2.000    0.000    2.400    0.000    0.000 
#    0.000    0.000    0.000    0.000    0.000    0.000 
#
# Total GULP energy -743372.930681 kJ/mol
# GULP energy per Si atom -12389.548845 kJ/mol
# Density = 1.843936 g / cm^3
# Si number density = 18.481420 Si / 1000 Ang^3
#
#
#
# Elastic Constant Matrix: (Units=GPa)
#
#
# Indices 1 2 3 4 5 6 
#
# 1 60.2789 39.1890 35.9685 0.0000 0.0000 0.0000
# 2 39.1890 121.5197 42.3076 0.0000 0.0000 0.0000
# 3 35.9685 42.3076 120.1217 0.0000 0.0000 0.0000
# 4 0.0000 0.0000 0.0000 23.9632 0.0000 0.0000
# 5 0.0000 0.0000 0.0000 0.0000 26.9033 0.0000
# 6 0.0000 0.0000 0.0000 0.0000 0.0000 19.8938
#
#
#
# Elastic Compliance Matrix: (Units=1/GPa)
#
#
# Indices 1 2 3 4 5 6 
#
# 1 0.023304 -0.005797 -0.004936 0.000000 0.000000 0.000000
# 2 -0.005797 0.010821 -0.002076 0.000000 0.000000 0.000000
# 3 -0.004936 -0.002076 0.010534 0.000000 0.000000 0.000000
# 4 0.000000 0.000000 0.000000 0.041731 0.000000 0.000000
# 5 0.000000 0.000000 0.000000 0.000000 0.037170 0.000000
# 6 0.000000 0.000000 0.000000 0.000000 0.000000 0.050267
#
#
# Mechanical properties :
#
#
# Convention : Reuss Voigt Hill
#
# Bulk Modulus (GPa) = 52.51606 59.65004 56.08305
# Shear Modulus (GPa) = 24.29655 26.44908 25.37282
#
# Velocity S-wave (km/s) = 3.62974 3.78712 3.70926
# Velocity P-wave (km/s) = 6.78557 7.17417 6.98257
#
# Compressibility (1/GPa) = 0.01904179
#
# Stress axis : x y z
#
# Youngs Moduli (GPa) = 42.91185 92.41216 94.93072
#
# Poissons Ratio (x) = 0.53568 0.46860
# Poissons Ratio (y) = 0.24874 0.19703
# Poissons Ratio (z) = 0.21182 0.19181
#
# Static dielectric constant tensor:
#      x y z
#    x 3.123070 0.000000 0.000000 
#    y 0.000000 3.850220 0.000000 
#    z 0.000000 0.000000 3.518680 
# 
# 
# High freq. dielectric constant tensor:
#      x y z
#    x 1.678900 0.000000 0.000000 
#    y 0.000000 1.726880 0.000000 
#    z 0.000000 0.000000 1.728350 
# 
# From -- ./inp_files/23340.got.cif
#   From: 2010.03.12/outbox.cif.g09.slc.cpg/sg73_12_cif.got.tgz:23340.got - 2010.04.16 15:25:48.
