data_PCOD8295819
_publ_section_title
;
Structure prediction by ZEFSAII (Michael W. Deem and Ramdas Pophale) SiO2 
 PCOD8295819
Probable space group: I B C A 
;
_chemical_formula_sum "Si O2"
_cell_formula_units_Z 88
_cell_length_a 22.312869
_cell_length_b 9.653628
_cell_length_c 20.902306
_cell_angle_alpha 90.000000
_cell_angle_beta 90.000000
_cell_angle_gamma 90.000000
_cell_volume 4502.359575
_symmetry_space_group_name_H-M "I B C A "
_symmetry_group_IT_number 73
_symmetry_cell_setting 'orthorhombic'
loop_
_space_group_symop_operation_xyz
x,y,z
-x,1/2-y,z
x,-y,1/2-z
1/2-x,y,-z
-x,-y,-z
x,1/2+y,-z
-x,y,1/2+z
1/2+x,-y,z
1/2+x,1/2+y,1/2+z
1/2-x,-y,1/2+z
1/2+x,1/2-y,-z
-x,1/2+y,1/2-z
1/2-x,1/2-y,1/2-z
1/2+x,y,1/2-z
1/2-x,1/2+y,z
x,1/2-y,1/2+z
loop_
_atom_site_type_symbol
_atom_site_label
_atom_site_fract_x
_atom_site_fract_y
_atom_site_fract_z
Si Si1 0.311259 0.167175 0.752775
Si Si2 0.097125 0.700658 0.346498
Si Si3 0.064955 0.056041 0.068201
Si Si4 0.000000 0.750000 0.749123
Si Si5 0.070491 0.546397 0.075785
Si Si6 0.907815 0.180665 0.847162
O O1 0.250000 0.250000 0.750000
O O2 0.345721 0.220691 0.816442
O O3 0.347386 0.216785 0.690462
O O4 0.303066 0.000000 0.750000
O O5 0.046981 0.665232 0.292708
O O6 0.112624 0.555534 0.381617
O O7 0.068434 0.791905 0.402669
O O8 0.105329 0.954054 0.110820
O O9 0.093065 0.057441 0.997154
O O10 0.997123 0.005837 0.072465
O O11 0.961025 0.853104 0.704170
O O12 0.072189 0.696143 0.107035
#
# Coordination Sequence:
#
# PCOD8295819 Si02
#       6
#    16  16  16   8  16  16
#     4  11  26  44  66  88 116 157 202 260 314 360
#     4  11  22  37  60  88 125 158 199 253 299 363
#     4  11  20  38  56  91 133 165 199 239 292 359
#     4  10  20  32  56  86 124 154 196 232 314 350
#     4  11  22  34  60  93 127 167 201 235 292 369
#     4  11  22  37  60  88 125 158 199 253 299 363
#
# _framework density 19.545307999999999
#
# number of rings (size 3 to 8) (size 9 to 14) (size 15 to 20)
#    0.000    1.091    5.455    1.091    2.545    6.545 
#    0.000    0.000    0.000    6.545    0.000    0.000 
#    0.000    0.000    0.000    0.000    0.000    0.000 
#
# Total GULP energy -545434.728225 kJ/mol
# GULP energy per Si atom -12396.243823 kJ/mol
# Density = 1.950082 g / cm^3
# Si number density = 19.545308 Si / 1000 Ang^3
#
#
#
# Elastic Constant Matrix: (Units=GPa)
#
#
# Indices 1 2 3 4 5 6 
#
# 1 89.3364 18.5139 39.9020 0.0000 0.0000 0.0000
# 2 18.5139 87.6888 45.6883 0.0000 0.0000 0.0000
# 3 39.9020 45.6883 144.5130 0.0000 0.0000 0.0000
# 4 0.0000 0.0000 0.0000 24.4132 0.0000 0.0000
# 5 0.0000 0.0000 0.0000 0.0000 14.4741 0.0000
# 6 0.0000 0.0000 0.0000 0.0000 0.0000 28.2955
#
#
#
# Elastic Compliance Matrix: (Units=1/GPa)
#
#
# Indices 1 2 3 4 5 6 
#
# 1 0.012846 -0.001035 -0.003220 0.000000 0.000000 0.000000
# 2 -0.001035 0.013736 -0.004057 0.000000 0.000000 0.000000
# 3 -0.003220 -0.004057 0.009092 0.000000 0.000000 0.000000
# 4 0.000000 0.000000 0.000000 0.040961 0.000000 0.000000
# 5 0.000000 0.000000 0.000000 0.000000 0.069089 0.000000
# 6 0.000000 0.000000 0.000000 0.000000 0.000000 0.035341
#
#
# Mechanical properties :
#
#
# Convention : Reuss Voigt Hill
#
# Bulk Modulus (GPa) = 52.49125 58.86073 55.67599
# Shear Modulus (GPa) = 24.50508 27.93216 26.21862
#
# Velocity S-wave (km/s) = 3.54469 3.78444 3.66652
# Velocity P-wave (km/s) = 6.60814 7.01972 6.81704
#
# Compressibility (1/GPa) = 0.01905080
#
# Stress axis : x y z
#
# Youngs Moduli (GPa) = 77.84388 72.79995 109.99247
#
# Poissons Ratio (x) = 0.07532 0.35417
# Poissons Ratio (y) = 0.08053 0.44625
# Poissons Ratio (z) = 0.25065 0.29536
#
# Static dielectric constant tensor:
#      x y z
#    x 3.190580 0.000000 0.000000 
#    y 0.000000 3.731370 0.000000 
#    z 0.000000 0.000000 4.042250 
# 
# 
# High freq. dielectric constant tensor:
#      x y z
#    x 1.711200 0.000000 0.000000 
#    y 0.000000 1.766490 0.000000 
#    z 0.000000 0.000000 1.781460 
# 
# From -- ./inp_files/6263.got.cif
#   From: 2010.03.12/outbox.cif.g09.slc.cpg/sg73_4_cif.got.tgz:6263.got - 2010.04.16 15:25:48.
