data_PCOD8295677
_publ_section_title
;
Structure prediction by ZEFSAII (Michael W. Deem and Ramdas Pophale) SiO2 
 PCOD8295677
Probable space group: I B C A 
;
_chemical_formula_sum "Si O2"
_cell_formula_units_Z 80
_cell_length_a 13.231765
_cell_length_b 13.291589
_cell_length_c 19.463641
_cell_angle_alpha 90.000000
_cell_angle_beta 90.000000
_cell_angle_gamma 90.000000
_cell_volume 3423.093551
_symmetry_space_group_name_H-M "I B C A "
_symmetry_group_IT_number 73
_symmetry_cell_setting 'orthorhombic'
loop_
_space_group_symop_operation_xyz
x,y,z
-x,1/2-y,z
x,-y,1/2-z
1/2-x,y,-z
-x,-y,-z
x,1/2+y,-z
-x,y,1/2+z
1/2+x,-y,z
1/2+x,1/2+y,1/2+z
1/2-x,-y,1/2+z
1/2+x,1/2-y,-z
-x,1/2+y,1/2-z
1/2-x,1/2-y,1/2-z
1/2+x,y,1/2-z
1/2-x,1/2+y,z
x,1/2-y,1/2+z
loop_
_atom_site_type_symbol
_atom_site_label
_atom_site_fract_x
_atom_site_fract_y
_atom_site_fract_z
Si Si1 0.000000 0.250000 0.561445
Si Si2 0.351239 0.859852 0.467866
Si Si3 0.662762 0.815767 0.377774
Si Si4 0.956664 0.613736 0.240683
Si Si5 0.250000 0.946205 0.000000
Si Si6 0.130039 0.705366 0.315793
O O1 0.948311 0.163922 0.514967
O O2 0.917067 0.307480 0.607859
O O3 0.250000 0.809969 0.500000
O O4 0.362329 0.800451 0.395915
O O5 0.331717 0.980460 0.460617
O O6 0.564185 0.858716 0.339032
O O7 0.686995 0.880398 0.445752
O O8 0.752377 0.820424 0.321182
O O9 0.924939 0.500000 0.250000
O O10 0.887913 0.679702 0.292333
O O11 0.074432 0.633014 0.260270
#
# Coordination Sequence:
#
# PCOD8295677 Si02
#       6
#     8  16  16  16   8  16
#     4  10  18  40  70  88 136 170 214 262 340 382
#     4  10  22  40  66 100 131 173 213 275 330 393
#     4  12  22  45  69  96 141 171 222 277 340 391
#     4  10  25  41  68  95 128 178 229 266 335 402
#     4  10  22  40  70 102 130 178 216 270 342 402
#     4  10  23  45  64  97 136 174 214 290 327 385
#
# _framework density 23.370671999999999
#
# number of rings (size 3 to 8) (size 9 to 14) (size 15 to 20)
#    0.600    1.200    3.000    0.600    8.400    2.400 
#   10.800    2.000    0.000    0.000    0.000    0.000 
#    0.000    0.000    0.000    0.000    0.000    0.000 
#
# Total GULP energy -495700.372245 kJ/mol
# GULP energy per Si atom -12392.509306 kJ/mol
# Density = 2.331748 g / cm^3
# Si number density = 23.370672 Si / 1000 Ang^3
#
#
#
# Elastic Constant Matrix: (Units=GPa)
#
#
# Indices 1 2 3 4 5 6 
#
# 1 65.6932 20.2592 35.8797 0.0000 0.0000 0.0000
# 2 20.2592 117.1313 38.3275 0.0000 0.0000 0.0000
# 3 35.8797 38.3275 115.4504 0.0000 0.0000 0.0000
# 4 0.0000 0.0000 0.0000 34.5207 0.0000 0.0000
# 5 0.0000 0.0000 0.0000 0.0000 33.8676 0.0000
# 6 0.0000 0.0000 0.0000 0.0000 0.0000 10.0484
#
#
#
# Elastic Compliance Matrix: (Units=1/GPa)
#
#
# Indices 1 2 3 4 5 6 
#
# 1 0.018561 -0.001484 -0.005276 0.000000 0.000000 0.000000
# 2 -0.001484 0.009697 -0.002758 0.000000 0.000000 0.000000
# 3 -0.005276 -0.002758 0.011217 0.000000 0.000000 0.000000
# 4 0.000000 0.000000 0.000000 0.028968 0.000000 0.000000
# 5 0.000000 0.000000 0.000000 0.000000 0.029527 0.000000
# 6 0.000000 0.000000 0.000000 0.000000 0.000000 0.099518
#
#
# Mechanical properties :
#
#
# Convention : Reuss Voigt Hill
#
# Bulk Modulus (GPa) = 48.92519 54.13418 51.52969
# Shear Modulus (GPa) = 22.38771 29.27457 25.83114
#
# Velocity S-wave (km/s) = 3.09842 3.54308 3.32818
# Velocity P-wave (km/s) = 5.81207 6.32071 6.07172
#
# Compressibility (1/GPa) = 0.02043937
#
# Stress axis : x y z
#
# Youngs Moduli (GPa) = 53.87503 103.12960 89.15096
#
# Poissons Ratio (x) = 0.15305 0.47035
# Poissons Ratio (y) = 0.07995 0.24587
# Poissons Ratio (z) = 0.28424 0.28442
#
# Static dielectric constant tensor:
#      x y z
#    x 4.172470 0.000000 0.000000 
#    y 0.000000 3.924110 0.000000 
#    z 0.000000 0.000000 4.155970 
# 
# 
# High freq. dielectric constant tensor:
#      x y z
#    x 1.921930 0.000000 0.000000 
#    y 0.000000 1.905620 0.000000 
#    z 0.000000 0.000000 1.922960 
# 
# From -- ./inp_files/25909.got.cif
#   From: 2010.03.12/outbox.cif.g09.slc.cpg/sg73_13_cif.got.tgz:25909.got - 2010.04.16 15:25:48.
