data_PCOD8295658
_publ_section_title
;
Structure prediction by ZEFSAII (Michael W. Deem and Ramdas Pophale) SiO2 
 PCOD8295658
Probable space group: I B C A 
;
_chemical_formula_sum "Si O2"
_cell_formula_units_Z 88
_cell_length_a 14.106686
_cell_length_b 13.811004
_cell_length_c 21.225772
_cell_angle_alpha 90.000000
_cell_angle_beta 90.000000
_cell_angle_gamma 90.000000
_cell_volume 4135.364026
_symmetry_space_group_name_H-M "I B C A "
_symmetry_group_IT_number 73
_symmetry_cell_setting 'orthorhombic'
loop_
_space_group_symop_operation_xyz
x,y,z
-x,1/2-y,z
x,-y,1/2-z
1/2-x,y,-z
-x,-y,-z
x,1/2+y,-z
-x,y,1/2+z
1/2+x,-y,z
1/2+x,1/2+y,1/2+z
1/2-x,-y,1/2+z
1/2+x,1/2-y,-z
-x,1/2+y,1/2-z
1/2-x,1/2-y,1/2-z
1/2+x,y,1/2-z
1/2-x,1/2+y,z
x,1/2-y,1/2+z
loop_
_atom_site_type_symbol
_atom_site_label
_atom_site_fract_x
_atom_site_fract_y
_atom_site_fract_z
Si Si1 0.097569 0.790365 0.459244
Si Si2 0.500000 0.250000 0.234147
Si Si3 0.750000 0.943057 0.000000
Si Si4 0.811087 0.391297 0.590482
Si Si5 0.503625 0.103767 0.343579
Si Si6 0.692250 0.684407 0.796371
Si Si7 0.887078 0.500000 0.250000
O O1 0.154854 0.876793 0.494296
O O2 0.164957 0.696091 0.457363
O O3 0.000000 0.750000 0.492463
O O4 0.069441 0.830532 0.389561
O O5 0.479215 0.159399 0.279232
O O6 0.409902 0.267405 0.189116
O O7 0.762596 0.014583 0.059498
O O8 0.907826 0.428618 0.622221
O O9 0.740482 0.340098 0.638355
O O10 0.554855 0.007497 0.316630
O O11 0.750000 0.750000 0.750000
O O12 0.681177 0.590556 0.753631
#
# Coordination Sequence:
#
# PCOD8295658 Si02
#       7
#    16   8   8  16  16  16   8
#     4  10  22  44  68  88 132 180 220 284 345 395
#     4  10  18  38  64  94 132 174 208 266 342 406
#     4  12  26  42  68 100 126 178 242 280 342 390
#     4  11  22  41  68  93 135 173 228 281 329 404
#     4  10  18  39  62  93 132 177 215 270 342 403
#     4  11  21  39  66  99 134 176 217 271 338 409
#     4  10  22  34  60  98 138 164 214 270 340 404
#
# _framework density 21.279868
#
# number of rings (size 3 to 8) (size 9 to 14) (size 15 to 20)
#    0.000    1.455    4.545    2.727    0.000    3.636 
#    6.545    1.818    6.000    0.000    0.000    0.000 
#    0.000    0.000    0.000    0.000    0.000    0.000 
#
# Total GULP energy -545135.819426 kJ/mol
# GULP energy per Si atom -12389.450441 kJ/mol
# Density = 2.123143 g / cm^3
# Si number density = 21.279868 Si / 1000 Ang^3
#
#
#
# Elastic Constant Matrix: (Units=GPa)
#
#
# Indices 1 2 3 4 5 6 
#
# 1 133.7367 73.8421 42.7740 0.0000 0.0000 0.0000
# 2 73.8421 128.1827 37.0733 0.0000 0.0000 0.0000
# 3 42.7740 37.0733 58.3829 0.0000 0.0000 0.0000
# 4 0.0000 0.0000 0.0000 33.4198 0.0000 0.0000
# 5 0.0000 0.0000 0.0000 0.0000 22.3470 0.0000
# 6 0.0000 0.0000 0.0000 0.0000 0.0000 32.8829
#
#
#
# Elastic Compliance Matrix: (Units=1/GPa)
#
#
# Indices 1 2 3 4 5 6 
#
# 1 0.012259 -0.005469 -0.005509 0.000000 0.000000 0.000000
# 2 -0.005469 0.011996 -0.003611 0.000000 0.000000 0.000000
# 3 -0.005509 -0.003611 0.023457 0.000000 0.000000 0.000000
# 4 0.000000 0.000000 0.000000 0.029922 0.000000 0.000000
# 5 0.000000 0.000000 0.000000 0.000000 0.044749 0.000000
# 6 0.000000 0.000000 0.000000 0.000000 0.000000 0.030411
#
#
# Mechanical properties :
#
#
# Convention : Reuss Voigt Hill
#
# Bulk Modulus (GPa) = 53.95089 69.74236 61.84663
# Shear Modulus (GPa) = 26.57467 28.83747 27.70607
#
# Velocity S-wave (km/s) = 3.53769 3.68523 3.61222
# Velocity P-wave (km/s) = 6.48807 7.13813 6.82085
#
# Compressibility (1/GPa) = 0.01853538
#
# Stress axis : x y z
#
# Youngs Moduli (GPa) = 81.57434 83.36079 42.63085
#
# Poissons Ratio (x) = 0.45587 0.23484
# Poissons Ratio (y) = 0.44610 0.15394
# Poissons Ratio (z) = 0.44937 0.30101
#
# Static dielectric constant tensor:
#      x y z
#    x 4.291390 0.000000 0.000000 
#    y 0.000000 4.257070 0.000000 
#    z 0.000000 0.000000 3.571560 
# 
# 
# High freq. dielectric constant tensor:
#      x y z
#    x 1.845280 0.000000 0.000000 
#    y 0.000000 1.845330 0.000000 
#    z 0.000000 0.000000 1.802020 
# 
# From -- ./inp_files/29485.got.cif
#   From: 2010.03.12/outbox.cif.g09.slc.cpg/sg73_15_cif.got.tgz:29485.got - 2010.04.16 15:25:48.
