data_PCOD8295644
_publ_section_title
;
Structure prediction by ZEFSAII (Michael W. Deem and Ramdas Pophale) SiO2 
 PCOD8295644
Probable space group: I B C A 
;
_chemical_formula_sum "Si O2"
_cell_formula_units_Z 96
_cell_length_a 24.286238
_cell_length_b 9.022030
_cell_length_c 20.783357
_cell_angle_alpha 90.000000
_cell_angle_beta 90.000000
_cell_angle_gamma 90.000000
_cell_volume 4553.865624
_symmetry_space_group_name_H-M "I B C A "
_symmetry_group_IT_number 73
_symmetry_cell_setting 'orthorhombic'
loop_
_space_group_symop_operation_xyz
x,y,z
-x,1/2-y,z
x,-y,1/2-z
1/2-x,y,-z
-x,-y,-z
x,1/2+y,-z
-x,y,1/2+z
1/2+x,-y,z
1/2+x,1/2+y,1/2+z
1/2-x,-y,1/2+z
1/2+x,1/2-y,-z
-x,1/2+y,1/2-z
1/2-x,1/2-y,1/2-z
1/2+x,y,1/2-z
1/2-x,1/2+y,z
x,1/2-y,1/2+z
loop_
_atom_site_type_symbol
_atom_site_label
_atom_site_fract_x
_atom_site_fract_y
_atom_site_fract_z
Si Si1 0.591172 0.500000 0.250000
Si Si2 0.155924 0.054997 0.926246
Si Si3 0.370565 0.972369 0.822612
Si Si4 0.152764 0.210800 0.658126
Si Si5 0.226491 0.210132 0.365998
Si Si6 0.250000 0.554974 0.500000
Si Si7 0.939996 0.702545 0.632674
O O1 0.627908 0.631341 0.220841
O O2 0.556852 0.583625 0.307365
O O3 0.192128 0.136570 0.870709
O O4 0.096305 0.137006 0.927685
O O5 0.143906 0.887331 0.905083
O O6 0.194301 0.047291 0.990329
O O7 0.375856 0.132164 0.857300
O O8 0.386083 0.000000 0.750000
O O9 0.308580 0.911814 0.828427
O O10 0.414010 0.859575 0.850711
O O11 0.217434 0.238030 0.672648
O O12 0.239515 0.154748 0.438141
O O13 0.000000 0.750000 0.608056
#
# Coordination Sequence:
#
# PCOD8295644 Si02
#       7
#     8  16  16  16  16   8  16
#     4  10  20  32  52  76 110 158 202 240 292 358
#     4   9  20  37  56  89 116 154 199 253 311 362
#     4  11  22  36  53  85 120 160 201 245 294 374
#     4  10  19  33  50  79 119 150 192 235 300 363
#     4  10  21  34  55  84 117 156 192 245 305 370
#     4  10  18  36  64  86 118 154 202 250 306 376
#     4  10  22  39  58  83 119 160 210 259 301 358
#
# _framework density 21.080991000000001
#
# number of rings (size 3 to 8) (size 9 to 14) (size 15 to 20)
#    0.000    2.000    1.667    2.500    2.333    2.000 
#    0.000    2.500    0.000    4.000    0.000    1.167 
#    0.000    0.000    0.000    0.000    0.000    0.000 
#
# Total GULP energy -594655.351605 kJ/mol
# GULP energy per Si atom -12388.653158 kJ/mol
# Density = 2.103301 g / cm^3
# Si number density = 21.080991 Si / 1000 Ang^3
#
#
#
# Elastic Constant Matrix: (Units=GPa)
#
#
# Indices 1 2 3 4 5 6 
#
# 1 131.6504 44.7875 25.0521 0.0000 0.0000 0.0000
# 2 44.7875 146.1743 16.0442 0.0000 0.0000 0.0000
# 3 25.0521 16.0442 38.0523 0.0000 0.0000 0.0000
# 4 0.0000 0.0000 0.0000 66.2316 0.0000 0.0000
# 5 0.0000 0.0000 0.0000 0.0000 31.9202 0.0000
# 6 0.0000 0.0000 0.0000 0.0000 0.0000 24.8894
#
#
#
# Elastic Compliance Matrix: (Units=1/GPa)
#
#
# Indices 1 2 3 4 5 6 
#
# 1 0.009367 -0.002300 -0.005197 0.000000 0.000000 0.000000
# 2 -0.002300 0.007738 -0.001748 0.000000 0.000000 0.000000
# 3 -0.005197 -0.001748 0.030439 0.000000 0.000000 0.000000
# 4 0.000000 0.000000 0.000000 0.015099 0.000000 0.000000
# 5 0.000000 0.000000 0.000000 0.000000 0.031328 0.000000
# 6 0.000000 0.000000 0.000000 0.000000 0.000000 0.040178
#
#
# Mechanical properties :
#
#
# Convention : Reuss Voigt Hill
#
# Bulk Modulus (GPa) = 34.42047 54.18273 44.30160
# Shear Modulus (GPa) = 30.80276 39.94113 35.37194
#
# Velocity S-wave (km/s) = 3.82666 4.35748 4.10067
# Velocity P-wave (km/s) = 5.99063 7.14667 6.59403
#
# Compressibility (1/GPa) = 0.02905248
#
# Stress axis : x y z
#
# Youngs Moduli (GPa) = 106.75509 129.23796 32.85297
#
# Poissons Ratio (x) = 0.29720 0.17075
# Poissons Ratio (y) = 0.24550 0.05744
# Poissons Ratio (z) = 0.55485 0.22597
#
# Static dielectric constant tensor:
#      x y z
#    x 3.786780 0.000000 0.000000 
#    y 0.000000 4.850580 0.000000 
#    z 0.000000 0.000000 3.522480 
# 
# 
# High freq. dielectric constant tensor:
#      x y z
#    x 1.801420 0.000000 0.000000 
#    y 0.000000 1.852880 0.000000 
#    z 0.000000 0.000000 1.786030 
# 
# From -- ./inp_files/7224.got.cif
#   From: 2010.03.12/outbox.cif.g09.slc.cpg/sg73_4_cif.got.tgz:7224.got - 2010.04.16 15:25:48.
