data_PCOD8295469
_publ_section_title
;
Structure prediction by ZEFSAII (Michael W. Deem and Ramdas Pophale) SiO2 
 PCOD8295469
Probable space group: I B A M
;
_chemical_formula_sum "Si O2"
_cell_formula_units_Z 116
_cell_length_a 18.769163
_cell_length_b 23.101748
_cell_length_c 13.908608
_cell_angle_alpha 90.000000
_cell_angle_beta 90.000000
_cell_angle_gamma 90.000000
_cell_volume 6030.779019
_symmetry_space_group_name_H-M "I B A M"
_symmetry_group_IT_number 72
_symmetry_cell_setting 'orthorhombic'
loop_
_space_group_symop_operation_xyz
x,y,z
-x,-y,z
x,-y,1/2-z
-x,y,1/2-z
-x,-y,-z
x,y,-z
-x,y,1/2+z
x,-y,1/2+z
1/2+x,1/2+y,1/2+z
1/2-x,1/2-y,1/2+z
1/2+x,1/2-y,-z
1/2-x,1/2+y,-z
1/2-x,1/2-y,1/2-z
1/2+x,1/2+y,1/2-z
1/2-x,1/2+y,z
1/2+x,1/2-y,z
loop_
_atom_site_type_symbol
_atom_site_label
_atom_site_fract_x
_atom_site_fract_y
_atom_site_fract_z
Si Si1 0.960033 0.304913 0.346253
Si Si2 0.396596 0.757609 0.393668
Si Si3 0.692578 0.656000 0.888575
Si Si4 0.214872 0.346536 0.387589
Si Si5 0.762151 0.434480 0.273635
Si Si6 0.318694 0.244579 0.610708
Si Si7 0.500000 0.000000 0.250000
Si Si8 0.595647 0.926522 0.391812
O O1 0.891097 0.264107 0.326238
O O2 0.934284 0.361428 0.402274
O O3 0.000000 0.323739 0.250000
O O4 0.018938 0.266986 0.402535
O O5 0.361567 0.754752 0.500000
O O6 0.374357 0.694967 0.350615
O O7 0.355416 0.812679 0.347717
O O8 0.695413 0.598192 0.823453
O O9 0.764037 0.692951 0.867233
O O10 0.686089 0.637786 0.000000
O O11 0.209930 0.363298 0.500000
O O12 0.217994 0.405564 0.328075
O O13 0.283670 0.306451 0.365395
O O14 0.741041 0.500000 0.250000
O O15 0.825241 0.428990 0.350753
O O16 0.342899 0.241979 0.500000
O O17 0.547503 0.961924 0.319398
O O18 0.594948 0.952810 0.500000
#
# Coordination Sequence:
#
# PCOD8295469 Si02
#       8
#    16  16  16  16  16  16   4  16
#     4  12  22  32  55  89 117 148 187 232 293 367
#     4   9  19  34  54  84 112 143 185 234 299 353
#     4   9  19  36  58  81 111 147 186 238 295 348
#     4   9  21  38  56  80 114 150 186 241 293 346
#     4  12  24  38  56  83 112 153 210 235 277 347
#     4   9  18  35  57  80 110 150 185 227 304 364
#     4  12  26  48  52  82 104 160 218 238 282 322
#     4  12  25  42  59  79 117 157 198 247 286 338
#
# _framework density 19.234662
#
# number of rings (size 3 to 8) (size 9 to 14) (size 15 to 20)
#    0.000    1.655    2.759    4.345    1.931    2.207 
#    0.000    0.000    0.000    0.000    0.000    1.931 
#    0.000    4.414    0.000    0.000    0.000    0.000 
#
# Total GULP energy -718899.237372 kJ/mol
# GULP energy per Si atom -12394.814437 kJ/mol
# Density = 1.919088 g / cm^3
# Si number density = 19.234662 Si / 1000 Ang^3
#
#
#
# Elastic Constant Matrix: (Units=GPa)
#
#
# Indices 1 2 3 4 5 6 
#
# 1 78.3238 38.8730 10.5841 0.0000 0.0000 0.0000
# 2 38.8730 127.2794 43.6538 0.0000 0.0000 0.0000
# 3 10.5841 43.6538 89.5739 0.0000 0.0000 0.0000
# 4 0.0000 0.0000 0.0000 -8.3996 0.0000 0.0000
# 5 0.0000 0.0000 0.0000 0.0000 24.2756 0.0000
# 6 0.0000 0.0000 0.0000 0.0000 0.0000 25.6541
#
#
#
# Elastic Compliance Matrix: (Units=1/GPa)
#
#
# Indices 1 2 3 4 5 6 
#
# 1 0.015072 -0.004794 0.000555 0.000000 0.000000 0.000000
# 2 -0.004794 0.010958 -0.004774 0.000000 0.000000 0.000000
# 3 0.000555 -0.004774 0.013425 0.000000 0.000000 0.000000
# 4 0.000000 0.000000 0.000000 -0.119053 0.000000 0.000000
# 5 0.000000 0.000000 0.000000 0.000000 0.041194 0.000000
# 6 0.000000 0.000000 0.000000 0.000000 0.000000 0.038980
#
#
# Mechanical properties :
#
#
# Convention : Reuss Voigt Hill
#
# Bulk Modulus (GPa) = 46.66341 53.48877 50.07609
# Shear Modulus (GPa) = 194.22824 21.77710 108.00267
#
# Velocity S-wave (km/s) = 10.05969 3.36844 7.50146
# Velocity P-wave (km/s) = 12.61914 6.55724 10.05585
#
# Compressibility (1/GPa) = 0.02143007
#
# Stress axis : x y z
#
# Youngs Moduli (GPa) = 66.35019 91.25655 74.48800
#
# Poissons Ratio (x) = 0.43744 -0.04136
# Poissons Ratio (y) = 0.31805 0.35561
# Poissons Ratio (z) = -0.03684 0.43566
#
# Static dielectric constant tensor:
#      x y z
#    x 3.460040 0.000000 0.000000 
#    y 0.000000 3.568760 0.000000 
#    z 0.000000 0.000000 3.663070 
# 
# 
# High freq. dielectric constant tensor:
#      x y z
#    x 1.725370 0.000000 0.000000 
#    y 0.000000 1.721210 0.000000 
#    z 0.000000 0.000000 1.770490 
# 
# From -- ./inp_files/23549.got.cif
#   From: 2010.03.12/outbox.cif.g09.slc.cpg/sg72_12_cif.got.tgz:23549.got - 2010.04.16 14:54:00.
