data_PCOD8295832
_publ_section_title
;
Structure prediction by ZEFSAII (Michael W. Deem and Ramdas Pophale) SiO2 
 PCOD8295832
Probable space group: I B C A 
;
_chemical_formula_sum "Si O2"
_cell_formula_units_Z 88
_cell_length_a 12.006593
_cell_length_b 14.519370
_cell_length_c 22.675985
_cell_angle_alpha 90.000000
_cell_angle_beta 90.000000
_cell_angle_gamma 90.000000
_cell_volume 3953.062882
_symmetry_space_group_name_H-M "I B C A "
_symmetry_group_IT_number 73
_symmetry_cell_setting 'orthorhombic'
loop_
_space_group_symop_operation_xyz
x,y,z
-x,1/2-y,z
x,-y,1/2-z
1/2-x,y,-z
-x,-y,-z
x,1/2+y,-z
-x,y,1/2+z
1/2+x,-y,z
1/2+x,1/2+y,1/2+z
1/2-x,-y,1/2+z
1/2+x,1/2-y,-z
-x,1/2+y,1/2-z
1/2-x,1/2-y,1/2-z
1/2+x,y,1/2-z
1/2-x,1/2+y,z
x,1/2-y,1/2+z
loop_
_atom_site_type_symbol
_atom_site_label
_atom_site_fract_x
_atom_site_fract_y
_atom_site_fract_z
Si Si1 0.996871 0.857093 0.828500
Si Si2 0.459355 0.893116 0.452749
Si Si3 0.833310 0.221958 0.946159
Si Si4 0.111963 0.455963 0.575801
Si Si5 0.241481 0.082050 0.641698
Si Si6 0.125106 0.500000 0.750000
O O1 0.113837 0.901117 0.845890
O O2 0.000000 0.750000 0.809779
O O3 0.913652 0.865957 0.884865
O O4 0.950497 0.918433 0.775505
O O5 0.375563 0.821437 0.421662
O O6 0.567590 0.837039 0.475827
O O7 0.390282 0.936079 0.506908
O O8 0.509465 0.971603 0.409557
O O9 0.786367 0.176379 0.886911
O O10 0.750000 0.237600 0.000000
O O11 0.231818 0.500660 0.593658
O O12 0.300851 0.052196 0.701794
#
# Coordination Sequence:
#
# PCOD8295832 Si02
#       6
#    16  16  16  16  16   8
#     4  11  24  42  69  94 124 171 213 285 332 391
#     4   9  19  36  56  90 135 175 208 259 318 395
#     4  10  20  33  59  97 130 170 215 266 321 395
#     4   9  20  38  60  90 133 173 212 257 325 395
#     4  10  22  42  65  95 130 166 222 269 330 399
#     4  10  24  50  66  94 128 170 228 278 342 394
#
# _framework density 22.261218
#
# number of rings (size 3 to 8) (size 9 to 14) (size 15 to 20)
#    0.000    2.182    0.000    1.636    5.091    2.182 
#   13.091    1.818    0.000    0.000    0.000    0.000 
#    0.000    0.000    0.000    0.000    0.000    0.000 
#
# Total GULP energy -545171.097725 kJ/mol
# GULP energy per Si atom -12390.252221 kJ/mol
# Density = 2.221055 g / cm^3
# Si number density = 22.261218 Si / 1000 Ang^3
#
#
#
# Elastic Constant Matrix: (Units=GPa)
#
#
# Indices 1 2 3 4 5 6 
#
# 1 84.8203 27.4646 13.5475 0.0000 0.0000 0.0000
# 2 27.4646 119.2790 17.8963 0.0000 0.0000 0.0000
# 3 13.5475 17.8963 61.7562 0.0000 0.0000 0.0000
# 4 0.0000 0.0000 0.0000 29.5407 0.0000 0.0000
# 5 0.0000 0.0000 0.0000 0.0000 22.5909 0.0000
# 6 0.0000 0.0000 0.0000 0.0000 0.0000 21.6856
#
#
#
# Elastic Compliance Matrix: (Units=1/GPa)
#
#
# Indices 1 2 3 4 5 6 
#
# 1 0.012988 -0.002680 -0.002073 0.000000 0.000000 0.000000
# 2 -0.002680 0.009318 -0.002112 0.000000 0.000000 0.000000
# 3 -0.002073 -0.002112 0.017260 0.000000 0.000000 0.000000
# 4 0.000000 0.000000 0.000000 0.033852 0.000000 0.000000
# 5 0.000000 0.000000 0.000000 0.000000 0.044266 0.000000
# 6 0.000000 0.000000 0.000000 0.000000 0.000000 0.046113
#
#
# Mechanical properties :
#
#
# Convention : Reuss Voigt Hill
#
# Bulk Modulus (GPa) = 38.70548 42.63025 40.66786
# Shear Modulus (GPa) = 26.86185 28.55993 27.71089
#
# Velocity S-wave (km/s) = 3.47748 3.58571 3.53201
# Velocity P-wave (km/s) = 5.79211 6.02782 5.91114
#
# Compressibility (1/GPa) = 0.02583614
#
# Stress axis : x y z
#
# Youngs Moduli (GPa) = 76.99210 107.32335 57.93898
#
# Poissons Ratio (x) = 0.28759 0.12009
# Poissons Ratio (y) = 0.20631 0.12239
# Poissons Ratio (z) = 0.15958 0.22670
#
# Static dielectric constant tensor:
#      x y z
#    x 4.083130 0.000000 0.000000 
#    y 0.000000 4.385410 0.000000 
#    z 0.000000 0.000000 3.705540 
# 
# 
# High freq. dielectric constant tensor:
#      x y z
#    x 1.885340 0.000000 0.000000 
#    y 0.000000 1.893870 0.000000 
#    z 0.000000 0.000000 1.847570 
# 
# From -- ./inp_files/28853.got.cif
#   From: 2010.03.12/outbox.cif.g09.slc.cpg/sg73_15_cif.got.tgz:28853.got - 2010.04.16 15:25:48.
