data_PCOD8295084
_publ_section_title
;
Structure prediction by ZEFSAII (Michael W. Deem and Ramdas Pophale) SiO2 
 PCOD8295084
Probable space group: I B A M
;
_chemical_formula_sum "Si O2"
_cell_formula_units_Z 112
_cell_length_a 31.413617
_cell_length_b 11.642552
_cell_length_c 14.057521
_cell_angle_alpha 90.000000
_cell_angle_beta 90.000000
_cell_angle_gamma 90.000000
_cell_volume 5141.322796
_symmetry_space_group_name_H-M "I B A M"
_symmetry_group_IT_number 72
_symmetry_cell_setting 'orthorhombic'
loop_
_space_group_symop_operation_xyz
x,y,z
-x,-y,z
x,-y,1/2-z
-x,y,1/2-z
-x,-y,-z
x,y,-z
-x,y,1/2+z
x,-y,1/2+z
1/2+x,1/2+y,1/2+z
1/2-x,1/2-y,1/2+z
1/2+x,1/2-y,-z
1/2-x,1/2+y,-z
1/2-x,1/2-y,1/2-z
1/2+x,1/2+y,1/2-z
1/2-x,1/2+y,z
1/2+x,1/2-y,z
loop_
_atom_site_type_symbol
_atom_site_label
_atom_site_fract_x
_atom_site_fract_y
_atom_site_fract_z
Si Si1 0.860871 0.927834 0.391648
Si Si2 0.453404 0.821198 0.223865
Si Si3 0.378774 0.668454 0.803472
Si Si4 0.304192 0.197162 0.392128
Si Si5 0.710970 0.258953 0.608925
Si Si6 0.338415 0.966190 0.646901
Si Si7 0.430927 0.036985 0.895890
O O1 0.877181 0.900827 0.500000
O O2 0.885637 0.861739 0.307993
O O3 0.812028 0.883701 0.380826
O O4 0.866619 0.062335 0.371323
O O5 0.500000 0.772849 0.250000
O O6 0.424280 0.725327 0.171114
O O7 0.433799 0.854606 0.325906
O O8 0.455336 0.928999 0.151830
O O9 0.340542 0.757431 0.821047
O O10 0.310873 0.242541 0.500000
O O11 0.258627 0.235151 0.348485
O O12 0.304480 0.058377 0.392484
O O13 0.715362 0.224841 0.500000
O O14 0.683013 0.158629 0.655429
O O15 0.355293 0.000000 0.750000
O O16 0.380633 0.977364 0.583414
O O17 0.451808 0.059038 0.000000
#
# Coordination Sequence:
#
# PCOD8295084 Si02
#       7
#    16  16  16  16  16  16  16
#     4  10  23  43  65  90 125 171 223 269 320 385
#     4  11  24  42  64  98 131 160 212 270 327 405
#     4  11  23  42  67  91 123 172 215 267 335 390
#     4  11  23  39  61  92 132 174 224 273 323 386
#     4  10  23  39  59  90 131 178 225 276 320 369
#     4  12  22  37  61  92 131 173 224 269 321 385
#     4  11  21  39  65  95 134 174 208 256 329 399
#
# _framework density 21.784276999999999
#
# number of rings (size 3 to 8) (size 9 to 14) (size 15 to 20)
#    0.000    1.143    2.857    4.286    2.000    5.714 
#    0.000    1.429    0.000    0.857    0.000    0.000 
#    0.000    0.000    0.000    0.000    0.000    0.000 
#
# Total GULP energy -693938.490128 kJ/mol
# GULP energy per Si atom -12391.758752 kJ/mol
# Density = 2.173469 g / cm^3
# Si number density = 21.784277 Si / 1000 Ang^3
#
#
#
# Elastic Constant Matrix: (Units=GPa)
#
#
# Indices 1 2 3 4 5 6 
#
# 1 117.3374 52.0640 9.2052 0.0000 0.0000 0.0000
# 2 52.0640 112.6515 24.5074 0.0000 0.0000 0.0000
# 3 9.2052 24.5074 116.7268 0.0000 0.0000 0.0000
# 4 0.0000 0.0000 0.0000 23.4228 0.0000 0.0000
# 5 0.0000 0.0000 0.0000 0.0000 10.3236 0.0000
# 6 0.0000 0.0000 0.0000 0.0000 0.0000 29.5054
#
#
#
# Elastic Compliance Matrix: (Units=1/GPa)
#
#
# Indices 1 2 3 4 5 6 
#
# 1 0.010726 -0.005001 0.000204 0.000000 0.000000 0.000000
# 2 -0.005001 0.011634 -0.002048 0.000000 0.000000 0.000000
# 3 0.000204 -0.002048 0.008981 0.000000 0.000000 0.000000
# 4 0.000000 0.000000 0.000000 0.042693 0.000000 0.000000
# 5 0.000000 0.000000 0.000000 0.000000 0.096866 0.000000
# 6 0.000000 0.000000 0.000000 0.000000 0.000000 0.033892
#
#
# Mechanical properties :
#
#
# Convention : Reuss Voigt Hill
#
# Bulk Modulus (GPa) = 56.65808 57.58545 57.12176
# Shear Modulus (GPa) = 22.28501 30.04629 26.16565
#
# Velocity S-wave (km/s) = 3.20188 3.71787 3.46949
# Velocity P-wave (km/s) = 6.30354 6.70238 6.50602
#
# Compressibility (1/GPa) = 0.01764973
#
# Stress axis : x y z
#
# Youngs Moduli (GPa) = 93.23460 85.95452 111.34690
#
# Poissons Ratio (x) = 0.42990 -0.02274
# Poissons Ratio (y) = 0.46631 0.22806
# Poissons Ratio (z) = -0.01904 0.17605
#
# Static dielectric constant tensor:
#      x y z
#    x 3.779600 0.000000 0.000000 
#    y 0.000000 3.961940 0.000000 
#    z 0.000000 0.000000 4.031990 
# 
# 
# High freq. dielectric constant tensor:
#      x y z
#    x 1.833870 0.000000 0.000000 
#    y 0.000000 1.840840 0.000000 
#    z 0.000000 0.000000 1.873970 
# 
# From -- ./inp_files/26412.got.cif
#   From: 2010.03.12/outbox.cif.g09.slc.cpg/sg72_14_cif.got.tgz:26412.got - 2010.04.16 14:54:00.
