data_PCOD8295057
_publ_section_title
;
Structure prediction by ZEFSAII (Michael W. Deem and Ramdas Pophale) SiO2 
 PCOD8295057
Probable space group: I B A M
;
_chemical_formula_sum "Si O2"
_cell_formula_units_Z 116
_cell_length_a 10.012466
_cell_length_b 27.873836
_cell_length_c 21.122744
_cell_angle_alpha 90.000000
_cell_angle_beta 90.000000
_cell_angle_gamma 90.000000
_cell_volume 5895.058652
_symmetry_space_group_name_H-M "I B A M"
_symmetry_group_IT_number 72
_symmetry_cell_setting 'orthorhombic'
loop_
_space_group_symop_operation_xyz
x,y,z
-x,-y,z
x,-y,1/2-z
-x,y,1/2-z
-x,-y,-z
x,y,-z
-x,y,1/2+z
x,-y,1/2+z
1/2+x,1/2+y,1/2+z
1/2-x,1/2-y,1/2+z
1/2+x,1/2-y,-z
1/2-x,1/2+y,-z
1/2-x,1/2-y,1/2-z
1/2+x,1/2+y,1/2-z
1/2-x,1/2+y,z
1/2+x,1/2-y,z
loop_
_atom_site_type_symbol
_atom_site_label
_atom_site_fract_x
_atom_site_fract_y
_atom_site_fract_z
Si Si1 0.500000 0.000000 0.750000
Si Si2 0.902706 0.043293 0.927184
Si Si3 0.665456 0.069710 0.836826
Si Si4 0.232138 0.682979 0.883293
Si Si5 0.534691 0.140763 0.070529
Si Si6 0.014714 0.149405 0.428542
Si Si7 0.249704 0.294047 0.127535
Si Si8 0.159859 0.657643 0.744587
O O1 0.407583 0.969832 0.796058
O O2 0.778760 0.044258 0.878839
O O3 0.984562 0.092316 0.919474
O O4 0.852675 0.036863 0.000000
O O5 0.000000 0.000000 0.907498
O O6 0.560806 0.096518 0.882706
O O7 0.721018 0.109700 0.787849
O O8 0.368362 0.667807 0.914874
O O9 0.215807 0.739843 0.888710
O O10 0.228839 0.664864 0.811506
O O11 0.115686 0.658600 0.923111
O O12 0.633295 0.185369 0.082887
O O13 0.559156 0.121680 0.000000
O O14 0.055676 0.163264 0.500000
O O15 0.117888 0.174191 0.381028
O O16 0.199078 0.297451 0.200106
O O17 0.000000 0.653781 0.750000
#
# Coordination Sequence:
#
# PCOD8295057 Si02
#       8
#     4  16  16  16  16  16  16  16
#     4  12  24  40  68 100 128 152 216 288 312 376
#     4  10  22  44  70  94 126 165 212 270 336 403
#     4  11  22  43  67  92 123 172 209 264 333 387
#     4  12  24  38  61  98 134 168 222 274 320 375
#     4  11  22  41  67  89 128 179 217 260 328 397
#     4  11  24  41  62  94 132 165 212 272 327 391
#     4  11  23  40  64  91 130 180 219 264 323 391
#     4  11  21  43  64  87 129 174 219 265 316 388
#
# _framework density 19.677496999999999
#
# number of rings (size 3 to 8) (size 9 to 14) (size 15 to 20)
#    0.000    0.966    6.207    2.483    0.000    6.069 
#    0.000    4.483    0.000    0.000    0.000    0.000 
#    0.000    0.000    0.000    0.000    0.000    0.000 
#
# Total GULP energy -719301.498555 kJ/mol
# GULP energy per Si atom -12401.749975 kJ/mol
# Density = 1.963271 g / cm^3
# Si number density = 19.677497 Si / 1000 Ang^3
#
#
#
# Elastic Constant Matrix: (Units=GPa)
#
#
# Indices 1 2 3 4 5 6 
#
# 1 99.3344 32.0331 30.2491 0.0000 0.0000 0.0000
# 2 32.0331 104.2208 53.4234 -0.0001 0.0000 0.0000
# 3 30.2491 53.4234 108.5368 -0.0002 0.0000 0.0000
# 4 0.0000 -0.0001 -0.0002 19.7998 0.0000 0.0000
# 5 0.0000 0.0000 0.0000 0.0000 39.7999 0.0000
# 6 0.0000 0.0000 0.0000 0.0000 0.0000 26.8800
#
#
#
# Elastic Compliance Matrix: (Units=1/GPa)
#
#
# Indices 1 2 3 4 5 6 
#
# 1 0.011477 -0.002525 -0.001956 0.000000 0.000000 0.000000
# 2 -0.002525 0.013388 -0.005886 0.000000 0.000000 0.000000
# 3 -0.001956 -0.005886 0.012656 0.000000 0.000000 0.000000
# 4 0.000000 0.000000 0.000000 0.050506 0.000000 0.000000
# 5 0.000000 0.000000 0.000000 0.000000 0.025126 0.000000
# 6 0.000000 0.000000 0.000000 0.000000 0.000000 0.037202
#
#
# Mechanical properties :
#
#
# Convention : Reuss Voigt Hill
#
# Bulk Modulus (GPa) = 59.56963 60.38922 59.97942
# Shear Modulus (GPa) = 28.29906 30.38836 29.34371
#
# Velocity S-wave (km/s) = 3.79640 3.93405 3.86584
# Velocity P-wave (km/s) = 7.03957 7.16880 7.10448
#
# Compressibility (1/GPa) = 0.01678708
#
# Stress axis : x y z
#
# Youngs Moduli (GPa) = 87.13216 74.69173 79.01501
#
# Poissons Ratio (x) = 0.18859 0.15453
# Poissons Ratio (y) = 0.22001 0.46510
# Poissons Ratio (z) = 0.17041 0.43965
#
# Static dielectric constant tensor:
#      x y z
#    x 3.043350 0.000000 0.000000 
#    y 0.000000 3.647270 0.000000 
#    z 0.000000 0.000000 2.939670 
# 
# 
# High freq. dielectric constant tensor:
#      x y z
#    x 1.764500 0.000000 0.000000 
#    y 0.000000 1.766130 0.000000 
#    z 0.000000 0.000000 1.781900 
# 
# From -- ./inp_files/42697.got.cif
#   From: 2010.03.12/outbox.cif.g09.slc.cpg/sg72_22_cif.got.tgz:42697.got - 2010.04.16 14:54:00.
