data_PCOD8295822
_publ_section_title
;
Structure prediction by ZEFSAII (Michael W. Deem and Ramdas Pophale) SiO2 
 PCOD8295822
Probable space group: I B C A 
;
_chemical_formula_sum "Si O2"
_cell_formula_units_Z 72
_cell_length_a 9.139673
_cell_length_b 22.745926
_cell_length_c 15.443452
_cell_angle_alpha 90.000000
_cell_angle_beta 90.000000
_cell_angle_gamma 90.000000
_cell_volume 3210.544267
_symmetry_space_group_name_H-M "I B C A "
_symmetry_group_IT_number 73
_symmetry_cell_setting 'orthorhombic'
loop_
_space_group_symop_operation_xyz
x,y,z
-x,1/2-y,z
x,-y,1/2-z
1/2-x,y,-z
-x,-y,-z
x,1/2+y,-z
-x,y,1/2+z
1/2+x,-y,z
1/2+x,1/2+y,1/2+z
1/2-x,-y,1/2+z
1/2+x,1/2-y,-z
-x,1/2+y,1/2-z
1/2-x,1/2-y,1/2-z
1/2+x,y,1/2-z
1/2-x,1/2+y,z
x,1/2-y,1/2+z
loop_
_atom_site_type_symbol
_atom_site_label
_atom_site_fract_x
_atom_site_fract_y
_atom_site_fract_z
Si Si1 0.622575 0.372906 0.307365
Si Si2 0.503430 0.977926 0.113313
Si Si3 0.417861 0.810485 0.017323
Si Si4 0.750000 0.492693 0.000000
Si Si5 0.457545 0.885443 0.852854
O O1 0.540765 0.436760 0.307478
O O2 0.556687 0.334130 0.385301
O O3 0.570760 0.351492 0.212111
O O4 0.796096 0.377099 0.313582
O O5 0.660737 0.956197 0.073289
O O6 0.506818 0.045736 0.139317
O O7 0.373647 0.965684 0.042888
O O8 0.500000 0.750000 0.005229
O O9 0.250000 0.797603 0.000000
O O10 0.477753 0.857088 0.947188
#
# Coordination Sequence:
#
# PCOD8295822 Si02
#       5
#    16  16  16   8  16
#     4  11  25  43  66  97 136 172 214 267 322 387
#     4  11  21  38  62  97 137 172 213 255 328 381
#     4  10  24  48  69  92 126 169 219 274 328 379
#     4  10  20  32  60  90 126 176 214 252 300 386
#     4  11  25  43  66  97 136 172 214 267 322 387
#
# _framework density 22.426105
#
# number of rings (size 3 to 8) (size 9 to 14) (size 15 to 20)
#    0.000    1.333    2.222    3.333    6.222    4.444 
#    4.000    4.444    0.000    0.000    0.000    0.000 
#    0.000    0.000    0.000    0.000    0.000    0.000 
#
# Total GULP energy -446154.799202 kJ/mol
# GULP energy per Si atom -12393.188867 kJ/mol
# Density = 2.237506 g / cm^3
# Si number density = 22.426105 Si / 1000 Ang^3
#
#
#
# Elastic Constant Matrix: (Units=GPa)
#
#
# Indices 1 2 3 4 5 6 
#
# 1 93.1120 24.5823 39.0980 0.0000 0.0000 0.0000
# 2 24.5823 95.9649 28.1418 0.0000 0.0000 0.0000
# 3 39.0980 28.1418 112.8257 0.0000 0.0000 0.0000
# 4 0.0000 0.0000 0.0000 15.5407 0.0000 0.0000
# 5 0.0000 0.0000 0.0000 0.0000 42.8147 0.0000
# 6 0.0000 0.0000 0.0000 0.0000 0.0000 28.4351
#
#
#
# Elastic Compliance Matrix: (Units=1/GPa)
#
#
# Indices 1 2 3 4 5 6 
#
# 1 0.012972 -0.002163 -0.003956 0.000000 0.000000 0.000000
# 2 -0.002163 0.011603 -0.002145 0.000000 0.000000 0.000000
# 3 -0.003956 -0.002145 0.010769 0.000000 0.000000 0.000000
# 4 0.000000 0.000000 0.000000 0.064347 0.000000 0.000000
# 5 0.000000 0.000000 0.000000 0.000000 0.023356 0.000000
# 6 0.000000 0.000000 0.000000 0.000000 0.000000 0.035168
#
#
# Mechanical properties :
#
#
# Convention : Reuss Voigt Hill
#
# Bulk Modulus (GPa) = 53.14150 53.94965 53.54558
# Shear Modulus (GPa) = 27.62206 31.36346 29.49276
#
# Velocity S-wave (km/s) = 3.51335 3.74374 3.63038
# Velocity P-wave (km/s) = 6.34081 6.54189 6.44214
#
# Compressibility (1/GPa) = 0.01881769
#
# Stress axis : x y z
#
# Youngs Moduli (GPa) = 77.09052 86.18129 92.85940
#
# Poissons Ratio (x) = 0.18640 0.36732
# Poissons Ratio (y) = 0.16673 0.19916
# Poissons Ratio (z) = 0.30495 0.18483
#
# Static dielectric constant tensor:
#      x y z
#    x 4.243170 0.000000 0.000000 
#    y 0.000000 3.662240 0.000000 
#    z 0.000000 0.000000 4.421120 
# 
# 
# High freq. dielectric constant tensor:
#      x y z
#    x 1.894040 0.000000 0.000000 
#    y 0.000000 1.841680 0.000000 
#    z 0.000000 0.000000 1.904050 
# 
# From -- ./inp_files/5302.got.cif
#   From: 2010.03.12/outbox.cif.g09.slc.cpg/sg73_3_cif.got.tgz:5302.got - 2010.04.16 15:25:48.
