data_PCOD8295774
_publ_section_title
;
Structure prediction by ZEFSAII (Michael W. Deem and Ramdas Pophale) SiO2 
 PCOD8295774
Probable space group: I B C A 
;
_chemical_formula_sum "Si O2"
_cell_formula_units_Z 112
_cell_length_a 18.386419
_cell_length_b 18.785937
_cell_length_c 17.746659
_cell_angle_alpha 90.000000
_cell_angle_beta 90.000000
_cell_angle_gamma 90.000000
_cell_volume 6129.804433
_symmetry_space_group_name_H-M "I B C A "
_symmetry_group_IT_number 73
_symmetry_cell_setting 'orthorhombic'
loop_
_space_group_symop_operation_xyz
x,y,z
-x,1/2-y,z
x,-y,1/2-z
1/2-x,y,-z
-x,-y,-z
x,1/2+y,-z
-x,y,1/2+z
1/2+x,-y,z
1/2+x,1/2+y,1/2+z
1/2-x,-y,1/2+z
1/2+x,1/2-y,-z
-x,1/2+y,1/2-z
1/2-x,1/2-y,1/2-z
1/2+x,y,1/2-z
1/2-x,1/2+y,z
x,1/2-y,1/2+z
loop_
_atom_site_type_symbol
_atom_site_label
_atom_site_fract_x
_atom_site_fract_y
_atom_site_fract_z
Si Si1 0.233087 0.722854 0.587635
Si Si2 0.841447 0.360312 0.847318
Si Si3 0.361898 0.586827 0.416388
Si Si4 0.755215 0.496215 0.664532
Si Si5 0.559746 0.424611 0.437800
Si Si6 0.349657 0.642464 0.672336
Si Si7 0.477828 0.919532 0.419709
O O1 0.250000 0.728378 0.500000
O O2 0.202570 0.796789 0.616308
O O3 0.175670 0.660881 0.604808
O O4 0.305810 0.707537 0.635537
O O5 0.793042 0.430424 0.860015
O O6 0.859174 0.344060 0.760366
O O7 0.919393 0.364026 0.888565
O O8 0.315788 0.519699 0.385977
O O9 0.369083 0.577051 0.506870
O O10 0.443107 0.589072 0.379677
O O11 0.727453 0.500000 0.750000
O O12 0.812593 0.433160 0.655398
O O13 0.572460 0.366478 0.371198
O O14 0.551247 0.501955 0.401120
O O15 0.488259 0.407552 0.489318
#
# Coordination Sequence:
#
# PCOD8295774 Si02
#       7
#    16  16  16  16  16  16  16
#     4  11  21  36  57  86 115 159 195 233 289 349
#     4  11  22  34  57  90 118 145 196 249 290 335
#     4   9  19  36  57  77 113 152 194 229 287 353
#     4   9  19  34  53  82 112 144 185 244 290 331
#     4   9  17  35  59  79 110 144 203 223 282 349
#     4  10  19  38  60  80 112 157 195 231 292 353
#     4   9  19  35  54  89 107 147 190 242 281 337
#
# _framework density 18.271381999999999
#
# number of rings (size 3 to 8) (size 9 to 14) (size 15 to 20)
#    0.857    1.429    2.857    0.429    0.000    1.714 
#    2.571    0.000    0.000    3.429    0.000    0.000 
#    0.000    0.000    0.000    0.000    0.000    0.000 
#
# Total GULP energy -694018.620666 kJ/mol
# GULP energy per Si atom -12393.189655 kJ/mol
# Density = 1.822980 g / cm^3
# Si number density = 18.271382 Si / 1000 Ang^3
#
#
#
# Elastic Constant Matrix: (Units=GPa)
#
#
# Indices 1 2 3 4 5 6 
#
# 1 87.5484 53.0848 40.9865 0.0000 0.0000 0.0000
# 2 53.0848 74.8884 41.2327 0.0000 0.0000 0.0000
# 3 40.9865 41.2327 92.9734 0.0000 0.0000 0.0000
# 4 0.0000 0.0000 0.0000 13.1223 0.0000 0.0000
# 5 0.0000 0.0000 0.0000 0.0000 19.2183 0.0000
# 6 0.0000 0.0000 0.0000 0.0000 0.0000 29.2894
#
#
#
# Elastic Compliance Matrix: (Units=1/GPa)
#
#
# Indices 1 2 3 4 5 6 
#
# 1 0.020854 -0.012861 -0.003490 0.000000 0.000000 0.000000
# 2 -0.012861 0.025599 -0.005683 0.000000 0.000000 0.000000
# 3 -0.003490 -0.005683 0.014815 0.000000 0.000000 0.000000
# 4 0.000000 0.000000 0.000000 0.076206 0.000000 0.000000
# 5 0.000000 0.000000 0.000000 0.000000 0.052034 0.000000
# 6 0.000000 0.000000 0.000000 0.000000 0.000000 0.034142
#
#
# Mechanical properties :
#
#
# Convention : Reuss Voigt Hill
#
# Bulk Modulus (GPa) = 58.14000 58.44649 58.29325
# Shear Modulus (GPa) = 18.28479 20.33308 19.30894
#
# Velocity S-wave (km/s) = 3.16687 3.33954 3.25435
# Velocity P-wave (km/s) = 6.72766 6.85036 6.78929
#
# Compressibility (1/GPa) = 0.01719986
#
# Stress axis : x y z
#
# Youngs Moduli (GPa) = 47.95157 39.06398 67.50139
#
# Poissons Ratio (x) = 0.50242 0.23555
# Poissons Ratio (y) = 0.61672 0.38362
# Poissons Ratio (z) = 0.16733 0.22200
#
# Static dielectric constant tensor:
#      x y z
#    x 3.314820 0.000000 0.000000 
#    y 0.000000 3.170810 0.000000 
#    z 0.000000 0.000000 3.436880 
# 
# 
# High freq. dielectric constant tensor:
#      x y z
#    x 1.699030 0.000000 0.000000 
#    y 0.000000 1.691790 0.000000 
#    z 0.000000 0.000000 1.705750 
# 
# From -- ./inp_files/23288.got.cif
#   From: 2010.03.12/outbox.cif.g09.slc.cpg/sg73_12_cif.got.tgz:23288.got - 2010.04.16 15:25:48.
