data_PCOD8295213
_publ_section_title
;
Structure prediction by ZEFSAII (Michael W. Deem and Ramdas Pophale) SiO2 
 PCOD8295213
Probable space group: I B A M
;
_chemical_formula_sum "Si O2"
_cell_formula_units_Z 64
_cell_length_a 28.383270
_cell_length_b 5.005148
_cell_length_c 20.621852
_cell_angle_alpha 90.000000
_cell_angle_beta 90.000000
_cell_angle_gamma 90.000000
_cell_volume 2929.591171
_symmetry_space_group_name_H-M "I B A M"
_symmetry_group_IT_number 72
_symmetry_cell_setting 'orthorhombic'
loop_
_space_group_symop_operation_xyz
x,y,z
-x,-y,z
x,-y,1/2-z
-x,y,1/2-z
-x,-y,-z
x,y,-z
-x,y,1/2+z
x,-y,1/2+z
1/2+x,1/2+y,1/2+z
1/2-x,1/2-y,1/2+z
1/2+x,1/2-y,-z
1/2-x,1/2+y,-z
1/2-x,1/2-y,1/2-z
1/2+x,1/2+y,1/2-z
1/2-x,1/2+y,z
1/2+x,1/2-y,z
loop_
_atom_site_type_symbol
_atom_site_label
_atom_site_fract_x
_atom_site_fract_y
_atom_site_fract_z
Si Si1 0.718763 0.878175 0.000000
Si Si2 0.383630 0.000000 0.250000
Si Si3 0.909159 0.915901 0.073587
Si Si4 0.645634 0.082920 0.610582
Si Si5 0.968144 0.759741 0.815869
O O1 0.690080 0.823663 0.932854
O O2 0.737273 0.179481 0.000000
O O3 0.349253 0.086722 0.189722
O O4 0.418732 0.234887 0.275553
O O5 0.865739 0.714842 0.086044
O O6 0.955334 0.810598 0.109835
O O7 0.896979 0.214313 0.096713
O O8 0.923714 0.922778 0.000000
O O9 0.000000 0.500000 0.808410
O O10 0.000000 0.000000 0.788913
#
# Coordination Sequence:
#
# PCOD8295213 Si02
#       5
#     8   8  16  16  16
#     4  12  24  44  72 102 126 156 198 260 326 384
#     4  10  25  42  66  90 128 178 216 256 312 374
#     4  11  21  39  63  89 127 176 218 263 312 370
#     4  11  23  42  67  96 125 165 214 252 311 399
#     4  11  24  38  58  90 129 171 224 276 313 350
#
# _framework density 21.846050999999999
#
# number of rings (size 3 to 8) (size 9 to 14) (size 15 to 20)
#    0.000    1.000    2.500    4.875    0.000   13.000 
#    0.000    1.250    0.000    0.000    0.000    0.000 
#    0.000    0.000    0.000    0.000    0.000    0.000 
#
# Total GULP energy -396499.205909 kJ/mol
# GULP energy per Si atom -12390.600185 kJ/mol
# Density = 2.179633 g / cm^3
# Si number density = 21.846051 Si / 1000 Ang^3
#
#
#
# Elastic Constant Matrix: (Units=GPa)
#
#
# Indices 1 2 3 4 5 6 
#
# 1 74.4806 19.2690 58.4343 0.0000 0.0000 0.0000
# 2 19.2690 105.4656 30.3980 0.0000 0.0000 0.0000
# 3 58.4343 30.3980 241.2745 0.0000 0.0000 0.0000
# 4 0.0000 0.0000 0.0000 30.2331 0.0000 0.0000
# 5 0.0000 0.0000 0.0000 0.0000 40.8015 0.0000
# 6 0.0000 0.0000 0.0000 0.0000 0.0000 -6.5708
#
#
#
# Elastic Compliance Matrix: (Units=1/GPa)
#
#
# Indices 1 2 3 4 5 6 
#
# 1 0.016968 -0.001988 -0.003859 0.000000 0.000000 0.000000
# 2 -0.001988 0.010072 -0.000788 0.000000 0.000000 0.000000
# 3 -0.003859 -0.000788 0.005179 0.000000 0.000000 0.000000
# 4 0.000000 0.000000 0.000000 0.033076 0.000000 0.000000
# 5 0.000000 0.000000 0.000000 0.000000 0.024509 0.000000
# 6 0.000000 0.000000 0.000000 0.000000 0.000000 -0.152190
#
#
# Mechanical properties :
#
#
# Convention : Reuss Voigt Hill
#
# Bulk Modulus (GPa) = 52.77111 70.82478 61.79794
# Shear Modulus (GPa) = -116.82239 33.76740 -41.52750
#
# Velocity S-wave (km/s) = -7.32061 3.93580 -4.36468
# Velocity P-wave (km/s) = 6.87363 7.29002 1.71720
#
# Compressibility (1/GPa) = 0.01894976
#
# Stress axis : x y z
#
# Youngs Moduli (GPa) = 58.93348 99.28571 193.10574
#
# Poissons Ratio (x) = 0.19737 0.74521
# Poissons Ratio (y) = 0.11715 0.15207
# Poissons Ratio (z) = 0.22743 0.07819
#
# Static dielectric constant tensor:
#      x y z
#    x 3.562130 0.000000 0.000000 
#    y 0.000000 4.015100 0.000000 
#    z 0.000000 0.000000 4.464840 
# 
# 
# High freq. dielectric constant tensor:
#      x y z
#    x 1.809390 0.000000 0.000000 
#    y 0.000000 1.871360 0.000000 
#    z 0.000000 0.000000 1.893350 
# 
# From -- ./inp_files/34127.got.cif
#   From: 2010.03.12/outbox.cif.g09.slc.cpg/sg72_18_cif.got.tgz:34127.got - 2010.04.16 14:54:00.
