data_PCOD8295437
_publ_section_title
;
Structure prediction by ZEFSAII (Michael W. Deem and Ramdas Pophale) SiO2 
 PCOD8295437
Probable space group: I B A M
;
_chemical_formula_sum "Si O2"
_cell_formula_units_Z 68
_cell_length_a 17.098837
_cell_length_b 9.601296
_cell_length_c 18.889271
_cell_angle_alpha 90.000000
_cell_angle_beta 90.000000
_cell_angle_gamma 90.000000
_cell_volume 3101.070420
_symmetry_space_group_name_H-M "I B A M"
_symmetry_group_IT_number 72
_symmetry_cell_setting 'orthorhombic'
loop_
_space_group_symop_operation_xyz
x,y,z
-x,-y,z
x,-y,1/2-z
-x,y,1/2-z
-x,-y,-z
x,y,-z
-x,y,1/2+z
x,-y,1/2+z
1/2+x,1/2+y,1/2+z
1/2-x,1/2-y,1/2+z
1/2+x,1/2-y,-z
1/2-x,1/2+y,-z
1/2-x,1/2-y,1/2-z
1/2+x,1/2+y,1/2-z
1/2-x,1/2+y,z
1/2+x,1/2-y,z
loop_
_atom_site_type_symbol
_atom_site_label
_atom_site_fract_x
_atom_site_fract_y
_atom_site_fract_z
Si Si1 0.922101 0.816297 0.865305
Si Si2 0.188707 0.960515 0.920163
Si Si3 0.082705 0.701942 0.918735
Si Si4 0.342513 0.031730 0.332073
Si Si5 0.000000 0.000000 0.750000
O O1 0.868544 0.689380 0.841441
O O2 0.997582 0.765900 0.907585
O O3 0.873284 0.914240 0.917616
O O4 0.944164 0.902176 0.795719
O O5 0.147423 0.816493 0.898536
O O6 0.258662 0.992573 0.867147
O O7 0.221561 0.951444 0.000000
O O8 0.093881 0.569221 0.868311
O O9 0.091052 0.654496 0.000000
O O10 0.335730 0.000000 0.250000
#
# Coordination Sequence:
#
# PCOD8295437 Si02
#       5
#    16  16  16  16   4
#     4  12  25  44  73  98 137 181 232 279 341 409
#     4  11  25  46  71 101 136 181 232 283 339 409
#     4  11  24  46  72 103 137 180 232 285 340 406
#     4  12  28  43  66 104 143 181 226 283 346 410
#     4  12  24  44  72 104 132 180 226 288 340 408
#
# _framework density 21.927913
#
# number of rings (size 3 to 8) (size 9 to 14) (size 15 to 20)
#    0.000    0.471    2.353    4.941    1.647   11.294 
#    0.000    0.000    0.000    0.000    0.000    0.000 
#    0.000    0.000    0.000    0.000    0.000    0.000 
#
# Total GULP energy -421904.779744 kJ/mol
# GULP energy per Si atom -12408.964110 kJ/mol
# Density = 2.187800 g / cm^3
# Si number density = 21.927913 Si / 1000 Ang^3
#
#
#
# Elastic Constant Matrix: (Units=GPa)
#
#
# Indices 1 2 3 4 5 6 
#
# 1 102.1924 28.6074 41.1238 0.0000 0.0000 0.0000
# 2 28.6074 119.8445 45.3577 0.0000 0.0000 0.0000
# 3 41.1238 45.3577 117.6123 0.0000 0.0000 0.0000
# 4 0.0000 0.0000 0.0000 -15.7503 0.0000 0.0000
# 5 0.0000 0.0000 0.0000 0.0000 17.7397 0.0000
# 6 0.0000 0.0000 0.0000 0.0000 0.0000 29.5754
#
#
#
# Elastic Compliance Matrix: (Units=1/GPa)
#
#
# Indices 1 2 3 4 5 6 
#
# 1 0.011597 -0.001444 -0.003498 0.000000 0.000000 0.000000
# 2 -0.001444 0.009950 -0.003332 0.000000 0.000000 0.000000
# 3 -0.003498 -0.003332 0.011011 0.000000 0.000000 0.000000
# 4 0.000000 0.000000 0.000000 -0.063491 0.000000 0.000000
# 5 0.000000 0.000000 0.000000 0.000000 0.056371 0.000000
# 6 0.000000 0.000000 0.000000 0.000000 0.000000 0.033812
#
#
# Mechanical properties :
#
#
# Convention : Reuss Voigt Hill
#
# Bulk Modulus (GPa) = 62.46567 63.31412 62.88990
# Shear Modulus (GPa) = 61.62485 21.28363 41.45424
#
# Velocity S-wave (km/s) = 5.30701 3.11885 4.35268
# Velocity P-wave (km/s) = 8.13026 6.47349 7.34872
#
# Compressibility (1/GPa) = 0.01600879
#
# Stress axis : x y z
#
# Youngs Moduli (GPa) = 86.22553 100.50147 90.82050
#
# Poissons Ratio (x) = 0.14517 0.31770
# Poissons Ratio (y) = 0.12455 0.30264
# Poissons Ratio (z) = 0.30162 0.33490
#
# Static dielectric constant tensor:
#      x y z
#    x 3.949730 0.000000 0.000000 
#    y 0.000000 4.253580 0.000000 
#    z 0.000000 0.000000 4.142410 
# 
# 
# High freq. dielectric constant tensor:
#      x y z
#    x 1.870900 0.000000 0.000000 
#    y 0.000000 1.881230 0.000000 
#    z 0.000000 0.000000 1.870130 
# 
# From -- ./inp_files/27747.got.cif
#   From: 2010.03.12/outbox.cif.g09.slc.cpg/sg72_14_cif.got.tgz:27747.got - 2010.04.16 14:54:00.
