data_PCOD8295893
_publ_section_title
;
Structure prediction by ZEFSAII (Michael W. Deem and Ramdas Pophale) SiO2 
 PCOD8295893
Probable space group: I B C A 
;
_chemical_formula_sum "Si O2"
_cell_formula_units_Z 120
_cell_length_a 13.326774
_cell_length_b 19.041386
_cell_length_c 22.715340
_cell_angle_alpha 90.000000
_cell_angle_beta 90.000000
_cell_angle_gamma 90.000000
_cell_volume 5764.250309
_symmetry_space_group_name_H-M "I B C A "
_symmetry_group_IT_number 73
_symmetry_cell_setting 'orthorhombic'
loop_
_space_group_symop_operation_xyz
x,y,z
-x,1/2-y,z
x,-y,1/2-z
1/2-x,y,-z
-x,-y,-z
x,1/2+y,-z
-x,y,1/2+z
1/2+x,-y,z
1/2+x,1/2+y,1/2+z
1/2-x,-y,1/2+z
1/2+x,1/2-y,-z
-x,1/2+y,1/2-z
1/2-x,1/2-y,1/2-z
1/2+x,y,1/2-z
1/2-x,1/2+y,z
x,1/2-y,1/2+z
loop_
_atom_site_type_symbol
_atom_site_label
_atom_site_fract_x
_atom_site_fract_y
_atom_site_fract_z
Si Si1 0.890499 0.074338 0.037397
Si Si2 0.389610 0.226209 0.431029
Si Si3 0.457082 0.523918 0.414873
Si Si4 0.143573 0.390161 0.389039
Si Si5 0.250000 0.831202 0.500000
Si Si6 0.750461 0.527455 0.868008
Si Si7 0.385564 0.728470 0.797821
Si Si8 0.208945 0.670737 0.313754
O O1 0.898368 0.157456 0.027904
O O2 0.784387 0.053944 0.066957
O O3 0.901946 0.034169 0.976780
O O4 0.977716 0.047605 0.082756
O O5 0.500000 0.250000 0.412219
O O6 0.335455 0.284922 0.469491
O O7 0.327800 0.208615 0.372760
O O8 0.527625 0.590135 0.399968
O O9 0.369944 0.517430 0.366265
O O10 0.198149 0.380827 0.451729
O O11 0.198138 0.452911 0.352940
O O12 0.149179 0.318893 0.352573
O O13 0.781813 0.586707 0.820714
O O14 0.500000 0.750000 0.804841
O O15 0.371007 0.685091 0.737691
O O16 0.317747 0.798300 0.796915
#
# Coordination Sequence:
#
# PCOD8295893 Si02
#       8
#    16  16  16  16   8  16  16  16
#     4   9  21  33  54  88 121 172 210 257 321 395
#     4  11  23  39  60  89 132 169 214 277 334 406
#     4  10  20  36  59  88 124 171 219 262 329 398
#     4  11  25  40  63  96 131 174 220 276 334 407
#     4  12  26  40  58 100 134 174 222 280 338 412
#     4  10  22  38  63  89 134 167 215 273 327 402
#     4  11  23  44  73  94 131 171 225 285 337 399
#     4  10  23  44  65  98 122 172 227 273 342 393
#
# _framework density 20.817972000000001
#
# number of rings (size 3 to 8) (size 9 to 14) (size 15 to 20)
#    0.000    1.600    1.333    2.400   11.200    2.133 
#    0.000    0.000    0.000    8.000    0.000    0.000 
#    0.000    0.000    0.000    0.000    0.000    0.000 
#
# Total GULP energy -744124.011481 kJ/mol
# GULP energy per Si atom -12402.066858 kJ/mol
# Density = 2.077059 g / cm^3
# Si number density = 20.817972 Si / 1000 Ang^3
#
#
#
# Elastic Constant Matrix: (Units=GPa)
#
#
# Indices 1 2 3 4 5 6 
#
# 1 119.4566 41.4812 20.1868 0.0000 0.0000 0.0000
# 2 41.4812 103.7840 26.8875 0.0000 0.0000 0.0000
# 3 20.1868 26.8875 72.2621 0.0000 0.0000 0.0000
# 4 0.0000 0.0000 0.0000 32.1071 0.0000 0.0000
# 5 0.0000 0.0000 0.0000 0.0000 23.4788 0.0000
# 6 0.0000 0.0000 0.0000 0.0000 0.0000 30.2784
#
#
#
# Elastic Compliance Matrix: (Units=1/GPa)
#
#
# Indices 1 2 3 4 5 6 
#
# 1 0.009851 -0.003568 -0.001424 0.000000 0.000000 0.000000
# 2 -0.003568 0.011956 -0.003452 0.000000 0.000000 0.000000
# 3 -0.001424 -0.003452 0.015521 0.000000 0.000000 0.000000
# 4 0.000000 0.000000 0.000000 0.031146 0.000000 0.000000
# 5 0.000000 0.000000 0.000000 0.000000 0.042592 0.000000
# 6 0.000000 0.000000 0.000000 0.000000 0.000000 0.033027
#
#
# Mechanical properties :
#
#
# Convention : Reuss Voigt Hill
#
# Bulk Modulus (GPa) = 48.92609 52.51263 50.71936
# Shear Modulus (GPa) = 29.79854 30.96934 30.38394
#
# Velocity S-wave (km/s) = 3.78747 3.86116 3.82449
# Velocity P-wave (km/s) = 6.53295 6.71993 6.62710
#
# Compressibility (1/GPa) = 0.02043899
#
# Stress axis : x y z
#
# Youngs Moduli (GPa) = 101.51226 83.64085 64.43010
#
# Poissons Ratio (x) = 0.29846 0.09176
# Poissons Ratio (y) = 0.36223 0.22240
# Poissons Ratio (z) = 0.14457 0.28871
#
# Static dielectric constant tensor:
#      x y z
#    x 3.905920 0.000000 0.000000 
#    y 0.000000 3.815510 0.000000 
#    z 0.000000 0.000000 3.501670 
# 
# 
# High freq. dielectric constant tensor:
#      x y z
#    x 1.828890 0.000000 0.000000 
#    y 0.000000 1.820300 0.000000 
#    z 0.000000 0.000000 1.788600 
# 
# From -- ./inp_files/29093.got.cif
#   From: 2010.03.12/outbox.cif.g09.slc.cpg/sg73_15_cif.got.tgz:29093.got - 2010.04.16 15:25:48.
