data_PCOD8295530
_publ_section_title
;
Structure prediction by ZEFSAII (Michael W. Deem and Ramdas Pophale) SiO2 
 PCOD8295530
Probable space group: I B C A 
;
_chemical_formula_sum "Si O2"
_cell_formula_units_Z 88
_cell_length_a 5.199928
_cell_length_b 33.670799
_cell_length_c 31.201645
_cell_angle_alpha 90.000000
_cell_angle_beta 90.000000
_cell_angle_gamma 90.000000
_cell_volume 5462.962808
_symmetry_space_group_name_H-M "I B C A "
_symmetry_group_IT_number 73
_symmetry_cell_setting 'orthorhombic'
loop_
_space_group_symop_operation_xyz
x,y,z
-x,1/2-y,z
x,-y,1/2-z
1/2-x,y,-z
-x,-y,-z
x,1/2+y,-z
-x,y,1/2+z
1/2+x,-y,z
1/2+x,1/2+y,1/2+z
1/2-x,-y,1/2+z
1/2+x,1/2-y,-z
-x,1/2+y,1/2-z
1/2-x,1/2-y,1/2-z
1/2+x,y,1/2-z
1/2-x,1/2+y,z
x,1/2-y,1/2+z
loop_
_atom_site_type_symbol
_atom_site_label
_atom_site_fract_x
_atom_site_fract_y
_atom_site_fract_z
Si Si1 0.020393 0.482725 0.952219
Si Si2 0.036528 0.821107 0.589418
Si Si3 0.500000 0.750000 0.473104
Si Si4 0.309990 0.205806 0.267549
Si Si5 0.005399 0.893020 0.028021
Si Si6 0.472229 0.205040 0.365556
O O1 0.259078 0.504110 0.928067
O O2 0.064781 0.435808 0.951895
O O3 0.000000 0.500000 0.000000
O O4 0.089879 0.787372 0.554551
O O5 0.045040 0.863736 0.567292
O O6 0.262034 0.818250 0.625138
O O7 0.758461 0.816318 0.610201
O O8 0.250000 0.737024 0.500000
O O9 0.250000 0.250000 0.250000
O O10 0.533836 0.184227 0.239017
O O11 0.406962 0.205536 0.315734
O O12 0.750000 0.895195 0.000000
O O13 0.250000 0.878661 0.000000
O O14 0.500000 0.250000 0.382498
#
# Coordination Sequence:
#
# PCOD8295530 Si02
#       6
#    16  16   8  16  16  16
#     4  10  16  30  51  76  89 112 148 213 258 291
#     4  12  25  35  48  66  92 136 162 204 261 284
#     4  12  22  36  46  56  80 118 182 216 234 258
#     4  10  19  30  53  78  88 109 155 210 241 278
#     4  12  21  35  52  69  96 122 173 218 244 294
#     4  12  21  37  51  67  97 124 162 209 240 303
#
# _framework density 16.108474999999999
#
# number of rings (size 3 to 8) (size 9 to 14) (size 15 to 20)
#    0.000    0.727    7.273    4.364    2.545    0.000 
#    0.000    0.000    0.000    0.000    0.000    0.000 
#    0.000    0.000    0.000    0.000    0.000   63.636 
#
# Total GULP energy -545388.630448 kJ/mol
# GULP energy per Si atom -12395.196147 kJ/mol
# Density = 1.607181 g / cm^3
# Si number density = 16.108475 Si / 1000 Ang^3
#
#
#
# Elastic Constant Matrix: (Units=GPa)
#
#
# Indices 1 2 3 4 5 6 
#
# 1 140.4539 14.0317 23.0067 0.0000 0.0000 0.0000
# 2 14.0317 83.3566 26.2519 0.0000 0.0000 0.0000
# 3 23.0067 26.2519 59.9563 0.0000 0.0000 0.0000
# 4 0.0000 0.0000 0.0000 -49.4978 0.0000 0.0000
# 5 0.0000 0.0000 0.0000 0.0000 29.8829 0.0000
# 6 0.0000 0.0000 0.0000 0.0000 0.0000 17.8203
#
#
#
# Elastic Compliance Matrix: (Units=1/GPa)
#
#
# Indices 1 2 3 4 5 6 
#
# 1 0.007610 -0.000419 -0.002737 0.000000 0.000000 0.000000
# 2 -0.000419 0.013939 -0.005942 0.000000 0.000000 0.000000
# 3 -0.002737 -0.005942 0.020331 0.000000 0.000000 0.000000
# 4 0.000000 0.000000 0.000000 -0.020203 0.000000 0.000000
# 5 0.000000 0.000000 0.000000 0.000000 0.033464 0.000000
# 6 0.000000 0.000000 0.000000 0.000000 0.000000 0.056116
#
#
# Mechanical properties :
#
#
# Convention : Reuss Voigt Hill
#
# Bulk Modulus (GPa) = 42.22374 45.59416 43.90895
# Shear Modulus (GPa) = 36.40429 14.33950 25.37190
#
# Velocity S-wave (km/s) = 4.75905 2.98683 3.97301
# Velocity P-wave (km/s) = 7.51446 6.34514 6.95442
#
# Compressibility (1/GPa) = 0.02368336
#
# Stress axis : x y z
#
# Youngs Moduli (GPa) = 131.40762 71.74318 49.18673
#
# Poissons Ratio (x) = 0.03007 0.13460
# Poissons Ratio (y) = 0.05508 0.29228
# Poissons Ratio (z) = 0.35961 0.42631
#
# Static dielectric constant tensor:
#      x y z
#    x 12.585000 0.000000 0.000000 
#    y 0.000000 2.876890 0.000000 
#    z 0.000000 0.000000 2.853800 
# 
# 
# High freq. dielectric constant tensor:
#      x y z
#    x 1.663820 0.000000 0.000000 
#    y 0.000000 1.580380 0.000000 
#    z 0.000000 0.000000 1.581370 
# 
# From -- ./inp_files/2743.got.cif
#   From: 2010.03.12/outbox.cif.g09.slc.cpg/sg73_2_cif.got.tgz:2743.got - 2010.04.16 15:25:48.
