data_PCOD8295867
_publ_section_title
;
Structure prediction by ZEFSAII (Michael W. Deem and Ramdas Pophale) SiO2 
 PCOD8295867
Probable space group: I B C A 
;
_chemical_formula_sum "Si O2"
_cell_formula_units_Z 96
_cell_length_a 22.472288
_cell_length_b 8.318556
_cell_length_c 26.680879
_cell_angle_alpha 90.000000
_cell_angle_beta 90.000000
_cell_angle_gamma 90.000000
_cell_volume 4987.643109
_symmetry_space_group_name_H-M "I B C A "
_symmetry_group_IT_number 73
_symmetry_cell_setting 'orthorhombic'
loop_
_space_group_symop_operation_xyz
x,y,z
-x,1/2-y,z
x,-y,1/2-z
1/2-x,y,-z
-x,-y,-z
x,1/2+y,-z
-x,y,1/2+z
1/2+x,-y,z
1/2+x,1/2+y,1/2+z
1/2-x,-y,1/2+z
1/2+x,1/2-y,-z
-x,1/2+y,1/2-z
1/2-x,1/2-y,1/2-z
1/2+x,y,1/2-z
1/2-x,1/2+y,z
x,1/2-y,1/2+z
loop_
_atom_site_type_symbol
_atom_site_label
_atom_site_fract_x
_atom_site_fract_y
_atom_site_fract_z
Si Si1 0.835765 0.801134 0.341632
Si Si2 0.303482 0.754500 0.463100
Si Si3 0.386913 0.504211 0.498551
Si Si4 0.183182 0.689540 0.742704
Si Si5 0.433493 0.740050 0.074218
Si Si6 0.785887 0.344162 0.852924
O O1 0.858255 0.787143 0.283449
O O2 0.887637 0.760805 0.380368
O O3 0.784416 0.662785 0.339915
O O4 0.806848 0.971919 0.355397
O O5 0.250000 0.805828 0.500000
O O6 0.325510 0.578048 0.477680
O O7 0.284755 0.755604 0.405984
O O8 0.362890 0.861573 0.466897
O O9 0.424972 0.433163 0.452235
O O10 0.426217 0.622221 0.532305
O O11 0.174655 0.500000 0.750000
O O12 0.250000 0.750000 0.750000
O O13 0.170182 0.747337 0.685461
O O14 0.500000 0.750000 0.096261
#
# Coordination Sequence:
#
# PCOD8295867 Si02
#       6
#    16  16  16  16  16  16
#     4  11  22  36  59  90 118 154 198 250 308 361
#     4  11  22  33  56  88 129 153 185 238 312 370
#     4  10  22  38  54  84 114 159 207 239 289 363
#     4  10  20  35  57  86 118 153 198 239 297 368
#     4  11  23  41  61  83 118 165 213 252 292 353
#     4  11  21  35  58  88 126 155 189 243 310 375
#
# _framework density 19.247568000000001
#
# number of rings (size 3 to 8) (size 9 to 14) (size 15 to 20)
#    0.000    1.333    1.667    7.500    7.000    0.000 
#    0.000    0.000    0.000    2.000    0.000    0.000 
#    0.000    0.000    0.000    0.000    0.000    0.000 
#
# Total GULP energy -594705.572734 kJ/mol
# GULP energy per Si atom -12389.699432 kJ/mol
# Density = 1.920376 g / cm^3
# Si number density = 19.247568 Si / 1000 Ang^3
#
#
#
# Elastic Constant Matrix: (Units=GPa)
#
#
# Indices 1 2 3 4 5 6 
#
# 1 92.6628 35.4433 48.0424 0.0000 0.0000 0.0000
# 2 35.4433 70.4619 34.9834 0.0000 0.0000 0.0000
# 3 48.0424 34.9834 164.3928 0.0000 0.0000 0.0000
# 4 0.0000 0.0000 0.0000 19.4397 0.0000 0.0000
# 5 0.0000 0.0000 0.0000 0.0000 16.2977 0.0000
# 6 0.0000 0.0000 0.0000 0.0000 0.0000 16.6214
#
#
#
# Elastic Compliance Matrix: (Units=1/GPa)
#
#
# Indices 1 2 3 4 5 6 
#
# 1 0.014592 -0.005840 -0.003022 0.000000 0.000000 0.000000
# 2 -0.005840 0.018206 -0.002168 0.000000 0.000000 0.000000
# 3 -0.003022 -0.002168 0.007427 0.000000 0.000000 0.000000
# 4 0.000000 0.000000 0.000000 0.051441 0.000000 0.000000
# 5 0.000000 0.000000 0.000000 0.000000 0.061358 0.000000
# 6 0.000000 0.000000 0.000000 0.000000 0.000000 0.060163
#
#
# Mechanical properties :
#
#
# Convention : Reuss Voigt Hill
#
# Bulk Modulus (GPa) = 55.04488 62.71729 58.88108
# Shear Modulus (GPa) = 20.72091 24.40832 22.56461
#
# Velocity S-wave (km/s) = 3.28464 3.56494 3.42765
# Velocity P-wave (km/s) = 6.56091 7.04275 6.80610
#
# Compressibility (1/GPa) = 0.01816699
#
# Stress axis : x y z
#
# Youngs Moduli (GPa) = 68.52986 54.92767 134.63776
#
# Poissons Ratio (x) = 0.32077 0.40684
# Poissons Ratio (y) = 0.40020 0.29184
# Poissons Ratio (z) = 0.20708 0.11906
#
# Static dielectric constant tensor:
#      x y z
#    x 3.017740 0.000000 0.000000 
#    y 0.000000 3.643670 0.000000 
#    z 0.000000 0.000000 4.195040 
# 
# 
# High freq. dielectric constant tensor:
#      x y z
#    x 1.692200 0.000000 0.000000 
#    y 0.000000 1.761720 0.000000 
#    z 0.000000 0.000000 1.767120 
# 
# From -- ./inp_files/7800.got.cif
#   From: 2010.03.12/outbox.cif.g09.slc.cpg/sg73_4_cif.got.tgz:7800.got - 2010.04.16 15:25:48.
