data_PCOD8295772
_publ_section_title
;
Structure prediction by ZEFSAII (Michael W. Deem and Ramdas Pophale) SiO2 
 PCOD8295772
Probable space group: I B C A 
;
_chemical_formula_sum "Si O2"
_cell_formula_units_Z 120
_cell_length_a 14.065469
_cell_length_b 19.367855
_cell_length_c 22.791001
_cell_angle_alpha 90.000000
_cell_angle_beta 90.000000
_cell_angle_gamma 90.000000
_cell_volume 6208.678092
_symmetry_space_group_name_H-M "I B C A "
_symmetry_group_IT_number 73
_symmetry_cell_setting 'orthorhombic'
loop_
_space_group_symop_operation_xyz
x,y,z
-x,1/2-y,z
x,-y,1/2-z
1/2-x,y,-z
-x,-y,-z
x,1/2+y,-z
-x,y,1/2+z
1/2+x,-y,z
1/2+x,1/2+y,1/2+z
1/2-x,-y,1/2+z
1/2+x,1/2-y,-z
-x,1/2+y,1/2-z
1/2-x,1/2-y,1/2-z
1/2+x,y,1/2-z
1/2-x,1/2+y,z
x,1/2-y,1/2+z
loop_
_atom_site_type_symbol
_atom_site_label
_atom_site_fract_x
_atom_site_fract_y
_atom_site_fract_z
Si Si1 0.086965 0.699796 0.777613
Si Si2 0.855175 0.545842 0.498107
Si Si3 0.399958 0.152947 0.644701
Si Si4 0.110665 0.691274 0.954970
Si Si5 0.806502 0.288755 0.640071
Si Si6 0.982935 0.123080 0.132975
Si Si7 0.000000 0.250000 0.942914
Si Si8 0.509573 0.526377 0.911323
O O1 0.087448 0.678764 0.710619
O O2 0.182935 0.737736 0.802515
O O3 0.000000 0.750000 0.791434
O O4 0.063189 0.632227 0.816458
O O5 0.750000 0.512517 0.500000
O O6 0.837281 0.618311 0.464924
O O7 0.915359 0.490016 0.462118
O O8 0.912810 0.558247 0.559512
O O9 0.292046 0.172033 0.630622
O O10 0.469068 0.188726 0.598870
O O11 0.434202 0.073934 0.636257
O O12 0.176742 0.742234 0.917546
O O13 0.011896 0.671700 0.922339
O O14 0.087937 0.726107 0.017114
O O15 0.878587 0.351788 0.650131
O O16 0.976462 0.042501 0.121046
#
# Coordination Sequence:
#
# PCOD8295772 Si02
#       8
#    16  16  16  16  16  16   8  16
#     4   9  19  41  64  86 117 158 193 253 317 357
#     4  10  22  38  58  79 125 164 198 239 299 367
#     4  12  24  36  59  92 128 150 200 261 308 358
#     4  10  19  38  57  86 116 157 197 241 303 357
#     4  10  21  36  66  91 110 158 211 250 295 375
#     4   9  19  40  65  78 115 159 205 241 296 372
#     4  12  22  36  52  88 126 154 186 254 306 352
#     4  10  23  39  56  89 118 165 200 244 305 357
#
# _framework density 19.327787000000001
#
# number of rings (size 3 to 8) (size 9 to 14) (size 15 to 20)
#    0.000    1.867    3.333    1.200    3.733    0.533 
#    0.000    0.000    0.000    3.200    0.000    0.000 
#    0.000    0.000    0.000    0.000    0.000    0.000 
#
# Total GULP energy -743453.825627 kJ/mol
# GULP energy per Si atom -12390.897094 kJ/mol
# Density = 1.928380 g / cm^3
# Si number density = 19.327787 Si / 1000 Ang^3
#
#
#
# Elastic Constant Matrix: (Units=GPa)
#
#
# Indices 1 2 3 4 5 6 
#
# 1 96.2150 28.5664 32.2969 0.0000 0.0000 0.0000
# 2 28.5664 81.4433 43.8102 0.0000 0.0000 0.0000
# 3 32.2969 43.8102 117.9557 0.0000 0.0000 0.0000
# 4 0.0000 0.0000 0.0000 29.3148 0.0000 0.0000
# 5 0.0000 0.0000 0.0000 0.0000 23.0959 0.0000
# 6 0.0000 0.0000 0.0000 0.0000 0.0000 17.0982
#
#
#
# Elastic Compliance Matrix: (Units=1/GPa)
#
#
# Indices 1 2 3 4 5 6 
#
# 1 0.012025 -0.003058 -0.002157 0.000000 0.000000 0.000000
# 2 -0.003058 0.016122 -0.005151 0.000000 0.000000 0.000000
# 3 -0.002157 -0.005151 0.010981 0.000000 0.000000 0.000000
# 4 0.000000 0.000000 0.000000 0.034112 0.000000 0.000000
# 5 0.000000 0.000000 0.000000 0.000000 0.043298 0.000000
# 6 0.000000 0.000000 0.000000 0.000000 0.000000 0.058486
#
#
# Mechanical properties :
#
#
# Convention : Reuss Voigt Hill
#
# Bulk Modulus (GPa) = 54.35402 56.10675 55.23038
# Shear Modulus (GPa) = 24.76635 26.63114 25.69874
#
# Velocity S-wave (km/s) = 3.58353 3.71599 3.65036
# Velocity P-wave (km/s) = 6.73094 6.89228 6.81209
#
# Compressibility (1/GPa) = 0.01839790
#
# Stress axis : x y z
#
# Youngs Moduli (GPa) = 83.15851 62.02880 91.06374
#
# Poissons Ratio (x) = 0.18966 0.19642
# Poissons Ratio (y) = 0.25427 0.46903
# Poissons Ratio (z) = 0.17937 0.31948
#
# Static dielectric constant tensor:
#      x y z
#    x 3.423560 0.000000 0.000000 
#    y 0.000000 3.628170 0.000000 
#    z 0.000000 0.000000 3.535380 
# 
# 
# High freq. dielectric constant tensor:
#      x y z
#    x 1.742390 0.000000 0.000000 
#    y 0.000000 1.749690 0.000000 
#    z 0.000000 0.000000 1.747030 
# 
# From -- ./inp_files/29655.got.cif
#   From: 2010.03.12/outbox.cif.g09.slc.cpg/sg73_15_cif.got.tgz:29655.got - 2010.04.16 15:25:48.
