data_PCOD8295923
_publ_section_title
;
Structure prediction by ZEFSAII (Michael W. Deem and Ramdas Pophale) SiO2 
 PCOD8295923
Probable space group: I B C A 
;
_chemical_formula_sum "Si O2"
_cell_formula_units_Z 120
_cell_length_a 21.689992
_cell_length_b 9.374422
_cell_length_c 29.781070
_cell_angle_alpha 90.000000
_cell_angle_beta 90.000000
_cell_angle_gamma 90.000000
_cell_volume 6055.418859
_symmetry_space_group_name_H-M "I B C A "
_symmetry_group_IT_number 73
_symmetry_cell_setting 'orthorhombic'
loop_
_space_group_symop_operation_xyz
x,y,z
-x,1/2-y,z
x,-y,1/2-z
1/2-x,y,-z
-x,-y,-z
x,1/2+y,-z
-x,y,1/2+z
1/2+x,-y,z
1/2+x,1/2+y,1/2+z
1/2-x,-y,1/2+z
1/2+x,1/2-y,-z
-x,1/2+y,1/2-z
1/2-x,1/2-y,1/2-z
1/2+x,y,1/2-z
1/2-x,1/2+y,z
x,1/2-y,1/2+z
loop_
_atom_site_type_symbol
_atom_site_label
_atom_site_fract_x
_atom_site_fract_y
_atom_site_fract_z
Si Si1 0.394382 0.875087 0.156751
Si Si2 0.124429 0.658548 0.498802
Si Si3 0.000000 0.250000 0.606223
Si Si4 0.453061 0.586162 0.029836
Si Si5 0.176813 0.757159 0.586410
Si Si6 0.204208 0.078650 0.588823
Si Si7 0.557721 0.339123 0.252425
Si Si8 0.931407 0.804880 0.151978
O O1 0.439959 0.760151 0.136352
O O2 0.328950 0.857774 0.132862
O O3 0.387764 0.841269 0.210036
O O4 0.425439 0.026788 0.144815
O O5 0.107907 0.513206 0.526269
O O6 0.063972 0.749439 0.483697
O O7 0.157538 0.760094 0.534447
O O8 0.168176 0.625514 0.456363
O O9 0.014490 0.395255 0.577968
O O10 0.500000 0.500000 0.000000
O O11 0.226480 0.632841 0.591812
O O12 0.119265 0.727824 0.620279
O O13 0.207921 0.909337 0.594711
O O14 0.500000 0.250000 0.270526
O O15 0.532551 0.500000 0.250000
O O16 0.581962 0.275196 0.205034
O O17 0.000000 0.750000 0.138920
#
# Coordination Sequence:
#
# PCOD8295923 Si02
#       8
#    16  16   8  16  16  16  16  16
#     4  10  20  37  61  89 121 157 193 247 304 363
#     4  12  24  40  60  83 120 165 207 250 298 356
#     4  12  22  34  58  90 128 156 206 244 302 356
#     4  12  23  38  56  88 126 163 202 248 302 356
#     4  11  26  41  63  84 120 161 209 252 304 357
#     4  11  24  44  57  86 117 160 210 255 296 364
#     4   9  17  35  61  88 122 155 190 242 306 370
#     4   9  21  40  61  92 121 154 197 248 309 369
#
# _framework density 19.816960000000002
#
# number of rings (size 3 to 8) (size 9 to 14) (size 15 to 20)
#    0.000    1.333    4.667    0.400    5.600    1.067 
#    0.000    0.667    0.000    0.000    0.000    0.000 
#    0.000    0.000    0.000    0.000    0.000    0.000 
#
# Total GULP energy -743536.051478 kJ/mol
# GULP energy per Si atom -12392.267525 kJ/mol
# Density = 1.977186 g / cm^3
# Si number density = 19.816960 Si / 1000 Ang^3
#
#
#
# Elastic Constant Matrix: (Units=GPa)
#
#
# Indices 1 2 3 4 5 6 
#
# 1 98.7400 22.0624 52.0927 0.0000 0.0000 0.0000
# 2 22.0624 53.9761 22.1430 0.0000 0.0000 0.0000
# 3 52.0927 22.1430 114.7653 0.0000 0.0000 0.0000
# 4 0.0000 0.0000 0.0000 24.8780 0.0000 0.0000
# 5 0.0000 0.0000 0.0000 0.0000 13.4164 0.0000
# 6 0.0000 0.0000 0.0000 0.0000 0.0000 36.7241
#
#
#
# Elastic Compliance Matrix: (Units=1/GPa)
#
#
# Indices 1 2 3 4 5 6 
#
# 1 0.013852 -0.003347 -0.005642 0.000000 0.000000 0.000000
# 2 -0.003347 0.020928 -0.002518 0.000000 0.000000 0.000000
# 3 -0.005642 -0.002518 0.011760 0.000000 0.000000 0.000000
# 4 0.000000 0.000000 0.000000 0.040196 0.000000 0.000000
# 5 0.000000 0.000000 0.000000 0.000000 0.074535 0.000000
# 6 0.000000 0.000000 0.000000 0.000000 0.000000 0.027230
#
#
# Mechanical properties :
#
#
# Convention : Reuss Voigt Hill
#
# Bulk Modulus (GPa) = 42.50783 51.11972 46.81378
# Shear Modulus (GPa) = 22.79373 26.41594 24.60483
#
# Velocity S-wave (km/s) = 3.39516 3.65498 3.52746
# Velocity P-wave (km/s) = 6.07176 6.60786 6.34547
#
# Compressibility (1/GPa) = 0.02352508
#
# Stress axis : x y z
#
# Youngs Moduli (GPa) = 72.19204 47.78251 85.03315
#
# Poissons Ratio (x) = 0.15995 0.47972
# Poissons Ratio (y) = 0.24166 0.21415
# Poissons Ratio (z) = 0.40728 0.12034
#
# Static dielectric constant tensor:
#      x y z
#    x 3.520020 0.000000 0.000000 
#    y 0.000000 3.744110 0.000000 
#    z 0.000000 0.000000 3.795490 
# 
# 
# High freq. dielectric constant tensor:
#      x y z
#    x 1.753060 0.000000 0.000000 
#    y 0.000000 1.774480 0.000000 
#    z 0.000000 0.000000 1.776860 
# 
# From -- ./inp_files/34813.got.cif
#   From: 2010.03.12/outbox.cif.g09.slc.cpg/sg73_18_cif.got.tgz:34813.got - 2010.04.16 15:25:48.
