data_PCOD8295884
_publ_section_title
;
Structure prediction by ZEFSAII (Michael W. Deem and Ramdas Pophale) SiO2 
 PCOD8295884
Probable space group: I B C A 
;
_chemical_formula_sum "Si O2"
_cell_formula_units_Z 88
_cell_length_a 21.944795
_cell_length_b 16.832614
_cell_length_c 12.657721
_cell_angle_alpha 90.000000
_cell_angle_beta 90.000000
_cell_angle_gamma 90.000000
_cell_volume 4675.613581
_symmetry_space_group_name_H-M "I B C A "
_symmetry_group_IT_number 73
_symmetry_cell_setting 'orthorhombic'
loop_
_space_group_symop_operation_xyz
x,y,z
-x,1/2-y,z
x,-y,1/2-z
1/2-x,y,-z
-x,-y,-z
x,1/2+y,-z
-x,y,1/2+z
1/2+x,-y,z
1/2+x,1/2+y,1/2+z
1/2-x,-y,1/2+z
1/2+x,1/2-y,-z
-x,1/2+y,1/2-z
1/2-x,1/2-y,1/2-z
1/2+x,y,1/2-z
1/2-x,1/2+y,z
x,1/2-y,1/2+z
loop_
_atom_site_type_symbol
_atom_site_label
_atom_site_fract_x
_atom_site_fract_y
_atom_site_fract_z
Si Si1 0.441313 0.800653 0.949763
Si Si2 0.097020 0.481820 0.432505
Si Si3 0.847722 0.319007 0.861980
Si Si4 0.250000 0.239791 0.500000
Si Si5 0.852066 0.143530 0.117406
Si Si6 0.463719 0.969666 0.861549
O O1 0.500000 0.750000 0.977569
O O2 0.393800 0.752717 0.879775
O O3 0.459413 0.875382 0.877645
O O4 0.414438 0.824752 0.064139
O O5 0.127655 0.397221 0.418159
O O6 0.145760 0.547884 0.394048
O O7 0.080196 0.486802 0.555605
O O8 0.034402 0.494787 0.368428
O O9 0.782644 0.296219 0.913397
O O10 0.843557 0.331899 0.737720
O O11 0.204003 0.180268 0.555726
O O12 0.438441 0.000000 0.750000
#
# Coordination Sequence:
#
# PCOD8295884 Si02
#       6
#    16  16  16   8  16  16
#     4  10  21  36  55  92 122 149 195 234 285 360
#     4  10  21  36  57  87 115 151 197 233 285 360
#     4  11  21  39  61  86 115 154 195 242 298 339
#     4  10  24  40  58  82 112 148 208 252 282 352
#     4  10  22  39  59  79 118 156 190 245 295 339
#     4  10  20  36  57  85 127 158 185 230 287 351
#
# _framework density 18.821059000000002
#
# number of rings (size 3 to 8) (size 9 to 14) (size 15 to 20)
#    0.000    1.818    1.818    2.182    0.000    4.364 
#    0.000    1.818    0.000    0.000    0.000    0.000 
#    0.000    0.000    0.000    0.000    0.000    0.000 
#
# Total GULP energy -545616.885701 kJ/mol
# GULP energy per Si atom -12400.383766 kJ/mol
# Density = 1.877822 g / cm^3
# Si number density = 18.821059 Si / 1000 Ang^3
#
#
#
# Elastic Constant Matrix: (Units=GPa)
#
#
# Indices 1 2 3 4 5 6 
#
# 1 83.7597 41.5788 51.1251 0.0000 0.0000 0.0000
# 2 41.5788 123.2917 69.0651 0.0000 0.0000 0.0000
# 3 51.1251 69.0651 146.8763 0.0000 0.0000 0.0000
# 4 0.0000 0.0000 0.0000 21.8273 0.0000 0.0000
# 5 0.0000 0.0000 0.0000 0.0000 7.5472 0.0000
# 6 0.0000 0.0000 0.0000 0.0000 0.0000 29.2760
#
#
#
# Elastic Compliance Matrix: (Units=1/GPa)
#
#
# Indices 1 2 3 4 5 6 
#
# 1 0.015980 -0.003086 -0.004111 0.000000 0.000000 0.000000
# 2 -0.003086 0.011607 -0.004384 0.000000 0.000000 0.000000
# 3 -0.004111 -0.004384 0.010301 0.000000 0.000000 0.000000
# 4 0.000000 0.000000 0.000000 0.045814 0.000000 0.000000
# 5 0.000000 0.000000 0.000000 0.000000 0.132500 0.000000
# 6 0.000000 0.000000 0.000000 0.000000 0.000000 0.034158
#
#
# Mechanical properties :
#
#
# Convention : Reuss Voigt Hill
#
# Bulk Modulus (GPa) = 67.90693 75.27395 71.59044
# Shear Modulus (GPa) = 17.95775 24.54067 21.24921
#
# Velocity S-wave (km/s) = 3.09225 3.61487 3.36372
# Velocity P-wave (km/s) = 6.99342 7.58316 7.29426
#
# Compressibility (1/GPa) = 0.01472604
#
# Stress axis : x y z
#
# Youngs Moduli (GPa) = 62.57691 86.15239 97.07873
#
# Poissons Ratio (x) = 0.26588 0.39912
# Poissons Ratio (y) = 0.19312 0.42558
# Poissons Ratio (z) = 0.25727 0.37768
#
# Static dielectric constant tensor:
#      x y z
#    x 3.468750 0.000000 0.000000 
#    y 0.000000 3.662420 0.000000 
#    z 0.000000 0.000000 3.441040 
# 
# 
# High freq. dielectric constant tensor:
#      x y z
#    x 1.723070 0.000000 0.000000 
#    y 0.000000 1.745540 0.000000 
#    z 0.000000 0.000000 1.735180 
# 
# From -- ./inp_files/11871.got.cif
#   From: 2010.03.12/outbox.cif.g09.slc.cpg/sg73_6_cif.got.tgz:11871.got - 2010.04.16 15:25:48.
