data_PCOD8295291
_publ_section_title
;
Structure prediction by ZEFSAII (Michael W. Deem and Ramdas Pophale) SiO2 
 PCOD8295291
Probable space group: I B A M
;
_chemical_formula_sum "Si O2"
_cell_formula_units_Z 68
_cell_length_a 16.086130
_cell_length_b 11.339182
_cell_length_c 19.937512
_cell_angle_alpha 90.000000
_cell_angle_beta 90.000000
_cell_angle_gamma 90.000000
_cell_volume 3636.673082
_symmetry_space_group_name_H-M "I B A M"
_symmetry_group_IT_number 72
_symmetry_cell_setting 'orthorhombic'
loop_
_space_group_symop_operation_xyz
x,y,z
-x,-y,z
x,-y,1/2-z
-x,y,1/2-z
-x,-y,-z
x,y,-z
-x,y,1/2+z
x,-y,1/2+z
1/2+x,1/2+y,1/2+z
1/2-x,1/2-y,1/2+z
1/2+x,1/2-y,-z
1/2-x,1/2+y,-z
1/2-x,1/2-y,1/2-z
1/2+x,1/2+y,1/2-z
1/2-x,1/2+y,z
1/2+x,1/2-y,z
loop_
_atom_site_type_symbol
_atom_site_label
_atom_site_fract_x
_atom_site_fract_y
_atom_site_fract_z
Si Si1 0.110060 0.903913 0.074301
Si Si2 0.184672 0.881964 0.211533
Si Si3 0.069141 0.822871 0.574614
Si Si4 0.000000 0.500000 0.750000
Si Si5 0.627720 0.814513 0.299474
O O1 0.175610 0.876072 0.131584
O O2 0.029714 0.821700 0.087440
O O3 0.093517 0.041753 0.080138
O O4 0.145968 0.875121 0.000000
O O5 0.282449 0.865244 0.219203
O O6 0.120474 0.787235 0.243399
O O7 0.158261 0.000000 0.250000
O O8 0.089595 0.774527 0.500000
O O9 0.119699 0.742318 0.626771
O O10 0.941718 0.583856 0.794984
#
# Coordination Sequence:
#
# PCOD8295291 Si02
#       5
#    16  16  16   4  16
#     4   9  18  34  58  85 113 140 189 248 289 340
#     4  11  21  38  59  86 113 152 200 239 286 350
#     4   9  18  35  57  83 111 146 188 239 293 343
#     4  12  24  40  52  88 120 154 188 240 296 348
#     4  11  23  37  59  81 121 156 188 243 288 346
#
# _framework density 18.698409999999999
#
# number of rings (size 3 to 8) (size 9 to 14) (size 15 to 20)
#    0.000    1.882    3.529    2.824    0.000    0.941 
#    0.000    0.588    0.000    1.412    0.000    0.000 
#    0.000    0.000    0.000    0.000    0.000    0.000 
#
# Total GULP energy -421216.507311 kJ/mol
# GULP energy per Si atom -12388.720803 kJ/mol
# Density = 1.865585 g / cm^3
# Si number density = 18.698410 Si / 1000 Ang^3
#
#
#
# Elastic Constant Matrix: (Units=GPa)
#
#
# Indices 1 2 3 4 5 6 
#
# 1 51.8048 32.7412 30.0188 0.0000 0.0000 0.0000
# 2 32.7412 80.9564 45.5795 0.0000 0.0000 0.0000
# 3 30.0188 45.5795 146.0615 0.0000 0.0000 0.0000
# 4 0.0000 0.0000 0.0000 26.3301 0.0000 0.0000
# 5 0.0000 0.0000 0.0000 0.0000 32.0632 0.0000
# 6 0.0000 0.0000 0.0000 0.0000 0.0000 24.2621
#
#
#
# Elastic Compliance Matrix: (Units=1/GPa)
#
#
# Indices 1 2 3 4 5 6 
#
# 1 0.026703 -0.009353 -0.002569 0.000000 0.000000 0.000000
# 2 -0.009353 0.018261 -0.003776 0.000000 0.000000 0.000000
# 3 -0.002569 -0.003776 0.008553 0.000000 0.000000 0.000000
# 4 0.000000 0.000000 0.000000 0.037979 0.000000 0.000000
# 5 0.000000 0.000000 0.000000 0.000000 0.031188 0.000000
# 6 0.000000 0.000000 0.000000 0.000000 0.000000 0.041216
#
#
# Mechanical properties :
#
#
# Convention : Reuss Voigt Hill
#
# Bulk Modulus (GPa) = 45.20815 55.05574 50.13194
# Shear Modulus (GPa) = 24.67039 27.89663 26.28351
#
# Velocity S-wave (km/s) = 3.63627 3.86673 3.75327
# Velocity P-wave (km/s) = 6.46993 7.03161 6.75661
#
# Compressibility (1/GPa) = 0.02211991
#
# Stress axis : x y z
#
# Youngs Moduli (GPa) = 37.44856 54.76148 116.91934
#
# Poissons Ratio (x) = 0.51218 0.30042
# Poissons Ratio (y) = 0.35026 0.44151
# Poissons Ratio (z) = 0.09622 0.20679
#
# Static dielectric constant tensor:
#      x y z
#    x 3.268140 0.000000 0.000000 
#    y 0.000000 3.370060 0.000000 
#    z 0.000000 0.000000 4.013580 
# 
# 
# High freq. dielectric constant tensor:
#      x y z
#    x 1.712970 0.000000 0.000000 
#    y 0.000000 1.714840 0.000000 
#    z 0.000000 0.000000 1.735150 
# 
# From -- ./inp_files/31244.got.cif
#   From: 2010.03.12/outbox.cif.g09.slc.cpg/sg72_16_cif.got.tgz:31244.got - 2010.04.16 14:54:00.
