data_PCOD8295132
_publ_section_title
;
Structure prediction by ZEFSAII (Michael W. Deem and Ramdas Pophale) SiO2 
 PCOD8295132
Probable space group: I B A M
;
_chemical_formula_sum "Si O2"
_cell_formula_units_Z 60
_cell_length_a 5.407372
_cell_length_b 17.899055
_cell_length_c 23.206817
_cell_angle_alpha 90.000000
_cell_angle_beta 90.000000
_cell_angle_gamma 90.000000
_cell_volume 2246.114689
_symmetry_space_group_name_H-M "I B A M"
_symmetry_group_IT_number 72
_symmetry_cell_setting 'orthorhombic'
loop_
_space_group_symop_operation_xyz
x,y,z
-x,-y,z
x,-y,1/2-z
-x,y,1/2-z
-x,-y,-z
x,y,-z
-x,y,1/2+z
x,-y,1/2+z
1/2+x,1/2+y,1/2+z
1/2-x,1/2-y,1/2+z
1/2+x,1/2-y,-z
1/2-x,1/2+y,-z
1/2-x,1/2-y,1/2-z
1/2+x,1/2+y,1/2-z
1/2-x,1/2+y,z
1/2+x,1/2-y,z
loop_
_atom_site_type_symbol
_atom_site_label
_atom_site_fract_x
_atom_site_fract_y
_atom_site_fract_z
Si Si1 0.765495 0.782558 0.066578
Si Si2 0.043317 0.583790 0.565334
Si Si3 0.500000 0.700069 0.750000
Si Si4 0.500000 0.000000 0.750000
Si Si5 0.865150 0.077879 0.833474
O O1 0.022301 0.757018 0.095676
O O2 0.715965 0.871588 0.073171
O O3 0.781189 0.757154 0.000000
O O4 0.141736 0.591043 0.500000
O O5 0.255322 0.613953 0.607630
O O6 0.000000 0.500000 0.584500
O O7 0.250000 0.750000 0.750000
O O8 0.526066 0.644918 0.694266
O O9 0.345648 0.942459 0.788022
O O10 0.000000 0.000000 0.847406
#
# Coordination Sequence:
#
# PCOD8295132 Si02
#       5
#    16  16   8   4  16
#     4   9  19  38  62  89 132 187 233 281 352 434
#     4  10  23  42  69 109 149 193 254 317 379 464
#     4  12  28  48  77 117 152 188 262 336 384 448
#     4  12  20  48  74 100 140 202 266 300 378 486
#     4  12  25  45  78 104 146 206 247 312 395 479
#
# _framework density 26.712793999999999
#
# number of rings (size 3 to 8) (size 9 to 14) (size 15 to 20)
#    0.000    1.333    4.000    0.800    0.000    4.800 
#    0.000    5.333    0.000    0.000    0.000    0.000 
#    0.000    0.000    0.000    0.000    0.000    0.000 
#
# Total GULP energy -371804.552669 kJ/mol
# GULP energy per Si atom -12393.485089 kJ/mol
# Density = 2.665199 g / cm^3
# Si number density = 26.712794 Si / 1000 Ang^3
#
#
#
# Elastic Constant Matrix: (Units=GPa)
#
#
# Indices 1 2 3 4 5 6 
#
# 1 103.5164 44.1229 -1.4783 0.0000 0.0000 0.0000
# 2 44.1229 146.0721 -8.5541 0.0000 0.0000 0.0000
# 3 -1.4783 -8.5541 69.6147 0.0000 0.0000 0.0000
# 4 0.0000 0.0000 0.0000 16.5819 0.0000 0.0000
# 5 0.0000 0.0000 0.0000 0.0000 0.8873 0.0000
# 6 0.0000 0.0000 0.0000 0.0000 0.0000 54.7136
#
#
#
# Elastic Compliance Matrix: (Units=1/GPa)
#
#
# Indices 1 2 3 4 5 6 
#
# 1 0.011090 -0.003360 -0.000177 0.000000 0.000000 0.000000
# 2 -0.003360 0.007914 0.000901 0.000000 0.000000 0.000000
# 3 -0.000177 0.000901 0.014472 0.000000 0.000000 0.000000
# 4 0.000000 0.000000 0.000000 0.060307 0.000000 0.000000
# 5 0.000000 0.000000 0.000000 0.000000 1.126969 0.000000
# 6 0.000000 0.000000 0.000000 0.000000 0.000000 0.018277
#
#
# Mechanical properties :
#
#
# Convention : Reuss Voigt Hill
#
# Bulk Modulus (GPa) = 35.45812 43.04269 39.25041
# Shear Modulus (GPa) = 3.98819 33.44408 18.71613
#
# Velocity S-wave (km/s) = 1.22320 3.54218 2.64984
# Velocity P-wave (km/s) = 3.91122 5.73389 4.90791
#
# Compressibility (1/GPa) = 0.02820228
#
# Stress axis : x y z
#
# Youngs Moduli (GPa) = 90.17082 126.36285 69.10019
#
# Poissons Ratio (x) = 0.42462 0.01226
# Poissons Ratio (y) = 0.30300 -0.06226
# Poissons Ratio (z) = 0.01600 -0.11386
#
# Static dielectric constant tensor:
#      x y z
#    x 5.049710 0.000000 0.000000 
#    y 0.000000 5.185630 0.000000 
#    z 0.000000 0.000000 5.163360 
# 
# 
# High freq. dielectric constant tensor:
#      x y z
#    x 2.066480 0.000000 0.000000 
#    y 0.000000 2.097740 0.000000 
#    z 0.000000 0.000000 2.064880 
# 
# From -- ./inp_files/46471.got.cif
#   From: 2010.03.12/outbox.cif.g09.slc.cpg/sg72_24_cif.got.tgz:46471.got - 2010.04.16 14:54:00.
