data_PCOD8295301
_publ_section_title
;
Structure prediction by ZEFSAII (Michael W. Deem and Ramdas Pophale) SiO2 
 PCOD8295301
Probable space group: I B A M
;
_chemical_formula_sum "Si O2"
_cell_formula_units_Z 64
_cell_length_a 10.128792
_cell_length_b 8.359201
_cell_length_c 33.067075
_cell_angle_alpha 90.000000
_cell_angle_beta 90.000000
_cell_angle_gamma 90.000000
_cell_volume 2799.743218
_symmetry_space_group_name_H-M "I B A M"
_symmetry_group_IT_number 72
_symmetry_cell_setting 'orthorhombic'
loop_
_space_group_symop_operation_xyz
x,y,z
-x,-y,z
x,-y,1/2-z
-x,y,1/2-z
-x,-y,-z
x,y,-z
-x,y,1/2+z
x,-y,1/2+z
1/2+x,1/2+y,1/2+z
1/2-x,1/2-y,1/2+z
1/2+x,1/2-y,-z
1/2-x,1/2+y,-z
1/2-x,1/2-y,1/2-z
1/2+x,1/2+y,1/2-z
1/2-x,1/2+y,z
1/2+x,1/2-y,z
loop_
_atom_site_type_symbol
_atom_site_label
_atom_site_fract_x
_atom_site_fract_y
_atom_site_fract_z
Si Si1 0.130621 0.093218 0.331330
Si Si2 0.313359 0.615937 0.579644
Si Si3 0.320874 0.873350 0.278842
Si Si4 0.076965 0.789137 0.547412
O O1 0.207992 0.137269 0.372333
O O2 0.092094 0.261762 0.308776
O O3 0.215856 0.976363 0.303783
O O4 0.000000 0.000000 0.343883
O O5 0.172670 0.641503 0.557691
O O6 0.357080 0.437931 0.569721
O O7 0.428033 0.738001 0.563980
O O8 0.250000 0.750000 0.250000
O O9 0.400927 0.000000 0.250000
O O10 0.068891 0.820311 0.500000
#
# Coordination Sequence:
#
# PCOD8295301 Si02
#       4
#    16  16  16  16
#     4  11  21  40  66  90 132 169 212 276 331 390
#     4  11  23  40  65  96 130 172 218 268 334 390
#     4   9  21  40  63  94 126 163 213 262 329 400
#     4  11  22  41  64  94 131 171 218 272 328 393
#
# _framework density 22.859238000000001
#
# number of rings (size 3 to 8) (size 9 to 14) (size 15 to 20)
#    0.000    1.500    2.500    4.500    0.000    5.500 
#    0.000   11.250    0.000    0.000    0.000    0.000 
#    0.000    0.000    0.000    0.000    0.000    0.000 
#
# Total GULP energy -396547.607025 kJ/mol
# GULP energy per Si atom -12392.112720 kJ/mol
# Density = 2.280721 g / cm^3
# Si number density = 22.859238 Si / 1000 Ang^3
#
#
#
# Elastic Constant Matrix: (Units=GPa)
#
#
# Indices 1 2 3 4 5 6 
#
# 1 60.2462 6.2391 8.8104 0.0000 0.0000 0.0000
# 2 6.2391 88.8019 44.1348 0.0000 0.0000 0.0000
# 3 8.8104 44.1348 162.5610 0.0000 0.0000 0.0000
# 4 0.0000 0.0000 0.0000 35.4421 0.0000 0.0000
# 5 0.0000 0.0000 0.0000 0.0000 11.2021 0.0000
# 6 0.0000 0.0000 0.0000 0.0000 0.0000 32.9533
#
#
#
# Elastic Compliance Matrix: (Units=1/GPa)
#
#
# Indices 1 2 3 4 5 6 
#
# 1 0.016785 -0.000841 -0.000681 0.000000 0.000000 0.000000
# 2 -0.000841 0.013060 -0.003500 0.000000 0.000000 0.000000
# 3 -0.000681 -0.003500 0.007139 0.000000 0.000000 0.000000
# 4 0.000000 0.000000 0.000000 0.028215 0.000000 0.000000
# 5 0.000000 0.000000 0.000000 0.000000 0.089269 0.000000
# 6 0.000000 0.000000 0.000000 0.000000 0.000000 0.030346
#
#
# Mechanical properties :
#
#
# Convention : Reuss Voigt Hill
#
# Bulk Modulus (GPa) = 37.12058 47.77532 42.44795
# Shear Modulus (GPa) = 24.52928 32.74782 28.63855
#
# Velocity S-wave (km/s) = 3.27931 3.78906 3.54336
# Velocity P-wave (km/s) = 5.53286 6.33149 5.94560
#
# Compressibility (1/GPa) = 0.02693924
#
# Stress axis : x y z
#
# Youngs Moduli (GPa) = 59.57606 76.57182 140.08081
#
# Poissons Ratio (x) = 0.06437 0.09546
# Poissons Ratio (y) = 0.05008 0.49030
# Poissons Ratio (z) = 0.04060 0.26801
#
# Static dielectric constant tensor:
#      x y z
#    x 4.200110 0.000000 0.000000 
#    y 0.000000 4.485380 0.000000 
#    z 0.000000 0.000000 4.472310 
# 
# 
# High freq. dielectric constant tensor:
#      x y z
#    x 1.883850 0.000000 0.000000 
#    y 0.000000 1.903380 0.000000 
#    z 0.000000 0.000000 1.925370 
# 
# From -- ./inp_files/50581.got.cif
#   From: 2010.03.12/outbox.cif.g09.slc.cpg/sg72_26_cif.got.tgz:50581.got - 2010.04.16 14:54:00.
