data_PCOD8295105
_publ_section_title
;
Structure prediction by ZEFSAII (Michael W. Deem and Ramdas Pophale) SiO2 
 PCOD8295105
Probable space group: I B A M
;
_chemical_formula_sum "Si O2"
_cell_formula_units_Z 64
_cell_length_a 8.987686
_cell_length_b 13.517387
_cell_length_c 22.504767
_cell_angle_alpha 90.000000
_cell_angle_beta 90.000000
_cell_angle_gamma 90.000000
_cell_volume 2734.104816
_symmetry_space_group_name_H-M "I B A M"
_symmetry_group_IT_number 72
_symmetry_cell_setting 'orthorhombic'
loop_
_space_group_symop_operation_xyz
x,y,z
-x,-y,z
x,-y,1/2-z
-x,y,1/2-z
-x,-y,-z
x,y,-z
-x,y,1/2+z
x,-y,1/2+z
1/2+x,1/2+y,1/2+z
1/2-x,1/2-y,1/2+z
1/2+x,1/2-y,-z
1/2-x,1/2+y,-z
1/2-x,1/2-y,1/2-z
1/2+x,1/2+y,1/2-z
1/2-x,1/2+y,z
1/2+x,1/2-y,z
loop_
_atom_site_type_symbol
_atom_site_label
_atom_site_fract_x
_atom_site_fract_y
_atom_site_fract_z
Si Si1 0.352748 0.442686 0.860206
Si Si2 0.726437 0.144517 0.372919
Si Si3 0.007262 0.225124 0.569304
Si Si4 0.332435 0.116594 0.745265
O O1 0.500000 0.500000 0.833621
O O2 0.241449 0.526850 0.885236
O O3 0.400945 0.373791 0.914692
O O4 0.269664 0.368253 0.813437
O O5 0.838056 0.210868 0.411151
O O6 0.563941 0.178515 0.394666
O O7 0.753576 0.162680 0.302123
O O8 0.017638 0.245811 0.500000
O O9 0.500000 0.161267 0.750000
O O10 0.345079 0.000000 0.750000
#
# Coordination Sequence:
#
# PCOD8295105 Si02
#       4
#    16  16  16  16
#     4   9  21  41  67  93 126 168 212 259 327 381
#     4  10  23  41  63  91 128 167 207 268 321 374
#     4  11  24  41  62  92 126 170 223 262 306 378
#     4   9  19  38  64  93 127 159 202 262 324 387
#
# _framework density 23.408026
#
# number of rings (size 3 to 8) (size 9 to 14) (size 15 to 20)
#    0.000    2.250    0.000    0.750    3.500   18.000 
#    0.000    0.000    0.000    3.000    0.000    0.000 
#    0.000    0.000    0.000    0.000    0.000    0.000 
#
# Total GULP energy -396546.520681 kJ/mol
# GULP energy per Si atom -12392.078771 kJ/mol
# Density = 2.335475 g / cm^3
# Si number density = 23.408026 Si / 1000 Ang^3
#
#
#
# Elastic Constant Matrix: (Units=GPa)
#
#
# Indices 1 2 3 4 5 6 
#
# 1 65.4644 21.1318 34.2736 0.0000 0.0000 0.0000
# 2 21.1318 56.5003 13.4382 0.0000 0.0000 0.0000
# 3 34.2736 13.4382 133.9426 0.0000 0.0000 0.0000
# 4 0.0000 0.0000 0.0000 29.6283 0.0000 0.0000
# 5 0.0000 0.0000 0.0000 0.0000 37.1398 0.0000
# 6 0.0000 0.0000 0.0000 0.0000 0.0000 32.9917
#
#
#
# Elastic Compliance Matrix: (Units=1/GPa)
#
#
# Indices 1 2 3 4 5 6 
#
# 1 0.019601 -0.006288 -0.004385 0.000000 0.000000 0.000000
# 2 -0.006288 0.020149 -0.000412 0.000000 0.000000 0.000000
# 3 -0.004385 -0.000412 0.008629 0.000000 0.000000 0.000000
# 4 0.000000 0.000000 0.000000 0.033752 0.000000 0.000000
# 5 0.000000 0.000000 0.000000 0.000000 0.026925 0.000000
# 6 0.000000 0.000000 0.000000 0.000000 0.000000 0.030311
#
#
# Mechanical properties :
#
#
# Convention : Reuss Voigt Hill
#
# Bulk Modulus (GPa) = 38.15548 43.73273 40.94410
# Shear Modulus (GPa) = 29.36459 32.42287 30.89373
#
# Velocity S-wave (km/s) = 3.54569 3.72575 3.63684
# Velocity P-wave (km/s) = 5.75309 6.10178 5.93000
#
# Compressibility (1/GPa) = 0.02620856
#
# Stress axis : x y z
#
# Youngs Moduli (GPa) = 51.01826 49.63037 115.88523
#
# Poissons Ratio (x) = 0.31208 0.50812
# Poissons Ratio (y) = 0.32081 0.04780
# Poissons Ratio (z) = 0.22370 0.02047
#
# Static dielectric constant tensor:
#      x y z
#    x 4.517720 0.000000 0.000000 
#    y 0.000000 4.234240 0.000000 
#    z 0.000000 0.000000 4.009020 
# 
# 
# High freq. dielectric constant tensor:
#      x y z
#    x 1.928770 0.000000 0.000000 
#    y 0.000000 1.926930 0.000000 
#    z 0.000000 0.000000 1.902660 
# 
# From -- ./inp_files/35379.got.cif
#   From: 2010.03.12/outbox.cif.g09.slc.cpg/sg72_18_cif.got.tgz:35379.got - 2010.04.16 14:54:00.
