data_PCOD8295522
_publ_section_title
;
Structure prediction by ZEFSAII (Michael W. Deem and Ramdas Pophale) SiO2 
 PCOD8295522
Probable space group: I B C A 
;
_chemical_formula_sum "Si O2"
_cell_formula_units_Z 88
_cell_length_a 4.965573
_cell_length_b 29.026729
_cell_length_c 26.964622
_cell_angle_alpha 90.000000
_cell_angle_beta 90.000000
_cell_angle_gamma 90.000000
_cell_volume 3886.528044
_symmetry_space_group_name_H-M "I B C A "
_symmetry_group_IT_number 73
_symmetry_cell_setting 'orthorhombic'
loop_
_space_group_symop_operation_xyz
x,y,z
-x,1/2-y,z
x,-y,1/2-z
1/2-x,y,-z
-x,-y,-z
x,1/2+y,-z
-x,y,1/2+z
1/2+x,-y,z
1/2+x,1/2+y,1/2+z
1/2-x,-y,1/2+z
1/2+x,1/2-y,-z
-x,1/2+y,1/2-z
1/2-x,1/2-y,1/2-z
1/2+x,y,1/2-z
1/2-x,1/2+y,z
x,1/2-y,1/2+z
loop_
_atom_site_type_symbol
_atom_site_label
_atom_site_fract_x
_atom_site_fract_y
_atom_site_fract_z
Si Si1 0.500000 0.250000 0.465855
Si Si2 0.587227 0.203611 0.717157
Si Si3 0.775456 0.658282 0.941411
Si Si4 0.980853 0.603175 0.716488
Si Si5 0.225523 0.894867 0.558878
Si Si6 0.559767 0.469244 0.131392
O O1 0.750000 0.231546 0.500000
O O2 0.385580 0.209707 0.429912
O O3 0.500000 0.250000 0.685603
O O4 0.397441 0.205553 0.766440
O O5 0.539323 0.154163 0.690678
O O6 0.480849 0.645022 0.921729
O O7 0.984365 0.620468 0.919935
O O8 0.750000 0.654994 0.000000
O O9 0.782973 0.597255 0.763466
O O10 0.897205 0.565449 0.676638
O O11 0.250000 0.899952 0.500000
O O12 0.127949 0.943648 0.579983
O O13 0.254868 0.486830 0.134293
#
# Coordination Sequence:
#
# PCOD8295522 Si02
#       6
#     8  16  16  16  16  16
#     4  10  16  26  50  86 118 148 194 236 282 360
#     4   8  14  27  51  81 109 141 180 217 269 340
#     4   9  17  31  54  82 113 151 190 235 292 347
#     4  10  21  38  61  88 117 152 188 240 301 361
#     4  10  21  38  58  81 113 156 199 249 300 350
#     4  12  26  41  60  86 113 155 203 254 307 358
#
# _framework density 22.642318
#
# number of rings (size 3 to 8) (size 9 to 14) (size 15 to 20)
#    0.000    2.182    0.000    4.909    0.000    2.909 
#    0.000    0.000    4.000    0.000    4.727    0.000 
#    0.000    0.000    0.000    0.000    0.000    0.000 
#
# Total GULP energy -545119.395003 kJ/mol
# GULP energy per Si atom -12389.077159 kJ/mol
# Density = 2.259078 g / cm^3
# Si number density = 22.642318 Si / 1000 Ang^3
#
#
#
# Elastic Constant Matrix: (Units=GPa)
#
#
# Indices 1 2 3 4 5 6 
#
# 1 93.1465 19.9136 12.5389 0.0000 0.0000 0.0000
# 2 19.9136 139.9538 33.3541 0.0000 0.0000 0.0000
# 3 12.5389 33.3541 37.9235 0.0000 0.0000 0.0000
# 4 0.0000 0.0000 0.0000 10.0020 0.0000 0.0000
# 5 0.0000 0.0000 0.0000 0.0000 14.0099 0.0000
# 6 0.0000 0.0000 0.0000 0.0000 0.0000 42.0972
#
#
#
# Elastic Compliance Matrix: (Units=1/GPa)
#
#
# Indices 1 2 3 4 5 6 
#
# 1 0.011327 -0.000910 -0.002945 0.000000 0.000000 0.000000
# 2 -0.000910 0.009113 -0.007714 0.000000 0.000000 0.000000
# 3 -0.002945 -0.007714 0.034127 0.000000 0.000000 0.000000
# 4 0.000000 0.000000 0.000000 0.099980 0.000000 0.000000
# 5 0.000000 0.000000 0.000000 0.000000 0.071378 0.000000
# 6 0.000000 0.000000 0.000000 0.000000 0.000000 0.023755
#
#
# Mechanical properties :
#
#
# Convention : Reuss Voigt Hill
#
# Bulk Modulus (GPa) = 31.81746 44.73746 38.27746
# Shear Modulus (GPa) = 17.64951 26.90297 22.27624
#
# Velocity S-wave (km/s) = 2.79497 3.45073 3.14001
# Velocity P-wave (km/s) = 4.94960 5.97310 5.48527
#
# Compressibility (1/GPa) = 0.03142928
#
# Stress axis : x y z
#
# Youngs Moduli (GPa) = 88.28695 109.73144 29.30204
#
# Poissons Ratio (x) = 0.09984 0.08629
# Poissons Ratio (y) = 0.08033 0.22604
# Poissons Ratio (z) = 0.25999 0.84650
#
# Static dielectric constant tensor:
#      x y z
#    x 4.529090 0.000000 0.000000 
#    y 0.000000 4.469870 0.000000 
#    z 0.000000 0.000000 3.342310 
# 
# 
# High freq. dielectric constant tensor:
#      x y z
#    x 1.919500 0.000000 0.000000 
#    y 0.000000 1.907040 0.000000 
#    z 0.000000 0.000000 1.821870 
# 
# From -- ./inp_files/33302.got.cif
#   From: 2010.03.12/outbox.cif.g09.slc.cpg/sg73_17_cif.got.tgz:33302.got - 2010.04.16 15:25:48.
