data_PCOD8295548
_publ_section_title
;
Structure prediction by ZEFSAII (Michael W. Deem and Ramdas Pophale) SiO2 
 PCOD8295548
Probable space group: I B C A 
;
_chemical_formula_sum "Si O2"
_cell_formula_units_Z 120
_cell_length_a 26.435737
_cell_length_b 17.868837
_cell_length_c 12.210875
_cell_angle_alpha 90.000000
_cell_angle_beta 90.000000
_cell_angle_gamma 90.000000
_cell_volume 5768.122768
_symmetry_space_group_name_H-M "I B C A "
_symmetry_group_IT_number 73
_symmetry_cell_setting 'orthorhombic'
loop_
_space_group_symop_operation_xyz
x,y,z
-x,1/2-y,z
x,-y,1/2-z
1/2-x,y,-z
-x,-y,-z
x,1/2+y,-z
-x,y,1/2+z
1/2+x,-y,z
1/2+x,1/2+y,1/2+z
1/2-x,-y,1/2+z
1/2+x,1/2-y,-z
-x,1/2+y,1/2-z
1/2-x,1/2-y,1/2-z
1/2+x,y,1/2-z
1/2-x,1/2+y,z
x,1/2-y,1/2+z
loop_
_atom_site_type_symbol
_atom_site_label
_atom_site_fract_x
_atom_site_fract_y
_atom_site_fract_z
Si Si1 0.545154 0.912639 0.731480
Si Si2 0.539923 0.317703 0.698382
Si Si3 0.675559 0.500000 0.250000
Si Si4 0.195135 0.619440 0.958585
Si Si5 0.634864 0.271709 0.826629
Si Si6 0.365842 0.852501 0.330476
Si Si7 0.696653 0.041383 0.983713
Si Si8 0.100256 0.854651 0.977869
O O1 0.487083 0.892837 0.756275
O O2 0.573310 0.857070 0.820616
O O3 0.561492 0.891717 0.607786
O O4 0.555344 0.000000 0.750000
O O5 0.500000 0.250000 0.687881
O O6 0.580998 0.304240 0.792654
O O7 0.568700 0.334339 0.585234
O O8 0.644542 0.576975 0.249584
O O9 0.705537 0.503667 0.136362
O O10 0.177166 0.664737 0.850912
O O11 0.250000 0.647135 0.000000
O O12 0.152723 0.639558 0.047778
O O13 0.194093 0.530627 0.934820
O O14 0.656791 0.221970 0.725766
O O15 0.625913 0.220888 0.933633
O O16 0.647060 0.089779 0.004866
O O17 0.750000 0.086148 0.000000
#
# Coordination Sequence:
#
# PCOD8295548 Si02
#       8
#    16  16   8  16  16  16  16  16
#     4  11  22  41  67  91 122 170 217 262 325 387
#     4  12  26  41  63  95 131 172 216 269 343 375
#     4  10  16  38  66  88 118 164 216 254 310 396
#     4  10  23  40  64  95 132 168 208 263 333 385
#     4  11  23  42  62  94 128 171 209 268 323 393
#     4  10  18  37  64  86 118 166 211 258 305 389
#     4  10  21  42  67  97 125 172 214 266 330 382
#     4  11  24  42  67  96 124 169 226 268 310 402
#
# _framework density 20.803995
#
# number of rings (size 3 to 8) (size 9 to 14) (size 15 to 20)
#    0.000    1.333    6.000    1.600    1.867    2.667 
#    7.200    0.000    0.000    0.000    0.000    0.000 
#    0.000    0.000    0.000    0.000    0.000    0.000 
#
# Total GULP energy -743407.038903 kJ/mol
# GULP energy per Si atom -12390.117315 kJ/mol
# Density = 2.075664 g / cm^3
# Si number density = 20.803995 Si / 1000 Ang^3
#
#
#
# Elastic Constant Matrix: (Units=GPa)
#
#
# Indices 1 2 3 4 5 6 
#
# 1 114.5831 36.1492 31.9965 0.0000 0.0000 0.0000
# 2 36.1492 77.6220 22.1590 0.0000 0.0000 0.0000
# 3 31.9965 22.1590 38.2202 0.0000 0.0000 0.0000
# 4 0.0000 0.0000 0.0000 23.5160 0.0000 0.0000
# 5 0.0000 0.0000 0.0000 0.0000 29.1026 0.0000
# 6 0.0000 0.0000 0.0000 0.0000 0.0000 29.3517
#
#
#
# Elastic Compliance Matrix: (Units=1/GPa)
#
#
# Indices 1 2 3 4 5 6 
#
# 1 0.012046 -0.003273 -0.008187 0.000000 0.000000 0.000000
# 2 -0.003273 0.016327 -0.006726 0.000000 0.000000 0.000000
# 3 -0.008187 -0.006726 0.036918 0.000000 0.000000 0.000000
# 4 0.000000 0.000000 0.000000 0.042524 0.000000 0.000000
# 5 0.000000 0.000000 0.000000 0.000000 0.034361 0.000000
# 6 0.000000 0.000000 0.000000 0.000000 0.000000 0.034070
#
#
# Mechanical properties :
#
#
# Convention : Reuss Voigt Hill
#
# Bulk Modulus (GPa) = 34.57939 45.67052 40.12495
# Shear Modulus (GPa) = 22.49642 25.73543 24.11592
#
# Velocity S-wave (km/s) = 3.29196 3.52098 3.40839
# Velocity P-wave (km/s) = 5.57736 6.20726 5.90072
#
# Compressibility (1/GPa) = 0.02891896
#
# Stress axis : x y z
#
# Youngs Moduli (GPa) = 83.01548 61.24731 27.08723
#
# Poissons Ratio (x) = 0.20045 0.22176
# Poissons Ratio (y) = 0.27169 0.18220
# Poissons Ratio (z) = 0.67965 0.41197
#
# Static dielectric constant tensor:
#      x y z
#    x 3.826990 0.000000 0.000000 
#    y 0.000000 3.939110 0.000000 
#    z 0.000000 0.000000 3.554320 
# 
# 
# High freq. dielectric constant tensor:
#      x y z
#    x 1.814530 0.000000 0.000000 
#    y 0.000000 1.821820 0.000000 
#    z 0.000000 0.000000 1.799310 
# 
# From -- ./inp_files/14371.got.cif
#   From: 2010.03.12/outbox.cif.g09.slc.cpg/sg73_8_cif.got.tgz:14371.got - 2010.04.16 15:25:48.
