data_PCOD8295447
_publ_section_title
;
Structure prediction by ZEFSAII (Michael W. Deem and Ramdas Pophale) SiO2 
 PCOD8295447
Probable space group: I B A M
;
_chemical_formula_sum "Si O2"
_cell_formula_units_Z 96
_cell_length_a 13.586120
_cell_length_b 23.469464
_cell_length_c 14.549568
_cell_angle_alpha 90.000000
_cell_angle_beta 90.000000
_cell_angle_gamma 90.000000
_cell_volume 4639.260037
_symmetry_space_group_name_H-M "I B A M"
_symmetry_group_IT_number 72
_symmetry_cell_setting 'orthorhombic'
loop_
_space_group_symop_operation_xyz
x,y,z
-x,-y,z
x,-y,1/2-z
-x,y,1/2-z
-x,-y,-z
x,y,-z
-x,y,1/2+z
x,-y,1/2+z
1/2+x,1/2+y,1/2+z
1/2-x,1/2-y,1/2+z
1/2+x,1/2-y,-z
1/2-x,1/2+y,-z
1/2-x,1/2-y,1/2-z
1/2+x,1/2+y,1/2-z
1/2-x,1/2+y,z
1/2+x,1/2-y,z
loop_
_atom_site_type_symbol
_atom_site_label
_atom_site_fract_x
_atom_site_fract_y
_atom_site_fract_z
Si Si1 0.250935 0.776581 0.149416
Si Si2 0.627865 0.786861 0.000000
Si Si3 0.418541 0.621631 0.000000
Si Si4 0.534094 0.439921 0.647131
Si Si5 0.904887 0.254177 0.500000
Si Si6 0.885302 0.503026 0.142234
Si Si7 0.260116 0.599199 0.604528
Si Si8 0.700137 0.083485 0.500000
O O1 0.250000 0.750000 0.250000
O O2 0.353626 0.773996 0.094413
O O3 0.233340 0.843731 0.165192
O O4 0.167567 0.744410 0.090854
O O5 0.511469 0.781317 0.000000
O O6 0.654716 0.853454 0.000000
O O7 0.484343 0.610012 0.910756
O O8 0.318154 0.585688 0.000000
O O9 0.394479 0.687139 0.000000
O O10 0.500000 0.500000 0.605889
O O11 0.500000 0.431459 0.750000
O O12 0.651787 0.440521 0.639900
O O13 0.866684 0.500000 0.250000
O O14 0.841359 0.563831 0.110757
O O15 0.000000 0.500000 0.116530
O O16 0.832416 0.450544 0.091242
O O17 0.276518 0.618644 0.500000
#
# Coordination Sequence:
#
# PCOD8295447 Si02
#       8
#    16   8   8  16   8  16  16   8
#     4  11  26  47  69 103 135 183 231 279 348 405
#     4  11  25  46  68 105 139 176 233 284 343 410
#     4  12  23  44  68  97 138 174 222 284 339 402
#     4  11  26  41  67 103 137 175 223 270 345 410
#     4  11  25  46  68  98 136 178 227 286 340 408
#     4  11  28  46  68 101 136 179 232 278 341 405
#     4  12  24  46  73  95 141 180 226 287 333 412
#     4  12  25  42  74  97 141 175 225 286 342 399
#
# _framework density 20.692955000000001
#
# number of rings (size 3 to 8) (size 9 to 14) (size 15 to 20)
#    0.000    0.667    5.000    2.500   11.667    0.667 
#    0.000    0.000    0.000    0.000    0.000    0.000 
#    0.000    0.000    0.000    0.000    0.000    0.000 
#
# Total GULP energy -595316.724710 kJ/mol
# GULP energy per Si atom -12402.431765 kJ/mol
# Density = 2.064586 g / cm^3
# Si number density = 20.692955 Si / 1000 Ang^3
#
#
#
# Elastic Constant Matrix: (Units=GPa)
#
#
# Indices 1 2 3 4 5 6 
#
# 1 143.7119 45.5078 50.0059 0.0002 0.0000 0.0000
# 2 45.5078 148.5967 37.4717 -0.0008 -0.0002 0.0000
# 3 50.0059 37.4717 127.3550 -0.0010 -0.0002 0.0001
# 4 0.0002 -0.0008 -0.0010 33.7285 -0.0002 0.0001
# 5 0.0000 -0.0002 -0.0002 -0.0002 23.3327 0.0000
# 6 0.0000 0.0000 0.0001 0.0001 0.0000 28.2431
#
#
#
# Elastic Compliance Matrix: (Units=1/GPa)
#
#
# Indices 1 2 3 4 5 6 
#
# 1 0.008534 -0.001910 -0.002789 0.000000 0.000000 0.000000
# 2 -0.001910 0.007697 -0.001515 0.000000 0.000000 0.000000
# 3 -0.002789 -0.001515 0.009393 0.000000 0.000000 0.000000
# 4 0.000000 0.000000 0.000000 0.029649 0.000000 0.000000
# 5 0.000000 0.000000 0.000000 0.000000 0.042858 0.000000
# 6 0.000000 0.000000 0.000000 0.000000 0.000000 0.035407
#
#
# Mechanical properties :
#
#
# Convention : Reuss Voigt Hill
#
# Bulk Modulus (GPa) = 75.78046 76.18160 75.98103
# Shear Modulus (GPa) = 33.25311 36.17274 34.71292
#
# Velocity S-wave (km/s) = 4.01306 4.18553 4.10020
# Velocity P-wave (km/s) = 7.62717 7.76230 7.69503
#
# Compressibility (1/GPa) = 0.01319601
#
# Stress axis : x y z
#
# Youngs Moduli (GPa) = 117.18389 129.92853 106.46610
#
# Poissons Ratio (x) = 0.24819 0.29690
# Poissons Ratio (y) = 0.22384 0.16125
# Poissons Ratio (z) = 0.32679 0.19678
#
# Static dielectric constant tensor:
#      x y z
#    x 2.991250 0.000000 0.000000 
#    y 0.000000 4.021240 0.000000 
#    z 0.000000 0.000000 3.800850 
# 
# 
# High freq. dielectric constant tensor:
#      x y z
#    x 1.820150 0.000000 0.000000 
#    y 0.000000 1.821650 0.000000 
#    z 0.000000 0.000000 1.815470 
# 
# From -- ./inp_files/22061.got.cif
#   From: 2010.03.12/outbox.cif.g09.slc.cpg/sg72_12_cif.got.tgz:22061.got - 2010.04.16 14:54:00.
