data_PCOD8295705
_publ_section_title
;
Structure prediction by ZEFSAII (Michael W. Deem and Ramdas Pophale) SiO2 
 PCOD8295705
Probable space group: I B C A 
;
_chemical_formula_sum "Si O2"
_cell_formula_units_Z 120
_cell_length_a 8.040957
_cell_length_b 27.332425
_cell_length_c 30.374697
_cell_angle_alpha 90.000000
_cell_angle_beta 90.000000
_cell_angle_gamma 90.000000
_cell_volume 6675.716101
_symmetry_space_group_name_H-M "I B C A "
_symmetry_group_IT_number 73
_symmetry_cell_setting 'orthorhombic'
loop_
_space_group_symop_operation_xyz
x,y,z
-x,1/2-y,z
x,-y,1/2-z
1/2-x,y,-z
-x,-y,-z
x,1/2+y,-z
-x,y,1/2+z
1/2+x,-y,z
1/2+x,1/2+y,1/2+z
1/2-x,-y,1/2+z
1/2+x,1/2-y,-z
-x,1/2+y,1/2-z
1/2-x,1/2-y,1/2-z
1/2+x,y,1/2-z
1/2-x,1/2+y,z
x,1/2-y,1/2+z
loop_
_atom_site_type_symbol
_atom_site_label
_atom_site_fract_x
_atom_site_fract_y
_atom_site_fract_z
Si Si1 0.000000 0.750000 0.897323
Si Si2 0.284974 0.584706 0.691734
Si Si3 0.740375 0.382635 0.551465
Si Si4 0.176399 0.223977 0.451833
Si Si5 0.477809 0.856086 0.124889
Si Si6 0.630438 0.448525 0.772623
Si Si7 0.775962 0.440484 0.134265
Si Si8 0.589143 0.460219 0.613753
O O1 0.174788 0.753581 0.922987
O O2 0.981744 0.799009 0.868323
O O3 0.342155 0.631939 0.663472
O O4 0.447599 0.556028 0.707634
O O5 0.176226 0.594005 0.736302
O O6 0.177761 0.550905 0.659765
O O7 0.750000 0.394853 0.500000
O O8 0.633162 0.333020 0.558376
O O9 0.913945 0.368768 0.575528
O O10 0.670841 0.431725 0.573277
O O11 0.250000 0.229832 0.500000
O O12 0.000000 0.250000 0.444551
O O13 0.645743 0.886897 0.129368
O O14 0.654940 0.500000 0.750000
O O15 0.756588 0.447704 0.813654
O O16 0.599706 0.443209 0.110984
O O17 0.895983 0.480795 0.110553
#
# Coordination Sequence:
#
# PCOD8295705 Si02
#       8
#     8  16  16  16  16  16  16  16
#     4  10  20  38  60  80 118 152 188 244 300 350
#     4  10  20  32  52  81 114 139 181 225 285 339
#     4   9  20  38  56  80 114 150 191 238 283 339
#     4  10  19  33  58  89 113 141 188 254 307 341
#     4   9  21  38  56  83 113 150 187 238 286 340
#     4  11  19  29  52  82 108 141 175 226 283 338
#     4  11  22  35  55  81 114 148 189 228 285 338
#     4  11  21  36  52  78 114 153 181 235 278 343
#
# _framework density 17.9756
#
# number of rings (size 3 to 8) (size 9 to 14) (size 15 to 20)
#    0.000    1.867    2.000    3.600    1.867    0.000 
#    0.000    3.333    0.000    3.200    0.000    0.000 
#    0.000    0.000    0.000    0.000    0.000    0.000 
#
# Total GULP energy -743318.805493 kJ/mol
# GULP energy per Si atom -12388.646758 kJ/mol
# Density = 1.793469 g / cm^3
# Si number density = 17.975600 Si / 1000 Ang^3
#
#
#
# Elastic Constant Matrix: (Units=GPa)
#
#
# Indices 1 2 3 4 5 6 
#
# 1 91.1901 37.9691 21.0012 0.0000 0.0000 0.0000
# 2 37.9691 130.5041 45.7564 0.0000 0.0000 0.0000
# 3 21.0012 45.7564 93.3604 0.0000 0.0000 0.0000
# 4 0.0000 0.0000 0.0000 17.2802 0.0000 0.0000
# 5 0.0000 0.0000 0.0000 0.0000 16.7692 0.0000
# 6 0.0000 0.0000 0.0000 0.0000 0.0000 22.9092
#
#
#
# Elastic Compliance Matrix: (Units=1/GPa)
#
#
# Indices 1 2 3 4 5 6 
#
# 1 0.012598 -0.003226 -0.001253 0.000000 0.000000 0.000000
# 2 -0.003226 0.010079 -0.004214 0.000000 0.000000 0.000000
# 3 -0.001253 -0.004214 0.013058 0.000000 0.000000 0.000000
# 4 0.000000 0.000000 0.000000 0.057870 0.000000 0.000000
# 5 0.000000 0.000000 0.000000 0.000000 0.059633 0.000000
# 6 0.000000 0.000000 0.000000 0.000000 0.000000 0.043651
#
#
# Mechanical properties :
#
#
# Convention : Reuss Voigt Hill
#
# Bulk Modulus (GPa) = 54.49784 58.27865 56.38824
# Shear Modulus (GPa) = 22.68706 25.41358 24.05032
#
# Velocity S-wave (km/s) = 3.55646 3.76411 3.66176
# Velocity P-wave (km/s) = 6.87372 7.16817 7.02249
#
# Compressibility (1/GPa) = 0.01834935
#
# Stress axis : x y z
#
# Youngs Moduli (GPa) = 79.37867 99.21996 76.58000
#
# Poissons Ratio (x) = 0.32008 0.09594
# Poissons Ratio (y) = 0.25608 0.32270
# Poissons Ratio (z) = 0.09944 0.41810
#
# Static dielectric constant tensor:
#      x y z
#    x 3.322410 0.000000 0.000000 
#    y 0.000000 3.329640 0.000000 
#    z 0.000000 0.000000 3.596780 
# 
# 
# High freq. dielectric constant tensor:
#      x y z
#    x 1.697520 0.000000 0.000000 
#    y 0.000000 1.680420 0.000000 
#    z 0.000000 0.000000 1.691450 
# 
# From -- ./inp_files/33680.got.cif
#   From: 2010.03.12/outbox.cif.g09.slc.cpg/sg73_17_cif.got.tgz:33680.got - 2010.04.16 15:25:48.
