data_PCOD8295306
_publ_section_title
;
Structure prediction by ZEFSAII (Michael W. Deem and Ramdas Pophale) SiO2 
 PCOD8295306
Probable space group: I B A M
;
_chemical_formula_sum "Si O2"
_cell_formula_units_Z 64
_cell_length_a 17.158407
_cell_length_b 13.130558
_cell_length_c 14.066662
_cell_angle_alpha 90.000000
_cell_angle_beta 90.000000
_cell_angle_gamma 90.000000
_cell_volume 3169.211329
_symmetry_space_group_name_H-M "I B A M"
_symmetry_group_IT_number 72
_symmetry_cell_setting 'orthorhombic'
loop_
_space_group_symop_operation_xyz
x,y,z
-x,-y,z
x,-y,1/2-z
-x,y,1/2-z
-x,-y,-z
x,y,-z
-x,y,1/2+z
x,-y,1/2+z
1/2+x,1/2+y,1/2+z
1/2-x,1/2-y,1/2+z
1/2+x,1/2-y,-z
1/2-x,1/2+y,-z
1/2-x,1/2-y,1/2-z
1/2+x,1/2+y,1/2-z
1/2-x,1/2+y,z
1/2+x,1/2-y,z
loop_
_atom_site_type_symbol
_atom_site_label
_atom_site_fract_x
_atom_site_fract_y
_atom_site_fract_z
Si Si1 0.776245 0.766528 0.645735
Si Si2 0.952749 0.254606 0.848372
Si Si3 0.028707 0.116769 0.000000
Si Si4 0.570210 0.073492 0.500000
Si Si5 0.209305 0.121055 0.000000
Si Si6 0.781241 0.575418 0.000000
O O1 0.750000 0.750000 0.750000
O O2 0.866893 0.794396 0.657649
O O3 0.758495 0.662470 0.589799
O O4 0.725817 0.854829 0.593902
O O5 0.000000 0.275097 0.750000
O O6 0.938829 0.359398 0.904945
O O7 0.000161 0.170170 0.904772
O O8 0.119198 0.146572 0.000000
O O9 0.000000 0.000000 0.000000
O O10 0.500000 0.000000 0.500000
O O11 0.644928 0.999487 0.500000
O O12 0.207439 0.998926 0.000000
#
# Coordination Sequence:
#
# PCOD8295306 Si02
#       6
#    16  16   8   8   8   8
#     4  11  24  41  67  96 131 176 220 282 340 395
#     4  11  24  45  65 102 143 172 228 286 345 411
#     4  11  23  41  70  95 133 185 225 279 349 400
#     4  11  25  43  68  98 134 188 222 274 350 409
#     4  11  21  43  65  94 128 173 225 274 333 403
#     4  11  23  45  69  94 133 171 234 277 330 415
#
# _framework density 20.194299999999998
#
# number of rings (size 3 to 8) (size 9 to 14) (size 15 to 20)
#    0.000    1.000    2.500    5.250   10.500    2.000 
#    0.000    5.000    0.000    0.000    0.000    0.000 
#    0.000    0.000    0.000    0.000    0.000    0.000 
#
# Total GULP energy -396428.849343 kJ/mol
# GULP energy per Si atom -12388.401542 kJ/mol
# Density = 2.014834 g / cm^3
# Si number density = 20.194300 Si / 1000 Ang^3
#
#
#
# Elastic Constant Matrix: (Units=GPa)
#
#
# Indices 1 2 3 4 5 6 
#
# 1 151.0820 44.2919 63.7784 0.0000 0.0000 0.0000
# 2 44.2919 134.2137 69.5364 0.0000 0.0000 0.0000
# 3 63.7784 69.5364 192.0803 0.0000 0.0000 0.0000
# 4 0.0000 0.0000 0.0000 10.4908 0.0000 0.0000
# 5 0.0000 0.0000 0.0000 0.0000 31.9217 0.0000
# 6 0.0000 0.0000 0.0000 0.0000 0.0000 41.3475
#
#
#
# Elastic Compliance Matrix: (Units=1/GPa)
#
#
# Indices 1 2 3 4 5 6 
#
# 1 0.007950 -0.001546 -0.002080 0.000000 0.000000 0.000000
# 2 -0.001546 0.009472 -0.002916 0.000000 0.000000 0.000000
# 3 -0.002080 -0.002916 0.006952 0.000000 0.000000 0.000000
# 4 0.000000 0.000000 0.000000 0.095322 0.000000 0.000000
# 5 0.000000 0.000000 0.000000 0.000000 0.031327 0.000000
# 6 0.000000 0.000000 0.000000 0.000000 0.000000 0.024185
#
#
# Mechanical properties :
#
#
# Convention : Reuss Voigt Hill
#
# Bulk Modulus (GPa) = 88.56730 92.50996 90.53863
# Shear Modulus (GPa) = 26.03427 36.73660 31.38543
#
# Velocity S-wave (km/s) = 3.59442 4.26978 3.94658
# Velocity P-wave (km/s) = 7.82172 8.37959 8.10545
#
# Compressibility (1/GPa) = 0.01129085
#
# Stress axis : x y z
#
# Youngs Moduli (GPa) = 125.78205 105.57951 143.83670
#
# Poissons Ratio (x) = 0.16322 0.29920
# Poissons Ratio (y) = 0.19445 0.41936
# Poissons Ratio (z) = 0.26165 0.30782
#
# Static dielectric constant tensor:
#      x y z
#    x 7.265320 0.000000 0.000000 
#    y 0.000000 3.226590 0.000000 
#    z 0.000000 0.000000 3.648400 
# 
# 
# High freq. dielectric constant tensor:
#      x y z
#    x 1.815650 0.000000 0.000000 
#    y 0.000000 1.794340 0.000000 
#    z 0.000000 0.000000 1.788420 
# 
# From -- ./inp_files/22853.got.cif
#   From: 2010.03.12/outbox.cif.g09.slc.cpg/sg72_12_cif.got.tgz:22853.got - 2010.04.16 14:54:00.
