data_PCOD8295144
_publ_section_title
;
Structure prediction by ZEFSAII (Michael W. Deem and Ramdas Pophale) SiO2 
 PCOD8295144
Probable space group: I B A M
;
_chemical_formula_sum "Si O2"
_cell_formula_units_Z 80
_cell_length_a 14.210956
_cell_length_b 11.377278
_cell_length_c 23.100215
_cell_angle_alpha 90.000000
_cell_angle_beta 90.000000
_cell_angle_gamma 90.000000
_cell_volume 3734.888894
_symmetry_space_group_name_H-M "I B A M"
_symmetry_group_IT_number 72
_symmetry_cell_setting 'orthorhombic'
loop_
_space_group_symop_operation_xyz
x,y,z
-x,-y,z
x,-y,1/2-z
-x,y,1/2-z
-x,-y,-z
x,y,-z
-x,y,1/2+z
x,-y,1/2+z
1/2+x,1/2+y,1/2+z
1/2-x,1/2-y,1/2+z
1/2+x,1/2-y,-z
1/2-x,1/2+y,-z
1/2-x,1/2-y,1/2-z
1/2+x,1/2+y,1/2-z
1/2-x,1/2+y,z
1/2+x,1/2-y,z
loop_
_atom_site_type_symbol
_atom_site_label
_atom_site_fract_x
_atom_site_fract_y
_atom_site_fract_z
Si Si1 0.106590 0.533111 0.636964
Si Si2 0.398192 0.217789 0.730002
Si Si3 0.533346 0.366577 0.867813
Si Si4 0.346297 0.775187 0.644638
Si Si5 0.674723 0.771461 0.433875
O O1 0.144714 0.614434 0.690021
O O2 0.164809 0.413666 0.632279
O O3 0.117362 0.607769 0.577685
O O4 0.000000 0.500000 0.648083
O O5 0.500000 0.171316 0.750000
O O6 0.412869 0.337415 0.692550
O O7 0.332853 0.245108 0.785966
O O8 0.500000 0.500000 0.869298
O O9 0.445528 0.278582 0.875612
O O10 0.607613 0.340055 0.919161
O O11 0.265058 0.715687 0.607527
O O12 0.707123 0.762186 0.500000
#
# Coordination Sequence:
#
# PCOD8295144 Si02
#       5
#    16  16  16  16  16
#     4  11  20  41  68  99 126 169 223 276 336 390
#     4   9  18  36  69  97 133 166 207 272 332 401
#     4  10  23  43  66  97 137 175 219 267 338 398
#     4  11  23  40  68  99 133 174 220 268 340 391
#     4  11  27  45  64  95 133 178 234 277 316 382
#
# _framework density 21.419646
#
# number of rings (size 3 to 8) (size 9 to 14) (size 15 to 20)
#    0.000    1.600    6.000    0.600    2.800    9.200 
#    0.000    0.000    4.400    0.000    0.000    0.000 
#    0.000    0.000    0.000    0.000    0.000    0.000 
#
# Total GULP energy -495793.155701 kJ/mol
# GULP energy per Si atom -12394.828893 kJ/mol
# Density = 2.137089 g / cm^3
# Si number density = 21.419646 Si / 1000 Ang^3
#
#
#
# Elastic Constant Matrix: (Units=GPa)
#
#
# Indices 1 2 3 4 5 6 
#
# 1 61.1275 18.7784 67.3641 0.0000 0.0000 0.0000
# 2 18.7784 120.3829 55.5194 0.0000 0.0000 0.0000
# 3 67.3641 55.5194 152.4336 0.0000 0.0000 0.0000
# 4 0.0000 0.0000 0.0000 19.0522 0.0000 0.0000
# 5 0.0000 0.0000 0.0000 0.0000 29.2996 0.0000
# 6 0.0000 0.0000 0.0000 0.0000 0.0000 17.3438
#
#
#
# Elastic Compliance Matrix: (Units=1/GPa)
#
#
# Indices 1 2 3 4 5 6 
#
# 1 0.032230 0.001852 -0.014918 0.000000 0.000000 0.000000
# 2 0.001852 0.010090 -0.004494 0.000000 0.000000 0.000000
# 3 -0.014918 -0.004494 0.014790 0.000000 0.000000 0.000000
# 4 0.000000 0.000000 0.000000 0.052487 0.000000 0.000000
# 5 0.000000 0.000000 0.000000 0.000000 0.034130 0.000000
# 6 0.000000 0.000000 0.000000 0.000000 0.000000 0.057657
#
#
# Mechanical properties :
#
#
# Convention : Reuss Voigt Hill
#
# Bulk Modulus (GPa) = 45.47205 68.58533 57.02869
# Shear Modulus (GPa) = 20.50575 25.95794 23.23184
#
# Velocity S-wave (km/s) = 3.09744 3.48498 3.29691
# Velocity P-wave (km/s) = 5.83673 6.94858 6.41678
#
# Compressibility (1/GPa) = 0.02199153
#
# Stress axis : x y z
#
# Youngs Moduli (GPa) = 31.02683 99.10470 67.61518
#
# Poissons Ratio (x) = -0.18359 1.00868
# Poissons Ratio (y) = -0.05748 0.30385
# Poissons Ratio (z) = 0.46286 0.44535
#
# Static dielectric constant tensor:
#      x y z
#    x 3.781320 0.000000 0.000000 
#    y 0.000000 4.160900 0.000000 
#    z 0.000000 0.000000 3.846020 
# 
# 
# High freq. dielectric constant tensor:
#      x y z
#    x 1.836510 0.000000 0.000000 
#    y 0.000000 1.835790 0.000000 
#    z 0.000000 0.000000 1.823770 
# 
# From -- ./inp_files/44063.got.cif
#   From: 2010.03.12/outbox.cif.g09.slc.cpg/sg72_23_cif.got.tgz:44063.got - 2010.04.16 14:54:00.
