data_PCOD8295926
_publ_section_title
;
Structure prediction by ZEFSAII (Michael W. Deem and Ramdas Pophale) SiO2 
 PCOD8295926
Probable space group: I B C A 
;
_chemical_formula_sum "Si O2"
_cell_formula_units_Z 64
_cell_length_a 8.587596
_cell_length_b 21.777728
_cell_length_c 16.067206
_cell_angle_alpha 90.000000
_cell_angle_beta 90.000000
_cell_angle_gamma 90.000000
_cell_volume 3004.862032
_symmetry_space_group_name_H-M "I B C A "
_symmetry_group_IT_number 73
_symmetry_cell_setting 'orthorhombic'
loop_
_space_group_symop_operation_xyz
x,y,z
-x,1/2-y,z
x,-y,1/2-z
1/2-x,y,-z
-x,-y,-z
x,1/2+y,-z
-x,y,1/2+z
1/2+x,-y,z
1/2+x,1/2+y,1/2+z
1/2-x,-y,1/2+z
1/2+x,1/2-y,-z
-x,1/2+y,1/2-z
1/2-x,1/2-y,1/2-z
1/2+x,y,1/2-z
1/2-x,1/2+y,z
x,1/2-y,1/2+z
loop_
_atom_site_type_symbol
_atom_site_label
_atom_site_fract_x
_atom_site_fract_y
_atom_site_fract_z
Si Si1 0.143853 0.568937 0.843852
Si Si2 0.539794 0.181703 0.826786
Si Si3 0.633974 0.869721 0.318349
Si Si4 0.535988 0.032905 0.586760
O O1 0.199756 0.579773 0.748597
O O2 0.282667 0.549011 0.904939
O O3 0.063739 0.632207 0.878483
O O4 0.012025 0.516305 0.843061
O O5 0.500000 0.250000 0.856140
O O6 0.499319 0.171357 0.727957
O O7 0.722479 0.172724 0.845480
O O8 0.563047 0.904428 0.398674
O O9 0.500000 0.000000 0.500000
#
# Coordination Sequence:
#
# PCOD8295926 Si02
#       4
#    16  16  16  16
#     4  10  22  37  58  90 127 165 217 259 317 380
#     4  10  20  37  66  93 128 162 223 269 306 368
#     4  10  20  37  61  93 127 163 215 263 317 377
#     4  12  23  39  61  93 131 170 207 268 332 387
#
# _framework density 21.298815000000001
#
# number of rings (size 3 to 8) (size 9 to 14) (size 15 to 20)
#    1.500    0.000    2.500    3.750    0.000    2.000 
#    0.000    0.000    0.000    7.500    0.000    0.000 
#    0.000    0.000    0.000    0.000    0.000    0.000 
#
# Total GULP energy -396462.843635 kJ/mol
# GULP energy per Si atom -12389.463864 kJ/mol
# Density = 2.125034 g / cm^3
# Si number density = 21.298815 Si / 1000 Ang^3
#
#
#
# Elastic Constant Matrix: (Units=GPa)
#
#
# Indices 1 2 3 4 5 6 
#
# 1 116.6284 49.7994 6.2612 0.0000 0.0000 0.0000
# 2 49.7994 114.8872 -7.9059 0.0000 0.0000 0.0000
# 3 6.2612 -7.9059 35.4435 0.0001 0.0000 0.0000
# 4 0.0000 0.0000 0.0001 17.7648 0.0000 0.0000
# 5 0.0000 0.0000 0.0000 0.0000 19.1590 0.0000
# 6 0.0000 0.0000 0.0000 0.0000 0.0000 44.6302
#
#
#
# Elastic Compliance Matrix: (Units=1/GPa)
#
#
# Indices 1 2 3 4 5 6 
#
# 1 0.010828 -0.004900 -0.003006 0.000000 0.000000 0.000000
# 2 -0.004900 0.011058 0.003332 0.000000 0.000000 0.000000
# 3 -0.003006 0.003332 0.029488 0.000000 0.000000 0.000000
# 4 0.000000 0.000000 0.000000 0.056291 0.000000 0.000000
# 5 0.000000 0.000000 0.000000 0.000000 0.052195 0.000000
# 6 0.000000 0.000000 0.000000 0.000000 0.000000 0.022406
#
#
# Mechanical properties :
#
#
# Convention : Reuss Voigt Hill
#
# Bulk Modulus (GPa) = 23.68233 40.36316 32.02274
# Shear Modulus (GPa) = 24.33214 30.89777 27.61496
#
# Velocity S-wave (km/s) = 3.38363 3.81291 3.60467
# Velocity P-wave (km/s) = 5.13892 6.19487 5.69144
#
# Compressibility (1/GPa) = 0.04222558
#
# Stress axis : x y z
#
# Youngs Moduli (GPa) = 92.35278 90.43527 33.91192
#
# Poissons Ratio (x) = 0.44317 0.10193
# Poissons Ratio (y) = 0.45257 -0.11300
# Poissons Ratio (z) = 0.27760 -0.30134
#
# Static dielectric constant tensor:
#      x y z
#    x 3.846320 0.000000 0.000000 
#    y 0.000000 3.769550 0.000000 
#    z 0.000000 0.000000 3.284630 
# 
# 
# High freq. dielectric constant tensor:
#      x y z
#    x 1.845180 0.000000 0.000000 
#    y 0.000000 1.829630 0.000000 
#    z 0.000000 0.000000 1.780360 
# 
# From -- ./inp_files/5940.got.cif
#   From: 2010.03.12/outbox.cif.g09.slc.cpg/sg73_3_cif.got.tgz:5940.got - 2010.04.16 15:25:48.
