data_PCOD8295256
_publ_section_title
;
Structure prediction by ZEFSAII (Michael W. Deem and Ramdas Pophale) SiO2 
 PCOD8295256
Probable space group: I B A M
;
_chemical_formula_sum "Si O2"
_cell_formula_units_Z 72
_cell_length_a 12.405577
_cell_length_b 13.727043
_cell_length_c 20.487711
_cell_angle_alpha 90.000000
_cell_angle_beta 90.000000
_cell_angle_gamma 90.000000
_cell_volume 3488.891006
_symmetry_space_group_name_H-M "I B A M"
_symmetry_group_IT_number 72
_symmetry_cell_setting 'orthorhombic'
loop_
_space_group_symop_operation_xyz
x,y,z
-x,-y,z
x,-y,1/2-z
-x,y,1/2-z
-x,-y,-z
x,y,-z
-x,y,1/2+z
x,-y,1/2+z
1/2+x,1/2+y,1/2+z
1/2-x,1/2-y,1/2+z
1/2+x,1/2-y,-z
1/2-x,1/2+y,-z
1/2-x,1/2-y,1/2-z
1/2+x,1/2+y,1/2-z
1/2-x,1/2+y,z
1/2+x,1/2-y,z
loop_
_atom_site_type_symbol
_atom_site_label
_atom_site_fract_x
_atom_site_fract_y
_atom_site_fract_z
Si Si1 0.444091 0.861244 0.861450
Si Si2 0.684145 0.253016 0.500000
Si Si3 0.525133 0.387982 0.000000
Si Si4 0.482645 0.887348 0.500000
Si Si5 0.342455 0.951483 0.319650
Si Si6 0.323881 0.687904 0.888941
O O1 0.550973 0.881936 0.817881
O O2 0.383396 0.762643 0.837775
O O3 0.368626 0.956978 0.865902
O O4 0.469295 0.835584 0.936590
O O5 0.586420 0.328563 0.500000
O O6 0.643762 0.139430 0.500000
O O7 0.751621 0.261009 0.433305
O O8 0.500000 0.500000 0.000000
O O9 0.592639 0.368960 0.934373
O O10 0.500000 0.000000 0.500000
O O11 0.241865 0.890189 0.345889
O O12 0.317366 0.000000 0.250000
#
# Coordination Sequence:
#
# PCOD8295256 Si02
#       6
#    16   8   8   8  16  16
#     4  11  21  39  64  91 129 161 209 271 316 375
#     4  11  20  39  57 103 132 154 207 249 330 411
#     4  11  24  38  60  96 137 162 188 260 339 386
#     4  12  16  33  62  91 121 158 198 257 324 373
#     4  11  24  42  63  92 121 171 228 263 298 365
#     4  11  22  39  66  94 127 168 208 258 327 390
#
# _framework density 20.63693
#
# number of rings (size 3 to 8) (size 9 to 14) (size 15 to 20)
#    0.000    0.889    6.667    2.000    3.111    1.778 
#    0.000    0.000    0.000    0.000    0.000    0.000 
#    0.000    0.000    0.000    0.000    0.000    0.000 
#
# Total GULP energy -446061.973054 kJ/mol
# GULP energy per Si atom -12390.610363 kJ/mol
# Density = 2.058996 g / cm^3
# Si number density = 20.636930 Si / 1000 Ang^3
#
#
#
# Elastic Constant Matrix: (Units=GPa)
#
#
# Indices 1 2 3 4 5 6 
#
# 1 123.6146 89.0875 43.1116 0.0000 0.0000 0.0000
# 2 89.0875 144.7071 29.0263 0.0000 0.0000 0.0000
# 3 43.1116 29.0263 92.3845 0.0000 0.0000 0.0000
# 4 0.0000 0.0000 0.0000 11.4446 0.0000 0.0000
# 5 0.0000 0.0000 0.0000 0.0000 5.8646 0.0000
# 6 0.0000 0.0000 0.0000 0.0000 0.0000 55.5091
#
#
#
# Elastic Compliance Matrix: (Units=1/GPa)
#
#
# Indices 1 2 3 4 5 6 
#
# 1 0.016285 -0.009073 -0.004749 0.000000 0.000000 0.000000
# 2 -0.009073 0.012430 0.000328 0.000000 0.000000 0.000000
# 3 -0.004749 0.000328 0.012937 0.000000 0.000000 0.000000
# 4 0.000000 0.000000 0.000000 0.087377 0.000000 0.000000
# 5 0.000000 0.000000 0.000000 0.000000 0.170515 0.000000
# 6 0.000000 0.000000 0.000000 0.000000 0.000000 0.018015
#
#
# Mechanical properties :
#
#
# Convention : Reuss Voigt Hill
#
# Bulk Modulus (GPa) = 68.18621 75.90634 72.04627
# Shear Modulus (GPa) = 14.30887 27.86239 21.08563
#
# Velocity S-wave (km/s) = 2.63603 3.67839 3.19994
# Velocity P-wave (km/s) = 6.50980 7.40961 6.97423
#
# Compressibility (1/GPa) = 0.01466572
#
# Stress axis : x y z
#
# Youngs Moduli (GPa) = 61.40802 80.44876 77.29705
#
# Poissons Ratio (x) = 0.72990 0.36706
# Poissons Ratio (y) = 0.55715 -0.02539
# Poissons Ratio (z) = 0.29160 -0.02642
#
# Static dielectric constant tensor:
#      x y z
#    x 4.022850 0.000000 0.000000 
#    y 0.000000 3.826230 0.000000 
#    z 0.000000 0.000000 3.728660 
# 
# 
# High freq. dielectric constant tensor:
#      x y z
#    x 1.807280 0.000000 0.000000 
#    y 0.000000 1.813850 0.000000 
#    z 0.000000 0.000000 1.789360 
# 
# From -- ./inp_files/43065.got.cif
#   From: 2010.03.12/outbox.cif.g09.slc.cpg/sg72_22_cif.got.tgz:43065.got - 2010.04.16 14:54:00.
