data_PCOD8295234
_publ_section_title
;
Structure prediction by ZEFSAII (Michael W. Deem and Ramdas Pophale) SiO2 
 PCOD8295234
Probable space group: I B A M
;
_chemical_formula_sum "Si O2"
_cell_formula_units_Z 80
_cell_length_a 18.288778
_cell_length_b 14.521473
_cell_length_c 14.134427
_cell_angle_alpha 90.000000
_cell_angle_beta 90.000000
_cell_angle_gamma 90.000000
_cell_volume 3753.821065
_symmetry_space_group_name_H-M "I B A M"
_symmetry_group_IT_number 72
_symmetry_cell_setting 'orthorhombic'
loop_
_space_group_symop_operation_xyz
x,y,z
-x,-y,z
x,-y,1/2-z
-x,y,1/2-z
-x,-y,-z
x,y,-z
-x,y,1/2+z
x,-y,1/2+z
1/2+x,1/2+y,1/2+z
1/2-x,1/2-y,1/2+z
1/2+x,1/2-y,-z
1/2-x,1/2+y,-z
1/2-x,1/2-y,1/2-z
1/2+x,1/2+y,1/2-z
1/2-x,1/2+y,z
1/2+x,1/2-y,z
loop_
_atom_site_type_symbol
_atom_site_label
_atom_site_fract_x
_atom_site_fract_y
_atom_site_fract_z
Si Si1 0.709095 0.284938 0.106758
Si Si2 0.649913 0.596430 0.228270
Si Si3 0.294547 0.920825 0.890508
Si Si4 0.622003 0.241340 0.389922
Si Si5 0.073245 0.454870 0.612345
O O1 0.668346 0.356367 0.172553
O O2 0.674436 0.183270 0.117971
O O3 0.793938 0.279006 0.135586
O O4 0.701178 0.321719 0.000000
O O5 0.607907 0.500000 0.250000
O O6 0.721810 0.566575 0.170139
O O7 0.599026 0.666818 0.167929
O O8 0.356255 0.989677 0.849727
O O9 0.275457 0.942727 0.000000
O O10 0.611163 0.262686 0.500000
O O11 0.575855 0.152367 0.357296
O O12 0.073196 0.463010 0.500000
O O13 0.000000 0.500000 0.655494
#
# Coordination Sequence:
#
# PCOD8295234 Si02
#       5
#    16  16  16  16  16
#     4   9  18  31  48  68  94 132 173 219 263 304
#     4  11  20  29  47  70  99 137 173 214 259 304
#     4   9  17  30  48  73 104 135 170 209 259 316
#     4   9  17  30  47  71 103 133 167 210 259 310
#     4   9  17  30  51  79 110 141 169 205 256 316
#
# _framework density 21.311616999999998
#
# number of rings (size 3 to 8) (size 9 to 14) (size 15 to 20)
#    0.000    2.600    0.000    5.400    0.000    3.200 
#    0.000    0.000    0.000   15.000    0.000    2.800 
#    0.000    8.000    0.000    0.200    0.000    1.800 
#
# Total GULP energy -495880.235964 kJ/mol
# GULP energy per Si atom -12397.005899 kJ/mol
# Density = 2.126311 g / cm^3
# Si number density = 21.311617 Si / 1000 Ang^3
#
#
#
# Elastic Constant Matrix: (Units=GPa)
#
#
# Indices 1 2 3 4 5 6 
#
# 1 44.2364 38.5208 7.1973 0.0000 0.0000 0.0000
# 2 38.5208 183.0496 44.3975 0.0000 0.0000 0.0000
# 3 7.1973 44.3975 57.0249 0.0000 0.0000 0.0000
# 4 0.0000 0.0000 0.0000 30.7460 0.0000 0.0000
# 5 0.0000 0.0000 0.0000 0.0000 1.7561 0.0000
# 6 0.0000 0.0000 0.0000 0.0000 0.0000 27.1322
#
#
#
# Elastic Compliance Matrix: (Units=1/GPa)
#
#
# Indices 1 2 3 4 5 6 
#
# 1 0.027754 -0.006153 0.001287 0.000000 0.000000 0.000000
# 2 -0.006153 0.008099 -0.005529 0.000000 0.000000 0.000000
# 3 0.001287 -0.005529 0.021678 0.000000 0.000000 0.000000
# 4 0.000000 0.000000 0.000000 0.032525 0.000000 0.000000
# 5 0.000000 0.000000 0.000000 0.000000 0.569436 0.000000
# 6 0.000000 0.000000 0.000000 0.000000 0.000000 0.036857
#
#
# Mechanical properties :
#
#
# Convention : Reuss Voigt Hill
#
# Bulk Modulus (GPa) = 27.21629 51.61580 39.41605
# Shear Modulus (GPa) = 6.85509 24.87322 15.86416
#
# Velocity S-wave (km/s) = 1.79543 3.42002 2.73131
# Velocity P-wave (km/s) = 4.13479 6.31407 5.33685
#
# Compressibility (1/GPa) = 0.03674270
#
# Stress axis : x y z
#
# Youngs Moduli (GPa) = 36.03061 123.47548 46.12913
#
# Poissons Ratio (x) = 0.75972 -0.05939
# Poissons Ratio (y) = 0.22169 0.25504
# Poissons Ratio (z) = -0.04639 0.68268
#
# Static dielectric constant tensor:
#      x y z
#    x 3.340050 0.000000 0.000000 
#    y 0.000000 4.328880 0.000000 
#    z 0.000000 0.000000 3.890010 
# 
# 
# High freq. dielectric constant tensor:
#      x y z
#    x 1.758380 0.000000 0.000000 
#    y 0.000000 1.852100 0.000000 
#    z 0.000000 0.000000 1.846980 
# 
# From -- ./inp_files/21574.got.cif
#   From: 2010.03.12/outbox.cif.g09.slc.cpg/sg72_11_cif.got.tgz:21574.got - 2010.04.16 14:54:00.
