data_PCOD8295941
_publ_section_title
;
Structure prediction by ZEFSAII (Michael W. Deem and Ramdas Pophale) SiO2 
 PCOD8295941
Probable space group: I B C A 
;
_chemical_formula_sum "Si O2"
_cell_formula_units_Z 72
_cell_length_a 36.855246
_cell_length_b 5.208470
_cell_length_c 19.560045
_cell_angle_alpha 90.000000
_cell_angle_beta 90.000000
_cell_angle_gamma 90.000000
_cell_volume 3754.735346
_symmetry_space_group_name_H-M "I B C A "
_symmetry_group_IT_number 73
_symmetry_cell_setting 'orthorhombic'
loop_
_space_group_symop_operation_xyz
x,y,z
-x,1/2-y,z
x,-y,1/2-z
1/2-x,y,-z
-x,-y,-z
x,1/2+y,-z
-x,y,1/2+z
1/2+x,-y,z
1/2+x,1/2+y,1/2+z
1/2-x,-y,1/2+z
1/2+x,1/2-y,-z
-x,1/2+y,1/2-z
1/2-x,1/2-y,1/2-z
1/2+x,y,1/2-z
1/2-x,1/2+y,z
x,1/2-y,1/2+z
loop_
_atom_site_type_symbol
_atom_site_label
_atom_site_fract_x
_atom_site_fract_y
_atom_site_fract_z
Si Si1 0.362066 0.500000 0.250000
Si Si2 0.234266 0.269089 0.923906
Si Si3 0.459623 0.281377 0.955946
Si Si4 0.846283 0.272641 0.384829
Si Si5 0.110996 0.252201 0.124708
O O1 0.338206 0.668280 0.303831
O O2 0.387121 0.303244 0.293750
O O3 0.247064 0.528423 0.885266
O O4 0.191066 0.240441 0.925377
O O5 0.250000 0.300538 0.000000
O O6 0.500000 0.250000 0.924645
O O7 0.431058 0.254532 0.894889
O O8 0.453716 0.562148 0.987635
O O9 0.868612 0.516817 0.415223
O O10 0.869657 0.017083 0.394977
#
# Coordination Sequence:
#
# PCOD8295941 Si02
#       5
#     8  16  16  16  16
#     4   8  22  36  64  84 116 152 204 248 282 346
#     4  10  21  39  55  80 118 150 182 245 303 348
#     4  10  21  39  60  90 127 159 191 240 298 351
#     4  10  20  38  59  84 115 153 196 242 294 348
#     4  10  20  38  62  88 115 155 202 242 283 355
#
# _framework density 19.175787
#
# number of rings (size 3 to 8) (size 9 to 14) (size 15 to 20)
#    1.333    0.889    0.000    3.333    0.000    0.000 
#   24.000    1.111    4.889    0.000    0.000    0.000 
#    0.000    0.000    0.000    0.000    0.000    0.000 
#
# Total GULP energy -445994.166459 kJ/mol
# GULP energy per Si atom -12388.726846 kJ/mol
# Density = 1.913214 g / cm^3
# Si number density = 19.175787 Si / 1000 Ang^3
#
#
#
# Elastic Constant Matrix: (Units=GPa)
#
#
# Indices 1 2 3 4 5 6 
#
# 1 147.0874 43.6544 45.7276 0.0000 0.0000 0.0000
# 2 43.6544 150.8836 0.3283 0.0000 0.0000 0.0000
# 3 45.7276 0.3283 47.3295 0.0000 0.0000 0.0000
# 4 0.0000 0.0000 0.0000 8.5743 0.0000 0.0000
# 5 0.0000 0.0000 0.0000 0.0000 20.8455 0.0000
# 6 0.0000 0.0000 0.0000 0.0000 0.0000 32.1062
#
#
#
# Elastic Compliance Matrix: (Units=1/GPa)
#
#
# Indices 1 2 3 4 5 6 
#
# 1 0.011055 -0.003175 -0.010658 0.000000 0.000000 0.000000
# 2 -0.003175 0.007540 0.003015 0.000000 0.000000 0.000000
# 3 -0.010658 0.003015 0.031405 0.000000 0.000000 0.000000
# 4 0.000000 0.000000 0.000000 0.116628 0.000000 0.000000
# 5 0.000000 0.000000 0.000000 0.000000 0.047972 0.000000
# 6 0.000000 0.000000 0.000000 0.000000 0.000000 0.031147
#
#
# Mechanical properties :
#
#
# Convention : Reuss Voigt Hill
#
# Bulk Modulus (GPa) = 35.25692 58.30234 46.77963
# Shear Modulus (GPa) = 18.06115 29.34453 23.70284
#
# Velocity S-wave (km/s) = 3.07232 3.91614 3.51961
# Velocity P-wave (km/s) = 5.56881 7.13571 6.40039
#
# Compressibility (1/GPa) = 0.02836323
#
# Stress axis : x y z
#
# Youngs Moduli (GPa) = 90.45971 132.63072 31.84172
#
# Poissons Ratio (x) = 0.42113 0.33938
# Poissons Ratio (y) = 0.28723 -0.09602
# Poissons Ratio (z) = 0.96416 -0.39994
#
# Static dielectric constant tensor:
#      x y z
#    x 3.390890 0.000000 0.000000 
#    y 0.000000 4.802990 0.000000 
#    z 0.000000 0.000000 3.064090 
# 
# 
# High freq. dielectric constant tensor:
#      x y z
#    x 1.736390 0.000000 0.000000 
#    y 0.000000 1.778640 0.000000 
#    z 0.000000 0.000000 1.701160 
# 
# From -- ./inp_files/30588.got.cif
#   From: 2010.03.12/outbox.cif.g09.slc.cpg/sg73_16_cif.got.tgz:30588.got - 2010.04.16 15:25:48.
