data_PCOD8295737
_publ_section_title
;
Structure prediction by ZEFSAII (Michael W. Deem and Ramdas Pophale) SiO2 
 PCOD8295737
Probable space group: I B C A 
;
_chemical_formula_sum "Si O2"
_cell_formula_units_Z 64
_cell_length_a 8.265102
_cell_length_b 15.992606
_cell_length_c 22.659220
_cell_angle_alpha 90.000000
_cell_angle_beta 90.000000
_cell_angle_gamma 90.000000
_cell_volume 2995.107479
_symmetry_space_group_name_H-M "I B C A "
_symmetry_group_IT_number 73
_symmetry_cell_setting 'orthorhombic'
loop_
_space_group_symop_operation_xyz
x,y,z
-x,1/2-y,z
x,-y,1/2-z
1/2-x,y,-z
-x,-y,-z
x,1/2+y,-z
-x,y,1/2+z
1/2+x,-y,z
1/2+x,1/2+y,1/2+z
1/2-x,-y,1/2+z
1/2+x,1/2-y,-z
-x,1/2+y,1/2-z
1/2-x,1/2-y,1/2-z
1/2+x,y,1/2-z
1/2-x,1/2+y,z
x,1/2-y,1/2+z
loop_
_atom_site_type_symbol
_atom_site_label
_atom_site_fract_x
_atom_site_fract_y
_atom_site_fract_z
Si Si1 0.679560 0.625636 0.558625
Si Si2 0.500000 0.750000 0.145517
Si Si3 0.829582 0.098256 0.181041
Si Si4 0.420273 0.000000 0.750000
Si Si5 0.850521 0.534549 0.942616
O O1 0.750000 0.672324 0.500000
O O2 0.621322 0.693350 0.605900
O O3 0.825908 0.563008 0.577731
O O4 0.536551 0.558946 0.543475
O O5 0.389413 0.806205 0.188571
O O6 0.785418 0.089134 0.112416
O O7 0.976514 0.035124 0.195789
O O8 0.683309 0.077759 0.224943
O O9 0.750000 0.560187 0.000000
#
# Coordination Sequence:
#
# PCOD8295737 Si02
#       5
#    16   8  16   8  16
#     4  10  20  35  56  86 120 156 191 233 287 348
#     4  10  22  34  54  84 122 144 182 246 296 340
#     4  10  21  39  59  85 110 148 192 238 288 336
#     4  10  22  40  64  78 106 154 204 236 270 346
#     4  10  19  35  62  87 114 149 195 236 278 347
#
# _framework density 21.368179999999999
#
# number of rings (size 3 to 8) (size 9 to 14) (size 15 to 20)
#    0.000    2.000    0.000    6.000    0.000    5.000 
#    0.000    0.000    0.000   24.000    0.000    0.000 
#    0.000    0.000    0.000    0.000    0.000    0.000 
#
# Total GULP energy -396468.325374 kJ/mol
# GULP energy per Si atom -12389.635168 kJ/mol
# Density = 2.131955 g / cm^3
# Si number density = 21.368180 Si / 1000 Ang^3
#
#
#
# Elastic Constant Matrix: (Units=GPa)
#
#
# Indices 1 2 3 4 5 6 
#
# 1 81.4035 35.8079 31.0055 0.0000 0.0000 0.0000
# 2 35.8079 113.4754 25.2591 0.0000 0.0000 0.0000
# 3 31.0055 25.2591 85.1351 0.0000 0.0000 0.0000
# 4 0.0000 0.0000 0.0000 32.2697 0.0000 0.0000
# 5 0.0000 0.0000 0.0000 0.0000 21.6111 0.0000
# 6 0.0000 0.0000 0.0000 0.0000 0.0000 32.1818
#
#
#
# Elastic Compliance Matrix: (Units=1/GPa)
#
#
# Indices 1 2 3 4 5 6 
#
# 1 0.015765 -0.003958 -0.004567 0.000000 0.000000 0.000000
# 2 -0.003958 0.010429 -0.001653 0.000000 0.000000 0.000000
# 3 -0.004567 -0.001653 0.013900 0.000000 0.000000 0.000000
# 4 0.000000 0.000000 0.000000 0.030989 0.000000 0.000000
# 5 0.000000 0.000000 0.000000 0.000000 0.046273 0.000000
# 6 0.000000 0.000000 0.000000 0.000000 0.000000 0.031073
#
#
# Mechanical properties :
#
#
# Convention : Reuss Voigt Hill
#
# Bulk Modulus (GPa) = 50.66367 51.57323 51.11845
# Shear Modulus (GPa) = 28.51198 29.74196 29.12697
#
# Velocity S-wave (km/s) = 3.65680 3.73484 3.69602
# Velocity P-wave (km/s) = 6.44910 6.54115 6.49529
#
# Compressibility (1/GPa) = 0.01973801
#
# Stress axis : x y z
#
# Youngs Moduli (GPa) = 63.43094 95.88262 71.94376
#
# Poissons Ratio (x) = 0.37952 0.32858
# Poissons Ratio (y) = 0.25107 0.11891
# Poissons Ratio (z) = 0.28970 0.15848
#
# Static dielectric constant tensor:
#      x y z
#    x 3.938970 0.000000 0.000000 
#    y 0.000000 3.805030 0.000000 
#    z 0.000000 0.000000 3.775000 
# 
# 
# High freq. dielectric constant tensor:
#      x y z
#    x 1.836910 0.000000 0.000000 
#    y 0.000000 1.819620 0.000000 
#    z 0.000000 0.000000 1.838900 
# 
# From -- ./inp_files/6861.got.cif
#   From: 2010.03.12/outbox.cif.g09.slc.cpg/sg73_4_cif.got.tgz:6861.got - 2010.04.16 15:25:48.
