data_PCOD8295683
_publ_section_title
;
Structure prediction by ZEFSAII (Michael W. Deem and Ramdas Pophale) SiO2 
 PCOD8295683
Probable space group: I B C A 
;
_chemical_formula_sum "Si O2"
_cell_formula_units_Z 72
_cell_length_a 5.111142
_cell_length_b 31.539028
_cell_length_c 23.680654
_cell_angle_alpha 90.000000
_cell_angle_beta 90.000000
_cell_angle_gamma 90.000000
_cell_volume 3817.332096
_symmetry_space_group_name_H-M "I B C A "
_symmetry_group_IT_number 73
_symmetry_cell_setting 'orthorhombic'
loop_
_space_group_symop_operation_xyz
x,y,z
-x,1/2-y,z
x,-y,1/2-z
1/2-x,y,-z
-x,-y,-z
x,1/2+y,-z
-x,y,1/2+z
1/2+x,-y,z
1/2+x,1/2+y,1/2+z
1/2-x,-y,1/2+z
1/2+x,1/2-y,-z
-x,1/2+y,1/2-z
1/2-x,1/2-y,1/2-z
1/2+x,y,1/2-z
1/2-x,1/2+y,z
x,1/2-y,1/2+z
loop_
_atom_site_type_symbol
_atom_site_label
_atom_site_fract_x
_atom_site_fract_y
_atom_site_fract_z
Si Si1 0.750000 0.222766 0.000000
Si Si2 0.309012 0.839733 0.100282
Si Si3 0.046413 0.518445 0.062738
Si Si4 0.794829 0.115679 0.436600
Si Si5 0.473015 0.800092 0.217551
O O1 0.500000 0.250000 0.020287
O O2 0.853257 0.194870 0.051913
O O3 0.516799 0.878255 0.094126
O O4 0.366152 0.818193 0.159428
O O5 0.014788 0.857339 0.095875
O O6 0.273893 0.491471 0.094502
O O7 0.116146 0.567358 0.062174
O O8 0.000000 0.500000 0.000000
O O9 0.750000 0.132511 0.500000
O O10 0.500000 0.750000 0.211898
O O11 0.761796 0.815732 0.235445
#
# Coordination Sequence:
#
# PCOD8295683 Si02
#       5
#     8  16  16  16  16
#     4  12  24  36  52  76 114 156 184 216 274 356
#     4  12  24  38  56  84 119 151 190 238 293 357
#     4  10  19  30  51  74 110 163 189 224 254 330
#     4  12  21  35  53  82 123 161 182 221 291 341
#     4  10  22  42  65  83 105 146 202 259 299 331
#
# _framework density 18.861339999999998
#
# number of rings (size 3 to 8) (size 9 to 14) (size 15 to 20)
#    0.000    0.889    4.444    4.667    3.111    2.667 
#    0.000    0.000    0.000    0.000    0.000    0.000 
#    0.000   62.222    0.000    0.000    0.000    0.000 
#
# Total GULP energy -446140.501596 kJ/mol
# GULP energy per Si atom -12392.791711 kJ/mol
# Density = 1.881841 g / cm^3
# Si number density = 18.861340 Si / 1000 Ang^3
#
#
#
# Elastic Constant Matrix: (Units=GPa)
#
#
# Indices 1 2 3 4 5 6 
#
# 1 153.9726 43.2435 29.1001 0.0000 0.0000 0.0000
# 2 43.2435 75.6376 32.5702 0.0000 0.0000 0.0000
# 3 29.1001 32.5702 90.2781 0.0000 0.0000 0.0000
# 4 0.0000 0.0000 0.0000 13.3759 0.0000 0.0000
# 5 0.0000 0.0000 0.0000 0.0000 28.0991 0.0000
# 6 0.0000 0.0000 0.0000 0.0000 0.0000 19.4751
#
#
#
# Elastic Compliance Matrix: (Units=1/GPa)
#
#
# Indices 1 2 3 4 5 6 
#
# 1 0.007824 -0.004010 -0.001075 0.000000 0.000000 0.000000
# 2 -0.004010 0.017708 -0.005096 0.000000 0.000000 0.000000
# 3 -0.001075 -0.005096 0.013262 0.000000 0.000000 0.000000
# 4 0.000000 0.000000 0.000000 0.074761 0.000000 0.000000
# 5 0.000000 0.000000 0.000000 0.000000 0.035588 0.000000
# 6 0.000000 0.000000 0.000000 0.000000 0.000000 0.051347
#
#
# Mechanical properties :
#
#
# Convention : Reuss Voigt Hill
#
# Bulk Modulus (GPa) = 54.25558 58.85732 56.55645
# Shear Modulus (GPa) = 22.02662 26.52165 24.27414
#
# Velocity S-wave (km/s) = 3.42104 3.75392 3.59134
# Velocity P-wave (km/s) = 6.66578 7.07547 6.87368
#
# Compressibility (1/GPa) = 0.01843128
#
# Stress axis : x y z
#
# Youngs Moduli (GPa) = 127.80936 56.47157 75.40341
#
# Poissons Ratio (x) = 0.22646 0.08108
# Poissons Ratio (y) = 0.51254 0.38426
# Poissons Ratio (z) = 0.13743 0.28778
#
# Static dielectric constant tensor:
#      x y z
#    x -18.865340 0.000000 0.000000 
#    y 0.000000 3.401510 0.000000 
#    z 0.000000 0.000000 3.115260 
# 
# 
# High freq. dielectric constant tensor:
#      x y z
#    x 1.773850 0.000000 0.000000 
#    y 0.000000 1.726190 0.000000 
#    z 0.000000 0.000000 1.680280 
# 
# From -- ./inp_files/1687.got.cif
#   From: 2010.03.12/outbox.cif.g09.slc.cpg/sg73_1_cif.got.tgz:1687.got - 2010.04.16 15:25:48.
