data_PCOD8295924
_publ_section_title
;
Structure prediction by ZEFSAII (Michael W. Deem and Ramdas Pophale) SiO2 
 PCOD8295924
Probable space group: I B C A 
;
_chemical_formula_sum "Si O2"
_cell_formula_units_Z 120
_cell_length_a 22.995427
_cell_length_b 27.429290
_cell_length_c 9.573271
_cell_angle_alpha 90.000000
_cell_angle_beta 90.000000
_cell_angle_gamma 90.000000
_cell_volume 6038.323795
_symmetry_space_group_name_H-M "I B C A "
_symmetry_group_IT_number 73
_symmetry_cell_setting 'orthorhombic'
loop_
_space_group_symop_operation_xyz
x,y,z
-x,1/2-y,z
x,-y,1/2-z
1/2-x,y,-z
-x,-y,-z
x,1/2+y,-z
-x,y,1/2+z
1/2+x,-y,z
1/2+x,1/2+y,1/2+z
1/2-x,-y,1/2+z
1/2+x,1/2-y,-z
-x,1/2+y,1/2-z
1/2-x,1/2-y,1/2-z
1/2+x,y,1/2-z
1/2-x,1/2+y,z
x,1/2-y,1/2+z
loop_
_atom_site_type_symbol
_atom_site_label
_atom_site_fract_x
_atom_site_fract_y
_atom_site_fract_z
Si Si1 0.299562 0.792268 0.610187
Si Si2 0.592833 0.861012 0.042146
Si Si3 0.529760 0.812084 0.588904
Si Si4 0.000000 0.250000 0.839276
Si Si5 0.722563 0.815688 0.639430
Si Si6 0.935371 0.964210 0.880910
Si Si7 0.882525 0.376554 0.722014
Si Si8 0.435195 0.468989 0.878497
O O1 0.250000 0.806241 0.500000
O O2 0.355887 0.824203 0.579827
O O3 0.313315 0.734135 0.603930
O O4 0.277408 0.804176 0.764093
O O5 0.534560 0.834006 0.088444
O O6 0.599385 0.912504 0.126584
O O7 0.591131 0.871197 0.876470
O O8 0.539462 0.781586 0.733431
O O9 0.540398 0.781640 0.445664
O O10 0.578709 0.852602 0.599299
O O11 0.750000 0.838628 0.500000
O O12 0.682147 0.855420 0.714772
O O13 0.001473 0.947249 0.923497
O O14 0.927651 0.000000 0.750000
O O15 0.907653 0.996676 0.003946
O O16 0.884915 0.432392 0.672768
O O17 0.456589 0.500000 0.750000
#
# Coordination Sequence:
#
# PCOD8295924 Si02
#       8
#    16  16  16   8  16  16  16  16
#     4  10  22  43  65  89 124 168 219 260 311 371
#     4  12  23  39  67  93 127 170 217 264 315 388
#     4  11  24  38  58  92 130 166 214 252 328 389
#     4  10  24  38  48  84 138 170 194 256 318 392
#     4  10  24  43  64  94 122 168 220 267 313 367
#     4  10  22  37  60  93 130 165 207 257 320 386
#     4  12  23  39  67  93 129 167 217 264 316 387
#     4  10  20  37  61  90 130 165 202 258 317 388
#
# _framework density 19.873065
#
# number of rings (size 3 to 8) (size 9 to 14) (size 15 to 20)
#    0.000    1.333    5.333    0.000    3.733    3.200 
#    0.000    0.000    0.000    4.800    0.000    0.000 
#    0.000    0.000    0.000    0.000    0.000    0.000 
#
# Total GULP energy -743550.352095 kJ/mol
# GULP energy per Si atom -12392.505868 kJ/mol
# Density = 1.982783 g / cm^3
# Si number density = 19.873065 Si / 1000 Ang^3
#
#
#
# Elastic Constant Matrix: (Units=GPa)
#
#
# Indices 1 2 3 4 5 6 
#
# 1 55.4101 32.2104 7.3923 0.0000 0.0000 0.0000
# 2 32.2104 102.6308 29.1186 0.0000 0.0000 0.0000
# 3 7.3923 29.1186 113.1162 0.0000 0.0000 0.0000
# 4 0.0000 0.0000 0.0000 35.7121 0.0000 0.0000
# 5 0.0000 0.0000 0.0000 0.0000 24.9165 0.0000
# 6 0.0000 0.0000 0.0000 0.0000 0.0000 31.8140
#
#
#
# Elastic Compliance Matrix: (Units=1/GPa)
#
#
# Indices 1 2 3 4 5 6 
#
# 1 0.022089 -0.007037 0.000368 0.000000 0.000000 0.000000
# 2 -0.007037 0.012753 -0.002823 0.000000 0.000000 0.000000
# 3 0.000368 -0.002823 0.009543 0.000000 0.000000 0.000000
# 4 0.000000 0.000000 0.000000 0.028002 0.000000 0.000000
# 5 0.000000 0.000000 0.000000 0.000000 0.040134 0.000000
# 6 0.000000 0.000000 0.000000 0.000000 0.000000 0.031433
#
#
# Mechanical properties :
#
#
# Convention : Reuss Voigt Hill
#
# Bulk Modulus (GPa) = 39.36855 45.39996 42.38426
# Shear Modulus (GPa) = 29.17073 31.98423 30.57748
#
# Velocity S-wave (km/s) = 3.83541 4.01612 3.92680
# Velocity P-wave (km/s) = 6.28227 6.66334 6.47561
#
# Compressibility (1/GPa) = 0.02540099
#
# Stress axis : x y z
#
# Youngs Moduli (GPa) = 45.27183 78.41208 104.78729
#
# Poissons Ratio (x) = 0.55178 -0.03855
# Poissons Ratio (y) = 0.31857 0.29582
# Poissons Ratio (z) = -0.01666 0.22136
#
# Static dielectric constant tensor:
#      x y z
#    x 3.208320 0.000000 0.000000 
#    y 0.000000 3.781650 0.000000 
#    z 0.000000 0.000000 3.693660 
# 
# 
# High freq. dielectric constant tensor:
#      x y z
#    x 1.731760 0.000000 0.000000 
#    y 0.000000 1.777620 0.000000 
#    z 0.000000 0.000000 1.791380 
# 
# From -- ./inp_files/7371.got.cif
#   From: 2010.03.12/outbox.cif.g09.slc.cpg/sg73_4_cif.got.tgz:7371.got - 2010.04.16 15:25:48.
