data_PCOD8295339
_publ_section_title
;
Structure prediction by ZEFSAII (Michael W. Deem and Ramdas Pophale) SiO2 
 PCOD8295339
Probable space group: I B A M
;
_chemical_formula_sum "Si O2"
_cell_formula_units_Z 96
_cell_length_a 16.442621
_cell_length_b 17.795159
_cell_length_c 14.794280
_cell_angle_alpha 90.000000
_cell_angle_beta 90.000000
_cell_angle_gamma 90.000000
_cell_volume 4328.792348
_symmetry_space_group_name_H-M "I B A M"
_symmetry_group_IT_number 72
_symmetry_cell_setting 'orthorhombic'
loop_
_space_group_symop_operation_xyz
x,y,z
-x,-y,z
x,-y,1/2-z
-x,y,1/2-z
-x,-y,-z
x,y,-z
-x,y,1/2+z
x,-y,1/2+z
1/2+x,1/2+y,1/2+z
1/2-x,1/2-y,1/2+z
1/2+x,1/2-y,-z
1/2-x,1/2+y,-z
1/2-x,1/2-y,1/2-z
1/2+x,1/2+y,1/2-z
1/2-x,1/2+y,z
1/2+x,1/2-y,z
loop_
_atom_site_type_symbol
_atom_site_label
_atom_site_fract_x
_atom_site_fract_y
_atom_site_fract_z
Si Si1 0.917275 0.818556 0.232791
Si Si2 0.839447 0.579234 0.857813
Si Si3 0.869141 0.409817 0.148188
Si Si4 0.199796 0.821102 0.896663
Si Si5 0.287161 0.672775 0.098499
Si Si6 0.973326 0.313830 0.400439
O O1 0.876138 0.802636 0.330488
O O2 0.851062 0.861091 0.170929
O O3 0.000000 0.867431 0.250000
O O4 0.952784 0.746300 0.177883
O O5 0.865625 0.495494 0.885631
O O6 0.853528 0.594549 0.753423
O O7 0.744029 0.598402 0.879559
O O8 0.895580 0.633643 0.915646
O O9 0.797062 0.370080 0.095055
O O10 0.952846 0.368198 0.127714
O O11 0.269325 0.759270 0.875709
O O12 0.167874 0.815315 0.000000
O O13 0.328365 0.667898 0.000000
O O14 0.990704 0.277296 0.500000
#
# Coordination Sequence:
#
# PCOD8295339 Si02
#       6
#    16  16  16  16  16  16
#     4  12  24  40  64  90 128 171 216 278 333 388
#     4  11  22  41  64  94 134 183 224 268 334 399
#     4  11  24  40  65  96 135 179 223 271 330 408
#     4  11  23  41  67  94 128 175 229 279 332 398
#     4  11  22  39  62  91 126 170 219 270 328 393
#     4  12  24  38  60  98 141 180 218 262 325 404
#
# _framework density 22.177085000000002
#
# number of rings (size 3 to 8) (size 9 to 14) (size 15 to 20)
#    0.000    0.667    3.333    6.000    0.000    7.333 
#    0.000    0.000    0.000    2.000    0.000    2.333 
#    0.000    0.000    0.000    0.000    0.000    0.000 
#
# Total GULP energy -594818.352455 kJ/mol
# GULP energy per Si atom -12392.049009 kJ/mol
# Density = 2.212661 g / cm^3
# Si number density = 22.177085 Si / 1000 Ang^3
#
#
#
# Elastic Constant Matrix: (Units=GPa)
#
#
# Indices 1 2 3 4 5 6 
#
# 1 139.0899 28.8629 52.8641 0.0000 0.0000 0.0000
# 2 28.8629 43.5040 13.4605 0.0000 0.0000 0.0000
# 3 52.8641 13.4605 138.3022 0.0000 0.0000 0.0000
# 4 0.0000 0.0000 0.0000 10.0473 0.0000 0.0000
# 5 0.0000 0.0000 0.0000 0.0000 8.5638 0.0000
# 6 0.0000 0.0000 0.0000 0.0000 0.0000 21.9776
#
#
#
# Elastic Compliance Matrix: (Units=1/GPa)
#
#
# Indices 1 2 3 4 5 6 
#
# 1 0.009474 -0.005326 -0.003103 0.000000 0.000000 0.000000
# 2 -0.005326 0.026694 -0.000562 0.000000 0.000000 0.000000
# 3 -0.003103 -0.000562 0.008471 0.000000 0.000000 0.000000
# 4 0.000000 0.000000 0.000000 0.099529 0.000000 0.000000
# 5 0.000000 0.000000 0.000000 0.000000 0.116771 0.000000
# 6 0.000000 0.000000 0.000000 0.000000 0.000000 0.045501
#
#
# Mechanical properties :
#
#
# Convention : Reuss Voigt Hill
#
# Bulk Modulus (GPa) = 37.51329 56.80791 47.16060
# Shear Modulus (GPa) = 15.00119 23.16499 19.08309
#
# Velocity S-wave (km/s) = 2.60364 3.23545 2.93659
# Velocity P-wave (km/s) = 5.09811 6.29513 5.72797
#
# Compressibility (1/GPa) = 0.02665722
#
# Stress axis : x y z
#
# Youngs Moduli (GPa) = 105.55119 37.46210 118.04469
#
# Poissons Ratio (x) = 0.19950 0.36630
# Poissons Ratio (y) = 0.56211 0.06639
# Poissons Ratio (z) = 0.32753 0.02107
#
# Static dielectric constant tensor:
#      x y z
#    x 4.172520 0.000000 0.000000 
#    y 0.000000 3.807680 0.000000 
#    z 0.000000 0.000000 4.226140 
# 
# 
# High freq. dielectric constant tensor:
#      x y z
#    x 1.881370 0.000000 0.000000 
#    y 0.000000 1.822120 0.000000 
#    z 0.000000 0.000000 1.901860 
# 
# From -- ./inp_files/21767.got.cif
#   From: 2010.03.12/outbox.cif.g09.slc.cpg/sg72_11_cif.got.tgz:21767.got - 2010.04.16 14:54:00.
