data_PCOD8295620
_publ_section_title
;
Structure prediction by ZEFSAII (Michael W. Deem and Ramdas Pophale) SiO2 
 PCOD8295620
Probable space group: I B C A 
;
_chemical_formula_sum "Si O2"
_cell_formula_units_Z 88
_cell_length_a 18.578873
_cell_length_b 12.829242
_cell_length_c 18.712680
_cell_angle_alpha 90.000000
_cell_angle_beta 90.000000
_cell_angle_gamma 90.000000
_cell_volume 4460.220755
_symmetry_space_group_name_H-M "I B C A "
_symmetry_group_IT_number 73
_symmetry_cell_setting 'orthorhombic'
loop_
_space_group_symop_operation_xyz
x,y,z
-x,1/2-y,z
x,-y,1/2-z
1/2-x,y,-z
-x,-y,-z
x,1/2+y,-z
-x,y,1/2+z
1/2+x,-y,z
1/2+x,1/2+y,1/2+z
1/2-x,-y,1/2+z
1/2+x,1/2-y,-z
-x,1/2+y,1/2-z
1/2-x,1/2-y,1/2-z
1/2+x,y,1/2-z
1/2-x,1/2+y,z
x,1/2-y,1/2+z
loop_
_atom_site_type_symbol
_atom_site_label
_atom_site_fract_x
_atom_site_fract_y
_atom_site_fract_z
Si Si1 0.750000 0.250256 0.000000
Si Si2 0.464257 0.098024 0.710219
Si Si3 0.113603 0.305202 0.254279
Si Si4 0.675517 0.395419 0.110679
Si Si5 0.845010 0.876286 0.394429
Si Si6 0.966048 0.520043 0.574910
O O1 0.726328 0.323314 0.064483
O O2 0.813635 0.181477 0.035404
O O3 0.407413 0.190289 0.719157
O O4 0.541888 0.123676 0.745342
O O5 0.472629 0.062766 0.627996
O O6 0.429885 0.000000 0.750000
O O7 0.171843 0.350795 0.309259
O O8 0.153229 0.304999 0.177074
O O9 0.701937 0.516637 0.115419
O O10 0.596409 0.391761 0.073331
O O11 0.928856 0.909604 0.403967
O O12 0.000000 0.500000 0.500000
#
# Coordination Sequence:
#
# PCOD8295620 Si02
#       6
#     8  16  16  16  16  16
#     4  12  24  40  58  90 120 174 226 262 306 384
#     4  10  18  34  58  95 125 149 201 252 312 403
#     4  10  19  37  63  86 118 169 197 256 329 375
#     4   9  22  40  61  83 124 160 214 259 314 380
#     4  10  22  41  62  84 125 169 211 260 325 371
#     4   9  20  37  62  88 125 159 190 256 328 376
#
# _framework density 19.729963999999999
#
# number of rings (size 3 to 8) (size 9 to 14) (size 15 to 20)
#    1.091    1.091    1.818    1.091    2.545    2.182 
#    0.000    1.818    0.000    0.000    0.000    0.000 
#    0.000    0.000    0.000    0.000    0.000    0.000 
#
# Total GULP energy -545099.444863 kJ/mol
# GULP energy per Si atom -12388.623747 kJ/mol
# Density = 1.968506 g / cm^3
# Si number density = 19.729964 Si / 1000 Ang^3
#
#
#
# Elastic Constant Matrix: (Units=GPa)
#
#
# Indices 1 2 3 4 5 6 
#
# 1 30.6945 25.1126 32.9335 0.0000 0.0000 0.0000
# 2 25.1126 110.6382 47.3538 0.0000 0.0000 0.0000
# 3 32.9335 47.3538 132.2238 0.0000 0.0000 0.0000
# 4 0.0000 0.0000 0.0000 35.6266 0.0000 0.0000
# 5 0.0000 0.0000 0.0000 0.0000 27.6119 0.0000
# 6 0.0000 0.0000 0.0000 0.0000 0.0000 17.2326
#
#
#
# Elastic Compliance Matrix: (Units=1/GPa)
#
#
# Indices 1 2 3 4 5 6 
#
# 1 0.048548 -0.006902 -0.009620 0.000000 0.000000 0.000000
# 2 -0.006902 0.011656 -0.002455 0.000000 0.000000 0.000000
# 3 -0.009620 -0.002455 0.010838 0.000000 0.000000 0.000000
# 4 0.000000 0.000000 0.000000 0.028069 0.000000 0.000000
# 5 0.000000 0.000000 0.000000 0.000000 0.036216 0.000000
# 6 0.000000 0.000000 0.000000 0.000000 0.000000 0.058029
#
#
# Mechanical properties :
#
#
# Convention : Reuss Voigt Hill
#
# Bulk Modulus (GPa) = 30.22298 53.81739 42.02018
# Shear Modulus (GPa) = 20.63211 27.30468 23.96839
#
# Velocity S-wave (km/s) = 3.23727 3.72414 3.48921
# Velocity P-wave (km/s) = 5.41524 6.76968 6.12998
#
# Compressibility (1/GPa) = 0.03308741
#
# Stress axis : x y z
#
# Youngs Moduli (GPa) = 20.59823 85.79322 92.26439
#
# Poissons Ratio (x) = 0.59213 0.88760
# Poissons Ratio (y) = 0.14217 0.22654
# Poissons Ratio (z) = 0.19816 0.21065
#
# Static dielectric constant tensor:
#      x y z
#    x 3.379490 0.000000 0.000000 
#    y 0.000000 3.684330 0.000000 
#    z 0.000000 0.000000 3.549760 
# 
# 
# High freq. dielectric constant tensor:
#      x y z
#    x 1.725060 0.000000 0.000000 
#    y 0.000000 1.770790 0.000000 
#    z 0.000000 0.000000 1.774020 
# 
# From -- ./inp_files/23170.got.cif
#   From: 2010.03.12/outbox.cif.g09.slc.cpg/sg73_12_cif.got.tgz:23170.got - 2010.04.16 15:25:48.
