data_PCOD8295618
_publ_section_title
;
Structure prediction by ZEFSAII (Michael W. Deem and Ramdas Pophale) SiO2 
 PCOD8295618
Probable space group: I B C A 
;
_chemical_formula_sum "Si O2"
_cell_formula_units_Z 80
_cell_length_a 25.408628
_cell_length_b 9.758718
_cell_length_c 18.498992
_cell_angle_alpha 90.000000
_cell_angle_beta 90.000000
_cell_angle_gamma 90.000000
_cell_volume 4586.929316
_symmetry_space_group_name_H-M "I B C A "
_symmetry_group_IT_number 73
_symmetry_cell_setting 'orthorhombic'
loop_
_space_group_symop_operation_xyz
x,y,z
-x,1/2-y,z
x,-y,1/2-z
1/2-x,y,-z
-x,-y,-z
x,1/2+y,-z
-x,y,1/2+z
1/2+x,-y,z
1/2+x,1/2+y,1/2+z
1/2-x,-y,1/2+z
1/2+x,1/2-y,-z
-x,1/2+y,1/2-z
1/2-x,1/2-y,1/2-z
1/2+x,y,1/2-z
1/2-x,1/2+y,z
x,1/2-y,1/2+z
loop_
_atom_site_type_symbol
_atom_site_label
_atom_site_fract_x
_atom_site_fract_y
_atom_site_fract_z
Si Si1 0.675846 0.641416 0.715894
Si Si2 0.141090 0.026355 0.945432
Si Si3 0.795795 0.385780 0.808620
Si Si4 0.125607 0.288238 0.569536
Si Si5 0.035068 0.628406 0.019724
O O1 0.656116 0.500000 0.750000
O O2 0.733553 0.631972 0.680607
O O3 0.676591 0.747142 0.782200
O O4 0.635428 0.688365 0.654169
O O5 0.143296 0.863208 0.954682
O O6 0.181541 0.072309 0.885089
O O7 0.081460 0.078193 0.925566
O O8 0.157857 0.099856 0.021079
O O9 0.808849 0.500000 0.750000
O O10 0.063292 0.310081 0.552790
O O11 0.000000 0.750000 0.055067
O O12 0.000000 0.500000 0.000000
#
# Coordination Sequence:
#
# PCOD8295618 Si02
#       5
#    16  16  16  16  16
#     4  10  22  36  57  82 117 153 186 222 274 340
#     4  10  21  35  59  85 110 148 189 234 273 330
#     4  10  20  38  57  80 114 156 182 218 281 336
#     4  10  21  36  57  87 108 150 187 235 272 329
#     4  10  18  34  58  83 109 142 184 232 288 331
#
# _framework density 17.440863
#
# number of rings (size 3 to 8) (size 9 to 14) (size 15 to 20)
#    1.200    0.800    4.000    0.000    2.800    0.800 
#    0.000    2.000    0.000    7.200    0.000    0.000 
#    0.000    0.000    0.000    0.000    0.000    0.000 
#
# Total GULP energy -495709.846153 kJ/mol
# GULP energy per Si atom -12392.746154 kJ/mol
# Density = 1.740117 g / cm^3
# Si number density = 17.440863 Si / 1000 Ang^3
#
#
#
# Elastic Constant Matrix: (Units=GPa)
#
#
# Indices 1 2 3 4 5 6 
#
# 1 45.5075 15.5304 16.9432 0.0000 0.0000 0.0000
# 2 15.5304 139.6569 24.3782 0.0000 0.0000 0.0000
# 3 16.9432 24.3782 51.9454 0.0000 0.0000 0.0000
# 4 0.0000 0.0000 0.0000 26.3827 0.0000 0.0000
# 5 0.0000 0.0000 0.0000 0.0000 10.9807 0.0000
# 6 0.0000 0.0000 0.0000 0.0000 0.0000 -0.5681
#
#
#
# Elastic Compliance Matrix: (Units=1/GPa)
#
#
# Indices 1 2 3 4 5 6 
#
# 1 0.025295 -0.001495 -0.007549 0.000000 0.000000 0.000000
# 2 -0.001495 0.007888 -0.003214 0.000000 0.000000 0.000000
# 3 -0.007549 -0.003214 0.023222 0.000000 0.000000 0.000000
# 4 0.000000 0.000000 0.000000 0.037904 0.000000 0.000000
# 5 0.000000 0.000000 0.000000 0.000000 0.091069 0.000000
# 6 0.000000 0.000000 0.000000 0.000000 0.000000 -1.760184
#
#
# Mechanical properties :
#
#
# Convention : Reuss Voigt Hill
#
# Bulk Modulus (GPa) = 31.35955 38.97926 35.16941
# Shear Modulus (GPa) = -3.24747 19.37626 8.06440
#
# Velocity S-wave (km/s) = -1.36603 3.33674 2.15265
# Velocity P-wave (km/s) = 3.94100 6.10270 5.13685
#
# Compressibility (1/GPa) = 0.03188821
#
# Stress axis : x y z
#
# Youngs Moduli (GPa) = 39.53310 126.77953 43.06338
#
# Poissons Ratio (x) = 0.18956 0.32508
# Poissons Ratio (y) = 0.05911 0.13841
# Poissons Ratio (z) = 0.29843 0.40747
#
# Static dielectric constant tensor:
#      x y z
#    x 3.169900 0.000000 0.000000 
#    y 0.000000 3.422560 0.000000 
#    z 0.000000 0.000000 2.981020 
# 
# 
# High freq. dielectric constant tensor:
#      x y z
#    x 1.657960 0.000000 0.000000 
#    y 0.000000 1.701060 0.000000 
#    z 0.000000 0.000000 1.642410 
# 
# From -- ./inp_files/24083.got.cif
#   From: 2010.03.12/outbox.cif.g09.slc.cpg/sg73_13_cif.got.tgz:24083.got - 2010.04.16 15:25:48.
