data_PCOD8295562
_publ_section_title
;
Structure prediction by ZEFSAII (Michael W. Deem and Ramdas Pophale) SiO2 
 PCOD8295562
Probable space group: I B C A 
;
_chemical_formula_sum "Si O2"
_cell_formula_units_Z 80
_cell_length_a 14.549746
_cell_length_b 17.947595
_cell_length_c 15.775424
_cell_angle_alpha 90.000000
_cell_angle_beta 90.000000
_cell_angle_gamma 90.000000
_cell_volume 4119.482984
_symmetry_space_group_name_H-M "I B C A "
_symmetry_group_IT_number 73
_symmetry_cell_setting 'orthorhombic'
loop_
_space_group_symop_operation_xyz
x,y,z
-x,1/2-y,z
x,-y,1/2-z
1/2-x,y,-z
-x,-y,-z
x,1/2+y,-z
-x,y,1/2+z
1/2+x,-y,z
1/2+x,1/2+y,1/2+z
1/2-x,-y,1/2+z
1/2+x,1/2-y,-z
-x,1/2+y,1/2-z
1/2-x,1/2-y,1/2-z
1/2+x,y,1/2-z
1/2-x,1/2+y,z
x,1/2-y,1/2+z
loop_
_atom_site_type_symbol
_atom_site_label
_atom_site_fract_x
_atom_site_fract_y
_atom_site_fract_z
Si Si1 0.694740 0.605635 0.313461
Si Si2 0.803990 0.936577 0.370110
Si Si3 0.612745 0.560227 0.956167
Si Si4 0.546162 0.670658 0.427363
Si Si5 0.837954 0.101313 0.558477
O O1 0.685850 0.615660 0.212538
O O2 0.678943 0.521205 0.342719
O O3 0.618595 0.660428 0.351742
O O4 0.797626 0.626427 0.349717
O O5 0.876724 0.918051 0.444261
O O6 0.703071 0.918831 0.404071
O O7 0.528247 0.605426 0.918090
O O8 0.596429 0.471778 0.940982
O O9 0.500000 0.750000 0.419203
O O10 0.601730 0.666946 0.516754
O O11 0.750000 0.079319 0.500000
#
# Coordination Sequence:
#
# PCOD8295562 Si02
#       5
#    16  16  16  16  16
#     4   9  18  36  57  84 114 141 186 239 290 330
#     4   9  17  35  60  84 105 143 187 241 287 325
#     4  10  17  35  59  81 108 143 194 237 278 337
#     4  11  22  35  53  83 118 151 185 226 284 347
#     4   9  16  35  58  78 108 147 184 238 282 329
#
# _framework density 19.419913000000001
#
# number of rings (size 3 to 8) (size 9 to 14) (size 15 to 20)
#    0.000    2.400    6.000    0.600    0.000    0.000 
#   14.400    4.000    0.000    0.000    0.000    0.000 
#    0.000    0.000    0.000    0.000    0.000    0.000 
#
# Total GULP energy -495696.700022 kJ/mol
# GULP energy per Si atom -12392.417501 kJ/mol
# Density = 1.937571 g / cm^3
# Si number density = 19.419913 Si / 1000 Ang^3
#
#
#
# Elastic Constant Matrix: (Units=GPa)
#
#
# Indices 1 2 3 4 5 6 
#
# 1 70.4628 52.6355 39.7963 0.0000 0.0000 0.0000
# 2 52.6355 75.4911 42.1340 0.0000 0.0000 0.0000
# 3 39.7963 42.1340 136.5248 0.0000 0.0000 0.0000
# 4 0.0000 0.0000 0.0000 16.6552 0.0000 0.0000
# 5 0.0000 0.0000 0.0000 0.0000 15.4621 0.0000
# 6 0.0000 0.0000 0.0000 0.0000 0.0000 30.2689
#
#
#
# Elastic Compliance Matrix: (Units=1/GPa)
#
#
# Indices 1 2 3 4 5 6 
#
# 1 0.030485 -0.019687 -0.002811 0.000000 0.000000 0.000000
# 2 -0.019687 0.028717 -0.003124 0.000000 0.000000 0.000000
# 3 -0.002811 -0.003124 0.009108 0.000000 0.000000 0.000000
# 4 0.000000 0.000000 0.000000 0.060041 0.000000 0.000000
# 5 0.000000 0.000000 0.000000 0.000000 0.064674 0.000000
# 6 0.000000 0.000000 0.000000 0.000000 0.000000 0.033037
#
#
# Mechanical properties :
#
#
# Convention : Reuss Voigt Hill
#
# Bulk Modulus (GPa) = 58.59160 61.29004 59.94082
# Shear Modulus (GPa) = 17.66818 22.33810 20.00314
#
# Velocity S-wave (km/s) = 3.01956 3.39524 3.21289
# Velocity P-wave (km/s) = 6.51102 6.85559 6.68552
#
# Compressibility (1/GPa) = 0.01706729
#
# Stress axis : x y z
#
# Youngs Moduli (GPa) = 32.80262 34.82298 109.79337
#
# Poissons Ratio (x) = 0.68556 0.30858
# Poissons Ratio (y) = 0.64578 0.34298
# Poissons Ratio (z) = 0.09219 0.10878
#
# Static dielectric constant tensor:
#      x y z
#    x 3.520990 0.000000 0.000000 
#    y 0.000000 3.066570 0.000000 
#    z 0.000000 0.000000 4.000620 
# 
# 
# High freq. dielectric constant tensor:
#      x y z
#    x 1.755710 0.000000 0.000000 
#    y 0.000000 1.710420 0.000000 
#    z 0.000000 0.000000 1.752680 
# 
# From -- ./inp_files/21880.got.cif
#   From: 2010.03.12/outbox.cif.g09.slc.cpg/sg73_11_cif.got.tgz:21880.got - 2010.04.16 15:25:48.
