data_PCOD8295733
_publ_section_title
;
Structure prediction by ZEFSAII (Michael W. Deem and Ramdas Pophale) SiO2 
 PCOD8295733
Probable space group: I B C A 
;
_chemical_formula_sum "Si O2"
_cell_formula_units_Z 120
_cell_length_a 18.451634
_cell_length_b 14.336214
_cell_length_c 23.256931
_cell_angle_alpha 90.000000
_cell_angle_beta 90.000000
_cell_angle_gamma 90.000000
_cell_volume 6152.076272
_symmetry_space_group_name_H-M "I B C A "
_symmetry_group_IT_number 73
_symmetry_cell_setting 'orthorhombic'
loop_
_space_group_symop_operation_xyz
x,y,z
-x,1/2-y,z
x,-y,1/2-z
1/2-x,y,-z
-x,-y,-z
x,1/2+y,-z
-x,y,1/2+z
1/2+x,-y,z
1/2+x,1/2+y,1/2+z
1/2-x,-y,1/2+z
1/2+x,1/2-y,-z
-x,1/2+y,1/2-z
1/2-x,1/2-y,1/2-z
1/2+x,y,1/2-z
1/2-x,1/2+y,z
x,1/2-y,1/2+z
loop_
_atom_site_type_symbol
_atom_site_label
_atom_site_fract_x
_atom_site_fract_y
_atom_site_fract_z
Si Si1 0.675050 0.363572 0.574829
Si Si2 0.414119 0.764818 0.644273
Si Si3 0.414938 0.521235 0.133456
Si Si4 0.938567 0.177149 0.255994
Si Si5 0.545777 0.517672 0.441871
Si Si6 0.527591 0.000000 0.250000
Si Si7 0.837982 0.134118 0.058012
Si Si8 0.422609 0.202054 0.119060
O O1 0.638042 0.461180 0.593104
O O2 0.665873 0.339409 0.508358
O O3 0.759924 0.375080 0.588443
O O4 0.640612 0.276218 0.607493
O O5 0.500000 0.750000 0.643135
O O6 0.388879 0.872098 0.639377
O O7 0.386736 0.719392 0.705314
O O8 0.381117 0.715574 0.589193
O O9 0.496112 0.518908 0.109424
O O10 0.420007 0.474442 0.196601
O O11 0.900876 0.158341 0.318137
O O12 0.000000 0.250000 0.271301
O O13 0.976136 0.084687 0.231281
O O14 0.500000 0.500000 0.500000
O O15 0.620993 0.463530 0.438829
O O16 0.570250 0.624385 0.431109
O O17 0.500000 0.250000 0.119623
#
# Coordination Sequence:
#
# PCOD8295733 Si02
#       8
#    16  16  16  16  16   8  16  16
#     4  11  26  43  61  90 130 175 210 265 334 391
#     4  11  22  37  66  94 123 163 209 264 323 382
#     4  12  22  39  66  97 124 168 216 266 324 382
#     4  10  19  35  58  97 127 158 208 263 318 374
#     4  12  22  38  66  99 123 163 216 276 317 381
#     4  12  18  34  66  94 130 162 210 272 324 370
#     4  11  25  44  61  90 134 166 214 270 326 394
#     4  11  21  38  65  95 128 165 214 264 313 391
#
# _framework density 19.505610000000001
#
# number of rings (size 3 to 8) (size 9 to 14) (size 15 to 20)
#    0.000    0.800    8.000    0.800    1.867    1.600 
#    0.000    3.333    2.933    0.000    0.000    0.000 
#    0.000    0.000    0.000    0.000    0.000    0.000 
#
# Total GULP energy -743723.640830 kJ/mol
# GULP energy per Si atom -12395.394014 kJ/mol
# Density = 1.946121 g / cm^3
# Si number density = 19.505610 Si / 1000 Ang^3
#
#
#
# Elastic Constant Matrix: (Units=GPa)
#
#
# Indices 1 2 3 4 5 6 
#
# 1 95.9342 34.1851 40.4438 0.0000 0.0000 0.0000
# 2 34.1851 127.4115 42.1265 0.0000 0.0000 0.0000
# 3 40.4438 42.1265 117.4755 0.0000 0.0000 0.0000
# 4 0.0000 0.0000 0.0000 36.5286 0.0000 0.0000
# 5 0.0000 0.0000 0.0000 0.0000 17.8364 0.0000
# 6 0.0000 0.0000 0.0000 0.0000 0.0000 23.4147
#
#
#
# Elastic Compliance Matrix: (Units=1/GPa)
#
#
# Indices 1 2 3 4 5 6 
#
# 1 0.012729 -0.002231 -0.003582 0.000000 0.000000 0.000000
# 2 -0.002231 0.009295 -0.002565 0.000000 0.000000 0.000000
# 3 -0.003582 -0.002565 0.010666 0.000000 0.000000 0.000000
# 4 0.000000 0.000000 0.000000 0.027376 0.000000 0.000000
# 5 0.000000 0.000000 0.000000 0.000000 0.056065 0.000000
# 6 0.000000 0.000000 0.000000 0.000000 0.000000 0.042708
#
#
# Mechanical properties :
#
#
# Convention : Reuss Voigt Hill
#
# Bulk Modulus (GPa) = 62.76235 63.81466 63.28851
# Shear Modulus (GPa) = 27.63858 30.49367 29.06613
#
# Velocity S-wave (km/s) = 3.76833 3.95818 3.86442
# Velocity P-wave (km/s) = 7.15403 7.32644 7.24075
#
# Compressibility (1/GPa) = 0.01593312
#
# Stress axis : x y z
#
# Youngs Moduli (GPa) = 78.56108 107.58146 93.75938
#
# Poissons Ratio (x) = 0.23999 0.33587
# Poissons Ratio (y) = 0.17525 0.24052
# Poissons Ratio (z) = 0.28143 0.27597
#
# Static dielectric constant tensor:
#      x y z
#    x 3.302870 0.000000 0.000000 
#    y 0.000000 3.627490 0.000000 
#    z 0.000000 0.000000 4.120160 
# 
# 
# High freq. dielectric constant tensor:
#      x y z
#    x 1.717040 0.000000 0.000000 
#    y 0.000000 1.768980 0.000000 
#    z 0.000000 0.000000 1.782480 
# 
# From -- ./inp_files/27002.got.cif
#   From: 2010.03.12/outbox.cif.g09.slc.cpg/sg73_14_cif.got.tgz:27002.got - 2010.04.16 15:25:48.
