data_PCOD8295655
_publ_section_title
;
Structure prediction by ZEFSAII (Michael W. Deem and Ramdas Pophale) SiO2 
 PCOD8295655
Probable space group: I B C A 
;
_chemical_formula_sum "Si O2"
_cell_formula_units_Z 120
_cell_length_a 11.019973
_cell_length_b 29.501300
_cell_length_c 18.715751
_cell_angle_alpha 90.000000
_cell_angle_beta 90.000000
_cell_angle_gamma 90.000000
_cell_volume 6084.556707
_symmetry_space_group_name_H-M "I B C A "
_symmetry_group_IT_number 73
_symmetry_cell_setting 'orthorhombic'
loop_
_space_group_symop_operation_xyz
x,y,z
-x,1/2-y,z
x,-y,1/2-z
1/2-x,y,-z
-x,-y,-z
x,1/2+y,-z
-x,y,1/2+z
1/2+x,-y,z
1/2+x,1/2+y,1/2+z
1/2-x,-y,1/2+z
1/2+x,1/2-y,-z
-x,1/2+y,1/2-z
1/2-x,1/2-y,1/2-z
1/2+x,y,1/2-z
1/2-x,1/2+y,z
x,1/2-y,1/2+z
loop_
_atom_site_type_symbol
_atom_site_label
_atom_site_fract_x
_atom_site_fract_y
_atom_site_fract_z
Si Si1 0.970403 0.434261 0.541359
Si Si2 0.895659 0.529617 0.592953
Si Si3 0.038200 0.916732 0.202792
Si Si4 0.184670 0.334193 0.855721
Si Si5 0.172453 0.148320 0.782922
Si Si6 0.835169 0.921148 0.845672
Si Si7 0.872416 0.755598 0.206527
Si Si8 0.750000 0.871679 0.500000
O O1 0.898836 0.476432 0.576661
O O2 0.870225 0.401587 0.508740
O O3 0.067694 0.445647 0.480067
O O4 0.049805 0.412208 0.604113
O O5 0.760421 0.543308 0.619415
O O6 0.995926 0.541386 0.653357
O O7 0.100905 0.878287 0.154726
O O8 0.120782 0.937306 0.266449
O O9 0.921851 0.891382 0.235037
O O10 0.285018 0.334912 0.794172
O O11 0.120878 0.284491 0.852984
O O12 0.243417 0.338371 0.932969
O O13 0.275902 0.128133 0.834406
O O14 0.124160 0.192951 0.824817
O O15 0.750000 0.750000 0.250000
O O16 0.000000 0.750000 0.250990
#
# Coordination Sequence:
#
# PCOD8295655 Si02
#       8
#    16  16  16  16  16  16  16   8
#     4  11  24  40  62  87 122 166 216 261 315 380
#     4  10  23  40  62  87 120 164 213 259 315 379
#     4  10  18  38  59  91 122 157 198 263 312 368
#     4  10  20  35  59  86 124 160 201 246 311 375
#     4   9  19  36  64  92 122 154 203 254 320 373
#     4  10  22  38  64  93 123 158 211 266 315 376
#     4  10  19  35  64  97 124 157 201 257 310 378
#     4  12  24  40  62  86 124 174 208 258 314 382
#
# _framework density 19.722061
#
# number of rings (size 3 to 8) (size 9 to 14) (size 15 to 20)
#    0.000    1.867    2.667    1.200    3.733    0.533 
#    0.000    4.000    8.800    0.000    0.000    0.000 
#    0.000    0.000    0.000    0.000    0.000    0.000 
#
# Total GULP energy -743329.858063 kJ/mol
# GULP energy per Si atom -12388.830968 kJ/mol
# Density = 1.967717 g / cm^3
# Si number density = 19.722061 Si / 1000 Ang^3
#
#
#
# Elastic Constant Matrix: (Units=GPa)
#
#
# Indices 1 2 3 4 5 6 
#
# 1 93.4972 32.3883 37.1200 -0.0001 0.0000 0.0000
# 2 32.3883 80.8970 47.0789 0.0000 0.0000 0.0000
# 3 37.1200 47.0789 95.0961 -0.0002 0.0001 -0.0001
# 4 -0.0001 0.0000 -0.0002 11.6102 0.0000 0.0000
# 5 0.0000 0.0000 0.0001 0.0000 36.5031 0.0000
# 6 0.0000 0.0000 -0.0001 0.0000 0.0000 20.2809
#
#
#
# Elastic Compliance Matrix: (Units=1/GPa)
#
#
# Indices 1 2 3 4 5 6 
#
# 1 0.013228 -0.003218 -0.003570 0.000000 0.000000 0.000000
# 2 -0.003218 0.018147 -0.007728 0.000000 0.000000 0.000000
# 3 -0.003570 -0.007728 0.015735 0.000000 0.000000 0.000000
# 4 0.000000 0.000000 0.000000 0.086131 0.000000 0.000000
# 5 0.000000 0.000000 0.000000 0.000000 0.027395 0.000000
# 6 0.000000 0.000000 0.000000 0.000000 0.000000 0.049307
#
#
# Mechanical properties :
#
#
# Convention : Reuss Voigt Hill
#
# Bulk Modulus (GPa) = 55.31722 55.85166 55.58444
# Shear Modulus (GPa) = 20.40802 23.87239 22.14020
#
# Velocity S-wave (km/s) = 3.22029 3.48291 3.35417
# Velocity P-wave (km/s) = 6.47583 6.67496 6.57615
#
# Compressibility (1/GPa) = 0.01807755
#
# Stress axis : x y z
#
# Youngs Moduli (GPa) = 75.59878 55.10495 63.55250
#
# Poissons Ratio (x) = 0.17734 0.22689
# Poissons Ratio (y) = 0.24330 0.49112
# Poissons Ratio (z) = 0.26989 0.42584
#
# Static dielectric constant tensor:
#      x y z
#    x 3.752460 0.000000 0.000000 
#    y 0.000000 3.449200 0.000000 
#    z 0.000000 0.000000 3.477040 
# 
# 
# High freq. dielectric constant tensor:
#      x y z
#    x 1.783820 0.000000 0.000000 
#    y 0.000000 1.766620 0.000000 
#    z 0.000000 0.000000 1.746730 
# 
# From -- ./inp_files/14908.got.cif
#   From: 2010.03.12/outbox.cif.g09.slc.cpg/sg73_8_cif.got.tgz:14908.got - 2010.04.16 15:25:48.
