data_PCOD8295116
_publ_section_title
;
Structure prediction by ZEFSAII (Michael W. Deem and Ramdas Pophale) SiO2 
 PCOD8295116
Probable space group: I B A M
;
_chemical_formula_sum "Si O2"
_cell_formula_units_Z 80
_cell_length_a 24.014499
_cell_length_b 10.123906
_cell_length_c 17.014964
_cell_angle_alpha 90.000000
_cell_angle_beta 90.000000
_cell_angle_gamma 90.000000
_cell_volume 4136.687074
_symmetry_space_group_name_H-M "I B A M"
_symmetry_group_IT_number 72
_symmetry_cell_setting 'orthorhombic'
loop_
_space_group_symop_operation_xyz
x,y,z
-x,-y,z
x,-y,1/2-z
-x,y,1/2-z
-x,-y,-z
x,y,-z
-x,y,1/2+z
x,-y,1/2+z
1/2+x,1/2+y,1/2+z
1/2-x,1/2-y,1/2+z
1/2+x,1/2-y,-z
1/2-x,1/2+y,-z
1/2-x,1/2-y,1/2-z
1/2+x,1/2+y,1/2-z
1/2-x,1/2+y,z
1/2+x,1/2-y,z
loop_
_atom_site_type_symbol
_atom_site_label
_atom_site_fract_x
_atom_site_fract_y
_atom_site_fract_z
Si Si1 0.350420 0.524408 0.161025
Si Si2 0.142873 0.264209 0.592906
Si Si3 0.259592 0.124823 0.804681
Si Si4 0.974583 0.632353 0.591733
Si Si5 0.971866 0.870780 0.164452
O O1 0.333264 0.500000 0.250000
O O2 0.358597 0.391835 0.111501
O O3 0.294014 0.602071 0.136405
O O4 0.405495 0.613592 0.164235
O O5 0.149587 0.281285 0.500000
O O6 0.190670 0.344172 0.635968
O O7 0.085647 0.328277 0.625677
O O8 0.250000 0.250000 0.750000
O O9 0.275969 0.000000 0.750000
O O10 0.968655 0.610421 0.500000
O O11 0.000000 0.500000 0.631285
O O12 0.018088 0.747917 0.608676
O O13 0.000000 0.848808 0.250000
O O14 0.000000 0.000000 0.126063
#
# Coordination Sequence:
#
# PCOD8295116 Si02
#       5
#    16  16  16  16  16
#     4  11  20  39  64  91 126 159 210 252 310 369
#     4  11  23  42  65  93 128 166 208 263 315 370
#     4  11  23  41  66  89 124 169 210 259 313 370
#     4  10  23  42  60  88 129 164 199 253 321 375
#     4  11  20  35  64  96 121 154 205 256 296 371
#
# _framework density 19.339146
#
# number of rings (size 3 to 8) (size 9 to 14) (size 15 to 20)
#    0.000    1.200    8.000    0.000    0.000    4.000 
#    0.000    0.000    0.000    0.000    0.000    0.000 
#    0.000    0.000    0.000    0.000    0.000    0.000 
#
# Total GULP energy -495746.249814 kJ/mol
# GULP energy per Si atom -12393.656245 kJ/mol
# Density = 1.929513 g / cm^3
# Si number density = 19.339146 Si / 1000 Ang^3
#
#
#
# Elastic Constant Matrix: (Units=GPa)
#
#
# Indices 1 2 3 4 5 6 
#
# 1 186.5357 69.4641 38.0706 0.0000 0.0000 0.0000
# 2 69.4641 139.1750 30.7394 0.0000 0.0000 0.0000
# 3 38.0706 30.7394 49.0257 0.0000 0.0000 0.0000
# 4 0.0000 0.0000 0.0000 38.4612 0.0000 0.0000
# 5 0.0000 0.0000 0.0000 0.0000 -328.7489 0.0000
# 6 0.0000 0.0000 0.0000 0.0000 0.0000 39.0275
#
#
#
# Elastic Compliance Matrix: (Units=1/GPa)
#
#
# Indices 1 2 3 4 5 6 
#
# 1 0.007162 -0.002723 -0.003854 0.000000 0.000000 0.000000
# 2 -0.002723 0.009376 -0.003764 0.000000 0.000000 0.000000
# 3 -0.003854 -0.003764 0.025750 0.000000 0.000000 0.000000
# 4 0.000000 0.000000 0.000000 0.026000 0.000000 0.000000
# 5 0.000000 0.000000 0.000000 0.000000 -0.003042 0.000000
# 6 0.000000 0.000000 0.000000 0.000000 0.000000 0.025623
#
#
# Mechanical properties :
#
#
# Convention : Reuss Voigt Hill
#
# Bulk Modulus (GPa) = 46.28453 72.36496 59.32475
# Shear Modulus (GPa) = 42.10442 -34.48790 3.80826
#
# Velocity S-wave (km/s) = 4.67107 -4.22752 1.40480
# Velocity P-wave (km/s) = 7.28539 3.69742 5.77701
#
# Compressibility (1/GPa) = 0.02160549
#
# Stress axis : x y z
#
# Youngs Moduli (GPa) = 139.63471 106.65823 38.83488
#
# Poissons Ratio (x) = 0.29046 0.14966
# Poissons Ratio (y) = 0.38026 0.14617
# Poissons Ratio (z) = 0.53812 0.40145
#
# Static dielectric constant tensor:
#      x y z
#    x 4.225190 0.000000 0.000000 
#    y 0.000000 -3.434380 0.000000 
#    z 0.000000 0.000000 3.614240 
# 
# 
# High freq. dielectric constant tensor:
#      x y z
#    x 1.776620 0.000000 0.000000 
#    y 0.000000 1.756110 0.000000 
#    z 0.000000 0.000000 1.727660 
# 
# From -- ./inp_files/33748.got.cif
#   From: 2010.03.12/outbox.cif.g09.slc.cpg/sg72_17_cif.got.tgz:33748.got - 2010.04.16 14:54:00.
