data_PCOD8295011
_publ_section_title
;
Structure prediction by ZEFSAII (Michael W. Deem and Ramdas Pophale) SiO2 
 PCOD8295011
Probable space group: I B A M
;
_chemical_formula_sum "Si O2"
_cell_formula_units_Z 96
_cell_length_a 19.910012
_cell_length_b 16.108858
_cell_length_c 14.771611
_cell_angle_alpha 90.000000
_cell_angle_beta 90.000000
_cell_angle_gamma 90.000000
_cell_volume 4737.662695
_symmetry_space_group_name_H-M "I B A M"
_symmetry_group_IT_number 72
_symmetry_cell_setting 'orthorhombic'
loop_
_space_group_symop_operation_xyz
x,y,z
-x,-y,z
x,-y,1/2-z
-x,y,1/2-z
-x,-y,-z
x,y,-z
-x,y,1/2+z
x,-y,1/2+z
1/2+x,1/2+y,1/2+z
1/2-x,1/2-y,1/2+z
1/2+x,1/2-y,-z
1/2-x,1/2+y,-z
1/2-x,1/2-y,1/2-z
1/2+x,1/2+y,1/2-z
1/2-x,1/2+y,z
1/2+x,1/2-y,z
loop_
_atom_site_type_symbol
_atom_site_label
_atom_site_fract_x
_atom_site_fract_y
_atom_site_fract_z
Si Si1 0.535231 0.700104 0.657756
Si Si2 0.333439 0.792396 0.162547
Si Si3 0.326270 0.500000 0.750000
Si Si4 0.238629 0.643316 0.167208
Si Si5 0.849418 0.587565 0.500000
Si Si6 0.073869 0.025617 0.102338
Si Si7 0.624099 0.895303 0.500000
Si Si8 0.517633 0.800675 0.000000
O O1 0.500000 0.671228 0.750000
O O2 0.590019 0.768509 0.679567
O O3 0.576963 0.624582 0.613541
O O4 0.482303 0.739781 0.587182
O O5 0.285573 0.717139 0.129132
O O6 0.313614 0.823217 0.260803
O O7 0.333482 0.864203 0.086850
O O8 0.282718 0.578077 0.777448
O O9 0.373456 0.523669 0.664755
O O10 0.197678 0.601070 0.086636
O O11 0.878009 0.494516 0.500000
O O12 0.913488 0.648030 0.500000
O O13 0.090812 0.999721 0.000000
O O14 0.000000 0.000000 0.132071
O O15 0.547854 0.860306 0.500000
#
# Coordination Sequence:
#
# PCOD8295011 Si02
#       8
#    16  16   8  16   8  16   8   8
#     4  11  20  39  68  89 128 169 214 273 330 387
#     4  10  22  42  60  93 123 170 217 257 326 398
#     4  12  23  40  66  94 129 176 216 250 328 388
#     4  11  24  39  63  92 132 171 216 264 319 397
#     4  12  24  43  63  93 131 165 221 281 328 382
#     4  11  24  41  62  96 133 167 213 270 322 384
#     4  10  22  41  69  87 124 166 216 279 337 387
#     4  10  23  40  65  98 120 167 223 272 342 389
#
# _framework density 20.263155999999999
#
# number of rings (size 3 to 8) (size 9 to 14) (size 15 to 20)
#    0.000    1.167    2.500    4.000    1.167    0.000 
#    1.500    0.000    0.000    3.000    0.000    0.000 
#    0.000    0.000    0.000    0.000    0.000    0.000 
#
# Total GULP energy -595195.049247 kJ/mol
# GULP energy per Si atom -12399.896859 kJ/mol
# Density = 2.021704 g / cm^3
# Si number density = 20.263156 Si / 1000 Ang^3
#
#
#
# Elastic Constant Matrix: (Units=GPa)
#
#
# Indices 1 2 3 4 5 6 
#
# 1 87.7966 33.9743 50.9299 0.0000 0.0000 0.0000
# 2 33.9743 83.0238 51.6597 0.0000 0.0000 0.0000
# 3 50.9299 51.6597 98.4181 0.0000 0.0000 0.0000
# 4 0.0000 0.0000 0.0000 27.0393 0.0000 0.0000
# 5 0.0000 0.0000 0.0000 0.0000 23.1976 0.0000
# 6 0.0000 0.0000 0.0000 0.0000 0.0000 37.7371
#
#
#
# Elastic Compliance Matrix: (Units=1/GPa)
#
#
# Indices 1 2 3 4 5 6 
#
# 1 0.016528 -0.002141 -0.007429 0.000000 0.000000 0.000000
# 2 -0.002141 0.018164 -0.008426 0.000000 0.000000 0.000000
# 3 -0.007429 -0.008426 0.018428 0.000000 0.000000 0.000000
# 4 0.000000 0.000000 0.000000 0.036983 0.000000 0.000000
# 5 0.000000 0.000000 0.000000 0.000000 0.043108 0.000000
# 6 0.000000 0.000000 0.000000 0.000000 0.000000 0.026499
#
#
# Mechanical properties :
#
#
# Convention : Reuss Voigt Hill
#
# Bulk Modulus (GPa) = 58.38642 60.26291 59.32467
# Shear Modulus (GPa) = 24.82465 26.43978 25.63222
#
# Velocity S-wave (km/s) = 3.50396 3.61615 3.56050
# Velocity P-wave (km/s) = 6.72658 6.87314 6.80026
#
# Compressibility (1/GPa) = 0.01712727
#
# Stress axis : x y z
#
# Youngs Moduli (GPa) = 60.50325 55.05416 54.26417
#
# Poissons Ratio (x) = 0.11786 0.40315
# Poissons Ratio (y) = 0.12952 0.45726
# Poissons Ratio (z) = 0.44950 0.46391
#
# Static dielectric constant tensor:
#      x y z
#    x 3.721380 0.000000 0.000000 
#    y 0.000000 3.669000 0.000000 
#    z 0.000000 0.000000 3.810920 
# 
# 
# High freq. dielectric constant tensor:
#      x y z
#    x 1.795960 0.000000 0.000000 
#    y 0.000000 1.789390 0.000000 
#    z 0.000000 0.000000 1.803900 
# 
# From -- ./inp_files/21942.got.cif
#   From: 2010.03.12/outbox.cif.g09.slc.cpg/sg72_11_cif.got.tgz:21942.got - 2010.04.16 14:54:00.
