data_PCOD8295557
_publ_section_title
;
Structure prediction by ZEFSAII (Michael W. Deem and Ramdas Pophale) SiO2 
 PCOD8295557
Probable space group: I B C A 
;
_chemical_formula_sum "Si O2"
_cell_formula_units_Z 120
_cell_length_a 11.157251
_cell_length_b 18.327557
_cell_length_c 31.024987
_cell_angle_alpha 90.000000
_cell_angle_beta 90.000000
_cell_angle_gamma 90.000000
_cell_volume 6344.149234
_symmetry_space_group_name_H-M "I B C A "
_symmetry_group_IT_number 73
_symmetry_cell_setting 'orthorhombic'
loop_
_space_group_symop_operation_xyz
x,y,z
-x,1/2-y,z
x,-y,1/2-z
1/2-x,y,-z
-x,-y,-z
x,1/2+y,-z
-x,y,1/2+z
1/2+x,-y,z
1/2+x,1/2+y,1/2+z
1/2-x,-y,1/2+z
1/2+x,1/2-y,-z
-x,1/2+y,1/2-z
1/2-x,1/2-y,1/2-z
1/2+x,y,1/2-z
1/2-x,1/2+y,z
x,1/2-y,1/2+z
loop_
_atom_site_type_symbol
_atom_site_label
_atom_site_fract_x
_atom_site_fract_y
_atom_site_fract_z
Si Si1 0.570121 0.450366 0.555614
Si Si2 0.690762 0.718644 0.370015
Si Si3 0.947557 0.360480 0.364303
Si Si4 0.628920 0.736180 0.555457
Si Si5 0.750000 0.641867 0.000000
Si Si6 0.008404 0.161918 0.270567
Si Si7 0.753585 0.324113 0.224881
Si Si8 0.619291 0.410899 0.990856
O O1 0.577302 0.432057 0.606647
O O2 0.676149 0.410000 0.531021
O O3 0.569543 0.537748 0.547986
O O4 0.448275 0.419580 0.535892
O O5 0.570220 0.675502 0.380983
O O6 0.663464 0.804694 0.368030
O O7 0.782329 0.706053 0.408517
O O8 0.750501 0.688654 0.326185
O O9 0.957499 0.381160 0.314138
O O10 0.500000 0.750000 0.577445
O O11 0.668104 0.808987 0.530846
O O12 0.615010 0.673863 0.519918
O O13 0.115120 0.140254 0.236741
O O14 0.000000 0.250000 0.280040
O O15 0.871111 0.135298 0.258987
O O16 0.750000 0.250000 0.250000
O O17 0.750000 0.440122 0.000000
#
# Coordination Sequence:
#
# PCOD8295557 Si02
#       8
#    16  16  16  16   8  16  16  16
#     4  11  23  37  57  73 104 145 187 221 272 325
#     4  10  19  31  49  78 110 136 175 223 271 321
#     4  10  17  32  52  75 100 143 180 219 258 330
#     4  12  24  35  52  81 110 138 180 231 281 323
#     4  12  22  36  56  76 104 140 180 228 270 332
#     4   9  15  27  46  72 109 139 177 209 272 329
#     4   9  15  27  45  72 107 145 165 212 273 333
#     4  11  23  39  54  76 104 143 186 229 272 324
#
# _framework density 18.915065999999999
#
# number of rings (size 3 to 8) (size 9 to 14) (size 15 to 20)
#    0.000    1.600    8.000    0.800    0.000    1.600 
#    0.000    0.000    0.000    0.000    0.000    0.933 
#    0.000    4.267    0.000    0.000    0.000    0.000 
#
# Total GULP energy -743359.237255 kJ/mol
# GULP energy per Si atom -12389.320621 kJ/mol
# Density = 1.887201 g / cm^3
# Si number density = 18.915066 Si / 1000 Ang^3
#
#
#
# Elastic Constant Matrix: (Units=GPa)
#
#
# Indices 1 2 3 4 5 6 
#
# 1 121.4402 -0.1005 32.5073 0.0000 0.0000 0.0000
# 2 -0.1005 35.8864 3.6796 0.0000 0.0000 0.0000
# 3 32.5073 3.6796 74.2874 0.0000 0.0000 0.0000
# 4 0.0000 0.0000 0.0000 22.9842 0.0000 0.0000
# 5 0.0000 0.0000 0.0000 0.0000 30.1557 0.0000
# 6 0.0000 0.0000 0.0000 0.0000 0.0000 20.7761
#
#
#
# Elastic Compliance Matrix: (Units=1/GPa)
#
#
# Indices 1 2 3 4 5 6 
#
# 1 0.009334 0.000447 -0.004107 0.000000 0.000000 0.000000
# 2 0.000447 0.028029 -0.001584 0.000000 0.000000 0.000000
# 3 -0.004107 -0.001584 0.015337 0.000000 0.000000 0.000000
# 4 0.000000 0.000000 0.000000 0.043508 0.000000 0.000000
# 5 0.000000 0.000000 0.000000 0.000000 0.033161 0.000000
# 6 0.000000 0.000000 0.000000 0.000000 0.000000 0.048132
#
#
# Mechanical properties :
#
#
# Convention : Reuss Voigt Hill
#
# Bulk Modulus (GPa) = 23.68924 33.75408 28.72166
# Shear Modulus (GPa) = 24.74512 27.81837 26.28174
#
# Velocity S-wave (km/s) = 3.62086 3.83913 3.73159
# Velocity P-wave (km/s) = 5.48015 6.12664 5.81239
#
# Compressibility (1/GPa) = 0.04221327
#
# Stress axis : x y z
#
# Youngs Moduli (GPa) = 107.13347 35.67686 65.20297
#
# Poissons Ratio (x) = -0.01596 0.26777
# Poissons Ratio (y) = -0.04791 0.10328
# Poissons Ratio (z) = 0.43996 0.05651
#
# Static dielectric constant tensor:
#      x y z
#    x 3.710670 0.000000 0.000000 
#    y 0.000000 3.049690 0.000000 
#    z 0.000000 0.000000 3.731500 
# 
# 
# High freq. dielectric constant tensor:
#      x y z
#    x 1.756820 0.000000 0.000000 
#    y 0.000000 1.686150 0.000000 
#    z 0.000000 0.000000 1.721860 
# 
# From -- ./inp_files/31908.got.cif
#   From: 2010.03.12/outbox.cif.g09.slc.cpg/sg73_16_cif.got.tgz:31908.got - 2010.04.16 15:25:48.
