data_PCOD8295043
_publ_section_title
;
Structure prediction by ZEFSAII (Michael W. Deem and Ramdas Pophale) SiO2 
 PCOD8295043
Probable space group: I B A M
;
_chemical_formula_sum "Si O2"
_cell_formula_units_Z 68
_cell_length_a 32.194097
_cell_length_b 5.239612
_cell_length_c 18.923264
_cell_angle_alpha 90.000000
_cell_angle_beta 90.000000
_cell_angle_gamma 90.000000
_cell_volume 3192.062783
_symmetry_space_group_name_H-M "I B A M"
_symmetry_group_IT_number 72
_symmetry_cell_setting 'orthorhombic'
loop_
_space_group_symop_operation_xyz
x,y,z
-x,-y,z
x,-y,1/2-z
-x,y,1/2-z
-x,-y,-z
x,y,-z
-x,y,1/2+z
x,-y,1/2+z
1/2+x,1/2+y,1/2+z
1/2-x,1/2-y,1/2+z
1/2+x,1/2-y,-z
1/2-x,1/2+y,-z
1/2-x,1/2-y,1/2-z
1/2+x,1/2+y,1/2-z
1/2-x,1/2+y,z
1/2+x,1/2-y,z
loop_
_atom_site_type_symbol
_atom_site_label
_atom_site_fract_x
_atom_site_fract_y
_atom_site_fract_z
Si Si1 0.910296 0.179055 0.081091
Si Si2 0.223571 0.777292 0.418725
Si Si3 0.500000 0.000000 0.750000
Si Si4 0.434627 0.190044 0.646958
Si Si5 0.648699 0.407953 0.174551
O O1 0.935449 0.431450 0.101738
O O2 0.867770 0.146237 0.126645
O O3 0.940392 0.934787 0.095437
O O4 0.897021 0.192967 0.000000
O O5 0.208507 0.769831 0.500000
O O6 0.247467 0.037815 0.401541
O O7 0.184061 0.757499 0.367774
O O8 0.528588 0.813005 0.703697
O O9 0.390343 0.217215 0.687623
O O10 0.666164 0.500000 0.250000
#
# Coordination Sequence:
#
# PCOD8295043 Si02
#       5
#    16  16   4  16  16
#     4  10  22  43  66  96 129 172 223 274 325 393
#     4  10  23  41  63  94 130 175 220 268 328 389
#     4  12  24  50  66 102 140 174 218 282 332 410
#     4  10  25  39  70  95 130 179 219 269 335 394
#     4  10  23  42  66  99 133 174 222 269 335 396
#
# _framework density 21.302838999999999
#
# number of rings (size 3 to 8) (size 9 to 14) (size 15 to 20)
#    1.412    0.471    0.000    2.824    3.294    2.824 
#    0.000    3.529    0.000    0.000    0.000    0.000 
#    0.000    0.000    0.000    0.000    0.000    0.000 
#
# Total GULP energy -421481.053596 kJ/mol
# GULP energy per Si atom -12396.501576 kJ/mol
# Density = 2.125435 g / cm^3
# Si number density = 21.302839 Si / 1000 Ang^3
#
#
#
# Elastic Constant Matrix: (Units=GPa)
#
#
# Indices 1 2 3 4 5 6 
#
# 1 116.2338 22.5774 51.0756 0.0000 0.0000 0.0000
# 2 22.5774 132.7991 27.5895 0.0000 0.0000 0.0000
# 3 51.0756 27.5895 123.1752 0.0000 0.0000 0.0000
# 4 0.0000 0.0000 0.0000 16.3187 0.0000 0.0000
# 5 0.0000 0.0000 0.0000 0.0000 35.0427 0.0000
# 6 0.0000 0.0000 0.0000 0.0000 0.0000 22.2597
#
#
#
# Elastic Compliance Matrix: (Units=1/GPa)
#
#
# Indices 1 2 3 4 5 6 
#
# 1 0.010630 -0.000935 -0.004198 0.000000 0.000000 0.000000
# 2 -0.000935 0.007980 -0.001400 0.000000 0.000000 0.000000
# 3 -0.004198 -0.001400 0.010173 0.000000 0.000000 0.000000
# 4 0.000000 0.000000 0.000000 0.061279 0.000000 0.000000
# 5 0.000000 0.000000 0.000000 0.000000 0.028537 0.000000
# 6 0.000000 0.000000 0.000000 0.000000 0.000000 0.044924
#
#
# Mechanical properties :
#
#
# Convention : Reuss Voigt Hill
#
# Bulk Modulus (GPa) = 63.62682 63.85480 63.74081
# Shear Modulus (GPa) = 27.49859 32.78860 30.14360
#
# Velocity S-wave (km/s) = 3.59673 3.92748 3.76573
# Velocity P-wave (km/s) = 6.86886 7.11383 6.99242
#
# Compressibility (1/GPa) = 0.01571664
#
# Stress axis : x y z
#
# Youngs Moduli (GPa) = 94.07532 125.31449 98.30049
#
# Poissons Ratio (x) = 0.11717 0.41270
# Poissons Ratio (y) = 0.08796 0.13759
# Poissons Ratio (z) = 0.39496 0.17540
#
# Static dielectric constant tensor:
#      x y z
#    x 3.542850 0.000000 0.000000 
#    y 0.000000 3.747930 0.000000 
#    z 0.000000 0.000000 3.717100 
# 
# 
# High freq. dielectric constant tensor:
#      x y z
#    x 1.815330 0.000000 0.000000 
#    y 0.000000 1.837710 0.000000 
#    z 0.000000 0.000000 1.832330 
# 
# From -- ./inp_files/40592.got.cif
#   From: 2010.03.12/outbox.cif.g09.slc.cpg/sg72_21_cif.got.tgz:40592.got - 2010.04.16 14:54:00.
