data_PCOD8295999
_publ_section_title
;
Structure prediction by ZEFSAII (Michael W. Deem and Ramdas Pophale) SiO2 
 PCOD8295999
Probable space group: I B C A 
;
_chemical_formula_sum "Si O2"
_cell_formula_units_Z 88
_cell_length_a 8.691975
_cell_length_b 19.636007
_cell_length_c 21.730854
_cell_angle_alpha 90.000000
_cell_angle_beta 90.000000
_cell_angle_gamma 90.000000
_cell_volume 3708.928326
_symmetry_space_group_name_H-M "I B C A "
_symmetry_group_IT_number 73
_symmetry_cell_setting 'orthorhombic'
loop_
_space_group_symop_operation_xyz
x,y,z
-x,1/2-y,z
x,-y,1/2-z
1/2-x,y,-z
-x,-y,-z
x,1/2+y,-z
-x,y,1/2+z
1/2+x,-y,z
1/2+x,1/2+y,1/2+z
1/2-x,-y,1/2+z
1/2+x,1/2-y,-z
-x,1/2+y,1/2-z
1/2-x,1/2-y,1/2-z
1/2+x,y,1/2-z
1/2-x,1/2+y,z
x,1/2-y,1/2+z
loop_
_atom_site_type_symbol
_atom_site_label
_atom_site_fract_x
_atom_site_fract_y
_atom_site_fract_z
Si Si1 0.088878 0.820467 0.112475
Si Si2 0.907670 0.679447 0.843875
Si Si3 0.545259 0.673781 0.020879
Si Si4 0.132563 0.946849 0.625522
Si Si5 0.750000 0.585708 0.500000
Si Si6 0.558952 0.951155 0.191974
O O1 0.222787 0.812811 0.164459
O O2 0.000000 0.750000 0.111785
O O3 0.972126 0.879824 0.130711
O O4 0.154110 0.831204 0.041055
O O5 0.000000 0.750000 0.834695
O O6 0.904324 0.646562 0.912543
O O7 0.980009 0.623092 0.797957
O O8 0.500000 0.750000 0.035262
O O9 0.394848 0.633412 0.003172
O O10 0.221260 0.959500 0.560791
O O11 0.261512 0.940604 0.678404
O O12 0.026299 0.012427 0.635046
O O13 0.536568 0.000000 0.250000
#
# Coordination Sequence:
#
# PCOD8295999 Si02
#       6
#    16  16  16  16   8  16
#     4  10  21  37  64 104 150 186 227 280 345 418
#     4  11  22  40  69 104 139 186 235 285 343 411
#     4   9  19  30  61  98 147 189 222 272 341 415
#     4  11  24  44  67  99 139 185 233 289 357 416
#     4  10  20  40  60 104 144 182 234 286 350 430
#     4  12  26  47  70  96 135 187 241 293 353 417
#
# _framework density 23.726531000000001
#
# number of rings (size 3 to 8) (size 9 to 14) (size 15 to 20)
#    0.000    1.455    1.818    3.273   12.727    0.727 
#    3.273    1.818    0.000    5.455    0.000    0.000 
#    0.000    0.000    0.000    0.000    0.000    0.000 
#
# Total GULP energy -545148.441011 kJ/mol
# GULP energy per Si atom -12389.737296 kJ/mol
# Density = 2.367253 g / cm^3
# Si number density = 23.726531 Si / 1000 Ang^3
#
#
#
# Elastic Constant Matrix: (Units=GPa)
#
#
# Indices 1 2 3 4 5 6 
#
# 1 93.1027 48.6104 32.3334 0.0000 0.0000 0.0000
# 2 48.6104 147.6560 48.3349 0.0000 0.0000 0.0000
# 3 32.3334 48.3349 75.8048 0.0000 0.0000 0.0000
# 4 0.0000 0.0000 0.0000 31.9302 0.0000 0.0000
# 5 0.0000 0.0000 0.0000 0.0000 22.8335 0.0000
# 6 0.0000 0.0000 0.0000 0.0000 0.0000 44.0116
#
#
#
# Elastic Compliance Matrix: (Units=1/GPa)
#
#
# Indices 1 2 3 4 5 6 
#
# 1 0.013773 -0.003300 -0.003771 0.000000 0.000000 0.000000
# 2 -0.003300 0.009350 -0.004554 0.000000 0.000000 0.000000
# 3 -0.003771 -0.004554 0.017704 0.000000 0.000000 0.000000
# 4 0.000000 0.000000 0.000000 0.031318 0.000000 0.000000
# 5 0.000000 0.000000 0.000000 0.000000 0.043795 0.000000
# 6 0.000000 0.000000 0.000000 0.000000 0.000000 0.022721
#
#
# Mechanical properties :
#
#
# Convention : Reuss Voigt Hill
#
# Bulk Modulus (GPa) = 56.89090 63.90229 60.39660
# Shear Modulus (GPa) = 29.80268 32.24071 31.02169
#
# Velocity S-wave (km/s) = 3.54798 3.69025 3.61982
# Velocity P-wave (km/s) = 6.38859 6.71927 6.55601
#
# Compressibility (1/GPa) = 0.01757750
#
# Stress axis : x y z
#
# Youngs Moduli (GPa) = 72.60407 106.95574 56.48508
#
# Poissons Ratio (x) = 0.35296 0.21298
# Poissons Ratio (y) = 0.23960 0.25723
# Poissons Ratio (z) = 0.27376 0.48707
#
# Static dielectric constant tensor:
#      x y z
#    x 4.421570 0.000000 0.000000 
#    y 0.000000 4.284040 0.000000 
#    z 0.000000 0.000000 1.331180 
# 
# 
# High freq. dielectric constant tensor:
#      x y z
#    x 1.958810 0.000000 0.000000 
#    y 0.000000 1.933280 0.000000 
#    z 0.000000 0.000000 1.925330 
# 
# From -- ./inp_files/28345.got.cif
#   From: 2010.03.12/outbox.cif.g09.slc.cpg/sg73_15_cif.got.tgz:28345.got - 2010.04.16 15:25:48.
