data_PCOD8295305
_publ_section_title
;
Structure prediction by ZEFSAII (Michael W. Deem and Ramdas Pophale) SiO2 
 PCOD8295305
Probable space group: I B A M
;
_chemical_formula_sum "Si O2"
_cell_formula_units_Z 64
_cell_length_a 22.367123
_cell_length_b 9.113771
_cell_length_c 13.810369
_cell_angle_alpha 90.000000
_cell_angle_beta 90.000000
_cell_angle_gamma 90.000000
_cell_volume 2815.227659
_symmetry_space_group_name_H-M "I B A M"
_symmetry_group_IT_number 72
_symmetry_cell_setting 'orthorhombic'
loop_
_space_group_symop_operation_xyz
x,y,z
-x,-y,z
x,-y,1/2-z
-x,y,1/2-z
-x,-y,-z
x,y,-z
-x,y,1/2+z
x,-y,1/2+z
1/2+x,1/2+y,1/2+z
1/2-x,1/2-y,1/2+z
1/2+x,1/2-y,-z
1/2-x,1/2+y,-z
1/2-x,1/2-y,1/2-z
1/2+x,1/2+y,1/2-z
1/2-x,1/2+y,z
1/2+x,1/2-y,z
loop_
_atom_site_type_symbol
_atom_site_label
_atom_site_fract_x
_atom_site_fract_y
_atom_site_fract_z
Si Si1 0.999304 0.829146 0.890152
Si Si2 0.699630 0.499995 0.000000
Si Si3 0.395020 0.143754 0.191933
Si Si4 0.374338 0.627279 0.176271
Si Si5 0.175525 0.652712 0.000000
O O1 0.930147 0.788611 0.874718
O O2 0.044234 0.738715 0.822328
O O3 0.020077 0.799204 0.000000
O O4 0.000000 0.000000 0.864981
O O5 0.670502 0.433119 0.096286
O O6 0.692763 0.675433 0.000000
O O7 0.768002 0.454204 0.000000
O O8 0.348064 0.241404 0.256350
O O9 0.363446 0.106687 0.091824
O O10 0.413550 0.000000 0.250000
O O11 0.393893 0.500000 0.250000
#
# Coordination Sequence:
#
# PCOD8295305 Si02
#       5
#    16   8  16  16   8
#     4  11  21  42  77 108 147 193 244 306 371 448
#     4  12  28  49  79 111 146 203 266 319 373 444
#     4  12  28  47  76 115 161 195 244 316 388 454
#     4  12  24  45  76 114 146 198 254 303 374 455
#     4  12  28  53  77 107 152 200 263 324 373 443
#
# _framework density 22.733509000000002
#
# number of rings (size 3 to 8) (size 9 to 14) (size 15 to 20)
#    0.000    0.250    7.500    0.750    3.500    4.000 
#    0.000    1.250    0.000    0.000    0.000    0.000 
#    0.000    0.000    0.000    0.000    0.000    0.000 
#
# Total GULP energy -396602.797700 kJ/mol
# GULP energy per Si atom -12393.837428 kJ/mol
# Density = 2.268177 g / cm^3
# Si number density = 22.733509 Si / 1000 Ang^3
#
#
#
# Elastic Constant Matrix: (Units=GPa)
#
#
# Indices 1 2 3 4 5 6 
#
# 1 110.4679 36.3332 45.0291 0.0000 0.0000 0.0000
# 2 36.3332 132.6692 71.8940 0.0000 0.0000 0.0000
# 3 45.0291 71.8940 141.3634 0.0000 0.0000 0.0000
# 4 0.0000 0.0000 0.0000 37.6141 0.0000 0.0000
# 5 0.0000 0.0000 0.0000 0.0000 8.2004 0.0000
# 6 0.0000 0.0000 0.0000 0.0000 0.0000 22.3888
#
#
#
# Elastic Compliance Matrix: (Units=1/GPa)
#
#
# Indices 1 2 3 4 5 6 
#
# 1 0.010610 -0.001483 -0.002626 0.000000 0.000000 0.000000
# 2 -0.001483 0.010612 -0.004925 0.000000 0.000000 0.000000
# 3 -0.002626 -0.004925 0.010415 0.000000 0.000000 0.000000
# 4 0.000000 0.000000 0.000000 0.026586 0.000000 0.000000
# 5 0.000000 0.000000 0.000000 0.000000 0.121945 0.000000
# 6 0.000000 0.000000 0.000000 0.000000 0.000000 0.044665
#
#
# Mechanical properties :
#
#
# Convention : Reuss Voigt Hill
#
# Bulk Modulus (GPa) = 73.68650 76.77923 75.23286
# Shear Modulus (GPa) = 20.20822 29.05696 24.63259
#
# Velocity S-wave (km/s) = 2.98471 3.57901 3.29528
# Velocity P-wave (km/s) = 6.66044 7.13624 6.90244
#
# Compressibility (1/GPa) = 0.01357101
#
# Stress axis : x y z
#
# Youngs Moduli (GPa) = 94.24713 94.22865 96.01565
#
# Poissons Ratio (x) = 0.13974 0.25210
# Poissons Ratio (y) = 0.13977 0.47286
# Poissons Ratio (z) = 0.24745 0.46406
#
# Static dielectric constant tensor:
#      x y z
#    x 3.867060 0.000000 0.000000 
#    y 0.000000 4.117610 0.000000 
#    z 0.000000 0.000000 4.613650 
# 
# 
# High freq. dielectric constant tensor:
#      x y z
#    x 1.870280 0.000000 0.000000 
#    y 0.000000 1.896310 0.000000 
#    z 0.000000 0.000000 1.932310 
# 
# From -- ./inp_files/24770.got.cif
#   From: 2010.03.12/outbox.cif.g09.slc.cpg/sg72_13_cif.got.tgz:24770.got - 2010.04.16 14:54:00.
