data_PCOD8295908
_publ_section_title
;
Structure prediction by ZEFSAII (Michael W. Deem and Ramdas Pophale) SiO2 
 PCOD8295908
Probable space group: I B C A 
;
_chemical_formula_sum "Si O2"
_cell_formula_units_Z 112
_cell_length_a 14.704212
_cell_length_b 15.738560
_cell_length_c 22.768966
_cell_angle_alpha 90.000000
_cell_angle_beta 90.000000
_cell_angle_gamma 90.000000
_cell_volume 5269.265215
_symmetry_space_group_name_H-M "I B C A "
_symmetry_group_IT_number 73
_symmetry_cell_setting 'orthorhombic'
loop_
_space_group_symop_operation_xyz
x,y,z
-x,1/2-y,z
x,-y,1/2-z
1/2-x,y,-z
-x,-y,-z
x,1/2+y,-z
-x,y,1/2+z
1/2+x,-y,z
1/2+x,1/2+y,1/2+z
1/2-x,-y,1/2+z
1/2+x,1/2-y,-z
-x,1/2+y,1/2-z
1/2-x,1/2-y,1/2-z
1/2+x,y,1/2-z
1/2-x,1/2+y,z
x,1/2-y,1/2+z
loop_
_atom_site_type_symbol
_atom_site_label
_atom_site_fract_x
_atom_site_fract_y
_atom_site_fract_z
Si Si1 0.868388 0.690863 0.830281
Si Si2 0.341091 0.806908 0.036384
Si Si3 0.787134 0.420223 0.287765
Si Si4 0.991597 0.655949 0.057662
Si Si5 0.434877 0.635855 0.201483
Si Si6 0.152229 0.886643 0.482296
Si Si7 0.603225 0.989141 0.381704
O O1 0.853828 0.656424 0.897377
O O2 0.786968 0.654709 0.790200
O O3 0.871218 0.793681 0.830862
O O4 0.960489 0.664688 0.795734
O O5 0.341302 0.705931 0.046848
O O6 0.250000 0.834711 0.000000
O O7 0.426909 0.839825 0.999651
O O8 0.750007 0.500000 0.250000
O O9 0.883926 0.384363 0.263000
O O10 0.802630 0.454583 0.354108
O O11 0.957207 0.593827 0.107655
O O12 0.000000 0.750000 0.085447
O O13 0.089435 0.620215 0.039421
O O14 0.443205 0.549083 0.165727
O O15 0.250000 0.920935 0.500000
O O16 0.113229 0.958886 0.440927
#
# Coordination Sequence:
#
# PCOD8295908 Si02
#       7
#    16  16  16  16  16  16  16
#     4  11  21  41  71  88 122 174 213 259 332 382
#     4  10  20  36  63  96 126 165 212 255 314 397
#     4  10  24  41  61  92 128 159 217 281 316 376
#     4  10  22  38  59  91 134 167 205 258 319 390
#     4  10  23  41  65  93 119 170 221 264 316 387
#     4  10  21  36  58  91 128 165 212 255 313 397
#     4  11  21  40  61  88 131 165 206 270 326 369
#
# _framework density 21.255336
#
# number of rings (size 3 to 8) (size 9 to 14) (size 15 to 20)
#    0.000    1.714    1.429    2.571    4.000    4.571 
#    2.571    1.429    0.000    0.000    0.000    0.000 
#    0.000    0.000    0.000    0.000    0.000    0.000 
#
# Total GULP energy -693976.866511 kJ/mol
# GULP energy per Si atom -12392.444045 kJ/mol
# Density = 2.120696 g / cm^3
# Si number density = 21.255336 Si / 1000 Ang^3
#
#
#
# Elastic Constant Matrix: (Units=GPa)
#
#
# Indices 1 2 3 4 5 6 
#
# 1 109.0413 54.2475 35.1411 0.0000 0.0000 0.0000
# 2 54.2475 103.9519 45.6578 0.0000 0.0000 0.0000
# 3 35.1411 45.6578 65.4541 0.0000 0.0000 0.0000
# 4 0.0000 0.0000 0.0000 22.0168 0.0000 0.0000
# 5 0.0000 0.0000 0.0000 0.0000 12.9108 0.0000
# 6 0.0000 0.0000 0.0000 0.0000 0.0000 24.1503
#
#
#
# Elastic Compliance Matrix: (Units=1/GPa)
#
#
# Indices 1 2 3 4 5 6 
#
# 1 0.012835 -0.005293 -0.003199 0.000000 0.000000 0.000000
# 2 -0.005293 0.016052 -0.008355 0.000000 0.000000 0.000000
# 3 -0.003199 -0.008355 0.022823 0.000000 0.000000 0.000000
# 4 0.000000 0.000000 0.000000 0.045420 0.000000 0.000000
# 5 0.000000 0.000000 0.000000 0.000000 0.077454 0.000000
# 6 0.000000 0.000000 0.000000 0.000000 0.000000 0.041407
#
#
# Mechanical properties :
#
#
# Convention : Reuss Voigt Hill
#
# Bulk Modulus (GPa) = 55.50545 60.94889 58.22717
# Shear Modulus (GPa) = 19.55483 21.37564 20.46524
#
# Velocity S-wave (km/s) = 3.03643 3.17465 3.10631
# Velocity P-wave (km/s) = 6.20190 6.49421 6.34974
#
# Compressibility (1/GPa) = 0.01801625
#
# Stress axis : x y z
#
# Youngs Moduli (GPa) = 77.91235 62.29820 43.81463
#
# Poissons Ratio (x) = 0.32975 0.14015
# Poissons Ratio (y) = 0.41239 0.36608
# Poissons Ratio (z) = 0.24921 0.52052
#
# Static dielectric constant tensor:
#      x y z
#    x 3.794740 0.000000 0.000000 
#    y 0.000000 4.123990 0.000000 
#    z 0.000000 0.000000 3.756070 
# 
# 
# High freq. dielectric constant tensor:
#      x y z
#    x 1.825580 0.000000 0.000000 
#    y 0.000000 1.844940 0.000000 
#    z 0.000000 0.000000 1.816510 
# 
# From -- ./inp_files/17251.got.cif
#   From: 2010.03.12/outbox.cif.g09.slc.cpg/sg73_9_cif.got.tgz:17251.got - 2010.04.16 15:25:48.
