data_PCOD8295133
_publ_section_title
;
Structure prediction by ZEFSAII (Michael W. Deem and Ramdas Pophale) SiO2 
 PCOD8295133
Probable space group: I B A M
;
_chemical_formula_sum "Si O2"
_cell_formula_units_Z 56
_cell_length_a 29.052458
_cell_length_b 5.545187
_cell_length_c 14.200928
_cell_angle_alpha 90.000000
_cell_angle_beta 90.000000
_cell_angle_gamma 90.000000
_cell_volume 2287.788138
_symmetry_space_group_name_H-M "I B A M"
_symmetry_group_IT_number 72
_symmetry_cell_setting 'orthorhombic'
loop_
_space_group_symop_operation_xyz
x,y,z
-x,-y,z
x,-y,1/2-z
-x,y,1/2-z
-x,-y,-z
x,y,-z
-x,y,1/2+z
x,-y,1/2+z
1/2+x,1/2+y,1/2+z
1/2-x,1/2-y,1/2+z
1/2+x,1/2-y,-z
1/2-x,1/2+y,-z
1/2-x,1/2-y,1/2-z
1/2+x,1/2+y,1/2-z
1/2-x,1/2+y,z
1/2+x,1/2-y,z
loop_
_atom_site_type_symbol
_atom_site_label
_atom_site_fract_x
_atom_site_fract_y
_atom_site_fract_z
Si Si1 0.129419 0.336920 0.103492
Si Si2 0.541709 0.832468 0.895336
Si Si3 0.914983 0.000000 0.750000
Si Si4 0.229548 0.490759 0.141274
O O1 0.088536 0.523574 0.102606
O O2 0.120633 0.154091 0.188369
O O3 0.175210 0.488127 0.123685
O O4 0.132185 0.209234 0.000000
O O5 0.548848 0.623868 0.820094
O O6 0.500000 0.000000 0.860606
O O7 0.530745 0.727789 0.000000
O O8 0.242824 0.500000 0.250000
O O9 0.250993 0.242492 0.096352
#
# Coordination Sequence:
#
# PCOD8295133 Si02
#       4
#    16  16   8  16
#     4  11  26  44  67 103 144 188 239 299 364 436
#     4  10  24  46  71 104 143 182 234 296 360 432
#     4  12  24  43  74 102 134 188 238 294 359 436
#     4  10  23  42  71 104 140 188 245 305 368 441
#
# _framework density 24.477793999999999
#
# number of rings (size 3 to 8) (size 9 to 14) (size 15 to 20)
#    0.000    1.429    0.000    3.429   10.000    5.714 
#    0.000    4.286    0.000    2.571    0.000    0.000 
#    0.000    0.000    0.000    0.000    0.000    0.000 
#
# Total GULP energy -347071.147724 kJ/mol
# GULP energy per Si atom -12395.398133 kJ/mol
# Density = 2.442208 g / cm^3
# Si number density = 24.477794 Si / 1000 Ang^3
#
#
#
# Elastic Constant Matrix: (Units=GPa)
#
#
# Indices 1 2 3 4 5 6 
#
# 1 174.5842 65.3803 12.1464 0.0000 0.0000 0.0000
# 2 65.3803 142.8991 50.0134 0.0000 0.0000 0.0000
# 3 12.1464 50.0134 136.7331 0.0000 0.0000 0.0000
# 4 0.0000 0.0000 0.0000 38.8500 0.0000 0.0000
# 5 0.0000 0.0000 0.0000 0.0000 28.4944 0.0000
# 6 0.0000 0.0000 0.0000 0.0000 0.0000 29.5397
#
#
#
# Elastic Compliance Matrix: (Units=1/GPa)
#
#
# Indices 1 2 3 4 5 6 
#
# 1 0.006959 -0.003403 0.000627 0.000000 0.000000 0.000000
# 2 -0.003403 0.009690 -0.003242 0.000000 0.000000 0.000000
# 3 0.000627 -0.003242 0.008444 0.000000 0.000000 0.000000
# 4 0.000000 0.000000 0.000000 0.025740 0.000000 0.000000
# 5 0.000000 0.000000 0.000000 0.000000 0.035095 0.000000
# 6 0.000000 0.000000 0.000000 0.000000 0.000000 0.033853
#
#
# Mechanical properties :
#
#
# Convention : Reuss Voigt Hill
#
# Bulk Modulus (GPa) = 76.59794 78.81072 77.70433
# Shear Modulus (GPa) = 36.71938 41.15525 38.93731
#
# Velocity S-wave (km/s) = 3.87733 4.10485 3.99271
# Velocity P-wave (km/s) = 7.16977 7.39818 7.28487
#
# Compressibility (1/GPa) = 0.01305518
#
# Stress axis : x y z
#
# Youngs Moduli (GPa) = 143.70411 103.20344 118.43219
#
# Poissons Ratio (x) = 0.35121 -0.07421
# Poissons Ratio (y) = 0.48904 0.38394
# Poissons Ratio (z) = -0.09005 0.33457
#
# Static dielectric constant tensor:
#      x y z
#    x 4.354970 0.000000 0.000000 
#    y 0.000000 4.539830 0.000000 
#    z 0.000000 0.000000 5.287350 
# 
# 
# High freq. dielectric constant tensor:
#      x y z
#    x 1.986500 0.000000 0.000000 
#    y 0.000000 1.958460 0.000000 
#    z 0.000000 0.000000 1.992340 
# 
# From -- ./inp_files/26126.got.cif
#   From: 2010.03.12/outbox.cif.g09.slc.cpg/sg72_14_cif.got.tgz:26126.got - 2010.04.16 14:54:00.
