data_PCOD8295593
_publ_section_title
;
Structure prediction by ZEFSAII (Michael W. Deem and Ramdas Pophale) SiO2 
 PCOD8295593
Probable space group: I B C A 
;
_chemical_formula_sum "Si O2"
_cell_formula_units_Z 88
_cell_length_a 26.075977
_cell_length_b 8.600730
_cell_length_c 20.850622
_cell_angle_alpha 90.000000
_cell_angle_beta 90.000000
_cell_angle_gamma 90.000000
_cell_volume 4676.219823
_symmetry_space_group_name_H-M "I B C A "
_symmetry_group_IT_number 73
_symmetry_cell_setting 'orthorhombic'
loop_
_space_group_symop_operation_xyz
x,y,z
-x,1/2-y,z
x,-y,1/2-z
1/2-x,y,-z
-x,-y,-z
x,1/2+y,-z
-x,y,1/2+z
1/2+x,-y,z
1/2+x,1/2+y,1/2+z
1/2-x,-y,1/2+z
1/2+x,1/2-y,-z
-x,1/2+y,1/2-z
1/2-x,1/2-y,1/2-z
1/2+x,y,1/2-z
1/2-x,1/2+y,z
x,1/2-y,1/2+z
loop_
_atom_site_type_symbol
_atom_site_label
_atom_site_fract_x
_atom_site_fract_y
_atom_site_fract_z
Si Si1 0.452606 0.000000 0.750000
Si Si2 0.599810 0.404559 0.153784
Si Si3 0.780935 0.639182 0.295302
Si Si4 0.112767 0.729176 0.293986
Si Si5 0.705847 0.109351 0.587811
Si Si6 0.500000 0.750000 0.837850
Si Si7 0.750000 0.364232 0.500000
O O1 0.419962 0.887617 0.702979
O O2 0.489151 0.898112 0.793867
O O3 0.615335 0.325622 0.220621
O O4 0.589425 0.589831 0.162659
O O5 0.647056 0.377015 0.107333
O O6 0.550256 0.311581 0.123477
O O7 0.800457 0.500000 0.250000
O O8 0.750000 0.750000 0.250000
O O9 0.830610 0.731717 0.321296
O O10 0.745227 0.580704 0.353385
O O11 0.718539 0.267688 0.551766
O O12 0.709359 0.968144 0.538287
#
# Coordination Sequence:
#
# PCOD8295593 Si02
#       7
#     8  16  16  16  16   8   8
#     4  10  18  32  46  72 120 154 184 210 266 356
#     4  10  20  34  53  77 112 148 188 233 282 336
#     4  12  21  32  54  89 119 146 179 230 290 351
#     4  10  19  31  50  84 118 152 176 220 285 351
#     4  11  22  38  57  79 115 150 193 237 278 345
#     4  10  20  32  52  76 106 154 192 230 276 334
#     4  10  24  40  56  78 108 158 196 230 284 340
#
# _framework density 18.818619000000002
#
# number of rings (size 3 to 8) (size 9 to 14) (size 15 to 20)
#    0.000    1.455    2.727    5.455    0.000    0.000 
#    0.000    0.000    0.000    1.091    0.000    0.000 
#    0.000    0.000    0.000    0.000    0.000    0.000 
#
# Total GULP energy -545432.323181 kJ/mol
# GULP energy per Si atom -12396.189163 kJ/mol
# Density = 1.877579 g / cm^3
# Si number density = 18.818619 Si / 1000 Ang^3
#
#
#
# Elastic Constant Matrix: (Units=GPa)
#
#
# Indices 1 2 3 4 5 6 
#
# 1 136.9620 50.7235 32.8032 0.0000 0.0000 0.0000
# 2 50.7235 121.1244 24.3789 0.0000 0.0000 0.0000
# 3 32.8032 24.3789 59.4850 0.0000 0.0000 0.0000
# 4 0.0000 0.0000 0.0000 46.0154 0.0000 0.0000
# 5 0.0000 0.0000 0.0000 0.0000 18.0875 0.0000
# 6 0.0000 0.0000 0.0000 0.0000 0.0000 31.9801
#
#
#
# Elastic Compliance Matrix: (Units=1/GPa)
#
#
# Indices 1 2 3 4 5 6 
#
# 1 0.009401 -0.003154 -0.003892 0.000000 0.000000 0.000000
# 2 -0.003154 0.010056 -0.002382 0.000000 0.000000 0.000000
# 3 -0.003892 -0.002382 0.019933 0.000000 0.000000 0.000000
# 4 0.000000 0.000000 0.000000 0.021732 0.000000 0.000000
# 5 0.000000 0.000000 0.000000 0.000000 0.055287 0.000000
# 6 0.000000 0.000000 0.000000 0.000000 0.000000 0.031269
#
#
# Mechanical properties :
#
#
# Convention : Reuss Voigt Hill
#
# Bulk Modulus (GPa) = 48.69665 59.26475 53.98070
# Shear Modulus (GPa) = 28.83841 33.19432 31.01636
#
# Velocity S-wave (km/s) = 3.91889 4.20445 4.06418
# Velocity P-wave (km/s) = 6.81248 7.42501 7.12533
#
# Compressibility (1/GPa) = 0.02053529
#
# Stress axis : x y z
#
# Youngs Moduli (GPa) = 106.36702 99.44180 50.16685
#
# Poissons Ratio (x) = 0.31361 0.19525
# Poissons Ratio (y) = 0.33545 0.11951
# Poissons Ratio (z) = 0.41397 0.23689
#
# Static dielectric constant tensor:
#      x y z
#    x 1.029850 0.000000 0.000000 
#    y 0.000000 3.806520 0.000000 
#    z 0.000000 0.000000 3.118660 
# 
# 
# High freq. dielectric constant tensor:
#      x y z
#    x 1.735940 0.000000 0.000000 
#    y 0.000000 1.759810 0.000000 
#    z 0.000000 0.000000 1.674820 
# 
# From -- ./inp_files/7092.got.cif
#   From: 2010.03.12/outbox.cif.g09.slc.cpg/sg73_4_cif.got.tgz:7092.got - 2010.04.16 15:25:48.
