data_PCOD8295560
_publ_section_title
;
Structure prediction by ZEFSAII (Michael W. Deem and Ramdas Pophale) SiO2 
 PCOD8295560
Probable space group: I B C A 
;
_chemical_formula_sum "Si O2"
_cell_formula_units_Z 104
_cell_length_a 18.690564
_cell_length_b 19.004435
_cell_length_c 14.795869
_cell_angle_alpha 90.000000
_cell_angle_beta 90.000000
_cell_angle_gamma 90.000000
_cell_volume 5255.546062
_symmetry_space_group_name_H-M "I B C A "
_symmetry_group_IT_number 73
_symmetry_cell_setting 'orthorhombic'
loop_
_space_group_symop_operation_xyz
x,y,z
-x,1/2-y,z
x,-y,1/2-z
1/2-x,y,-z
-x,-y,-z
x,1/2+y,-z
-x,y,1/2+z
1/2+x,-y,z
1/2+x,1/2+y,1/2+z
1/2-x,-y,1/2+z
1/2+x,1/2-y,-z
-x,1/2+y,1/2-z
1/2-x,1/2-y,1/2-z
1/2+x,y,1/2-z
1/2-x,1/2+y,z
x,1/2-y,1/2+z
loop_
_atom_site_type_symbol
_atom_site_label
_atom_site_fract_x
_atom_site_fract_y
_atom_site_fract_z
Si Si1 0.107194 0.228155 0.197635
Si Si2 0.169884 0.676208 0.978125
Si Si3 0.089926 0.000000 0.750000
Si Si4 0.418062 0.272386 0.108532
Si Si5 0.527924 0.862476 0.667441
Si Si6 0.392828 0.039601 0.059825
Si Si7 0.543872 0.088165 0.026569
O O1 0.132174 0.235939 0.302244
O O2 0.094304 0.307717 0.162695
O O3 0.037513 0.179625 0.209396
O O4 0.160949 0.187919 0.129884
O O5 0.112458 0.724024 0.029262
O O6 0.157240 0.596058 0.010340
O O7 0.250000 0.699200 0.000000
O O8 0.042599 0.931288 0.772801
O O9 0.137520 0.981671 0.660068
O O10 0.500000 0.250000 0.126586
O O11 0.412743 0.353140 0.079705
O O12 0.508653 0.883404 0.565778
O O13 0.474617 0.063005 0.082451
O O14 0.397898 0.972679 0.993079
#
# Coordination Sequence:
#
# PCOD8295560 Si02
#       7
#    16  16   8  16  16  16  16
#     4  11  21  36  61  93 122 160 203 266 309 368
#     4  12  26  43  62  87 132 175 208 252 320 388
#     4  10  20  32  60  96 120 152 198 258 324 372
#     4  12  20  36  65  96 122 158 207 269 316 360
#     4  10  17  33  57  95 126 147 198 263 318 356
#     4  10  20  36  58  89 121 160 202 255 312 373
#     4  10  19  33  60  92 123 150 200 267 314 356
#
# _framework density 19.788620000000002
#
# number of rings (size 3 to 8) (size 9 to 14) (size 15 to 20)
#    0.000    1.231    6.154    1.846    0.000    0.615 
#    0.000    0.769    3.385    0.000    0.000    0.000 
#    0.000    0.000    0.000    0.000    0.000    0.000 
#
# Total GULP energy -644525.810636 kJ/mol
# GULP energy per Si atom -12394.727128 kJ/mol
# Density = 1.974358 g / cm^3
# Si number density = 19.788620 Si / 1000 Ang^3
#
#
#
# Elastic Constant Matrix: (Units=GPa)
#
#
# Indices 1 2 3 4 5 6 
#
# 1 44.9053 19.0457 21.8960 0.0000 0.0000 0.0000
# 2 19.0457 132.3794 29.6613 0.0000 0.0000 0.0000
# 3 21.8960 29.6613 101.4574 0.0000 0.0000 0.0000
# 4 0.0000 0.0000 0.0000 34.5440 0.0000 0.0000
# 5 0.0000 0.0000 0.0000 0.0000 12.0248 0.0000
# 6 0.0000 0.0000 0.0000 0.0000 0.0000 12.4531
#
#
#
# Elastic Compliance Matrix: (Units=1/GPa)
#
#
# Indices 1 2 3 4 5 6 
#
# 1 0.025715 -0.002628 -0.004781 0.000000 0.000000 0.000000
# 2 -0.002628 0.008352 -0.001875 0.000000 0.000000 0.000000
# 3 -0.004781 -0.001875 0.011436 0.000000 0.000000 0.000000
# 4 0.000000 0.000000 0.000000 0.028949 0.000000 0.000000
# 5 0.000000 0.000000 0.000000 0.000000 0.083162 0.000000
# 6 0.000000 0.000000 0.000000 0.000000 0.000000 0.080302
#
#
# Mechanical properties :
#
#
# Convention : Reuss Voigt Hill
#
# Bulk Modulus (GPa) = 37.12612 46.66091 41.89351
# Shear Modulus (GPa) = 18.83507 25.68031 22.25769
#
# Velocity S-wave (km/s) = 3.08849 3.60631 3.35740
# Velocity P-wave (km/s) = 5.61431 6.40090 6.02046
#
# Compressibility (1/GPa) = 0.02693521
#
# Stress axis : x y z
#
# Youngs Moduli (GPa) = 38.88744 119.72881 87.44122
#
# Poissons Ratio (x) = 0.31469 0.41808
# Poissons Ratio (y) = 0.10221 0.16391
# Poissons Ratio (z) = 0.18593 0.22444
#
# Static dielectric constant tensor:
#      x y z
#    x 2.891840 0.000000 0.000000 
#    y 0.000000 3.920610 0.000000 
#    z 0.000000 0.000000 3.810750 
# 
# 
# High freq. dielectric constant tensor:
#      x y z
#    x 1.691360 0.000000 0.000000 
#    y 0.000000 1.793160 0.000000 
#    z 0.000000 0.000000 1.793270 
# 
# From -- ./inp_files/18146.got.cif
#   From: 2010.03.12/outbox.cif.g09.slc.cpg/sg73_10_cif.got.tgz:18146.got - 2010.04.16 15:25:48.
