data_PCOD8295521
_publ_section_title
;
Structure prediction by ZEFSAII (Michael W. Deem and Ramdas Pophale) SiO2 
 PCOD8295521
Probable space group: I B C A 
;
_chemical_formula_sum "Si O2"
_cell_formula_units_Z 72
_cell_length_a 26.841290
_cell_length_b 5.173853
_cell_length_c 30.651898
_cell_angle_alpha 90.000000
_cell_angle_beta 90.000000
_cell_angle_gamma 90.000000
_cell_volume 4256.717622
_symmetry_space_group_name_H-M "I B C A "
_symmetry_group_IT_number 73
_symmetry_cell_setting 'orthorhombic'
loop_
_space_group_symop_operation_xyz
x,y,z
-x,1/2-y,z
x,-y,1/2-z
1/2-x,y,-z
-x,-y,-z
x,1/2+y,-z
-x,y,1/2+z
1/2+x,-y,z
1/2+x,1/2+y,1/2+z
1/2-x,-y,1/2+z
1/2+x,1/2-y,-z
-x,1/2+y,1/2-z
1/2-x,1/2-y,1/2-z
1/2+x,y,1/2-z
1/2-x,1/2+y,z
x,1/2-y,1/2+z
loop_
_atom_site_type_symbol
_atom_site_label
_atom_site_fract_x
_atom_site_fract_y
_atom_site_fract_z
Si Si1 0.032010 0.000000 0.750000
Si Si2 0.614376 0.187262 0.471513
Si Si3 0.440994 0.215926 0.884203
Si Si4 0.058201 0.288095 0.338622
Si Si5 0.771863 0.144455 0.548427
O O1 0.066180 0.882034 0.711400
O O2 0.000000 0.750000 0.767608
O O3 0.605603 0.462792 0.493689
O O4 0.574537 0.151462 0.433315
O O5 0.669208 0.175041 0.451169
O O6 0.500000 0.250000 0.881672
O O7 0.417722 0.490033 0.869153
O O8 0.419223 0.990755 0.851920
O O9 0.000000 0.250000 0.347230
O O10 0.750000 0.102077 0.500000
O O11 0.744974 0.382514 0.573130
#
# Coordination Sequence:
#
# PCOD8295521 Si02
#       5
#     8  16  16  16  16
#     4  10  16  26  50  74  84 110 156 190 222 284
#     4  12  21  31  48  65  84 123 167 187 226 274
#     4  10  21  33  43  61  95 128 153 191 223 253
#     4   9  17  31  46  64  90 118 149 187 231 262
#     4  10  16  30  47  65  83 102 142 193 252 274
#
# _framework density 16.914441
#
# number of rings (size 3 to 8) (size 9 to 14) (size 15 to 20)
#    0.000    1.778    4.444    4.667    0.000    0.889 
#    0.000    0.000    0.000    0.000    0.000    0.000 
#    0.000    0.000    0.000   20.000    0.000    1.889 
#
# Total GULP energy -445988.500385 kJ/mol
# GULP energy per Si atom -12388.569455 kJ/mol
# Density = 1.687594 g / cm^3
# Si number density = 16.914441 Si / 1000 Ang^3
#
#
#
# Elastic Constant Matrix: (Units=GPa)
#
#
# Indices 1 2 3 4 5 6 
#
# 1 18.9892 22.8751 20.6942 0.0000 0.0000 0.0000
# 2 22.8751 130.1894 35.3769 0.0000 0.0000 0.0000
# 3 20.6942 35.3769 72.3684 0.0000 0.0000 0.0000
# 4 0.0000 0.0000 0.0000 25.7824 0.0000 0.0000
# 5 0.0000 0.0000 0.0000 0.0000 1.2152 0.0000
# 6 0.0000 0.0000 0.0000 0.0000 0.0000 15.2041
#
#
#
# Elastic Compliance Matrix: (Units=1/GPa)
#
#
# Indices 1 2 3 4 5 6 
#
# 1 0.085987 -0.009718 -0.019838 0.000000 0.000000 0.000000
# 2 -0.009718 0.009956 -0.002088 0.000000 0.000000 0.000000
# 3 -0.019838 -0.002088 0.020512 0.000000 0.000000 0.000000
# 4 0.000000 0.000000 0.000000 0.038786 0.000000 0.000000
# 5 0.000000 0.000000 0.000000 0.000000 0.822940 0.000000
# 6 0.000000 0.000000 0.000000 0.000000 0.000000 0.065772
#
#
# Mechanical properties :
#
#
# Convention : Reuss Voigt Hill
#
# Bulk Modulus (GPa) = 18.80866 42.15995 30.48431
# Shear Modulus (GPa) = 4.44459 17.94706 11.19582
#
# Velocity S-wave (km/s) = 1.62277 3.26091 2.57555
# Velocity P-wave (km/s) = 3.82821 6.25760 5.18714
#
# Compressibility (1/GPa) = 0.05316699
#
# Stress axis : x y z
#
# Youngs Moduli (GPa) = 11.62966 100.44188 48.75264
#
# Poissons Ratio (x) = 0.97608 0.96715
# Poissons Ratio (y) = 0.11301 0.10180
# Poissons Ratio (z) = 0.23071 0.20973
#
# Static dielectric constant tensor:
#      x y z
#    x 2.751070 0.000000 0.000000 
#    y 0.000000 4.540760 0.000000 
#    z 0.000000 0.000000 3.272240 
# 
# 
# High freq. dielectric constant tensor:
#      x y z
#    x 1.589810 0.000000 0.000000 
#    y 0.000000 1.697760 0.000000 
#    z 0.000000 0.000000 1.616220 
# 
# From -- ./inp_files/3144.got.cif
#   From: 2010.03.12/outbox.cif.g09.slc.cpg/sg73_2_cif.got.tgz:3144.got - 2010.04.16 15:25:48.
