data_PCOD8295894
_publ_section_title
;
Structure prediction by ZEFSAII (Michael W. Deem and Ramdas Pophale) SiO2 
 PCOD8295894
Probable space group: I B C A 
;
_chemical_formula_sum "Si O2"
_cell_formula_units_Z 72
_cell_length_a 16.962150
_cell_length_b 9.297308
_cell_length_c 22.016924
_cell_angle_alpha 90.000000
_cell_angle_beta 90.000000
_cell_angle_gamma 90.000000
_cell_volume 3472.120278
_symmetry_space_group_name_H-M "I B C A "
_symmetry_group_IT_number 73
_symmetry_cell_setting 'orthorhombic'
loop_
_space_group_symop_operation_xyz
x,y,z
-x,1/2-y,z
x,-y,1/2-z
1/2-x,y,-z
-x,-y,-z
x,1/2+y,-z
-x,y,1/2+z
1/2+x,-y,z
1/2+x,1/2+y,1/2+z
1/2-x,-y,1/2+z
1/2+x,1/2-y,-z
-x,1/2+y,1/2-z
1/2-x,1/2-y,1/2-z
1/2+x,y,1/2-z
1/2-x,1/2+y,z
x,1/2-y,1/2+z
loop_
_atom_site_type_symbol
_atom_site_label
_atom_site_fract_x
_atom_site_fract_y
_atom_site_fract_z
Si Si1 0.511463 0.420066 0.437109
Si Si2 0.555769 0.868792 0.349906
Si Si3 0.540427 0.000000 0.750000
Si Si4 0.652253 0.932805 0.647257
Si Si5 0.278305 0.767794 0.319410
O O1 0.500000 0.250000 0.443534
O O2 0.500000 0.500000 0.500000
O O3 0.446765 0.485436 0.390105
O O4 0.600026 0.453500 0.413121
O O5 0.500000 0.750000 0.383974
O O6 0.643608 0.821041 0.335836
O O7 0.513642 0.888926 0.285383
O O8 0.594892 0.907033 0.704650
O O9 0.708355 0.795147 0.638778
O O10 0.708208 0.068551 0.661733
O O11 0.250000 0.750000 0.250000
#
# Coordination Sequence:
#
# PCOD8295894 Si02
#       5
#    16  16   8  16  16
#     4  11  26  48  76  97 127 177 248 299 344 403
#     4  11  22  41  66  96 139 185 229 283 337 414
#     4  10  20  36  60 102 132 182 234 268 332 424
#     4  11  24  42  64 103 139 182 228 276 352 413
#     4  12  23  40  64 102 149 183 213 278 353 419
#
# _framework density 20.736609000000001
#
# number of rings (size 3 to 8) (size 9 to 14) (size 15 to 20)
#    0.000    0.889    6.667    0.667    6.222    5.333 
#    0.000    1.111    0.000    0.000    0.000    0.000 
#    0.000    0.000    0.000    0.000    0.000    0.000 
#
# Total GULP energy -446245.904911 kJ/mol
# GULP energy per Si atom -12395.719581 kJ/mol
# Density = 2.068941 g / cm^3
# Si number density = 20.736609 Si / 1000 Ang^3
#
#
#
# Elastic Constant Matrix: (Units=GPa)
#
#
# Indices 1 2 3 4 5 6 
#
# 1 95.7077 10.6227 51.0347 0.0000 0.0000 0.0000
# 2 10.6227 106.8394 53.7325 0.0000 0.0000 0.0000
# 3 51.0347 53.7325 113.7703 0.0000 0.0000 0.0000
# 4 0.0000 0.0000 0.0000 31.3337 0.0000 0.0000
# 5 0.0000 0.0000 0.0000 0.0000 20.6975 0.0000
# 6 0.0000 0.0000 0.0000 0.0000 0.0000 44.8637
#
#
#
# Elastic Compliance Matrix: (Units=1/GPa)
#
#
# Indices 1 2 3 4 5 6 
#
# 1 0.014168 0.002344 -0.007462 0.000000 0.000000 0.000000
# 2 0.002344 0.012664 -0.007033 0.000000 0.000000 0.000000
# 3 -0.007462 -0.007033 0.015459 0.000000 0.000000 0.000000
# 4 0.000000 0.000000 0.000000 0.031914 0.000000 0.000000
# 5 0.000000 0.000000 0.000000 0.000000 0.048315 0.000000
# 6 0.000000 0.000000 0.000000 0.000000 0.000000 0.022290
#
#
# Mechanical properties :
#
#
# Convention : Reuss Voigt Hill
#
# Bulk Modulus (GPa) = 55.59107 60.78859 58.18983
# Shear Modulus (GPa) = 28.55410 32.77416 30.66413
#
# Velocity S-wave (km/s) = 3.71481 3.97986 3.84962
# Velocity P-wave (km/s) = 6.72801 7.10615 6.91966
#
# Compressibility (1/GPa) = 0.01798850
#
# Stress axis : x y z
#
# Youngs Moduli (GPa) = 70.58398 78.96646 64.68920
#
# Poissons Ratio (x) = -0.18513 0.48274
# Poissons Ratio (y) = -0.16548 0.45493
# Poissons Ratio (z) = 0.52673 0.55534
#
# Static dielectric constant tensor:
#      x y z
#    x 3.936640 0.000000 0.000000 
#    y 0.000000 3.568760 0.000000 
#    z 0.000000 0.000000 3.638370 
# 
# 
# High freq. dielectric constant tensor:
#      x y z
#    x 1.818740 0.000000 0.000000 
#    y 0.000000 1.826080 0.000000 
#    z 0.000000 0.000000 1.783160 
# 
# From -- ./inp_files/5318.got.cif
#   From: 2010.03.12/outbox.cif.g09.slc.cpg/sg73_3_cif.got.tgz:5318.got - 2010.04.16 15:25:48.
