data_PCOD8295865
_publ_section_title
;
Structure prediction by ZEFSAII (Michael W. Deem and Ramdas Pophale) SiO2 
 PCOD8295865
Probable space group: I B C A 
;
_chemical_formula_sum "Si O2"
_cell_formula_units_Z 120
_cell_length_a 10.959350
_cell_length_b 23.377366
_cell_length_c 21.486548
_cell_angle_alpha 90.000000
_cell_angle_beta 90.000000
_cell_angle_gamma 90.000000
_cell_volume 5504.869413
_symmetry_space_group_name_H-M "I B C A "
_symmetry_group_IT_number 73
_symmetry_cell_setting 'orthorhombic'
loop_
_space_group_symop_operation_xyz
x,y,z
-x,1/2-y,z
x,-y,1/2-z
1/2-x,y,-z
-x,-y,-z
x,1/2+y,-z
-x,y,1/2+z
1/2+x,-y,z
1/2+x,1/2+y,1/2+z
1/2-x,-y,1/2+z
1/2+x,1/2-y,-z
-x,1/2+y,1/2-z
1/2-x,1/2-y,1/2-z
1/2+x,y,1/2-z
1/2-x,1/2+y,z
x,1/2-y,1/2+z
loop_
_atom_site_type_symbol
_atom_site_label
_atom_site_fract_x
_atom_site_fract_y
_atom_site_fract_z
Si Si1 0.130254 0.244810 0.620034
Si Si2 0.849584 0.500000 0.750000
Si Si3 0.047138 0.413550 0.345990
Si Si4 0.658854 0.630490 0.054482
Si Si5 0.887571 0.794529 0.121734
Si Si6 0.742412 0.558474 0.566134
Si Si7 0.595734 0.664035 0.518946
Si Si8 0.789712 0.954619 0.637359
O O1 0.159985 0.178998 0.607277
O O2 0.257208 0.270143 0.647670
O O3 0.094521 0.277360 0.556524
O O4 0.000000 0.250000 0.659899
O O5 0.932637 0.545100 0.712872
O O6 0.766195 0.538647 0.794457
O O7 0.083209 0.347714 0.332398
O O8 0.122217 0.435621 0.405502
O O9 0.904507 0.412938 0.361649
O O10 0.528622 0.627959 0.020811
O O11 0.690405 0.571250 0.089264
O O12 0.750000 0.647139 0.000000
O O13 0.000000 0.750000 0.125464
O O14 0.871079 0.817452 0.051117
O O15 0.750000 0.525957 0.500000
O O16 0.689917 0.621572 0.553816
O O17 0.667199 0.517643 0.612998
#
# Coordination Sequence:
#
# PCOD8295865 Si02
#       8
#    16   8  16  16  16  16  16  16
#     4  10  20  35  56  91 137 179 213 248 312 395
#     4  10  26  48  68  88 114 170 236 298 348 390
#     4  11  23  43  68  93 126 173 225 280 345 404
#     4  11  22  36  58  96 134 170 205 260 324 398
#     4  12  21  36  66  98 139 182 217 265 330 413
#     4  11  22  36  60  92 132 171 212 255 331 410
#     4  11  20  35  57  92 140 178 210 250 315 408
#     4  11  25  42  63  92 121 165 225 285 339 405
#
# _framework density 21.798881999999999
#
# number of rings (size 3 to 8) (size 9 to 14) (size 15 to 20)
#    0.000    1.067    2.667    5.600    3.733    0.533 
#    0.000    0.000    0.000    5.600    0.000    0.000 
#    0.000    0.000    0.000    0.000    0.000    0.000 
#
# Total GULP energy -743354.588530 kJ/mol
# GULP energy per Si atom -12389.243142 kJ/mol
# Density = 2.174927 g / cm^3
# Si number density = 21.798882 Si / 1000 Ang^3
#
#
#
# Elastic Constant Matrix: (Units=GPa)
#
#
# Indices 1 2 3 4 5 6 
#
# 1 149.1226 33.8175 18.2345 0.0000 0.0000 0.0000
# 2 33.8175 108.2871 21.8175 0.0000 0.0000 0.0000
# 3 18.2345 21.8175 52.3817 0.0000 0.0000 0.0000
# 4 0.0000 0.0000 0.0000 20.8102 0.0000 0.0000
# 5 0.0000 0.0000 0.0000 0.0000 13.3035 0.0000
# 6 0.0000 0.0000 0.0000 0.0000 0.0000 42.4302
#
#
#
# Elastic Compliance Matrix: (Units=1/GPa)
#
#
# Indices 1 2 3 4 5 6 
#
# 1 0.007361 -0.001946 -0.001752 0.000000 0.000000 0.000000
# 2 -0.001946 0.010595 -0.003736 0.000000 0.000000 0.000000
# 3 -0.001752 -0.003736 0.021256 0.000000 0.000000 0.000000
# 4 0.000000 0.000000 0.000000 0.048053 0.000000 0.000000
# 5 0.000000 0.000000 0.000000 0.000000 0.075168 0.000000
# 6 0.000000 0.000000 0.000000 0.000000 0.000000 0.023568
#
#
# Mechanical properties :
#
#
# Convention : Reuss Voigt Hill
#
# Bulk Modulus (GPa) = 41.07483 50.83669 45.95576
# Shear Modulus (GPa) = 23.92516 31.03690 27.48103
#
# Velocity S-wave (km/s) = 3.31651 3.77740 3.55443
# Velocity P-wave (km/s) = 5.79217 6.51125 6.16221
#
# Compressibility (1/GPa) = 0.02434581
#
# Stress axis : x y z
#
# Youngs Moduli (GPa) = 135.84325 94.38374 47.04461
#
# Poissons Ratio (x) = 0.18366 0.08243
# Poissons Ratio (y) = 0.26434 0.17574
# Poissons Ratio (z) = 0.23801 0.35257
#
# Static dielectric constant tensor:
#      x y z
#    x 4.324420 0.000000 0.000000 
#    y 0.000000 4.206840 0.000000 
#    z 0.000000 0.000000 3.557630 
# 
# 
# High freq. dielectric constant tensor:
#      x y z
#    x 1.876470 0.000000 0.000000 
#    y 0.000000 1.872330 0.000000 
#    z 0.000000 0.000000 1.806420 
# 
# From -- ./inp_files/25641.got.cif
#   From: 2010.03.12/outbox.cif.g09.slc.cpg/sg73_13_cif.got.tgz:25641.got - 2010.04.16 15:25:48.
