data_PCOD8295112
_publ_section_title
;
Structure prediction by ZEFSAII (Michael W. Deem and Ramdas Pophale) SiO2 
 PCOD8295112
Probable space group: I B A M
;
_chemical_formula_sum "Si O2"
_cell_formula_units_Z 68
_cell_length_a 18.372638
_cell_length_b 8.813337
_cell_length_c 18.207034
_cell_angle_alpha 90.000000
_cell_angle_beta 90.000000
_cell_angle_gamma 90.000000
_cell_volume 2948.160330
_symmetry_space_group_name_H-M "I B A M"
_symmetry_group_IT_number 72
_symmetry_cell_setting 'orthorhombic'
loop_
_space_group_symop_operation_xyz
x,y,z
-x,-y,z
x,-y,1/2-z
-x,y,1/2-z
-x,-y,-z
x,y,-z
-x,y,1/2+z
x,-y,1/2+z
1/2+x,1/2+y,1/2+z
1/2-x,1/2-y,1/2+z
1/2+x,1/2-y,-z
1/2-x,1/2+y,-z
1/2-x,1/2-y,1/2-z
1/2+x,1/2+y,1/2-z
1/2-x,1/2+y,z
1/2+x,1/2-y,z
loop_
_atom_site_type_symbol
_atom_site_label
_atom_site_fract_x
_atom_site_fract_y
_atom_site_fract_z
Si Si1 0.710852 0.863000 0.196806
Si Si2 0.500000 0.500000 0.250000
Si Si3 0.037270 0.353275 0.081989
Si Si4 0.087490 0.837511 0.130157
Si Si5 0.162009 0.133092 0.084023
O O1 0.750000 0.750000 0.250000
O O2 0.643884 0.793597 0.152323
O O3 0.768880 0.904503 0.134044
O O4 0.685877 0.000000 0.250000
O O5 0.446963 0.608049 0.294314
O O6 0.111050 0.273702 0.115403
O O7 0.000000 0.500000 0.123691
O O8 0.975191 0.227031 0.078301
O O9 0.058526 0.404640 0.000000
O O10 0.118908 0.975861 0.083853
O O11 0.185356 0.168961 0.000000
#
# Coordination Sequence:
#
# PCOD8295112 Si02
#       5
#    16   4  16  16  16
#     4  12  27  47  68 101 144 188 236 296 356 433
#     4  12  24  44  72 100 132 180 234 284 352 432
#     4  10  23  41  67 103 138 174 229 295 352 420
#     4  12  24  42  74  97 136 183 236 285 359 424
#     4  11  24  46  72 102 143 190 239 294 362 434
#
# _framework density 23.065232999999999
#
# number of rings (size 3 to 8) (size 9 to 14) (size 15 to 20)
#    0.000    0.706    4.706    2.118    3.294    3.765 
#    0.000    0.000    0.000    0.000    0.000    0.000 
#    0.000    0.000    0.000    0.000    0.000    0.000 
#
# Total GULP energy -421244.301811 kJ/mol
# GULP energy per Si atom -12389.538289 kJ/mol
# Density = 2.301274 g / cm^3
# Si number density = 23.065233 Si / 1000 Ang^3
#
#
#
# Elastic Constant Matrix: (Units=GPa)
#
#
# Indices 1 2 3 4 5 6 
#
# 1 96.6841 22.0400 19.2572 0.0000 0.0000 0.0000
# 2 22.0400 105.5091 13.3520 0.0000 0.0000 0.0000
# 3 19.2572 13.3520 71.6737 0.0000 0.0000 0.0000
# 4 0.0000 0.0000 0.0000 38.2405 0.0000 0.0000
# 5 0.0000 0.0000 0.0000 0.0000 32.1979 0.0000
# 6 0.0000 0.0000 0.0000 0.0000 0.0000 57.3759
#
#
#
# Elastic Compliance Matrix: (Units=1/GPa)
#
#
# Indices 1 2 3 4 5 6 
#
# 1 0.011337 -0.002031 -0.002668 0.000000 0.000000 0.000000
# 2 -0.002031 0.010070 -0.001330 0.000000 0.000000 0.000000
# 3 -0.002668 -0.001330 0.014917 0.000000 0.000000 0.000000
# 4 0.000000 0.000000 0.000000 0.026150 0.000000 0.000000
# 5 0.000000 0.000000 0.000000 0.000000 0.031058 0.000000
# 6 0.000000 0.000000 0.000000 0.000000 0.000000 0.017429
#
#
# Mechanical properties :
#
#
# Convention : Reuss Voigt Hill
#
# Bulk Modulus (GPa) = 41.20875 42.57389 41.89132
# Shear Modulus (GPa) = 38.13649 40.17739 39.15694
#
# Velocity S-wave (km/s) = 4.07064 4.17814 4.12474
# Velocity P-wave (km/s) = 6.32443 6.46327 6.39423
#
# Compressibility (1/GPa) = 0.02426669
#
# Stress axis : x y z
#
# Youngs Moduli (GPa) = 88.20499 99.30088 67.03883
#
# Poissons Ratio (x) = 0.20165 0.17884
# Poissons Ratio (y) = 0.17911 0.08919
# Poissons Ratio (z) = 0.23531 0.13211
#
# Static dielectric constant tensor:
#      x y z
#    x 4.364730 0.000000 0.000000 
#    y 0.000000 4.658300 0.000000 
#    z 0.000000 0.000000 4.085080 
# 
# 
# High freq. dielectric constant tensor:
#      x y z
#    x 1.917070 0.000000 0.000000 
#    y 0.000000 1.923700 0.000000 
#    z 0.000000 0.000000 1.899950 
# 
# From -- ./inp_files/35496.got.cif
#   From: 2010.03.12/outbox.cif.g09.slc.cpg/sg72_18_cif.got.tgz:35496.got - 2010.04.16 14:54:00.
