data_PCOD8295394
_publ_section_title
;
Structure prediction by ZEFSAII (Michael W. Deem and Ramdas Pophale) SiO2 
 PCOD8295394
Probable space group: I B A M
;
_chemical_formula_sum "Si O2"
_cell_formula_units_Z 72
_cell_length_a 9.328156
_cell_length_b 26.267722
_cell_length_c 14.465760
_cell_angle_alpha 90.000000
_cell_angle_beta 90.000000
_cell_angle_gamma 90.000000
_cell_volume 3544.536617
_symmetry_space_group_name_H-M "I B A M"
_symmetry_group_IT_number 72
_symmetry_cell_setting 'orthorhombic'
loop_
_space_group_symop_operation_xyz
x,y,z
-x,-y,z
x,-y,1/2-z
-x,y,1/2-z
-x,-y,-z
x,y,-z
-x,y,1/2+z
x,-y,1/2+z
1/2+x,1/2+y,1/2+z
1/2-x,1/2-y,1/2+z
1/2+x,1/2-y,-z
1/2-x,1/2+y,-z
1/2-x,1/2-y,1/2-z
1/2+x,1/2+y,1/2-z
1/2-x,1/2+y,z
1/2+x,1/2-y,z
loop_
_atom_site_type_symbol
_atom_site_label
_atom_site_fract_x
_atom_site_fract_y
_atom_site_fract_z
Si Si1 0.880347 0.301400 0.105485
Si Si2 0.017643 0.125084 0.000000
Si Si3 0.771400 0.452928 0.000000
Si Si4 0.779488 0.429697 0.500000
Si Si5 0.515757 0.910205 0.146078
Si Si6 0.432497 0.292530 0.651565
O O1 0.944322 0.350901 0.153978
O O2 0.738153 0.283022 0.159136
O O3 0.998072 0.257293 0.106372
O O4 0.839348 0.315368 0.000000
O O5 0.040430 0.157827 0.908667
O O6 0.856980 0.105840 0.000000
O O7 0.124934 0.077890 0.000000
O O8 0.861700 0.441212 0.907643
O O9 0.731718 0.511917 0.000000
O O10 0.867215 0.416533 0.592287
O O11 0.500000 0.931947 0.250000
O O12 0.500000 0.303754 0.750000
#
# Coordination Sequence:
#
# PCOD8295394 Si02
#       6
#    16   8   8   8  16  16
#     4  12  22  43  65  97 136 171 212 263 318 387
#     4  12  25  44  68  95 134 171 216 270 329 383
#     4  11  23  50  64  94 132 165 223 278 329 371
#     4  11  27  40  72  97 122 174 222 272 328 391
#     4  11  23  42  69  98 132 170 216 267 322 388
#     4  12  26  41  66  95 135 174 213 262 320 388
#
# _framework density 20.312950000000001
#
# number of rings (size 3 to 8) (size 9 to 14) (size 15 to 20)
#    0.000    0.444    6.667    3.000    6.222    1.778 
#    0.000    0.000    0.000    4.000    0.000    0.000 
#    0.000    0.000    0.000    0.000    0.000    0.000 
#
# Total GULP energy -446640.621104 kJ/mol
# GULP energy per Si atom -12406.683920 kJ/mol
# Density = 2.026672 g / cm^3
# Si number density = 20.312950 Si / 1000 Ang^3
#
#
#
# Elastic Constant Matrix: (Units=GPa)
#
#
# Indices 1 2 3 4 5 6 
#
# 1 68.7924 32.4487 8.4867 0.0007 -0.0001 0.0001
# 2 32.4487 91.2615 5.6502 0.0006 -0.0001 -0.0001
# 3 8.4867 5.6502 137.4644 0.0040 -0.0006 0.0000
# 4 0.0007 0.0006 0.0040 10.1623 -0.0006 0.0000
# 5 -0.0001 -0.0001 -0.0006 -0.0006 27.2817 0.0002
# 6 0.0001 -0.0001 0.0000 0.0000 0.0002 12.8770
#
#
#
# Elastic Compliance Matrix: (Units=1/GPa)
#
#
# Indices 1 2 3 4 5 6 
#
# 1 0.017560 -0.006192 -0.000830 0.000000 0.000000 0.000000
# 2 -0.006192 0.013169 -0.000159 0.000000 0.000000 0.000000
# 3 -0.000830 -0.000159 0.007332 -0.000003 0.000000 0.000000
# 4 0.000000 0.000000 -0.000003 0.098403 0.000002 0.000000
# 5 0.000000 0.000000 0.000000 0.000002 0.036655 -0.000001
# 6 0.000000 0.000000 0.000000 0.000000 -0.000001 0.077658
#
#
# Mechanical properties :
#
#
# Convention : Reuss Voigt Hill
#
# Bulk Modulus (GPa) = 42.19472 43.40993 42.80232
# Shear Modulus (GPa) = 18.31250 26.79305 22.55278
#
# Velocity S-wave (km/s) = 3.00579 3.63576 3.33568
# Velocity P-wave (km/s) = 5.73269 6.24836 5.99607
#
# Compressibility (1/GPa) = 0.02369965
#
# Stress axis : x y z
#
# Youngs Moduli (GPa) = 56.94905 75.93593 136.38167
#
# Poissons Ratio (x) = 0.47020 0.11314
# Poissons Ratio (y) = 0.35263 0.02168
# Poissons Ratio (z) = 0.04724 0.01207
#
# Static dielectric constant tensor:
#      x y z
#    x 3.796510 0.000000 0.000000 
#    y 0.000000 3.685750 0.000000 
#    z 0.000000 0.000000 3.686430 
# 
# 
# High freq. dielectric constant tensor:
#      x y z
#    x 1.802170 0.000000 0.000000 
#    y 0.000000 1.800210 0.000000 
#    z 0.000000 0.000000 1.798870 
# 
# From -- ./inp_files/18932.got.cif
#   From: 2010.03.12/outbox.cif.g09.slc.cpg/sg72_10_cif.got.tgz:18932.got - 2010.04.16 14:54:00.
