data_PCOD8295747
_publ_section_title
;
Structure prediction by ZEFSAII (Michael W. Deem and Ramdas Pophale) SiO2 
 PCOD8295747
Probable space group: I B C A 
;
_chemical_formula_sum "Si O2"
_cell_formula_units_Z 88
_cell_length_a 12.685231
_cell_length_b 21.939318
_cell_length_c 16.735346
_cell_angle_alpha 90.000000
_cell_angle_beta 90.000000
_cell_angle_gamma 90.000000
_cell_volume 4657.535770
_symmetry_space_group_name_H-M "I B C A "
_symmetry_group_IT_number 73
_symmetry_cell_setting 'orthorhombic'
loop_
_space_group_symop_operation_xyz
x,y,z
-x,1/2-y,z
x,-y,1/2-z
1/2-x,y,-z
-x,-y,-z
x,1/2+y,-z
-x,y,1/2+z
1/2+x,-y,z
1/2+x,1/2+y,1/2+z
1/2-x,-y,1/2+z
1/2+x,1/2-y,-z
-x,1/2+y,1/2-z
1/2-x,1/2-y,1/2-z
1/2+x,y,1/2-z
1/2-x,1/2+y,z
x,1/2-y,1/2+z
loop_
_atom_site_type_symbol
_atom_site_label
_atom_site_fract_x
_atom_site_fract_y
_atom_site_fract_z
Si Si1 0.657910 0.607665 0.675673
Si Si2 0.098167 0.590811 0.149876
Si Si3 0.523770 0.000000 0.250000
Si Si4 0.431189 0.153928 0.989257
Si Si5 0.443060 0.309609 0.204775
Si Si6 0.637692 0.786352 0.471173
O O1 0.779695 0.591603 0.671286
O O2 0.597726 0.550029 0.710388
O O3 0.612187 0.624482 0.590135
O O4 0.643117 0.666333 0.732664
O O5 0.049374 0.526677 0.178946
O O6 0.038251 0.643269 0.197491
O O7 0.080793 0.601071 0.055562
O O8 0.552292 0.175224 0.978302
O O9 0.365927 0.213920 0.014348
O O10 0.500000 0.250000 0.239073
O O11 0.382497 0.297311 0.122193
O O12 0.750000 0.811651 0.500000
#
# Coordination Sequence:
#
# PCOD8295747 Si02
#       6
#    16  16   8  16  16  16
#     4  11  23  37  62  85 113 159 197 237 302 347
#     4  10  20  41  60  79 122 151 191 249 298 335
#     4  10  24  40  58  84 110 150 210 254 284 352
#     4  10  21  37  56  88 115 151 198 235 286 366
#     4  10  21  37  55  91 124 150 187 243 283 354
#     4  10  19  36  57  83 125 158 185 229 291 352
#
# _framework density 18.894110999999999
#
# number of rings (size 3 to 8) (size 9 to 14) (size 15 to 20)
#    0.000    1.818    3.636    2.182    2.545    4.364 
#    0.000    1.818    0.000    0.000    0.000    0.000 
#    0.000    0.000    0.000    0.000    0.000    0.000 
#
# Total GULP energy -545580.182678 kJ/mol
# GULP energy per Si atom -12399.549606 kJ/mol
# Density = 1.885111 g / cm^3
# Si number density = 18.894111 Si / 1000 Ang^3
#
#
#
# Elastic Constant Matrix: (Units=GPa)
#
#
# Indices 1 2 3 4 5 6 
#
# 1 152.2362 43.9568 48.4113 0.0000 0.0000 0.0000
# 2 43.9568 93.9041 51.6912 -0.0001 0.0000 0.0000
# 3 48.4113 51.6912 104.4580 -0.0002 0.0000 0.0000
# 4 0.0000 -0.0001 -0.0002 33.1090 0.0000 0.0000
# 5 0.0000 0.0000 0.0000 0.0000 15.6678 0.0000
# 6 0.0000 0.0000 0.0000 0.0000 0.0000 14.1988
#
#
#
# Elastic Compliance Matrix: (Units=1/GPa)
#
#
# Indices 1 2 3 4 5 6 
#
# 1 0.008068 -0.002362 -0.002570 0.000000 0.000000 0.000000
# 2 -0.002362 0.015327 -0.006490 0.000000 0.000000 0.000000
# 3 -0.002570 -0.006490 0.013976 0.000000 0.000000 0.000000
# 4 0.000000 0.000000 0.000000 0.030203 0.000000 0.000000
# 5 0.000000 0.000000 0.000000 0.000000 0.063825 0.000000
# 6 0.000000 0.000000 0.000000 0.000000 0.000000 0.070428
#
#
# Mechanical properties :
#
#
# Convention : Reuss Voigt Hill
#
# Bulk Modulus (GPa) = 68.83820 70.96854 69.90337
# Shear Modulus (GPa) = 21.78502 26.36439 24.07470
#
# Velocity S-wave (km/s) = 3.39928 3.73953 3.57345
# Velocity P-wave (km/s) = 7.20552 7.50254 7.35553
#
# Compressibility (1/GPa) = 0.01452682
#
# Stress axis : x y z
#
# Youngs Moduli (GPa) = 123.94526 65.24281 71.55020
#
# Poissons Ratio (x) = 0.15409 0.18392
# Poissons Ratio (y) = 0.29273 0.46438
# Poissons Ratio (z) = 0.31860 0.42344
#
# Static dielectric constant tensor:
#      x y z
#    x 3.584870 0.000000 0.000000 
#    y 0.000000 3.774010 0.000000 
#    z 0.000000 0.000000 3.559020 
# 
# 
# High freq. dielectric constant tensor:
#      x y z
#    x 1.745130 0.000000 0.000000 
#    y 0.000000 1.728240 0.000000 
#    z 0.000000 0.000000 1.734060 
# 
# From -- ./inp_files/21267.got.cif
#   From: 2010.03.12/outbox.cif.g09.slc.cpg/sg73_11_cif.got.tgz:21267.got - 2010.04.16 15:25:48.
