data_PCOD8295121
_publ_section_title
;
Structure prediction by ZEFSAII (Michael W. Deem and Ramdas Pophale) SiO2 
 PCOD8295121
Probable space group: I B A M
;
_chemical_formula_sum "Si O2"
_cell_formula_units_Z 96
_cell_length_a 20.369763
_cell_length_b 13.524761
_cell_length_c 16.846922
_cell_angle_alpha 90.000000
_cell_angle_beta 90.000000
_cell_angle_gamma 90.000000
_cell_volume 4641.262592
_symmetry_space_group_name_H-M "I B A M"
_symmetry_group_IT_number 72
_symmetry_cell_setting 'orthorhombic'
loop_
_space_group_symop_operation_xyz
x,y,z
-x,-y,z
x,-y,1/2-z
-x,y,1/2-z
-x,-y,-z
x,y,-z
-x,y,1/2+z
x,-y,1/2+z
1/2+x,1/2+y,1/2+z
1/2-x,1/2-y,1/2+z
1/2+x,1/2-y,-z
1/2-x,1/2+y,-z
1/2-x,1/2-y,1/2-z
1/2+x,1/2+y,1/2-z
1/2-x,1/2+y,z
1/2+x,1/2-y,z
loop_
_atom_site_type_symbol
_atom_site_label
_atom_site_fract_x
_atom_site_fract_y
_atom_site_fract_z
Si Si1 0.109840 0.302066 0.816490
Si Si2 0.145025 0.628780 0.851533
Si Si3 0.159280 0.831798 0.091889
Si Si4 0.422883 0.610737 0.734836
Si Si5 0.705849 0.929600 0.408381
Si Si6 0.494721 0.112251 0.089728
O O1 0.122212 0.369083 0.739348
O O2 0.114993 0.185801 0.794369
O O3 0.164169 0.334437 0.880268
O O4 0.037266 0.321037 0.850893
O O5 0.186938 0.724925 0.878435
O O6 0.186036 0.529293 0.863095
O O7 0.081280 0.640074 0.907037
O O8 0.095616 0.862222 0.143972
O O9 0.217603 0.909807 0.106755
O O10 0.138190 0.830960 0.000000
O O11 0.398021 0.500000 0.750000
O O12 0.500000 0.620923 0.750000
O O13 0.689813 0.945579 0.500000
O O14 0.500000 0.000000 0.118572
O O15 0.520879 0.125682 0.000000
#
# Coordination Sequence:
#
# PCOD8295121 Si02
#       6
#    16  16  16  16  16  16
#     4  11  22  37  61  92 122 165 206 251 312 376
#     4  11  22  38  61  89 126 166 206 255 310 373
#     4  10  23  42  64  87 121 166 205 247 309 374
#     4  10  23  44  65  89 119 155 207 264 306 356
#     4  11  23  38  58  91 127 160 204 250 301 368
#     4  11  21  34  59  94 132 164 198 253 318 379
#
# _framework density 20.684027
#
# number of rings (size 3 to 8) (size 9 to 14) (size 15 to 20)
#    0.000    1.333    1.667    5.000    0.000    6.000 
#    0.000    5.833    0.000    0.000    0.000    0.000 
#    0.000    0.000    0.000    0.000    0.000    0.000 
#
# Total GULP energy -595199.116256 kJ/mol
# GULP energy per Si atom -12399.981589 kJ/mol
# Density = 2.063695 g / cm^3
# Si number density = 20.684027 Si / 1000 Ang^3
#
#
#
# Elastic Constant Matrix: (Units=GPa)
#
#
# Indices 1 2 3 4 5 6 
#
# 1 86.2606 35.3537 43.5560 0.0000 0.0000 0.0000
# 2 35.3537 145.1942 57.0291 0.0000 0.0000 0.0000
# 3 43.5560 57.0291 95.4881 0.0000 0.0000 0.0000
# 4 0.0000 0.0000 0.0000 21.6777 0.0000 0.0000
# 5 0.0000 0.0000 0.0000 0.0000 37.0774 0.0000
# 6 0.0000 0.0000 0.0000 0.0000 0.0000 29.0863
#
#
#
# Elastic Compliance Matrix: (Units=1/GPa)
#
#
# Indices 1 2 3 4 5 6 
#
# 1 0.015242 -0.001281 -0.006187 0.000000 0.000000 0.000000
# 2 -0.001281 0.009106 -0.004854 0.000000 0.000000 0.000000
# 3 -0.006187 -0.004854 0.016194 0.000000 0.000000 0.000000
# 4 0.000000 0.000000 0.000000 0.046130 0.000000 0.000000
# 5 0.000000 0.000000 0.000000 0.000000 0.026971 0.000000
# 6 0.000000 0.000000 0.000000 0.000000 0.000000 0.034380
#
#
# Mechanical properties :
#
#
# Convention : Reuss Voigt Hill
#
# Bulk Modulus (GPa) = 62.90591 66.53562 64.72077
# Shear Modulus (GPa) = 28.09510 30.30188 29.19849
#
# Velocity S-wave (km/s) = 3.68951 3.83167 3.76126
# Velocity P-wave (km/s) = 6.97343 7.19813 7.08667
#
# Compressibility (1/GPa) = 0.01589676
#
# Stress axis : x y z
#
# Youngs Moduli (GPa) = 65.60788 109.82018 61.75188
#
# Poissons Ratio (x) = 0.14068 0.38209
# Poissons Ratio (y) = 0.08405 0.29974
# Poissons Ratio (z) = 0.40595 0.53307
#
# Static dielectric constant tensor:
#      x y z
#    x 3.642750 0.000000 0.000000 
#    y 0.000000 3.991580 0.000000 
#    z 0.000000 0.000000 3.770640 
# 
# 
# High freq. dielectric constant tensor:
#      x y z
#    x 1.796810 0.000000 0.000000 
#    y 0.000000 1.812960 0.000000 
#    z 0.000000 0.000000 1.817820 
# 
# From -- ./inp_files/24138.got.cif
#   From: 2010.03.12/outbox.cif.g09.slc.cpg/sg72_13_cif.got.tgz:24138.got - 2010.04.16 14:54:00.
