data_PCOD8295316
_publ_section_title
;
Structure prediction by ZEFSAII (Michael W. Deem and Ramdas Pophale) SiO2 
 PCOD8295316
Probable space group: I B A M
;
_chemical_formula_sum "Si O2"
_cell_formula_units_Z 100
_cell_length_a 19.908460
_cell_length_b 13.371270
_cell_length_c 18.895816
_cell_angle_alpha 90.000000
_cell_angle_beta 90.000000
_cell_angle_gamma 90.000000
_cell_volume 5030.092559
_symmetry_space_group_name_H-M "I B A M"
_symmetry_group_IT_number 72
_symmetry_cell_setting 'orthorhombic'
loop_
_space_group_symop_operation_xyz
x,y,z
-x,-y,z
x,-y,1/2-z
-x,y,1/2-z
-x,-y,-z
x,y,-z
-x,y,1/2+z
x,-y,1/2+z
1/2+x,1/2+y,1/2+z
1/2-x,1/2-y,1/2+z
1/2+x,1/2-y,-z
1/2-x,1/2+y,-z
1/2-x,1/2-y,1/2-z
1/2+x,1/2+y,1/2-z
1/2-x,1/2+y,z
1/2+x,1/2-y,z
loop_
_atom_site_type_symbol
_atom_site_label
_atom_site_fract_x
_atom_site_fract_y
_atom_site_fract_z
Si Si1 0.892661 0.596774 0.581616
Si Si2 0.320726 0.610666 0.777166
Si Si3 0.970884 0.107364 0.674929
Si Si4 0.114015 0.597147 0.669900
Si Si5 0.974925 0.714159 0.080379
Si Si6 0.815351 0.693813 0.303531
Si Si7 0.000000 0.500000 0.750000
O O1 0.868859 0.591000 0.500000
O O2 0.865453 0.499325 0.623732
O O3 0.972328 0.620977 0.584913
O O4 0.858532 0.685404 0.625364
O O5 0.303534 0.500000 0.750000
O O6 0.389730 0.606497 0.821649
O O7 0.259483 0.655804 0.824008
O O8 0.323461 0.688458 0.711635
O O9 0.000000 0.141161 0.750000
O O10 0.000047 0.185349 0.618314
O O11 0.000000 0.000000 0.653142
O O12 0.164173 0.628959 0.732841
O O13 0.043020 0.575819 0.704890
O O14 0.097078 0.685678 0.615109
O O15 0.961003 0.742019 0.000000
#
# Coordination Sequence:
#
# PCOD8295316 Si02
#       7
#    16  16  16  16  16  16   4
#     4  11  22  36  56  88 130 166 201 253 320 373
#     4  11  22  40  65  94 120 152 210 262 310 360
#     4  11  22  39  64  91 117 161 207 261 305 367
#     4  12  19  35  57  89 120 159 207 254 304 364
#     4  11  23  36  57  89 127 164 203 257 317 370
#     4  11  23  39  66  91 119 163 209 262 304 368
#     4  12  20  28  58  84 118 144 196 252 288 360
#
# _framework density 19.880348999999999
#
# number of rings (size 3 to 8) (size 9 to 14) (size 15 to 20)
#    0.000    0.800    6.400    2.400    1.120    1.600 
#    0.000    0.800    0.000    0.960    0.000    0.000 
#    0.000    0.000    0.000    0.000    0.000    0.000 
#
# Total GULP energy -619437.008122 kJ/mol
# GULP energy per Si atom -12388.740162 kJ/mol
# Density = 1.983510 g / cm^3
# Si number density = 19.880349 Si / 1000 Ang^3
#
#
#
# Elastic Constant Matrix: (Units=GPa)
#
#
# Indices 1 2 3 4 5 6 
#
# 1 82.8694 20.3757 22.4888 0.0000 0.0000 0.0000
# 2 20.3757 124.9976 42.6822 0.0000 0.0000 0.0000
# 3 22.4888 42.6822 121.6184 0.0000 0.0000 0.0000
# 4 0.0000 0.0000 0.0000 124.0896 0.0000 0.0000
# 5 0.0000 0.0000 0.0000 0.0000 7.8275 0.0000
# 6 0.0000 0.0000 0.0000 0.0000 0.0000 29.5184
#
#
#
# Elastic Compliance Matrix: (Units=1/GPa)
#
#
# Indices 1 2 3 4 5 6 
#
# 1 0.012938 -0.001468 -0.001877 0.000000 0.000000 0.000000
# 2 -0.001468 0.009256 -0.002977 0.000000 0.000000 0.000000
# 3 -0.001877 -0.002977 0.009614 0.000000 0.000000 0.000000
# 4 0.000000 0.000000 0.000000 0.008059 0.000000 0.000000
# 5 0.000000 0.000000 0.000000 0.000000 0.127754 0.000000
# 6 0.000000 0.000000 0.000000 0.000000 0.000000 0.033877
#
#
# Mechanical properties :
#
#
# Convention : Reuss Voigt Hill
#
# Bulk Modulus (GPa) = 52.18194 55.61986 53.90090
# Shear Modulus (GPa) = 22.67268 48.54971 35.61119
#
# Velocity S-wave (km/s) = 3.38073 4.94712 4.23694
# Velocity P-wave (km/s) = 6.44547 7.78909 7.14892
#
# Compressibility (1/GPa) = 0.01916372
#
# Stress axis : x y z
#
# Youngs Moduli (GPa) = 77.29458 108.03844 104.01160
#
# Poissons Ratio (x) = 0.15860 0.19524
# Poissons Ratio (y) = 0.11347 0.30964
# Poissons Ratio (z) = 0.14509 0.32163
#
# Static dielectric constant tensor:
#      x y z
#    x 2.962880 0.000000 0.000000 
#    y 0.000000 3.669840 0.000000 
#    z 0.000000 0.000000 3.544650 
# 
# 
# High freq. dielectric constant tensor:
#      x y z
#    x 1.765330 0.000000 0.000000 
#    y 0.000000 1.787930 0.000000 
#    z 0.000000 0.000000 1.753740 
# 
# From -- ./inp_files/32679.got.cif
#   From: 2010.03.12/outbox.cif.g09.slc.cpg/sg72_17_cif.got.tgz:32679.got - 2010.04.16 14:54:00.
