data_PCOD8295858
_publ_section_title
;
Structure prediction by ZEFSAII (Michael W. Deem and Ramdas Pophale) SiO2 
 PCOD8295858
Probable space group: I B C A 
;
_chemical_formula_sum "Si O2"
_cell_formula_units_Z 120
_cell_length_a 24.638086
_cell_length_b 8.958939
_cell_length_c 29.279120
_cell_angle_alpha 90.000000
_cell_angle_beta 90.000000
_cell_angle_gamma 90.000000
_cell_volume 6462.812644
_symmetry_space_group_name_H-M "I B C A "
_symmetry_group_IT_number 73
_symmetry_cell_setting 'orthorhombic'
loop_
_space_group_symop_operation_xyz
x,y,z
-x,1/2-y,z
x,-y,1/2-z
1/2-x,y,-z
-x,-y,-z
x,1/2+y,-z
-x,y,1/2+z
1/2+x,-y,z
1/2+x,1/2+y,1/2+z
1/2-x,-y,1/2+z
1/2+x,1/2-y,-z
-x,1/2+y,1/2-z
1/2-x,1/2-y,1/2-z
1/2+x,y,1/2-z
1/2-x,1/2+y,z
x,1/2-y,1/2+z
loop_
_atom_site_type_symbol
_atom_site_label
_atom_site_fract_x
_atom_site_fract_y
_atom_site_fract_z
Si Si1 0.731883 0.242345 0.311444
Si Si2 0.556768 0.674612 0.800050
Si Si3 0.152806 0.321656 0.352821
Si Si4 0.139637 0.161345 0.632193
Si Si5 0.301683 0.300269 0.549390
Si Si6 0.556267 0.675293 0.696207
Si Si7 0.760536 0.000000 0.750000
Si Si8 0.812842 0.149180 0.040203
O O1 0.794487 0.205775 0.321602
O O2 0.700314 0.279857 0.357142
O O3 0.723753 0.378995 0.276333
O O4 0.704780 0.094432 0.287268
O O5 0.500000 0.750000 0.813581
O O6 0.603705 0.725017 0.834007
O O7 0.573374 0.718094 0.748023
O O8 0.549140 0.500233 0.807427
O O9 0.133501 0.492512 0.350863
O O10 0.165159 0.270743 0.404384
O O11 0.097925 0.265981 0.658346
O O12 0.138355 0.174590 0.577033
O O13 0.240861 0.239587 0.554506
O O14 0.298478 0.474912 0.537546
O O15 0.332774 0.210789 0.508858
O O16 0.500000 0.750000 0.683087
#
# Coordination Sequence:
#
# PCOD8295858 Si02
#       8
#    16  16  16  16  16  16   8  16
#     4  11  22  36  49  78 114 150 189 224 275 332
#     4  10  23  40  60  83 111 149 192 234 278 327
#     4  11  23  36  56  81 114 148 188 231 278 335
#     4  11  23  36  56  81 114 148 188 231 278 335
#     4  10  20  35  54  80 112 148 184 229 280 335
#     4  10  23  40  60  83 111 149 192 234 278 327
#     4  10  24  34  48  70 116 158 184 222 274 334
#     4  10  20  35  54  80 112 148 184 229 280 335
#
# _framework density 18.567768000000001
#
# number of rings (size 3 to 8) (size 9 to 14) (size 15 to 20)
#    0.000    1.600    2.667    2.400    5.600    3.733 
#    0.000    0.000    0.000    0.800    0.000    5.600 
#    0.000    0.000    0.000    0.000    0.000    0.000 
#
# Total GULP energy -743676.497550 kJ/mol
# GULP energy per Si atom -12394.608292 kJ/mol
# Density = 1.852551 g / cm^3
# Si number density = 18.567768 Si / 1000 Ang^3
#
#
#
# Elastic Constant Matrix: (Units=GPa)
#
#
# Indices 1 2 3 4 5 6 
#
# 1 78.4663 35.8940 48.4183 0.0000 0.0000 0.0000
# 2 35.8940 114.9037 54.1754 0.0000 0.0000 0.0000
# 3 48.4183 54.1754 124.1500 0.0000 0.0000 0.0000
# 4 0.0000 0.0000 0.0000 30.5086 0.0000 0.0000
# 5 0.0000 0.0000 0.0000 0.0000 42.8239 0.0000
# 6 0.0000 0.0000 0.0000 0.0000 0.0000 27.8642
#
#
#
# Elastic Compliance Matrix: (Units=1/GPa)
#
#
# Indices 1 2 3 4 5 6 
#
# 1 0.017484 -0.002829 -0.005584 0.000000 0.000000 0.000000
# 2 -0.002829 0.011415 -0.003878 0.000000 0.000000 0.000000
# 3 -0.005584 -0.003878 0.011925 0.000000 0.000000 0.000000
# 4 0.000000 0.000000 0.000000 0.032778 0.000000 0.000000
# 5 0.000000 0.000000 0.000000 0.000000 0.023351 0.000000
# 6 0.000000 0.000000 0.000000 0.000000 0.000000 0.035888
#
#
# Mechanical properties :
#
#
# Convention : Reuss Voigt Hill
#
# Bulk Modulus (GPa) = 61.56945 66.05503 63.81224
# Shear Modulus (GPa) = 30.70538 32.17482 31.44010
#
# Velocity S-wave (km/s) = 4.07097 4.16725 4.11939
# Velocity P-wave (km/s) = 7.43831 7.66857 7.55431
#
# Compressibility (1/GPa) = 0.01624182
#
# Stress axis : x y z
#
# Youngs Moduli (GPa) = 57.19424 87.60395 83.85813
#
# Poissons Ratio (x) = 0.24782 0.46830
# Poissons Ratio (y) = 0.16179 0.32520
# Poissons Ratio (z) = 0.31940 0.33972
#
# Static dielectric constant tensor:
#      x y z
#    x 3.089070 0.000000 0.000000 
#    y 0.000000 3.656080 0.000000 
#    z 0.000000 0.000000 3.621690 
# 
# 
# High freq. dielectric constant tensor:
#      x y z
#    x 1.678550 0.000000 0.000000 
#    y 0.000000 1.743790 0.000000 
#    z 0.000000 0.000000 1.728060 
# 
# From -- ./inp_files/34804.got.cif
#   From: 2010.03.12/outbox.cif.g09.slc.cpg/sg73_18_cif.got.tgz:34804.got - 2010.04.16 15:25:48.
