data_PCOD8295913
_publ_section_title
;
Structure prediction by ZEFSAII (Michael W. Deem and Ramdas Pophale) SiO2 
 PCOD8295913
Probable space group: I B C A 
;
_chemical_formula_sum "Si O2"
_cell_formula_units_Z 104
_cell_length_a 9.020476
_cell_length_b 18.222944
_cell_length_c 26.482909
_cell_angle_alpha 90.000000
_cell_angle_beta 90.000000
_cell_angle_gamma 90.000000
_cell_volume 4353.250756
_symmetry_space_group_name_H-M "I B C A "
_symmetry_group_IT_number 73
_symmetry_cell_setting 'orthorhombic'
loop_
_space_group_symop_operation_xyz
x,y,z
-x,1/2-y,z
x,-y,1/2-z
1/2-x,y,-z
-x,-y,-z
x,1/2+y,-z
-x,y,1/2+z
1/2+x,-y,z
1/2+x,1/2+y,1/2+z
1/2-x,-y,1/2+z
1/2+x,1/2-y,-z
-x,1/2+y,1/2-z
1/2-x,1/2-y,1/2-z
1/2+x,y,1/2-z
1/2-x,1/2+y,z
x,1/2-y,1/2+z
loop_
_atom_site_type_symbol
_atom_site_label
_atom_site_fract_x
_atom_site_fract_y
_atom_site_fract_z
Si Si1 0.012847 0.663381 0.853877
Si Si2 0.285217 0.194836 0.204847
Si Si3 0.000000 0.250000 0.871808
Si Si4 0.044693 0.946372 0.704466
Si Si5 0.631119 0.369814 0.564656
Si Si6 0.443156 0.171669 0.461923
Si Si7 0.739592 0.551914 0.152264
O O1 0.149283 0.644845 0.816670
O O2 0.000000 0.750000 0.848119
O O3 0.039584 0.643446 0.913635
O O4 0.867516 0.620797 0.834904
O O5 0.250000 0.250000 0.250000
O O6 0.350301 0.245868 0.160749
O O7 0.410630 0.135955 0.220414
O O8 0.010421 0.324963 0.903426
O O9 0.870815 0.946617 0.692897
O O10 0.081494 0.000000 0.750000
O O11 0.142138 0.977495 0.656851
O O12 0.557711 0.386167 0.509293
O O13 0.774080 0.317441 0.556842
O O14 0.686965 0.441712 0.595806
O O15 0.500000 0.250000 0.482107
#
# Coordination Sequence:
#
# PCOD8295913 Si02
#       7
#    16  16   8  16  16  16  16
#     4  10  23  44  72 105 146 188 232 304 383 441
#     4  12  29  46  70 108 147 188 241 315 369 442
#     4  12  22  40  68 102 146 180 238 288 372 422
#     4  12  28  47  74  95 139 203 258 299 369 456
#     4  10  20  36  67 105 141 186 231 305 360 447
#     4   9  17  35  65 101 144 186 229 288 381 442
#     4  11  24  48  70 100 141 194 251 306 367 453
#
# _framework density 23.890193
#
# number of rings (size 3 to 8) (size 9 to 14) (size 15 to 20)
#    0.000    1.231    2.308    4.154    5.385    1.231 
#    0.000    1.538    0.000   23.077    0.000    0.000 
#    0.000    0.000    0.000    0.000    0.000    0.000 
#
# Total GULP energy -644409.539922 kJ/mol
# GULP energy per Si atom -12392.491152 kJ/mol
# Density = 2.383582 g / cm^3
# Si number density = 23.890193 Si / 1000 Ang^3
#
#
#
# Elastic Constant Matrix: (Units=GPa)
#
#
# Indices 1 2 3 4 5 6 
#
# 1 109.0365 29.8622 49.7943 0.0000 0.0000 0.0000
# 2 29.8622 85.5397 28.1082 0.0000 0.0000 0.0000
# 3 49.7943 28.1082 134.6442 0.0000 0.0000 0.0000
# 4 0.0000 0.0000 0.0000 18.7464 0.0000 0.0000
# 5 0.0000 0.0000 0.0000 0.0000 37.0225 0.0000
# 6 0.0000 0.0000 0.0000 0.0000 0.0000 42.6845
#
#
#
# Elastic Compliance Matrix: (Units=1/GPa)
#
#
# Indices 1 2 3 4 5 6 
#
# 1 0.011646 -0.002846 -0.003713 0.000000 0.000000 0.000000
# 2 -0.002846 0.013247 -0.001713 0.000000 0.000000 0.000000
# 3 -0.003713 -0.001713 0.009158 0.000000 0.000000 0.000000
# 4 0.000000 0.000000 0.000000 0.053344 0.000000 0.000000
# 5 0.000000 0.000000 0.000000 0.000000 0.027011 0.000000
# 6 0.000000 0.000000 0.000000 0.000000 0.000000 0.023428
#
#
# Mechanical properties :
#
#
# Convention : Reuss Voigt Hill
#
# Bulk Modulus (GPa) = 57.11842 60.52773 58.82308
# Shear Modulus (GPa) = 31.20869 34.45439 32.83154
#
# Velocity S-wave (km/s) = 3.61825 3.80175 3.71113
# Velocity P-wave (km/s) = 6.43555 6.68295 6.56042
#
# Compressibility (1/GPa) = 0.01750749
#
# Stress axis : x y z
#
# Youngs Moduli (GPa) = 85.86484 75.48996 109.19754
#
# Poissons Ratio (x) = 0.21482 0.40545
# Poissons Ratio (y) = 0.24434 0.18706
# Poissons Ratio (z) = 0.31881 0.12931
#
# Static dielectric constant tensor:
#      x y z
#    x 4.506950 0.000000 0.000000 
#    y 0.000000 4.023110 0.000000 
#    z 0.000000 0.000000 4.697530 
# 
# 
# High freq. dielectric constant tensor:
#      x y z
#    x 1.949560 0.000000 0.000000 
#    y 0.000000 1.911140 0.000000 
#    z 0.000000 0.000000 1.957840 
# 
# From -- ./inp_files/31269.got.cif
#   From: 2010.03.12/outbox.cif.g09.slc.cpg/sg73_16_cif.got.tgz:31269.got - 2010.04.16 15:25:48.
