data_PCOD8295712
_publ_section_title
;
Structure prediction by ZEFSAII (Michael W. Deem and Ramdas Pophale) SiO2 
 PCOD8295712
Probable space group: I B C A 
;
_chemical_formula_sum "Si O2"
_cell_formula_units_Z 64
_cell_length_a 25.355593
_cell_length_b 5.129930
_cell_length_c 25.195124
_cell_angle_alpha 90.000000
_cell_angle_beta 90.000000
_cell_angle_gamma 90.000000
_cell_volume 3277.190680
_symmetry_space_group_name_H-M "I B C A "
_symmetry_group_IT_number 73
_symmetry_cell_setting 'orthorhombic'
loop_
_space_group_symop_operation_xyz
x,y,z
-x,1/2-y,z
x,-y,1/2-z
1/2-x,y,-z
-x,-y,-z
x,1/2+y,-z
-x,y,1/2+z
1/2+x,-y,z
1/2+x,1/2+y,1/2+z
1/2-x,-y,1/2+z
1/2+x,1/2-y,-z
-x,1/2+y,1/2-z
1/2-x,1/2-y,1/2-z
1/2+x,y,1/2-z
1/2-x,1/2+y,z
x,1/2-y,1/2+z
loop_
_atom_site_type_symbol
_atom_site_label
_atom_site_fract_x
_atom_site_fract_y
_atom_site_fract_z
Si Si1 0.558450 0.483334 0.476287
Si Si2 0.274077 0.931581 0.809678
Si Si3 0.555966 0.371052 0.353536
Si Si4 0.895473 0.890539 0.692642
O O1 0.500000 0.500000 0.500000
O O2 0.588891 0.240791 0.503440
O O3 0.555442 0.470569 0.413402
O O4 0.262322 0.209695 0.838072
O O5 0.254608 0.000000 0.750000
O O6 0.333740 0.828667 0.810811
O O7 0.500000 0.250000 0.335479
O O8 0.572091 0.623746 0.318436
O O9 0.595338 0.126501 0.348674
O O10 0.912468 0.000000 0.750000
#
# Coordination Sequence:
#
# PCOD8295712 Si02
#       4
#    16  16  16  16
#     4  10  19  34  57  78  98 137 181 251 289 304
#     4   9  17  33  57  78 102 140 185 238 288 310
#     4  12  23  36  57  78 115 159 191 225 274 329
#     4  11  24  38  53  82 119 154 194 227 258 339
#
# _framework density 19.528921
#
# number of rings (size 3 to 8) (size 9 to 14) (size 15 to 20)
#    0.000    1.500    2.500    4.500    3.500    6.000 
#    0.000    0.000    0.000    0.000    0.000    0.000 
#    0.000   70.000    0.000    0.000    0.000    0.000 
#
# Total GULP energy -396433.169916 kJ/mol
# GULP energy per Si atom -12388.536560 kJ/mol
# Density = 1.948447 g / cm^3
# Si number density = 19.528921 Si / 1000 Ang^3
#
#
#
# Elastic Constant Matrix: (Units=GPa)
#
#
# Indices 1 2 3 4 5 6 
#
# 1 72.3763 56.9877 37.6921 0.0000 0.0000 0.0000
# 2 56.9877 216.6676 40.9606 0.0000 0.0000 0.0000
# 3 37.6921 40.9606 65.1383 0.0000 0.0000 0.0000
# 4 0.0000 0.0000 0.0000 33.6973 0.0000 0.0000
# 5 0.0000 0.0000 0.0000 0.0000 3.0713 0.0000
# 6 0.0000 0.0000 0.0000 0.0000 0.0000 35.5684
#
#
#
# Elastic Compliance Matrix: (Units=1/GPa)
#
#
# Indices 1 2 3 4 5 6 
#
# 1 0.022340 -0.003895 -0.010478 0.000000 0.000000 0.000000
# 2 -0.003895 0.005917 -0.001467 0.000000 0.000000 0.000000
# 3 -0.010478 -0.001467 0.022337 0.000000 0.000000 0.000000
# 4 0.000000 0.000000 0.000000 0.029676 0.000000 0.000000
# 5 0.000000 0.000000 0.000000 0.000000 0.325594 0.000000
# 6 0.000000 0.000000 0.000000 0.000000 0.000000 0.028115
#
#
# Mechanical properties :
#
#
# Convention : Reuss Voigt Hill
#
# Bulk Modulus (GPa) = 52.86792 69.49588 61.18190
# Shear Modulus (GPa) = 10.59402 29.03686 19.81544
#
# Velocity S-wave (km/s) = 2.33164 3.86017 3.18885
# Velocity P-wave (km/s) = 5.86337 7.45193 6.70486
#
# Compressibility (1/GPa) = 0.01891506
#
# Stress axis : x y z
#
# Youngs Moduli (GPa) = 44.76237 168.99942 44.76811
#
# Poissons Ratio (x) = 0.65827 0.46907
# Poissons Ratio (y) = 0.17435 0.06567
# Poissons Ratio (z) = 0.46901 0.24792
#
# Static dielectric constant tensor:
#      x y z
#    x 3.195710 0.000000 0.000000 
#    y 0.000000 1.782850 0.000000 
#    z 0.000000 0.000000 3.395670 
# 
# 
# High freq. dielectric constant tensor:
#      x y z
#    x 1.719360 0.000000 0.000000 
#    y 0.000000 1.809340 0.000000 
#    z 0.000000 0.000000 1.722020 
# 
# From -- ./inp_files/1630.got.cif
#   From: 2010.03.12/outbox.cif.g09.slc.cpg/sg73_1_cif.got.tgz:1630.got - 2010.04.16 15:25:48.
