data_PCOD8295368
_publ_section_title
;
Structure prediction by ZEFSAII (Michael W. Deem and Ramdas Pophale) SiO2 
 PCOD8295368
Probable space group: I B A M
;
_chemical_formula_sum "Si O2"
_cell_formula_units_Z 112
_cell_length_a 24.196219
_cell_length_b 13.983553
_cell_length_c 16.582174
_cell_angle_alpha 90.000000
_cell_angle_beta 90.000000
_cell_angle_gamma 90.000000
_cell_volume 5610.563828
_symmetry_space_group_name_H-M "I B A M"
_symmetry_group_IT_number 72
_symmetry_cell_setting 'orthorhombic'
loop_
_space_group_symop_operation_xyz
x,y,z
-x,-y,z
x,-y,1/2-z
-x,y,1/2-z
-x,-y,-z
x,y,-z
-x,y,1/2+z
x,-y,1/2+z
1/2+x,1/2+y,1/2+z
1/2-x,1/2-y,1/2+z
1/2+x,1/2-y,-z
1/2-x,1/2+y,-z
1/2-x,1/2-y,1/2-z
1/2+x,1/2+y,1/2-z
1/2-x,1/2+y,z
1/2+x,1/2-y,z
loop_
_atom_site_type_symbol
_atom_site_label
_atom_site_fract_x
_atom_site_fract_y
_atom_site_fract_z
Si Si1 0.825914 0.369667 0.666745
Si Si2 0.223626 0.234493 0.591603
Si Si3 0.997082 0.890267 0.655183
Si Si4 0.895132 0.786121 0.903666
Si Si5 0.664597 0.458563 0.167304
Si Si6 0.790545 0.429868 0.159035
Si Si7 0.118567 0.130999 0.408849
O O1 0.775663 0.300972 0.641555
O O2 0.882646 0.319097 0.635251
O O3 0.821134 0.384512 0.763050
O O4 0.823548 0.476401 0.627097
O O5 0.230923 0.199318 0.500000
O O6 0.216059 0.349042 0.591533
O O7 0.168266 0.190959 0.631849
O O8 0.043294 0.823575 0.613983
O O9 0.000000 0.888040 0.750000
O O10 0.938407 0.844365 0.634431
O O11 0.000000 0.000000 0.622598
O O12 0.851530 0.851098 0.854758
O O13 0.884033 0.784339 0.000000
O O14 0.636810 0.500000 0.250000
O O15 0.729733 0.470076 0.178050
O O16 0.636981 0.520422 0.095941
O O17 0.110648 0.162845 0.500000
#
# Coordination Sequence:
#
# PCOD8295368 Si02
#       7
#    16  16  16  16  16  16  16
#     4  11  23  40  60  92 127 168 218 260 321 383
#     4  11  23  36  59  90 124 166 205 257 324 389
#     4  11  24  41  63  93 123 166 211 262 323 389
#     4  12  26  40  63  95 132 169 212 271 326 386
#     4  12  21  35  59  92 126 172 211 248 310 381
#     4  11  23  39  60  88 128 172 211 262 314 385
#     4  11  23  38  58  88 129 165 204 259 321 391
#
# _framework density 19.962344000000002
#
# number of rings (size 3 to 8) (size 9 to 14) (size 15 to 20)
#    0.000    0.714    5.714    2.571    4.000    2.286 
#    0.000    0.000    0.000    0.857    0.000    3.000 
#    0.000    0.000    0.000    0.000    0.000    0.000 
#
# Total GULP energy -694112.355606 kJ/mol
# GULP energy per Si atom -12394.863493 kJ/mol
# Density = 1.991691 g / cm^3
# Si number density = 19.962344 Si / 1000 Ang^3
#
#
#
# Elastic Constant Matrix: (Units=GPa)
#
#
# Indices 1 2 3 4 5 6 
#
# 1 107.7843 41.0187 25.4816 0.0000 0.0000 0.0000
# 2 41.0187 123.1384 24.2169 0.0000 0.0000 0.0000
# 3 25.4816 24.2169 67.7766 0.0000 0.0000 0.0000
# 4 0.0000 0.0000 0.0000 27.6971 0.0000 0.0000
# 5 0.0000 0.0000 0.0000 0.0000 25.3338 0.0000
# 6 0.0000 0.0000 0.0000 0.0000 0.0000 35.8532
#
#
#
# Elastic Compliance Matrix: (Units=1/GPa)
#
#
# Indices 1 2 3 4 5 6 
#
# 1 0.011197 -0.003121 -0.003094 0.000000 0.000000 0.000000
# 2 -0.003121 0.009605 -0.002258 0.000000 0.000000 0.000000
# 3 -0.003094 -0.002258 0.016725 0.000000 0.000000 0.000000
# 4 0.000000 0.000000 0.000000 0.036105 0.000000 0.000000
# 5 0.000000 0.000000 0.000000 0.000000 0.039473 0.000000
# 6 0.000000 0.000000 0.000000 0.000000 0.000000 0.027891
#
#
# Mechanical properties :
#
#
# Convention : Reuss Voigt Hill
#
# Bulk Modulus (GPa) = 48.59464 53.34820 50.97142
# Shear Modulus (GPa) = 30.33908 31.64229 30.99069
#
# Velocity S-wave (km/s) = 3.90271 3.98565 3.94440
# Velocity P-wave (km/s) = 6.68612 6.92553 6.80688
#
# Compressibility (1/GPa) = 0.02057840
#
# Stress axis : x y z
#
# Youngs Moduli (GPa) = 89.30774 104.11425 59.79187
#
# Poissons Ratio (x) = 0.32498 0.18503
# Poissons Ratio (y) = 0.27876 0.13503
# Poissons Ratio (z) = 0.27636 0.23512
#
# Static dielectric constant tensor:
#      x y z
#    x 3.654160 0.000000 0.000000 
#    y 0.000000 3.789360 0.000000 
#    z 0.000000 0.000000 3.511680 
# 
# 
# High freq. dielectric constant tensor:
#      x y z
#    x 1.761860 0.000000 0.000000 
#    y 0.000000 1.773310 0.000000 
#    z 0.000000 0.000000 1.778640 
# 
# From -- ./inp_files/25193.got.cif
#   From: 2010.03.12/outbox.cif.g09.slc.cpg/sg72_13_cif.got.tgz:25193.got - 2010.04.16 14:54:00.
