data_PCOD8295775
_publ_section_title
;
Structure prediction by ZEFSAII (Michael W. Deem and Ramdas Pophale) SiO2 
 PCOD8295775
Probable space group: I B C A 
;
_chemical_formula_sum "Si O2"
_cell_formula_units_Z 72
_cell_length_a 13.678087
_cell_length_b 19.106725
_cell_length_c 13.124944
_cell_angle_alpha 90.000000
_cell_angle_beta 90.000000
_cell_angle_gamma 90.000000
_cell_volume 3430.118104
_symmetry_space_group_name_H-M "I B C A "
_symmetry_group_IT_number 73
_symmetry_cell_setting 'orthorhombic'
loop_
_space_group_symop_operation_xyz
x,y,z
-x,1/2-y,z
x,-y,1/2-z
1/2-x,y,-z
-x,-y,-z
x,1/2+y,-z
-x,y,1/2+z
1/2+x,-y,z
1/2+x,1/2+y,1/2+z
1/2-x,-y,1/2+z
1/2+x,1/2-y,-z
-x,1/2+y,1/2-z
1/2-x,1/2-y,1/2-z
1/2+x,y,1/2-z
1/2-x,1/2+y,z
x,1/2-y,1/2+z
loop_
_atom_site_type_symbol
_atom_site_label
_atom_site_fract_x
_atom_site_fract_y
_atom_site_fract_z
Si Si1 0.401343 0.790836 0.276632
Si Si2 0.120287 0.069241 0.894041
Si Si3 0.339130 0.091241 0.878181
Si Si4 0.024339 0.500000 0.750000
Si Si5 0.221383 0.752750 0.887908
O O1 0.500000 0.750000 0.266726
O O2 0.414850 0.857904 0.345853
O O3 0.359146 0.805631 0.161628
O O4 0.321451 0.739078 0.325495
O O5 0.233371 0.054096 0.865220
O O6 0.109673 0.069220 0.015855
O O7 0.045656 0.013617 0.846654
O O8 0.323049 0.174390 0.882331
O O9 0.407876 0.065799 0.784704
O O10 0.250000 0.776943 0.000000
#
# Coordination Sequence:
#
# PCOD8295775 Si02
#       5
#    16  16  16   8  16
#     4  10  20  35  60  88 114 151 196 239 300 362
#     4  10  21  40  58  84 119 154 196 243 302 352
#     4  10  20  40  60  78 120 162 188 245 307 346
#     4  12  22  34  62  90 110 154 212 246 280 360
#     4  10  19  38  60  81 120 158 189 240 303 361
#
# _framework density 20.990531000000001
#
# number of rings (size 3 to 8) (size 9 to 14) (size 15 to 20)
#    0.000    1.778    4.444    2.667    0.000    0.889 
#    4.000    0.000   14.667    0.000    0.000    0.000 
#    0.000    0.000    0.000    0.000    0.000    0.000 
#
# Total GULP energy -446076.421076 kJ/mol
# GULP energy per Si atom -12391.011697 kJ/mol
# Density = 2.094276 g / cm^3
# Si number density = 20.990531 Si / 1000 Ang^3
#
#
#
# Elastic Constant Matrix: (Units=GPa)
#
#
# Indices 1 2 3 4 5 6 
#
# 1 112.3450 13.0618 53.9740 0.0001 0.0000 0.0000
# 2 13.0618 9.7950 8.6904 -0.0003 0.0000 -0.0001
# 3 53.9740 8.6904 118.7916 -0.0006 -0.0001 -0.0003
# 4 0.0001 -0.0003 -0.0006 28.2485 0.0000 -0.0002
# 5 0.0000 0.0000 -0.0001 0.0000 37.9364 0.0000
# 6 0.0000 -0.0001 -0.0003 -0.0002 0.0000 -16.5423
#
#
#
# Elastic Compliance Matrix: (Units=1/GPa)
#
#
# Indices 1 2 3 4 5 6 
#
# 1 0.012698 -0.012634 -0.004845 0.000000 0.000000 0.000000
# 2 -0.012634 0.121750 -0.003167 0.000001 0.000000 -0.000001
# 3 -0.004845 -0.003167 0.010851 0.000000 0.000000 0.000000
# 4 0.000000 0.000001 0.000000 0.035400 0.000000 0.000000
# 5 0.000000 0.000000 0.000000 0.000000 0.026360 0.000000
# 6 0.000000 -0.000001 0.000000 0.000000 0.000000 -0.060451
#
#
# Mechanical properties :
#
#
# Convention : Reuss Voigt Hill
#
# Bulk Modulus (GPa) = 9.61467 43.59821 26.60644
# Shear Modulus (GPa) = 22.46504 20.94222 21.70363
#
# Velocity S-wave (km/s) = 3.27501 3.16206 3.21903
# Velocity P-wave (km/s) = 4.34642 5.84355 5.14968
#
# Compressibility (1/GPa) = 0.10400777
#
# Stress axis : x y z
#
# Youngs Moduli (GPa) = 78.75405 8.21356 92.15604
#
# Poissons Ratio (x) = 0.10377 0.44650
# Poissons Ratio (y) = 0.99498 0.29181
# Poissons Ratio (z) = 0.38157 0.02601
#
# Static dielectric constant tensor:
#      x y z
#    x 4.147730 0.000000 0.000000 
#    y 0.000000 3.384740 0.000000 
#    z 0.000000 0.000000 4.109150 
# 
# 
# High freq. dielectric constant tensor:
#      x y z
#    x 1.838560 0.000000 0.000000 
#    y 0.000000 1.778440 0.000000 
#    z 0.000000 0.000000 1.832740 
# 
# From -- ./inp_files/15949.got.cif
#   From: 2010.03.12/outbox.cif.g09.slc.cpg/sg73_8_cif.got.tgz:15949.got - 2010.04.16 15:25:48.
