data_PCOD8295243
_publ_section_title
;
Structure prediction by ZEFSAII (Michael W. Deem and Ramdas Pophale) SiO2 
 PCOD8295243
Probable space group: I B A M
;
_chemical_formula_sum "Si O2"
_cell_formula_units_Z 88
_cell_length_a 9.105442
_cell_length_b 23.789932
_cell_length_c 20.756341
_cell_angle_alpha 90.000000
_cell_angle_beta 90.000000
_cell_angle_gamma 90.000000
_cell_volume 4496.193878
_symmetry_space_group_name_H-M "I B A M"
_symmetry_group_IT_number 72
_symmetry_cell_setting 'orthorhombic'
loop_
_space_group_symop_operation_xyz
x,y,z
-x,-y,z
x,-y,1/2-z
-x,y,1/2-z
-x,-y,-z
x,y,-z
-x,y,1/2+z
x,-y,1/2+z
1/2+x,1/2+y,1/2+z
1/2-x,1/2-y,1/2+z
1/2+x,1/2-y,-z
1/2-x,1/2+y,-z
1/2-x,1/2-y,1/2-z
1/2+x,1/2+y,1/2-z
1/2-x,1/2+y,z
1/2+x,1/2-y,z
loop_
_atom_site_type_symbol
_atom_site_label
_atom_site_fract_x
_atom_site_fract_y
_atom_site_fract_z
Si Si1 0.303819 0.636484 0.354256
Si Si2 0.736837 0.031264 0.314340
Si Si3 0.122125 0.752635 0.199751
Si Si4 0.850736 0.034244 0.928567
Si Si5 0.527230 0.133486 0.675565
Si Si6 0.000000 0.916614 0.750000
O O1 0.346408 0.702259 0.357430
O O2 0.377916 0.600369 0.411672
O O3 0.370590 0.617388 0.285316
O O4 0.128452 0.627102 0.359973
O O5 0.638949 0.082985 0.340085
O O6 0.907725 0.046847 0.301512
O O7 0.671739 0.000000 0.250000
O O8 0.737874 0.987944 0.374045
O O9 0.250000 0.750000 0.250000
O O10 0.096908 0.694635 0.160466
O O11 0.000000 0.772154 0.250000
O O12 0.780382 0.029958 0.000000
O O13 0.000000 0.000000 0.927817
O O14 0.500000 0.132886 0.750000
#
# Coordination Sequence:
#
# PCOD8295243 Si02
#       6
#    16  16  16  16  16   8
#     4  12  22  37  58  86 125 160 194 249 306 360
#     4  12  21  36  59  88 121 158 197 247 299 361
#     4  11  20  33  55  89 125 150 193 249 307 355
#     4  11  24  41  62  90 122 158 205 250 302 370
#     4  11  22  35  52  92 126 153 196 248 306 357
#     4  12  19  32  58  92 112 152 199 244 294 354
#
# _framework density 19.572111
#
# number of rings (size 3 to 8) (size 9 to 14) (size 15 to 20)
#    0.000    0.545   10.000    0.273    0.000    2.545 
#    0.000    1.818    0.000    2.182    0.000    0.000 
#    0.000    0.000    0.000    0.000    0.000    0.000 
#
# Total GULP energy -545113.068967 kJ/mol
# GULP energy per Si atom -12388.933386 kJ/mol
# Density = 1.952756 g / cm^3
# Si number density = 19.572111 Si / 1000 Ang^3
#
#
#
# Elastic Constant Matrix: (Units=GPa)
#
#
# Indices 1 2 3 4 5 6 
#
# 1 110.4303 50.6496 16.6214 0.0000 0.0000 0.0000
# 2 50.6496 150.6752 48.5726 0.0000 0.0000 0.0000
# 3 16.6214 48.5726 101.9503 -0.0001 0.0000 0.0000
# 4 0.0000 0.0000 -0.0001 0.7618 0.0000 0.0000
# 5 0.0000 0.0000 0.0000 0.0000 1.5630 0.0000
# 6 0.0000 0.0000 0.0000 0.0000 0.0000 29.6887
#
#
#
# Elastic Compliance Matrix: (Units=1/GPa)
#
#
# Indices 1 2 3 4 5 6 
#
# 1 0.010706 -0.003587 -0.000036 0.000000 0.000000 0.000000
# 2 -0.003587 0.009043 -0.003724 0.000000 0.000000 0.000000
# 3 -0.000036 -0.003724 0.011589 0.000001 0.000000 0.000000
# 4 0.000000 0.000000 0.000001 1.312694 0.000006 0.000000
# 5 0.000000 0.000000 0.000000 0.000006 0.639779 0.000000
# 6 0.000000 0.000000 0.000000 0.000000 0.000000 0.033683
#
#
# Mechanical properties :
#
#
# Convention : Reuss Voigt Hill
#
# Bulk Modulus (GPa) = 60.08321 66.08255 63.08288
# Shear Modulus (GPa) = 2.45370 22.88352 12.66861
#
# Velocity S-wave (km/s) = 1.12089 3.42305 2.54693
# Velocity P-wave (km/s) = 5.69563 7.03278 6.39923
#
# Compressibility (1/GPa) = 0.01664358
#
# Stress axis : x y z
#
# Youngs Moduli (GPa) = 93.40335 110.58311 86.29120
#
# Poissons Ratio (x) = 0.39668 0.00314
# Poissons Ratio (y) = 0.33505 0.32131
# Poissons Ratio (z) = 0.00340 0.41176
#
# Static dielectric constant tensor:
#      x y z
#    x 4.058000 0.000000 0.000000 
#    y 0.000000 7.036570 0.000000 
#    z 0.000000 0.000000 3.222910 
# 
# 
# High freq. dielectric constant tensor:
#      x y z
#    x 1.766800 0.000000 0.000000 
#    y 0.000000 1.784490 0.000000 
#    z 0.000000 0.000000 1.695990 
# 
# From -- ./inp_files/35839.got.cif
#   From: 2010.03.12/outbox.cif.g09.slc.cpg/sg72_18_cif.got.tgz:35839.got - 2010.04.16 14:54:00.
