data_PCOD8295253
_publ_section_title
;
Structure prediction by ZEFSAII (Michael W. Deem and Ramdas Pophale) SiO2 
 PCOD8295253
Probable space group: I B A M
;
_chemical_formula_sum "Si O2"
_cell_formula_units_Z 96
_cell_length_a 17.045697
_cell_length_b 10.170700
_cell_length_c 26.789560
_cell_angle_alpha 90.000000
_cell_angle_beta 90.000000
_cell_angle_gamma 90.000000
_cell_volume 4644.416821
_symmetry_space_group_name_H-M "I B A M"
_symmetry_group_IT_number 72
_symmetry_cell_setting 'orthorhombic'
loop_
_space_group_symop_operation_xyz
x,y,z
-x,-y,z
x,-y,1/2-z
-x,y,1/2-z
-x,-y,-z
x,y,-z
-x,y,1/2+z
x,-y,1/2+z
1/2+x,1/2+y,1/2+z
1/2-x,1/2-y,1/2+z
1/2+x,1/2-y,-z
1/2-x,1/2+y,-z
1/2-x,1/2-y,1/2-z
1/2+x,1/2+y,1/2-z
1/2-x,1/2+y,z
1/2+x,1/2-y,z
loop_
_atom_site_type_symbol
_atom_site_label
_atom_site_fract_x
_atom_site_fract_y
_atom_site_fract_z
Si Si1 0.589931 0.353603 0.256687
Si Si2 0.491482 0.790616 0.557186
Si Si3 0.212647 0.735853 0.696245
Si Si4 0.570466 0.594056 0.137590
Si Si5 0.237461 0.009303 0.864429
Si Si6 0.371014 0.025009 0.556823
O O1 0.626724 0.500000 0.250000
O O2 0.500000 0.350552 0.250000
O O3 0.622178 0.259489 0.212558
O O4 0.603119 0.316589 0.315666
O O5 0.496170 0.741518 0.500000
O O6 0.468200 0.671305 0.592295
O O7 0.576332 0.849300 0.573702
O O8 0.424409 0.898010 0.562912
O O9 0.250000 0.750000 0.750000
O O10 0.228315 0.590661 0.676633
O O11 0.243964 0.843194 0.656794
O O12 0.500000 0.500000 0.157923
O O13 0.647522 0.516186 0.118602
O O14 0.291778 0.992274 0.912558
O O15 0.344606 0.044254 0.500000
#
# Coordination Sequence:
#
# PCOD8295253 Si02
#       6
#    16  16  16  16  16  16
#     4  11  20  38  59  87 124 174 210 252 312 376
#     4   9  21  44  66  89 124 166 204 263 330 387
#     4  12  23  42  60  91 133 168 212 257 316 376
#     4  12  23  38  64  91 129 165 215 255 321 384
#     4  12  25  39  67  98 124 174 214 267 321 378
#     4   9  21  43  68  91 123 162 210 263 325 384
#
# _framework density 20.669979999999999
#
# number of rings (size 3 to 8) (size 9 to 14) (size 15 to 20)
#    0.000    1.167    5.000    2.500    4.667    1.000 
#    0.000    0.833    0.000    1.000    0.000    0.000 
#    0.000    0.000    0.000    0.000    0.000    0.000 
#
# Total GULP energy -594764.494518 kJ/mol
# GULP energy per Si atom -12390.926969 kJ/mol
# Density = 2.062293 g / cm^3
# Si number density = 20.669980 Si / 1000 Ang^3
#
#
#
# Elastic Constant Matrix: (Units=GPa)
#
#
# Indices 1 2 3 4 5 6 
#
# 1 108.0280 17.2541 47.7931 0.0000 0.0000 0.0000
# 2 17.2541 46.3612 18.6309 0.0000 0.0000 0.0000
# 3 47.7931 18.6309 101.0700 0.0000 0.0000 0.0000
# 4 0.0000 0.0000 0.0000 36.2930 0.0000 0.0000
# 5 0.0000 0.0000 0.0000 0.0000 43.1795 0.0000
# 6 0.0000 0.0000 0.0000 0.0000 0.0000 3.6435
#
#
#
# Elastic Compliance Matrix: (Units=1/GPa)
#
#
# Indices 1 2 3 4 5 6 
#
# 1 0.011938 -0.002348 -0.005212 0.000000 0.000000 0.000000
# 2 -0.002348 0.023757 -0.003269 0.000000 0.000000 0.000000
# 3 -0.005212 -0.003269 0.012961 0.000000 0.000000 0.000000
# 4 0.000000 0.000000 0.000000 0.027554 0.000000 0.000000
# 5 0.000000 0.000000 0.000000 0.000000 0.023159 0.000000
# 6 0.000000 0.000000 0.000000 0.000000 0.000000 0.274459
#
#
# Mechanical properties :
#
#
# Convention : Reuss Voigt Hill
#
# Bulk Modulus (GPa) = 37.03997 46.97948 42.00972
# Shear Modulus (GPa) = 12.36136 28.07528 20.21832
#
# Velocity S-wave (km/s) = 2.44813 3.68946 3.13093
# Velocity P-wave (km/s) = 5.09408 6.39744 5.78260
#
# Compressibility (1/GPa) = 0.02699786
#
# Stress axis : x y z
#
# Youngs Moduli (GPa) = 83.76696 42.09221 77.15206
#
# Poissons Ratio (x) = 0.09884 0.40213
# Poissons Ratio (y) = 0.19671 0.25220
# Poissons Ratio (z) = 0.43661 0.13760
#
# Static dielectric constant tensor:
#      x y z
#    x 4.182820 0.000000 0.000000 
#    y 0.000000 5.276530 0.000000 
#    z 0.000000 0.000000 3.594290 
# 
# 
# High freq. dielectric constant tensor:
#      x y z
#    x 1.825970 0.000000 0.000000 
#    y 0.000000 1.783010 0.000000 
#    z 0.000000 0.000000 1.817220 
# 
# From -- ./inp_files/44789.got.cif
#   From: 2010.03.12/outbox.cif.g09.slc.cpg/sg72_23_cif.got.tgz:44789.got - 2010.04.16 14:54:00.
