data_PCOD8295429
_publ_section_title
;
Structure prediction by ZEFSAII (Michael W. Deem and Ramdas Pophale) SiO2 
 PCOD8295429
Probable space group: I B A M
;
_chemical_formula_sum "Si O2"
_cell_formula_units_Z 80
_cell_length_a 24.160186
_cell_length_b 8.521522
_cell_length_c 17.419288
_cell_angle_alpha 90.000000
_cell_angle_beta 90.000000
_cell_angle_gamma 90.000000
_cell_volume 3586.310127
_symmetry_space_group_name_H-M "I B A M"
_symmetry_group_IT_number 72
_symmetry_cell_setting 'orthorhombic'
loop_
_space_group_symop_operation_xyz
x,y,z
-x,-y,z
x,-y,1/2-z
-x,y,1/2-z
-x,-y,-z
x,y,-z
-x,y,1/2+z
x,-y,1/2+z
1/2+x,1/2+y,1/2+z
1/2-x,1/2-y,1/2+z
1/2+x,1/2-y,-z
1/2-x,1/2+y,-z
1/2-x,1/2-y,1/2-z
1/2+x,1/2+y,1/2-z
1/2-x,1/2+y,z
1/2+x,1/2-y,z
loop_
_atom_site_type_symbol
_atom_site_label
_atom_site_fract_x
_atom_site_fract_y
_atom_site_fract_z
Si Si1 0.608115 0.306849 0.912341
Si Si2 0.790652 0.576270 0.088485
Si Si3 0.999366 0.672963 0.839446
Si Si4 0.208622 0.261034 0.321461
Si Si5 0.903061 0.100277 0.177648
O O1 0.661750 0.203091 0.896200
O O2 0.557330 0.253757 0.860965
O O3 0.619675 0.486478 0.889225
O O4 0.589893 0.296814 0.000000
O O5 0.800591 0.435656 0.147461
O O6 0.732396 0.657409 0.108515
O O7 0.789592 0.519043 0.000000
O O8 0.051093 0.785280 0.860740
O O9 0.000000 0.500000 0.879677
O O10 0.000000 0.646917 0.750000
O O11 0.250000 0.250000 0.250000
O O12 0.149207 0.200341 0.292775
O O13 0.926891 0.000000 0.250000
#
# Coordination Sequence:
#
# PCOD8295429 Si02
#       5
#    16  16  16  16  16
#     4  11  25  44  69 101 135 177 229 281 339 415
#     4  11  24  44  67  97 139 184 228 281 350 413
#     4  11  24  43  69  97 133 180 222 274 341 411
#     4  12  25  42  68 100 136 177 236 289 338 411
#     4  12  24  42  67  98 134 177 226 282 349 403
#
# _framework density 22.307048999999999
#
# number of rings (size 3 to 8) (size 9 to 14) (size 15 to 20)
#    0.000    0.600    2.000    6.600    0.000    5.200 
#    0.000    0.000    0.000    0.000    0.000    0.000 
#    0.000    0.000    0.000    0.000    0.000    0.000 
#
# Total GULP energy -496084.256372 kJ/mol
# GULP energy per Si atom -12402.106409 kJ/mol
# Density = 2.225628 g / cm^3
# Si number density = 22.307049 Si / 1000 Ang^3
#
#
#
# Elastic Constant Matrix: (Units=GPa)
#
#
# Indices 1 2 3 4 5 6 
#
# 1 88.4849 27.5558 6.7855 0.0000 0.0000 0.0000
# 2 27.5558 145.4376 32.5956 0.0000 0.0000 0.0000
# 3 6.7855 32.5956 76.4863 0.0000 0.0000 0.0000
# 4 0.0000 0.0000 0.0000 31.8282 0.0000 0.0000
# 5 0.0000 0.0000 0.0000 0.0000 29.1717 0.0000
# 6 0.0000 0.0000 0.0000 0.0000 0.0000 49.6154
#
#
#
# Elastic Compliance Matrix: (Units=1/GPa)
#
#
# Indices 1 2 3 4 5 6 
#
# 1 0.012011 -0.002252 -0.000106 0.000000 0.000000 0.000000
# 2 -0.002252 0.008024 -0.003220 0.000000 0.000000 0.000000
# 3 -0.000106 -0.003220 0.014456 0.000000 0.000000 0.000000
# 4 0.000000 0.000000 0.000000 0.031419 0.000000 0.000000
# 5 0.000000 0.000000 0.000000 0.000000 0.034280 0.000000
# 6 0.000000 0.000000 0.000000 0.000000 0.000000 0.020155
#
#
# Mechanical properties :
#
#
# Convention : Reuss Voigt Hill
#
# Bulk Modulus (GPa) = 42.85317 49.36474 46.10896
# Shear Modulus (GPa) = 35.89946 38.35451 37.12698
#
# Velocity S-wave (km/s) = 4.01600 4.15105 4.08408
# Velocity P-wave (km/s) = 6.38409 6.71957 6.55398
#
# Compressibility (1/GPa) = 0.02333549
#
# Stress axis : x y z
#
# Youngs Moduli (GPa) = 83.25853 124.62470 69.17651
#
# Poissons Ratio (x) = 0.28065 0.00732
# Poissons Ratio (y) = 0.18749 0.22273
# Poissons Ratio (z) = 0.00881 0.40126
#
# Static dielectric constant tensor:
#      x y z
#    x 4.007740 0.000000 0.000000 
#    y 0.000000 4.553980 0.000000 
#    z 0.000000 0.000000 3.906180 
# 
# 
# High freq. dielectric constant tensor:
#      x y z
#    x 1.884280 0.000000 0.000000 
#    y 0.000000 1.898180 0.000000 
#    z 0.000000 0.000000 1.870420 
# 
# From -- ./inp_files/33782.got.cif
#   From: 2010.03.12/outbox.cif.g09.slc.cpg/sg72_17_cif.got.tgz:33782.got - 2010.04.16 14:54:00.
