data_PCOD8295970
_publ_section_title
;
Structure prediction by ZEFSAII (Michael W. Deem and Ramdas Pophale) SiO2 
 PCOD8295970
Probable space group: I B C A 
;
_chemical_formula_sum "Si O2"
_cell_formula_units_Z 64
_cell_length_a 18.306602
_cell_length_b 11.818999
_cell_length_c 13.363396
_cell_angle_alpha 90.000000
_cell_angle_beta 90.000000
_cell_angle_gamma 90.000000
_cell_volume 2891.380673
_symmetry_space_group_name_H-M "I B C A "
_symmetry_group_IT_number 73
_symmetry_cell_setting 'orthorhombic'
loop_
_space_group_symop_operation_xyz
x,y,z
-x,1/2-y,z
x,-y,1/2-z
1/2-x,y,-z
-x,-y,-z
x,1/2+y,-z
-x,y,1/2+z
1/2+x,-y,z
1/2+x,1/2+y,1/2+z
1/2-x,-y,1/2+z
1/2+x,1/2-y,-z
-x,1/2+y,1/2-z
1/2-x,1/2-y,1/2-z
1/2+x,y,1/2-z
1/2-x,1/2+y,z
x,1/2-y,1/2+z
loop_
_atom_site_type_symbol
_atom_site_label
_atom_site_fract_x
_atom_site_fract_y
_atom_site_fract_z
Si Si1 0.453063 0.052186 0.643596
Si Si2 0.391889 0.044368 0.052463
Si Si3 0.794646 0.605006 0.821084
Si Si4 0.156005 0.256477 0.852010
O O1 0.539262 0.059205 0.626305
O O2 0.420343 0.177791 0.639579
O O3 0.434568 0.000000 0.750000
O O4 0.415873 0.970624 0.561402
O O5 0.343526 0.158348 0.063104
O O6 0.346477 0.935050 0.088519
O O7 0.772729 0.500000 0.750000
O O8 0.722101 0.656543 0.870851
O O9 0.836991 0.700399 0.757752
#
# Coordination Sequence:
#
# PCOD8295970 Si02
#       4
#    16  16  16  16
#     4  11  23  40  62  91 125 160 203 251 304 367
#     4  10  23  41  62  91 124 159 203 254 304 363
#     4   9  19  39  64  94 126 157 201 254 304 359
#     4  10  20  38  65  90 122 163 201 247 308 362
#
# _framework density 22.134754000000001
#
# number of rings (size 3 to 8) (size 9 to 14) (size 15 to 20)
#    0.000    2.000    0.000    3.750    0.000    3.000 
#    0.000   12.500    0.000    0.000    0.000    0.000 
#    0.000    0.000    0.000    0.000    0.000    0.000 
#
# Total GULP energy -396952.290737 kJ/mol
# GULP energy per Si atom -12404.759086 kJ/mol
# Density = 2.208437 g / cm^3
# Si number density = 22.134754 Si / 1000 Ang^3
#
#
#
# Elastic Constant Matrix: (Units=GPa)
#
#
# Indices 1 2 3 4 5 6 
#
# 1 124.8421 61.3248 39.6568 0.0000 0.0000 0.0000
# 2 61.3248 107.1756 29.1279 0.0000 0.0000 0.0000
# 3 39.6568 29.1279 101.8457 0.0000 0.0000 0.0000
# 4 0.0000 0.0000 0.0000 17.8271 0.0000 0.0000
# 5 0.0000 0.0000 0.0000 0.0000 30.6613 0.0000
# 6 0.0000 0.0000 0.0000 0.0000 0.0000 44.2193
#
#
#
# Elastic Compliance Matrix: (Units=1/GPa)
#
#
# Indices 1 2 3 4 5 6 
#
# 1 0.011887 -0.006011 -0.002909 0.000000 0.000000 0.000000
# 2 -0.006011 0.013156 -0.001422 0.000000 0.000000 0.000000
# 3 -0.002909 -0.001422 0.011358 0.000000 0.000000 0.000000
# 4 0.000000 0.000000 0.000000 0.056095 0.000000 0.000000
# 5 0.000000 0.000000 0.000000 0.000000 0.032614 0.000000
# 6 0.000000 0.000000 0.000000 0.000000 0.000000 0.022615
#
#
# Mechanical properties :
#
#
# Convention : Reuss Voigt Hill
#
# Bulk Modulus (GPa) = 63.62663 66.00914 64.81789
# Shear Modulus (GPa) = 28.79368 32.12513 30.45940
#
# Velocity S-wave (km/s) = 3.61062 3.81378 3.71359
# Velocity P-wave (km/s) = 6.79630 7.01993 6.90902
#
# Compressibility (1/GPa) = 0.01571669
#
# Stress axis : x y z
#
# Youngs Moduli (GPa) = 84.12568 76.00880 88.04052
#
# Poissons Ratio (x) = 0.45688 0.25615
# Poissons Ratio (y) = 0.50567 0.12521
# Poissons Ratio (z) = 0.24476 0.10810
#
# Static dielectric constant tensor:
#      x y z
#    x 4.026690 0.000000 0.000000 
#    y 0.000000 4.113680 0.000000 
#    z 0.000000 0.000000 3.740860 
# 
# 
# High freq. dielectric constant tensor:
#      x y z
#    x 1.875610 0.000000 0.000000 
#    y 0.000000 1.879370 0.000000 
#    z 0.000000 0.000000 1.860060 
# 
# From -- ./inp_files/9424.got.cif
#   From: 2010.03.12/outbox.cif.g09.slc.cpg/sg73_5_cif.got.tgz:9424.got - 2010.04.16 15:25:48.
