data_PCOD8295130
_publ_section_title
;
Structure prediction by ZEFSAII (Michael W. Deem and Ramdas Pophale) SiO2 
 PCOD8295130
Probable space group: I B A M
;
_chemical_formula_sum "Si O2"
_cell_formula_units_Z 48
_cell_length_a 5.712796
_cell_length_b 27.022307
_cell_length_c 13.720706
_cell_angle_alpha 90.000000
_cell_angle_beta 90.000000
_cell_angle_gamma 90.000000
_cell_volume 2118.105550
_symmetry_space_group_name_H-M "I B A M"
_symmetry_group_IT_number 72
_symmetry_cell_setting 'orthorhombic'
loop_
_space_group_symop_operation_xyz
x,y,z
-x,-y,z
x,-y,1/2-z
-x,y,1/2-z
-x,-y,-z
x,y,-z
-x,y,1/2+z
x,-y,1/2+z
1/2+x,1/2+y,1/2+z
1/2-x,1/2-y,1/2+z
1/2+x,1/2-y,-z
1/2-x,1/2+y,-z
1/2-x,1/2-y,1/2-z
1/2+x,1/2+y,1/2-z
1/2-x,1/2+y,z
1/2+x,1/2-y,z
loop_
_atom_site_type_symbol
_atom_site_label
_atom_site_fract_x
_atom_site_fract_y
_atom_site_fract_z
Si Si1 0.500000 0.778745 0.250000
Si Si2 0.347010 0.046432 0.108042
Si Si3 0.000000 0.094129 0.750000
Si Si4 0.844894 0.356729 0.608551
O O1 0.250000 0.750000 0.250000
O O2 0.501205 0.812624 0.153007
O O3 0.149471 0.055711 0.187173
O O4 0.505825 0.094221 0.103817
O O5 0.500000 0.000000 0.142808
O O6 0.239437 0.036301 0.000000
O O7 0.127444 0.132347 0.678382
O O8 0.758942 0.341766 0.500000
#
# Coordination Sequence:
#
# PCOD8295130 Si02
#       4
#     8  16   8  16
#     4  12  27  50  76 110 147 193 258 321 386 458
#     4  10  23  42  68 106 146 190 244 302 373 457
#     4  12  21  43  71 104 146 207 248 309 375 456
#     4  11  25  45  70 107 149 192 248 314 382 456
#
# _framework density 22.661760999999998
#
# number of rings (size 3 to 8) (size 9 to 14) (size 15 to 20)
#    0.000    1.000    3.333    2.000    0.000    6.667 
#    0.000    5.000    0.000    3.000    0.000    0.000 
#    0.000    0.000    0.000    0.000    0.000    0.000 
#
# Total GULP energy -297518.890552 kJ/mol
# GULP energy per Si atom -12396.620440 kJ/mol
# Density = 2.261018 g / cm^3
# Si number density = 22.661761 Si / 1000 Ang^3
#
#
#
# Elastic Constant Matrix: (Units=GPa)
#
#
# Indices 1 2 3 4 5 6 
#
# 1 133.6299 59.8250 91.3073 0.0000 0.0000 0.0000
# 2 59.8250 134.2526 63.8941 0.0000 0.0002 0.0000
# 3 91.3073 63.8941 211.6890 0.0000 0.0003 0.0000
# 4 0.0000 0.0000 0.0000 52.5158 0.0002 0.0000
# 5 0.0000 0.0002 0.0003 0.0002 -610.2452 0.0001
# 6 0.0000 0.0000 0.0000 0.0000 0.0001 36.6770
#
#
#
# Elastic Compliance Matrix: (Units=1/GPa)
#
#
# Indices 1 2 3 4 5 6 
#
# 1 0.011738 -0.003294 -0.004069 0.000000 0.000000 0.000000
# 2 -0.003294 0.009623 -0.001483 0.000000 0.000000 0.000000
# 3 -0.004069 -0.001483 0.006927 0.000000 0.000000 0.000000
# 4 0.000000 0.000000 0.000000 0.019042 0.000000 0.000000
# 5 0.000000 0.000000 0.000000 0.000000 -0.001639 0.000000
# 6 0.000000 0.000000 0.000000 0.000000 0.000000 0.027265
#
#
# Mechanical properties :
#
#
# Convention : Reuss Voigt Hill
#
# Bulk Modulus (GPa) = 94.38849 101.06935 97.72892
# Shear Modulus (GPa) = 53.08959 -86.57413 -16.74227
#
# Velocity S-wave (km/s) = 4.84539 -6.18754 -2.72102
# Velocity P-wave (km/s) = 8.54665 2.52025 5.77466
#
# Compressibility (1/GPa) = 0.01059451
#
# Stress axis : x y z
#
# Youngs Moduli (GPa) = 85.19117 103.92119 144.37074
#
# Poissons Ratio (x) = 0.34235 0.58740
# Poissons Ratio (y) = 0.28065 0.21417
# Poissons Ratio (z) = 0.34662 0.15416
#
# Static dielectric constant tensor:
#      x y z
#    x 4.035520 0.000000 0.000000 
#    y 0.000000 4.077640 0.000000 
#    z 0.000000 0.000000 5.815050 
# 
# 
# High freq. dielectric constant tensor:
#      x y z
#    x 1.885870 0.000000 0.000000 
#    y 0.000000 1.899020 0.000000 
#    z 0.000000 0.000000 1.918120 
# 
# From -- ./inp_files/17437.got.cif
#   From: 2010.03.12/outbox.cif.g09.slc.cpg/sg72_9_cif.got.tgz:17437.got - 2010.04.16 14:54:00.
