data_PCOD8295201
_publ_section_title
;
Structure prediction by ZEFSAII (Michael W. Deem and Ramdas Pophale) SiO2 
 PCOD8295201
Probable space group: I B A M
;
_chemical_formula_sum "Si O2"
_cell_formula_units_Z 96
_cell_length_a 11.805125
_cell_length_b 22.741292
_cell_length_c 17.587172
_cell_angle_alpha 90.000000
_cell_angle_beta 90.000000
_cell_angle_gamma 90.000000
_cell_volume 4721.518934
_symmetry_space_group_name_H-M "I B A M"
_symmetry_group_IT_number 72
_symmetry_cell_setting 'orthorhombic'
loop_
_space_group_symop_operation_xyz
x,y,z
-x,-y,z
x,-y,1/2-z
-x,y,1/2-z
-x,-y,-z
x,y,-z
-x,y,1/2+z
x,-y,1/2+z
1/2+x,1/2+y,1/2+z
1/2-x,1/2-y,1/2+z
1/2+x,1/2-y,-z
1/2-x,1/2+y,-z
1/2-x,1/2-y,1/2-z
1/2+x,1/2+y,1/2-z
1/2-x,1/2+y,z
1/2+x,1/2-y,z
loop_
_atom_site_type_symbol
_atom_site_label
_atom_site_fract_x
_atom_site_fract_y
_atom_site_fract_z
Si Si1 0.996803 0.874296 0.663573
Si Si2 0.161255 0.213839 0.412404
Si Si3 0.650720 0.148697 0.180063
Si Si4 0.699834 0.536365 0.172909
Si Si5 0.603717 0.161117 0.353116
Si Si6 0.283591 0.422563 0.412548
O O1 0.950953 0.821616 0.611756
O O2 0.918682 0.931738 0.656646
O O3 0.000000 0.851224 0.750000
O O4 0.122516 0.890511 0.638577
O O5 0.188118 0.200852 0.500000
O O6 0.268125 0.193730 0.363087
O O7 0.139306 0.282293 0.401033
O O8 0.697930 0.082492 0.177567
O O9 0.641450 0.170353 0.266386
O O10 0.529600 0.149366 0.139468
O O11 0.690960 0.500000 0.250000
O O12 0.722499 0.492060 0.103649
O O13 0.663184 0.104989 0.390873
O O14 0.313834 0.412679 0.500000
#
# Coordination Sequence:
#
# PCOD8295201 Si02
#       6
#    16  16  16  16  16  16
#     4  11  23  40  69  98 129 173 218 269 322 389
#     4  11  25  42  65  96 136 171 212 272 332 390
#     4  10  24  44  71  92 127 175 226 267 320 392
#     4  11  21  43  67  96 131 171 217 267 325 378
#     4  11  24  44  67  99 125 176 222 269 322 391
#     4  12  25  40  65 101 137 169 214 269 332 392
#
# _framework density 20.332439000000001
#
# number of rings (size 3 to 8) (size 9 to 14) (size 15 to 20)
#    0.000    1.000    3.333    3.000    4.667    6.000 
#    0.000    0.833    0.000    0.000    0.000    0.000 
#    0.000    0.000    0.000    0.000    0.000    0.000 
#
# Total GULP energy -595565.955867 kJ/mol
# GULP energy per Si atom -12407.624081 kJ/mol
# Density = 2.028616 g / cm^3
# Si number density = 20.332439 Si / 1000 Ang^3
#
#
#
# Elastic Constant Matrix: (Units=GPa)
#
#
# Indices 1 2 3 4 5 6 
#
# 1 85.8618 31.3085 2.4681 0.0000 0.0000 0.0000
# 2 31.3085 71.2039 9.7352 0.0000 0.0000 0.0000
# 3 2.4681 9.7352 83.6598 0.0000 0.0000 0.0000
# 4 0.0000 0.0000 0.0000 28.4010 0.0000 0.0000
# 5 0.0000 0.0000 0.0000 0.0000 12.9528 0.0000
# 6 0.0000 0.0000 0.0000 0.0000 0.0000 19.2118
#
#
#
# Elastic Compliance Matrix: (Units=1/GPa)
#
#
# Indices 1 2 3 4 5 6 
#
# 1 0.013878 -0.006144 0.000306 0.000000 0.000000 0.000000
# 2 -0.006144 0.016991 -0.001796 0.000000 0.000000 0.000000
# 3 0.000306 -0.001796 0.012153 0.000000 0.000000 0.000000
# 4 0.000000 0.000000 0.000000 0.035210 0.000000 0.000000
# 5 0.000000 0.000000 0.000000 0.000000 0.077203 0.000000
# 6 0.000000 0.000000 0.000000 0.000000 0.000000 0.052051
#
#
# Mechanical properties :
#
#
# Convention : Reuss Voigt Hill
#
# Bulk Modulus (GPa) = 36.03126 36.41656 36.22391
# Shear Modulus (GPa) = 21.55103 25.26071 23.40587
#
# Velocity S-wave (km/s) = 3.25919 3.52857 3.39655
# Velocity P-wave (km/s) = 5.65001 5.87797 5.76512
#
# Compressibility (1/GPa) = 0.02775368
#
# Stress axis : x y z
#
# Youngs Moduli (GPa) = 72.05545 58.85367 82.28317
#
# Poissons Ratio (x) = 0.36160 -0.02514
# Poissons Ratio (y) = 0.44271 0.14778
# Poissons Ratio (z) = -0.02202 0.10570
#
# Static dielectric constant tensor:
#      x y z
#    x 3.809770 0.000000 0.000000 
#    y 0.000000 3.887250 0.000000 
#    z 0.000000 0.000000 3.704740 
# 
# 
# High freq. dielectric constant tensor:
#      x y z
#    x 1.801120 0.000000 0.000000 
#    y 0.000000 1.800890 0.000000 
#    z 0.000000 0.000000 1.797760 
# 
# From -- ./inp_files/29422.got.cif
#   From: 2010.03.12/outbox.cif.g09.slc.cpg/sg72_15_cif.got.tgz:29422.got - 2010.04.16 14:54:00.
