data_PCOD8295475
_publ_section_title
;
Structure prediction by ZEFSAII (Michael W. Deem and Ramdas Pophale) SiO2 
 PCOD8295475
Probable space group: I B A M
;
_chemical_formula_sum "Si O2"
_cell_formula_units_Z 40
_cell_length_a 13.066699
_cell_length_b 8.755044
_cell_length_c 14.671885
_cell_angle_alpha 90.000000
_cell_angle_beta 90.000000
_cell_angle_gamma 90.000000
_cell_volume 1678.456670
_symmetry_space_group_name_H-M "I B A M"
_symmetry_group_IT_number 72
_symmetry_cell_setting 'orthorhombic'
loop_
_space_group_symop_operation_xyz
x,y,z
-x,-y,z
x,-y,1/2-z
-x,y,1/2-z
-x,-y,-z
x,y,-z
-x,y,1/2+z
x,-y,1/2+z
1/2+x,1/2+y,1/2+z
1/2-x,1/2-y,1/2+z
1/2+x,1/2-y,-z
1/2-x,1/2+y,-z
1/2-x,1/2-y,1/2-z
1/2+x,1/2+y,1/2-z
1/2-x,1/2+y,z
1/2+x,1/2-y,z
loop_
_atom_site_type_symbol
_atom_site_label
_atom_site_fract_x
_atom_site_fract_y
_atom_site_fract_z
Si Si1 0.000000 0.500000 0.250000
Si Si2 0.000000 0.000000 0.250000
Si Si3 0.357291 0.965743 0.399819
Si Si4 0.325111 0.703603 0.168358
O O1 0.928538 0.395731 0.182663
O O2 0.073522 0.108443 0.191007
O O3 0.403098 0.928370 0.500000
O O4 0.242420 0.904147 0.396864
O O5 0.360388 0.147308 0.385503
O O6 0.250000 0.750000 0.250000
#
# Coordination Sequence:
#
# PCOD8295475 Si02
#       4
#     4   4  16  16
#     4  12  22  44  68  98 146 188 240 306 366 436
#     4  12  24  44  84 102 142 210 240 292 392 442
#     4  12  26  45  72 106 145 194 248 304 369 442
#     4  12  23  47  73 104 150 193 244 308 369 438
#
# _framework density 23.831416999999998
#
# number of rings (size 3 to 8) (size 9 to 14) (size 15 to 20)
#    0.000    0.000    8.000    3.000    0.000    0.000 
#    0.000    4.000    0.000    0.000    0.000    0.000 
#    0.000    0.000    0.000    0.000    0.000    0.000 
#
# Total GULP energy -247790.371952 kJ/mol
# GULP energy per Si atom -12389.518598 kJ/mol
# Density = 2.377718 g / cm^3
# Si number density = 23.831417 Si / 1000 Ang^3
#
#
#
# Elastic Constant Matrix: (Units=GPa)
#
#
# Indices 1 2 3 4 5 6 
#
# 1 165.9491 42.5535 58.9623 0.0000 0.0000 0.0000
# 2 42.5535 107.6612 12.5019 0.0000 0.0000 0.0000
# 3 58.9623 12.5019 184.5339 0.0000 0.0000 0.0000
# 4 0.0000 0.0000 0.0000 19.4826 0.0000 0.0000
# 5 0.0000 0.0000 0.0000 0.0000 10.0552 0.0000
# 6 0.0000 0.0000 0.0000 0.0000 0.0000 53.6265
#
#
#
# Elastic Compliance Matrix: (Units=1/GPa)
#
#
# Indices 1 2 3 4 5 6 
#
# 1 0.007508 -0.002710 -0.002215 0.000000 0.000000 0.000000
# 2 -0.002710 0.010340 0.000165 0.000000 0.000000 0.000000
# 3 -0.002215 0.000165 0.006116 0.000000 0.000000 0.000000
# 4 0.000000 0.000000 0.000000 0.051328 0.000000 0.000000
# 5 0.000000 0.000000 0.000000 0.000000 0.099451 0.000000
# 6 0.000000 0.000000 0.000000 0.000000 0.000000 0.018648
#
#
# Mechanical properties :
#
#
# Convention : Reuss Voigt Hill
#
# Bulk Modulus (GPa) = 69.23413 76.24220 72.73817
# Shear Modulus (GPa) = 24.07019 39.57462 31.82241
#
# Velocity S-wave (km/s) = 3.18153 4.07948 3.65816
# Velocity P-wave (km/s) = 6.52770 7.36555 6.95924
#
# Compressibility (1/GPa) = 0.01444374
#
# Stress axis : x y z
#
# Youngs Moduli (GPa) = 133.19007 96.70749 163.51357
#
# Poissons Ratio (x) = 0.26211 0.36224
# Poissons Ratio (y) = 0.36099 -0.02705
# Poissons Ratio (z) = 0.29506 -0.01600
#
# Static dielectric constant tensor:
#      x y z
#    x 4.957750 0.000000 0.000000 
#    y 0.000000 4.534360 0.000000 
#    z 0.000000 0.000000 4.418780 
# 
# 
# High freq. dielectric constant tensor:
#      x y z
#    x 1.975470 0.000000 0.000000 
#    y 0.000000 1.933240 0.000000 
#    z 0.000000 0.000000 1.933090 
# 
# From -- ./inp_files/20899.got.cif
#   From: 2010.03.12/outbox.cif.g09.slc.cpg/sg72_11_cif.got.tgz:20899.got - 2010.04.16 14:54:00.
