data_PCOD8295155
_publ_section_title
;
Structure prediction by ZEFSAII (Michael W. Deem and Ramdas Pophale) SiO2 
 PCOD8295155
Probable space group: I B A M
;
_chemical_formula_sum "Si O2"
_cell_formula_units_Z 116
_cell_length_a 19.067983
_cell_length_b 10.902449
_cell_length_c 26.877012
_cell_angle_alpha 90.000000
_cell_angle_beta 90.000000
_cell_angle_gamma 90.000000
_cell_volume 5587.400535
_symmetry_space_group_name_H-M "I B A M"
_symmetry_group_IT_number 72
_symmetry_cell_setting 'orthorhombic'
loop_
_space_group_symop_operation_xyz
x,y,z
-x,-y,z
x,-y,1/2-z
-x,y,1/2-z
-x,-y,-z
x,y,-z
-x,y,1/2+z
x,-y,1/2+z
1/2+x,1/2+y,1/2+z
1/2-x,1/2-y,1/2+z
1/2+x,1/2-y,-z
1/2-x,1/2+y,-z
1/2-x,1/2-y,1/2-z
1/2+x,1/2+y,1/2-z
1/2-x,1/2+y,z
1/2+x,1/2-y,z
loop_
_atom_site_type_symbol
_atom_site_label
_atom_site_fract_x
_atom_site_fract_y
_atom_site_fract_z
Si Si1 0.500000 0.000000 0.750000
Si Si2 0.809565 0.337345 0.683191
Si Si3 0.679618 0.940286 0.120843
Si Si4 0.665965 0.395700 0.124504
Si Si5 0.344831 0.587617 0.703698
Si Si6 0.884666 0.342452 0.216785
Si Si7 0.454915 0.119057 0.941384
Si Si8 0.966000 0.869177 0.941397
O O1 0.542711 0.084996 0.711121
O O2 0.823807 0.414626 0.632538
O O3 0.829266 0.199365 0.669805
O O4 0.731185 0.349240 0.703635
O O5 0.858574 0.380957 0.728273
O O6 0.756800 0.907328 0.099331
O O7 0.671506 0.877787 0.174727
O O8 0.621639 0.892939 0.082695
O O9 0.642065 0.521827 0.150891
O O10 0.610504 0.358138 0.082835
O O11 0.353792 0.500000 0.750000
O O12 0.400382 0.697583 0.710839
O O13 0.488858 0.249479 0.924393
O O14 0.500000 0.000000 0.924900
O O15 0.443686 0.118758 0.000000
O O16 0.954578 0.864696 0.000000
O O17 0.000000 0.000000 0.925653
#
# Coordination Sequence:
#
# PCOD8295155 Si02
#       8
#     4  16  16  16  16  16  16  16
#     4  12  28  40  62  88 126 180 226 266 316 376
#     4  11  20  39  62  92 127 168 209 261 318 381
#     4  11  23  37  66  95 128 165 218 271 322 385
#     4  11  23  39  65  99 124 170 220 267 328 381
#     4  11  22  38  63  90 129 174 208 264 320 381
#     4  12  23  41  57  89 131 170 219 256 312 381
#     4  10  23  44  68  93 125 170 215 270 342 403
#     4  10  24  46  68  91 128 175 218 270 344 414
#
# _framework density 20.760997
#
# number of rings (size 3 to 8) (size 9 to 14) (size 15 to 20)
#    0.000    1.103    4.138    2.897    2.897    1.655 
#    0.000    0.345    0.000    5.793    0.000    0.000 
#    0.000    0.000    0.000    0.000    0.000    0.000 
#
# Total GULP energy -719074.638620 kJ/mol
# GULP energy per Si atom -12397.838597 kJ/mol
# Density = 2.071374 g / cm^3
# Si number density = 20.760997 Si / 1000 Ang^3
#
#
#
# Elastic Constant Matrix: (Units=GPa)
#
#
# Indices 1 2 3 4 5 6 
#
# 1 124.5531 61.2507 45.5870 0.0000 0.0000 0.0000
# 2 61.2507 145.1980 24.3802 0.0000 0.0000 0.0000
# 3 45.5870 24.3802 46.8832 0.0000 0.0000 0.0000
# 4 0.0000 0.0000 0.0000 23.2630 0.0000 0.0000
# 5 0.0000 0.0000 0.0000 0.0000 24.5892 0.0000
# 6 0.0000 0.0000 0.0000 0.0000 0.0000 33.4740
#
#
#
# Elastic Compliance Matrix: (Units=1/GPa)
#
#
# Indices 1 2 3 4 5 6 
#
# 1 0.014370 -0.004071 -0.011856 0.000000 0.000000 0.000000
# 2 -0.004071 0.008699 -0.000565 0.000000 0.000000 0.000000
# 3 -0.011856 -0.000565 0.033151 0.000000 0.000000 0.000000
# 4 0.000000 0.000000 0.000000 0.042987 0.000000 0.000000
# 5 0.000000 0.000000 0.000000 0.000000 0.040668 0.000000
# 6 0.000000 0.000000 0.000000 0.000000 0.000000 0.029874
#
#
# Mechanical properties :
#
#
# Convention : Reuss Voigt Hill
#
# Bulk Modulus (GPa) = 43.03532 64.34113 53.68822
# Shear Modulus (GPa) = 23.75530 28.62634 26.19082
#
# Velocity S-wave (km/s) = 3.38631 3.71732 3.55567
# Velocity P-wave (km/s) = 6.00528 7.03443 6.54013
#
# Compressibility (1/GPa) = 0.02323673
#
# Stress axis : x y z
#
# Youngs Moduli (GPa) = 69.58955 114.94968 30.16464
#
# Poissons Ratio (x) = 0.46798 0.35762
# Poissons Ratio (y) = 0.28331 0.01705
# Poissons Ratio (z) = 0.82503 0.06498
#
# Static dielectric constant tensor:
#      x y z
#    x 3.593840 0.000000 0.000000 
#    y 0.000000 4.275250 0.000000 
#    z 0.000000 0.000000 3.429840 
# 
# 
# High freq. dielectric constant tensor:
#      x y z
#    x 1.800290 0.000000 0.000000 
#    y 0.000000 1.840920 0.000000 
#    z 0.000000 0.000000 1.790130 
# 
# From -- ./inp_files/48206.got.cif
#   From: 2010.03.12/outbox.cif.g09.slc.cpg/sg72_25_cif.got.tgz:48206.got - 2010.04.16 14:54:00.
