data_PCOD8295094
_publ_section_title
;
Structure prediction by ZEFSAII (Michael W. Deem and Ramdas Pophale) SiO2 
 PCOD8295094
Probable space group: I B A M
;
_chemical_formula_sum "Si O2"
_cell_formula_units_Z 64
_cell_length_a 20.760273
_cell_length_b 9.654740
_cell_length_c 15.904155
_cell_angle_alpha 90.000000
_cell_angle_beta 90.000000
_cell_angle_gamma 90.000000
_cell_volume 3187.749914
_symmetry_space_group_name_H-M "I B A M"
_symmetry_group_IT_number 72
_symmetry_cell_setting 'orthorhombic'
loop_
_space_group_symop_operation_xyz
x,y,z
-x,-y,z
x,-y,1/2-z
-x,y,1/2-z
-x,-y,-z
x,y,-z
-x,y,1/2+z
x,-y,1/2+z
1/2+x,1/2+y,1/2+z
1/2-x,1/2-y,1/2+z
1/2+x,1/2-y,-z
1/2-x,1/2+y,-z
1/2-x,1/2-y,1/2-z
1/2+x,1/2+y,1/2-z
1/2-x,1/2+y,z
1/2+x,1/2-y,z
loop_
_atom_site_type_symbol
_atom_site_label
_atom_site_fract_x
_atom_site_fract_y
_atom_site_fract_z
Si Si1 0.389616 0.000000 0.250000
Si Si2 0.000000 0.695103 0.750000
Si Si3 0.775836 0.338973 0.672662
Si Si4 0.547037 0.626963 0.406037
Si Si5 0.691046 0.431985 0.906202
O O1 0.439764 0.109941 0.209557
O O2 0.344353 0.083480 0.314907
O O3 0.974680 0.775332 0.830909
O O4 0.750000 0.250000 0.750000
O O5 0.725042 0.459512 0.655100
O O6 0.782880 0.225964 0.599296
O O7 0.500000 0.500000 0.409866
O O8 0.548793 0.698260 0.500000
O O9 0.616457 0.566459 0.382128
O O10 0.703824 0.484543 0.000000
#
# Coordination Sequence:
#
# PCOD8295094 Si02
#       5
#     8   8  16  16  16
#     4  11  24  40  62  94 123 166 226 258 331 406
#     4  11  23  42  66  88 131 175 210 274 333 388
#     4  12  23  41  65  95 129 168 217 267 322 398
#     4  10  23  40  63  95 127 167 221 271 330 403
#     4  11  24  42  64  95 131 168 214 270 332 393
#
# _framework density 20.076857
#
# number of rings (size 3 to 8) (size 9 to 14) (size 15 to 20)
#    0.000    1.000    5.000    1.125    3.500    2.000 
#    0.000    5.000    0.000    0.000    0.000    0.000 
#    0.000    0.000    0.000    0.000    0.000    0.000 
#
# Total GULP energy -396454.836179 kJ/mol
# GULP energy per Si atom -12389.213631 kJ/mol
# Density = 2.003116 g / cm^3
# Si number density = 20.076857 Si / 1000 Ang^3
#
#
#
# Elastic Constant Matrix: (Units=GPa)
#
#
# Indices 1 2 3 4 5 6 
#
# 1 163.7006 75.7501 67.1766 0.0000 0.0000 0.0000
# 2 75.7501 131.9727 60.6226 0.0000 0.0000 0.0000
# 3 67.1766 60.6226 107.6589 0.0000 0.0000 0.0000
# 4 0.0000 0.0000 0.0000 27.0570 0.0000 0.0000
# 5 0.0000 0.0000 0.0000 0.0000 31.7146 0.0000
# 6 0.0000 0.0000 0.0000 0.0000 0.0000 23.6205
#
#
#
# Elastic Compliance Matrix: (Units=1/GPa)
#
#
# Indices 1 2 3 4 5 6 
#
# 1 0.009338 -0.003620 -0.003789 0.000000 0.000000 0.000000
# 2 -0.003620 0.011624 -0.004287 0.000000 0.000000 0.000000
# 3 -0.003789 -0.004287 0.014067 0.000000 0.000000 0.000000
# 4 0.000000 0.000000 0.000000 0.036959 0.000000 0.000000
# 5 0.000000 0.000000 0.000000 0.000000 0.031531 0.000000
# 6 0.000000 0.000000 0.000000 0.000000 0.000000 0.042336
#
#
# Mechanical properties :
#
#
# Convention : Reuss Voigt Hill
#
# Bulk Modulus (GPa) = 85.92159 90.04787 87.98473
# Shear Modulus (GPa) = 28.88073 29.79730 29.33902
#
# Velocity S-wave (km/s) = 3.79688 3.85666 3.82689
# Velocity P-wave (km/s) = 7.88105 8.04865 7.96529
#
# Compressibility (1/GPa) = 0.01163852
#
# Stress axis : x y z
#
# Youngs Moduli (GPa) = 107.08426 86.02710 71.09029
#
# Poissons Ratio (x) = 0.31140 0.26934
# Poissons Ratio (y) = 0.38762 0.30476
# Poissons Ratio (z) = 0.40571 0.36879
#
# Static dielectric constant tensor:
#      x y z
#    x 3.963430 0.000000 0.000000 
#    y 0.000000 3.844520 0.000000 
#    z 0.000000 0.000000 3.943140 
# 
# 
# High freq. dielectric constant tensor:
#      x y z
#    x 1.806820 0.000000 0.000000 
#    y 0.000000 1.791320 0.000000 
#    z 0.000000 0.000000 1.772040 
# 
# From -- ./inp_files/32240.got.cif
#   From: 2010.03.12/outbox.cif.g09.slc.cpg/sg72_17_cif.got.tgz:32240.got - 2010.04.16 14:54:00.
