data_PCOD8295996
_publ_section_title
;
Structure prediction by ZEFSAII (Michael W. Deem and Ramdas Pophale) SiO2 
 PCOD8295996
Probable space group: I B C A 
;
_chemical_formula_sum "Si O2"
_cell_formula_units_Z 72
_cell_length_a 14.226238
_cell_length_b 9.534768
_cell_length_c 24.572963
_cell_angle_alpha 90.000000
_cell_angle_beta 90.000000
_cell_angle_gamma 90.000000
_cell_volume 3333.172016
_symmetry_space_group_name_H-M "I B C A "
_symmetry_group_IT_number 73
_symmetry_cell_setting 'orthorhombic'
loop_
_space_group_symop_operation_xyz
x,y,z
-x,1/2-y,z
x,-y,1/2-z
1/2-x,y,-z
-x,-y,-z
x,1/2+y,-z
-x,y,1/2+z
1/2+x,-y,z
1/2+x,1/2+y,1/2+z
1/2-x,-y,1/2+z
1/2+x,1/2-y,-z
-x,1/2+y,1/2-z
1/2-x,1/2-y,1/2-z
1/2+x,y,1/2-z
1/2-x,1/2+y,z
x,1/2-y,1/2+z
loop_
_atom_site_type_symbol
_atom_site_label
_atom_site_fract_x
_atom_site_fract_y
_atom_site_fract_z
Si Si1 0.847026 0.660963 0.250000
Si Si2 0.250000 0.750000 0.000000
Si Si3 0.635927 0.500000 0.521490
Si Si4 0.000000 0.250000 0.836093
Si Si5 0.500000 0.750000 0.663907
Si Si6 0.049132 0.000000 0.589590
O O1 0.814452 0.500000 0.250000
O O2 0.750000 0.750000 0.250000
O O3 0.913394 0.688616 0.198241
O O4 0.913395 0.688616 0.301759
O O5 0.187961 0.645203 0.962141
O O6 0.312039 0.854797 0.962141
O O7 0.632670 0.500000 0.454684
O O8 0.540444 0.500000 0.551839
O O9 0.051182 0.134980 0.872649
O O10 0.448817 0.634980 0.627351
#
# Coordination Sequence:
#
# PCOD8295996 Si02
#       6
#    16   8  16   8   8  16
#     4  11  26  48  69  99 131 171 217 287 338 394
#     4  10  20  40  56  94 124 182 204 282 300 368
#     4  10  22  40  64  88 144 166 218 258 324 374
#     4  11  24  45  70  96 136 169 228 269 336 394
#     4  11  24  45  70  96 136 169 228 269 336 394
#     4  11  22  43  64  96 124 189 208 261 322 404
#
# _framework density 21.601044999999999
#
# number of rings (size 3 to 8) (size 9 to 14) (size 15 to 20)
#    0.000    1.333    2.222    2.667    3.111    3.556 
#   24.000    0.000    0.000    0.000    0.000    0.000 
#    0.000    0.000    0.000    0.000    0.000    0.000 
#
# Total GULP energy -446035.570931 kJ/mol
# GULP energy per Si atom -12389.876970 kJ/mol
# Density = 2.155188 g / cm^3
# Si number density = 21.601045 Si / 1000 Ang^3
#
#
#
# Elastic Constant Matrix: (Units=GPa)
#
#
# Indices 1 2 3 4 5 6 
#
# 1 98.5993 37.2918 22.6300 0.0000 0.0000 0.0000
# 2 37.2918 189.3536 43.1648 0.0000 0.0000 0.0000
# 3 22.6300 43.1648 106.0510 0.0000 0.0000 0.0000
# 4 0.0000 0.0000 0.0000 26.5231 0.0000 0.0000
# 5 0.0000 0.0000 0.0000 0.0000 -1.4524 0.0000
# 6 0.0000 0.0000 0.0000 0.0000 0.0000 30.2818
#
#
#
# Elastic Compliance Matrix: (Units=1/GPa)
#
#
# Indices 1 2 3 4 5 6 
#
# 1 0.011213 -0.001833 -0.001647 0.000000 0.000000 0.000000
# 2 -0.001833 0.006121 -0.002100 0.000000 0.000000 0.000000
# 3 -0.001647 -0.002100 0.010636 0.000000 0.000000 0.000000
# 4 0.000000 0.000000 0.000000 0.037703 0.000000 0.000000
# 5 0.000000 0.000000 0.000000 0.000000 -0.688498 0.000000
# 6 0.000000 0.000000 0.000000 0.000000 0.000000 0.033023
#
#
# Mechanical properties :
#
#
# Convention : Reuss Voigt Hill
#
# Bulk Modulus (GPa) = 59.48837 66.68635 63.08736
# Shear Modulus (GPa) = -8.72541 30.46497 10.86978
#
# Velocity S-wave (km/s) = -2.01199 3.75953 2.24566
# Velocity P-wave (km/s) = 4.71189 7.05580 5.99942
#
# Compressibility (1/GPa) = 0.01681001
#
# Stress axis : x y z
#
# Youngs Moduli (GPa) = 89.18002 163.37541 94.02367
#
# Poissons Ratio (x) = 0.29947 0.15483
# Poissons Ratio (y) = 0.16347 0.19747
# Poissons Ratio (z) = 0.14685 0.34312
#
# Static dielectric constant tensor:
#      x y z
#    x 4.104290 0.000000 0.000000 
#    y 0.000000 4.100140 0.000000 
#    z 0.000000 0.000000 4.279800 
# 
# 
# High freq. dielectric constant tensor:
#      x y z
#    x 1.859120 0.000000 0.000000 
#    y 0.000000 1.872320 0.000000 
#    z 0.000000 0.000000 1.834140 
# 
# From -- ./inp_files/19694.got.cif
#   From: 2010.03.12/outbox.cif.g09.slc.cpg/sg73_10_cif.got.tgz:19694.got - 2010.04.16 15:25:48.
