data_PCOD8295612
_publ_section_title
;
Structure prediction by ZEFSAII (Michael W. Deem and Ramdas Pophale) SiO2 
 PCOD8295612
Probable space group: I B C A 
;
_chemical_formula_sum "Si O2"
_cell_formula_units_Z 80
_cell_length_a 12.521215
_cell_length_b 14.392626
_cell_length_c 20.919108
_cell_angle_alpha 90.000000
_cell_angle_beta 90.000000
_cell_angle_gamma 90.000000
_cell_volume 3769.898652
_symmetry_space_group_name_H-M "I B C A "
_symmetry_group_IT_number 73
_symmetry_cell_setting 'orthorhombic'
loop_
_space_group_symop_operation_xyz
x,y,z
-x,1/2-y,z
x,-y,1/2-z
1/2-x,y,-z
-x,-y,-z
x,1/2+y,-z
-x,y,1/2+z
1/2+x,-y,z
1/2+x,1/2+y,1/2+z
1/2-x,-y,1/2+z
1/2+x,1/2-y,-z
-x,1/2+y,1/2-z
1/2-x,1/2-y,1/2-z
1/2+x,y,1/2-z
1/2-x,1/2+y,z
x,1/2-y,1/2+z
loop_
_atom_site_type_symbol
_atom_site_label
_atom_site_fract_x
_atom_site_fract_y
_atom_site_fract_z
Si Si1 0.288188 0.540873 0.682662
Si Si2 0.000000 0.250000 0.299140
Si Si3 0.250000 0.916279 0.500000
Si Si4 0.603742 0.485233 0.599050
Si Si5 0.104374 0.623476 0.106722
Si Si6 0.502955 0.649904 0.177870
O O1 0.252900 0.500000 0.750000
O O2 0.182858 0.573591 0.644740
O O3 0.340371 0.459046 0.643028
O O4 0.373015 0.623550 0.687524
O O5 0.092331 0.289001 0.345954
O O6 0.957452 0.332637 0.251107
O O7 0.336049 0.982350 0.535225
O O8 0.317920 0.850036 0.452405
O O9 0.509651 0.414268 0.580655
O O10 0.564517 0.575228 0.639202
O O11 0.500000 0.750000 0.141251
#
# Coordination Sequence:
#
# PCOD8295612 Si02
#       6
#    16   8   8  16  16  16
#     4  10  18  33  58  92 120 161 202 241 319 381
#     4  10  20  38  58  96 128 154 202 264 320 372
#     4  10  22  44  60  86 116 168 224 250 296 380
#     4  10  22  37  66  88 121 164 210 258 312 372
#     4  10  21  40  61  86 125 167 202 262 307 368
#     4   9  20  38  59  89 134 157 197 260 322 370
#
# _framework density 21.22073
#
# number of rings (size 3 to 8) (size 9 to 14) (size 15 to 20)
#    0.600    1.600    2.000    0.600    2.800    0.000 
#    9.000    7.000    0.000    0.000    0.000    0.000 
#    0.000    0.000    0.000    0.000    0.000    0.000 
#
# Total GULP energy -495569.111566 kJ/mol
# GULP energy per Si atom -12389.227789 kJ/mol
# Density = 2.117243 g / cm^3
# Si number density = 21.220730 Si / 1000 Ang^3
#
#
#
# Elastic Constant Matrix: (Units=GPa)
#
#
# Indices 1 2 3 4 5 6 
#
# 1 104.4466 25.6582 48.0105 0.0000 0.0000 0.0000
# 2 25.6582 67.5601 24.8708 0.0000 0.0000 0.0000
# 3 48.0105 24.8708 109.0800 0.0000 0.0000 0.0000
# 4 0.0000 0.0000 0.0000 24.6417 0.0000 0.0000
# 5 0.0000 0.0000 0.0000 0.0000 55.4899 0.0000
# 6 0.0000 0.0000 0.0000 0.0000 0.0000 5.0654
#
#
#
# Elastic Compliance Matrix: (Units=1/GPa)
#
#
# Indices 1 2 3 4 5 6 
#
# 1 0.012528 -0.002978 -0.004835 0.000000 0.000000 0.000000
# 2 -0.002978 0.016866 -0.002535 0.000000 0.000000 0.000000
# 3 -0.004835 -0.002535 0.011874 0.000000 0.000000 0.000000
# 4 0.000000 0.000000 0.000000 0.040582 0.000000 0.000000
# 5 0.000000 0.000000 0.000000 0.000000 0.018021 0.000000
# 6 0.000000 0.000000 0.000000 0.000000 0.000000 0.197419
#
#
# Mechanical properties :
#
#
# Convention : Reuss Voigt Hill
#
# Bulk Modulus (GPa) = 48.61023 53.12954 50.86989
# Shear Modulus (GPa) = 15.39204 29.20920 22.30062
#
# Velocity S-wave (km/s) = 2.69612 3.71407 3.24526
# Velocity P-wave (km/s) = 5.71391 6.59420 6.16977
#
# Compressibility (1/GPa) = 0.02057180
#
# Stress axis : x y z
#
# Youngs Moduli (GPa) = 79.81815 59.29167 84.21967
#
# Poissons Ratio (x) = 0.17658 0.40722
# Poissons Ratio (y) = 0.23771 0.21347
# Poissons Ratio (z) = 0.38594 0.15029
#
# Static dielectric constant tensor:
#      x y z
#    x 4.422500 0.000000 0.000000 
#    y 0.000000 3.505030 0.000000 
#    z 0.000000 0.000000 4.188220 
# 
# 
# High freq. dielectric constant tensor:
#      x y z
#    x 1.836670 0.000000 0.000000 
#    y 0.000000 1.802680 0.000000 
#    z 0.000000 0.000000 1.834290 
# 
# From -- ./inp_files/18530.got.cif
#   From: 2010.03.12/outbox.cif.g09.slc.cpg/sg73_10_cif.got.tgz:18530.got - 2010.04.16 15:25:48.
