data_PCOD8295283
_publ_section_title
;
Structure prediction by ZEFSAII (Michael W. Deem and Ramdas Pophale) SiO2 
 PCOD8295283
Probable space group: I B A M
;
_chemical_formula_sum "Si O2"
_cell_formula_units_Z 96
_cell_length_a 12.201851
_cell_length_b 18.380973
_cell_length_c 21.996060
_cell_angle_alpha 90.000000
_cell_angle_beta 90.000000
_cell_angle_gamma 90.000000
_cell_volume 4933.317993
_symmetry_space_group_name_H-M "I B A M"
_symmetry_group_IT_number 72
_symmetry_cell_setting 'orthorhombic'
loop_
_space_group_symop_operation_xyz
x,y,z
-x,-y,z
x,-y,1/2-z
-x,y,1/2-z
-x,-y,-z
x,y,-z
-x,y,1/2+z
x,-y,1/2+z
1/2+x,1/2+y,1/2+z
1/2-x,1/2-y,1/2+z
1/2+x,1/2-y,-z
1/2-x,1/2+y,-z
1/2-x,1/2-y,1/2-z
1/2+x,1/2+y,1/2-z
1/2-x,1/2+y,z
1/2+x,1/2-y,z
loop_
_atom_site_type_symbol
_atom_site_label
_atom_site_fract_x
_atom_site_fract_y
_atom_site_fract_z
Si Si1 0.577868 0.144286 0.883287
Si Si2 0.723262 0.032888 0.932221
Si Si3 0.128926 0.418516 0.242336
Si Si4 0.125394 0.803277 0.572441
Si Si5 0.458573 0.424178 0.071256
Si Si6 0.675910 0.116383 0.369575
O O1 0.623002 0.089494 0.934498
O O2 0.645687 0.119471 0.822765
O O3 0.607046 0.226733 0.896186
O O4 0.448160 0.136106 0.885628
O O5 0.830174 0.080304 0.912731
O O6 0.700049 0.967255 0.886459
O O7 0.741043 0.000201 0.000000
O O8 0.176231 0.500000 0.250000
O O9 0.187657 0.373055 0.296541
O O10 0.000000 0.420886 0.250000
O O11 0.124862 0.795102 0.500000
O O12 0.243653 0.831287 0.593884
O O13 0.029445 0.856873 0.597435
O O14 0.500000 0.500000 0.100013
O O15 0.481412 0.423965 0.000000
#
# Coordination Sequence:
#
# PCOD8295283 Si02
#       6
#    16  16  16  16  16  16
#     4  11  24  38  59  91 123 158 201 257 315 362
#     4  11  21  35  60  91 120 158 204 251 305 363
#     4   9  18  38  63  86 114 154 203 252 306 359
#     4  11  24  39  58  90 130 167 198 246 314 373
#     4   9  18  36  57  80 117 165 205 232 283 370
#     4  11  22  39  64  87 117 156 210 258 297 366
#
# _framework density 19.459520999999999
#
# number of rings (size 3 to 8) (size 9 to 14) (size 15 to 20)
#    0.000    1.667    3.333    1.500    2.333    4.000 
#    0.000    0.000    0.000    0.000    0.000    0.000 
#    0.000    0.000    0.000    0.000    0.000    0.000 
#
# Total GULP energy -594882.539297 kJ/mol
# GULP energy per Si atom -12393.386235 kJ/mol
# Density = 1.941523 g / cm^3
# Si number density = 19.459521 Si / 1000 Ang^3
#
#
#
# Elastic Constant Matrix: (Units=GPa)
#
#
# Indices 1 2 3 4 5 6 
#
# 1 110.9264 55.7600 40.8938 0.0000 0.0000 0.0000
# 2 55.7600 133.3224 54.3096 0.0000 0.0000 0.0000
# 3 40.8938 54.3096 80.0043 0.0000 0.0000 0.0000
# 4 0.0000 0.0000 0.0000 26.5987 0.0000 0.0000
# 5 0.0000 0.0000 0.0000 0.0000 -24.3286 0.0000
# 6 0.0000 0.0000 0.0000 0.0000 0.0000 23.5650
#
#
#
# Elastic Compliance Matrix: (Units=1/GPa)
#
#
# Indices 1 2 3 4 5 6 
#
# 1 0.012211 -0.003545 -0.003835 0.000000 0.000000 0.000000
# 2 -0.003545 0.011396 -0.005924 0.000000 0.000000 0.000000
# 3 -0.003835 -0.005924 0.018481 0.000000 0.000000 0.000000
# 4 0.000000 0.000000 0.000000 0.037596 0.000000 0.000000
# 5 0.000000 0.000000 0.000000 0.000000 -0.041104 0.000000
# 6 0.000000 0.000000 0.000000 0.000000 0.000000 0.042436
#
#
# Mechanical properties :
#
#
# Convention : Reuss Voigt Hill
#
# Bulk Modulus (GPa) = 64.59989 69.57555 67.08772
# Shear Modulus (GPa) = 44.33214 16.71965 30.52590
#
# Velocity S-wave (km/s) = 4.77820 2.93439 3.96496
# Velocity P-wave (km/s) = 7.98190 6.87841 7.45061
#
# Compressibility (1/GPa) = 0.01547990
#
# Stress axis : x y z
#
# Youngs Moduli (GPa) = 81.89562 87.74644 54.10841
#
# Poissons Ratio (x) = 0.31103 0.20752
# Poissons Ratio (y) = 0.29029 0.32056
# Poissons Ratio (z) = 0.31409 0.51985
#
# Static dielectric constant tensor:
#      x y z
#    x 3.665600 0.000000 0.000000 
#    y 0.000000 3.548090 0.000000 
#    z 0.000000 0.000000 3.637190 
# 
# 
# High freq. dielectric constant tensor:
#      x y z
#    x 1.756850 0.000000 0.000000 
#    y 0.000000 1.754920 0.000000 
#    z 0.000000 0.000000 1.743640 
# 
# From -- ./inp_files/43373.got.cif
#   From: 2010.03.12/outbox.cif.g09.slc.cpg/sg72_22_cif.got.tgz:43373.got - 2010.04.16 14:54:00.
