data_PCOD8295781
_publ_section_title
;
Structure prediction by ZEFSAII (Michael W. Deem and Ramdas Pophale) SiO2 
 PCOD8295781
Probable space group: I B C A 
;
_chemical_formula_sum "Si O2"
_cell_formula_units_Z 112
_cell_length_a 14.327692
_cell_length_b 27.025821
_cell_length_c 14.186716
_cell_angle_alpha 90.000000
_cell_angle_beta 90.000000
_cell_angle_gamma 90.000000
_cell_volume 5493.346679
_symmetry_space_group_name_H-M "I B C A "
_symmetry_group_IT_number 73
_symmetry_cell_setting 'orthorhombic'
loop_
_space_group_symop_operation_xyz
x,y,z
-x,1/2-y,z
x,-y,1/2-z
1/2-x,y,-z
-x,-y,-z
x,1/2+y,-z
-x,y,1/2+z
1/2+x,-y,z
1/2+x,1/2+y,1/2+z
1/2-x,-y,1/2+z
1/2+x,1/2-y,-z
-x,1/2+y,1/2-z
1/2-x,1/2-y,1/2-z
1/2+x,y,1/2-z
1/2-x,1/2+y,z
x,1/2-y,1/2+z
loop_
_atom_site_type_symbol
_atom_site_label
_atom_site_fract_x
_atom_site_fract_y
_atom_site_fract_z
Si Si1 0.148704 0.955678 0.514600
Si Si2 0.986770 0.805885 0.385623
Si Si3 0.001118 0.118223 0.954429
Si Si4 0.122141 0.560813 0.410459
Si Si5 0.602181 0.148507 0.223998
Si Si6 0.562604 0.547616 0.686320
Si Si7 0.720297 0.156179 0.893158
O O1 0.250000 0.932528 0.500000
O O2 0.099510 0.967164 0.416047
O O3 0.090780 0.914794 0.572030
O O4 0.158826 0.005456 0.575594
O O5 0.026786 0.841813 0.466064
O O6 0.877190 0.817050 0.366492
O O7 0.000000 0.750000 0.419916
O O8 0.053608 0.813405 0.295370
O O9 0.969417 0.145745 0.861820
O O10 0.919977 0.081942 0.991835
O O11 0.207800 0.596642 0.383939
O O12 0.046067 0.562287 0.326147
O O13 0.617141 0.094460 0.270663
O O14 0.700170 0.170190 0.183549
O O15 0.576143 0.500000 0.750000
O O16 0.750000 0.171179 0.000000
#
# Coordination Sequence:
#
# PCOD8295781 Si02
#       7
#    16  16  16  16  16  16  16
#     4  11  22  36  58  91 136 179 221 268 336 402
#     4  11  25  47  70 100 132 165 225 288 342 405
#     4  10  21  43  64  89 135 172 212 280 337 390
#     4  10  19  39  61  90 128 178 221 265 315 399
#     4  12  22  42  73  95 131 176 220 282 337 394
#     4  11  22  37  57  94 131 175 222 275 328 392
#     4  11  22  43  72  95 129 178 224 264 329 412
#
# _framework density 20.388300999999998
#
# number of rings (size 3 to 8) (size 9 to 14) (size 15 to 20)
#    0.000    1.143    7.143    3.857    2.000    2.286 
#    2.571    0.714    0.000    0.000    0.000    0.000 
#    0.000    0.000    0.000    0.000    0.000    0.000 
#
# Total GULP energy -694360.475963 kJ/mol
# GULP energy per Si atom -12399.294214 kJ/mol
# Density = 2.034190 g / cm^3
# Si number density = 20.388301 Si / 1000 Ang^3
#
#
#
# Elastic Constant Matrix: (Units=GPa)
#
#
# Indices 1 2 3 4 5 6 
#
# 1 105.1691 35.2377 18.4759 0.0000 0.0000 0.0000
# 2 35.2377 86.8475 17.6536 -0.0002 0.0000 0.0000
# 3 18.4759 17.6536 59.5414 -0.0007 0.0001 0.0000
# 4 0.0000 -0.0002 -0.0007 17.4721 0.0001 0.0000
# 5 0.0000 0.0000 0.0001 0.0001 28.9393 0.0000
# 6 0.0000 0.0000 0.0000 0.0000 0.0000 17.4606
#
#
#
# Elastic Compliance Matrix: (Units=1/GPa)
#
#
# Indices 1 2 3 4 5 6 
#
# 1 0.011289 -0.004116 -0.002282 0.000000 0.000000 0.000000
# 2 -0.004116 0.013754 -0.002801 0.000000 0.000000 0.000000
# 3 -0.002282 -0.002801 0.018334 0.000001 0.000000 0.000000
# 4 0.000000 0.000000 0.000001 0.057234 0.000000 0.000000
# 5 0.000000 0.000000 0.000000 0.000000 0.034555 0.000000
# 6 0.000000 0.000000 0.000000 0.000000 0.000000 0.057272
#
#
# Mechanical properties :
#
#
# Convention : Reuss Voigt Hill
#
# Bulk Modulus (GPa) = 40.03617 43.81027 41.92322
# Shear Modulus (GPa) = 22.81421 24.78713 23.80067
#
# Velocity S-wave (km/s) = 3.34875 3.49055 3.42038
# Velocity P-wave (km/s) = 5.88487 6.14653 6.01712
#
# Compressibility (1/GPa) = 0.02497741
#
# Stress axis : x y z
#
# Youngs Moduli (GPa) = 88.58432 72.70675 54.54453
#
# Poissons Ratio (x) = 0.29929 0.12450
# Poissons Ratio (y) = 0.36464 0.15276
# Poissons Ratio (z) = 0.20219 0.20362
#
# Static dielectric constant tensor:
#      x y z
#    x 3.868630 0.000000 0.000000 
#    y 0.000000 3.515510 0.000000 
#    z 0.000000 0.000000 3.670890 
# 
# 
# High freq. dielectric constant tensor:
#      x y z
#    x 1.795890 0.000000 0.000000 
#    y 0.000000 1.777700 0.000000 
#    z 0.000000 0.000000 1.790360 
# 
# From -- ./inp_files/17375.got.cif
#   From: 2010.03.12/outbox.cif.g09.slc.cpg/sg73_9_cif.got.tgz:17375.got - 2010.04.16 15:25:48.
