data_PCOD8295581
_publ_section_title
;
Structure prediction by ZEFSAII (Michael W. Deem and Ramdas Pophale) SiO2 
 PCOD8295581
Probable space group: I B C A 
;
_chemical_formula_sum "Si O2"
_cell_formula_units_Z 104
_cell_length_a 14.755211
_cell_length_b 20.397504
_cell_length_c 18.850990
_cell_angle_alpha 90.000000
_cell_angle_beta 90.000000
_cell_angle_gamma 90.000000
_cell_volume 5673.572571
_symmetry_space_group_name_H-M "I B C A "
_symmetry_group_IT_number 73
_symmetry_cell_setting 'orthorhombic'
loop_
_space_group_symop_operation_xyz
x,y,z
-x,1/2-y,z
x,-y,1/2-z
1/2-x,y,-z
-x,-y,-z
x,1/2+y,-z
-x,y,1/2+z
1/2+x,-y,z
1/2+x,1/2+y,1/2+z
1/2-x,-y,1/2+z
1/2+x,1/2-y,-z
-x,1/2+y,1/2-z
1/2-x,1/2-y,1/2-z
1/2+x,y,1/2-z
1/2-x,1/2+y,z
x,1/2-y,1/2+z
loop_
_atom_site_type_symbol
_atom_site_label
_atom_site_fract_x
_atom_site_fract_y
_atom_site_fract_z
Si Si1 0.966690 0.494952 0.579426
Si Si2 0.114313 0.363515 0.052268
Si Si3 0.677218 0.285623 0.061183
Si Si4 0.859040 0.982061 0.668657
Si Si5 0.688628 0.353105 0.601429
Si Si6 0.282017 0.931409 0.419771
Si Si7 0.000000 0.750000 0.987624
O O1 0.939564 0.420383 0.590724
O O2 0.882109 0.542182 0.592913
O O3 0.000000 0.500000 0.500000
O O4 0.041790 0.509679 0.637205
O O5 0.205297 0.358493 0.094862
O O6 0.133398 0.375882 0.968698
O O7 0.054993 0.298623 0.062760
O O8 0.669977 0.224377 0.116729
O O9 0.712760 0.353052 0.096535
O O10 0.574031 0.292865 0.032164
O O11 0.750000 0.263977 0.000000
O O12 0.837030 0.904298 0.662896
O O13 0.859403 0.000000 0.750000
O O14 0.787915 0.030207 0.629926
O O15 0.250000 0.943430 0.500000
#
# Coordination Sequence:
#
# PCOD8295581 Si02
#       7
#    16  16  16  16  16  16   8
#     4  12  21  35  63  93 118 156 210 256 306 358
#     4  10  18  31  59  89 118 154 194 251 299 362
#     4  10  20  32  57  95 126 150 199 259 306 359
#     4  12  27  42  60  89 128 167 208 258 310 367
#     4  10  18  38  57  85 122 160 197 239 310 366
#     4  11  22  39  64  96 123 156 210 261 308 364
#     4  10  18  30  52  94 132 142 186 258 326 338
#
# _framework density 18.330601999999999
#
# number of rings (size 3 to 8) (size 9 to 14) (size 15 to 20)
#    0.000    1.231    7.692    0.923    4.308    0.615 
#    0.000    0.769    0.000    0.000    4.000    0.000 
#    0.000    0.000    0.000    0.000    0.000    0.000 
#
# Total GULP energy -644386.939433 kJ/mol
# GULP energy per Si atom -12392.056528 kJ/mol
# Density = 1.828888 g / cm^3
# Si number density = 18.330602 Si / 1000 Ang^3
#
#
#
# Elastic Constant Matrix: (Units=GPa)
#
#
# Indices 1 2 3 4 5 6 
#
# 1 130.8443 58.3125 51.3226 0.0000 0.0000 0.0000
# 2 58.3125 167.7706 50.6372 0.0000 0.0000 0.0000
# 3 51.3226 50.6372 86.8012 0.0000 0.0000 0.0000
# 4 0.0000 0.0000 0.0000 17.3416 0.0000 0.0000
# 5 0.0000 0.0000 0.0000 0.0000 17.0488 0.0000
# 6 0.0000 0.0000 0.0000 0.0000 0.0000 47.5238
#
#
#
# Elastic Compliance Matrix: (Units=1/GPa)
#
#
# Indices 1 2 3 4 5 6 
#
# 1 0.010562 -0.002168 -0.004980 0.000000 0.000000 0.000000
# 2 -0.002168 0.007679 -0.003198 0.000000 0.000000 0.000000
# 3 -0.004980 -0.003198 0.016331 0.000000 0.000000 0.000000
# 4 0.000000 0.000000 0.000000 0.057665 0.000000 0.000000
# 5 0.000000 0.000000 0.000000 0.000000 0.058655 0.000000
# 6 0.000000 0.000000 0.000000 0.000000 0.000000 0.021042
#
#
# Mechanical properties :
#
#
# Convention : Reuss Voigt Hill
#
# Bulk Modulus (GPa) = 72.04729 78.44007 75.24368
# Shear Modulus (GPa) = 25.34800 31.39242 28.37021
#
# Velocity S-wave (km/s) = 3.72267 4.14281 3.93835
# Velocity P-wave (km/s) = 7.60706 8.10978 7.86244
#
# Compressibility (1/GPa) = 0.01387977
#
# Stress axis : x y z
#
# Youngs Moduli (GPa) = 94.67541 130.22039 61.23333
#
# Poissons Ratio (x) = 0.28232 0.30497
# Poissons Ratio (y) = 0.20525 0.19582
# Poissons Ratio (z) = 0.47153 0.41645
#
# Static dielectric constant tensor:
#      x y z
#    x 3.658290 0.000000 0.000000 
#    y 0.000000 3.722100 0.000000 
#    z 0.000000 0.000000 2.821460 
# 
# 
# High freq. dielectric constant tensor:
#      x y z
#    x 1.738940 0.000000 0.000000 
#    y 0.000000 1.736030 0.000000 
#    z 0.000000 0.000000 1.633800 
# 
# From -- ./inp_files/22086.got.cif
#   From: 2010.03.12/outbox.cif.g09.slc.cpg/sg73_12_cif.got.tgz:22086.got - 2010.04.16 15:25:48.
