data_PCOD8295643
_publ_section_title
;
Structure prediction by ZEFSAII (Michael W. Deem and Ramdas Pophale) SiO2 
 PCOD8295643
Probable space group: I B C A 
;
_chemical_formula_sum "Si O2"
_cell_formula_units_Z 104
_cell_length_a 23.137602
_cell_length_b 13.128484
_cell_length_c 18.461077
_cell_angle_alpha 90.000000
_cell_angle_beta 90.000000
_cell_angle_gamma 90.000000
_cell_volume 5607.766982
_symmetry_space_group_name_H-M "I B C A "
_symmetry_group_IT_number 73
_symmetry_cell_setting 'orthorhombic'
loop_
_space_group_symop_operation_xyz
x,y,z
-x,1/2-y,z
x,-y,1/2-z
1/2-x,y,-z
-x,-y,-z
x,1/2+y,-z
-x,y,1/2+z
1/2+x,-y,z
1/2+x,1/2+y,1/2+z
1/2-x,-y,1/2+z
1/2+x,1/2-y,-z
-x,1/2+y,1/2-z
1/2-x,1/2-y,1/2-z
1/2+x,y,1/2-z
1/2-x,1/2+y,z
x,1/2-y,1/2+z
loop_
_atom_site_type_symbol
_atom_site_label
_atom_site_fract_x
_atom_site_fract_y
_atom_site_fract_z
Si Si1 0.688472 0.187899 0.965159
Si Si2 0.435446 0.784995 0.274727
Si Si3 0.737490 0.624984 0.790941
Si Si4 0.902994 0.000000 0.250000
Si Si5 0.839589 0.237698 0.391472
Si Si6 0.812240 0.990101 0.127079
Si Si7 0.666236 0.224888 0.314406
O O1 0.684904 0.070304 0.939601
O O2 0.673622 0.266489 0.900211
O O3 0.750000 0.214969 0.000000
O O4 0.643938 0.214305 0.030080
O O5 0.500000 0.750000 0.285458
O O6 0.443680 0.902847 0.256323
O O7 0.399189 0.765748 0.347690
O O8 0.401062 0.729926 0.208578
O O9 0.707978 0.688616 0.855683
O O10 0.754866 0.513290 0.822461
O O11 0.695981 0.622749 0.719974
O O12 0.799264 0.681612 0.773275
O O13 0.867178 0.010814 0.176511
O O14 0.810973 0.125291 0.400950
#
# Coordination Sequence:
#
# PCOD8295643 Si02
#       7
#    16  16  16   8  16  16  16
#     4  11  19  34  53  86 126 150 181 233 291 362
#     4  10  20  37  64  80 107 150 202 246 281 332
#     4   9  16  34  54  81 114 141 187 237 274 340
#     4  10  18  36  64  84 100 142 208 238 274 354
#     4  10  21  35  57  82 116 153 190 226 293 358
#     4  10  20  33  56  83 107 159 192 222 282 353
#     4   9  17  31  55  82 112 145 186 236 287 325
#
# _framework density 18.545707
#
# number of rings (size 3 to 8) (size 9 to 14) (size 15 to 20)
#    0.000    2.154    6.154    0.000    2.154    0.615 
#    0.000    0.769   10.154    1.846    0.000    0.000 
#    0.000    0.000    0.000    0.000    0.000    0.000 
#
# Total GULP energy -644255.948662 kJ/mol
# GULP energy per Si atom -12389.537474 kJ/mol
# Density = 1.850350 g / cm^3
# Si number density = 18.545707 Si / 1000 Ang^3
#
#
#
# Elastic Constant Matrix: (Units=GPa)
#
#
# Indices 1 2 3 4 5 6 
#
# 1 96.2065 42.5234 30.5556 0.0000 0.0000 0.0000
# 2 42.5234 83.4754 29.2833 0.0000 0.0000 0.0000
# 3 30.5556 29.2833 116.4196 0.0000 0.0000 0.0000
# 4 0.0000 0.0000 0.0000 21.7404 0.0000 0.0000
# 5 0.0000 0.0000 0.0000 0.0000 14.4642 0.0000
# 6 0.0000 0.0000 0.0000 0.0000 0.0000 24.1272
#
#
#
# Elastic Compliance Matrix: (Units=1/GPa)
#
#
# Indices 1 2 3 4 5 6 
#
# 1 0.013843 -0.006336 -0.002039 0.000000 0.000000 0.000000
# 2 -0.006336 0.016039 -0.002371 0.000000 0.000000 0.000000
# 3 -0.002039 -0.002371 0.009721 0.000000 0.000000 0.000000
# 4 0.000000 0.000000 0.000000 0.045997 0.000000 0.000000
# 5 0.000000 0.000000 0.000000 0.000000 0.069136 0.000000
# 6 0.000000 0.000000 0.000000 0.000000 0.000000 0.041447
#
#
# Mechanical properties :
#
#
# Convention : Reuss Voigt Hill
#
# Bulk Modulus (GPa) = 55.22034 55.64735 55.43385
# Shear Modulus (GPa) = 22.34997 24.98231 23.66614
#
# Velocity S-wave (km/s) = 3.47526 3.67422 3.57613
# Velocity P-wave (km/s) = 6.77814 6.93329 6.85615
#
# Compressibility (1/GPa) = 0.01810927
#
# Stress axis : x y z
#
# Youngs Moduli (GPa) = 72.24060 62.34728 102.86624
#
# Poissons Ratio (x) = 0.39504 0.20979
# Poissons Ratio (y) = 0.45773 0.24393
# Poissons Ratio (z) = 0.14733 0.14785
#
# Static dielectric constant tensor:
#      x y z
#    x 3.014620 0.000000 0.000000 
#    y 0.000000 3.669640 0.000000 
#    z 0.000000 0.000000 3.733810 
# 
# 
# High freq. dielectric constant tensor:
#      x y z
#    x 1.671000 0.000000 0.000000 
#    y 0.000000 1.720920 0.000000 
#    z 0.000000 0.000000 1.726670 
# 
# From -- ./inp_files/26978.got.cif
#   From: 2010.03.12/outbox.cif.g09.slc.cpg/sg73_14_cif.got.tgz:26978.got - 2010.04.16 15:25:48.
