data_PCOD8295841
_publ_section_title
;
Structure prediction by ZEFSAII (Michael W. Deem and Ramdas Pophale) SiO2 
 PCOD8295841
Probable space group: I B C A 
;
_chemical_formula_sum "Si O2"
_cell_formula_units_Z 128
_cell_length_a 11.263488
_cell_length_b 25.993043
_cell_length_c 22.504083
_cell_angle_alpha 90.000000
_cell_angle_beta 90.000000
_cell_angle_gamma 90.000000
_cell_volume 6588.572767
_symmetry_space_group_name_H-M "I B C A "
_symmetry_group_IT_number 73
_symmetry_cell_setting 'orthorhombic'
loop_
_space_group_symop_operation_xyz
x,y,z
-x,1/2-y,z
x,-y,1/2-z
1/2-x,y,-z
-x,-y,-z
x,1/2+y,-z
-x,y,1/2+z
1/2+x,-y,z
1/2+x,1/2+y,1/2+z
1/2-x,-y,1/2+z
1/2+x,1/2-y,-z
-x,1/2+y,1/2-z
1/2-x,1/2-y,1/2-z
1/2+x,y,1/2-z
1/2-x,1/2+y,z
x,1/2-y,1/2+z
loop_
_atom_site_type_symbol
_atom_site_label
_atom_site_fract_x
_atom_site_fract_y
_atom_site_fract_z
Si Si1 0.865730 0.121816 0.536803
Si Si2 0.968690 0.043250 0.455035
Si Si3 0.282332 0.142652 0.318759
Si Si4 0.934846 0.304567 0.264150
Si Si5 0.245853 0.952147 0.623450
Si Si6 0.625708 0.550058 0.845007
Si Si7 0.080626 0.602313 0.210815
Si Si8 0.994998 0.809147 0.869800
O O1 0.750000 0.141391 0.500000
O O2 0.843517 0.076013 0.583786
O O3 0.925327 0.166986 0.574523
O O4 0.953118 0.098369 0.487240
O O5 0.075933 0.048203 0.410612
O O6 0.850701 0.024026 0.421004
O O7 0.000000 0.000000 0.500000
O O8 0.201233 0.187794 0.287456
O O9 0.205100 0.100470 0.351125
O O10 0.359915 0.106920 0.274659
O O11 0.370168 0.169844 0.365258
O O12 0.930850 0.318341 0.193947
O O13 0.000000 0.250000 0.274263
O O14 0.016514 0.343400 0.302205
O O15 0.184718 0.908656 0.664173
O O16 0.302524 0.996763 0.665465
O O17 0.522043 0.557789 0.794851
O O18 0.000000 0.750000 0.885788
#
# Coordination Sequence:
#
# PCOD8295841 Si02
#       8
#    16  16  16  16  16  16  16  16
#     4  10  21  38  58  81 111 151 194 250 298 340
#     4  10  20  36  56  82 109 144 200 245 286 341
#     4  10  21  38  57  86 121 156 190 238 296 354
#     4   9  19  37  63  89 117 152 193 244 298 364
#     4  10  20  34  57  82 112 153 189 234 290 349
#     4  10  21  36  55  84 116 150 196 236 290 351
#     4   9  20  36  53  83 121 148 191 233 285 359
#     4  10  22  38  60  88 114 152 200 240 295 358
#
# _framework density 19.427575999999998
#
# number of rings (size 3 to 8) (size 9 to 14) (size 15 to 20)
#    0.000    2.250    1.250    0.750    1.750    6.000 
#    0.000    6.250    0.000    5.250    0.000    0.875 
#    0.000    0.000    0.000    0.000    0.000    0.000 
#
# Total GULP energy -792987.253074 kJ/mol
# GULP energy per Si atom -12390.425829 kJ/mol
# Density = 1.938336 g / cm^3
# Si number density = 19.427576 Si / 1000 Ang^3
#
#
#
# Elastic Constant Matrix: (Units=GPa)
#
#
# Indices 1 2 3 4 5 6 
#
# 1 100.1010 55.6070 48.2088 0.0000 0.0000 0.0000
# 2 55.6070 101.9185 56.0961 0.0000 0.0000 0.0000
# 3 48.2088 56.0961 73.3957 0.0000 0.0000 0.0000
# 4 0.0000 0.0000 0.0000 33.1267 0.0000 0.0000
# 5 0.0000 0.0000 0.0000 0.0000 33.2419 0.0000
# 6 0.0000 0.0000 0.0000 0.0000 0.0000 27.5132
#
#
#
# Elastic Compliance Matrix: (Units=1/GPa)
#
#
# Indices 1 2 3 4 5 6 
#
# 1 0.016007 -0.005086 -0.006626 0.000000 0.000000 0.000000
# 2 -0.005086 0.018552 -0.010839 0.000000 0.000000 0.000000
# 3 -0.006626 -0.010839 0.026261 0.000000 0.000000 0.000000
# 4 0.000000 0.000000 0.000000 0.030187 0.000000 0.000000
# 5 0.000000 0.000000 0.000000 0.000000 0.030083 0.000000
# 6 0.000000 0.000000 0.000000 0.000000 0.000000 0.036346
#
#
# Mechanical properties :
#
#
# Convention : Reuss Voigt Hill
#
# Bulk Modulus (GPa) = 63.62260 66.13766 64.88013
# Shear Modulus (GPa) = 24.06414 26.47658 25.27036
#
# Velocity S-wave (km/s) = 3.52328 3.69566 3.61050
# Velocity P-wave (km/s) = 7.02645 7.23379 7.13087
#
# Compressibility (1/GPa) = 0.01571769
#
# Stress axis : x y z
#
# Youngs Moduli (GPa) = 62.47460 53.90125 38.07878
#
# Poissons Ratio (x) = 0.27414 0.25232
# Poissons Ratio (y) = 0.31775 0.41273
# Poissons Ratio (z) = 0.41398 0.58423
#
# Static dielectric constant tensor:
#      x y z
#    x 4.358440 0.000000 0.000000 
#    y 0.000000 3.373210 0.000000 
#    z 0.000000 0.000000 3.313040 
# 
# 
# High freq. dielectric constant tensor:
#      x y z
#    x 1.768810 0.000000 0.000000 
#    y 0.000000 1.746260 0.000000 
#    z 0.000000 0.000000 1.742400 
# 
# From -- ./inp_files/29146.got.cif
#   From: 2010.03.12/outbox.cif.g09.slc.cpg/sg73_15_cif.got.tgz:29146.got - 2010.04.16 15:25:48.
