data_PCOD8295735
_publ_section_title
;
Structure prediction by ZEFSAII (Michael W. Deem and Ramdas Pophale) SiO2 
 PCOD8295735
Probable space group: I B C A 
;
_chemical_formula_sum "Si O2"
_cell_formula_units_Z 112
_cell_length_a 24.409329
_cell_length_b 14.613287
_cell_length_c 14.076759
_cell_angle_alpha 90.000000
_cell_angle_beta 90.000000
_cell_angle_gamma 90.000000
_cell_volume 5021.187398
_symmetry_space_group_name_H-M "I B C A "
_symmetry_group_IT_number 73
_symmetry_cell_setting 'orthorhombic'
loop_
_space_group_symop_operation_xyz
x,y,z
-x,1/2-y,z
x,-y,1/2-z
1/2-x,y,-z
-x,-y,-z
x,1/2+y,-z
-x,y,1/2+z
1/2+x,-y,z
1/2+x,1/2+y,1/2+z
1/2-x,-y,1/2+z
1/2+x,1/2-y,-z
-x,1/2+y,1/2-z
1/2-x,1/2-y,1/2-z
1/2+x,y,1/2-z
1/2-x,1/2+y,z
x,1/2-y,1/2+z
loop_
_atom_site_type_symbol
_atom_site_label
_atom_site_fract_x
_atom_site_fract_y
_atom_site_fract_z
Si Si1 0.546855 0.807447 0.122619
Si Si2 0.808840 0.254243 0.543237
Si Si3 0.397571 0.569920 0.832683
Si Si4 0.368734 0.873584 0.890539
Si Si5 0.853356 0.739050 0.768685
Si Si6 0.132188 0.567116 0.963879
Si Si7 0.020845 0.408272 0.801576
O O1 0.500000 0.750000 0.064139
O O2 0.597419 0.744815 0.154929
O O3 0.571955 0.893321 0.064810
O O4 0.514136 0.836646 0.216785
O O5 0.750000 0.274081 0.500000
O O6 0.853090 0.311609 0.481367
O O7 0.804599 0.283014 0.655976
O O8 0.822344 0.146073 0.542831
O O9 0.385075 0.500000 0.750000
O O10 0.365177 0.662853 0.809683
O O11 0.462010 0.583437 0.850774
O O12 0.372224 0.530337 0.928820
O O13 0.344126 0.832868 0.791356
O O14 0.435050 0.874536 0.879922
O O15 0.349146 0.979103 0.902125
O O16 0.041956 0.500000 0.750000
#
# Coordination Sequence:
#
# PCOD8295735 Si02
#       7
#    16  16  16  16  16  16  16
#     4  10  19  35  59  91 134 176 225 269 329 401
#     4  11  26  46  71  99 132 171 237 300 352 417
#     4  11  22  39  62  98 143 181 221 272 338 413
#     4  11  23  43  70  96 137 179 228 284 345 413
#     4  10  22  41  67  96 136 181 219 283 347 409
#     4  11  24  42  66  97 133 180 231 285 340 415
#     4  10  20  37  62  96 138 180 223 263 330 414
#
# _framework density 22.305481
#
# number of rings (size 3 to 8) (size 9 to 14) (size 15 to 20)
#    0.000    1.429    4.286    0.857    0.000    4.000 
#    0.000    0.000    0.000    0.000    0.000    0.000 
#    0.000    0.000    0.000    0.000    0.000    0.000 
#
# Total GULP energy -693986.916723 kJ/mol
# GULP energy per Si atom -12392.623513 kJ/mol
# Density = 2.225471 g / cm^3
# Si number density = 22.305481 Si / 1000 Ang^3
#
#
#
# Elastic Constant Matrix: (Units=GPa)
#
#
# Indices 1 2 3 4 5 6 
#
# 1 59.0359 38.3401 41.8620 0.0000 0.0000 0.0000
# 2 38.3401 122.1822 41.5647 0.0000 0.0000 0.0000
# 3 41.8620 41.5647 113.2842 0.0000 0.0000 0.0000
# 4 0.0000 0.0000 0.0000 34.6830 0.0000 0.0000
# 5 0.0000 0.0000 0.0000 0.0000 26.7667 0.0000
# 6 0.0000 0.0000 0.0000 0.0000 0.0000 17.3409
#
#
#
# Elastic Compliance Matrix: (Units=1/GPa)
#
#
# Indices 1 2 3 4 5 6 
#
# 1 0.025888 -0.005564 -0.007525 0.000000 0.000000 0.000000
# 2 -0.005564 0.010547 -0.001814 0.000000 0.000000 0.000000
# 3 -0.007525 -0.001814 0.012274 0.000000 0.000000 0.000000
# 4 0.000000 0.000000 0.000000 0.028833 0.000000 0.000000
# 5 0.000000 0.000000 0.000000 0.000000 0.037360 0.000000
# 6 0.000000 0.000000 0.000000 0.000000 0.000000 0.057667
#
#
# Mechanical properties :
#
#
# Convention : Reuss Voigt Hill
#
# Bulk Modulus (GPa) = 52.89953 59.78178 56.34066
# Shear Modulus (GPa) = 23.96064 27.27381 25.61723
#
# Velocity S-wave (km/s) = 3.28106 3.50056 3.39259
# Velocity P-wave (km/s) = 6.17424 6.57253 6.37650
#
# Compressibility (1/GPa) = 0.01890376
#
# Stress axis : x y z
#
# Youngs Moduli (GPa) = 38.62779 94.80986 81.47514
#
# Poissons Ratio (x) = 0.52748 0.61311
# Poissons Ratio (y) = 0.21491 0.14780
# Poissons Ratio (z) = 0.29068 0.17198
#
# Static dielectric constant tensor:
#      x y z
#    x 3.737570 0.000000 0.000000 
#    y 0.000000 4.073610 0.000000 
#    z 0.000000 0.000000 4.202890 
# 
# 
# High freq. dielectric constant tensor:
#      x y z
#    x 1.839450 0.000000 0.000000 
#    y 0.000000 1.880090 0.000000 
#    z 0.000000 0.000000 1.885740 
# 
# From -- ./inp_files/19396.got.cif
#   From: 2010.03.12/outbox.cif.g09.slc.cpg/sg73_10_cif.got.tgz:19396.got - 2010.04.16 15:25:48.
