data_PCOD8295265
_publ_section_title
;
Structure prediction by ZEFSAII (Michael W. Deem and Ramdas Pophale) SiO2 
 PCOD8295265
Probable space group: I B A M
;
_chemical_formula_sum "Si O2"
_cell_formula_units_Z 80
_cell_length_a 25.271895
_cell_length_b 21.502193
_cell_length_c 9.417022
_cell_angle_alpha 90.000000
_cell_angle_beta 90.000000
_cell_angle_gamma 90.000000
_cell_volume 5117.220714
_symmetry_space_group_name_H-M "I B A M"
_symmetry_group_IT_number 72
_symmetry_cell_setting 'orthorhombic'
loop_
_space_group_symop_operation_xyz
x,y,z
-x,-y,z
x,-y,1/2-z
-x,y,1/2-z
-x,-y,-z
x,y,-z
-x,y,1/2+z
x,-y,1/2+z
1/2+x,1/2+y,1/2+z
1/2-x,1/2-y,1/2+z
1/2+x,1/2-y,-z
1/2-x,1/2+y,-z
1/2-x,1/2-y,1/2-z
1/2+x,1/2+y,1/2-z
1/2-x,1/2+y,z
1/2+x,1/2-y,z
loop_
_atom_site_type_symbol
_atom_site_label
_atom_site_fract_x
_atom_site_fract_y
_atom_site_fract_z
Si Si1 0.882180 0.377339 0.738503
Si Si2 0.045016 0.587500 0.500000
Si Si3 0.721234 0.337875 0.839436
Si Si4 0.224415 0.437714 0.162470
Si Si5 0.926254 0.443846 0.000000
Si Si6 0.671142 0.760938 0.841886
O O1 0.933335 0.377733 0.638272
O O2 0.829934 0.398879 0.655323
O O3 0.891502 0.425489 0.865491
O O4 0.875825 0.306853 0.793644
O O5 0.065272 0.516990 0.500000
O O6 0.981940 0.592215 0.500000
O O7 0.729990 0.398959 0.743514
O O8 0.675144 0.296684 0.766814
O O9 0.774774 0.299069 0.844900
O O10 0.703967 0.356110 0.000000
O O11 0.215151 0.500000 0.250000
O O12 0.242004 0.451276 0.000000
O O13 0.658895 0.735572 0.000000
#
# Coordination Sequence:
#
# PCOD8295265 Si02
#       6
#    16   8  16  16   8  16
#     4  11  21  32  48  65  84 114 153 194 232 271
#     4  11  22  34  48  63  84 114 153 194 241 279
#     4   9  18  29  46  66  87 111 141 179 221 261
#     4  11  21  31  46  66  92 119 150 184 221 264
#     4  11  22  36  46  61  86 116 149 196 241 281
#     4   9  17  30  45  62  86 110 142 182 223 266
#
# _framework density 15.633486
#
# number of rings (size 3 to 8) (size 9 to 14) (size 15 to 20)
#    0.000    1.800    2.000    3.600    4.200    4.000 
#    0.000    0.000    0.000    0.000    0.000    0.000 
#    0.000    0.000    0.000    0.000    0.000    6.000 
#
# Total GULP energy -496021.706128 kJ/mol
# GULP energy per Si atom -12400.542653 kJ/mol
# Density = 1.559790 g / cm^3
# Si number density = 15.633486 Si / 1000 Ang^3
#
#
#
# Elastic Constant Matrix: (Units=GPa)
#
#
# Indices 1 2 3 4 5 6 
#
# 1 37.2266 24.7907 21.5434 0.0000 0.0000 0.0000
# 2 24.7907 45.3653 29.4311 0.0000 0.0000 0.0000
# 3 21.5434 29.4311 134.1141 0.0000 0.0000 0.0000
# 4 0.0000 0.0000 0.0000 23.1187 0.0000 0.0000
# 5 0.0000 0.0000 0.0000 0.0000 16.0867 0.0000
# 6 0.0000 0.0000 0.0000 0.0000 0.0000 25.6486
#
#
#
# Elastic Compliance Matrix: (Units=1/GPa)
#
#
# Indices 1 2 3 4 5 6 
#
# 1 0.042698 -0.022018 -0.002027 0.000000 0.000000 0.000000
# 2 -0.022018 0.037057 -0.004595 0.000000 0.000000 0.000000
# 3 -0.002027 -0.004595 0.008790 0.000000 0.000000 0.000000
# 4 0.000000 0.000000 0.000000 0.043255 0.000000 0.000000
# 5 0.000000 0.000000 0.000000 0.000000 0.062163 0.000000
# 6 0.000000 0.000000 0.000000 0.000000 0.000000 0.038988
#
#
# Mechanical properties :
#
#
# Convention : Reuss Voigt Hill
#
# Bulk Modulus (GPa) = 31.98501 40.91515 36.45008
# Shear Modulus (GPa) = 16.63040 22.36686 19.49863
#
# Velocity S-wave (km/s) = 3.26508 3.78657 3.53545
# Velocity P-wave (km/s) = 5.89220 6.73392 6.32708
#
# Compressibility (1/GPa) = 0.03126464
#
# Stress axis : x y z
#
# Youngs Moduli (GPa) = 23.42012 26.98570 113.76137
#
# Poissons Ratio (x) = 0.59418 0.23059
# Poissons Ratio (y) = 0.51567 0.52275
# Poissons Ratio (z) = 0.04747 0.12400
#
# Static dielectric constant tensor:
#      x y z
#    x 2.678830 0.000000 0.000000 
#    y 0.000000 2.911560 0.000000 
#    z 0.000000 0.000000 3.193500 
# 
# 
# High freq. dielectric constant tensor:
#      x y z
#    x 1.543440 0.000000 0.000000 
#    y 0.000000 1.576700 0.000000 
#    z 0.000000 0.000000 1.627010 
# 
# From -- ./inp_files/4854.got.cif
#   From: 2010.03.12/outbox.cif.g09.slc.cpg/sg72_3_cif.got.tgz:4854.got - 2010.04.16 14:54:00.
