data_PCOD8295103
_publ_section_title
;
Structure prediction by ZEFSAII (Michael W. Deem and Ramdas Pophale) SiO2 
 PCOD8295103
Probable space group: I B A M
;
_chemical_formula_sum "Si O2"
_cell_formula_units_Z 80
_cell_length_a 18.277589
_cell_length_b 25.327689
_cell_length_c 8.636638
_cell_angle_alpha 90.000000
_cell_angle_beta 90.000000
_cell_angle_gamma 90.000000
_cell_volume 3998.150969
_symmetry_space_group_name_H-M "I B A M"
_symmetry_group_IT_number 72
_symmetry_cell_setting 'orthorhombic'
loop_
_space_group_symop_operation_xyz
x,y,z
-x,-y,z
x,-y,1/2-z
-x,y,1/2-z
-x,-y,-z
x,y,-z
-x,y,1/2+z
x,-y,1/2+z
1/2+x,1/2+y,1/2+z
1/2-x,1/2-y,1/2+z
1/2+x,1/2-y,-z
1/2-x,1/2+y,-z
1/2-x,1/2-y,1/2-z
1/2+x,1/2+y,1/2-z
1/2-x,1/2+y,z
1/2+x,1/2-y,z
loop_
_atom_site_type_symbol
_atom_site_label
_atom_site_fract_x
_atom_site_fract_y
_atom_site_fract_z
Si Si1 0.919927 0.252547 0.817471
Si Si2 0.166959 0.852336 0.178888
Si Si3 0.077340 0.556400 0.817803
Si Si4 0.922381 0.943851 0.818445
Si Si5 0.335847 0.149039 0.319651
O O1 0.876472 0.199891 0.774039
O O2 0.880794 0.300862 0.735404
O O3 0.000000 0.245974 0.750000
O O4 0.922564 0.262954 0.000000
O O5 0.139229 0.901102 0.280341
O O6 0.251167 0.841355 0.217280
O O7 0.154818 0.866741 0.000000
O O8 0.100173 0.500000 0.750000
O O9 0.139755 0.597598 0.773953
O O10 0.000000 0.576040 0.750000
O O11 0.069647 0.551413 0.000000
O O12 0.000000 0.925099 0.750000
O O13 0.897831 0.000000 0.750000
O O14 0.931226 0.949976 0.000000
O O15 0.350463 0.139493 0.500000
#
# Coordination Sequence:
#
# PCOD8295103 Si02
#       5
#    16  16  16  16  16
#     4  11  23  40  62  88 117 153 196 242 291 347
#     4  10  23  41  61  87 120 155 195 242 294 348
#     4  11  22  39  62  88 118 154 197 243 291 346
#     4  11  22  38  62  88 119 156 198 244 291 345
#     4  11  23  40  61  87 120 156 194 241 293 348
#
# _framework density 20.009249000000001
#
# number of rings (size 3 to 8) (size 9 to 14) (size 15 to 20)
#    0.000    1.200    0.000    7.800    0.000    5.600 
#    0.000    0.000    0.000    0.000    0.000    0.000 
#    0.000    0.000    0.000    0.000    0.000    0.000 
#
# Total GULP energy -496294.886681 kJ/mol
# GULP energy per Si atom -12407.372167 kJ/mol
# Density = 1.996371 g / cm^3
# Si number density = 20.009249 Si / 1000 Ang^3
#
#
#
# Elastic Constant Matrix: (Units=GPa)
#
#
# Indices 1 2 3 4 5 6 
#
# 1 133.6250 72.2880 53.3795 0.0000 0.0000 0.0000
# 2 72.2880 122.1275 53.3834 0.0000 0.0000 0.0000
# 3 53.3795 53.3834 138.8063 0.0000 0.0000 0.0000
# 4 0.0000 0.0000 0.0000 37.6830 0.0000 0.0000
# 5 0.0000 0.0000 0.0000 0.0000 35.5377 0.0000
# 6 0.0000 0.0000 0.0000 0.0000 0.0000 4.6767
#
#
#
# Elastic Compliance Matrix: (Units=1/GPa)
#
#
# Indices 1 2 3 4 5 6 
#
# 1 0.011530 -0.005874 -0.002175 0.000000 0.000000 0.000000
# 2 -0.005874 0.012835 -0.002677 0.000000 0.000000 0.000000
# 3 -0.002175 -0.002677 0.009070 0.000000 0.000000 0.000000
# 4 0.000000 0.000000 0.000000 0.026537 0.000000 0.000000
# 5 0.000000 0.000000 0.000000 0.000000 0.028139 0.000000
# 6 0.000000 0.000000 0.000000 0.000000 0.000000 0.213828
#
#
# Mechanical properties :
#
#
# Convention : Reuss Voigt Hill
#
# Bulk Modulus (GPa) = 83.45099 83.62894 83.53996
# Shear Modulus (GPa) = 15.27241 29.94666 22.60954
#
# Velocity S-wave (km/s) = 2.76573 3.87284 3.36513
# Velocity P-wave (km/s) = 7.21081 7.86666 7.54586
#
# Compressibility (1/GPa) = 0.01198308
#
# Stress axis : x y z
#
# Youngs Moduli (GPa) = 86.72861 77.90946 110.24888
#
# Poissons Ratio (x) = 0.45765 0.23979
# Poissons Ratio (y) = 0.50945 0.29518
# Poissons Ratio (z) = 0.18863 0.20860
#
# Static dielectric constant tensor:
#      x y z
#    x 3.679470 0.000000 0.000000 
#    y 0.000000 3.764770 0.000000 
#    z 0.000000 0.000000 3.261480 
# 
# 
# High freq. dielectric constant tensor:
#      x y z
#    x 1.786220 0.000000 0.000000 
#    y 0.000000 1.794730 0.000000 
#    z 0.000000 0.000000 1.795100 
# 
# From -- ./inp_files/4810.got.cif
#   From: 2010.03.12/outbox.cif.g09.slc.cpg/sg72_3_cif.got.tgz:4810.got - 2010.04.16 14:54:00.
