data_PCOD8295477
_publ_section_title
;
Structure prediction by ZEFSAII (Michael W. Deem and Ramdas Pophale) SiO2 
 PCOD8295477
Probable space group: I B A M
;
_chemical_formula_sum "Si O2"
_cell_formula_units_Z 96
_cell_length_a 30.488402
_cell_length_b 9.855812
_cell_length_c 18.048864
_cell_angle_alpha 90.000000
_cell_angle_beta 90.000000
_cell_angle_gamma 90.000000
_cell_volume 5423.466293
_symmetry_space_group_name_H-M "I B A M"
_symmetry_group_IT_number 72
_symmetry_cell_setting 'orthorhombic'
loop_
_space_group_symop_operation_xyz
x,y,z
-x,-y,z
x,-y,1/2-z
-x,y,1/2-z
-x,-y,-z
x,y,-z
-x,y,1/2+z
x,-y,1/2+z
1/2+x,1/2+y,1/2+z
1/2-x,1/2-y,1/2+z
1/2+x,1/2-y,-z
1/2-x,1/2+y,-z
1/2-x,1/2-y,1/2-z
1/2+x,1/2+y,1/2-z
1/2-x,1/2+y,z
1/2+x,1/2-y,z
loop_
_atom_site_type_symbol
_atom_site_label
_atom_site_fract_x
_atom_site_fract_y
_atom_site_fract_z
Si Si1 0.089169 0.109987 0.082672
Si Si2 0.814204 0.946213 0.084857
Si Si3 0.330375 0.762747 0.586010
Si Si4 0.261120 0.126596 0.803042
Si Si5 0.426015 0.709086 0.581978
Si Si6 0.993047 0.159248 0.333086
O O1 0.139867 0.127416 0.106284
O O2 0.056214 0.191370 0.137506
O O3 0.079565 0.951518 0.083543
O O4 0.081400 0.167242 0.000000
O O5 0.779596 0.890389 0.142410
O O6 0.816167 0.107240 0.093112
O O7 0.801600 0.908565 0.000000
O O8 0.324013 0.810001 0.500000
O O9 0.302939 0.852001 0.643763
O O10 0.381228 0.778146 0.611534
O O11 0.250000 0.250000 0.750000
O O12 0.270358 0.000000 0.750000
O O13 0.434078 0.762617 0.500000
O O14 0.469854 0.748069 0.626021
O O15 0.000000 0.205245 0.250000
O O16 0.000000 0.000000 0.344392
#
# Coordination Sequence:
#
# PCOD8295477 Si02
#       6
#    16  16  16  16  16  16
#     4   8  14  25  41  60  88 126 167 202 244 301
#     4   9  18  34  52  71  97 137 178 217 260 312
#     4   9  18  34  53  72  97 136 179 215 258 315
#     4  12  23  36  51  76 106 137 172 220 271 319
#     4   8  14  25  42  61  87 126 167 202 240 296
#     4   9  15  21  32  60  94 128 160 196 248 306
#
# _framework density 17.700856999999999
#
# number of rings (size 3 to 8) (size 9 to 14) (size 15 to 20)
#    0.000    2.833    1.667    3.000    0.000    3.333 
#    3.000    0.000    0.000    0.000    0.000    0.000 
#    0.000    6.000    0.000   18.667    0.000   11.333 
#
# Total GULP energy -594694.920838 kJ/mol
# GULP energy per Si atom -12389.477517 kJ/mol
# Density = 1.766057 g / cm^3
# Si number density = 17.700857 Si / 1000 Ang^3
#
#
#
# Elastic Constant Matrix: (Units=GPa)
#
#
# Indices 1 2 3 4 5 6 
#
# 1 165.4508 32.7792 102.5495 0.0000 0.0000 0.0000
# 2 32.7792 39.7283 37.9842 0.0000 0.0000 0.0000
# 3 102.5495 37.9842 131.9642 0.0000 0.0000 0.0000
# 4 0.0000 0.0000 0.0000 17.5971 0.0000 0.0000
# 5 0.0000 0.0000 0.0000 0.0000 18.8520 0.0000
# 6 0.0000 0.0000 0.0000 0.0000 0.0000 14.0063
#
#
#
# Elastic Compliance Matrix: (Units=1/GPa)
#
#
# Indices 1 2 3 4 5 6 
#
# 1 0.011711 -0.001327 -0.008719 0.000000 0.000000 0.000000
# 2 -0.001327 0.034878 -0.009008 0.000000 0.000000 0.000000
# 3 -0.008719 -0.009008 0.016946 0.000000 0.000000 0.000000
# 4 0.000000 0.000000 0.000000 0.056827 0.000000 0.000000
# 5 0.000000 0.000000 0.000000 0.000000 0.053045 0.000000
# 6 0.000000 0.000000 0.000000 0.000000 0.000000 0.071397
#
#
# Mechanical properties :
#
#
# Convention : Reuss Voigt Hill
#
# Bulk Modulus (GPa) = 39.32664 75.97432 57.65048
# Shear Modulus (GPa) = 17.15926 21.01312 19.08619
#
# Velocity S-wave (km/s) = 3.11690 3.44920 3.28725
# Velocity P-wave (km/s) = 5.93456 7.67314 6.85916
#
# Compressibility (1/GPa) = 0.02542805
#
# Stress axis : x y z
#
# Youngs Moduli (GPa) = 85.39007 28.67098 59.01042
#
# Poissons Ratio (x) = 0.03803 0.51450
# Poissons Ratio (y) = 0.11327 0.53159
# Poissons Ratio (z) = 0.74450 0.25828
#
# Static dielectric constant tensor:
#      x y z
#    x 3.917600 0.000000 0.000000 
#    y 0.000000 2.639250 0.000000 
#    z 0.000000 0.000000 3.452860 
# 
# 
# High freq. dielectric constant tensor:
#      x y z
#    x 1.701860 0.000000 0.000000 
#    y 0.000000 1.609040 0.000000 
#    z 0.000000 0.000000 1.693330 
# 
# From -- ./inp_files/29608.got.cif
#   From: 2010.03.12/outbox.cif.g09.slc.cpg/sg72_15_cif.got.tgz:29608.got - 2010.04.16 14:54:00.
