data_PCOD8295206
_publ_section_title
;
Structure prediction by ZEFSAII (Michael W. Deem and Ramdas Pophale) SiO2 
 PCOD8295206
Probable space group: I B A M
;
_chemical_formula_sum "Si O2"
_cell_formula_units_Z 80
_cell_length_a 9.984548
_cell_length_b 24.421767
_cell_length_c 16.100181
_cell_angle_alpha 90.000000
_cell_angle_beta 90.000000
_cell_angle_gamma 90.000000
_cell_volume 3925.873043
_symmetry_space_group_name_H-M "I B A M"
_symmetry_group_IT_number 72
_symmetry_cell_setting 'orthorhombic'
loop_
_space_group_symop_operation_xyz
x,y,z
-x,-y,z
x,-y,1/2-z
-x,y,1/2-z
-x,-y,-z
x,y,-z
-x,y,1/2+z
x,-y,1/2+z
1/2+x,1/2+y,1/2+z
1/2-x,1/2-y,1/2+z
1/2+x,1/2-y,-z
1/2-x,1/2+y,-z
1/2-x,1/2-y,1/2-z
1/2+x,1/2+y,1/2-z
1/2-x,1/2+y,z
1/2+x,1/2-y,z
loop_
_atom_site_type_symbol
_atom_site_label
_atom_site_fract_x
_atom_site_fract_y
_atom_site_fract_z
Si Si1 0.096842 0.195439 0.500000
Si Si2 0.718098 0.070205 0.592786
Si Si3 0.009150 0.903530 0.092314
Si Si4 0.754382 0.037399 0.168903
Si Si5 0.030006 0.371664 0.838520
Si Si6 0.091056 0.299904 0.000000
O O1 0.065272 0.158792 0.417668
O O2 0.251300 0.214780 0.500000
O O3 0.997427 0.246058 0.500000
O O4 0.692125 0.091049 0.500000
O O5 0.601742 0.092418 0.650011
O O6 0.858005 0.095224 0.627560
O O7 0.718558 0.003943 0.593961
O O8 0.098291 0.938060 0.155563
O O9 0.009182 0.931233 0.000000
O O10 0.653142 0.087379 0.170646
O O11 0.751037 0.000000 0.250000
O O12 0.000000 0.340714 0.750000
O O13 0.055719 0.331799 0.915566
#
# Coordination Sequence:
#
# PCOD8295206 Si02
#       6
#     8  16  16  16  16   8
#     4  10  24  46  77  99 126 178 247 299 361 408
#     4  11  23  36  65  96 136 185 224 268 349 424
#     4   9  21  43  64  99 134 172 239 287 336 432
#     4  12  23  39  61  99 146 189 220 275 343 424
#     4  12  25  45  64 104 142 181 240 289 342 438
#     4  12  26  48  81  93 134 188 235 313 369 392
#
# _framework density 20.377631999999998
#
# number of rings (size 3 to 8) (size 9 to 14) (size 15 to 20)
#    0.600    0.400    5.000    1.800    4.200    4.000 
#    0.000    1.000    4.400    0.000    0.000    0.000 
#    0.000    0.000    0.000    0.000    0.000    0.000 
#
# Total GULP energy -495733.333838 kJ/mol
# GULP energy per Si atom -12393.333346 kJ/mol
# Density = 2.033125 g / cm^3
# Si number density = 20.377632 Si / 1000 Ang^3
#
#
#
# Elastic Constant Matrix: (Units=GPa)
#
#
# Indices 1 2 3 4 5 6 
#
# 1 261.1832 103.3763 83.1572 -0.0002 0.0000 0.0002
# 2 103.3763 136.4346 62.8961 -0.0001 0.0001 0.0001
# 3 83.1572 62.8961 114.4953 0.0001 0.0003 -0.0001
# 4 -0.0002 -0.0001 0.0001 22.9116 0.0002 0.0001
# 5 0.0000 0.0001 0.0003 0.0002 16.2964 0.0000
# 6 0.0002 0.0001 -0.0001 0.0001 0.0000 53.4243
#
#
#
# Elastic Compliance Matrix: (Units=1/GPa)
#
#
# Indices 1 2 3 4 5 6 
#
# 1 0.005948 -0.003368 -0.002470 0.000000 0.000000 0.000000
# 2 -0.003368 0.011723 -0.003993 0.000000 0.000000 0.000000
# 3 -0.002470 -0.003993 0.012721 0.000000 0.000000 0.000000
# 4 0.000000 0.000000 0.000000 0.043646 -0.000001 0.000000
# 5 0.000000 0.000000 0.000000 -0.000001 0.061363 0.000000
# 6 0.000000 0.000000 0.000000 0.000000 0.000000 0.018718
#
#
# Mechanical properties :
#
#
# Convention : Reuss Voigt Hill
#
# Bulk Modulus (GPa) = 93.20123 112.33026 102.76574
# Shear Modulus (GPa) = 28.19142 36.03868 32.11505
#
# Velocity S-wave (km/s) = 3.72351 4.20997 3.97419
# Velocity P-wave (km/s) = 8.02012 8.88120 8.46162
#
# Compressibility (1/GPa) = 0.01072947
#
# Stress axis : x y z
#
# Youngs Moduli (GPa) = 168.11461 85.30512 78.60789
#
# Poissons Ratio (x) = 0.28735 0.19415
# Poissons Ratio (y) = 0.56629 0.31389
# Poissons Ratio (z) = 0.41521 0.34064
#
# Static dielectric constant tensor:
#      x y z
#    x 3.873530 0.000000 0.000000 
#    y 0.000000 3.624120 0.000000 
#    z 0.000000 0.000000 3.828540 
# 
# 
# High freq. dielectric constant tensor:
#      x y z
#    x 1.819770 0.000000 0.000000 
#    y 0.000000 1.767130 0.000000 
#    z 0.000000 0.000000 1.795390 
# 
# From -- ./inp_files/28235.got.cif
#   From: 2010.03.12/outbox.cif.g09.slc.cpg/sg72_15_cif.got.tgz:28235.got - 2010.04.16 14:54:00.
