data_PCOD8295602
_publ_section_title
;
Structure prediction by ZEFSAII (Michael W. Deem and Ramdas Pophale) SiO2 
 PCOD8295602
Probable space group: I B C A 
;
_chemical_formula_sum "Si O2"
_cell_formula_units_Z 104
_cell_length_a 17.757197
_cell_length_b 19.140955
_cell_length_c 14.495841
_cell_angle_alpha 90.000000
_cell_angle_beta 90.000000
_cell_angle_gamma 90.000000
_cell_volume 4926.987175
_symmetry_space_group_name_H-M "I B C A "
_symmetry_group_IT_number 73
_symmetry_cell_setting 'orthorhombic'
loop_
_space_group_symop_operation_xyz
x,y,z
-x,1/2-y,z
x,-y,1/2-z
1/2-x,y,-z
-x,-y,-z
x,1/2+y,-z
-x,y,1/2+z
1/2+x,-y,z
1/2+x,1/2+y,1/2+z
1/2-x,-y,1/2+z
1/2+x,1/2-y,-z
-x,1/2+y,1/2-z
1/2-x,1/2-y,1/2-z
1/2+x,y,1/2-z
1/2-x,1/2+y,z
x,1/2-y,1/2+z
loop_
_atom_site_type_symbol
_atom_site_label
_atom_site_fract_x
_atom_site_fract_y
_atom_site_fract_z
Si Si1 0.250000 0.639380 0.000000
Si Si2 0.892701 0.725926 0.788138
Si Si3 0.713185 0.598939 0.176033
Si Si4 0.612161 0.274727 0.980311
Si Si5 0.135631 0.834588 0.134668
Si Si6 0.664606 0.043775 0.636084
Si Si7 0.968842 0.361272 0.863440
O O1 0.310681 0.687199 0.052886
O O2 0.303211 0.590298 0.943071
O O3 0.829213 0.672269 0.823054
O O4 0.854980 0.785066 0.724192
O O5 0.955829 0.687697 0.726368
O O6 0.928455 0.755779 0.883372
O O7 0.797093 0.609437 0.136645
O O8 0.715116 0.565667 0.277132
O O9 0.670766 0.539067 0.114399
O O10 0.638883 0.208434 0.039874
O O11 0.555074 0.320338 0.043007
O O12 0.057209 0.877701 0.135382
O O13 0.576892 0.066259 0.648805
#
# Coordination Sequence:
#
# PCOD8295602 Si02
#       7
#     8  16  16  16  16  16  16
#     4  10  18  32  56  78 104 142 188 226 264 320
#     4  10  19  34  57  84 112 143 179 225 276 325
#     4  10  20  36  56  79 110 143 187 229 266 321
#     4  10  19  32  54  83 110 138 177 227 277 319
#     4  11  21  34  56  85 112 140 179 232 283 325
#     4   9  20  38  55  75 106 151 186 219 267 327
#     4   9  21  37  54  78 113 146 177 221 277 334
#
# _framework density 21.108233999999999
#
# number of rings (size 3 to 8) (size 9 to 14) (size 15 to 20)
#    0.000    2.154    0.000    5.077    0.000    3.692 
#    0.000    6.154    0.000    4.615    0.000    0.000 
#    0.000    0.000    0.000    0.000    0.000    0.000 
#
# Total GULP energy -644386.379365 kJ/mol
# GULP energy per Si atom -12392.045757 kJ/mol
# Density = 2.106019 g / cm^3
# Si number density = 21.108234 Si / 1000 Ang^3
#
#
#
# Elastic Constant Matrix: (Units=GPa)
#
#
# Indices 1 2 3 4 5 6 
#
# 1 108.4552 52.7716 6.4444 0.0000 0.0000 0.0000
# 2 52.7716 105.7937 21.5311 0.0000 0.0000 0.0000
# 3 6.4444 21.5311 106.7623 0.0000 0.0000 0.0000
# 4 0.0000 0.0000 0.0000 15.2339 0.0000 0.0000
# 5 0.0000 0.0000 0.0000 0.0000 10.7098 0.0000
# 6 0.0000 0.0000 0.0000 0.0000 0.0000 23.6087
#
#
#
# Elastic Compliance Matrix: (Units=1/GPa)
#
#
# Indices 1 2 3 4 5 6 
#
# 1 0.012202 -0.006191 0.000512 0.000000 0.000000 0.000000
# 2 -0.006191 0.012998 -0.002248 0.000000 0.000000 0.000000
# 3 0.000512 -0.002248 0.009789 0.000000 0.000000 0.000000
# 4 0.000000 0.000000 0.000000 0.065643 0.000000 0.000000
# 5 0.000000 0.000000 0.000000 0.000000 0.093373 0.000000
# 6 0.000000 0.000000 0.000000 0.000000 0.000000 0.042357
#
#
# Mechanical properties :
#
#
# Convention : Reuss Voigt Hill
#
# Bulk Modulus (GPa) = 52.25727 53.61172 52.93449
# Shear Modulus (GPa) = 19.33533 25.92809 22.63171
#
# Velocity S-wave (km/s) = 3.02985 3.50857 3.27796
# Velocity P-wave (km/s) = 6.08691 6.47047 6.28162
#
# Compressibility (1/GPa) = 0.01913609
#
# Stress axis : x y z
#
# Youngs Moduli (GPa) = 81.95162 76.93531 102.15562
#
# Poissons Ratio (x) = 0.47630 -0.05230
# Poissons Ratio (y) = 0.50736 0.22961
# Poissons Ratio (z) = -0.04196 0.17292
#
# Static dielectric constant tensor:
#      x y z
#    x 3.458170 0.000000 0.000000 
#    y 0.000000 4.224460 0.000000 
#    z 0.000000 0.000000 2.295900 
# 
# 
# High freq. dielectric constant tensor:
#      x y z
#    x 1.823750 0.000000 0.000000 
#    y 0.000000 1.810940 0.000000 
#    z 0.000000 0.000000 1.825430 
# 
# From -- ./inp_files/18119.got.cif
#   From: 2010.03.12/outbox.cif.g09.slc.cpg/sg73_10_cif.got.tgz:18119.got - 2010.04.16 15:25:48.
