data_PCOD8295609
_publ_section_title
;
Structure prediction by ZEFSAII (Michael W. Deem and Ramdas Pophale) SiO2 
 PCOD8295609
Probable space group: I B C A 
;
_chemical_formula_sum "Si O2"
_cell_formula_units_Z 72
_cell_length_a 15.466423
_cell_length_b 21.696963
_cell_length_c 9.225242
_cell_angle_alpha 90.000000
_cell_angle_beta 90.000000
_cell_angle_gamma 90.000000
_cell_volume 3095.755119
_symmetry_space_group_name_H-M "I B C A "
_symmetry_group_IT_number 73
_symmetry_cell_setting 'orthorhombic'
loop_
_space_group_symop_operation_xyz
x,y,z
-x,1/2-y,z
x,-y,1/2-z
1/2-x,y,-z
-x,-y,-z
x,1/2+y,-z
-x,y,1/2+z
1/2+x,-y,z
1/2+x,1/2+y,1/2+z
1/2-x,-y,1/2+z
1/2+x,1/2-y,-z
-x,1/2+y,1/2-z
1/2-x,1/2-y,1/2-z
1/2+x,y,1/2-z
1/2-x,1/2+y,z
x,1/2-y,1/2+z
loop_
_atom_site_type_symbol
_atom_site_label
_atom_site_fract_x
_atom_site_fract_y
_atom_site_fract_z
Si Si1 0.957485 0.122542 0.674885
Si Si2 0.950717 0.500000 0.750000
Si Si3 0.135008 0.184931 0.693505
Si Si4 0.838259 0.912777 0.075907
Si Si5 0.090202 0.713854 0.597602
O O1 0.892945 0.128306 0.537911
O O2 0.919347 0.146371 0.827591
O O3 0.036428 0.168126 0.646051
O O4 0.986823 0.052082 0.687245
O O5 0.890150 0.473968 0.878918
O O6 0.178999 0.127338 0.777205
O O7 0.143951 0.244981 0.790209
O O8 0.161756 0.203721 0.530765
O O9 0.750000 0.933723 0.000000
O O10 0.000000 0.750000 0.560260
#
# Coordination Sequence:
#
# PCOD8295609 Si02
#       5
#    16   8  16  16  16
#     4  10  20  37  62  90 118 158 208 258 312 379
#     4  10  22  40  66  88 114 162 218 266 312 374
#     4  10  19  35  59  89 122 161 207 252 307 375
#     4  11  24  41  60  91 129 164 207 265 325 381
#     4  10  18  32  61  95 123 157 209 264 306 365
#
# _framework density 23.257653999999999
#
# number of rings (size 3 to 8) (size 9 to 14) (size 15 to 20)
#    0.000    1.778    0.000    8.000    0.000    2.667 
#    0.000    5.556    0.000    0.000    0.000   12.444 
#    0.000    0.000    0.000    0.000    0.000    0.000 
#
# Total GULP energy -446010.648011 kJ/mol
# GULP energy per Si atom -12389.184667 kJ/mol
# Density = 2.320472 g / cm^3
# Si number density = 23.257654 Si / 1000 Ang^3
#
#
#
# Elastic Constant Matrix: (Units=GPa)
#
#
# Indices 1 2 3 4 5 6 
#
# 1 41.6644 13.8321 22.4300 0.0000 0.0000 0.0000
# 2 13.8321 136.3611 59.4346 0.0000 0.0000 0.0000
# 3 22.4300 59.4346 159.7523 0.0000 0.0000 0.0000
# 4 0.0000 0.0000 0.0000 42.5516 0.0000 0.0000
# 5 0.0000 0.0000 0.0000 0.0000 21.4965 0.0000
# 6 0.0000 0.0000 0.0000 0.0000 0.0000 9.1322
#
#
#
# Elastic Compliance Matrix: (Units=1/GPa)
#
#
# Indices 1 2 3 4 5 6 
#
# 1 0.026143 -0.001256 -0.003203 0.000000 0.000000 0.000000
# 2 -0.001256 0.008813 -0.003103 0.000000 0.000000 0.000000
# 3 -0.003203 -0.003103 0.007864 0.000000 0.000000 0.000000
# 4 0.000000 0.000000 0.000000 0.023501 0.000000 0.000000
# 5 0.000000 0.000000 0.000000 0.000000 0.046519 0.000000
# 6 0.000000 0.000000 0.000000 0.000000 0.000000 0.109502
#
#
# Mechanical properties :
#
#
# Convention : Reuss Voigt Hill
#
# Bulk Modulus (GPa) = 36.10579 58.79682 47.45131
# Shear Modulus (GPa) = 20.26778 30.77481 25.52130
#
# Velocity S-wave (km/s) = 2.95523 3.64154 3.31619
# Velocity P-wave (km/s) = 5.21560 6.55871 5.92533
#
# Compressibility (1/GPa) = 0.02769639
#
# Stress axis : x y z
#
# Youngs Moduli (GPa) = 38.25162 113.46717 127.16573
#
# Poissons Ratio (x) = 0.14247 0.40737
# Poissons Ratio (y) = 0.04803 0.39454
# Poissons Ratio (z) = 0.12254 0.35204
#
# Static dielectric constant tensor:
#      x y z
#    x 3.662830 0.000000 0.000000 
#    y 0.000000 4.048880 0.000000 
#    z 0.000000 0.000000 4.577370 
# 
# 
# High freq. dielectric constant tensor:
#      x y z
#    x 1.872840 0.000000 0.000000 
#    y 0.000000 1.920470 0.000000 
#    z 0.000000 0.000000 1.942620 
# 
# From -- ./inp_files/5461.got.cif
#   From: 2010.03.12/outbox.cif.g09.slc.cpg/sg73_3_cif.got.tgz:5461.got - 2010.04.16 15:25:48.
