data_PCOD8295934
_publ_section_title
;
Structure prediction by ZEFSAII (Michael W. Deem and Ramdas Pophale) SiO2 
 PCOD8295934
Probable space group: I B C A 
;
_chemical_formula_sum "Si O2"
_cell_formula_units_Z 96
_cell_length_a 18.371177
_cell_length_b 29.681308
_cell_length_c 8.528433
_cell_angle_alpha 90.000000
_cell_angle_beta 90.000000
_cell_angle_gamma 90.000000
_cell_volume 4650.388747
_symmetry_space_group_name_H-M "I B C A "
_symmetry_group_IT_number 73
_symmetry_cell_setting 'orthorhombic'
loop_
_space_group_symop_operation_xyz
x,y,z
-x,1/2-y,z
x,-y,1/2-z
1/2-x,y,-z
-x,-y,-z
x,1/2+y,-z
-x,y,1/2+z
1/2+x,-y,z
1/2+x,1/2+y,1/2+z
1/2-x,-y,1/2+z
1/2+x,1/2-y,-z
-x,1/2+y,1/2-z
1/2-x,1/2-y,1/2-z
1/2+x,y,1/2-z
1/2-x,1/2+y,z
x,1/2-y,1/2+z
loop_
_atom_site_type_symbol
_atom_site_label
_atom_site_fract_x
_atom_site_fract_y
_atom_site_fract_z
Si Si1 0.312237 0.879817 0.612036
Si Si2 0.595902 0.449017 0.722324
Si Si3 0.682573 0.716879 0.715090
Si Si4 0.932585 0.357376 0.862395
Si Si5 0.466593 0.409849 0.929461
Si Si6 0.919589 0.760160 0.063512
O O1 0.250000 0.899287 0.500000
O O2 0.335220 0.917402 0.737390
O O3 0.287654 0.834335 0.704761
O O4 0.377377 0.868729 0.498002
O O5 0.619854 0.500000 0.750000
O O6 0.528720 0.437320 0.837424
O O7 0.579224 0.444606 0.535855
O O8 0.750000 0.750000 0.750000
O O9 0.614866 0.719544 0.836219
O O10 0.645413 0.730368 0.554138
O O11 0.917615 0.383977 0.700239
O O12 0.931435 0.304134 0.825545
O O13 0.008360 0.372675 0.941822
O O14 0.000000 0.750000 0.990968
#
# Coordination Sequence:
#
# PCOD8295934 Si02
#       6
#    16  16  16  16  16  16
#     4  10  22  42  58  80 116 163 204 254 298 357
#     4  10  20  37  64  92 119 152 196 250 312 368
#     4  11  23  41  60  83 121 174 212 244 311 391
#     4   9  20  35  57  82 123 155 194 246 307 360
#     4   9  19  35  60  89 121 154 192 240 311 383
#     4  11  24  34  58  91 122 155 209 271 308 353
#
# _framework density 20.643436000000001
#
# number of rings (size 3 to 8) (size 9 to 14) (size 15 to 20)
#    0.000    2.000    0.000    3.500   11.667    0.000 
#    0.000    4.167    0.000    0.000    0.000    0.000 
#    0.000    0.000    0.000    0.000    0.000    0.000 
#
# Total GULP energy -594757.890013 kJ/mol
# GULP energy per Si atom -12390.789375 kJ/mol
# Density = 2.059645 g / cm^3
# Si number density = 20.643436 Si / 1000 Ang^3
#
#
#
# Elastic Constant Matrix: (Units=GPa)
#
#
# Indices 1 2 3 4 5 6 
#
# 1 60.2989 43.7120 6.7507 -0.0003 0.0005 0.0006
# 2 43.7120 126.6605 51.9010 -0.0006 0.0004 0.0006
# 3 6.7507 51.9010 90.4273 -0.0104 0.0024 -0.0058
# 4 -0.0003 -0.0006 -0.0104 33.1149 0.0004 -0.0008
# 5 0.0005 0.0004 0.0024 0.0004 29.0082 0.0011
# 6 0.0006 0.0006 -0.0058 -0.0008 0.0011 39.4801
#
#
#
# Elastic Compliance Matrix: (Units=1/GPa)
#
#
# Indices 1 2 3 4 5 6 
#
# 1 0.023035 -0.009473 0.003717 0.000001 -0.000001 0.000000
# 2 -0.009473 0.014219 -0.007454 -0.000002 0.000001 -0.000001
# 3 0.003717 -0.007454 0.015059 0.000005 -0.000001 0.000002
# 4 0.000001 -0.000002 0.000005 0.030198 0.000000 0.000001
# 5 -0.000001 0.000001 -0.000001 0.000000 0.034473 -0.000001
# 6 0.000000 -0.000001 0.000002 0.000001 -0.000001 0.025329
#
#
# Mechanical properties :
#
#
# Convention : Reuss Voigt Hill
#
# Bulk Modulus (GPa) = 38.61840 53.56822 46.09331
# Shear Modulus (GPa) = 28.19087 31.98885 30.08986
#
# Velocity S-wave (km/s) = 3.69942 3.94075 3.82199
# Velocity P-wave (km/s) = 6.08240 6.83459 6.46944
#
# Compressibility (1/GPa) = 0.02589439
#
# Stress axis : x y z
#
# Youngs Moduli (GPa) = 43.41223 70.33076 66.40506
#
# Poissons Ratio (x) = 0.66623 -0.24685
# Poissons Ratio (y) = 0.41124 0.49496
# Poissons Ratio (z) = -0.16138 0.52422
#
# Static dielectric constant tensor:
#      x y z
#    x 3.259460 -0.000010 -0.000010 
#    y -0.000010 3.902500 0.000000 
#    z -0.000010 0.000000 3.855240 
# 
# 
# High freq. dielectric constant tensor:
#      x y z
#    x 1.788700 0.000000 0.000000 
#    y 0.000000 1.797520 0.000000 
#    z 0.000000 0.000000 1.811340 
# 
# From -- ./inp_files/6421.got.cif
#   From: 2010.03.12/outbox.cif.g09.slc.cpg/sg73_4_cif.got.tgz:6421.got - 2010.04.16 15:25:48.
