data_PCOD8295168
_publ_section_title
;
Structure prediction by ZEFSAII (Michael W. Deem and Ramdas Pophale) SiO2 
 PCOD8295168
Probable space group: I B A M
;
_chemical_formula_sum "Si O2"
_cell_formula_units_Z 56
_cell_length_a 10.946447
_cell_length_b 24.430367
_cell_length_c 10.111460
_cell_angle_alpha 90.000000
_cell_angle_beta 90.000000
_cell_angle_gamma 90.000000
_cell_volume 2704.064446
_symmetry_space_group_name_H-M "I B A M"
_symmetry_group_IT_number 72
_symmetry_cell_setting 'orthorhombic'
loop_
_space_group_symop_operation_xyz
x,y,z
-x,-y,z
x,-y,1/2-z
-x,y,1/2-z
-x,-y,-z
x,y,-z
-x,y,1/2+z
x,-y,1/2+z
1/2+x,1/2+y,1/2+z
1/2-x,1/2-y,1/2+z
1/2+x,1/2-y,-z
1/2-x,1/2+y,-z
1/2-x,1/2-y,1/2-z
1/2+x,1/2+y,1/2-z
1/2-x,1/2+y,z
1/2+x,1/2-y,z
loop_
_atom_site_type_symbol
_atom_site_label
_atom_site_fract_x
_atom_site_fract_y
_atom_site_fract_z
Si Si1 0.536269 0.629427 0.500000
Si Si2 0.266349 0.199328 0.000000
Si Si3 0.735825 0.671717 0.000000
Si Si4 0.141700 0.629919 0.236968
Si Si5 0.828539 0.045207 0.353376
O O1 0.623140 0.682892 0.500000
O O2 0.397012 0.645026 0.500000
O O3 0.568400 0.592762 0.630331
O O4 0.334752 0.176135 0.127887
O O5 0.278760 0.263720 0.000000
O O6 0.808620 0.652241 0.873864
O O7 0.203937 0.572496 0.198153
O O8 0.000000 0.617306 0.250000
O O9 0.805453 0.018645 0.500000
O O10 0.875042 0.000000 0.250000
#
# Coordination Sequence:
#
# PCOD8295168 Si02
#       5
#     8   8   8  16  16
#     4   8  22  43  67 101 140 161 241 279 321 421
#     4  10  23  46  60  98 138 180 229 286 327 399
#     4  12  25  39  75  94 132 197 219 272 358 388
#     4  11  24  43  66 101 140 172 232 284 327 417
#     4   9  21  45  72  96 136 177 220 287 347 396
#
# _framework density 20.709565999999999
#
# number of rings (size 3 to 8) (size 9 to 14) (size 15 to 20)
#    0.857    1.143    1.429    1.714    6.000    5.143 
#    0.000    5.714    3.143    0.000    0.000    0.000 
#    0.000    0.000    0.000    0.000    0.000    0.000 
#
# Total GULP energy -347124.277560 kJ/mol
# GULP energy per Si atom -12397.295627 kJ/mol
# Density = 2.066243 g / cm^3
# Si number density = 20.709566 Si / 1000 Ang^3
#
#
#
# Elastic Constant Matrix: (Units=GPa)
#
#
# Indices 1 2 3 4 5 6 
#
# 1 143.9973 56.0215 45.4058 0.0000 0.0001 0.0000
# 2 56.0215 117.3871 55.1389 -0.0002 0.0000 0.0000
# 3 45.4058 55.1389 166.1566 -0.0007 0.0007 0.0000
# 4 0.0000 -0.0002 -0.0007 48.2643 0.0000 0.0000
# 5 0.0001 0.0000 0.0007 0.0000 30.8498 0.0000
# 6 0.0000 0.0000 0.0000 0.0000 0.0000 16.5880
#
#
#
# Elastic Compliance Matrix: (Units=1/GPa)
#
#
# Indices 1 2 3 4 5 6 
#
# 1 0.008721 -0.003604 -0.001187 0.000000 0.000000 0.000000
# 2 -0.003604 0.011582 -0.002858 0.000000 0.000000 0.000000
# 3 -0.001187 -0.002858 0.007291 0.000000 0.000000 0.000000
# 4 0.000000 0.000000 0.000000 0.020719 0.000000 0.000000
# 5 0.000000 0.000000 0.000000 0.000000 0.032415 0.000000
# 6 0.000000 0.000000 0.000000 0.000000 0.000000 0.060284
#
#
# Mechanical properties :
#
#
# Convention : Reuss Voigt Hill
#
# Bulk Modulus (GPa) = 81.33836 82.29704 81.81770
# Shear Modulus (GPa) = 31.16994 37.20541 34.18768
#
# Velocity S-wave (km/s) = 3.88377 4.24315 4.06743
# Velocity P-wave (km/s) = 7.71185 7.98941 7.85186
#
# Compressibility (1/GPa) = 0.01229432
#
# Stress axis : x y z
#
# Youngs Moduli (GPa) = 114.66307 86.34356 137.14860
#
# Poissons Ratio (x) = 0.31122 0.16281
# Poissons Ratio (y) = 0.41330 0.39202
# Poissons Ratio (z) = 0.13612 0.24680
#
# Static dielectric constant tensor:
#      x y z
#    x 3.632780 0.000000 0.000000 
#    y 0.000000 3.645140 0.000000 
#    z 0.000000 0.000000 3.982170 
# 
# 
# High freq. dielectric constant tensor:
#      x y z
#    x 1.809810 0.000000 0.000000 
#    y 0.000000 1.803290 0.000000 
#    z 0.000000 0.000000 1.828680 
# 
# From -- ./inp_files/2420.got.cif
#   From: 2010.03.12/outbox.cif.g09.slc.cpg/sg72_2_cif.got.tgz:2420.got - 2010.04.16 14:54:00.
