data_PCOD8295498
_publ_section_title
;
Structure prediction by ZEFSAII (Michael W. Deem and Ramdas Pophale) SiO2 
 PCOD8295498
Probable space group: I B A M
;
_chemical_formula_sum "Si O2"
_cell_formula_units_Z 112
_cell_length_a 15.551009
_cell_length_b 27.808055
_cell_length_c 16.280647
_cell_angle_alpha 90.000000
_cell_angle_beta 90.000000
_cell_angle_gamma 90.000000
_cell_volume 7040.456936
_symmetry_space_group_name_H-M "I B A M"
_symmetry_group_IT_number 72
_symmetry_cell_setting 'orthorhombic'
loop_
_space_group_symop_operation_xyz
x,y,z
-x,-y,z
x,-y,1/2-z
-x,y,1/2-z
-x,-y,-z
x,y,-z
-x,y,1/2+z
x,-y,1/2+z
1/2+x,1/2+y,1/2+z
1/2-x,1/2-y,1/2+z
1/2+x,1/2-y,-z
1/2-x,1/2+y,-z
1/2-x,1/2-y,1/2-z
1/2+x,1/2+y,1/2-z
1/2-x,1/2+y,z
1/2+x,1/2-y,z
loop_
_atom_site_type_symbol
_atom_site_label
_atom_site_fract_x
_atom_site_fract_y
_atom_site_fract_z
Si Si1 0.742722 0.663486 0.679224
Si Si2 0.404133 0.793033 0.753490
Si Si3 0.640402 0.303869 0.669331
Si Si4 0.402632 0.517160 0.590042
Si Si5 0.347396 0.581882 0.097956
Si Si6 0.466276 0.386268 0.902544
Si Si7 0.801806 0.260565 0.406340
O O1 0.841738 0.669978 0.706075
O O2 0.684393 0.665326 0.759674
O O3 0.731830 0.611407 0.636758
O O4 0.713476 0.705013 0.616422
O O5 0.500000 0.814869 0.750000
O O6 0.405256 0.742781 0.705711
O O7 0.372928 0.784538 0.847015
O O8 0.566741 0.335087 0.627152
O O9 0.712095 0.288891 0.602971
O O10 0.500000 0.500000 0.580413
O O11 0.361712 0.524338 0.500000
O O12 0.348957 0.473516 0.633034
O O13 0.407003 0.569566 0.634690
O O14 0.435002 0.608834 0.125692
O O15 0.338904 0.580771 0.000000
O O16 0.461143 0.390034 0.000000
O O17 0.834340 0.264323 0.500000
#
# Coordination Sequence:
#
# PCOD8295498 Si02
#       7
#    16  16  16  16  16  16  16
#     4   9  18  30  42  59  83 114 143 181 227 266
#     4   9  19  33  45  60  86 118 147 183 236 274
#     4   9  18  28  42  60  84 114 141 178 223 264
#     4   7  12  24  38  56  86 116 142 177 212 243
#     4   9  16  26  42  62  86 118 150 178 215 262
#     4   9  16  25  41  64  86 115 153 182 209 255
#     4   9  17  31  46  61  83 109 145 186 221 264
#
# _framework density 15.908058
#
# number of rings (size 3 to 8) (size 9 to 14) (size 15 to 20)
#    0.000    3.286    0.000    4.286    4.000    0.000 
#    0.000    4.286    0.000    2.571    0.000    0.000 
#    0.000    9.143    0.000   22.143    0.000    0.000 
#
# Total GULP energy -693797.594250 kJ/mol
# GULP energy per Si atom -12389.242754 kJ/mol
# Density = 1.587185 g / cm^3
# Si number density = 15.908058 Si / 1000 Ang^3
#
#
#
# Elastic Constant Matrix: (Units=GPa)
#
#
# Indices 1 2 3 4 5 6 
#
# 1 76.9783 29.4355 26.9568 0.0000 0.0000 0.0000
# 2 29.4355 77.9248 26.7493 0.0001 0.0000 0.0000
# 3 26.9568 26.7493 58.9875 0.0001 0.0000 0.0000
# 4 0.0000 0.0001 0.0001 14.3788 0.0000 0.0000
# 5 0.0000 0.0000 0.0000 0.0000 16.1930 0.0000
# 6 0.0000 0.0000 0.0000 0.0000 0.0000 25.8844
#
#
#
# Elastic Compliance Matrix: (Units=1/GPa)
#
#
# Indices 1 2 3 4 5 6 
#
# 1 0.016623 -0.004348 -0.005625 0.000000 0.000000 0.000000
# 2 -0.004348 0.016336 -0.005421 0.000000 0.000000 0.000000
# 3 -0.005625 -0.005421 0.021981 0.000000 0.000000 0.000000
# 4 0.000000 0.000000 0.000000 0.069547 0.000000 0.000000
# 5 0.000000 0.000000 0.000000 0.000000 0.061755 0.000000
# 6 0.000000 0.000000 0.000000 0.000000 0.000000 0.038633
#
#
# Mechanical properties :
#
#
# Convention : Reuss Voigt Hill
#
# Bulk Modulus (GPa) = 41.40315 42.24153 41.82234
# Shear Modulus (GPa) = 18.95986 20.00784 19.48385
#
# Velocity S-wave (km/s) = 3.45605 3.55028 3.50348
# Velocity P-wave (km/s) = 6.48141 6.58917 6.53551
#
# Compressibility (1/GPa) = 0.02415275
#
# Stress axis : x y z
#
# Youngs Moduli (GPa) = 60.15697 61.21331 45.49294
#
# Poissons Ratio (x) = 0.26618 0.25589
# Poissons Ratio (y) = 0.26159 0.24661
# Poissons Ratio (z) = 0.33837 0.33183
#
# Static dielectric constant tensor:
#      x y z
#    x 2.758970 0.000000 0.000000 
#    y 0.000000 3.142800 0.000000 
#    z 0.000000 0.000000 2.848970 
# 
# 
# High freq. dielectric constant tensor:
#      x y z
#    x 1.572050 0.000000 0.000000 
#    y 0.000000 1.600940 0.000000 
#    z 0.000000 0.000000 1.602100 
# 
# From -- ./inp_files/22402.got.cif
#   From: 2010.03.12/outbox.cif.g09.slc.cpg/sg72_12_cif.got.tgz:22402.got - 2010.04.16 14:54:00.
