data_PCOD8295568
_publ_section_title
;
Structure prediction by ZEFSAII (Michael W. Deem and Ramdas Pophale) SiO2 
 PCOD8295568
Probable space group: I B C A 
;
_chemical_formula_sum "Si O2"
_cell_formula_units_Z 128
_cell_length_a 24.456470
_cell_length_b 22.565032
_cell_length_c 12.352459
_cell_angle_alpha 90.000000
_cell_angle_beta 90.000000
_cell_angle_gamma 90.000000
_cell_volume 6816.840724
_symmetry_space_group_name_H-M "I B C A "
_symmetry_group_IT_number 73
_symmetry_cell_setting 'orthorhombic'
loop_
_space_group_symop_operation_xyz
x,y,z
-x,1/2-y,z
x,-y,1/2-z
1/2-x,y,-z
-x,-y,-z
x,1/2+y,-z
-x,y,1/2+z
1/2+x,-y,z
1/2+x,1/2+y,1/2+z
1/2-x,-y,1/2+z
1/2+x,1/2-y,-z
-x,1/2+y,1/2-z
1/2-x,1/2-y,1/2-z
1/2+x,y,1/2-z
1/2-x,1/2+y,z
x,1/2-y,1/2+z
loop_
_atom_site_type_symbol
_atom_site_label
_atom_site_fract_x
_atom_site_fract_y
_atom_site_fract_z
Si Si1 0.064887 0.807751 0.714762
Si Si2 0.611334 0.801558 0.015591
Si Si3 0.208179 0.379688 0.588909
Si Si4 0.242193 0.315317 0.213959
Si Si5 0.802138 0.895936 0.562098
Si Si6 0.868124 0.673576 0.905401
Si Si7 0.132195 0.564350 0.750190
Si Si8 0.940639 0.323394 0.232588
O O1 0.090208 0.826417 0.599675
O O2 0.084664 0.844614 0.820239
O O3 0.084628 0.739349 0.729864
O O4 0.000782 0.821637 0.717141
O O5 0.672176 0.826293 0.038554
O O6 0.614967 0.730245 0.021741
O O7 0.565853 0.824718 0.102133
O O8 0.250000 0.406870 0.500000
O O9 0.247013 0.358025 0.685176
O O10 0.164470 0.426939 0.636201
O O11 0.250000 0.250000 0.250000
O O12 0.282140 0.333856 0.115637
O O13 0.180720 0.315813 0.176647
O O14 0.750000 0.925041 0.500000
O O15 0.852836 0.881137 0.482927
O O16 0.823260 0.940300 0.653814
O O17 0.102116 0.500000 0.750000
O O18 0.091187 0.618661 0.722688
#
# Coordination Sequence:
#
# PCOD8295568 Si02
#       8
#    16  16  16  16  16  16  16  16
#     4  10  20  33  54  78 108 139 168 225 282 337
#     4  10  19  30  49  75 109 141 173 212 264 334
#     4  10  20  31  50  80 109 141 183 224 266 322
#     4  10  18  28  46  74 117 152 176 205 264 335
#     4   9  20  32  48  78 108 142 181 218 260 328
#     4  10  19  29  48  76 112 148 175 206 271 332
#     4  10  21  39  58  74 102 145 192 235 265 320
#     4   9  21  36  50  77 102 134 184 219 275 333
#
# _framework density 18.777028000000001
#
# number of rings (size 3 to 8) (size 9 to 14) (size 15 to 20)
#    0.000    2.250    1.250    1.500    5.250    5.500 
#    0.000    0.000    0.000    6.750    0.000    3.500 
#    0.000    0.000    0.000    0.000    0.000    0.000 
#
# Total GULP energy -792836.938230 kJ/mol
# GULP energy per Si atom -12388.077160 kJ/mol
# Density = 1.873429 g / cm^3
# Si number density = 18.777028 Si / 1000 Ang^3
#
#
#
# Elastic Constant Matrix: (Units=GPa)
#
#
# Indices 1 2 3 4 5 6 
#
# 1 63.9436 15.0255 32.9076 0.0000 0.0000 0.0000
# 2 15.0255 61.3702 5.8973 0.0000 0.0000 0.0000
# 3 32.9076 5.8973 97.7700 0.0000 0.0000 0.0000
# 4 0.0000 0.0000 0.0000 8.4648 0.0000 0.0000
# 5 0.0000 0.0000 0.0000 0.0000 30.4981 0.0000
# 6 0.0000 0.0000 0.0000 0.0000 0.0000 15.0659
#
#
#
# Elastic Compliance Matrix: (Units=1/GPa)
#
#
# Indices 1 2 3 4 5 6 
#
# 1 0.019968 -0.004268 -0.006463 0.000000 0.000000 0.000000
# 2 -0.004268 0.017302 0.000393 0.000000 0.000000 0.000000
# 3 -0.006463 0.000393 0.012380 0.000000 0.000000 0.000000
# 4 0.000000 0.000000 0.000000 0.118136 0.000000 0.000000
# 5 0.000000 0.000000 0.000000 0.000000 0.032789 0.000000
# 6 0.000000 0.000000 0.000000 0.000000 0.000000 0.066375
#
#
# Mechanical properties :
#
#
# Convention : Reuss Voigt Hill
#
# Bulk Modulus (GPa) = 34.51508 36.74941 35.63225
# Shear Modulus (GPa) = 16.81894 22.08932 19.45413
#
# Velocity S-wave (km/s) = 2.99610 3.43359 3.22228
# Velocity P-wave (km/s) = 5.51274 5.94419 5.73252
#
# Compressibility (1/GPa) = 0.02897284
#
# Stress axis : x y z
#
# Youngs Moduli (GPa) = 50.08031 57.79786 80.77639
#
# Poissons Ratio (x) = 0.24667 0.52209
# Poissons Ratio (y) = 0.21373 -0.03173
# Poissons Ratio (z) = 0.32369 -0.02270
#
# Static dielectric constant tensor:
#      x y z
#    x 3.346060 0.000000 0.000000 
#    y 0.000000 2.835770 0.000000 
#    z 0.000000 0.000000 3.605980 
# 
# 
# High freq. dielectric constant tensor:
#      x y z
#    x 1.722690 0.000000 0.000000 
#    y 0.000000 1.673210 0.000000 
#    z 0.000000 0.000000 1.746840 
# 
# From -- ./inp_files/14479.got.cif
#   From: 2010.03.12/outbox.cif.g09.slc.cpg/sg73_8_cif.got.tgz:14479.got - 2010.04.16 15:25:48.
