data_PCOD8295090
_publ_section_title
;
Structure prediction by ZEFSAII (Michael W. Deem and Ramdas Pophale) SiO2 
 PCOD8295090
Probable space group: I B A M
;
_chemical_formula_sum "Si O2"
_cell_formula_units_Z 88
_cell_length_a 11.608072
_cell_length_b 24.500216
_cell_length_c 15.121305
_cell_angle_alpha 90.000000
_cell_angle_beta 90.000000
_cell_angle_gamma 90.000000
_cell_volume 4300.503245
_symmetry_space_group_name_H-M "I B A M"
_symmetry_group_IT_number 72
_symmetry_cell_setting 'orthorhombic'
loop_
_space_group_symop_operation_xyz
x,y,z
-x,-y,z
x,-y,1/2-z
-x,y,1/2-z
-x,-y,-z
x,y,-z
-x,y,1/2+z
x,-y,1/2+z
1/2+x,1/2+y,1/2+z
1/2-x,1/2-y,1/2+z
1/2+x,1/2-y,-z
1/2-x,1/2+y,-z
1/2-x,1/2-y,1/2-z
1/2+x,1/2+y,1/2-z
1/2-x,1/2+y,z
1/2+x,1/2-y,z
loop_
_atom_site_type_symbol
_atom_site_label
_atom_site_fract_x
_atom_site_fract_y
_atom_site_fract_z
Si Si1 0.767495 0.461759 0.000000
Si Si2 0.341856 0.153500 0.000000
Si Si3 0.406586 0.375492 0.500000
Si Si4 0.495066 0.794107 0.646798
Si Si5 0.373772 0.021576 0.654088
Si Si6 0.798921 0.637346 0.898367
Si Si7 0.950512 0.832451 0.344118
O O1 0.861061 0.412099 0.000000
O O2 0.638308 0.437851 0.000000
O O3 0.780872 0.498275 0.913490
O O4 0.204067 0.165758 0.000000
O O5 0.394816 0.176267 0.091132
O O6 0.483720 0.368731 0.585626
O O7 0.500000 0.811141 0.750000
O O8 0.617306 0.810354 0.604786
O O9 0.472861 0.730464 0.634202
O O10 0.364846 0.087209 0.649615
O O11 0.500000 0.000000 0.627516
O O12 0.339449 0.000000 0.750000
O O13 0.684279 0.653465 0.845767
O O14 0.770180 0.623193 0.000000
O O15 0.000000 0.849119 0.250000
#
# Coordination Sequence:
#
# PCOD8295090 Si02
#       7
#     8   8   8  16  16  16  16
#     4  10  23  41  66  94 132 170 216 275 333 397
#     4  10  23  39  70  93 137 175 222 277 342 407
#     4  10  25  42  70  92 138 181 229 270 343 408
#     4  11  26  41  67 102 135 179 223 279 343 402
#     4  11  25  43  69 101 136 171 220 282 340 395
#     4  12  26  43  72 100 139 176 231 282 335 403
#     4  11  27  46  66  98 140 182 229 279 331 408
#
# _framework density 20.462720999999998
#
# number of rings (size 3 to 8) (size 9 to 14) (size 15 to 20)
#    0.545    0.545    2.727    1.909   12.727    1.455 
#    0.000    1.818    0.000    0.000    0.000    0.000 
#    0.000    0.000    0.000    0.000    0.000    0.000 
#
# Total GULP energy -545619.564301 kJ/mol
# GULP energy per Si atom -12400.444643 kJ/mol
# Density = 2.041615 g / cm^3
# Si number density = 20.462721 Si / 1000 Ang^3
#
#
#
# Elastic Constant Matrix: (Units=GPa)
#
#
# Indices 1 2 3 4 5 6 
#
# 1 128.8613 43.2142 18.2048 0.0000 0.0000 0.0000
# 2 43.2142 100.8805 28.9164 -0.0002 0.0000 0.0000
# 3 18.2048 28.9164 104.2296 -0.0007 -0.0002 -0.0001
# 4 0.0000 -0.0002 -0.0007 52.5264 0.0000 0.0000
# 5 0.0000 0.0000 -0.0002 0.0000 22.1678 0.0000
# 6 0.0000 0.0000 -0.0001 0.0000 0.0000 26.8723
#
#
#
# Elastic Compliance Matrix: (Units=1/GPa)
#
#
# Indices 1 2 3 4 5 6 
#
# 1 0.009091 -0.003736 -0.000551 0.000000 0.000000 0.000000
# 2 -0.003736 0.012305 -0.002761 0.000000 0.000000 0.000000
# 3 -0.000551 -0.002761 0.010456 0.000000 0.000000 0.000000
# 4 0.000000 0.000000 0.000000 0.019038 0.000000 0.000000
# 5 0.000000 0.000000 0.000000 0.000000 0.045111 0.000000
# 6 0.000000 0.000000 0.000000 0.000000 0.000000 0.037213
#
#
# Mechanical properties :
#
#
# Convention : Reuss Voigt Hill
#
# Bulk Modulus (GPa) = 56.32257 57.18248 56.75252
# Shear Modulus (GPa) = 32.63073 36.55570 34.59321
#
# Velocity S-wave (km/s) = 3.99763 4.23123 4.11609
# Velocity P-wave (km/s) = 6.99230 7.20253 7.09820
#
# Compressibility (1/GPa) = 0.01775487
#
# Stress axis : x y z
#
# Youngs Moduli (GPa) = 109.99681 81.26969 95.63430
#
# Poissons Ratio (x) = 0.30365 0.05272
# Poissons Ratio (y) = 0.41099 0.26406
# Poissons Ratio (z) = 0.06064 0.22439
#
# Static dielectric constant tensor:
#      x y z
#    x 3.607970 0.000000 0.000000 
#    y 0.000000 3.697200 0.000000 
#    z 0.000000 0.000000 3.725580 
# 
# 
# High freq. dielectric constant tensor:
#      x y z
#    x 1.794660 0.000000 0.000000 
#    y 0.000000 1.797950 0.000000 
#    z 0.000000 0.000000 1.814090 
# 
# From -- ./inp_files/20354.got.cif
#   From: 2010.03.12/outbox.cif.g09.slc.cpg/sg72_11_cif.got.tgz:20354.got - 2010.04.16 14:54:00.
