data_PCOD8295672
_publ_section_title
;
Structure prediction by ZEFSAII (Michael W. Deem and Ramdas Pophale) SiO2 
 PCOD8295672
Probable space group: I B C A 
;
_chemical_formula_sum "Si O2"
_cell_formula_units_Z 112
_cell_length_a 33.010887
_cell_length_b 14.445398
_cell_length_c 11.376103
_cell_angle_alpha 90.000000
_cell_angle_beta 90.000000
_cell_angle_gamma 90.000000
_cell_volume 5424.756158
_symmetry_space_group_name_H-M "I B C A "
_symmetry_group_IT_number 73
_symmetry_cell_setting 'orthorhombic'
loop_
_space_group_symop_operation_xyz
x,y,z
-x,1/2-y,z
x,-y,1/2-z
1/2-x,y,-z
-x,-y,-z
x,1/2+y,-z
-x,y,1/2+z
1/2+x,-y,z
1/2+x,1/2+y,1/2+z
1/2-x,-y,1/2+z
1/2+x,1/2-y,-z
-x,1/2+y,1/2-z
1/2-x,1/2-y,1/2-z
1/2+x,y,1/2-z
1/2-x,1/2+y,z
x,1/2-y,1/2+z
loop_
_atom_site_type_symbol
_atom_site_label
_atom_site_fract_x
_atom_site_fract_y
_atom_site_fract_z
Si Si1 0.778831 0.483455 0.113818
Si Si2 0.157692 0.124210 0.483324
Si Si3 0.386075 0.727611 0.298283
Si Si4 0.829657 0.193288 0.600365
Si Si5 0.591997 0.132588 0.527983
Si Si6 0.410037 0.051467 0.372141
Si Si7 0.953542 0.256629 0.629871
O O1 0.761919 0.500000 0.250000
O O2 0.791998 0.376346 0.107653
O O3 0.750000 0.501658 0.000000
O O4 0.815607 0.554160 0.092992
O O5 0.119046 0.155706 0.404917
O O6 0.182471 0.217141 0.521215
O O7 0.136590 0.080478 0.598653
O O8 0.343419 0.729061 0.228305
O O9 0.393540 0.832569 0.343010
O O10 0.425731 0.701185 0.223401
O O11 0.868601 0.138056 0.553870
O O12 0.555175 0.200793 0.490420
O O13 0.576794 0.026883 0.532510
O O14 0.440836 0.136552 0.380865
O O15 0.411852 0.000000 0.250000
O O16 0.000000 0.250000 0.666793
#
# Coordination Sequence:
#
# PCOD8295672 Si02
#       7
#    16  16  16  16  16  16  16
#     4  12  27  47  68 104 144 178 223 289 354 413
#     4  11  22  41  72 100 125 179 230 278 333 419
#     4  10  18  40  65  92 127 175 223 271 332 408
#     4  10  20  40  69  96 126 170 224 273 331 414
#     4  10  20  37  64  96 120 167 228 274 333 395
#     4  12  21  38  66  96 127 174 235 279 330 405
#     4  11  24  39  58  94 138 172 217 285 348 396
#
# _framework density 20.646090000000001
#
# number of rings (size 3 to 8) (size 9 to 14) (size 15 to 20)
#    0.000    1.143    8.571    0.000    0.000    2.286 
#    5.143    2.857    0.000    0.000    0.000    0.000 
#    0.000    0.000    0.000    0.000    0.000    0.000 
#
# Total GULP energy -693758.062335 kJ/mol
# GULP energy per Si atom -12388.536827 kJ/mol
# Density = 2.059910 g / cm^3
# Si number density = 20.646090 Si / 1000 Ang^3
#
#
#
# Elastic Constant Matrix: (Units=GPa)
#
#
# Indices 1 2 3 4 5 6 
#
# 1 66.2279 35.2195 27.6774 0.0000 0.0000 0.0000
# 2 35.2195 145.9977 44.6276 0.0000 0.0000 0.0000
# 3 27.6774 44.6276 87.5145 0.0000 0.0000 0.0000
# 4 0.0000 0.0000 0.0000 23.9129 0.0000 0.0000
# 5 0.0000 0.0000 0.0000 0.0000 23.4637 0.0000
# 6 0.0000 0.0000 0.0000 0.0000 0.0000 24.3058
#
#
#
# Elastic Compliance Matrix: (Units=1/GPa)
#
#
# Indices 1 2 3 4 5 6 
#
# 1 0.018567 -0.003180 -0.004250 0.000000 0.000000 0.000000
# 2 -0.003180 0.008659 -0.003410 0.000000 0.000000 0.000000
# 3 -0.004250 -0.003410 0.014510 0.000000 0.000000 0.000000
# 4 0.000000 0.000000 0.000000 0.041818 0.000000 0.000000
# 5 0.000000 0.000000 0.000000 0.000000 0.042619 0.000000
# 6 0.000000 0.000000 0.000000 0.000000 0.000000 0.041142
#
#
# Mechanical properties :
#
#
# Convention : Reuss Voigt Hill
#
# Bulk Modulus (GPa) = 49.86241 57.19879 53.53060
# Shear Modulus (GPa) = 25.55191 27.15085 26.35138
#
# Velocity S-wave (km/s) = 3.52179 3.63031 3.57646
# Velocity P-wave (km/s) = 6.38285 6.73326 6.56039
#
# Compressibility (1/GPa) = 0.02005519
#
# Stress axis : x y z
#
# Youngs Moduli (GPa) = 53.86023 115.48979 68.91897
#
# Poissons Ratio (x) = 0.36721 0.29294
# Poissons Ratio (y) = 0.17126 0.23501
# Poissons Ratio (z) = 0.22893 0.39381
#
# Static dielectric constant tensor:
#      x y z
#    x 3.271300 0.000000 0.000000 
#    y 0.000000 3.994590 0.000000 
#    z 0.000000 0.000000 4.142610 
# 
# 
# High freq. dielectric constant tensor:
#      x y z
#    x 1.756560 0.000000 0.000000 
#    y 0.000000 1.821570 0.000000 
#    z 0.000000 0.000000 1.823670 
# 
# From -- ./inp_files/14822.got.cif
#   From: 2010.03.12/outbox.cif.g09.slc.cpg/sg73_8_cif.got.tgz:14822.got - 2010.04.16 15:25:48.
