data_PCOD8295181
_publ_section_title
;
Structure prediction by ZEFSAII (Michael W. Deem and Ramdas Pophale) SiO2 
 PCOD8295181
Probable space group: I B A M
;
_chemical_formula_sum "Si O2"
_cell_formula_units_Z 60
_cell_length_a 25.195069
_cell_length_b 11.794473
_cell_length_c 8.965661
_cell_angle_alpha 90.000000
_cell_angle_beta 90.000000
_cell_angle_gamma 90.000000
_cell_volume 2664.258784
_symmetry_space_group_name_H-M "I B A M"
_symmetry_group_IT_number 72
_symmetry_cell_setting 'orthorhombic'
loop_
_space_group_symop_operation_xyz
x,y,z
-x,-y,z
x,-y,1/2-z
-x,y,1/2-z
-x,-y,-z
x,y,-z
-x,y,1/2+z
x,-y,1/2+z
1/2+x,1/2+y,1/2+z
1/2-x,1/2-y,1/2+z
1/2+x,1/2-y,-z
1/2-x,1/2+y,-z
1/2-x,1/2-y,1/2-z
1/2+x,1/2+y,1/2-z
1/2-x,1/2+y,z
1/2+x,1/2-y,z
loop_
_atom_site_type_symbol
_atom_site_label
_atom_site_fract_x
_atom_site_fract_y
_atom_site_fract_z
Si Si1 0.894109 0.344097 0.500000
Si Si2 0.519467 0.341353 0.000000
Si Si3 0.500000 0.500000 0.750000
Si Si4 0.313078 0.850008 0.500000
Si Si5 0.357412 0.000000 0.750000
Si Si6 0.147662 0.000000 0.250000
Si Si7 0.102629 0.849845 0.000000
Si Si8 0.306256 0.346236 0.500000
O O1 0.947775 0.273093 0.500000
O O2 0.894860 0.421152 0.352072
O O3 0.842927 0.263898 0.500000
O O4 0.535267 0.418345 0.143105
O O5 0.457698 0.305720 0.000000
O O6 0.319293 0.925276 0.647195
O O7 0.356408 0.752304 0.500000
O O8 0.253846 0.799412 0.500000
O O9 0.109837 0.923002 0.148580
O O10 0.184687 0.921344 0.352672
#
# Coordination Sequence:
#
# PCOD8295181 Si02
#       8
#     8   8   4   8   8   8   8   8
#     4  11  26  46  71  96 135 180 236 271 336 391
#     4  11  26  43  71 105 140 178 213 281 343 418
#     4  10  26  42  74 104 148 172 208 284 356 394
#     4  11  24  44  68  95 133 178 230 276 335 384
#     4  10  25  48  66  92 134 185 226 286 320 392
#     4  10  24  40  65 102 140 168 210 271 352 410
#     4  11  24  42  67  98 134 175 216 272 335 407
#     4  11  24  41  68 103 133 175 220 279 337 411
#
# _framework density 22.520334999999999
#
# number of rings (size 3 to 8) (size 9 to 14) (size 15 to 20)
#    0.000    1.333    0.000    3.200   14.933    8.533 
#    0.000    4.000    0.000    0.000    0.000    0.000 
#    0.000    0.000    0.000    0.000    0.000    0.000 
#
# Total GULP energy -372106.858466 kJ/mol
# GULP energy per Si atom -12403.561949 kJ/mol
# Density = 2.246908 g / cm^3
# Si number density = 22.520335 Si / 1000 Ang^3
#
#
#
# Elastic Constant Matrix: (Units=GPa)
#
#
# Indices 1 2 3 4 5 6 
#
# 1 188.3740 87.2739 57.8064 0.0000 0.0000 0.0000
# 2 87.2739 153.6253 78.1648 0.0000 0.0000 0.0000
# 3 57.8064 78.1648 185.9025 0.0000 0.0000 0.0000
# 4 0.0000 0.0000 0.0000 -38.4615 0.0000 0.0000
# 5 0.0000 0.0000 0.0000 0.0000 17.8301 0.0000
# 6 0.0000 0.0000 0.0000 0.0000 0.0000 38.0119
#
#
#
# Elastic Compliance Matrix: (Units=1/GPa)
#
#
# Indices 1 2 3 4 5 6 
#
# 1 0.007269 -0.003790 -0.000667 0.000000 0.000000 0.000000
# 2 -0.003790 0.010257 -0.003134 0.000000 0.000000 0.000000
# 3 -0.000667 -0.003134 0.006904 0.000000 0.000000 0.000000
# 4 0.000000 0.000000 0.000000 -0.026000 0.000000 0.000000
# 5 0.000000 0.000000 0.000000 0.000000 0.056085 0.000000
# 6 0.000000 0.000000 0.000000 0.000000 0.000000 0.026308
#
#
# Mechanical properties :
#
#
# Convention : Reuss Voigt Hill
#
# Bulk Modulus (GPa) = 108.12752 108.26578 108.19665
# Shear Modulus (GPa) = 50.45980 23.78654 37.12317
#
# Velocity S-wave (km/s) = 4.73867 3.25349 4.06449
# Velocity P-wave (km/s) = 8.83501 7.89257 8.37705
#
# Compressibility (1/GPa) = 0.00924834
#
# Stress axis : x y z
#
# Youngs Moduli (GPa) = 137.56509 97.49094 144.83819
#
# Poissons Ratio (x) = 0.36954 0.09656
# Poissons Ratio (y) = 0.52144 0.45395
# Poissons Ratio (z) = 0.09171 0.30555
#
# Static dielectric constant tensor:
#      x y z
#    x 3.705940 0.000000 0.000000 
#    y 0.000000 4.173600 0.000000 
#    z 0.000000 0.000000 4.552830 
# 
# 
# High freq. dielectric constant tensor:
#      x y z
#    x 1.878280 0.000000 0.000000 
#    y 0.000000 1.887090 0.000000 
#    z 0.000000 0.000000 1.919470 
# 
# From -- ./inp_files/2464.got.cif
#   From: 2010.03.12/outbox.cif.g09.slc.cpg/sg72_2_cif.got.tgz:2464.got - 2010.04.16 14:54:00.
