data_PCOD8295937
_publ_section_title
;
Structure prediction by ZEFSAII (Michael W. Deem and Ramdas Pophale) SiO2 
 PCOD8295937
Probable space group: I B C A 
;
_chemical_formula_sum "Si O2"
_cell_formula_units_Z 96
_cell_length_a 8.467113
_cell_length_b 16.876891
_cell_length_c 27.167589
_cell_angle_alpha 90.000000
_cell_angle_beta 90.000000
_cell_angle_gamma 90.000000
_cell_volume 3882.208890
_symmetry_space_group_name_H-M "I B C A "
_symmetry_group_IT_number 73
_symmetry_cell_setting 'orthorhombic'
loop_
_space_group_symop_operation_xyz
x,y,z
-x,1/2-y,z
x,-y,1/2-z
1/2-x,y,-z
-x,-y,-z
x,1/2+y,-z
-x,y,1/2+z
1/2+x,-y,z
1/2+x,1/2+y,1/2+z
1/2-x,-y,1/2+z
1/2+x,1/2-y,-z
-x,1/2+y,1/2-z
1/2-x,1/2-y,1/2-z
1/2+x,y,1/2-z
1/2-x,1/2+y,z
x,1/2-y,1/2+z
loop_
_atom_site_type_symbol
_atom_site_label
_atom_site_fract_x
_atom_site_fract_y
_atom_site_fract_z
Si Si1 0.352108 0.304876 0.453661
Si Si2 0.783708 0.972872 0.947059
Si Si3 0.502714 0.916793 0.388936
Si Si4 0.706593 0.224686 0.136656
Si Si5 0.810166 0.629195 0.697432
Si Si6 0.458966 0.161043 0.296825
O O1 0.500000 0.250000 0.455298
O O2 0.250000 0.279685 0.500000
O O3 0.401622 0.397952 0.455065
O O4 0.261792 0.288806 0.402893
O O5 0.618516 0.931030 0.933003
O O6 0.846677 0.028506 0.903120
O O7 0.750000 0.016092 0.000000
O O8 0.563805 0.826279 0.386139
O O9 0.412420 0.932183 0.336726
O O10 0.653051 0.279115 0.182672
O O11 0.847272 0.165029 0.154552
O O12 0.621317 0.613224 0.691649
O O13 0.864288 0.616309 0.753533
O O14 0.500000 0.250000 0.279965
#
# Coordination Sequence:
#
# PCOD8295937 Si02
#       6
#    16  16  16  16  16  16
#     4  11  26  44  72 108 145 182 245 307 364 427
#     4  11  28  49  69 100 144 194 244 293 361 439
#     4  12  26  44  72  99 143 191 239 293 362 434
#     4  11  23  41  72 107 142 185 238 303 368 429
#     4  11  21  40  70 111 139 184 240 295 362 432
#     4  10  20  37  69 113 145 178 233 302 364 438
#
# _framework density 24.728189
#
# number of rings (size 3 to 8) (size 9 to 14) (size 15 to 20)
#    0.000    1.000    1.667    6.500    7.000    0.667 
#    0.000    0.000    0.000   12.000    0.000    0.000 
#    0.000    0.000    0.000    0.000    0.000    0.000 
#
# Total GULP energy -594924.147598 kJ/mol
# GULP energy per Si atom -12394.253075 kJ/mol
# Density = 2.467191 g / cm^3
# Si number density = 24.728189 Si / 1000 Ang^3
#
#
#
# Elastic Constant Matrix: (Units=GPa)
#
#
# Indices 1 2 3 4 5 6 
#
# 1 106.1011 20.4659 35.3359 0.0000 0.0000 0.0000
# 2 20.4659 47.3372 17.0345 0.0000 0.0000 0.0000
# 3 35.3359 17.0345 132.7277 0.0000 0.0000 0.0000
# 4 0.0000 0.0000 0.0000 33.0608 0.0000 0.0000
# 5 0.0000 0.0000 0.0000 0.0000 42.7986 0.0000
# 6 0.0000 0.0000 0.0000 0.0000 0.0000 35.7103
#
#
#
# Elastic Compliance Matrix: (Units=1/GPa)
#
#
# Indices 1 2 3 4 5 6 
#
# 1 0.010980 -0.003874 -0.002426 0.000000 0.000000 0.000000
# 2 -0.003874 0.023515 -0.001987 0.000000 0.000000 0.000000
# 3 -0.002426 -0.001987 0.008435 0.000000 0.000000 0.000000
# 4 0.000000 0.000000 0.000000 0.030247 0.000000 0.000000
# 5 0.000000 0.000000 0.000000 0.000000 0.023365 0.000000
# 6 0.000000 0.000000 0.000000 0.000000 0.000000 0.028003
#
#
# Mechanical properties :
#
#
# Convention : Reuss Voigt Hill
#
# Bulk Modulus (GPa) = 37.94105 47.98206 42.96156
# Shear Modulus (GPa) = 33.35448 36.53593 34.94520
#
# Velocity S-wave (km/s) = 3.67665 3.84800 3.76330
# Velocity P-wave (km/s) = 5.77929 6.26009 6.02449
#
# Compressibility (1/GPa) = 0.02635668
#
# Stress axis : x y z
#
# Youngs Moduli (GPa) = 91.07271 42.52624 118.55290
#
# Poissons Ratio (x) = 0.16476 0.28761
# Poissons Ratio (y) = 0.35283 0.23551
# Poissons Ratio (z) = 0.22095 0.08448
#
# Static dielectric constant tensor:
#      x y z
#    x 4.342490 0.000000 0.000000 
#    y 0.000000 4.084590 0.000000 
#    z 0.000000 0.000000 4.321830 
# 
# 
# High freq. dielectric constant tensor:
#      x y z
#    x 1.998130 0.000000 0.000000 
#    y 0.000000 1.941770 0.000000 
#    z 0.000000 0.000000 1.990200 
# 
# From -- ./inp_files/31170.got.cif
#   From: 2010.03.12/outbox.cif.g09.slc.cpg/sg73_16_cif.got.tgz:31170.got - 2010.04.16 15:25:48.
