data_PCOD8295308
_publ_section_title
;
Structure prediction by ZEFSAII (Michael W. Deem and Ramdas Pophale) SiO2 
 PCOD8295308
Probable space group: I B A M
;
_chemical_formula_sum "Si O2"
_cell_formula_units_Z 96
_cell_length_a 19.016285
_cell_length_b 11.169821
_cell_length_c 19.535526
_cell_angle_alpha 90.000000
_cell_angle_beta 90.000000
_cell_angle_gamma 90.000000
_cell_volume 4149.511765
_symmetry_space_group_name_H-M "I B A M"
_symmetry_group_IT_number 72
_symmetry_cell_setting 'orthorhombic'
loop_
_space_group_symop_operation_xyz
x,y,z
-x,-y,z
x,-y,1/2-z
-x,y,1/2-z
-x,-y,-z
x,y,-z
-x,y,1/2+z
x,-y,1/2+z
1/2+x,1/2+y,1/2+z
1/2-x,1/2-y,1/2+z
1/2+x,1/2-y,-z
1/2-x,1/2+y,-z
1/2-x,1/2-y,1/2-z
1/2+x,1/2+y,1/2-z
1/2-x,1/2+y,z
1/2+x,1/2-y,z
loop_
_atom_site_type_symbol
_atom_site_label
_atom_site_fract_x
_atom_site_fract_y
_atom_site_fract_z
Si Si1 0.902670 0.942918 0.179034
Si Si2 0.035934 0.773084 0.577314
Si Si3 0.817538 0.898438 0.426027
Si Si4 0.109144 0.669960 0.884276
Si Si5 0.343400 0.091284 0.392494
Si Si6 0.329627 0.216891 0.261406
O O1 0.962433 0.890538 0.127566
O O2 0.856214 0.831515 0.198669
O O3 0.933203 0.000000 0.250000
O O4 0.853346 0.035311 0.137966
O O5 0.021483 0.817959 0.500000
O O6 0.107036 0.695029 0.576993
O O7 0.973240 0.690468 0.604351
O O8 0.838797 0.955843 0.500000
O O9 0.843708 0.761917 0.426928
O O10 0.733849 0.896201 0.423213
O O11 0.126019 0.537915 0.911372
O O12 0.125747 0.686496 0.804737
O O13 0.337564 0.102111 0.310411
O O14 0.250000 0.250000 0.250000
#
# Coordination Sequence:
#
# PCOD8295308 Si02
#       6
#    16  16  16  16  16  16
#     4  11  23  46  73 101 142 190 246 305 366 430
#     4  11  27  48  71 107 150 198 242 299 375 450
#     4  12  26  44  72 110 143 193 249 303 368 440
#     4  12  25  46  73 104 145 191 242 300 368 440
#     4  11  25  44  75 107 146 191 243 304 363 436
#     4  11  21  44  73 107 143 183 242 303 364 423
#
# _framework density 23.135252999999999
#
# number of rings (size 3 to 8) (size 9 to 14) (size 15 to 20)
#    0.000    0.667    3.333    3.500    2.333    6.667 
#    3.000    5.000    0.000    0.000    0.000    0.000 
#    0.000    0.000    0.000    0.000    0.000    0.000 
#
# Total GULP energy -595110.642034 kJ/mol
# GULP energy per Si atom -12398.138376 kJ/mol
# Density = 2.308260 g / cm^3
# Si number density = 23.135253 Si / 1000 Ang^3
#
#
#
# Elastic Constant Matrix: (Units=GPa)
#
#
# Indices 1 2 3 4 5 6 
#
# 1 111.8343 26.2492 25.9629 0.0000 0.0000 0.0000
# 2 26.2492 105.2613 24.0486 0.0000 0.0000 0.0000
# 3 25.9629 24.0486 169.4971 0.0000 0.0000 0.0000
# 4 0.0000 0.0000 0.0000 21.6877 0.0000 0.0000
# 5 0.0000 0.0000 0.0000 0.0000 132.0313 0.0000
# 6 0.0000 0.0000 0.0000 0.0000 0.0000 29.0860
#
#
#
# Elastic Compliance Matrix: (Units=1/GPa)
#
#
# Indices 1 2 3 4 5 6 
#
# 1 0.009722 -0.002154 -0.001184 0.000000 0.000000 0.000000
# 2 -0.002154 0.010296 -0.001131 0.000000 0.000000 0.000000
# 3 -0.001184 -0.001131 0.006242 0.000000 0.000000 0.000000
# 4 0.000000 0.000000 0.000000 0.046109 0.000000 0.000000
# 5 0.000000 0.000000 0.000000 0.000000 0.007574 0.000000
# 6 0.000000 0.000000 0.000000 0.000000 0.000000 0.034381
#
#
# Mechanical properties :
#
#
# Convention : Reuss Voigt Hill
#
# Bulk Modulus (GPa) = 57.72835 59.90156 58.81496
# Shear Modulus (GPa) = 38.74942 57.24980 47.99961
#
# Velocity S-wave (km/s) = 4.09700 4.97990 4.55987
# Velocity P-wave (km/s) = 6.88384 7.68206 7.29388
#
# Compressibility (1/GPa) = 0.01732251
#
# Stress axis : x y z
#
# Youngs Moduli (GPa) = 102.85782 97.12818 160.21671
#
# Poissons Ratio (x) = 0.20922 0.18963
# Poissons Ratio (y) = 0.22156 0.18118
# Poissons Ratio (z) = 0.12174 0.10984
#
# Static dielectric constant tensor:
#      x y z
#    x 3.886220 0.000000 0.000000 
#    y 0.000000 3.809430 0.000000 
#    z 0.000000 0.000000 4.372010 
# 
# 
# High freq. dielectric constant tensor:
#      x y z
#    x 1.917800 0.000000 0.000000 
#    y 0.000000 1.916940 0.000000 
#    z 0.000000 0.000000 1.936820 
# 
# From -- ./inp_files/39724.got.cif
#   From: 2010.03.12/outbox.cif.g09.slc.cpg/sg72_20_cif.got.tgz:39724.got - 2010.04.16 14:54:00.
