data_PCOD8295524
_publ_section_title
;
Structure prediction by ZEFSAII (Michael W. Deem and Ramdas Pophale) SiO2 
 PCOD8295524
Probable space group: I B C A 
;
_chemical_formula_sum "Si O2"
_cell_formula_units_Z 112
_cell_length_a 32.645680
_cell_length_b 5.272269
_cell_length_c 30.171144
_cell_angle_alpha 90.000000
_cell_angle_beta 90.000000
_cell_angle_gamma 90.000000
_cell_volume 5192.960958
_symmetry_space_group_name_H-M "I B C A "
_symmetry_group_IT_number 73
_symmetry_cell_setting 'orthorhombic'
loop_
_space_group_symop_operation_xyz
x,y,z
-x,1/2-y,z
x,-y,1/2-z
1/2-x,y,-z
-x,-y,-z
x,1/2+y,-z
-x,y,1/2+z
1/2+x,-y,z
1/2+x,1/2+y,1/2+z
1/2-x,-y,1/2+z
1/2+x,1/2-y,-z
-x,1/2+y,1/2-z
1/2-x,1/2-y,1/2-z
1/2+x,y,1/2-z
1/2-x,1/2+y,z
x,1/2-y,1/2+z
loop_
_atom_site_type_symbol
_atom_site_label
_atom_site_fract_x
_atom_site_fract_y
_atom_site_fract_z
Si Si1 0.774972 0.156121 0.200956
Si Si2 0.303375 0.585953 0.517289
Si Si3 0.150089 0.000000 0.750000
Si Si4 0.500000 0.750000 0.778322
Si Si5 0.587741 0.161957 0.204906
Si Si6 0.370908 0.561535 0.381946
Si Si7 0.319410 0.442299 0.884594
Si Si8 0.105327 0.880505 0.019988
O O1 0.745413 0.386397 0.215205
O O2 0.782788 0.137872 0.148446
O O3 0.819599 0.193808 0.223970
O O4 0.281380 0.359465 0.489520
O O5 0.300457 0.500430 0.567866
O O6 0.348547 0.640901 0.498054
O O7 0.121314 0.120009 0.787510
O O8 0.504149 0.500000 0.750000
O O9 0.457632 0.726168 0.805767
O O10 0.599731 0.011955 0.160416
O O11 0.587972 0.000000 0.250000
O O12 0.349299 0.295392 0.390357
O O13 0.396283 0.626614 0.426451
O O14 0.341077 0.796196 0.369347
O O15 0.082954 0.628792 0.000424
#
# Coordination Sequence:
#
# PCOD8295524 Si02
#       8
#    16  16   8   8  16  16  16  16
#     4  12  28  45  60  84 122 163 207 269 321 364
#     4  10  16  29  53  84 112 148 192 261 308 359
#     4  12  24  44  70  88 116 164 220 254 306 384
#     4  10  22  44  66  94 136 168 196 256 324 368
#     4  11  25  41  67 100 131 167 210 258 310 385
#     4  12  21  34  61  95 121 160 208 260 308 370
#     4  12  21  37  60  84 118 157 207 260 311 371
#     4  10  16  30  50  87 123 148 196 265 309 352
#
# _framework density 21.567658000000002
#
# number of rings (size 3 to 8) (size 9 to 14) (size 15 to 20)
#    0.000    0.857    7.857    2.143    2.000    0.000 
#    0.000    0.000    0.000    2.571    0.000    1.000 
#    0.000    0.000    0.000    0.000    0.000    0.000 
#
# Total GULP energy -693958.872287 kJ/mol
# GULP energy per Si atom -12392.122719 kJ/mol
# Density = 2.151857 g / cm^3
# Si number density = 21.567658 Si / 1000 Ang^3
#
#
#
# Elastic Constant Matrix: (Units=GPa)
#
#
# Indices 1 2 3 4 5 6 
#
# 1 91.7059 18.6713 26.9574 0.0000 0.0000 0.0000
# 2 18.6713 139.1420 17.2819 0.0000 0.0000 0.0000
# 3 26.9574 17.2819 120.7292 0.0000 0.0000 0.0000
# 4 0.0000 0.0000 0.0000 34.1147 0.0000 0.0000
# 5 0.0000 0.0000 0.0000 0.0000 11.4344 0.0000
# 6 0.0000 0.0000 0.0000 0.0000 0.0000 16.3802
#
#
#
# Elastic Compliance Matrix: (Units=1/GPa)
#
#
# Indices 1 2 3 4 5 6 
#
# 1 0.011893 -0.001289 -0.002471 0.000000 0.000000 0.000000
# 2 -0.001289 0.007457 -0.000780 0.000000 0.000000 0.000000
# 3 -0.002471 -0.000780 0.008946 0.000000 0.000000 0.000000
# 4 0.000000 0.000000 0.000000 0.029313 0.000000 0.000000
# 5 0.000000 0.000000 0.000000 0.000000 0.087456 0.000000
# 6 0.000000 0.000000 0.000000 0.000000 0.000000 0.061049
#
#
# Mechanical properties :
#
#
# Convention : Reuss Voigt Hill
#
# Bulk Modulus (GPa) = 52.03747 53.04425 52.54086
# Shear Modulus (GPa) = 22.56327 31.63030 27.09678
#
# Velocity S-wave (km/s) = 3.23795 3.83373 3.54836
# Velocity P-wave (km/s) = 6.17730 6.65164 6.41885
#
# Compressibility (1/GPa) = 0.01921692
#
# Stress axis : x y z
#
# Youngs Moduli (GPa) = 84.08118 134.10753 111.77733
#
# Poissons Ratio (x) = 0.17287 0.27621
# Poissons Ratio (y) = 0.10838 0.08714
# Poissons Ratio (z) = 0.20777 0.10455
#
# Static dielectric constant tensor:
#      x y z
#    x 3.756520 0.000000 0.000000 
#    y 0.000000 4.666520 0.000000 
#    z 0.000000 0.000000 4.063070 
# 
# 
# High freq. dielectric constant tensor:
#      x y z
#    x 1.792050 0.000000 0.000000 
#    y 0.000000 1.866590 0.000000 
#    z 0.000000 0.000000 1.859880 
# 
# From -- ./inp_files/34950.got.cif
#   From: 2010.03.12/outbox.cif.g09.slc.cpg/sg73_18_cif.got.tgz:34950.got - 2010.04.16 15:25:48.
