data_PCOD8295479
_publ_section_title
;
Structure prediction by ZEFSAII (Michael W. Deem and Ramdas Pophale) SiO2 
 PCOD8295479
Probable space group: I B A M
;
_chemical_formula_sum "Si O2"
_cell_formula_units_Z 68
_cell_length_a 24.072093
_cell_length_b 5.178593
_cell_length_c 21.103576
_cell_angle_alpha 90.000000
_cell_angle_beta 90.000000
_cell_angle_gamma 90.000000
_cell_volume 2630.762758
_symmetry_space_group_name_H-M "I B A M"
_symmetry_group_IT_number 72
_symmetry_cell_setting 'orthorhombic'
loop_
_space_group_symop_operation_xyz
x,y,z
-x,-y,z
x,-y,1/2-z
-x,y,1/2-z
-x,-y,-z
x,y,-z
-x,y,1/2+z
x,-y,1/2+z
1/2+x,1/2+y,1/2+z
1/2-x,1/2-y,1/2+z
1/2+x,1/2-y,-z
1/2-x,1/2+y,-z
1/2-x,1/2-y,1/2-z
1/2+x,1/2+y,1/2-z
1/2-x,1/2+y,z
1/2+x,1/2-y,z
loop_
_atom_site_type_symbol
_atom_site_label
_atom_site_fract_x
_atom_site_fract_y
_atom_site_fract_z
Si Si1 0.228514 0.761266 0.907836
Si Si2 0.193788 0.251763 0.208626
Si Si3 0.500000 0.000000 0.750000
Si Si4 0.421690 0.817275 0.145829
Si Si5 0.100089 0.184622 0.424710
O O1 0.238770 0.490504 0.944925
O O2 0.256890 0.680159 0.840437
O O3 0.163767 0.824623 0.901278
O O4 0.214856 0.500000 0.250000
O O5 0.140674 0.344454 0.170328
O O6 0.177689 0.000000 0.250000
O O7 0.462528 0.815568 0.794000
O O8 0.431389 0.561187 0.104608
O O9 0.432245 0.064881 0.100949
O O10 0.097106 0.176444 0.500000
#
# Coordination Sequence:
#
# PCOD8295479 Si02
#       5
#    16  16   4  16  16
#     4  12  23  41  65 109 149 205 251 287 356 439
#     4  12  24  42  67 105 162 201 245 300 371 456
#     4  12  32  54  90 110 156 174 252 336 404 476
#     4  12  27  52  76 117 144 200 251 320 400 438
#     4  12  27  52  77 109 159 205 257 304 359 454
#
# _framework density 25.848016000000001
#
# number of rings (size 3 to 8) (size 9 to 14) (size 15 to 20)
#    0.000    0.000    5.882    3.529    0.000    5.647 
#    6.353    3.529    0.000    0.000    0.000    0.000 
#    0.000    0.000    0.000    0.000    0.000    0.000 
#
# Total GULP energy -421503.495647 kJ/mol
# GULP energy per Si atom -12397.161637 kJ/mol
# Density = 2.578918 g / cm^3
# Si number density = 25.848016 Si / 1000 Ang^3
#
#
#
# Elastic Constant Matrix: (Units=GPa)
#
#
# Indices 1 2 3 4 5 6 
#
# 1 65.5328 32.2664 65.1586 0.0000 0.0000 0.0000
# 2 32.2664 213.3349 75.8261 0.0000 0.0000 0.0000
# 3 65.1586 75.8261 187.0020 0.0000 0.0000 0.0000
# 4 0.0000 0.0000 0.0000 -8.7967 0.0000 0.0000
# 5 0.0000 0.0000 0.0000 0.0000 -3.8073 0.0000
# 6 0.0000 0.0000 0.0000 0.0000 0.0000 20.9951
#
#
#
# Elastic Compliance Matrix: (Units=1/GPa)
#
#
# Indices 1 2 3 4 5 6 
#
# 1 0.023451 -0.000751 -0.007867 0.000000 0.000000 0.000000
# 2 -0.000751 0.005501 -0.001969 0.000000 0.000000 0.000000
# 3 -0.007867 -0.001969 0.008887 0.000000 0.000000 0.000000
# 4 0.000000 0.000000 0.000000 -0.113680 0.000000 0.000000
# 5 0.000000 0.000000 0.000000 0.000000 -0.262651 0.000000
# 6 0.000000 0.000000 0.000000 0.000000 0.000000 0.047630
#
#
# Mechanical properties :
#
#
# Convention : Reuss Voigt Hill
#
# Bulk Modulus (GPa) = 60.00277 90.26354 75.13316
# Shear Modulus (GPa) = -18.92987 21.18612 1.12812
#
# Velocity S-wave (km/s) = -2.70914 2.86605 0.66136
# Velocity P-wave (km/s) = 3.67126 6.77857 5.45102
#
# Compressibility (1/GPa) = 0.01666590
#
# Stress axis : x y z
#
# Youngs Moduli (GPa) = 42.64195 181.79079 112.52418
#
# Poissons Ratio (x) = 0.13649 0.88521
# Poissons Ratio (y) = 0.03202 0.22155
# Poissons Ratio (z) = 0.33546 0.35792
#
# Static dielectric constant tensor:
#      x y z
#    x 4.562480 0.000000 0.000000 
#    y 0.000000 5.614700 0.000000 
#    z 0.000000 0.000000 4.397540 
# 
# 
# High freq. dielectric constant tensor:
#      x y z
#    x 2.018150 0.000000 0.000000 
#    y 0.000000 2.070350 0.000000 
#    z 0.000000 0.000000 2.041290 
# 
# From -- ./inp_files/40600.got.cif
#   From: 2010.03.12/outbox.cif.g09.slc.cpg/sg72_21_cif.got.tgz:40600.got - 2010.04.16 14:54:00.
