data_PCOD8295298
_publ_section_title
;
Structure prediction by ZEFSAII (Michael W. Deem and Ramdas Pophale) SiO2 
 PCOD8295298
Probable space group: I B A M
;
_chemical_formula_sum "Si O2"
_cell_formula_units_Z 96
_cell_length_a 8.388508
_cell_length_b 20.334635
_cell_length_c 26.646153
_cell_angle_alpha 90.000000
_cell_angle_beta 90.000000
_cell_angle_gamma 90.000000
_cell_volume 4545.227459
_symmetry_space_group_name_H-M "I B A M"
_symmetry_group_IT_number 72
_symmetry_cell_setting 'orthorhombic'
loop_
_space_group_symop_operation_xyz
x,y,z
-x,-y,z
x,-y,1/2-z
-x,y,1/2-z
-x,-y,-z
x,y,-z
-x,y,1/2+z
x,-y,1/2+z
1/2+x,1/2+y,1/2+z
1/2-x,1/2-y,1/2+z
1/2+x,1/2-y,-z
1/2-x,1/2+y,-z
1/2-x,1/2-y,1/2-z
1/2+x,1/2+y,1/2-z
1/2-x,1/2+y,z
1/2+x,1/2-y,z
loop_
_atom_site_type_symbol
_atom_site_label
_atom_site_fract_x
_atom_site_fract_y
_atom_site_fract_z
Si Si1 0.178894 0.106183 0.653524
Si Si2 0.330012 0.983623 0.307158
Si Si3 0.095388 0.287369 0.598334
Si Si4 0.278563 0.164090 0.556662
Si Si5 0.597110 0.783684 0.300184
Si Si6 0.679607 0.649701 0.333480
O O1 0.196079 0.030467 0.669153
O O2 0.230151 0.107094 0.595206
O O3 0.287330 0.155517 0.686860
O O4 0.997375 0.124317 0.661104
O O5 0.500000 0.000000 0.333490
O O6 0.343953 0.000000 0.250000
O O7 0.290344 0.906939 0.310910
O O8 0.165708 0.225055 0.570006
O O9 0.247244 0.333557 0.611491
O O10 0.966600 0.320538 0.562039
O O11 0.017232 0.268953 0.652015
O O12 0.245876 0.140952 0.500000
O O13 0.500000 0.800435 0.250000
O O14 0.690574 0.713408 0.295597
#
# Coordination Sequence:
#
# PCOD8295298 Si02
#       6
#    16  16  16  16  16  16
#     4  11  24  43  64  98 133 171 221 271 323 397
#     4  11  27  44  63  89 133 183 222 262 327 393
#     4  11  21  39  59  96 132 164 216 274 327 395
#     4  11  21  39  66  94 128 168 217 277 336 386
#     4  11  24  39  65  99 137 175 214 271 333 390
#     4  12  23  41  63  92 134 172 217 269 327 384
#
# _framework density 21.121054999999998
#
# number of rings (size 3 to 8) (size 9 to 14) (size 15 to 20)
#    0.000    0.833    5.000    3.000    7.000    2.000 
#    0.000    0.833    0.000    7.500    0.000    0.000 
#    0.000    0.000    0.000    0.000    0.000    0.000 
#
# Total GULP energy -595080.599905 kJ/mol
# GULP energy per Si atom -12397.512498 kJ/mol
# Density = 2.107298 g / cm^3
# Si number density = 21.121055 Si / 1000 Ang^3
#
#
#
# Elastic Constant Matrix: (Units=GPa)
#
#
# Indices 1 2 3 4 5 6 
#
# 1 89.2232 3.0987 13.3639 0.0000 0.0000 0.0000
# 2 3.0987 90.4806 20.7039 0.0000 0.0000 -0.0005
# 3 13.3639 20.7039 99.0624 0.0000 0.0000 -0.0002
# 4 0.0000 0.0000 0.0000 16.2921 0.0000 -0.0002
# 5 0.0000 0.0000 0.0000 0.0000 306.1026 -0.0013
# 6 0.0000 -0.0005 -0.0002 -0.0002 -0.0013-1441.6780
#
#
#
# Elastic Compliance Matrix: (Units=1/GPa)
#
#
# Indices 1 2 3 4 5 6 
#
# 1 0.011439 -0.000041 -0.001535 0.000000 0.000000 0.000000
# 2 -0.000041 0.011607 -0.002420 0.000000 0.000000 0.000000
# 3 -0.001535 -0.002420 0.010808 0.000000 0.000000 0.000000
# 4 0.000000 0.000000 0.000000 0.061379 0.000000 0.000000
# 5 0.000000 0.000000 0.000000 0.000000 0.003267 0.000000
# 6 0.000000 0.000000 0.000000 0.000000 0.000000 -0.000694
#
#
# Mechanical properties :
#
#
# Convention : Reuss Voigt Hill
#
# Bulk Modulus (GPa) = 38.66591 39.23322 38.94957
# Shear Modulus (GPa) = 43.69906 -207.75000 -82.02547
#
# Velocity S-wave (km/s) = 4.55354 -9.92850 -6.23860
# Velocity P-wave (km/s) = 6.78180 10.62157 5.78035
#
# Compressibility (1/GPa) = 0.02586257
#
# Stress axis : x y z
#
# Youngs Moduli (GPa) = 87.41929 86.15242 92.52789
#
# Poissons Ratio (x) = 0.00350 0.14200
# Poissons Ratio (y) = 0.00355 0.22396
# Poissons Ratio (z) = 0.13416 0.20853
#
# Static dielectric constant tensor:
#      x y z
#    x 4.407550 0.000000 0.000000 
#    y 0.000000 3.775710 0.000000 
#    z 0.000000 0.000000 3.668180 
# 
# 
# High freq. dielectric constant tensor:
#      x y z
#    x 1.857320 0.000000 0.000000 
#    y 0.000000 1.813940 0.000000 
#    z 0.000000 0.000000 1.800910 
# 
# From -- ./inp_files/47350.got.cif
#   From: 2010.03.12/outbox.cif.g09.slc.cpg/sg72_24_cif.got.tgz:47350.got - 2010.04.16 14:54:00.
