data_PCOD8295920
_publ_section_title
;
Structure prediction by ZEFSAII (Michael W. Deem and Ramdas Pophale) SiO2 
 PCOD8295920
Probable space group: I B C A 
;
_chemical_formula_sum "Si O2"
_cell_formula_units_Z 112
_cell_length_a 23.448481
_cell_length_b 10.485506
_cell_length_c 22.293161
_cell_angle_alpha 90.000000
_cell_angle_beta 90.000000
_cell_angle_gamma 90.000000
_cell_volume 5481.201398
_symmetry_space_group_name_H-M "I B C A "
_symmetry_group_IT_number 73
_symmetry_cell_setting 'orthorhombic'
loop_
_space_group_symop_operation_xyz
x,y,z
-x,1/2-y,z
x,-y,1/2-z
1/2-x,y,-z
-x,-y,-z
x,1/2+y,-z
-x,y,1/2+z
1/2+x,-y,z
1/2+x,1/2+y,1/2+z
1/2-x,-y,1/2+z
1/2+x,1/2-y,-z
-x,1/2+y,1/2-z
1/2-x,1/2-y,1/2-z
1/2+x,y,1/2-z
1/2-x,1/2+y,z
x,1/2-y,1/2+z
loop_
_atom_site_type_symbol
_atom_site_label
_atom_site_fract_x
_atom_site_fract_y
_atom_site_fract_z
Si Si1 0.691708 0.763816 0.034078
Si Si2 0.545045 0.580612 0.408352
Si Si3 0.670503 0.710378 0.794154
Si Si4 0.580397 0.365406 0.614762
Si Si5 0.368010 0.983415 0.316367
Si Si6 0.126397 0.015181 0.498148
Si Si7 0.294229 0.280874 0.833447
O O1 0.702113 0.797746 0.104441
O O2 0.662527 0.884145 0.000933
O O3 0.750000 0.735199 0.000000
O O4 0.655781 0.632585 0.032686
O O5 0.479873 0.561238 0.387518
O O6 0.566298 0.725895 0.410247
O O7 0.576576 0.506878 0.356174
O O8 0.564352 0.514683 0.471249
O O9 0.614529 0.635705 0.820971
O O10 0.666689 0.852936 0.819054
O O11 0.730787 0.666701 0.820350
O O12 0.675870 0.700783 0.721372
O O13 0.620915 0.441405 0.570142
O O14 0.391559 0.000000 0.250000
O O15 0.326259 0.087939 0.341466
#
# Coordination Sequence:
#
# PCOD8295920 Si02
#       7
#    16  16  16  16  16  16  16
#     4  12  26  39  62  93 134 170 210 269 330 397
#     4  10  20  38  63  89 120 165 215 262 313 380
#     4   9  20  36  60  90 120 160 205 257 322 384
#     4  10  21  39  63  90 123 163 212 265 320 380
#     4   9  18  35  60  86 116 159 207 250 308 378
#     4  12  23  42  60  92 126 168 217 264 323 391
#     4  10  20  37  60  88 123 160 204 260 318 390
#
# _framework density 20.433475999999999
#
# number of rings (size 3 to 8) (size 9 to 14) (size 15 to 20)
#    0.000    1.714    2.857    1.714    2.000    2.286 
#    0.000    3.571    0.000    1.714    0.000    0.000 
#    0.000    0.000    0.000    0.000    0.000    0.000 
#
# Total GULP energy -693757.745276 kJ/mol
# GULP energy per Si atom -12388.531166 kJ/mol
# Density = 2.038697 g / cm^3
# Si number density = 20.433476 Si / 1000 Ang^3
#
#
#
# Elastic Constant Matrix: (Units=GPa)
#
#
# Indices 1 2 3 4 5 6 
#
# 1 129.1230 33.9098 55.3933 0.0000 0.0000 0.0000
# 2 33.9098 56.3456 28.6674 0.0000 0.0000 0.0000
# 3 55.3933 28.6674 126.1042 0.0000 0.0000 0.0000
# 4 0.0000 0.0000 0.0000 24.7203 0.0000 0.0000
# 5 0.0000 0.0000 0.0000 0.0000 36.4755 0.0000
# 6 0.0000 0.0000 0.0000 0.0000 0.0000 30.0396
#
#
#
# Elastic Compliance Matrix: (Units=1/GPa)
#
#
# Indices 1 2 3 4 5 6 
#
# 1 0.010452 -0.004472 -0.003575 0.000000 0.000000 0.000000
# 2 -0.004472 0.021982 -0.003033 0.000000 0.000000 0.000000
# 3 -0.003575 -0.003033 0.010190 0.000000 0.000000 0.000000
# 4 0.000000 0.000000 0.000000 0.040453 0.000000 0.000000
# 5 0.000000 0.000000 0.000000 0.000000 0.027416 0.000000
# 6 0.000000 0.000000 0.000000 0.000000 0.000000 0.033289
#
#
# Mechanical properties :
#
#
# Convention : Reuss Voigt Hill
#
# Bulk Modulus (GPa) = 48.86349 60.83486 54.84917
# Shear Modulus (GPa) = 28.94147 31.15388 30.04767
#
# Velocity S-wave (km/s) = 3.76756 3.90891 3.83889
# Velocity P-wave (km/s) = 6.54915 7.08587 6.82279
#
# Compressibility (1/GPa) = 0.02046518
#
# Stress axis : x y z
#
# Youngs Moduli (GPa) = 95.67091 45.49211 98.13788
#
# Poissons Ratio (x) = 0.20343 0.35083
# Poissons Ratio (y) = 0.42781 0.29764
# Poissons Ratio (z) = 0.34201 0.13797
#
# Static dielectric constant tensor:
#      x y z
#    x 3.874980 0.000000 0.000000 
#    y 0.000000 3.637020 0.000000 
#    z 0.000000 0.000000 3.917130 
# 
# 
# High freq. dielectric constant tensor:
#      x y z
#    x 1.797130 0.000000 0.000000 
#    y 0.000000 1.783810 0.000000 
#    z 0.000000 0.000000 1.806590 
# 
# From -- ./inp_files/27319.got.cif
#   From: 2010.03.12/outbox.cif.g09.slc.cpg/sg73_14_cif.got.tgz:27319.got - 2010.04.16 15:25:48.
