data_PCOD8295171
_publ_section_title
;
Structure prediction by ZEFSAII (Michael W. Deem and Ramdas Pophale) SiO2 
 PCOD8295171
Probable space group: I B A M
;
_chemical_formula_sum "Si O2"
_cell_formula_units_Z 56
_cell_length_a 10.670844
_cell_length_b 9.697590
_cell_length_c 20.909641
_cell_angle_alpha 90.000000
_cell_angle_beta 90.000000
_cell_angle_gamma 90.000000
_cell_volume 2163.760389
_symmetry_space_group_name_H-M "I B A M"
_symmetry_group_IT_number 72
_symmetry_cell_setting 'orthorhombic'
loop_
_space_group_symop_operation_xyz
x,y,z
-x,-y,z
x,-y,1/2-z
-x,y,1/2-z
-x,-y,-z
x,y,-z
-x,y,1/2+z
x,-y,1/2+z
1/2+x,1/2+y,1/2+z
1/2-x,1/2-y,1/2+z
1/2+x,1/2-y,-z
1/2-x,1/2+y,-z
1/2-x,1/2-y,1/2-z
1/2+x,1/2+y,1/2-z
1/2-x,1/2+y,z
1/2+x,1/2-y,z
loop_
_atom_site_type_symbol
_atom_site_label
_atom_site_fract_x
_atom_site_fract_y
_atom_site_fract_z
Si Si1 0.243907 0.885812 0.342978
Si Si2 0.450668 0.202239 0.929876
Si Si3 0.500000 0.500000 0.601620
Si Si4 0.103491 0.363602 0.804630
O O1 0.308739 0.835301 0.408813
O O2 0.211235 0.752168 0.299800
O O3 0.340199 0.979902 0.301476
O O4 0.119392 0.973100 0.353679
O O5 0.467285 0.366345 0.939855
O O6 0.546487 0.147430 0.876462
O O7 0.476021 0.135861 0.000000
O O8 0.000000 0.338253 0.750000
#
# Coordination Sequence:
#
# PCOD8295171 Si02
#       4
#    16  16   8  16
#     4  11  24  51  80 114 157 210 257 328 392 462
#     4  11  25  47  80 117 160 209 263 323 390 464
#     4  10  23  50  75 118 157 204 259 318 391 464
#     4  11  27  53  81 118 159 206 267 325 391 470
#
# _framework density 25.880870000000002
#
# number of rings (size 3 to 8) (size 9 to 14) (size 15 to 20)
#    0.000    1.143    2.857    1.286    0.000   11.429 
#   10.286    7.857    0.000    0.000    0.000    0.000 
#    0.000    0.000    0.000    0.000    0.000    0.000 
#
# Total GULP energy -347007.712707 kJ/mol
# GULP energy per Si atom -12393.132597 kJ/mol
# Density = 2.582196 g / cm^3
# Si number density = 25.880870 Si / 1000 Ang^3
#
#
#
# Elastic Constant Matrix: (Units=GPa)
#
#
# Indices 1 2 3 4 5 6 
#
# 1 112.8854 60.6154 81.4325 0.0000 0.0000 0.0000
# 2 60.6154 193.3329 40.9177 0.0000 0.0000 0.0000
# 3 81.4325 40.9177 208.0841 0.0000 0.0000 0.0000
# 4 0.0000 0.0000 0.0000 54.0002 0.0000 0.0000
# 5 0.0000 0.0000 0.0000 0.0000 28.9072 0.0000
# 6 0.0000 0.0000 0.0000 0.0000 0.0000 75.6869
#
#
#
# Elastic Compliance Matrix: (Units=1/GPa)
#
#
# Indices 1 2 3 4 5 6 
#
# 1 0.014229 -0.003425 -0.004895 0.000000 0.000000 0.000000
# 2 -0.003425 0.006222 0.000117 0.000000 0.000000 0.000000
# 3 -0.004895 0.000117 0.006698 0.000000 0.000000 0.000000
# 4 0.000000 0.000000 0.000000 0.018518 0.000000 0.000000
# 5 0.000000 0.000000 0.000000 0.000000 0.034593 0.000000
# 6 0.000000 0.000000 0.000000 0.000000 0.000000 0.013212
#
#
# Mechanical properties :
#
#
# Convention : Reuss Voigt Hill
#
# Bulk Modulus (GPa) = 93.08688 97.80375 95.44531
# Shear Modulus (GPa) = 44.06859 53.80800 48.93829
#
# Velocity S-wave (km/s) = 4.13091 4.56462 4.35317
# Velocity P-wave (km/s) = 7.66799 8.10266 7.88832
#
# Compressibility (1/GPa) = 0.01074265
#
# Stress axis : x y z
#
# Youngs Moduli (GPa) = 70.28051 160.73178 149.29185
#
# Poissons Ratio (x) = 0.55053 0.73075
# Poissons Ratio (y) = 0.24072 -0.01747
# Poissons Ratio (z) = 0.34401 -0.01881
#
# Static dielectric constant tensor:
#      x y z
#    x 5.028780 0.000000 0.000000 
#    y 0.000000 5.384690 0.000000 
#    z 0.000000 0.000000 4.407950 
# 
# 
# High freq. dielectric constant tensor:
#      x y z
#    x 2.046090 0.000000 0.000000 
#    y 0.000000 2.054900 0.000000 
#    z 0.000000 0.000000 2.041680 
# 
# From -- ./inp_files/36441.got.cif
#   From: 2010.03.12/outbox.cif.g09.slc.cpg/sg72_19_cif.got.tgz:36441.got - 2010.04.16 14:54:00.
