data_PCOD8295149
_publ_section_title
;
Structure prediction by ZEFSAII (Michael W. Deem and Ramdas Pophale) SiO2 
 PCOD8295149
Probable space group: I B A M
;
_chemical_formula_sum "Si O2"
_cell_formula_units_Z 80
_cell_length_a 8.722522
_cell_length_b 24.943512
_cell_length_c 15.906738
_cell_angle_alpha 90.000000
_cell_angle_beta 90.000000
_cell_angle_gamma 90.000000
_cell_volume 3460.834271
_symmetry_space_group_name_H-M "I B A M"
_symmetry_group_IT_number 72
_symmetry_cell_setting 'orthorhombic'
loop_
_space_group_symop_operation_xyz
x,y,z
-x,-y,z
x,-y,1/2-z
-x,y,1/2-z
-x,-y,-z
x,y,-z
-x,y,1/2+z
x,-y,1/2+z
1/2+x,1/2+y,1/2+z
1/2-x,1/2-y,1/2+z
1/2+x,1/2-y,-z
1/2-x,1/2+y,-z
1/2-x,1/2-y,1/2-z
1/2+x,1/2+y,1/2-z
1/2-x,1/2+y,z
1/2+x,1/2-y,z
loop_
_atom_site_type_symbol
_atom_site_label
_atom_site_fract_x
_atom_site_fract_y
_atom_site_fract_z
Si Si1 0.885210 0.690200 0.905327
Si Si2 0.340711 0.385006 0.400223
Si Si3 0.180472 0.096306 0.404099
Si Si4 0.325005 0.991255 0.347893
Si Si5 0.797049 0.721891 0.336911
O O1 0.808055 0.636486 0.864083
O O2 0.755631 0.736415 0.908955
O O3 0.022106 0.709918 0.844952
O O4 0.947202 0.679462 0.000000
O O5 0.332906 0.375114 0.500000
O O6 0.510921 0.397567 0.365863
O O7 0.226034 0.432737 0.376353
O O8 0.291128 0.333546 0.348054
O O9 0.170482 0.114488 0.500000
O O10 0.225322 0.034601 0.397295
O O11 0.500000 0.000000 0.373734
O O12 0.297480 0.000000 0.250000
O O13 0.750000 0.750000 0.250000
#
# Coordination Sequence:
#
# PCOD8295149 Si02
#       5
#    16  16  16  16  16
#     4  11  23  43  69  97 137 183 233 284 349 428
#     4  11  24  45  72 101 140 187 238 289 354 431
#     4  10  23  43  71 103 136 179 234 288 346 425
#     4  11  25  43  67 101 145 184 230 287 352 421
#     4  12  26  43  67 100 138 180 234 295 352 412
#
# _framework density 23.115812999999999
#
# number of rings (size 3 to 8) (size 9 to 14) (size 15 to 20)
#    0.000    1.000    0.000    6.000    2.800    8.000 
#    0.000    0.000    0.000    0.000    0.000    0.000 
#    0.000    0.000    0.000    0.000    0.000    0.000 
#
# Total GULP energy -496064.740019 kJ/mol
# GULP energy per Si atom -12401.618500 kJ/mol
# Density = 2.306320 g / cm^3
# Si number density = 23.115813 Si / 1000 Ang^3
#
#
#
# Elastic Constant Matrix: (Units=GPa)
#
#
# Indices 1 2 3 4 5 6 
#
# 1 126.7766 41.0145 45.6333 0.0000 0.0000 0.0000
# 2 41.0145 165.5105 41.7456 0.0000 0.0000 0.0000
# 3 45.6333 41.7456 87.2848 0.0001 -0.0001 0.0000
# 4 0.0000 0.0000 0.0001 40.5117 0.0000 0.0000
# 5 0.0000 0.0000 -0.0001 0.0000 26.1354 0.0000
# 6 0.0000 0.0000 0.0000 0.0000 0.0000 51.6510
#
#
#
# Elastic Compliance Matrix: (Units=1/GPa)
#
#
# Indices 1 2 3 4 5 6 
#
# 1 0.009961 -0.001313 -0.004580 0.000000 0.000000 0.000000
# 2 -0.001313 0.007044 -0.002682 0.000000 0.000000 0.000000
# 3 -0.004580 -0.002682 0.015134 0.000000 0.000000 0.000000
# 4 0.000000 0.000000 0.000000 0.024684 0.000000 0.000000
# 5 0.000000 0.000000 0.000000 0.000000 0.038262 0.000000
# 6 0.000000 0.000000 0.000000 0.000000 0.000000 0.019361
#
#
# Mechanical properties :
#
#
# Convention : Reuss Voigt Hill
#
# Bulk Modulus (GPa) = 66.71808 70.70656 68.71232
# Shear Modulus (GPa) = 36.60509 40.40484 38.50497
#
# Velocity S-wave (km/s) = 3.98370 4.18536 4.08578
# Velocity P-wave (km/s) = 7.07708 7.34920 7.21442
#
# Compressibility (1/GPa) = 0.01498844
#
# Stress axis : x y z
#
# Youngs Moduli (GPa) = 100.38895 141.96695 66.07685
#
# Poissons Ratio (x) = 0.18645 0.30261
# Poissons Ratio (y) = 0.13185 0.17723
# Poissons Ratio (z) = 0.45975 0.38079
#
# Static dielectric constant tensor:
#      x y z
#    x 4.411400 0.000000 0.000000 
#    y 0.000000 4.242710 0.000000 
#    z 0.000000 0.000000 3.956870 
# 
# 
# High freq. dielectric constant tensor:
#      x y z
#    x 1.928690 0.000000 0.000000 
#    y 0.000000 1.929460 0.000000 
#    z 0.000000 0.000000 1.904920 
# 
# From -- ./inp_files/28088.got.cif
#   From: 2010.03.12/outbox.cif.g09.slc.cpg/sg72_15_cif.got.tgz:28088.got - 2010.04.16 14:54:00.
