data_PCOD8295222
_publ_section_title
;
Structure prediction by ZEFSAII (Michael W. Deem and Ramdas Pophale) SiO2 
 PCOD8295222
Probable space group: I B A M
;
_chemical_formula_sum "Si O2"
_cell_formula_units_Z 96
_cell_length_a 20.739460
_cell_length_b 16.970704
_cell_length_c 16.660758
_cell_angle_alpha 90.000000
_cell_angle_beta 90.000000
_cell_angle_gamma 90.000000
_cell_volume 5863.974313
_symmetry_space_group_name_H-M "I B A M"
_symmetry_group_IT_number 72
_symmetry_cell_setting 'orthorhombic'
loop_
_space_group_symop_operation_xyz
x,y,z
-x,-y,z
x,-y,1/2-z
-x,y,1/2-z
-x,-y,-z
x,y,-z
-x,y,1/2+z
x,-y,1/2+z
1/2+x,1/2+y,1/2+z
1/2-x,1/2-y,1/2+z
1/2+x,1/2-y,-z
1/2-x,1/2+y,-z
1/2-x,1/2-y,1/2-z
1/2+x,1/2+y,1/2-z
1/2-x,1/2+y,z
1/2+x,1/2-y,z
loop_
_atom_site_type_symbol
_atom_site_label
_atom_site_fract_x
_atom_site_fract_y
_atom_site_fract_z
Si Si1 0.265414 0.946935 0.828043
Si Si2 0.381970 0.400962 0.409368
Si Si3 0.229431 0.402090 0.590408
Si Si4 0.188986 0.694157 0.761590
Si Si5 0.071536 0.192321 0.240085
Si Si6 0.375884 0.552227 0.671654
O O1 0.310788 0.872242 0.808963
O O2 0.194591 0.914020 0.852362
O O3 0.258278 0.000000 0.750000
O O4 0.291984 0.005950 0.897074
O O5 0.399074 0.375719 0.500000
O O6 0.305645 0.394593 0.391860
O O7 0.418665 0.343088 0.348790
O O8 0.403234 0.492851 0.396668
O O9 0.212151 0.376913 0.500000
O O10 0.191650 0.344738 0.650370
O O11 0.250000 0.750000 0.750000
O O12 0.121770 0.738349 0.754636
O O13 0.077788 0.125611 0.309542
O O14 0.000000 0.227549 0.250000
O O15 0.368357 0.500000 0.750000
#
# Coordination Sequence:
#
# PCOD8295222 Si02
#       6
#    16  16  16  16  16  16
#     4   8  14  27  49  69  88 122 162 202 244 286
#     4   9  17  31  50  73 101 133 168 204 242 290
#     4   9  17  31  52  79 102 125 163 213 254 289
#     4  11  17  31  53  73  99 135 167 200 250 300
#     4  11  21  32  47  72 103 139 172 200 241 300
#     4   8  14  27  45  66  92 125 164 194 230 288
#
# _framework density 16.37115
#
# number of rings (size 3 to 8) (size 9 to 14) (size 15 to 20)
#    0.000    2.667    3.333    2.000    0.000    3.000 
#    0.000    5.000    0.000    4.500    0.000    1.167 
#    0.000    0.000    0.000    0.000    0.000    0.000 
#
# Total GULP energy -594749.817735 kJ/mol
# GULP energy per Si atom -12390.621203 kJ/mol
# Density = 1.633389 g / cm^3
# Si number density = 16.371150 Si / 1000 Ang^3
#
#
#
# Elastic Constant Matrix: (Units=GPa)
#
#
# Indices 1 2 3 4 5 6 
#
# 1 95.1214 55.0279 34.1896 0.0000 0.0000 0.0000
# 2 55.0279 88.8438 39.0494 0.0000 0.0000 0.0000
# 3 34.1896 39.0494 89.4014 0.0000 0.0000 0.0000
# 4 0.0000 0.0000 0.0000 19.9894 0.0000 0.0000
# 5 0.0000 0.0000 0.0000 0.0000 10.4763 0.0000
# 6 0.0000 0.0000 0.0000 0.0000 0.0000 20.1384
#
#
#
# Elastic Compliance Matrix: (Units=1/GPa)
#
#
# Indices 1 2 3 4 5 6 
#
# 1 0.016764 -0.009363 -0.002321 0.000000 0.000000 0.000000
# 2 -0.009363 0.019159 -0.004788 0.000000 0.000000 0.000000
# 3 -0.002321 -0.004788 0.014165 0.000000 0.000000 0.000000
# 4 0.000000 0.000000 0.000000 0.050026 0.000000 0.000000
# 5 0.000000 0.000000 0.000000 0.000000 0.095454 0.000000
# 6 0.000000 0.000000 0.000000 0.000000 0.000000 0.049656
#
#
# Mechanical properties :
#
#
# Convention : Reuss Voigt Hill
#
# Bulk Modulus (GPa) = 58.33158 58.87781 58.60470
# Shear Modulus (GPa) = 17.61293 19.79414 18.70353
#
# Velocity S-wave (km/s) = 3.28358 3.48096 3.38371
# Velocity P-wave (km/s) = 7.07700 7.22486 7.15131
#
# Compressibility (1/GPa) = 0.01714337
#
# Stress axis : x y z
#
# Youngs Moduli (GPa) = 59.65314 52.19425 70.59869
#
# Poissons Ratio (x) = 0.48868 0.16388
# Poissons Ratio (y) = 0.55851 0.33802
# Poissons Ratio (z) = 0.13848 0.24990
#
# Static dielectric constant tensor:
#      x y z
#    x 2.731700 0.000000 0.000000 
#    y 0.000000 3.226610 0.000000 
#    z 0.000000 0.000000 3.320770 
# 
# 
# High freq. dielectric constant tensor:
#      x y z
#    x 1.588050 0.000000 0.000000 
#    y 0.000000 1.621380 0.000000 
#    z 0.000000 0.000000 1.618410 
# 
# From -- ./inp_files/31640.got.cif
#   From: 2010.03.12/outbox.cif.g09.slc.cpg/sg72_16_cif.got.tgz:31640.got - 2010.04.16 14:54:00.
