data_PCOD8295369
_publ_section_title
;
Structure prediction by ZEFSAII (Michael W. Deem and Ramdas Pophale) SiO2 
 PCOD8295369
Probable space group: I B A M
;
_chemical_formula_sum "Si O2"
_cell_formula_units_Z 68
_cell_length_a 16.355174
_cell_length_b 22.026511
_cell_length_c 9.550413
_cell_angle_alpha 90.000000
_cell_angle_beta 90.000000
_cell_angle_gamma 90.000000
_cell_volume 3440.511643
_symmetry_space_group_name_H-M "I B A M"
_symmetry_group_IT_number 72
_symmetry_cell_setting 'orthorhombic'
loop_
_space_group_symop_operation_xyz
x,y,z
-x,-y,z
x,-y,1/2-z
-x,y,1/2-z
-x,-y,-z
x,y,-z
-x,y,1/2+z
x,-y,1/2+z
1/2+x,1/2+y,1/2+z
1/2-x,1/2-y,1/2+z
1/2+x,1/2-y,-z
1/2-x,1/2+y,-z
1/2-x,1/2-y,1/2-z
1/2+x,1/2+y,1/2-z
1/2-x,1/2+y,z
1/2+x,1/2-y,z
loop_
_atom_site_type_symbol
_atom_site_label
_atom_site_fract_x
_atom_site_fract_y
_atom_site_fract_z
Si Si1 0.080108 0.838686 0.162508
Si Si2 0.800061 0.944978 0.665459
Si Si3 0.500000 0.000000 0.250000
Si Si4 0.424486 0.796518 0.342669
Si Si5 0.852898 0.578058 0.655316
O O1 0.153641 0.883157 0.204528
O O2 0.110264 0.770153 0.198535
O O3 0.000000 0.855919 0.250000
O O4 0.057636 0.846499 0.000000
O O5 0.799459 0.957483 0.500000
O O6 0.706880 0.943405 0.721406
O O7 0.844156 0.000000 0.750000
O O8 0.440877 0.044461 0.161227
O O9 0.500000 0.815549 0.250000
O O10 0.457821 0.793966 0.500000
O O11 0.358019 0.849137 0.324507
O O12 0.816365 0.564829 0.500000
#
# Coordination Sequence:
#
# PCOD8295369 Si02
#       5
#    16  16   4  16  16
#     4   9  20  39  62  86 114 149 191 239 289 342
#     4  11  24  40  58  84 117 151 191 241 291 342
#     4  12  22  36  60  90 120 152 188 228 278 336
#     4   9  18  35  57  84 115 150 193 236 280 335
#     4  11  23  37  58  87 120 155 191 233 282 340
#
# _framework density 19.764502
#
# number of rings (size 3 to 8) (size 9 to 14) (size 15 to 20)
#    0.000    1.882    2.353    1.059    0.000    5.176 
#    0.000    2.353    0.000    0.000    0.000    0.000 
#    0.000    0.000    0.000    0.000    0.000    0.000 
#
# Total GULP energy -421388.462122 kJ/mol
# GULP energy per Si atom -12393.778298 kJ/mol
# Density = 1.971952 g / cm^3
# Si number density = 19.764502 Si / 1000 Ang^3
#
#
#
# Elastic Constant Matrix: (Units=GPa)
#
#
# Indices 1 2 3 4 5 6 
#
# 1 73.1396 47.7711 30.2313 0.0000 0.0000 0.0000
# 2 47.7711 130.3054 47.0939 0.0000 0.0000 0.0000
# 3 30.2313 47.0939 93.6340 0.0000 0.0000 0.0000
# 4 0.0000 0.0000 0.0000 28.4344 0.0000 0.0000
# 5 0.0000 0.0000 0.0000 0.0000 28.4906 0.0000
# 6 0.0000 0.0000 0.0000 0.0000 0.0000 29.8732
#
#
#
# Elastic Compliance Matrix: (Units=1/GPa)
#
#
# Indices 1 2 3 4 5 6 
#
# 1 0.018715 -0.005716 -0.003167 0.000000 0.000000 0.000000
# 2 -0.005716 0.011125 -0.003750 0.000000 0.000000 0.000000
# 3 -0.003167 -0.003750 0.013589 0.000000 0.000000 0.000000
# 4 0.000000 0.000000 0.000000 0.035169 0.000000 0.000000
# 5 0.000000 0.000000 0.000000 0.000000 0.035099 0.000000
# 6 0.000000 0.000000 0.000000 0.000000 0.000000 0.033475
#
#
# Mechanical properties :
#
#
# Convention : Reuss Voigt Hill
#
# Bulk Modulus (GPa) = 55.06107 60.80796 57.93451
# Shear Modulus (GPa) = 28.01221 28.82513 28.41867
#
# Velocity S-wave (km/s) = 3.76879 3.82308 3.79603
# Velocity P-wave (km/s) = 6.84525 7.09373 6.97059
#
# Compressibility (1/GPa) = 0.01816165
#
# Stress axis : x y z
#
# Youngs Moduli (GPa) = 53.43182 89.88573 73.59130
#
# Poissons Ratio (x) = 0.51383 0.23310
# Poissons Ratio (y) = 0.30544 0.27596
# Poissons Ratio (z) = 0.16924 0.33706
#
# Static dielectric constant tensor:
#      x y z
#    x 3.236320 0.000000 0.000000 
#    y 0.000000 4.233540 0.000000 
#    z 0.000000 0.000000 3.595020 
# 
# 
# High freq. dielectric constant tensor:
#      x y z
#    x 1.733210 0.000000 0.000000 
#    y 0.000000 1.801200 0.000000 
#    z 0.000000 0.000000 1.774210 
# 
# From -- ./inp_files/4390.got.cif
#   From: 2010.03.12/outbox.cif.g09.slc.cpg/sg72_3_cif.got.tgz:4390.got - 2010.04.16 14:54:00.
