data_PCOD8295098
_publ_section_title
;
Structure prediction by ZEFSAII (Michael W. Deem and Ramdas Pophale) SiO2 
 PCOD8295098
Probable space group: I B A M
;
_chemical_formula_sum "Si O2"
_cell_formula_units_Z 112
_cell_length_a 21.831822
_cell_length_b 10.947798
_cell_length_c 22.565781
_cell_angle_alpha 90.000000
_cell_angle_beta 90.000000
_cell_angle_gamma 90.000000
_cell_volume 5393.455829
_symmetry_space_group_name_H-M "I B A M"
_symmetry_group_IT_number 72
_symmetry_cell_setting 'orthorhombic'
loop_
_space_group_symop_operation_xyz
x,y,z
-x,-y,z
x,-y,1/2-z
-x,y,1/2-z
-x,-y,-z
x,y,-z
-x,y,1/2+z
x,-y,1/2+z
1/2+x,1/2+y,1/2+z
1/2-x,1/2-y,1/2+z
1/2+x,1/2-y,-z
1/2-x,1/2+y,-z
1/2-x,1/2-y,1/2-z
1/2+x,1/2+y,1/2-z
1/2-x,1/2+y,z
1/2+x,1/2-y,z
loop_
_atom_site_type_symbol
_atom_site_label
_atom_site_fract_x
_atom_site_fract_y
_atom_site_fract_z
Si Si1 0.432419 0.356595 0.258204
Si Si2 0.761771 0.623464 0.285571
Si Si3 0.937405 0.432969 0.932344
Si Si4 0.321138 0.894205 0.066198
Si Si5 0.132105 0.264705 0.350819
Si Si6 0.684648 0.442380 0.432630
Si Si7 0.849155 0.841206 0.137188
O O1 0.432120 0.500000 0.250000
O O2 0.500000 0.301992 0.250000
O O3 0.389181 0.298631 0.209206
O O4 0.411068 0.322852 0.324971
O O5 0.776679 0.500000 0.250000
O O6 0.750000 0.750000 0.250000
O O7 0.818311 0.634842 0.331066
O O8 0.699797 0.594832 0.320042
O O9 0.879282 0.520074 0.926383
O O10 0.925158 0.322352 0.886808
O O11 0.000000 0.500000 0.913082
O O12 0.943908 0.384632 0.000000
O O13 0.257598 0.967446 0.076233
O O14 0.325544 0.787589 0.114013
O O15 0.321275 0.837258 0.000000
O O16 0.165888 0.170938 0.393128
O O17 0.669408 0.408516 0.500000
O O18 0.644233 0.561990 0.416346
#
# Coordination Sequence:
#
# PCOD8295098 Si02
#       7
#    16  16  16  16  16  16  16
#     4  11  25  43  63  90 126 173 216 267 326 383
#     4  12  25  40  64  97 134 172 217 265 332 402
#     4  10  24  45  67  92 129 175 222 269 325 389
#     4  10  23  40  64  98 132 170 210 266 331 391
#     4  12  23  42  68  95 129 171 216 269 328 389
#     4  11  23  40  66 102 131 164 213 270 333 398
#     4  12  22  40  67  90 132 169 212 265 327 392
#
# _framework density 20.765906999999999
#
# number of rings (size 3 to 8) (size 9 to 14) (size 15 to 20)
#    0.000    0.857    4.286    3.000    4.000    0.000 
#    0.000    0.000    0.000    0.857    0.000    0.000 
#    0.000    0.000    0.000    0.000    0.000    0.000 
#
# Total GULP energy -694398.947400 kJ/mol
# GULP energy per Si atom -12399.981204 kJ/mol
# Density = 2.071864 g / cm^3
# Si number density = 20.765907 Si / 1000 Ang^3
#
#
#
# Elastic Constant Matrix: (Units=GPa)
#
#
# Indices 1 2 3 4 5 6 
#
# 1 116.3907 18.1185 39.2439 0.0000 0.0000 0.0000
# 2 18.1185 74.8969 35.6094 0.0000 0.0000 0.0000
# 3 39.2439 35.6094 90.2814 0.0000 0.0000 0.0000
# 4 0.0000 0.0000 0.0000 37.7352 0.0000 0.0000
# 5 0.0000 0.0000 0.0000 0.0000 29.6450 0.0000
# 6 0.0000 0.0000 0.0000 0.0000 0.0000 90.7660
#
#
#
# Elastic Compliance Matrix: (Units=1/GPa)
#
#
# Indices 1 2 3 4 5 6 
#
# 1 0.010079 -0.000437 -0.004209 0.000000 0.000000 0.000000
# 2 -0.000437 0.016452 -0.006299 0.000000 0.000000 0.000000
# 3 -0.004209 -0.006299 0.015390 0.000000 0.000000 0.000000
# 4 0.000000 0.000000 0.000000 0.026500 0.000000 0.000000
# 5 0.000000 0.000000 0.000000 0.000000 0.033732 0.000000
# 6 0.000000 0.000000 0.000000 0.000000 0.000000 0.011017
#
#
# Mechanical properties :
#
#
# Convention : Reuss Voigt Hill
#
# Bulk Modulus (GPa) = 49.92122 51.94584 50.93353
# Shear Modulus (GPa) = 35.27601 44.20239 39.73920
#
# Velocity S-wave (km/s) = 4.12606 4.61868 4.37930
# Velocity P-wave (km/s) = 6.84042 7.31521 7.08179
#
# Compressibility (1/GPa) = 0.02003156
#
# Stress axis : x y z
#
# Youngs Moduli (GPa) = 99.21757 60.78147 64.97522
#
# Poissons Ratio (x) = 0.02657 0.27346
# Poissons Ratio (y) = 0.04338 0.40929
# Poissons Ratio (z) = 0.41757 0.38287
#
# Static dielectric constant tensor:
#      x y z
#    x 3.961370 0.000000 0.000000 
#    y 0.000000 3.568090 0.000000 
#    z 0.000000 0.000000 4.058750 
# 
# 
# High freq. dielectric constant tensor:
#      x y z
#    x 1.808910 0.000000 0.000000 
#    y 0.000000 1.805290 0.000000 
#    z 0.000000 0.000000 1.829460 
# 
# From -- ./inp_files/45398.got.cif
#   From: 2010.03.12/outbox.cif.g09.slc.cpg/sg72_23_cif.got.tgz:45398.got - 2010.04.16 14:54:00.
