data_PCOD8295953
_publ_section_title
;
Structure prediction by ZEFSAII (Michael W. Deem and Ramdas Pophale) SiO2 
 PCOD8295953
Probable space group: I B C A 
;
_chemical_formula_sum "Si O2"
_cell_formula_units_Z 104
_cell_length_a 9.209704
_cell_length_b 18.556829
_cell_length_c 30.152954
_cell_angle_alpha 90.000000
_cell_angle_beta 90.000000
_cell_angle_gamma 90.000000
_cell_volume 5153.227351
_symmetry_space_group_name_H-M "I B C A "
_symmetry_group_IT_number 73
_symmetry_cell_setting 'orthorhombic'
loop_
_space_group_symop_operation_xyz
x,y,z
-x,1/2-y,z
x,-y,1/2-z
1/2-x,y,-z
-x,-y,-z
x,1/2+y,-z
-x,y,1/2+z
1/2+x,-y,z
1/2+x,1/2+y,1/2+z
1/2-x,-y,1/2+z
1/2+x,1/2-y,-z
-x,1/2+y,1/2-z
1/2-x,1/2-y,1/2-z
1/2+x,y,1/2-z
1/2-x,1/2+y,z
x,1/2-y,1/2+z
loop_
_atom_site_type_symbol
_atom_site_label
_atom_site_fract_x
_atom_site_fract_y
_atom_site_fract_z
Si Si1 0.967851 0.500000 0.750000
Si Si2 0.656527 0.726636 0.708885
Si Si3 0.477950 0.539096 0.453482
Si Si4 0.334790 0.266983 0.390090
Si Si5 0.230145 0.434217 0.598168
Si Si6 0.218260 0.564417 0.802147
Si Si7 0.360598 0.199172 0.538903
O O1 0.074854 0.519290 0.790054
O O2 0.857118 0.440175 0.769360
O O3 0.500000 0.750000 0.724037
O O4 0.750000 0.750000 0.750000
O O5 0.698588 0.758090 0.660614
O O6 0.657225 0.642916 0.701598
O O7 0.500000 0.500000 0.500000
O O8 0.395816 0.485021 0.420640
O O9 0.632294 0.556682 0.432799
O O10 0.395474 0.614392 0.460728
O O11 0.500000 0.250000 0.403420
O O12 0.314669 0.350793 0.401513
O O13 0.219571 0.218142 0.415594
O O14 0.265803 0.458362 0.648451
O O15 0.500000 0.250000 0.532512
O O16 0.250000 0.217859 0.500000
#
# Coordination Sequence:
#
# PCOD8295953 Si02
#       7
#     8  16  16  16  16  16  16
#     4  10  20  38  60  92 124 166 218 262 320 388
#     4  10  21  40  62  96 130 172 217 271 326 387
#     4  12  27  45  67  99 132 172 225 277 338 402
#     4  10  24  44  68  97 136 179 222 276 336 399
#     4  11  24  44  66  96 135 173 223 277 332 400
#     4  10  21  39  63  91 128 171 215 267 330 383
#     4  12  26  45  69  99 130 174 220 272 338 401
#
# _framework density 20.181526999999999
#
# number of rings (size 3 to 8) (size 9 to 14) (size 15 to 20)
#    0.000    1.231    1.538    3.692    6.462    0.615 
#   11.077    0.000    0.000    0.000    0.000    0.000 
#    0.000    0.000    0.000    0.000    0.000    0.000 
#
# Total GULP energy -644547.552185 kJ/mol
# GULP energy per Si atom -12395.145234 kJ/mol
# Density = 2.013559 g / cm^3
# Si number density = 20.181527 Si / 1000 Ang^3
#
#
#
# Elastic Constant Matrix: (Units=GPa)
#
#
# Indices 1 2 3 4 5 6 
#
# 1 148.7236 49.8768 78.6439 0.0000 0.0000 0.0000
# 2 49.8768 90.8978 59.9907 0.0000 0.0000 0.0000
# 3 78.6439 59.9907 141.8086 0.0000 0.0000 0.0000
# 4 0.0000 0.0000 0.0000 33.7125 0.0000 0.0000
# 5 0.0000 0.0000 0.0000 0.0000 46.1403 0.0000
# 6 0.0000 0.0000 0.0000 0.0000 0.0000 37.4407
#
#
#
# Elastic Compliance Matrix: (Units=1/GPa)
#
#
# Indices 1 2 3 4 5 6 
#
# 1 0.009911 -0.002512 -0.004434 0.000000 0.000000 0.000000
# 2 -0.002512 0.015899 -0.005333 0.000000 0.000000 0.000000
# 3 -0.004434 -0.005333 0.011767 0.000000 0.000000 0.000000
# 4 0.000000 0.000000 0.000000 0.029663 0.000000 0.000000
# 5 0.000000 0.000000 0.000000 0.000000 0.021673 0.000000
# 6 0.000000 0.000000 0.000000 0.000000 0.000000 0.026709
#
#
# Mechanical properties :
#
#
# Convention : Reuss Voigt Hill
#
# Bulk Modulus (GPa) = 76.80763 84.27254 80.54008
# Shear Modulus (GPa) = 34.59767 36.31994 35.45881
#
# Velocity S-wave (km/s) = 4.14493 4.24685 4.19620
# Velocity P-wave (km/s) = 7.81334 8.11761 7.96693
#
# Compressibility (1/GPa) = 0.01301954
#
# Stress axis : x y z
#
# Youngs Moduli (GPa) = 100.90000 62.89540 84.98654
#
# Poissons Ratio (x) = 0.15800 0.37680
# Poissons Ratio (y) = 0.25347 0.45323
# Poissons Ratio (z) = 0.44735 0.33542
#
# Static dielectric constant tensor:
#      x y z
#    x 3.613370 0.000000 0.000000 
#    y 0.000000 3.757620 0.000000 
#    z 0.000000 0.000000 4.128700 
# 
# 
# High freq. dielectric constant tensor:
#      x y z
#    x 1.802570 0.000000 0.000000 
#    y 0.000000 1.791360 0.000000 
#    z 0.000000 0.000000 1.806970 
# 
# From -- ./inp_files/31276.got.cif
#   From: 2010.03.12/outbox.cif.g09.slc.cpg/sg73_16_cif.got.tgz:31276.got - 2010.04.16 15:25:48.
