data_PCOD8295284
_publ_section_title
;
Structure prediction by ZEFSAII (Michael W. Deem and Ramdas Pophale) SiO2 
 PCOD8295284
Probable space group: I B A M
;
_chemical_formula_sum "Si O2"
_cell_formula_units_Z 104
_cell_length_a 23.276242
_cell_length_b 14.137070
_cell_length_c 14.337913
_cell_angle_alpha 90.000000
_cell_angle_beta 90.000000
_cell_angle_gamma 90.000000
_cell_volume 4718.003004
_symmetry_space_group_name_H-M "I B A M"
_symmetry_group_IT_number 72
_symmetry_cell_setting 'orthorhombic'
loop_
_space_group_symop_operation_xyz
x,y,z
-x,-y,z
x,-y,1/2-z
-x,y,1/2-z
-x,-y,-z
x,y,-z
-x,y,1/2+z
x,-y,1/2+z
1/2+x,1/2+y,1/2+z
1/2-x,1/2-y,1/2+z
1/2+x,1/2-y,-z
1/2-x,1/2+y,-z
1/2-x,1/2-y,1/2-z
1/2+x,1/2+y,1/2-z
1/2-x,1/2+y,z
1/2+x,1/2-y,z
loop_
_atom_site_type_symbol
_atom_site_label
_atom_site_fract_x
_atom_site_fract_y
_atom_site_fract_z
Si Si1 0.268011 0.471505 0.394330
Si Si2 0.913749 0.746810 0.603785
Si Si3 0.311666 0.725474 0.857867
Si Si4 0.141115 0.553096 0.889660
Si Si5 0.585559 0.860099 0.393619
Si Si6 0.000000 0.277183 0.750000
Si Si7 0.199909 0.171334 0.348381
O O1 0.261987 0.509820 0.500000
O O2 0.310985 0.382563 0.393494
O O3 0.206546 0.438361 0.352272
O O4 0.291711 0.558992 0.333093
O O5 0.942401 0.743284 0.500000
O O6 0.896327 0.642631 0.642775
O O7 0.857373 0.811677 0.591409
O O8 0.956993 0.786048 0.684800
O O9 0.369310 0.774062 0.894300
O O10 0.256368 0.783345 0.897039
O O11 0.311491 0.726559 0.746938
O O12 0.114626 0.455141 0.852846
O O13 0.143501 0.553976 0.000000
O O14 0.563684 0.875003 0.500000
O O15 0.532096 0.840871 0.326702
#
# Coordination Sequence:
#
# PCOD8295284 Si02
#       7
#    16  16  16  16  16   8  16
#     4  11  21  35  61  94 132 168 198 247 319 388
#     4  11  23  42  65  90 128 169 214 264 313 372
#     4  11  22  38  61  96 130 164 206 256 318 384
#     4   9  20  36  59  94 129 167 207 254 310 379
#     4  11  23  42  65  90 128 169 214 264 313 372
#     4  12  26  45  60  91 122 170 230 263 314 359
#     4  11  22  38  61  96 130 164 206 256 318 384
#
# _framework density 22.043223999999999
#
# number of rings (size 3 to 8) (size 9 to 14) (size 15 to 20)
#    0.000    1.231    4.615    1.846    0.000    3.077 
#    2.769    2.308    0.000    1.846    0.000    3.231 
#    0.000    0.000    0.000    0.000    0.000    0.000 
#
# Total GULP energy -644744.775240 kJ/mol
# GULP energy per Si atom -12398.937985 kJ/mol
# Density = 2.199305 g / cm^3
# Si number density = 22.043224 Si / 1000 Ang^3
#
#
#
# Elastic Constant Matrix: (Units=GPa)
#
#
# Indices 1 2 3 4 5 6 
#
# 1 109.2860 31.9844 34.3854 0.0000 0.0000 0.0000
# 2 31.9844 106.3692 5.6839 0.0000 0.0000 0.0000
# 3 34.3854 5.6839 81.8258 0.0000 0.0000 0.0000
# 4 0.0000 0.0000 0.0000 21.4632 0.0000 0.0000
# 5 0.0000 0.0000 0.0000 0.0000 29.8819 0.0000
# 6 0.0000 0.0000 0.0000 0.0000 0.0000 17.1887
#
#
#
# Elastic Compliance Matrix: (Units=1/GPa)
#
#
# Indices 1 2 3 4 5 6 
#
# 1 0.011551 -0.003226 -0.004630 0.000000 0.000000 0.000000
# 2 -0.003226 0.010337 0.000638 0.000000 0.000000 0.000000
# 3 -0.004630 0.000638 0.014122 0.000000 0.000000 0.000000
# 4 0.000000 0.000000 0.000000 0.046591 0.000000 0.000000
# 5 0.000000 0.000000 0.000000 0.000000 0.033465 0.000000
# 6 0.000000 0.000000 0.000000 0.000000 0.000000 0.058178
#
#
# Mechanical properties :
#
#
# Convention : Reuss Voigt Hill
#
# Bulk Modulus (GPa) = 46.35209 49.06538 47.70873
# Shear Modulus (GPa) = 25.52671 28.73525 27.13098
#
# Velocity S-wave (km/s) = 3.40668 3.61444 3.51209
# Velocity P-wave (km/s) = 6.04544 6.30285 6.17549
#
# Compressibility (1/GPa) = 0.02157400
#
# Stress axis : x y z
#
# Youngs Moduli (GPa) = 86.57095 96.73834 70.80918
#
# Poissons Ratio (x) = 0.31207 0.32785
# Poissons Ratio (y) = 0.27927 -0.04515
# Poissons Ratio (z) = 0.40083 -0.06168
#
# Static dielectric constant tensor:
#      x y z
#    x 3.914630 0.000000 0.000000 
#    y 0.000000 3.732010 0.000000 
#    z 0.000000 0.000000 4.007470 
# 
# 
# High freq. dielectric constant tensor:
#      x y z
#    x 1.850080 0.000000 0.000000 
#    y 0.000000 1.840820 0.000000 
#    z 0.000000 0.000000 1.882870 
# 
# From -- ./inp_files/25223.got.cif
#   From: 2010.03.12/outbox.cif.g09.slc.cpg/sg72_13_cif.got.tgz:25223.got - 2010.04.16 14:54:00.
