data_PCOD8295326
_publ_section_title
;
Structure prediction by ZEFSAII (Michael W. Deem and Ramdas Pophale) SiO2 
 PCOD8295326
Probable space group: I B A M
;
_chemical_formula_sum "Si O2"
_cell_formula_units_Z 96
_cell_length_a 22.284918
_cell_length_b 14.112635
_cell_length_c 13.907788
_cell_angle_alpha 90.000000
_cell_angle_beta 90.000000
_cell_angle_gamma 90.000000
_cell_volume 4373.984219
_symmetry_space_group_name_H-M "I B A M"
_symmetry_group_IT_number 72
_symmetry_cell_setting 'orthorhombic'
loop_
_space_group_symop_operation_xyz
x,y,z
-x,-y,z
x,-y,1/2-z
-x,y,1/2-z
-x,-y,-z
x,y,-z
-x,y,1/2+z
x,-y,1/2+z
1/2+x,1/2+y,1/2+z
1/2-x,1/2-y,1/2+z
1/2+x,1/2-y,-z
1/2-x,1/2+y,-z
1/2-x,1/2-y,1/2-z
1/2+x,1/2+y,1/2-z
1/2-x,1/2+y,z
1/2+x,1/2-y,z
loop_
_atom_site_type_symbol
_atom_site_label
_atom_site_fract_x
_atom_site_fract_y
_atom_site_fract_z
Si Si1 0.650518 0.397088 0.285072
Si Si2 0.013323 0.396103 0.141200
Si Si3 0.922156 0.664247 0.500000
Si Si4 0.339956 0.342494 0.000000
Si Si5 0.869045 0.282829 0.318618
Si Si6 0.781502 0.597084 0.294652
Si Si7 0.796863 0.317574 0.500000
Si Si8 0.810584 0.457747 0.000000
O O1 0.629120 0.500000 0.250000
O O2 0.646791 0.400316 0.401564
O O3 0.609916 0.317609 0.229179
O O4 0.718814 0.374162 0.253785
O O5 0.079065 0.348658 0.134061
O O6 0.000000 0.500000 0.093422
O O7 0.000000 0.406104 0.250000
O O8 0.965080 0.327745 0.092601
O O9 0.882103 0.754325 0.500000
O O10 0.880715 0.570438 0.500000
O O11 0.273653 0.300360 0.000000
O O12 0.834378 0.329726 0.228744
O O13 0.822914 0.266459 0.405709
O O14 0.805435 0.500000 0.250000
O O15 0.775146 0.585105 0.409007
O O16 0.809485 0.429413 0.500000
#
# Coordination Sequence:
#
# PCOD8295326 Si02
#       8
#    16  16   8   8  16  16   8   8
#     4  11  25  44  67 100 138 179 230 286 344 410
#     4  11  24  42  65  96 135 179 226 274 334 411
#     4  12  26  43  66  96 136 181 220 271 346 409
#     4  12  24  46  66  95 136 178 224 289 344 412
#     4  12  24  41  66  98 138 182 231 285 336 408
#     4  11  22  37  64  98 142 181 220 270 347 417
#     4  12  23  37  62  98 136 175 229 277 343 409
#     4  12  22  38  63  95 138 186 215 270 339 420
#
# _framework density 21.947953999999999
#
# number of rings (size 3 to 8) (size 9 to 14) (size 15 to 20)
#    0.000    0.500    3.333    6.250    4.667    0.667 
#    0.000    0.000    0.000    5.500    0.000    0.000 
#    0.000    0.000    0.000    0.000    0.000    0.000 
#
# Total GULP energy -594979.167011 kJ/mol
# GULP energy per Si atom -12395.399313 kJ/mol
# Density = 2.189800 g / cm^3
# Si number density = 21.947954 Si / 1000 Ang^3
#
#
#
# Elastic Constant Matrix: (Units=GPa)
#
#
# Indices 1 2 3 4 5 6 
#
# 1 84.1794 42.6000 31.3528 0.0000 0.0000 0.0000
# 2 42.6000 126.6748 54.9089 0.0000 0.0000 0.0000
# 3 31.3528 54.9089 176.8407 0.0000 0.0000 0.0000
# 4 0.0000 0.0000 0.0000 32.4809 0.0000 0.0000
# 5 0.0000 0.0000 0.0000 0.0000 17.3208 0.0000
# 6 0.0000 0.0000 0.0000 0.0000 0.0000 33.6457
#
#
#
# Elastic Compliance Matrix: (Units=1/GPa)
#
#
# Indices 1 2 3 4 5 6 
#
# 1 0.014542 -0.004359 -0.001225 0.000000 0.000000 0.000000
# 2 -0.004359 0.010429 -0.002465 0.000000 0.000000 0.000000
# 3 -0.001225 -0.002465 0.006637 0.000000 0.000000 0.000000
# 4 0.000000 0.000000 0.000000 0.030787 0.000000 0.000000
# 5 0.000000 0.000000 0.000000 0.000000 0.057734 0.000000
# 6 0.000000 0.000000 0.000000 0.000000 0.000000 0.029722
#
#
# Mechanical properties :
#
#
# Convention : Reuss Voigt Hill
#
# Bulk Modulus (GPa) = 64.47714 71.71314 68.09514
# Shear Modulus (GPa) = 29.21938 33.94501 31.58219
#
# Velocity S-wave (km/s) = 3.65266 3.93697 3.79748
# Velocity P-wave (km/s) = 6.87243 7.30831 7.09372
#
# Compressibility (1/GPa) = 0.01550937
#
# Stress axis : x y z
#
# Youngs Moduli (GPa) = 68.76805 95.88740 150.66210
#
# Poissons Ratio (x) = 0.41802 0.18449
# Poissons Ratio (y) = 0.29979 0.37142
# Poissons Ratio (z) = 0.08421 0.23639
#
# Static dielectric constant tensor:
#      x y z
#    x 3.041300 0.000000 0.000000 
#    y 0.000000 4.124930 0.000000 
#    z 0.000000 0.000000 4.317290 
# 
# 
# High freq. dielectric constant tensor:
#      x y z
#    x 1.833310 0.000000 0.000000 
#    y 0.000000 1.856790 0.000000 
#    z 0.000000 0.000000 1.891130 
# 
# From -- ./inp_files/25157.got.cif
#   From: 2010.03.12/outbox.cif.g09.slc.cpg/sg72_13_cif.got.tgz:25157.got - 2010.04.16 14:54:00.
