data_PCOD8295442
_publ_section_title
;
Structure prediction by ZEFSAII (Michael W. Deem and Ramdas Pophale) SiO2 
 PCOD8295442
Probable space group: I B A M
;
_chemical_formula_sum "Si O2"
_cell_formula_units_Z 48
_cell_length_a 8.737166
_cell_length_b 12.128329
_cell_length_c 18.531976
_cell_angle_alpha 90.000000
_cell_angle_beta 90.000000
_cell_angle_gamma 90.000000
_cell_volume 1963.782048
_symmetry_space_group_name_H-M "I B A M"
_symmetry_group_IT_number 72
_symmetry_cell_setting 'orthorhombic'
loop_
_space_group_symop_operation_xyz
x,y,z
-x,-y,z
x,-y,1/2-z
-x,y,1/2-z
-x,-y,-z
x,y,-z
-x,y,1/2+z
x,-y,1/2+z
1/2+x,1/2+y,1/2+z
1/2-x,1/2-y,1/2+z
1/2+x,1/2-y,-z
1/2-x,1/2+y,-z
1/2-x,1/2-y,1/2-z
1/2+x,1/2+y,1/2-z
1/2-x,1/2+y,z
1/2+x,1/2-y,z
loop_
_atom_site_type_symbol
_atom_site_label
_atom_site_fract_x
_atom_site_fract_y
_atom_site_fract_z
Si Si1 0.057862 0.118945 0.144178
Si Si2 0.249477 0.000000 0.250000
Si Si3 0.644254 0.789318 0.080446
Si Si4 0.500000 0.000000 0.135261
O O1 0.138048 0.100279 0.223356
O O2 0.180942 0.175256 0.091830
O O3 0.911363 0.200624 0.140924
O O4 0.000000 0.000000 0.115594
O O5 0.355113 0.037927 0.316168
O O6 0.538805 0.897413 0.085407
O O7 0.628835 0.739516 0.000000
#
# Coordination Sequence:
#
# PCOD8295442 Si02
#       4
#    16   8  16   8
#     4  11  26  48  70 107 143 191 241 296 364 423
#     4   9  21  46  68 102 142 184 236 296 354 418
#     4  11  25  44  73 104 144 193 239 295 357 429
#     4   9  21  44  70 108 141 191 244 288 358 425
#
# _framework density 24.442630000000001
#
# number of rings (size 3 to 8) (size 9 to 14) (size 15 to 20)
#    0.000    1.667    0.000    2.000    9.333    4.000 
#   18.000    0.000    0.000    0.000    0.000    0.000 
#    0.000    0.000    0.000    0.000    0.000    0.000 
#
# Total GULP energy -297401.856027 kJ/mol
# GULP energy per Si atom -12391.744001 kJ/mol
# Density = 2.438700 g / cm^3
# Si number density = 24.442630 Si / 1000 Ang^3
#
#
#
# Elastic Constant Matrix: (Units=GPa)
#
#
# Indices 1 2 3 4 5 6 
#
# 1 148.4493 58.1417 34.7698 0.0000 0.0000 0.0000
# 2 58.1417 134.1848 21.1207 0.0000 0.0000 0.0000
# 3 34.7698 21.1207 98.1866 0.0000 0.0000 0.0000
# 4 0.0000 0.0000 0.0000 31.6173 0.0000 0.0000
# 5 0.0000 0.0000 0.0000 0.0000 18.1955 0.0000
# 6 0.0000 0.0000 0.0000 0.0000 0.0000 54.8278
#
#
#
# Elastic Compliance Matrix: (Units=1/GPa)
#
#
# Indices 1 2 3 4 5 6 
#
# 1 0.008596 -0.003359 -0.002321 0.000000 0.000000 0.000000
# 2 -0.003359 0.009026 -0.000752 0.000000 0.000000 0.000000
# 3 -0.002321 -0.000752 0.011168 0.000000 0.000000 0.000000
# 4 0.000000 0.000000 0.000000 0.031628 0.000000 0.000000
# 5 0.000000 0.000000 0.000000 0.000000 0.054959 0.000000
# 6 0.000000 0.000000 0.000000 0.000000 0.000000 0.018239
#
#
# Mechanical properties :
#
#
# Convention : Reuss Voigt Hill
#
# Bulk Modulus (GPa) = 62.79277 67.65389 65.22333
# Shear Modulus (GPa) = 32.94035 38.71404 35.82719
#
# Velocity S-wave (km/s) = 3.67503 3.98411 3.83269
# Velocity P-wave (km/s) = 6.61464 6.99306 6.80648
#
# Compressibility (1/GPa) = 0.01592540
#
# Stress axis : x y z
#
# Youngs Moduli (GPa) = 116.33834 110.78783 89.53754
#
# Poissons Ratio (x) = 0.37214 0.20784
# Poissons Ratio (y) = 0.39079 0.06734
# Poissons Ratio (z) = 0.27006 0.08332
#
# Static dielectric constant tensor:
#      x y z
#    x 5.060130 0.000000 0.000000 
#    y 0.000000 4.334550 0.000000 
#    z 0.000000 0.000000 4.007470 
# 
# 
# High freq. dielectric constant tensor:
#      x y z
#    x 2.006430 0.000000 0.000000 
#    y 0.000000 1.954750 0.000000 
#    z 0.000000 0.000000 1.950170 
# 
# From -- ./inp_files/35136.got.cif
#   From: 2010.03.12/outbox.cif.g09.slc.cpg/sg72_18_cif.got.tgz:35136.got - 2010.04.16 14:54:00.
