data_PCOD8295778
_publ_section_title
;
Structure prediction by ZEFSAII (Michael W. Deem and Ramdas Pophale) SiO2 
 PCOD8295778
Probable space group: I B C A 
;
_chemical_formula_sum "Si O2"
_cell_formula_units_Z 88
_cell_length_a 8.351666
_cell_length_b 21.106287
_cell_length_c 22.507273
_cell_angle_alpha 90.000000
_cell_angle_beta 90.000000
_cell_angle_gamma 90.000000
_cell_volume 3967.416870
_symmetry_space_group_name_H-M "I B C A "
_symmetry_group_IT_number 73
_symmetry_cell_setting 'orthorhombic'
loop_
_space_group_symop_operation_xyz
x,y,z
-x,1/2-y,z
x,-y,1/2-z
1/2-x,y,-z
-x,-y,-z
x,1/2+y,-z
-x,y,1/2+z
1/2+x,-y,z
1/2+x,1/2+y,1/2+z
1/2-x,-y,1/2+z
1/2+x,1/2-y,-z
-x,1/2+y,1/2-z
1/2-x,1/2-y,1/2-z
1/2+x,y,1/2-z
1/2-x,1/2+y,z
x,1/2-y,1/2+z
loop_
_atom_site_type_symbol
_atom_site_label
_atom_site_fract_x
_atom_site_fract_y
_atom_site_fract_z
Si Si1 0.250000 0.822960 0.000000
Si Si2 0.588346 0.089738 0.907640
Si Si3 0.067457 0.854345 0.672191
Si Si4 0.500000 0.750000 0.419307
Si Si5 0.722297 0.533276 0.626938
Si Si6 0.220907 0.500000 0.750000
Si Si7 0.703085 0.128829 0.790334
O O1 0.368965 0.867994 0.036251
O O2 0.140823 0.779506 0.041454
O O3 0.407455 0.064759 0.916863
O O4 0.595531 0.136308 0.849535
O O5 0.709937 0.030478 0.902791
O O6 0.134916 0.918201 0.642043
O O7 0.156886 0.828908 0.732617
O O8 0.085948 0.801080 0.622462
O O9 0.885429 0.864202 0.691023
O O10 0.625643 0.516856 0.688947
O O11 0.336480 0.441568 0.765936
#
# Coordination Sequence:
#
# PCOD8295778 Si02
#       7
#     8  16  16   8  16   8  16
#     4  12  30  54  72  92 138 196 254 294 346 420
#     4  11  23  43  70 108 141 185 230 290 359 424
#     4  11  23  43  70 106 142 186 229 293 357 424
#     4  12  30  54  70  94 138 196 250 300 346 416
#     4  10  21  38  71 108 149 177 225 284 364 429
#     4   8  16  30  60 100 142 176 190 266 358 432
#     4  10  19  38  66 106 142 175 228 282 360 425
#
# _framework density 22.180678
#
# number of rings (size 3 to 8) (size 9 to 14) (size 15 to 20)
#    0.000    1.455    1.818    4.364    2.545    7.273 
#    0.000    0.000    0.000    0.000    0.000    0.000 
#    0.000    0.000    0.000    0.000    0.000    0.000 
#
# Total GULP energy -545163.071556 kJ/mol
# GULP energy per Si atom -12390.069808 kJ/mol
# Density = 2.213019 g / cm^3
# Si number density = 22.180678 Si / 1000 Ang^3
#
#
#
# Elastic Constant Matrix: (Units=GPa)
#
#
# Indices 1 2 3 4 5 6 
#
# 1 99.2567 36.2005 33.8665 0.0000 0.0000 0.0000
# 2 36.2005 94.6722 65.2783 0.0000 0.0000 0.0000
# 3 33.8665 65.2783 123.3053 0.0000 0.0000 0.0000
# 4 0.0000 0.0000 0.0000 33.1564 0.0000 0.0000
# 5 0.0000 0.0000 0.0000 0.0000 36.3349 0.0000
# 6 0.0000 0.0000 0.0000 0.0000 0.0000 17.8142
#
#
#
# Elastic Compliance Matrix: (Units=1/GPa)
#
#
# Indices 1 2 3 4 5 6 
#
# 1 0.011848 -0.003601 -0.001348 0.000000 0.000000 0.000000
# 2 -0.003601 0.017730 -0.008397 0.000000 0.000000 0.000000
# 3 -0.001348 -0.008397 0.012926 0.000000 0.000000 0.000000
# 4 0.000000 0.000000 0.000000 0.030160 0.000000 0.000000
# 5 0.000000 0.000000 0.000000 0.000000 0.027522 0.000000
# 6 0.000000 0.000000 0.000000 0.000000 0.000000 0.056135
#
#
# Mechanical properties :
#
#
# Convention : Reuss Voigt Hill
#
# Bulk Modulus (GPa) = 63.24521 65.32497 64.28509
# Shear Modulus (GPa) = 26.55580 29.58703 28.07142
#
# Velocity S-wave (km/s) = 3.46388 3.65624 3.56136
# Velocity P-wave (km/s) = 6.67634 6.88036 6.77912
#
# Compressibility (1/GPa) = 0.01581147
#
# Stress axis : x y z
#
# Youngs Moduli (GPa) = 84.40152 56.40237 77.36621
#
# Poissons Ratio (x) = 0.20312 0.10426
# Poissons Ratio (y) = 0.30395 0.64965
# Poissons Ratio (z) = 0.11374 0.47362
#
# Static dielectric constant tensor:
#      x y z
#    x 3.730970 0.000000 0.000000 
#    y 0.000000 4.051370 0.000000 
#    z 0.000000 0.000000 4.283910 
# 
# 
# High freq. dielectric constant tensor:
#      x y z
#    x 1.864260 0.000000 0.000000 
#    y 0.000000 1.858050 0.000000 
#    z 0.000000 0.000000 1.878040 
# 
# From -- ./inp_files/24814.got.cif
#   From: 2010.03.12/outbox.cif.g09.slc.cpg/sg73_13_cif.got.tgz:24814.got - 2010.04.16 15:25:48.
