data_PCOD8295846
_publ_section_title
;
Structure prediction by ZEFSAII (Michael W. Deem and Ramdas Pophale) SiO2 
 PCOD8295846
Probable space group: I B C A 
;
_chemical_formula_sum "Si O2"
_cell_formula_units_Z 104
_cell_length_a 20.139832
_cell_length_b 10.024272
_cell_length_c 24.229687
_cell_angle_alpha 90.000000
_cell_angle_beta 90.000000
_cell_angle_gamma 90.000000
_cell_volume 4891.662551
_symmetry_space_group_name_H-M "I B C A "
_symmetry_group_IT_number 73
_symmetry_cell_setting 'orthorhombic'
loop_
_space_group_symop_operation_xyz
x,y,z
-x,1/2-y,z
x,-y,1/2-z
1/2-x,y,-z
-x,-y,-z
x,1/2+y,-z
-x,y,1/2+z
1/2+x,-y,z
1/2+x,1/2+y,1/2+z
1/2-x,-y,1/2+z
1/2+x,1/2-y,-z
-x,1/2+y,1/2-z
1/2-x,1/2-y,1/2-z
1/2+x,y,1/2-z
1/2-x,1/2+y,z
x,1/2-y,1/2+z
loop_
_atom_site_type_symbol
_atom_site_label
_atom_site_fract_x
_atom_site_fract_y
_atom_site_fract_z
Si Si1 0.000000 0.250000 0.349276
Si Si2 0.069406 0.266472 0.646643
Si Si3 0.101014 0.653322 0.241333
Si Si4 0.298945 0.870330 0.789466
Si Si5 0.776866 0.036013 0.559165
Si Si6 0.291135 0.802946 0.119157
Si Si7 0.103585 0.950966 0.117516
O O1 0.053400 0.329994 0.312043
O O2 0.041006 0.149222 0.389642
O O3 0.058945 0.203810 0.706903
O O4 0.129054 0.194850 0.614573
O O5 0.079955 0.423454 0.652605
O O6 0.000000 0.250000 0.613495
O O7 0.121925 0.500000 0.250000
O O8 0.168993 0.741511 0.239917
O O9 0.227669 0.831897 0.816453
O O10 0.340624 0.887015 0.844742
O O11 0.295591 0.000000 0.750000
O O12 0.750000 0.082934 0.500000
O O13 0.764148 0.157345 0.601580
O O14 0.731435 0.912879 0.576044
O O15 0.856089 0.992677 0.561210
#
# Coordination Sequence:
#
# PCOD8295846 Si02
#       7
#     8  16  16  16  16  16  16
#     4  10  20  34  58  84 136 176 212 252 308 394
#     4  11  21  37  56  82 130 167 215 250 307 386
#     4  11  22  31  55  87 123 181 220 243 296 385
#     4  10  20  39  59  84 135 170 207 268 315 371
#     4  10  21  44  71  93 121 160 216 288 345 391
#     4  10  24  39  64  97 121 164 215 264 339 394
#     4   9  20  38  59  91 123 174 212 265 318 384
#
# _framework density 21.260666000000001
#
# number of rings (size 3 to 8) (size 9 to 14) (size 15 to 20)
#    0.000    1.846    2.308    1.385    2.154    1.231 
#    2.769    0.000    1.692    1.846    0.000    0.000 
#    0.000    0.000    0.000    0.000    0.000    0.000 
#
# Total GULP energy -644249.784714 kJ/mol
# GULP energy per Si atom -12389.418937 kJ/mol
# Density = 2.121228 g / cm^3
# Si number density = 21.260666 Si / 1000 Ang^3
#
#
#
# Elastic Constant Matrix: (Units=GPa)
#
#
# Indices 1 2 3 4 5 6 
#
# 1 102.5759 55.8113 49.6311 0.0000 0.0000 0.0000
# 2 55.8113 136.2823 35.4180 0.0000 0.0000 0.0000
# 3 49.6311 35.4180 63.4657 0.0000 0.0000 0.0000
# 4 0.0000 0.0000 0.0000 30.8921 0.0000 0.0000
# 5 0.0000 0.0000 0.0000 0.0000 16.7680 0.0000
# 6 0.0000 0.0000 0.0000 0.0000 0.0000 23.3881
#
#
#
# Elastic Compliance Matrix: (Units=1/GPa)
#
#
# Indices 1 2 3 4 5 6 
#
# 1 0.017550 -0.004235 -0.011361 0.000000 0.000000 0.000000
# 2 -0.004235 0.009604 -0.002048 0.000000 0.000000 0.000000
# 3 -0.011361 -0.002048 0.025784 0.000000 0.000000 0.000000
# 4 0.000000 0.000000 0.000000 0.032371 0.000000 0.000000
# 5 0.000000 0.000000 0.000000 0.000000 0.059637 0.000000
# 6 0.000000 0.000000 0.000000 0.000000 0.000000 0.042757
#
#
# Mechanical properties :
#
#
# Convention : Reuss Voigt Hill
#
# Bulk Modulus (GPa) = 56.65608 64.89386 60.77497
# Shear Modulus (GPa) = 21.84599 24.97387 23.40993
#
# Velocity S-wave (km/s) = 3.20899 3.43104 3.32187
# Velocity P-wave (km/s) = 6.35896 6.80333 6.58489
#
# Compressibility (1/GPa) = 0.01765036
#
# Stress axis : x y z
#
# Youngs Moduli (GPa) = 56.98009 104.12113 38.78338
#
# Poissons Ratio (x) = 0.44091 0.44063
# Poissons Ratio (y) = 0.24129 0.07944
# Poissons Ratio (z) = 0.64736 0.21327
#
# Static dielectric constant tensor:
#      x y z
#    x 4.323490 0.000000 0.000000 
#    y 0.000000 3.985930 0.000000 
#    z 0.000000 0.000000 3.494330 
# 
# 
# High freq. dielectric constant tensor:
#      x y z
#    x 1.848070 0.000000 0.000000 
#    y 0.000000 1.848010 0.000000 
#    z 0.000000 0.000000 1.783300 
# 
# From -- ./inp_files/7902.got.cif
#   From: 2010.03.12/outbox.cif.g09.slc.cpg/sg73_4_cif.got.tgz:7902.got - 2010.04.16 15:25:48.
