data_PCOD8295176
_publ_section_title
;
Structure prediction by ZEFSAII (Michael W. Deem and Ramdas Pophale) SiO2 
 PCOD8295176
Probable space group: I B A M
;
_chemical_formula_sum "Si O2"
_cell_formula_units_Z 116
_cell_length_a 17.021940
_cell_length_b 16.757428
_cell_length_c 20.986363
_cell_angle_alpha 90.000000
_cell_angle_beta 90.000000
_cell_angle_gamma 90.000000
_cell_volume 5986.232742
_symmetry_space_group_name_H-M "I B A M"
_symmetry_group_IT_number 72
_symmetry_cell_setting 'orthorhombic'
loop_
_space_group_symop_operation_xyz
x,y,z
-x,-y,z
x,-y,1/2-z
-x,y,1/2-z
-x,-y,-z
x,y,-z
-x,y,1/2+z
x,-y,1/2+z
1/2+x,1/2+y,1/2+z
1/2-x,1/2-y,1/2+z
1/2+x,1/2-y,-z
1/2-x,1/2+y,-z
1/2-x,1/2-y,1/2-z
1/2+x,1/2+y,1/2-z
1/2-x,1/2+y,z
1/2+x,1/2-y,z
loop_
_atom_site_type_symbol
_atom_site_label
_atom_site_fract_x
_atom_site_fract_y
_atom_site_fract_z
Si Si1 0.986939 0.790503 0.681814
Si Si2 0.647392 0.344415 0.853919
Si Si3 0.409910 0.513078 0.069890
Si Si4 0.242010 0.904641 0.760295
Si Si5 0.299238 0.188927 0.927002
Si Si6 0.105544 0.628121 0.811992
Si Si7 0.343888 0.359710 0.115342
Si Si8 0.000000 0.500000 0.250000
O O1 0.951511 0.703097 0.692485
O O2 0.928786 0.849514 0.646757
O O3 0.000000 0.831087 0.750000
O O4 0.071166 0.786597 0.645657
O O5 0.625082 0.432423 0.875670
O O6 0.681477 0.354997 0.783131
O O7 0.709739 0.309619 0.903667
O O8 0.500000 0.500000 0.087090
O O9 0.356608 0.433282 0.068028
O O10 0.402910 0.552802 0.000000
O O11 0.328491 0.871171 0.743301
O O12 0.223578 0.879969 0.832834
O O13 0.237306 0.000000 0.750000
O O14 0.351788 0.130489 0.881675
O O15 0.325729 0.280483 0.924118
O O16 0.306244 0.158550 0.000000
O O17 0.052843 0.550367 0.799587
#
# Coordination Sequence:
#
# PCOD8295176 Si02
#       8
#    16  16  16  16  16  16  16   4
#     4  11  21  35  56  91 123 153 194 249 315 378
#     4  11  22  37  60  86 121 161 200 253 316 373
#     4  11  22  36  55  83 117 158 204 250 301 362
#     4  11  21  36  59  92 120 153 196 253 319 368
#     4  10  24  44  60  85 125 171 210 250 310 381
#     4  10  24  38  64  90 125 163 201 263 313 378
#     4  11  22  36  62  88 122 160 202 255 307 374
#     4  12  20  40  66 100 124 156 216 266 320 356
#
# _framework density 19.377797000000001
#
# number of rings (size 3 to 8) (size 9 to 14) (size 15 to 20)
#    0.000    1.241    5.517    0.828    1.931    1.655 
#    0.000    3.103    0.000    0.000    0.000    0.000 
#    0.000    0.000    0.000    0.000    0.000    0.000 
#
# Total GULP energy -718994.227507 kJ/mol
# GULP energy per Si atom -12396.452198 kJ/mol
# Density = 1.933369 g / cm^3
# Si number density = 19.377797 Si / 1000 Ang^3
#
#
#
# Elastic Constant Matrix: (Units=GPa)
#
#
# Indices 1 2 3 4 5 6 
#
# 1 130.6409 38.3347 38.7041 0.0000 0.0000 0.0000
# 2 38.3347 68.5723 12.6603 0.0000 0.0000 0.0000
# 3 38.7041 12.6603 83.6816 0.0000 0.0000 0.0000
# 4 0.0000 0.0000 0.0000 24.4575 0.0000 0.0000
# 5 0.0000 0.0000 0.0000 0.0000 17.9251 0.0000
# 6 0.0000 0.0000 0.0000 0.0000 0.0000 25.3595
#
#
#
# Elastic Compliance Matrix: (Units=1/GPa)
#
#
# Indices 1 2 3 4 5 6 
#
# 1 0.010318 -0.005028 -0.004012 0.000000 0.000000 0.000000
# 2 -0.005028 0.017452 -0.000315 0.000000 0.000000 0.000000
# 3 -0.004012 -0.000315 0.013853 0.000000 0.000000 0.000000
# 4 0.000000 0.000000 0.000000 0.040887 0.000000 0.000000
# 5 0.000000 0.000000 0.000000 0.000000 0.055788 0.000000
# 6 0.000000 0.000000 0.000000 0.000000 0.000000 0.039433
#
#
# Mechanical properties :
#
#
# Convention : Reuss Voigt Hill
#
# Bulk Modulus (GPa) = 43.64000 51.36587 47.50294
# Shear Modulus (GPa) = 24.50036 26.42814 25.46425
#
# Velocity S-wave (km/s) = 3.55963 3.69702 3.62898
# Velocity P-wave (km/s) = 6.28205 6.69247 6.49050
#
# Compressibility (1/GPa) = 0.02291475
#
# Stress axis : x y z
#
# Youngs Moduli (GPa) = 96.91400 57.30002 72.18537
#
# Poissons Ratio (x) = 0.28809 0.28959
# Poissons Ratio (y) = 0.48726 0.02273
# Poissons Ratio (z) = 0.38880 0.01805
#
# Static dielectric constant tensor:
#      x y z
#    x 3.851900 0.000000 0.000000 
#    y 0.000000 3.434970 0.000000 
#    z 0.000000 0.000000 3.439100 
# 
# 
# High freq. dielectric constant tensor:
#      x y z
#    x 1.767530 0.000000 0.000000 
#    y 0.000000 1.746320 0.000000 
#    z 0.000000 0.000000 1.744120 
# 
# From -- ./inp_files/44504.got.cif
#   From: 2010.03.12/outbox.cif.g09.slc.cpg/sg72_23_cif.got.tgz:44504.got - 2010.04.16 14:54:00.
