data_PCOD8295441
_publ_section_title
;
Structure prediction by ZEFSAII (Michael W. Deem and Ramdas Pophale) SiO2 
 PCOD8295441
Probable space group: I B A M
;
_chemical_formula_sum "Si O2"
_cell_formula_units_Z 80
_cell_length_a 24.967726
_cell_length_b 8.324706
_cell_length_c 15.877175
_cell_angle_alpha 90.000000
_cell_angle_beta 90.000000
_cell_angle_gamma 90.000000
_cell_volume 3300.054604
_symmetry_space_group_name_H-M "I B A M"
_symmetry_group_IT_number 72
_symmetry_cell_setting 'orthorhombic'
loop_
_space_group_symop_operation_xyz
x,y,z
-x,-y,z
x,-y,1/2-z
-x,y,1/2-z
-x,-y,-z
x,y,-z
-x,y,1/2+z
x,-y,1/2+z
1/2+x,1/2+y,1/2+z
1/2-x,1/2-y,1/2+z
1/2+x,1/2-y,-z
1/2-x,1/2+y,-z
1/2-x,1/2-y,1/2-z
1/2+x,1/2+y,1/2-z
1/2-x,1/2+y,z
1/2+x,1/2-y,z
loop_
_atom_site_type_symbol
_atom_site_label
_atom_site_fract_x
_atom_site_fract_y
_atom_site_fract_z
Si Si1 0.214437 0.925678 0.842405
Si Si2 0.181462 0.251401 0.903888
Si Si3 0.008345 0.826806 0.152353
Si Si4 0.585241 0.095156 0.838296
Si Si5 0.621995 0.219396 0.404812
O O1 0.272663 0.862731 0.865220
O O2 0.172742 0.777391 0.850386
O O3 0.214815 0.000000 0.750000
O O4 0.198325 0.065482 0.906694
O O5 0.130225 0.265153 0.840033
O O6 0.168805 0.301903 0.000000
O O7 0.069155 0.788757 0.136679
O O8 0.000000 0.849727 0.250000
O O9 0.969280 0.678309 0.125389
O O10 0.000000 0.000000 0.106663
O O11 0.575418 0.000000 0.750000
O O12 0.613069 0.971954 0.903515
O O13 0.629562 0.278487 0.500000
#
# Coordination Sequence:
#
# PCOD8295441 Si02
#       5
#    16  16  16  16  16
#     4  12  26  47  73 106 143 196 245 297 363 443
#     4  12  25  44  71 103 147 189 240 304 366 427
#     4  11  25  44  71  99 140 187 239 299 361 434
#     4  12  24  44  71 104 141 194 243 295 359 441
#     4  12  26  43  70 106 144 184 240 306 367 426
#
# _framework density 24.242023
#
# number of rings (size 3 to 8) (size 9 to 14) (size 15 to 20)
#    0.000    0.200    2.000    7.800    2.800    2.800 
#    0.000    0.000    0.000    0.000    0.000    0.000 
#    0.000    0.000    0.000    0.000    0.000    0.000 
#
# Total GULP energy -495761.436101 kJ/mol
# GULP energy per Si atom -12394.035903 kJ/mol
# Density = 2.418685 g / cm^3
# Si number density = 24.242023 Si / 1000 Ang^3
#
#
#
# Elastic Constant Matrix: (Units=GPa)
#
#
# Indices 1 2 3 4 5 6 
#
# 1 45.8008 -11.5739 0.6642 0.0000 0.0000 0.0000
# 2 -11.5739 100.4266 4.0793 0.0000 0.0000 0.0000
# 3 0.6642 4.0793 97.6296 0.0000 0.0000 0.0000
# 4 0.0000 0.0000 0.0000 30.3016 0.0000 0.0000
# 5 0.0000 0.0000 0.0000 0.0000 21.7027 0.0000
# 6 0.0000 0.0000 0.0000 0.0000 0.0000 50.4591
#
#
#
# Elastic Compliance Matrix: (Units=1/GPa)
#
#
# Indices 1 2 3 4 5 6 
#
# 1 0.022495 0.002603 -0.000262 0.000000 0.000000 0.000000
# 2 0.002603 0.010276 -0.000447 0.000000 0.000000 0.000000
# 3 -0.000262 -0.000447 0.010263 0.000000 0.000000 0.000000
# 4 0.000000 0.000000 0.000000 0.033002 0.000000 0.000000
# 5 0.000000 0.000000 0.000000 0.000000 0.046077 0.000000
# 6 0.000000 0.000000 0.000000 0.000000 0.000000 0.019818
#
#
# Mechanical properties :
#
#
# Convention : Reuss Voigt Hill
#
# Bulk Modulus (GPa) = 21.35713 25.57737 23.46725
# Shear Modulus (GPa) = 32.52028 37.20515 34.86271
#
# Velocity S-wave (km/s) = 3.66660 3.92182 3.79636
# Velocity P-wave (km/s) = 5.17246 5.57506 5.37753
#
# Compressibility (1/GPa) = 0.04682277
#
# Stress axis : x y z
#
# Youngs Moduli (GPa) = 44.45377 97.31710 97.43495
#
# Poissons Ratio (x) = -0.25333 0.02551
# Poissons Ratio (y) = -0.11572 0.04356
# Poissons Ratio (z) = 0.01164 0.04351
#
# Static dielectric constant tensor:
#      x y z
#    x 4.331030 0.000000 0.000000 
#    y 0.000000 5.696650 0.000000 
#    z 0.000000 0.000000 4.043340 
# 
# 
# High freq. dielectric constant tensor:
#      x y z
#    x 1.975680 0.000000 0.000000 
#    y 0.000000 1.986460 0.000000 
#    z 0.000000 0.000000 1.948380 
# 
# From -- ./inp_files/33788.got.cif
#   From: 2010.03.12/outbox.cif.g09.slc.cpg/sg72_17_cif.got.tgz:33788.got - 2010.04.16 14:54:00.
