data_PCOD8295427
_publ_section_title
;
Structure prediction by ZEFSAII (Michael W. Deem and Ramdas Pophale) SiO2 
 PCOD8295427
Probable space group: I B A M
;
_chemical_formula_sum "Si O2"
_cell_formula_units_Z 80
_cell_length_a 28.556200
_cell_length_b 7.555437
_cell_length_c 17.123026
_cell_angle_alpha 90.000000
_cell_angle_beta 90.000000
_cell_angle_gamma 90.000000
_cell_volume 3694.371113
_symmetry_space_group_name_H-M "I B A M"
_symmetry_group_IT_number 72
_symmetry_cell_setting 'orthorhombic'
loop_
_space_group_symop_operation_xyz
x,y,z
-x,-y,z
x,-y,1/2-z
-x,y,1/2-z
-x,-y,-z
x,y,-z
-x,y,1/2+z
x,-y,1/2+z
1/2+x,1/2+y,1/2+z
1/2-x,1/2-y,1/2+z
1/2+x,1/2-y,-z
1/2-x,1/2+y,-z
1/2-x,1/2-y,1/2-z
1/2+x,1/2+y,1/2-z
1/2-x,1/2+y,z
1/2+x,1/2-y,z
loop_
_atom_site_type_symbol
_atom_site_label
_atom_site_fract_x
_atom_site_fract_y
_atom_site_fract_z
Si Si1 0.888325 0.234985 0.321159
Si Si2 0.947092 0.477940 0.089130
Si Si3 0.894991 0.153945 0.143327
Si Si4 0.204270 0.249965 0.588305
Si Si5 0.707472 0.901356 0.667438
O O1 0.914420 0.401584 0.357477
O O2 0.895016 0.238925 0.228749
O O3 0.832678 0.251759 0.336506
O O4 0.909524 0.052756 0.355963
O O5 0.931536 0.271867 0.094204
O O6 0.000000 0.500000 0.119210
O O7 0.942756 0.541992 0.000000
O O8 0.844081 0.151928 0.104539
O O9 0.220719 0.209931 0.500000
O O10 0.242920 0.189897 0.651141
O O11 0.196323 0.458916 0.599057
O O12 0.708290 0.000000 0.750000
#
# Coordination Sequence:
#
# PCOD8295427 Si02
#       5
#    16  16  16  16  16
#     4  11  24  43  70  99 133 177 226 282 346 405
#     4  11  25  46  71  99 136 179 224 283 349 415
#     4  11  24  43  68 100 134 173 226 285 339 409
#     4  12  25  39  61  95 136 178 229 283 337 401
#     4  12  23  41  66  94 137 188 229 282 338 412
#
# _framework density 21.654565000000002
#
# number of rings (size 3 to 8) (size 9 to 14) (size 15 to 20)
#    0.000    0.600    4.000    3.600    2.800    4.800 
#    0.000    4.000    0.000    0.000    0.000    0.000 
#    0.000    0.000    0.000    0.000    0.000    0.000 
#
# Total GULP energy -496150.853335 kJ/mol
# GULP energy per Si atom -12403.771333 kJ/mol
# Density = 2.160528 g / cm^3
# Si number density = 21.654565 Si / 1000 Ang^3
#
#
#
# Elastic Constant Matrix: (Units=GPa)
#
#
# Indices 1 2 3 4 5 6 
#
# 1 124.3121 35.5634 28.3826 0.0000 0.0000 0.0000
# 2 35.5634 106.8511 33.6380 0.0000 0.0000 0.0000
# 3 28.3826 33.6380 84.8076 0.0000 0.0000 0.0000
# 4 0.0000 0.0000 0.0000 24.2664 0.0000 0.0000
# 5 0.0000 0.0000 0.0000 0.0000 26.6880 0.0000
# 6 0.0000 0.0000 0.0000 0.0000 0.0000 28.3627
#
#
#
# Elastic Compliance Matrix: (Units=1/GPa)
#
#
# Indices 1 2 3 4 5 6 
#
# 1 0.009217 -0.002396 -0.002134 0.000000 0.000000 0.000000
# 2 -0.002396 0.011317 -0.003687 0.000000 0.000000 0.000000
# 3 -0.002134 -0.003687 0.013968 0.000000 0.000000 0.000000
# 4 0.000000 0.000000 0.000000 0.041209 0.000000 0.000000
# 5 0.000000 0.000000 0.000000 0.000000 0.037470 0.000000
# 6 0.000000 0.000000 0.000000 0.000000 0.000000 0.035258
#
#
# Mechanical properties :
#
#
# Convention : Reuss Voigt Hill
#
# Bulk Modulus (GPa) = 55.34714 56.79320 56.07017
# Shear Modulus (GPa) = 29.25764 30.42254 29.84009
#
# Velocity S-wave (km/s) = 3.67973 3.75227 3.71618
# Velocity P-wave (km/s) = 6.60821 6.71242 6.66052
#
# Compressibility (1/GPa) = 0.01806778
#
# Stress axis : x y z
#
# Youngs Moduli (GPa) = 108.49551 88.36342 71.59174
#
# Poissons Ratio (x) = 0.21170 0.15280
# Poissons Ratio (y) = 0.25993 0.26395
# Poissons Ratio (z) = 0.23157 0.32579
#
# Static dielectric constant tensor:
#      x y z
#    x 3.837030 0.000000 0.000000 
#    y 0.000000 4.046640 0.000000 
#    z 0.000000 0.000000 3.885470 
# 
# 
# High freq. dielectric constant tensor:
#      x y z
#    x 1.841040 0.000000 0.000000 
#    y 0.000000 1.858740 0.000000 
#    z 0.000000 0.000000 1.855320 
# 
# From -- ./inp_files/34191.got.cif
#   From: 2010.03.12/outbox.cif.g09.slc.cpg/sg72_18_cif.got.tgz:34191.got - 2010.04.16 14:54:00.
