data_PCOD8295653
_publ_section_title
;
Structure prediction by ZEFSAII (Michael W. Deem and Ramdas Pophale) SiO2 
 PCOD8295653
Probable space group: I B C A 
;
_chemical_formula_sum "Si O2"
_cell_formula_units_Z 88
_cell_length_a 9.684310
_cell_length_b 22.313824
_cell_length_c 21.478256
_cell_angle_alpha 90.000000
_cell_angle_beta 90.000000
_cell_angle_gamma 90.000000
_cell_volume 4641.322014
_symmetry_space_group_name_H-M "I B C A "
_symmetry_group_IT_number 73
_symmetry_cell_setting 'orthorhombic'
loop_
_space_group_symop_operation_xyz
x,y,z
-x,1/2-y,z
x,-y,1/2-z
1/2-x,y,-z
-x,-y,-z
x,1/2+y,-z
-x,y,1/2+z
1/2+x,-y,z
1/2+x,1/2+y,1/2+z
1/2-x,-y,1/2+z
1/2+x,1/2-y,-z
-x,1/2+y,1/2-z
1/2-x,1/2-y,1/2-z
1/2+x,y,1/2-z
1/2-x,1/2+y,z
x,1/2-y,1/2+z
loop_
_atom_site_type_symbol
_atom_site_label
_atom_site_fract_x
_atom_site_fract_y
_atom_site_fract_z
Si Si1 0.881768 0.524364 0.543358
Si Si2 0.935029 0.871910 0.550978
Si Si3 0.352471 0.098807 0.410931
Si Si4 0.009752 0.321058 0.688330
Si Si5 0.000000 0.250000 0.394904
Si Si6 0.691874 0.801402 0.792668
O O1 0.750000 0.535081 0.500000
O O2 0.861055 0.473812 0.596970
O O3 0.000000 0.500000 0.500000
O O4 0.933114 0.587567 0.572608
O O5 0.808370 0.886188 0.597114
O O6 0.901080 0.883596 0.479583
O O7 0.964339 0.802503 0.558025
O O8 0.442740 0.135765 0.362524
O O9 0.930420 0.334487 0.753936
O O10 0.000000 0.250000 0.670395
O O11 0.171767 0.341280 0.691986
O O12 0.870328 0.228779 0.354025
O O13 0.750000 0.750000 0.750000
#
# Coordination Sequence:
#
# PCOD8295653 Si02
#       6
#    16  16  16  16   8  16
#     4  10  18  38  59  82 117 165 197 226 291 369
#     4  10  22  36  58  88 127 153 191 245 303 368
#     4  10  20  38  59  85 122 158 191 247 300 355
#     4  10  20  34  61  84 114 157 200 241 298 356
#     4  12  22  36  58  92 122 154 194 256 308 358
#     4  10  19  37  56  83 115 158 200 238 294 362
#
# _framework density 18.960115999999999
#
# number of rings (size 3 to 8) (size 9 to 14) (size 15 to 20)
#    0.000    1.818    6.364    2.182    1.273    2.909 
#    3.273    0.000    0.000    1.091    4.727    0.000 
#    0.000    0.000    0.000    0.000    0.000    0.000 
#
# Total GULP energy -545123.045288 kJ/mol
# GULP energy per Si atom -12389.160120 kJ/mol
# Density = 1.891696 g / cm^3
# Si number density = 18.960116 Si / 1000 Ang^3
#
#
#
# Elastic Constant Matrix: (Units=GPa)
#
#
# Indices 1 2 3 4 5 6 
#
# 1 155.9138 58.5696 32.9754 0.0000 0.0000 0.0000
# 2 58.5696 128.7408 33.4092 0.0000 0.0000 0.0000
# 3 32.9754 33.4092 47.7053 0.0000 0.0000 0.0000
# 4 0.0000 0.0000 0.0000 16.0484 0.0000 0.0000
# 5 0.0000 0.0000 0.0000 0.0000 36.1092 0.0000
# 6 0.0000 0.0000 0.0000 0.0000 0.0000 29.3386
#
#
#
# Elastic Compliance Matrix: (Units=1/GPa)
#
#
# Indices 1 2 3 4 5 6 
#
# 1 0.008253 -0.002779 -0.003758 0.000000 0.000000 0.000000
# 2 -0.002779 0.010429 -0.005382 0.000000 0.000000 0.000000
# 3 -0.003758 -0.005382 0.027329 0.000000 0.000000 0.000000
# 4 0.000000 0.000000 0.000000 0.062311 0.000000 0.000000
# 5 0.000000 0.000000 0.000000 0.000000 0.027694 0.000000
# 6 0.000000 0.000000 0.000000 0.000000 0.000000 0.034085
#
#
# Mechanical properties :
#
#
# Convention : Reuss Voigt Hill
#
# Bulk Modulus (GPa) = 45.10388 64.69648 54.90018
# Shear Modulus (GPa) = 24.83482 30.12631 27.48056
#
# Velocity S-wave (km/s) = 3.62310 3.99046 3.81121
# Velocity P-wave (km/s) = 6.42985 7.44501 6.95598
#
# Compressibility (1/GPa) = 0.02217104
#
# Stress axis : x y z
#
# Youngs Moduli (GPa) = 121.17302 95.88935 36.59093
#
# Poissons Ratio (x) = 0.26650 0.13751
# Poissons Ratio (y) = 0.33677 0.19695
# Poissons Ratio (z) = 0.45539 0.51611
#
# Static dielectric constant tensor:
#      x y z
#    x 4.401100 0.000000 0.000000 
#    y 0.000000 4.490810 0.000000 
#    z 0.000000 0.000000 3.252140 
# 
# 
# High freq. dielectric constant tensor:
#      x y z
#    x 1.763040 0.000000 0.000000 
#    y 0.000000 1.720270 0.000000 
#    z 0.000000 0.000000 1.702680 
# 
# From -- ./inp_files/28329.got.cif
#   From: 2010.03.12/outbox.cif.g09.slc.cpg/sg73_15_cif.got.tgz:28329.got - 2010.04.16 15:25:48.
