data_PCOD8295892
_publ_section_title
;
Structure prediction by ZEFSAII (Michael W. Deem and Ramdas Pophale) SiO2 
 PCOD8295892
Probable space group: I B C A 
;
_chemical_formula_sum "Si O2"
_cell_formula_units_Z 96
_cell_length_a 17.631344
_cell_length_b 24.065916
_cell_length_c 9.304471
_cell_angle_alpha 90.000000
_cell_angle_beta 90.000000
_cell_angle_gamma 90.000000
_cell_volume 3948.021436
_symmetry_space_group_name_H-M "I B C A "
_symmetry_group_IT_number 73
_symmetry_cell_setting 'orthorhombic'
loop_
_space_group_symop_operation_xyz
x,y,z
-x,1/2-y,z
x,-y,1/2-z
1/2-x,y,-z
-x,-y,-z
x,1/2+y,-z
-x,y,1/2+z
1/2+x,-y,z
1/2+x,1/2+y,1/2+z
1/2-x,-y,1/2+z
1/2+x,1/2-y,-z
-x,1/2+y,1/2-z
1/2-x,1/2-y,1/2-z
1/2+x,y,1/2-z
1/2-x,1/2+y,z
x,1/2-y,1/2+z
loop_
_atom_site_type_symbol
_atom_site_label
_atom_site_fract_x
_atom_site_fract_y
_atom_site_fract_z
Si Si1 0.678952 0.405783 0.579639
Si Si2 0.649941 0.272867 0.147196
Si Si3 0.093147 0.190817 0.568785
Si Si4 0.448830 0.625336 0.049234
Si Si5 0.973426 0.556922 0.174540
Si Si6 0.802072 0.830899 0.834855
O O1 0.750000 0.435677 0.500000
O O2 0.655985 0.353656 0.479697
O O3 0.607937 0.448556 0.592653
O O4 0.705755 0.386254 0.738009
O O5 0.594427 0.305918 0.256342
O O6 0.672304 0.217593 0.230536
O O7 0.611888 0.251554 0.998491
O O8 0.721319 0.311482 0.100810
O O9 0.010672 0.172611 0.513713
O O10 0.463941 0.605688 0.210671
O O11 0.365026 0.653103 0.039257
O O12 0.460213 0.574244 0.937336
O O13 0.997824 0.500000 0.250000
#
# Coordination Sequence:
#
# PCOD8295892 Si02
#       6
#    16  16  16  16  16  16
#     4   9  16  34  63  93 127 166 211 265 338 394
#     4  10  20  36  59  85 129 176 230 266 321 388
#     4  10  21  36  58  90 129 182 220 272 324 385
#     4  10  22  41  63  97 135 173 224 280 343 400
#     4  10  21  39  69 101 129 170 215 282 349 416
#     4   9  19  33  59  91 129 174 220 270 319 387
#
# _framework density 24.315978000000001
#
# number of rings (size 3 to 8) (size 9 to 14) (size 15 to 20)
#    0.000    2.333    1.667    1.500    0.000    2.000 
#    0.000    6.667    0.000    8.000   21.667    0.000 
#    0.000    0.000    0.000    0.000    0.000    0.000 
#
# Total GULP energy -594971.285789 kJ/mol
# GULP energy per Si atom -12395.235121 kJ/mol
# Density = 2.426063 g / cm^3
# Si number density = 24.315978 Si / 1000 Ang^3
#
#
#
# Elastic Constant Matrix: (Units=GPa)
#
#
# Indices 1 2 3 4 5 6 
#
# 1 138.6005 59.4754 62.8480 0.0000 0.0000 0.0000
# 2 59.4754 62.8906 34.7970 0.0000 0.0000 0.0000
# 3 62.8480 34.7970 119.0990 0.0000 0.0000 0.0000
# 4 0.0000 0.0000 0.0000 41.5490 0.0000 0.0000
# 5 0.0000 0.0000 0.0000 0.0000 36.6684 0.0000
# 6 0.0000 0.0000 0.0000 0.0000 0.0000 25.5582
#
#
#
# Elastic Compliance Matrix: (Units=1/GPa)
#
#
# Indices 1 2 3 4 5 6 
#
# 1 0.013628 -0.010627 -0.004087 0.000000 0.000000 0.000000
# 2 -0.010627 0.027254 -0.002355 0.000000 0.000000 0.000000
# 3 -0.004087 -0.002355 0.011241 0.000000 0.000000 0.000000
# 4 0.000000 0.000000 0.000000 0.024068 0.000000 0.000000
# 5 0.000000 0.000000 0.000000 0.000000 0.027271 0.000000
# 6 0.000000 0.000000 0.000000 0.000000 0.000000 0.039126
#
#
# Mechanical properties :
#
#
# Convention : Reuss Voigt Hill
#
# Bulk Modulus (GPa) = 55.59992 70.53676 63.06834
# Shear Modulus (GPa) = 27.36414 31.65311 29.50863
#
# Velocity S-wave (km/s) = 3.35827 3.61188 3.48738
# Velocity P-wave (km/s) = 6.16056 6.81657 6.49685
#
# Compressibility (1/GPa) = 0.01798564
#
# Stress axis : x y z
#
# Youngs Moduli (GPa) = 73.37655 36.69249 88.96091
#
# Poissons Ratio (x) = 0.38994 0.36356
# Poissons Ratio (y) = 0.77978 0.20948
# Poissons Ratio (z) = 0.29987 0.08640
#
# Static dielectric constant tensor:
#      x y z
#    x 4.430020 0.000000 0.000000 
#    y 0.000000 3.930420 0.000000 
#    z 0.000000 0.000000 4.774450 
# 
# 
# High freq. dielectric constant tensor:
#      x y z
#    x 1.960300 0.000000 0.000000 
#    y 0.000000 1.927040 0.000000 
#    z 0.000000 0.000000 1.994170 
# 
# From -- ./inp_files/7256.got.cif
#   From: 2010.03.12/outbox.cif.g09.slc.cpg/sg73_4_cif.got.tgz:7256.got - 2010.04.16 15:25:48.
