data_PCOD8295808
_publ_section_title
;
Structure prediction by ZEFSAII (Michael W. Deem and Ramdas Pophale) SiO2 
 PCOD8295808
Probable space group: I B C A 
;
_chemical_formula_sum "Si O2"
_cell_formula_units_Z 104
_cell_length_a 8.998555
_cell_length_b 27.467576
_cell_length_c 19.678702
_cell_angle_alpha 90.000000
_cell_angle_beta 90.000000
_cell_angle_gamma 90.000000
_cell_volume 4863.955124
_symmetry_space_group_name_H-M "I B C A "
_symmetry_group_IT_number 73
_symmetry_cell_setting 'orthorhombic'
loop_
_space_group_symop_operation_xyz
x,y,z
-x,1/2-y,z
x,-y,1/2-z
1/2-x,y,-z
-x,-y,-z
x,1/2+y,-z
-x,y,1/2+z
1/2+x,-y,z
1/2+x,1/2+y,1/2+z
1/2-x,-y,1/2+z
1/2+x,1/2-y,-z
-x,1/2+y,1/2-z
1/2-x,1/2-y,1/2-z
1/2+x,y,1/2-z
1/2-x,1/2+y,z
x,1/2-y,1/2+z
loop_
_atom_site_type_symbol
_atom_site_label
_atom_site_fract_x
_atom_site_fract_y
_atom_site_fract_z
Si Si1 0.751504 0.022092 0.894688
Si Si2 0.639892 0.500000 0.750000
Si Si3 0.944329 0.098559 0.694861
Si Si4 0.555404 0.942795 0.057567
Si Si5 0.886578 0.384966 0.450446
Si Si6 0.453806 0.802081 0.845220
Si Si7 0.696249 0.162371 0.761979
O O1 0.582663 0.025696 0.916020
O O2 0.829196 0.074682 0.898255
O O3 0.758155 0.004238 0.817041
O O4 0.820163 0.984490 0.950188
O O5 0.540658 0.451548 0.761613
O O6 0.893424 0.092671 0.617535
O O7 0.823223 0.134046 0.723790
O O8 0.106195 0.123427 0.693176
O O9 0.522968 0.909780 0.991915
O O10 0.750000 0.368912 0.500000
O O11 0.952538 0.340186 0.407582
O O12 0.500000 0.750000 0.876382
O O13 0.581917 0.812453 0.789570
O O14 0.287912 0.800446 0.811144
#
# Coordination Sequence:
#
# PCOD8295808 Si02
#       7
#    16   8  16  16  16  16  16
#     4  10  20  34  54  81 117 159 201 246 299 354
#     4  10  20  30  52  88 122 156 204 252 292 352
#     4  10  20  35  56  89 128 165 201 248 305 364
#     4  10  21  35  55  84 119 163 204 241 287 358
#     4  10  21  40  60  81 119 166 201 240 298 366
#     4  11  23  42  68  94 118 151 201 261 321 375
#     4  10  21  39  63  91 123 155 194 253 323 374
#
# _framework density 21.381775999999999
#
# number of rings (size 3 to 8) (size 9 to 14) (size 15 to 20)
#    0.000    1.846    0.000    5.538    0.000   10.462 
#    0.000    3.846    0.000    1.846    0.000    0.000 
#    0.000    0.000    0.000    0.000    0.000    0.000 
#
# Total GULP energy -644433.880921 kJ/mol
# GULP energy per Si atom -12392.959248 kJ/mol
# Density = 2.133311 g / cm^3
# Si number density = 21.381776 Si / 1000 Ang^3
#
#
#
# Elastic Constant Matrix: (Units=GPa)
#
#
# Indices 1 2 3 4 5 6 
#
# 1 64.6697 21.3668 24.0842 0.0000 0.0000 0.0000
# 2 21.3668 88.3124 40.2389 0.0000 0.0000 -0.0001
# 3 24.0842 40.2389 100.8493 0.0000 0.0000 -0.0009
# 4 0.0000 0.0000 0.0000 28.7499 0.0001 -0.0002
# 5 0.0000 0.0000 0.0000 0.0001 39.1537 0.0003
# 6 0.0000 -0.0001 -0.0009 -0.0002 0.0003 -30.8547
#
#
#
# Elastic Compliance Matrix: (Units=1/GPa)
#
#
# Indices 1 2 3 4 5 6 
#
# 1 0.017542 -0.002854 -0.003050 0.000000 0.000000 0.000000
# 2 -0.002854 0.014304 -0.005026 0.000000 0.000000 0.000000
# 3 -0.003050 -0.005026 0.012649 0.000000 0.000000 0.000000
# 4 0.000000 0.000000 0.000000 0.034783 0.000000 0.000000
# 5 0.000000 0.000000 0.000000 0.000000 0.025540 0.000000
# 6 0.000000 0.000000 0.000000 0.000000 0.000000 -0.032410
#
#
# Mechanical properties :
#
#
# Convention : Reuss Voigt Hill
#
# Bulk Modulus (GPa) = 44.17960 47.24568 45.71264
# Shear Modulus (GPa) = 49.10880 18.61920 33.86400
#
# Velocity S-wave (km/s) = 4.79765 2.95413 3.98399
# Velocity P-wave (km/s) = 7.16917 5.81206 6.52599
#
# Compressibility (1/GPa) = 0.02263488
#
# Stress axis : x y z
#
# Youngs Moduli (GPa) = 57.00502 69.91089 79.05460
#
# Poissons Ratio (x) = 0.19955 0.24115
# Poissons Ratio (y) = 0.16271 0.39730
# Poissons Ratio (z) = 0.17389 0.35134
#
# Static dielectric constant tensor:
#      x y z
#    x 4.358390 0.000000 0.000000 
#    y 0.000000 3.826290 0.000000 
#    z 0.000000 0.000000 4.080220 
# 
# 
# High freq. dielectric constant tensor:
#      x y z
#    x 1.844460 0.000000 0.000000 
#    y 0.000000 1.818790 0.000000 
#    z 0.000000 0.000000 1.843030 
# 
# From -- ./inp_files/24946.got.cif
#   From: 2010.03.12/outbox.cif.g09.slc.cpg/sg73_13_cif.got.tgz:24946.got - 2010.04.16 15:25:48.
