data_PCOD8295186
_publ_section_title
;
Structure prediction by ZEFSAII (Michael W. Deem and Ramdas Pophale) SiO2 
 PCOD8295186
Probable space group: I B A M
;
_chemical_formula_sum "Si O2"
_cell_formula_units_Z 68
_cell_length_a 11.522809
_cell_length_b 16.572866
_cell_length_c 17.816562
_cell_angle_alpha 90.000000
_cell_angle_beta 90.000000
_cell_angle_gamma 90.000000
_cell_volume 3402.357035
_symmetry_space_group_name_H-M "I B A M"
_symmetry_group_IT_number 72
_symmetry_cell_setting 'orthorhombic'
loop_
_space_group_symop_operation_xyz
x,y,z
-x,-y,z
x,-y,1/2-z
-x,y,1/2-z
-x,-y,-z
x,y,-z
-x,y,1/2+z
x,-y,1/2+z
1/2+x,1/2+y,1/2+z
1/2-x,1/2-y,1/2+z
1/2+x,1/2-y,-z
1/2-x,1/2+y,-z
1/2-x,1/2-y,1/2-z
1/2+x,1/2+y,1/2-z
1/2-x,1/2+y,z
1/2+x,1/2-y,z
loop_
_atom_site_type_symbol
_atom_site_label
_atom_site_fract_x
_atom_site_fract_y
_atom_site_fract_z
Si Si1 0.516032 0.598460 0.000000
Si Si2 0.644434 0.681102 0.382970
Si Si3 0.000000 0.500000 0.250000
Si Si4 0.267866 0.812233 0.000000
Si Si5 0.500000 0.746932 0.250000
Si Si6 0.616156 0.126131 0.350859
Si Si7 0.989024 0.594561 0.000000
O O1 0.500000 0.500000 0.000000
O O2 0.452810 0.633539 0.072122
O O3 0.644035 0.641055 0.000000
O O4 0.703187 0.757923 0.426087
O O5 0.586760 0.698157 0.302913
O O6 0.748201 0.618971 0.367701
O O7 0.083875 0.547780 0.195455
O O8 0.353519 0.887741 0.000000
O O9 0.413087 0.796666 0.301790
O O10 0.546977 0.135258 0.428154
O O11 0.000000 0.500000 0.000000
#
# Coordination Sequence:
#
# PCOD8295186 Si02
#       7
#     8  16   4   8   8  16   8
#     4  11  27  45  64 100 139 175 221 276 342 395
#     4  11  24  44  70  93 135 176 227 271 328 409
#     4  10  24  42  60 102 134 166 218 276 332 398
#     4  11  24  43  72  96 131 176 226 279 322 399
#     4  11  22  43  63 104 123 174 218 280 327 402
#     4  11  23  41  67  95 131 166 221 275 335 381
#     4  12  23  40  69  99 128 172 224 276 336 392
#
# _framework density 19.986145
#
# number of rings (size 3 to 8) (size 9 to 14) (size 15 to 20)
#    0.000    0.941    3.529    3.529    6.588    0.000 
#    4.235    0.000    0.000    0.000    0.000    0.000 
#    0.000    0.000    0.000    0.000    0.000    0.000 
#
# Total GULP energy -421392.909712 kJ/mol
# GULP energy per Si atom -12393.909109 kJ/mol
# Density = 1.994066 g / cm^3
# Si number density = 19.986145 Si / 1000 Ang^3
#
#
#
# Elastic Constant Matrix: (Units=GPa)
#
#
# Indices 1 2 3 4 5 6 
#
# 1 195.5707 72.2542 78.1915 0.0000 0.0000 0.0000
# 2 72.2542 116.1702 53.4195 0.0000 0.0000 0.0000
# 3 78.1915 53.4195 161.1897 0.0000 0.0000 0.0000
# 4 0.0000 0.0000 0.0000 0.8916 0.0000 0.0000
# 5 0.0000 0.0000 0.0000 0.0000 48.8277 0.0000
# 6 0.0000 0.0000 0.0000 0.0000 0.0000 18.4448
#
#
#
# Elastic Compliance Matrix: (Units=1/GPa)
#
#
# Indices 1 2 3 4 5 6 
#
# 1 0.007362 -0.003465 -0.002423 0.000000 0.000000 0.000000
# 2 -0.003465 0.011786 -0.002225 0.000000 0.000000 0.000000
# 3 -0.002423 -0.002225 0.008117 0.000000 0.000000 0.000000
# 4 0.000000 0.000000 0.000000 1.121531 0.000000 0.000000
# 5 0.000000 0.000000 0.000000 0.000000 0.020480 0.000000
# 6 0.000000 0.000000 0.000000 0.000000 0.000000 0.054216
#
#
# Mechanical properties :
#
#
# Convention : Reuss Voigt Hill
#
# Bulk Modulus (GPa) = 90.58899 97.85123 94.22011
# Shear Modulus (GPa) = 4.02124 31.57052 17.79588
#
# Velocity S-wave (km/s) = 1.41999 3.97876 2.98721
# Velocity P-wave (km/s) = 6.93634 8.37694 7.69045
#
# Compressibility (1/GPa) = 0.01103887
#
# Stress axis : x y z
#
# Youngs Moduli (GPa) = 135.83148 84.84395 123.20203
#
# Poissons Ratio (x) = 0.29397 0.29852
# Poissons Ratio (y) = 0.47063 0.27417
# Poissons Ratio (z) = 0.32912 0.18881
#
# Static dielectric constant tensor:
#      x y z
#    x 3.783940 0.000000 0.000000 
#    y 0.000000 3.607570 0.000000 
#    z 0.000000 0.000000 11.875080 
# 
# 
# High freq. dielectric constant tensor:
#      x y z
#    x 1.795750 0.000000 0.000000 
#    y 0.000000 1.769470 0.000000 
#    z 0.000000 0.000000 1.801270 
# 
# From -- ./inp_files/35541.got.cif
#   From: 2010.03.12/outbox.cif.g09.slc.cpg/sg72_18_cif.got.tgz:35541.got - 2010.04.16 14:54:00.
