data_PCOD8295718
_publ_section_title
;
Structure prediction by ZEFSAII (Michael W. Deem and Ramdas Pophale) SiO2 
 PCOD8295718
Probable space group: I B C A 
;
_chemical_formula_sum "Si O2"
_cell_formula_units_Z 120
_cell_length_a 17.234383
_cell_length_b 22.208310
_cell_length_c 14.916908
_cell_angle_alpha 90.000000
_cell_angle_beta 90.000000
_cell_angle_gamma 90.000000
_cell_volume 5709.394631
_symmetry_space_group_name_H-M "I B C A "
_symmetry_group_IT_number 73
_symmetry_cell_setting 'orthorhombic'
loop_
_space_group_symop_operation_xyz
x,y,z
-x,1/2-y,z
x,-y,1/2-z
1/2-x,y,-z
-x,-y,-z
x,1/2+y,-z
-x,y,1/2+z
1/2+x,-y,z
1/2+x,1/2+y,1/2+z
1/2-x,-y,1/2+z
1/2+x,1/2-y,-z
-x,1/2+y,1/2-z
1/2-x,1/2-y,1/2-z
1/2+x,y,1/2-z
1/2-x,1/2+y,z
x,1/2-y,1/2+z
loop_
_atom_site_type_symbol
_atom_site_label
_atom_site_fract_x
_atom_site_fract_y
_atom_site_fract_z
Si Si1 0.316445 0.733452 0.876712
Si Si2 0.644568 0.752626 0.678305
Si Si3 0.566289 0.875547 0.212580
Si Si4 0.250000 0.641261 0.000000
Si Si5 0.890827 0.354477 0.404365
Si Si6 0.793113 0.940728 0.843224
Si Si7 0.582877 0.131575 0.899270
Si Si8 0.757475 0.924397 0.343686
O O1 0.346103 0.717846 0.776989
O O2 0.226709 0.753104 0.871487
O O3 0.317123 0.678640 0.947668
O O4 0.373684 0.783739 0.915780
O O5 0.608232 0.685925 0.679066
O O6 0.590978 0.797846 0.622885
O O7 0.552905 0.868716 0.319938
O O8 0.619848 0.934320 0.196237
O O9 0.488179 0.891629 0.160306
O O10 0.205874 0.599579 0.930582
O O11 0.933543 0.376755 0.494515
O O12 0.805618 0.382291 0.390288
O O13 0.738311 0.914612 0.763910
O O14 0.768057 0.007837 0.867510
O O15 0.658022 0.091150 0.879826
#
# Coordination Sequence:
#
# PCOD8295718 Si02
#       8
#    16  16  16   8  16  16  16  16
#     4  10  19  34  61  93 125 167 213 265 313 382
#     4  10  19  37  60  92 133 168 209 261 328 390
#     4  10  23  44  58  91 140 173 197 268 348 386
#     4  12  20  32  62 100 120 160 220 272 308 382
#     4  10  22  40  66  92 127 170 216 263 322 388
#     4  10  23  42  63  90 129 168 214 273 325 376
#     4  12  22  38  68  97 125 169 220 267 322 398
#     4  10  22  43  67  92 122 170 228 274 313 380
#
# _framework density 21.017990000000001
#
# number of rings (size 3 to 8) (size 9 to 14) (size 15 to 20)
#    0.000    1.600    2.667    2.400    1.867    0.000 
#    4.800    7.333    0.000    0.000    0.000    0.000 
#    0.000    0.000    0.000    0.000    0.000    0.000 
#
# Total GULP energy -743704.976676 kJ/mol
# GULP energy per Si atom -12395.082945 kJ/mol
# Density = 2.097015 g / cm^3
# Si number density = 21.017990 Si / 1000 Ang^3
#
#
#
# Elastic Constant Matrix: (Units=GPa)
#
#
# Indices 1 2 3 4 5 6 
#
# 1 67.6439 24.7941 35.1610 0.0000 0.0000 0.0000
# 2 24.7941 88.2340 40.3080 0.0000 0.0000 0.0000
# 3 35.1610 40.3080 139.7719 0.0000 0.0000 0.0000
# 4 0.0000 0.0000 0.0000 28.5595 0.0000 0.0000
# 5 0.0000 0.0000 0.0000 0.0000 26.8336 0.0000
# 6 0.0000 0.0000 0.0000 0.0000 0.0000 14.6127
#
#
#
# Elastic Compliance Matrix: (Units=1/GPa)
#
#
# Indices 1 2 3 4 5 6 
#
# 1 0.017859 -0.003416 -0.003507 0.000000 0.000000 0.000000
# 2 -0.003416 0.013707 -0.003093 0.000000 0.000000 0.000000
# 3 -0.003507 -0.003093 0.008929 0.000000 0.000000 0.000000
# 4 0.000000 0.000000 0.000000 0.035015 0.000000 0.000000
# 5 0.000000 0.000000 0.000000 0.000000 0.037267 0.000000
# 6 0.000000 0.000000 0.000000 0.000000 0.000000 0.068434
#
#
# Mechanical properties :
#
#
# Convention : Reuss Voigt Hill
#
# Bulk Modulus (GPa) = 48.87494 55.13067 52.00281
# Shear Modulus (GPa) = 24.03122 27.02695 25.52908
#
# Velocity S-wave (km/s) = 3.38504 3.58983 3.48894
# Velocity P-wave (km/s) = 6.21146 6.59315 6.40515
#
# Compressibility (1/GPa) = 0.02046038
#
# Stress axis : x y z
#
# Youngs Moduli (GPa) = 55.99566 72.95758 111.99566
#
# Poissons Ratio (x) = 0.24923 0.39281
# Poissons Ratio (y) = 0.19128 0.34645
# Poissons Ratio (z) = 0.19640 0.22569
#
# Static dielectric constant tensor:
#      x y z
#    x 3.424710 0.000000 0.000000 
#    y 0.000000 3.752460 0.000000 
#    z 0.000000 0.000000 4.275500 
# 
# 
# High freq. dielectric constant tensor:
#      x y z
#    x 1.786170 0.000000 0.000000 
#    y 0.000000 1.813900 0.000000 
#    z 0.000000 0.000000 1.843930 
# 
# From -- ./inp_files/18267.got.cif
#   From: 2010.03.12/outbox.cif.g09.slc.cpg/sg73_10_cif.got.tgz:18267.got - 2010.04.16 15:25:48.
