data_PCOD8295463
_publ_section_title
;
Structure prediction by ZEFSAII (Michael W. Deem and Ramdas Pophale) SiO2 
 PCOD8295463
Probable space group: I B A M
;
_chemical_formula_sum "Si O2"
_cell_formula_units_Z 96
_cell_length_a 22.526213
_cell_length_b 14.819774
_cell_length_c 13.786650
_cell_angle_alpha 90.000000
_cell_angle_beta 90.000000
_cell_angle_gamma 90.000000
_cell_volume 4602.444047
_symmetry_space_group_name_H-M "I B A M"
_symmetry_group_IT_number 72
_symmetry_cell_setting 'orthorhombic'
loop_
_space_group_symop_operation_xyz
x,y,z
-x,-y,z
x,-y,1/2-z
-x,y,1/2-z
-x,-y,-z
x,y,-z
-x,y,1/2+z
x,-y,1/2+z
1/2+x,1/2+y,1/2+z
1/2-x,1/2-y,1/2+z
1/2+x,1/2-y,-z
1/2-x,1/2+y,-z
1/2-x,1/2-y,1/2-z
1/2+x,1/2+y,1/2-z
1/2-x,1/2+y,z
1/2+x,1/2-y,z
loop_
_atom_site_type_symbol
_atom_site_label
_atom_site_fract_x
_atom_site_fract_y
_atom_site_fract_z
Si Si1 0.335654 0.526986 0.000000
Si Si2 0.062295 0.763340 0.802514
Si Si3 0.902804 0.836964 0.500000
Si Si4 0.139153 0.910303 0.292452
Si Si5 0.224419 0.225510 0.500000
Si Si6 0.206697 0.428468 0.500000
Si Si7 0.134317 0.416172 0.304929
Si Si8 0.254680 0.845443 0.798630
O O1 0.353248 0.586335 0.092650
O O2 0.375119 0.436674 0.000000
O O3 0.264447 0.504822 0.000000
O O4 0.104346 0.818944 0.730627
O O5 0.087729 0.663753 0.822499
O O6 0.000000 0.753910 0.750000
O O7 0.057403 0.817357 0.904679
O O8 0.847204 0.769183 0.500000
O O9 0.201928 0.909811 0.236709
O O10 0.106266 0.000000 0.250000
O O11 0.240359 0.331190 0.500000
O O12 0.251004 0.169624 0.587753
O O13 0.165841 0.443484 0.405845
O O14 0.101805 0.500000 0.250000
O O15 0.183196 0.389265 0.226241
O O16 0.250000 0.750000 0.750000
#
# Coordination Sequence:
#
# PCOD8295463 Si02
#       8
#     8  16   8  16   8   8  16  16
#     4  12  24  35  69 111 147 177 221 276 359 436
#     4  12  27  49  72  93 135 190 244 296 346 399
#     4  12  22  47  72  98 137 188 232 284 353 420
#     4  12  22  41  64 103 143 175 223 286 349 426
#     4  12  20  36  70  96 143 189 223 261 354 434
#     4  12  22  40  67 105 144 186 216 278 359 444
#     4  12  26  44  68 104 142 178 236 289 352 423
#     4  12  20  37  65 102 141 179 217 279 358 428
#
# _framework density 20.858484000000001
#
# number of rings (size 3 to 8) (size 9 to 14) (size 15 to 20)
#    0.000    0.000   10.000    0.500    2.333    1.333 
#    0.000    3.333    0.000    2.000    0.000    0.000 
#    0.000    0.000    0.000    0.000    0.000    0.000 
#
# Total GULP energy -595209.288974 kJ/mol
# GULP energy per Si atom -12400.193520 kJ/mol
# Density = 2.081101 g / cm^3
# Si number density = 20.858484 Si / 1000 Ang^3
#
#
#
# Elastic Constant Matrix: (Units=GPa)
#
#
# Indices 1 2 3 4 5 6 
#
# 1 82.0470 15.0691 40.3388 0.0000 0.0000 0.0000
# 2 15.0691 99.9189 45.4451 0.0000 0.0000 0.0000
# 3 40.3388 45.4451 195.7646 0.0000 0.0000 0.0000
# 4 0.0000 0.0000 0.0000 69.3114 0.0000 0.0000
# 5 0.0000 0.0000 0.0000 0.0000 19.0584 0.0000
# 6 0.0000 0.0000 0.0000 0.0000 0.0000 3.7356
#
#
#
# Elastic Compliance Matrix: (Units=1/GPa)
#
#
# Indices 1 2 3 4 5 6 
#
# 1 0.013629 -0.000870 -0.002606 0.000000 0.000000 0.000000
# 2 -0.000870 0.011245 -0.002431 0.000000 0.000000 0.000000
# 3 -0.002606 -0.002431 0.006210 0.000000 0.000000 0.000000
# 4 0.000000 0.000000 0.000000 0.014428 0.000000 0.000000
# 5 0.000000 0.000000 0.000000 0.000000 0.052470 0.000000
# 6 0.000000 0.000000 0.000000 0.000000 0.000000 0.267695
#
#
# Mechanical properties :
#
#
# Convention : Reuss Voigt Hill
#
# Bulk Modulus (GPa) = 51.89740 64.38182 58.13961
# Shear Modulus (GPa) = 13.02370 36.87958 24.95164
#
# Velocity S-wave (km/s) = 2.50148 4.20942 3.46241
# Velocity P-wave (km/s) = 5.76870 7.38638 6.62709
#
# Compressibility (1/GPa) = 0.01926879
#
# Stress axis : x y z
#
# Youngs Moduli (GPa) = 73.37071 88.92783 161.04001
#
# Poissons Ratio (x) = 0.07737 0.41975
# Poissons Ratio (y) = 0.06383 0.39152
# Poissons Ratio (z) = 0.19124 0.21620
#
# Static dielectric constant tensor:
#      x y z
#    x 3.539340 0.000000 0.000000 
#    y 0.000000 3.893460 0.000000 
#    z 0.000000 0.000000 4.346580 
# 
# 
# High freq. dielectric constant tensor:
#      x y z
#    x 1.768330 0.000000 0.000000 
#    y 0.000000 1.834510 0.000000 
#    z 0.000000 0.000000 1.838640 
# 
# From -- ./inp_files/24231.got.cif
#   From: 2010.03.12/outbox.cif.g09.slc.cpg/sg72_13_cif.got.tgz:24231.got - 2010.04.16 14:54:00.
