data_PCOD8295341
_publ_section_title
;
Structure prediction by ZEFSAII (Michael W. Deem and Ramdas Pophale) SiO2 
 PCOD8295341
Probable space group: I B A M
;
_chemical_formula_sum "Si O2"
_cell_formula_units_Z 80
_cell_length_a 16.590449
_cell_length_b 9.844064
_cell_length_c 22.969115
_cell_angle_alpha 90.000000
_cell_angle_beta 90.000000
_cell_angle_gamma 90.000000
_cell_volume 3751.257101
_symmetry_space_group_name_H-M "I B A M"
_symmetry_group_IT_number 72
_symmetry_cell_setting 'orthorhombic'
loop_
_space_group_symop_operation_xyz
x,y,z
-x,-y,z
x,-y,1/2-z
-x,y,1/2-z
-x,-y,-z
x,y,-z
-x,y,1/2+z
x,-y,1/2+z
1/2+x,1/2+y,1/2+z
1/2-x,1/2-y,1/2+z
1/2+x,1/2-y,-z
1/2-x,1/2+y,-z
1/2-x,1/2-y,1/2-z
1/2+x,1/2+y,1/2-z
1/2-x,1/2+y,z
1/2+x,1/2-y,z
loop_
_atom_site_type_symbol
_atom_site_label
_atom_site_fract_x
_atom_site_fract_y
_atom_site_fract_z
Si Si1 0.862076 0.478663 0.315301
Si Si2 0.826338 0.022076 0.816360
Si Si3 0.095633 0.738485 0.877675
Si Si4 0.408788 0.158584 0.500000
Si Si5 0.088241 0.784040 0.378998
Si Si6 0.899655 0.353156 0.000000
O O1 0.891613 0.500000 0.250000
O O2 0.767594 0.507782 0.321584
O O3 0.911067 0.584062 0.355065
O O4 0.883661 0.326501 0.332402
O O5 0.872665 0.925992 0.861344
O O6 0.856192 0.000000 0.750000
O O7 0.844868 0.176079 0.836308
O O8 0.007543 0.804754 0.877466
O O9 0.130922 0.729242 0.943361
O O10 0.380718 0.241463 0.556948
O O11 0.504156 0.141789 0.500000
O O12 0.367704 0.008995 0.500000
#
# Coordination Sequence:
#
# PCOD8295341 Si02
#       6
#    16  16  16   8  16   8
#     4  11  23  40  61  86 120 163 204 243 296 357
#     4  11  25  42  57  86 132 163 188 245 312 353
#     4  11  22  39  65  90 117 157 203 248 294 353
#     4   9  18  37  62  90 121 150 192 254 305 340
#     4  11  22  39  65  90 117 157 203 248 294 353
#     4   9  18  37  62  90 121 150 192 254 305 340
#
# _framework density 21.326184999999999
#
# number of rings (size 3 to 8) (size 9 to 14) (size 15 to 20)
#    0.000    1.400    2.000    3.600    0.000    8.800 
#    0.000    9.000    0.000    0.000    0.000    0.000 
#    0.000    0.000    0.000    0.000    0.000    0.000 
#
# Total GULP energy -496224.390004 kJ/mol
# GULP energy per Si atom -12405.609750 kJ/mol
# Density = 2.127765 g / cm^3
# Si number density = 21.326185 Si / 1000 Ang^3
#
#
#
# Elastic Constant Matrix: (Units=GPa)
#
#
# Indices 1 2 3 4 5 6 
#
# 1 27.9916 1.5638 18.4631 0.0000 0.0000 0.0000
# 2 1.5638 76.0123 26.6634 0.0000 0.0000 0.0000
# 3 18.4631 26.6634 157.2375 0.0000 0.0000 0.0000
# 4 0.0000 0.0000 0.0000 44.6485 0.0000 0.0000
# 5 0.0000 0.0000 0.0000 0.0000 -3.3722 0.0000
# 6 0.0000 0.0000 0.0000 0.0000 0.0000 32.3722
#
#
#
# Elastic Compliance Matrix: (Units=1/GPa)
#
#
# Indices 1 2 3 4 5 6 
#
# 1 0.038776 0.000850 -0.004697 0.000000 0.000000 0.000000
# 2 0.000850 0.014006 -0.002475 0.000000 0.000000 0.000000
# 3 -0.004697 -0.002475 0.007331 0.000000 0.000000 0.000000
# 4 0.000000 0.000000 0.000000 0.022397 0.000000 0.000000
# 5 0.000000 0.000000 0.000000 0.000000 -0.296541 0.000000
# 6 0.000000 0.000000 0.000000 0.000000 0.000000 0.030891
#
#
# Mechanical properties :
#
#
# Convention : Reuss Voigt Hill
#
# Bulk Modulus (GPa) = 21.06645 39.40243 30.23444
# Shear Modulus (GPa) = -32.32638 29.03310 -1.64664
#
# Velocity S-wave (km/s) = -3.89756 3.69369 -0.87966
# Velocity P-wave (km/s) = 3.21792 6.05866 3.62990
#
# Compressibility (1/GPa) = 0.04746884
#
# Stress axis : x y z
#
# Youngs Moduli (GPa) = 25.78929 71.39578 136.40610
#
# Poissons Ratio (x) = -0.06068 0.64073
# Poissons Ratio (y) = -0.02192 0.33760
# Poissons Ratio (z) = 0.12114 0.17670
#
# Static dielectric constant tensor:
#      x y z
#    x 3.550040 0.000000 0.000000 
#    y 0.000000 3.677180 0.000000 
#    z 0.000000 0.000000 4.121280 
# 
# 
# High freq. dielectric constant tensor:
#      x y z
#    x 1.815750 0.000000 0.000000 
#    y 0.000000 1.838330 0.000000 
#    z 0.000000 0.000000 1.852400 
# 
# From -- ./inp_files/45192.got.cif
#   From: 2010.03.12/outbox.cif.g09.slc.cpg/sg72_23_cif.got.tgz:45192.got - 2010.04.16 14:54:00.
