data_PCOD8295714
_publ_section_title
;
Structure prediction by ZEFSAII (Michael W. Deem and Ramdas Pophale) SiO2 
 PCOD8295714
Probable space group: I B C A 
;
_chemical_formula_sum "Si O2"
_cell_formula_units_Z 80
_cell_length_a 19.963251
_cell_length_b 12.020251
_cell_length_c 14.789096
_cell_angle_alpha 90.000000
_cell_angle_beta 90.000000
_cell_angle_gamma 90.000000
_cell_volume 3548.840100
_symmetry_space_group_name_H-M "I B C A "
_symmetry_group_IT_number 73
_symmetry_cell_setting 'orthorhombic'
loop_
_space_group_symop_operation_xyz
x,y,z
-x,1/2-y,z
x,-y,1/2-z
1/2-x,y,-z
-x,-y,-z
x,1/2+y,-z
-x,y,1/2+z
1/2+x,-y,z
1/2+x,1/2+y,1/2+z
1/2-x,-y,1/2+z
1/2+x,1/2-y,-z
-x,1/2+y,1/2-z
1/2-x,1/2-y,1/2-z
1/2+x,y,1/2-z
1/2-x,1/2+y,z
x,1/2-y,1/2+z
loop_
_atom_site_type_symbol
_atom_site_label
_atom_site_fract_x
_atom_site_fract_y
_atom_site_fract_z
Si Si1 0.209074 0.089923 0.812956
Si Si2 0.450581 0.544150 0.346240
Si Si3 0.390222 0.170205 0.926329
Si Si4 0.500000 0.750000 0.948877
Si Si5 0.657241 0.188999 0.234966
Si Si6 0.750000 0.601475 0.500000
O O1 0.273737 0.129515 0.758086
O O2 0.163316 0.198885 0.824726
O O3 0.225950 0.034126 0.910776
O O4 0.171818 0.000000 0.750000
O O5 0.481028 0.500000 0.250000
O O6 0.430796 0.447355 0.417735
O O7 0.500326 0.636917 0.388608
O O8 0.379811 0.601395 0.327213
O O9 0.384190 0.219809 0.825417
O O10 0.315199 0.170265 0.967899
O O11 0.434148 0.251445 0.988303
#
# Coordination Sequence:
#
# PCOD8295714 Si02
#       6
#    16  16  16   8  16   8
#     4  10  19  34  57  90 126 164 214 268 326 393
#     4  10  22  42  62  83 122 170 209 260 328 392
#     4  10  22  40  63  91 125 164 210 267 327 387
#     4  12  24  40  64  96 128 162 218 272 326 402
#     4   9  19  37  59  83 122 169 211 261 327 393
#     4  10  20  38  62  90 124 164 210 262 320 384
#
# _framework density 22.542577000000001
#
# number of rings (size 3 to 8) (size 9 to 14) (size 15 to 20)
#    0.000    2.000    0.000    4.800    0.000    4.800 
#    0.000   21.000    0.000    0.000    0.000    0.000 
#    0.000    0.000    0.000    0.000    0.000    0.000 
#
# Total GULP energy -495555.879844 kJ/mol
# GULP energy per Si atom -12388.896996 kJ/mol
# Density = 2.249127 g / cm^3
# Si number density = 22.542577 Si / 1000 Ang^3
#
#
#
# Elastic Constant Matrix: (Units=GPa)
#
#
# Indices 1 2 3 4 5 6 
#
# 1 62.6736 0.2336 11.7818 0.0000 0.0000 0.0000
# 2 0.2336 76.0101 34.9267 0.0000 0.0000 0.0000
# 3 11.7818 34.9267 103.9436 0.0000 0.0000 0.0000
# 4 0.0000 0.0000 0.0000 26.9185 0.0000 0.0000
# 5 0.0000 0.0000 0.0000 0.0000 25.3870 0.0000
# 6 0.0000 0.0000 0.0000 0.0000 0.0000 18.9039
#
#
#
# Elastic Compliance Matrix: (Units=1/GPa)
#
#
# Indices 1 2 3 4 5 6 
#
# 1 0.016361 0.000948 -0.002173 0.000000 0.000000 0.000000
# 2 0.000948 0.015613 -0.005354 0.000000 0.000000 0.000000
# 3 -0.002173 -0.005354 0.011666 0.000000 0.000000 0.000000
# 4 0.000000 0.000000 0.000000 0.037149 0.000000 0.000000
# 5 0.000000 0.000000 0.000000 0.000000 0.039390 0.000000
# 6 0.000000 0.000000 0.000000 0.000000 0.000000 0.052899
#
#
# Mechanical properties :
#
#
# Convention : Reuss Voigt Hill
#
# Bulk Modulus (GPa) = 32.80563 37.39018 35.09790
# Shear Modulus (GPa) = 25.45873 27.28758 26.37315
#
# Velocity S-wave (km/s) = 3.36424 3.48299 3.42413
# Velocity P-wave (km/s) = 5.44749 5.72690 5.58894
#
# Compressibility (1/GPa) = 0.03048258
#
# Stress axis : x y z
#
# Youngs Moduli (GPa) = 61.12226 64.04793 85.72008
#
# Poissons Ratio (x) = -0.06073 0.18628
# Poissons Ratio (y) = -0.05796 0.45893
# Poissons Ratio (z) = 0.13282 0.34290
#
# Static dielectric constant tensor:
#      x y z
#    x 3.857250 0.000000 0.000000 
#    y 0.000000 4.023420 0.000000 
#    z 0.000000 0.000000 4.416360 
# 
# 
# High freq. dielectric constant tensor:
#      x y z
#    x 1.872890 0.000000 0.000000 
#    y 0.000000 1.861820 0.000000 
#    z 0.000000 0.000000 1.904280 
# 
# From -- ./inp_files/16880.got.cif
#   From: 2010.03.12/outbox.cif.g09.slc.cpg/sg73_9_cif.got.tgz:16880.got - 2010.04.16 15:25:48.
