data_PCOD8295220
_publ_section_title
;
Structure prediction by ZEFSAII (Michael W. Deem and Ramdas Pophale) SiO2 
 PCOD8295220
Probable space group: I B A M
;
_chemical_formula_sum "Si O2"
_cell_formula_units_Z 52
_cell_length_a 26.604621
_cell_length_b 9.026067
_cell_length_c 10.274342
_cell_angle_alpha 90.000000
_cell_angle_beta 90.000000
_cell_angle_gamma 90.000000
_cell_volume 2467.230058
_symmetry_space_group_name_H-M "I B A M"
_symmetry_group_IT_number 72
_symmetry_cell_setting 'orthorhombic'
loop_
_space_group_symop_operation_xyz
x,y,z
-x,-y,z
x,-y,1/2-z
-x,y,1/2-z
-x,-y,-z
x,y,-z
-x,y,1/2+z
x,-y,1/2+z
1/2+x,1/2+y,1/2+z
1/2-x,1/2-y,1/2+z
1/2+x,1/2-y,-z
1/2-x,1/2+y,-z
1/2-x,1/2-y,1/2-z
1/2+x,1/2+y,1/2-z
1/2-x,1/2+y,z
1/2+x,1/2-y,z
loop_
_atom_site_type_symbol
_atom_site_label
_atom_site_fract_x
_atom_site_fract_y
_atom_site_fract_z
Si Si1 0.666550 0.000000 0.250000
Si Si2 0.612823 0.500000 0.750000
Si Si3 0.819231 0.948527 0.000000
Si Si4 0.416787 0.793773 0.350992
Si Si5 0.000000 0.500000 0.750000
Si Si6 0.777955 0.379678 0.500000
O O1 0.631662 0.138830 0.281804
O O2 0.700178 0.956806 0.371997
O O3 0.647009 0.543418 0.627901
O O4 0.575205 0.365150 0.716340
O O5 0.787586 0.795708 0.000000
O O6 0.781587 0.088851 0.000000
O O7 0.403693 0.769804 0.500000
O O8 0.465870 0.896228 0.340301
#
# Coordination Sequence:
#
# PCOD8295220 Si02
#       6
#     8   8   8  16   4   8
#     4  11  23  41  70  94 136 182 224 279 343 385
#     4  12  25  45  69 100 140 184 221 279 339 398
#     4  12  28  42  66 101 141 182 237 275 335 388
#     4  11  23  45  72 102 135 173 223 280 341 414
#     4  10  26  46  74 106 128 168 222 278 352 418
#     4  12  26  42  64  99 136 182 236 280 322 397
#
# _framework density 21.076267000000001
#
# number of rings (size 3 to 8) (size 9 to 14) (size 15 to 20)
#    0.000    0.615    6.154    1.385    4.308    3.077 
#    2.769    1.538    0.000    0.000    0.000    0.000 
#    0.000    0.000    0.000    0.000    0.000    0.000 
#
# Total GULP energy -322482.683411 kJ/mol
# GULP energy per Si atom -12403.180131 kJ/mol
# Density = 2.102830 g / cm^3
# Si number density = 21.076267 Si / 1000 Ang^3
#
#
#
# Elastic Constant Matrix: (Units=GPa)
#
#
# Indices 1 2 3 4 5 6 
#
# 1 81.6440 39.3959 34.6728 0.0000 0.0000 0.0000
# 2 39.3959 149.1524 43.8949 0.0000 0.0000 0.0000
# 3 34.6728 43.8949 154.0221 0.0000 0.0000 0.0000
# 4 0.0000 0.0000 0.0000 32.8253 0.0000 0.0000
# 5 0.0000 0.0000 0.0000 0.0000 39.6906 0.0000
# 6 0.0000 0.0000 0.0000 0.0000 0.0000 33.0258
#
#
#
# Elastic Compliance Matrix: (Units=1/GPa)
#
#
# Indices 1 2 3 4 5 6 
#
# 1 0.014823 -0.003202 -0.002424 0.000000 0.000000 0.000000
# 2 -0.003202 0.008010 -0.001562 0.000000 0.000000 0.000000
# 3 -0.002424 -0.001562 0.007483 0.000000 0.000000 0.000000
# 4 0.000000 0.000000 0.000000 0.030464 0.000000 0.000000
# 5 0.000000 0.000000 0.000000 0.000000 0.025195 0.000000
# 6 0.000000 0.000000 0.000000 0.000000 0.000000 0.030279
#
#
# Mechanical properties :
#
#
# Convention : Reuss Voigt Hill
#
# Bulk Modulus (GPa) = 62.73505 68.97175 65.85340
# Shear Modulus (GPa) = 36.77978 38.89867 37.83922
#
# Velocity S-wave (km/s) = 4.18195 4.30072 4.24175
# Velocity P-wave (km/s) = 7.29031 7.58007 7.43660
#
# Compressibility (1/GPa) = 0.01594005
#
# Stress axis : x y z
#
# Youngs Moduli (GPa) = 67.46355 124.84526 133.62732
#
# Poissons Ratio (x) = 0.39972 0.32397
# Poissons Ratio (y) = 0.21600 0.20873
# Poissons Ratio (z) = 0.16356 0.19501
#
# Static dielectric constant tensor:
#      x y z
#    x 3.640180 0.000000 0.000000 
#    y 0.000000 3.545200 0.000000 
#    z 0.000000 0.000000 4.176460 
# 
# 
# High freq. dielectric constant tensor:
#      x y z
#    x 1.814100 0.000000 0.000000 
#    y 0.000000 1.845530 0.000000 
#    z 0.000000 0.000000 1.843110 
# 
# From -- ./inp_files/10352.got.cif
#   From: 2010.03.12/outbox.cif.g09.slc.cpg/sg72_6_cif.got.tgz:10352.got - 2010.04.16 14:54:00.
