data_PCOD8295817
_publ_section_title
;
Structure prediction by ZEFSAII (Michael W. Deem and Ramdas Pophale) SiO2 
 PCOD8295817
Probable space group: I B C A 
;
_chemical_formula_sum "Si O2"
_cell_formula_units_Z 120
_cell_length_a 20.980862
_cell_length_b 12.624524
_cell_length_c 24.079991
_cell_angle_alpha 90.000000
_cell_angle_beta 90.000000
_cell_angle_gamma 90.000000
_cell_volume 6378.148988
_symmetry_space_group_name_H-M "I B C A "
_symmetry_group_IT_number 73
_symmetry_cell_setting 'orthorhombic'
loop_
_space_group_symop_operation_xyz
x,y,z
-x,1/2-y,z
x,-y,1/2-z
1/2-x,y,-z
-x,-y,-z
x,1/2+y,-z
-x,y,1/2+z
1/2+x,-y,z
1/2+x,1/2+y,1/2+z
1/2-x,-y,1/2+z
1/2+x,1/2-y,-z
-x,1/2+y,1/2-z
1/2-x,1/2-y,1/2-z
1/2+x,y,1/2-z
1/2-x,1/2+y,z
x,1/2-y,1/2+z
loop_
_atom_site_type_symbol
_atom_site_label
_atom_site_fract_x
_atom_site_fract_y
_atom_site_fract_z
Si Si1 0.656659 0.282375 0.961217
Si Si2 0.750000 0.108723 0.000000
Si Si3 0.495059 0.524514 0.936370
Si Si4 0.733614 0.455239 0.902376
Si Si5 0.632812 0.872785 0.918475
Si Si6 0.946171 0.671607 0.375577
Si Si7 0.368693 0.005764 0.813882
Si Si8 0.939104 0.186721 0.867197
O O1 0.706036 0.344428 0.922895
O O2 0.593696 0.265753 0.923376
O O3 0.689564 0.172727 0.977064
O O4 0.643154 0.347831 0.016833
O O5 0.721923 0.040244 0.049702
O O6 0.423770 0.543248 0.915312
O O7 0.519950 0.425852 0.903536
O O8 0.537058 0.629258 0.923674
O O9 0.500000 0.500000 0.000000
O O10 0.807677 0.432450 0.890128
O O11 0.697160 0.499060 0.848376
O O12 0.617380 0.767022 0.883488
O O13 0.903282 0.618700 0.327047
O O14 0.000000 0.750000 0.350434
O O15 0.349668 0.000000 0.750000
O O16 0.413049 0.903379 0.825792
O O17 0.000000 0.250000 0.840691
#
# Coordination Sequence:
#
# PCOD8295817 Si02
#       8
#    16   8  16  16  16  16  16  16
#     4  11  21  33  52  83 121 162 186 226 299 359
#     4  12  20  34  58  84 122 160 184 242 302 358
#     4  10  20  32  53  87 126 165 183 233 297 364
#     4  11  23  37  54  89 115 155 208 238 295 373
#     4  11  19  34  55  84 126 151 197 239 290 367
#     4  10  23  36  56  92 123 149 205 245 299 368
#     4  10  23  45  65  81 117 163 208 261 307 353
#     4   9  21  37  60  87 113 156 203 244 308 370
#
# _framework density 18.814236000000001
#
# number of rings (size 3 to 8) (size 9 to 14) (size 15 to 20)
#    0.000    1.600    4.000    0.800    3.733    0.533 
#    0.000    0.667    0.000    7.200    0.000    0.000 
#    0.000    0.000    0.000    0.000    0.000    0.000 
#
# Total GULP energy -743845.776137 kJ/mol
# GULP energy per Si atom -12397.429602 kJ/mol
# Density = 1.877141 g / cm^3
# Si number density = 18.814236 Si / 1000 Ang^3
#
#
#
# Elastic Constant Matrix: (Units=GPa)
#
#
# Indices 1 2 3 4 5 6 
#
# 1 119.0339 50.4952 45.8500 0.0000 0.0000 0.0000
# 2 50.4952 88.1494 33.9179 0.0000 0.0000 0.0000
# 3 45.8500 33.9179 109.7296 0.0000 0.0000 0.0000
# 4 0.0000 0.0000 0.0000 12.0830 0.0000 0.0000
# 5 0.0000 0.0000 0.0000 0.0000 18.0076 0.0000
# 6 0.0000 0.0000 0.0000 0.0000 0.0000 28.9942
#
#
#
# Elastic Compliance Matrix: (Units=1/GPa)
#
#
# Indices 1 2 3 4 5 6 
#
# 1 0.012064 -0.005642 -0.003297 0.000000 0.000000 0.000000
# 2 -0.005642 0.015515 -0.002438 0.000000 0.000000 0.000000
# 3 -0.003297 -0.002438 0.011245 0.000000 0.000000 0.000000
# 4 0.000000 0.000000 0.000000 0.082761 0.000000 0.000000
# 5 0.000000 0.000000 0.000000 0.000000 0.055532 0.000000
# 6 0.000000 0.000000 0.000000 0.000000 0.000000 0.034490
#
#
# Mechanical properties :
#
#
# Convention : Reuss Voigt Hill
#
# Bulk Modulus (GPa) = 62.23203 64.15992 63.19597
# Shear Modulus (GPa) = 20.85788 24.26027 22.55907
#
# Velocity S-wave (km/s) = 3.33321 3.59481 3.46648
# Velocity P-wave (km/s) = 6.92551 7.16980 7.04871
#
# Compressibility (1/GPa) = 0.01606890
#
# Stress axis : x y z
#
# Youngs Moduli (GPa) = 82.88818 64.45535 88.93204
#
# Poissons Ratio (x) = 0.36368 0.29321
# Poissons Ratio (y) = 0.46768 0.21682
# Poissons Ratio (z) = 0.27328 0.15714
#
# Static dielectric constant tensor:
#      x y z
#    x 3.872820 0.000000 0.000000 
#    y 0.000000 3.796050 0.000000 
#    z 0.000000 0.000000 3.347970 
# 
# 
# High freq. dielectric constant tensor:
#      x y z
#    x 1.744020 0.000000 0.000000 
#    y 0.000000 1.741080 0.000000 
#    z 0.000000 0.000000 1.686110 
# 
# From -- ./inp_files/30172.got.cif
#   From: 2010.03.12/outbox.cif.g09.slc.cpg/sg73_16_cif.got.tgz:30172.got - 2010.04.16 15:25:48.
