data_PCOD8295647
_publ_section_title
;
Structure prediction by ZEFSAII (Michael W. Deem and Ramdas Pophale) SiO2 
 PCOD8295647
Probable space group: I B C A 
;
_chemical_formula_sum "Si O2"
_cell_formula_units_Z 128
_cell_length_a 17.239911
_cell_length_b 19.365976
_cell_length_c 20.199319
_cell_angle_alpha 90.000000
_cell_angle_beta 90.000000
_cell_angle_gamma 90.000000
_cell_volume 6743.900230
_symmetry_space_group_name_H-M "I B C A "
_symmetry_group_IT_number 73
_symmetry_cell_setting 'orthorhombic'
loop_
_space_group_symop_operation_xyz
x,y,z
-x,1/2-y,z
x,-y,1/2-z
1/2-x,y,-z
-x,-y,-z
x,1/2+y,-z
-x,y,1/2+z
1/2+x,-y,z
1/2+x,1/2+y,1/2+z
1/2-x,-y,1/2+z
1/2+x,1/2-y,-z
-x,1/2+y,1/2-z
1/2-x,1/2-y,1/2-z
1/2+x,y,1/2-z
1/2-x,1/2+y,z
x,1/2-y,1/2+z
loop_
_atom_site_type_symbol
_atom_site_label
_atom_site_fract_x
_atom_site_fract_y
_atom_site_fract_z
Si Si1 0.187857 0.310809 0.164951
Si Si2 0.534359 0.962367 0.563086
Si Si3 0.271488 0.036278 0.180004
Si Si4 0.485578 0.175651 0.376379
Si Si5 0.540223 0.677972 0.763758
Si Si6 0.287385 0.071036 0.428975
Si Si7 0.948801 0.951321 0.187026
Si Si8 0.703073 0.167616 0.281100
O O1 0.096990 0.328594 0.161242
O O2 0.224378 0.352566 0.102981
O O3 0.218708 0.335853 0.236364
O O4 0.204187 0.228724 0.163771
O O5 0.499048 0.884955 0.570879
O O6 0.625368 0.951840 0.558095
O O7 0.500000 0.000000 0.500000
O O8 0.512176 0.008450 0.626151
O O9 0.359085 0.064988 0.171469
O O10 0.207523 0.097301 0.176478
O O11 0.262476 0.000000 0.250000
O O12 0.249027 0.983717 0.121284
O O13 0.500000 0.250000 0.411865
O O14 0.543849 0.167015 0.315486
O O15 0.500000 0.750000 0.784368
O O16 0.496817 0.618777 0.804053
O O17 0.633602 0.675862 0.773713
O O18 0.250000 0.070649 0.500000
O O19 0.957049 0.000000 0.250000
#
# Coordination Sequence:
#
# PCOD8295647 Si02
#       8
#    16  16  16  16  16  16  16  16
#     4  10  20  36  57  84 113 157 192 233 301 350
#     4  10  22  39  63  84 115 161 197 238 295 357
#     4  10  20  37  60  88 118 155 194 245 302 353
#     4  10  18  37  59  84 113 153 196 235 286 354
#     4  11  21  33  54  90 119 147 188 246 293 349
#     4  10  22  41  61  82 120 161 198 241 296 362
#     4  10  20  37  60  85 118 154 190 241 304 355
#     4  11  21  32  58  89 119 147 196 247 291 355
#
# _framework density 18.980115000000001
#
# number of rings (size 3 to 8) (size 9 to 14) (size 15 to 20)
#    0.000    1.750    5.000    0.750    1.750    2.500 
#    0.000    1.250    8.250    0.000    0.000    0.000 
#    0.000    0.000    0.000    0.000    0.000    0.000 
#
# Total GULP energy -793123.323046 kJ/mol
# GULP energy per Si atom -12392.551923 kJ/mol
# Density = 1.893692 g / cm^3
# Si number density = 18.980115 Si / 1000 Ang^3
#
#
#
# Elastic Constant Matrix: (Units=GPa)
#
#
# Indices 1 2 3 4 5 6 
#
# 1 53.9407 50.7127 23.0471 0.0000 0.0000 0.0000
# 2 50.7127 168.7468 65.6653 0.0000 0.0000 0.0000
# 3 23.0471 65.6653 110.7692 0.0000 0.0000 0.0000
# 4 0.0000 0.0000 0.0000 33.8876 0.0000 0.0000
# 5 0.0000 0.0000 0.0000 0.0000 25.2423 0.0000
# 6 0.0000 0.0000 0.0000 0.0000 0.0000 32.2249
#
#
#
# Elastic Compliance Matrix: (Units=1/GPa)
#
#
# Indices 1 2 3 4 5 6 
#
# 1 0.025926 -0.007399 -0.001008 0.000000 0.000000 0.000000
# 2 -0.007399 0.009815 -0.004279 0.000000 0.000000 0.000000
# 3 -0.001008 -0.004279 0.011774 0.000000 0.000000 0.000000
# 4 0.000000 0.000000 0.000000 0.029509 0.000000 0.000000
# 5 0.000000 0.000000 0.000000 0.000000 0.039616 0.000000
# 6 0.000000 0.000000 0.000000 0.000000 0.000000 0.031032
#
#
# Mechanical properties :
#
#
# Convention : Reuss Voigt Hill
#
# Bulk Modulus (GPa) = 45.16127 68.03408 56.59768
# Shear Modulus (GPa) = 27.71241 31.20640 29.45941
#
# Velocity S-wave (km/s) = 3.82524 4.05923 3.94397
# Velocity P-wave (km/s) = 6.58450 7.60871 7.11506
#
# Compressibility (1/GPa) = 0.02214287
#
# Stress axis : x y z
#
# Youngs Moduli (GPa) = 38.57142 101.88811 84.93289
#
# Poissons Ratio (x) = 0.75389 0.08561
# Poissons Ratio (y) = 0.28540 0.36341
# Poissons Ratio (z) = 0.03888 0.43595
#
# Static dielectric constant tensor:
#      x y z
#    x 3.546200 0.000000 0.000000 
#    y 0.000000 3.818360 0.000000 
#    z 0.000000 0.000000 1.373740 
# 
# 
# High freq. dielectric constant tensor:
#      x y z
#    x 1.736560 0.000000 0.000000 
#    y 0.000000 1.754970 0.000000 
#    z 0.000000 0.000000 1.697380 
# 
# From -- ./inp_files/26740.got.cif
#   From: 2010.03.12/outbox.cif.g09.slc.cpg/sg73_14_cif.got.tgz:26740.got - 2010.04.16 15:25:48.
