data_PCOD8295378
_publ_section_title
;
Structure prediction by ZEFSAII (Michael W. Deem and Ramdas Pophale) SiO2 
 PCOD8295378
Probable space group: I B A M
;
_chemical_formula_sum "Si O2"
_cell_formula_units_Z 96
_cell_length_a 8.908134
_cell_length_b 18.862544
_cell_length_c 27.208815
_cell_angle_alpha 90.000000
_cell_angle_beta 90.000000
_cell_angle_gamma 90.000000
_cell_volume 4571.899076
_symmetry_space_group_name_H-M "I B A M"
_symmetry_group_IT_number 72
_symmetry_cell_setting 'orthorhombic'
loop_
_space_group_symop_operation_xyz
x,y,z
-x,-y,z
x,-y,1/2-z
-x,y,1/2-z
-x,-y,-z
x,y,-z
-x,y,1/2+z
x,-y,1/2+z
1/2+x,1/2+y,1/2+z
1/2-x,1/2-y,1/2+z
1/2+x,1/2-y,-z
1/2-x,1/2+y,-z
1/2-x,1/2-y,1/2-z
1/2+x,1/2+y,1/2-z
1/2-x,1/2+y,z
1/2+x,1/2-y,z
loop_
_atom_site_type_symbol
_atom_site_label
_atom_site_fract_x
_atom_site_fract_y
_atom_site_fract_z
Si Si1 0.861820 0.711824 0.785125
Si Si2 0.351365 0.352046 0.342910
Si Si3 0.707165 0.660922 0.053371
Si Si4 0.335409 0.025462 0.194824
Si Si5 0.318845 0.596996 0.654147
Si Si6 0.630143 0.697043 0.446068
O O1 0.750000 0.750000 0.750000
O O2 0.891785 0.771671 0.826375
O O3 0.790437 0.642913 0.810491
O O4 0.000000 0.687859 0.750000
O O5 0.212467 0.391209 0.313680
O O6 0.507253 0.392102 0.333764
O O7 0.304610 0.349630 0.400769
O O8 0.724443 0.605884 0.097237
O O9 0.547973 0.698985 0.057602
O O10 0.829951 0.721233 0.059732
O O11 0.724680 0.622772 0.000000
O O12 0.500000 0.000000 0.176456
O O13 0.314742 0.000000 0.250000
O O14 0.212121 0.985261 0.162640
O O15 0.683366 0.667465 0.500000
#
# Coordination Sequence:
#
# PCOD8295378 Si02
#       6
#    16  16  16  16  16  16
#     4  12  24  36  59  92 122 155 203 258 297 356
#     4  11  23  41  61  89 122 162 204 246 305 370
#     4   9  18  34  58  90 121 152 195 247 305 360
#     4  11  27  43  61  84 120 163 206 254 305 364
#     4  11  23  40  62  88 121 164 200 249 306 363
#     4   9  18  34  59  90 121 153 193 249 305 358
#
# _framework density 20.99784
#
# number of rings (size 3 to 8) (size 9 to 14) (size 15 to 20)
#    0.000    1.500    3.333    1.500    4.667    2.000 
#    0.000    0.833    0.000    5.000    0.000    0.000 
#    0.000    0.000    0.000    0.000    0.000    0.000 
#
# Total GULP energy -594719.369802 kJ/mol
# GULP energy per Si atom -12389.986871 kJ/mol
# Density = 2.095005 g / cm^3
# Si number density = 20.997840 Si / 1000 Ang^3
#
#
#
# Elastic Constant Matrix: (Units=GPa)
#
#
# Indices 1 2 3 4 5 6 
#
# 1 60.3436 6.2201 31.6079 0.0000 0.0000 0.0000
# 2 6.2201 49.3415 8.4286 0.0000 0.0000 0.0000
# 3 31.6079 8.4286 107.2577 0.0000 0.0000 0.0000
# 4 0.0000 0.0000 0.0000 21.8095 0.0000 0.0000
# 5 0.0000 0.0000 0.0000 0.0000 27.2942 0.0000
# 6 0.0000 0.0000 0.0000 0.0000 0.0000 34.6620
#
#
#
# Elastic Compliance Matrix: (Units=1/GPa)
#
#
# Indices 1 2 3 4 5 6 
#
# 1 0.019707 -0.001513 -0.005689 0.000000 0.000000 0.000000
# 2 -0.001513 0.020659 -0.001178 0.000000 0.000000 0.000000
# 3 -0.005689 -0.001178 0.011092 0.000000 0.000000 0.000000
# 4 0.000000 0.000000 0.000000 0.045852 0.000000 0.000000
# 5 0.000000 0.000000 0.000000 0.000000 0.036638 0.000000
# 6 0.000000 0.000000 0.000000 0.000000 0.000000 0.028850
#
#
# Mechanical properties :
#
#
# Convention : Reuss Voigt Hill
#
# Bulk Modulus (GPa) = 28.81805 34.38401 31.60103
# Shear Modulus (GPa) = 26.16118 28.13221 27.14670
#
# Velocity S-wave (km/s) = 3.53356 3.66425 3.59950
# Velocity P-wave (km/s) = 5.51381 5.85772 5.68837
#
# Compressibility (1/GPa) = 0.03470047
#
# Stress axis : x y z
#
# Youngs Moduli (GPa) = 50.74229 48.40560 90.15260
#
# Poissons Ratio (x) = 0.07322 0.51285
# Poissons Ratio (y) = 0.07675 0.10617
# Poissons Ratio (z) = 0.28866 0.05701
#
# Static dielectric constant tensor:
#      x y z
#    x 3.709330 0.000000 0.000000 
#    y 0.000000 3.508410 0.000000 
#    z 0.000000 0.000000 4.150790 
# 
# 
# High freq. dielectric constant tensor:
#      x y z
#    x 1.823040 0.000000 0.000000 
#    y 0.000000 1.797120 0.000000 
#    z 0.000000 0.000000 1.840250 
# 
# From -- ./inp_files/47323.got.cif
#   From: 2010.03.12/outbox.cif.g09.slc.cpg/sg72_24_cif.got.tgz:47323.got - 2010.04.16 14:54:00.
