data_PCOD8295993
_publ_section_title
;
Structure prediction by ZEFSAII (Michael W. Deem and Ramdas Pophale) SiO2 
 PCOD8295993
Probable space group: I B C A 
;
_chemical_formula_sum "Si O2"
_cell_formula_units_Z 96
_cell_length_a 13.484505
_cell_length_b 14.804276
_cell_length_c 20.251600
_cell_angle_alpha 90.000000
_cell_angle_beta 90.000000
_cell_angle_gamma 90.000000
_cell_volume 4042.793164
_symmetry_space_group_name_H-M "I B C A "
_symmetry_group_IT_number 73
_symmetry_cell_setting 'orthorhombic'
loop_
_space_group_symop_operation_xyz
x,y,z
-x,1/2-y,z
x,-y,1/2-z
1/2-x,y,-z
-x,-y,-z
x,1/2+y,-z
-x,y,1/2+z
1/2+x,-y,z
1/2+x,1/2+y,1/2+z
1/2-x,-y,1/2+z
1/2+x,1/2-y,-z
-x,1/2+y,1/2-z
1/2-x,1/2-y,1/2-z
1/2+x,y,1/2-z
1/2-x,1/2+y,z
x,1/2-y,1/2+z
loop_
_atom_site_type_symbol
_atom_site_label
_atom_site_fract_x
_atom_site_fract_y
_atom_site_fract_z
Si Si1 0.544981 0.568095 0.191783
Si Si2 0.897024 0.538623 0.568999
Si Si3 0.671956 0.953153 0.179126
Si Si4 0.368250 0.931678 0.943860
Si Si5 0.390109 0.762660 0.415235
Si Si6 0.327824 0.814137 0.281388
O O1 0.523238 0.500000 0.250000
O O2 0.612470 0.516868 0.137563
O O3 0.434477 0.597764 0.167302
O O4 0.604192 0.652442 0.221146
O O5 0.842023 0.477594 0.514001
O O6 0.846858 0.638927 0.563816
O O7 0.014014 0.556648 0.562613
O O8 0.766823 0.888746 0.177222
O O9 0.674984 0.000000 0.250000
O O10 0.687774 0.020886 0.117425
O O11 0.332845 0.826051 0.943224
O O12 0.500000 0.750000 0.442781
O O13 0.392773 0.759946 0.334983
O O14 0.250000 0.750000 0.250000
#
# Coordination Sequence:
#
# PCOD8295993 Si02
#       6
#    16  16  16  16  16  16
#     4  10  20  39  66  93 126 170 216 266 328 388
#     4   9  18  38  68  96 124 172 216 266 325 387
#     4  10  22  39  64  94 129 167 214 268 325 385
#     4   9  19  39  66  95 129 168 216 267 326 389
#     4  10  21  38  66  94 125 170 218 258 326 393
#     4  12  25  37  63  93 134 167 219 272 323 382
#
# _framework density 23.745958999999999
#
# number of rings (size 3 to 8) (size 9 to 14) (size 15 to 20)
#    0.000    2.000    1.667    1.500    4.667    0.000 
#    3.000    0.833    0.000    0.000    0.000    0.000 
#    0.000    0.000    0.000    0.000    0.000    0.000 
#
# Total GULP energy -594652.143462 kJ/mol
# GULP energy per Si atom -12388.586322 kJ/mol
# Density = 2.369191 g / cm^3
# Si number density = 23.745959 Si / 1000 Ang^3
#
#
#
# Elastic Constant Matrix: (Units=GPa)
#
#
# Indices 1 2 3 4 5 6 
#
# 1 45.5800 0.0829 1.4342 0.0000 0.0000 0.0000
# 2 0.0829 119.6102 63.1566 0.0000 0.0001 0.0000
# 3 1.4342 63.1566 149.1290 0.0000 0.0001 0.0000
# 4 0.0000 0.0000 0.0000 42.2784 0.0000 0.0000
# 5 0.0000 0.0001 0.0001 0.0000 308.9921 0.0000
# 6 0.0000 0.0000 0.0000 0.0000 0.0000 35.6490
#
#
#
# Elastic Compliance Matrix: (Units=1/GPa)
#
#
# Indices 1 2 3 4 5 6 
#
# 1 0.021948 0.000124 -0.000264 0.000000 0.000000 0.000000
# 2 0.000124 0.010769 -0.004562 0.000000 0.000000 0.000000
# 3 -0.000264 -0.004562 0.008640 0.000000 0.000000 0.000000
# 4 0.000000 0.000000 0.000000 0.023653 0.000000 0.000000
# 5 0.000000 0.000000 0.000000 0.000000 0.003236 0.000000
# 6 0.000000 0.000000 0.000000 0.000000 0.000000 0.028051
#
#
# Mechanical properties :
#
#
# Convention : Reuss Voigt Hill
#
# Bulk Modulus (GPa) = 31.29527 49.29627 40.29577
# Shear Modulus (GPa) = 42.97316 94.02694 68.50005
#
# Velocity S-wave (km/s) = 4.25868 6.29944 5.37677
# Velocity P-wave (km/s) = 6.11470 8.58578 7.45336
#
# Compressibility (1/GPa) = 0.03195372
#
# Stress axis : x y z
#
# Youngs Moduli (GPa) = 45.56322 92.85720 115.73866
#
# Poissons Ratio (x) = -0.01151 0.03051
# Poissons Ratio (y) = -0.00565 0.52800
# Poissons Ratio (z) = 0.01201 0.42361
#
# Static dielectric constant tensor:
#      x y z
#    x 4.600110 0.000000 0.000000 
#    y 0.000000 4.242720 0.000000 
#    z 0.000000 0.000000 4.112680 
# 
# 
# High freq. dielectric constant tensor:
#      x y z
#    x 1.947610 0.000000 0.000000 
#    y 0.000000 1.929250 0.000000 
#    z 0.000000 0.000000 1.933830 
# 
# From -- ./inp_files/25977.got.cif
#   From: 2010.03.12/outbox.cif.g09.slc.cpg/sg73_13_cif.got.tgz:25977.got - 2010.04.16 15:25:48.
