data_PCOD8295794
_publ_section_title
;
Structure prediction by ZEFSAII (Michael W. Deem and Ramdas Pophale) SiO2 
 PCOD8295794
Probable space group: I B C A 
;
_chemical_formula_sum "Si O2"
_cell_formula_units_Z 96
_cell_length_a 13.853300
_cell_length_b 19.812140
_cell_length_c 13.897708
_cell_angle_alpha 90.000000
_cell_angle_beta 90.000000
_cell_angle_gamma 90.000000
_cell_volume 3814.413845
_symmetry_space_group_name_H-M "I B C A "
_symmetry_group_IT_number 73
_symmetry_cell_setting 'orthorhombic'
loop_
_space_group_symop_operation_xyz
x,y,z
-x,1/2-y,z
x,-y,1/2-z
1/2-x,y,-z
-x,-y,-z
x,1/2+y,-z
-x,y,1/2+z
1/2+x,-y,z
1/2+x,1/2+y,1/2+z
1/2-x,-y,1/2+z
1/2+x,1/2-y,-z
-x,1/2+y,1/2-z
1/2-x,1/2-y,1/2-z
1/2+x,y,1/2-z
1/2-x,1/2+y,z
x,1/2-y,1/2+z
loop_
_atom_site_type_symbol
_atom_site_label
_atom_site_fract_x
_atom_site_fract_y
_atom_site_fract_z
Si Si1 0.959758 0.319660 0.632360
Si Si2 0.145984 0.482665 0.982413
Si Si3 0.151682 0.374220 0.603466
Si Si4 0.649052 0.257393 0.526103
Si Si5 0.653379 0.339175 0.189521
Si Si6 0.475456 0.034956 0.147426
O O1 0.931427 0.308461 0.518514
O O2 0.865779 0.334754 0.696403
O O3 0.000000 0.250000 0.674727
O O4 0.042780 0.376763 0.648124
O O5 0.173827 0.557981 0.951834
O O6 0.081985 0.449345 0.897134
O O7 0.250000 0.445521 0.000000
O O8 0.082600 0.481534 0.079905
O O9 0.149663 0.313848 0.528543
O O10 0.235116 0.361915 0.682043
O O11 0.750000 0.293389 0.500000
O O12 0.635111 0.234282 0.637293
O O13 0.581287 0.394856 0.146632
O O14 0.486270 0.000000 0.250000
#
# Coordination Sequence:
#
# PCOD8295794 Si02
#       6
#    16  16  16  16  16  16
#     4  10  23  37  62  99 131 167 223 278 313 400
#     4  11  21  43  70  96 136 174 221 273 334 404
#     4  10  19  40  66  92 133 178 212 270 339 400
#     4   9  19  37  64  89 125 176 216 269 332 397
#     4  11  21  43  67  92 132 180 216 268 341 391
#     4  11  24  40  71 102 127 176 225 273 333 403
#
# _framework density 25.167691999999999
#
# number of rings (size 3 to 8) (size 9 to 14) (size 15 to 20)
#    0.000    1.667    3.333    1.500    0.000    8.667 
#    3.000    1.667    0.000    4.000    0.000    0.000 
#    0.000    0.000    0.000    0.000    0.000    0.000 
#
# Total GULP energy -594779.222704 kJ/mol
# GULP energy per Si atom -12391.233806 kJ/mol
# Density = 2.511041 g / cm^3
# Si number density = 25.167692 Si / 1000 Ang^3
#
#
#
# Elastic Constant Matrix: (Units=GPa)
#
#
# Indices 1 2 3 4 5 6 
#
# 1 186.6491 35.9766 58.5530 0.0002 0.0000 0.0000
# 2 35.9766 28.7180 19.2007 -0.0003 0.0000 0.0000
# 3 58.5530 19.2007 122.9437 -0.0009 0.0001 0.0001
# 4 0.0002 -0.0003 -0.0009 14.5131 0.0001 0.0000
# 5 0.0000 0.0000 0.0001 0.0001 52.0851 0.0000
# 6 0.0000 0.0000 0.0001 0.0000 0.0000 17.4194
#
#
#
# Elastic Compliance Matrix: (Units=1/GPa)
#
#
# Indices 1 2 3 4 5 6 
#
# 1 0.007647 -0.007978 -0.002396 0.000000 0.000000 0.000000
# 2 -0.007978 0.047204 -0.003573 0.000001 0.000000 0.000000
# 3 -0.002396 -0.003573 0.009833 0.000001 0.000000 0.000000
# 4 0.000000 0.000001 0.000001 0.068903 0.000000 0.000000
# 5 0.000000 0.000000 0.000000 0.000000 0.019199 0.000000
# 6 0.000000 0.000000 0.000000 0.000000 0.000000 0.057407
#
#
# Mechanical properties :
#
#
# Convention : Reuss Voigt Hill
#
# Bulk Modulus (GPa) = 27.18041 62.86347 45.02194
# Shear Modulus (GPa) = 19.97200 31.77557 25.87379
#
# Velocity S-wave (km/s) = 2.82007 3.55710 3.20981
# Velocity P-wave (km/s) = 4.62892 6.47323 5.62715
#
# Compressibility (1/GPa) = 0.03679121
#
# Stress axis : x y z
#
# Youngs Moduli (GPa) = 130.76983 21.18454 101.69964
#
# Poissons Ratio (x) = 0.16901 0.24367
# Poissons Ratio (y) = 1.04326 0.36333
# Poissons Ratio (z) = 0.31333 0.07568
#
# Static dielectric constant tensor:
#      x y z
#    x 5.753750 0.000000 0.000000 
#    y 0.000000 4.280610 0.000000 
#    z 0.000000 0.000000 4.651090 
# 
# 
# High freq. dielectric constant tensor:
#      x y z
#    x 2.023560 0.000000 0.000000 
#    y 0.000000 1.978510 0.000000 
#    z 0.000000 0.000000 1.984810 
# 
# From -- ./inp_files/17085.got.cif
#   From: 2010.03.12/outbox.cif.g09.slc.cpg/sg73_9_cif.got.tgz:17085.got - 2010.04.16 15:25:48.
