data_PCOD8295324
_publ_section_title
;
Structure prediction by ZEFSAII (Michael W. Deem and Ramdas Pophale) SiO2 
 PCOD8295324
Probable space group: I B A M
;
_chemical_formula_sum "Si O2"
_cell_formula_units_Z 64
_cell_length_a 23.470728
_cell_length_b 8.649807
_cell_length_c 14.950303
_cell_angle_alpha 90.000000
_cell_angle_beta 90.000000
_cell_angle_gamma 90.000000
_cell_volume 3035.169661
_symmetry_space_group_name_H-M "I B A M"
_symmetry_group_IT_number 72
_symmetry_cell_setting 'orthorhombic'
loop_
_space_group_symop_operation_xyz
x,y,z
-x,-y,z
x,-y,1/2-z
-x,y,1/2-z
-x,-y,-z
x,y,-z
-x,y,1/2+z
x,-y,1/2+z
1/2+x,1/2+y,1/2+z
1/2-x,1/2-y,1/2+z
1/2+x,1/2-y,-z
1/2-x,1/2+y,-z
1/2-x,1/2-y,1/2-z
1/2+x,1/2+y,1/2-z
1/2-x,1/2+y,z
1/2+x,1/2-y,z
loop_
_atom_site_type_symbol
_atom_site_label
_atom_site_fract_x
_atom_site_fract_y
_atom_site_fract_z
Si Si1 0.108226 0.179474 0.154122
Si Si2 0.176821 0.672504 0.500000
Si Si3 0.201922 0.313377 0.500000
Si Si4 0.997122 0.325725 0.102895
Si Si5 0.878076 0.173574 0.857234
O O1 0.140160 0.296881 0.088741
O O2 0.134678 0.196748 0.252611
O O3 0.041204 0.221757 0.159388
O O4 0.114242 0.005807 0.118150
O O5 0.194350 0.495668 0.500000
O O6 0.231156 0.783116 0.500000
O O7 0.175360 0.239763 0.589114
O O8 0.933822 0.263770 0.112354
O O9 0.000000 0.500000 0.139799
O O10 0.016630 0.320233 0.000000
#
# Coordination Sequence:
#
# PCOD8295324 Si02
#       5
#    16   8   8  16  16
#     4  11  24  42  66  96 129 167 210 259 315 374
#     4  12  26  45  68  93 124 166 212 262 316 370
#     4  12  26  45  68  93 124 166 212 262 316 370
#     4  11  22  37  62  97 132 169 208 255 315 375
#     4  11  24  42  66  96 129 167 210 259 315 374
#
# _framework density 21.086137000000001
#
# number of rings (size 3 to 8) (size 9 to 14) (size 15 to 20)
#    0.000    0.750    2.500    5.250    0.000    9.000 
#    0.000    0.000    0.000    0.000    0.000    0.000 
#    0.000    0.000    0.000    0.000    0.000    0.000 
#
# Total GULP energy -397080.179503 kJ/mol
# GULP energy per Si atom -12408.755609 kJ/mol
# Density = 2.103814 g / cm^3
# Si number density = 21.086137 Si / 1000 Ang^3
#
#
#
# Elastic Constant Matrix: (Units=GPa)
#
#
# Indices 1 2 3 4 5 6 
#
# 1 84.3231 7.5665 13.7246 0.0000 0.0000 0.0000
# 2 7.5665 126.3395 24.1125 0.0000 0.0000 0.0000
# 3 13.7246 24.1125 92.4667 0.0000 0.0000 0.0000
# 4 0.0000 0.0000 0.0000 10.2738 0.0000 0.0000
# 5 0.0000 0.0000 0.0000 0.0000 11.8008 0.0000
# 6 0.0000 0.0000 0.0000 0.0000 0.0000 42.8129
#
#
#
# Elastic Compliance Matrix: (Units=1/GPa)
#
#
# Indices 1 2 3 4 5 6 
#
# 1 0.012172 -0.000404 -0.001701 0.000000 0.000000 0.000000
# 2 -0.000404 0.008343 -0.002116 0.000000 0.000000 0.000000
# 3 -0.001701 -0.002116 0.011619 0.000000 0.000000 0.000000
# 4 0.000000 0.000000 0.000000 0.097335 0.000000 0.000000
# 5 0.000000 0.000000 0.000000 0.000000 0.084740 0.000000
# 6 0.000000 0.000000 0.000000 0.000000 0.000000 0.023357
#
#
# Mechanical properties :
#
#
# Convention : Reuss Voigt Hill
#
# Bulk Modulus (GPa) = 42.20839 43.77072 42.98956
# Shear Modulus (GPa) = 19.69227 30.15921 24.92574
#
# Velocity S-wave (km/s) = 3.05929 3.78602 3.44189
# Velocity P-wave (km/s) = 5.70435 6.31783 6.01891
#
# Compressibility (1/GPa) = 0.02369197
#
# Stress axis : x y z
#
# Youngs Moduli (GPa) = 82.15358 119.85845 86.06660
#
# Poissons Ratio (x) = 0.04846 0.14642
# Poissons Ratio (y) = 0.03322 0.18209
# Poissons Ratio (z) = 0.13977 0.25358
#
# Static dielectric constant tensor:
#      x y z
#    x 3.705880 0.000000 0.000000 
#    y 0.000000 3.940970 0.000000 
#    z 0.000000 0.000000 3.899960 
# 
# 
# High freq. dielectric constant tensor:
#      x y z
#    x 1.822180 0.000000 0.000000 
#    y 0.000000 1.842120 0.000000 
#    z 0.000000 0.000000 1.836780 
# 
# From -- ./inp_files/18632.got.cif
#   From: 2010.03.12/outbox.cif.g09.slc.cpg/sg72_10_cif.got.tgz:18632.got - 2010.04.16 14:54:00.
