data_PCOD8295077
_publ_section_title
;
Structure prediction by ZEFSAII (Michael W. Deem and Ramdas Pophale) SiO2 
 PCOD8295077
Probable space group: I B A M
;
_chemical_formula_sum "Si O2"
_cell_formula_units_Z 64
_cell_length_a 20.505237
_cell_length_b 9.891976
_cell_length_c 17.545927
_cell_angle_alpha 90.000000
_cell_angle_beta 90.000000
_cell_angle_gamma 90.000000
_cell_volume 3558.968674
_symmetry_space_group_name_H-M "I B A M"
_symmetry_group_IT_number 72
_symmetry_cell_setting 'orthorhombic'
loop_
_space_group_symop_operation_xyz
x,y,z
-x,-y,z
x,-y,1/2-z
-x,y,1/2-z
-x,-y,-z
x,y,-z
-x,y,1/2+z
x,-y,1/2+z
1/2+x,1/2+y,1/2+z
1/2-x,1/2-y,1/2+z
1/2+x,1/2-y,-z
1/2-x,1/2+y,-z
1/2-x,1/2-y,1/2-z
1/2+x,1/2+y,1/2-z
1/2-x,1/2+y,z
1/2+x,1/2-y,z
loop_
_atom_site_type_symbol
_atom_site_label
_atom_site_fract_x
_atom_site_fract_y
_atom_site_fract_z
Si Si1 0.301009 0.519464 0.661639
Si Si2 0.787515 0.298475 0.915811
Si Si3 0.902521 0.399743 0.000000
Si Si4 0.931652 0.052984 0.584875
Si Si5 0.549736 0.193921 0.000000
O O1 0.287601 0.500000 0.750000
O O2 0.256095 0.419372 0.614562
O O3 0.283198 0.672704 0.640724
O O4 0.376164 0.490393 0.643050
O O5 0.862429 0.351569 0.924734
O O6 0.760670 0.256975 0.000000
O O7 0.906016 0.561936 0.000000
O O8 0.973384 0.336720 0.000000
O O9 0.919950 0.986801 0.500000
O O10 0.933931 0.216536 0.575348
O O11 0.000000 0.000000 0.618607
#
# Coordination Sequence:
#
# PCOD8295077 Si02
#       5
#    16  16   8  16   8
#     4  12  24  38  57  89 124 156 194 251 313 363
#     4  10  23  38  61  82 116 155 208 238 296 351
#     4   9  20  33  61  88 112 143 200 260 282 341
#     4   9  19  34  61  83 115 151 207 247 292 352
#     4   9  17  33  59  92 108 140 204 253 294 330
#
# _framework density 17.982738000000001
#
# number of rings (size 3 to 8) (size 9 to 14) (size 15 to 20)
#    1.500    0.500    0.000    4.500    3.500    0.500 
#    0.000    0.000    0.000    0.000    0.000    0.000 
#    0.000    0.000    0.000    0.000    0.000    0.000 
#
# Total GULP energy -396618.480600 kJ/mol
# GULP energy per Si atom -12394.327519 kJ/mol
# Density = 1.794181 g / cm^3
# Si number density = 17.982738 Si / 1000 Ang^3
#
#
#
# Elastic Constant Matrix: (Units=GPa)
#
#
# Indices 1 2 3 4 5 6 
#
# 1 80.0458 31.1848 23.1789 0.0000 0.0000 0.0000
# 2 31.1848 123.7704 22.8102 0.0000 0.0000 0.0000
# 3 23.1789 22.8102 75.6020 0.0000 0.0000 0.0000
# 4 0.0000 0.0000 0.0000 22.8907 0.0000 0.0000
# 5 0.0000 0.0000 0.0000 0.0000 -6.5891 0.0000
# 6 0.0000 0.0000 0.0000 0.0000 0.0000 34.0251
#
#
#
# Elastic Compliance Matrix: (Units=1/GPa)
#
#
# Indices 1 2 3 4 5 6 
#
# 1 0.014720 -0.003047 -0.003594 0.000000 0.000000 0.000000
# 2 -0.003047 0.009186 -0.001837 0.000000 0.000000 0.000000
# 3 -0.003594 -0.001837 0.014883 0.000000 0.000000 0.000000
# 4 0.000000 0.000000 0.000000 0.043686 0.000000 0.000000
# 5 0.000000 0.000000 0.000000 0.000000 -0.151766 0.000000
# 6 0.000000 0.000000 0.000000 0.000000 0.000000 0.029390
#
#
# Mechanical properties :
#
#
# Convention : Reuss Voigt Hill
#
# Bulk Modulus (GPa) = 45.80080 48.19623 46.99851
# Shear Modulus (GPa) = -319.15637 23.54828 -147.80404
#
# Velocity S-wave (km/s) = -13.33659 3.62262 -9.07583
# Velocity P-wave (km/s) = 14.54745 6.66013 9.14524
#
# Compressibility (1/GPa) = 0.02183368
#
# Stress axis : x y z
#
# Youngs Moduli (GPa) = 67.93259 108.86480 67.18892
#
# Poissons Ratio (x) = 0.33167 0.24148
# Poissons Ratio (y) = 0.20696 0.12345
# Poissons Ratio (z) = 0.24415 0.20003
#
# Static dielectric constant tensor:
#      x y z
#    x 3.274170 0.000000 0.000000 
#    y 0.000000 3.422500 0.000000 
#    z 0.000000 0.000000 3.035460 
# 
# 
# High freq. dielectric constant tensor:
#      x y z
#    x 1.704970 0.000000 0.000000 
#    y 0.000000 1.709350 0.000000 
#    z 0.000000 0.000000 1.655840 
# 
# From -- ./inp_files/22828.got.cif
#   From: 2010.03.12/outbox.cif.g09.slc.cpg/sg72_12_cif.got.tgz:22828.got - 2010.04.16 14:54:00.
