data_PCOD8295580
_publ_section_title
;
Structure prediction by ZEFSAII (Michael W. Deem and Ramdas Pophale) SiO2 
 PCOD8295580
Probable space group: I B C A 
;
_chemical_formula_sum "Si O2"
_cell_formula_units_Z 72
_cell_length_a 14.473732
_cell_length_b 16.782656
_cell_length_c 16.329529
_cell_angle_alpha 90.000000
_cell_angle_beta 90.000000
_cell_angle_gamma 90.000000
_cell_volume 3966.567763
_symmetry_space_group_name_H-M "I B C A "
_symmetry_group_IT_number 73
_symmetry_cell_setting 'orthorhombic'
loop_
_space_group_symop_operation_xyz
x,y,z
-x,1/2-y,z
x,-y,1/2-z
1/2-x,y,-z
-x,-y,-z
x,1/2+y,-z
-x,y,1/2+z
1/2+x,-y,z
1/2+x,1/2+y,1/2+z
1/2-x,-y,1/2+z
1/2+x,1/2-y,-z
-x,1/2+y,1/2-z
1/2-x,1/2-y,1/2-z
1/2+x,y,1/2-z
1/2-x,1/2+y,z
x,1/2-y,1/2+z
loop_
_atom_site_type_symbol
_atom_site_label
_atom_site_fract_x
_atom_site_fract_y
_atom_site_fract_z
Si Si1 0.588023 0.708055 0.107307
Si Si2 0.250000 0.241246 0.000000
Si Si3 0.150768 0.670599 0.756131
Si Si4 0.171474 0.816960 0.656798
Si Si5 0.966648 0.408673 0.741557
O O1 0.500000 0.750000 0.061868
O O2 0.609773 0.766361 0.181079
O O3 0.565590 0.623258 0.151496
O O4 0.674542 0.702104 0.045178
O O5 0.303414 0.180200 0.060875
O O6 0.167410 0.721297 0.673531
O O7 0.248691 0.638696 0.789518
O O8 0.077332 0.599633 0.745711
O O9 0.077478 0.861211 0.681286
O O10 0.938373 0.500000 0.750000
#
# Coordination Sequence:
#
# PCOD8295580 Si02
#       5
#    16   8  16  16  16
#     4   8  16  31  50  72  97 126 164 206 240 279
#     4  10  18  30  52  76  98 124 164 208 244 284
#     4   8  16  32  51  70  92 126 175 212 231 268
#     4   9  17  31  52  74  95 126 167 206 241 281
#     4  10  19  32  51  75 102 130 161 199 244 293
#
# _framework density 18.151712
#
# number of rings (size 3 to 8) (size 9 to 14) (size 15 to 20)
#    0.000    3.111    0.000    3.333    0.000    2.667 
#    0.000    1.111    0.000   18.667    0.000    0.000 
#    0.000    0.000    0.000    0.000    0.000    0.000 
#
# Total GULP energy -446003.235015 kJ/mol
# GULP energy per Si atom -12388.978750 kJ/mol
# Density = 1.811040 g / cm^3
# Si number density = 18.151712 Si / 1000 Ang^3
#
#
#
# Elastic Constant Matrix: (Units=GPa)
#
#
# Indices 1 2 3 4 5 6 
#
# 1 99.3130 24.7112 33.0290 0.0000 0.0000 0.0000
# 2 24.7112 68.0487 28.0633 0.0000 0.0000 0.0000
# 3 33.0290 28.0633 84.7027 0.0000 0.0000 0.0000
# 4 0.0000 0.0000 0.0000 13.0895 0.0000 0.0000
# 5 0.0000 0.0000 0.0000 0.0000 15.9980 0.0000
# 6 0.0000 0.0000 0.0000 0.0000 0.0000 14.0635
#
#
#
# Elastic Compliance Matrix: (Units=1/GPa)
#
#
# Indices 1 2 3 4 5 6 
#
# 1 0.012018 -0.002816 -0.003753 0.000000 0.000000 0.000000
# 2 -0.002816 0.017681 -0.004760 0.000000 0.000000 0.000000
# 3 -0.003753 -0.004760 0.014847 0.000000 0.000000 0.000000
# 4 0.000000 0.000000 0.000000 0.076397 0.000000 0.000000
# 5 0.000000 0.000000 0.000000 0.000000 0.062508 0.000000
# 6 0.000000 0.000000 0.000000 0.000000 0.000000 0.071106
#
#
# Mechanical properties :
#
#
# Convention : Reuss Voigt Hill
#
# Bulk Modulus (GPa) = 45.68950 47.07461 46.38205
# Shear Modulus (GPa) = 17.57400 19.71427 18.64413
#
# Velocity S-wave (km/s) = 3.11492 3.29915 3.20836
# Velocity P-wave (km/s) = 6.17758 6.36418 6.27158
#
# Compressibility (1/GPa) = 0.02188687
#
# Stress axis : x y z
#
# Youngs Moduli (GPa) = 83.20712 56.55772 67.35581
#
# Poissons Ratio (x) = 0.15929 0.25280
# Poissons Ratio (y) = 0.23435 0.32060
# Poissons Ratio (z) = 0.31230 0.26920
#
# Static dielectric constant tensor:
#      x y z
#    x 4.121230 0.000000 0.000000 
#    y 0.000000 2.848770 0.000000 
#    z 0.000000 0.000000 3.248620 
# 
# 
# High freq. dielectric constant tensor:
#      x y z
#    x 1.730050 0.000000 0.000000 
#    y 0.000000 1.642490 0.000000 
#    z 0.000000 0.000000 1.682920 
# 
# From -- ./inp_files/16800.got.cif
#   From: 2010.03.12/outbox.cif.g09.slc.cpg/sg73_9_cif.got.tgz:16800.got - 2010.04.16 15:25:48.
