data_PCOD8295680
_publ_section_title
;
Structure prediction by ZEFSAII (Michael W. Deem and Ramdas Pophale) SiO2 
 PCOD8295680
Probable space group: I B C A 
;
_chemical_formula_sum "Si O2"
_cell_formula_units_Z 96
_cell_length_a 10.073961
_cell_length_b 21.644173
_cell_length_c 19.253503
_cell_angle_alpha 90.000000
_cell_angle_beta 90.000000
_cell_angle_gamma 90.000000
_cell_volume 4198.082981
_symmetry_space_group_name_H-M "I B C A "
_symmetry_group_IT_number 73
_symmetry_cell_setting 'orthorhombic'
loop_
_space_group_symop_operation_xyz
x,y,z
-x,1/2-y,z
x,-y,1/2-z
1/2-x,y,-z
-x,-y,-z
x,1/2+y,-z
-x,y,1/2+z
1/2+x,-y,z
1/2+x,1/2+y,1/2+z
1/2-x,-y,1/2+z
1/2+x,1/2-y,-z
-x,1/2+y,1/2-z
1/2-x,1/2-y,1/2-z
1/2+x,y,1/2-z
1/2-x,1/2+y,z
x,1/2-y,1/2+z
loop_
_atom_site_type_symbol
_atom_site_label
_atom_site_fract_x
_atom_site_fract_y
_atom_site_fract_z
Si Si1 0.000000 0.250000 0.811969
Si Si2 0.198954 0.166554 0.367401
Si Si3 0.192253 0.039282 0.425181
Si Si4 0.109703 0.555657 0.114285
Si Si5 0.750000 0.636616 0.500000
Si Si6 0.136456 0.717245 0.888210
Si Si7 0.303662 0.346540 0.720366
O O1 0.951717 0.190366 0.856423
O O2 0.882515 0.281120 0.767612
O O3 0.211374 0.112693 0.422976
O O4 0.263257 0.227143 0.398373
O O5 0.257391 0.135879 0.297029
O O6 0.250000 0.017684 0.500000
O O7 0.036438 0.027601 0.405452
O O8 0.286170 0.000613 0.372507
O O9 0.159078 0.596519 0.050218
O O10 0.112252 0.597436 0.184827
O O11 0.857919 0.677922 0.458844
O O12 0.174778 0.670206 0.826062
O O13 0.000000 0.750000 0.871775
#
# Coordination Sequence:
#
# PCOD8295680 Si02
#       7
#     8  16  16  16   8  16  16
#     4  10  18  44  66  96 148 168 218 274 346 410
#     4  11  25  39  68 106 131 183 219 283 346 420
#     4  12  27  46  72  98 136 186 236 290 346 410
#     4  11  25  49  69  96 137 183 234 294 341 404
#     4  10  24  42  64  96 134 184 222 288 342 408
#     4  10  23  37  64  99 137 173 220 272 338 420
#     4  10  23  42  69  99 139 177 219 281 349 405
#
# _framework density 22.86758
#
# number of rings (size 3 to 8) (size 9 to 14) (size 15 to 20)
#    0.000    1.333    2.500    2.500    8.167    2.000 
#    3.000    1.667    0.000    0.000    0.000    0.000 
#    0.000    0.000    0.000    0.000    0.000    0.000 
#
# Total GULP energy -594658.192801 kJ/mol
# GULP energy per Si atom -12388.712350 kJ/mol
# Density = 2.281553 g / cm^3
# Si number density = 22.867580 Si / 1000 Ang^3
#
#
#
# Elastic Constant Matrix: (Units=GPa)
#
#
# Indices 1 2 3 4 5 6 
#
# 1 130.7113 31.7351 15.7262 0.0000 0.0000 0.0000
# 2 31.7351 102.8114 13.5799 0.0000 0.0000 0.0000
# 3 15.7262 13.5799 52.3279 0.0000 0.0000 0.0000
# 4 0.0000 0.0000 0.0000 23.5694 0.0000 0.0000
# 5 0.0000 0.0000 0.0000 0.0000 8.0118 0.0000
# 6 0.0000 0.0000 0.0000 0.0000 0.0000 34.5236
#
#
#
# Elastic Compliance Matrix: (Units=1/GPa)
#
#
# Indices 1 2 3 4 5 6 
#
# 1 0.008454 -0.002355 -0.001930 0.000000 0.000000 0.000000
# 2 -0.002355 0.010728 -0.002076 0.000000 0.000000 0.000000
# 3 -0.001930 -0.002076 0.020229 0.000000 0.000000 0.000000
# 4 0.000000 0.000000 0.000000 0.042428 0.000000 0.000000
# 5 0.000000 0.000000 0.000000 0.000000 0.124816 0.000000
# 6 0.000000 0.000000 0.000000 0.000000 0.000000 0.028966
#
#
# Mechanical properties :
#
#
# Convention : Reuss Voigt Hill
#
# Bulk Modulus (GPa) = 37.46793 45.32589 41.39691
# Shear Modulus (GPa) = 19.43720 28.20824 23.82272
#
# Velocity S-wave (km/s) = 2.91862 3.51600 3.23115
# Velocity P-wave (km/s) = 5.27049 6.02885 5.66238
#
# Compressibility (1/GPa) = 0.02668949
#
# Stress axis : x y z
#
# Youngs Moduli (GPa) = 118.28276 93.21708 49.43387
#
# Poissons Ratio (x) = 0.21950 0.09539
# Poissons Ratio (y) = 0.27852 0.10264
# Poissons Ratio (z) = 0.22825 0.19355
#
# Static dielectric constant tensor:
#      x y z
#    x 3.142220 0.000000 0.000000 
#    y 0.000000 4.150860 0.000000 
#    z 0.000000 0.000000 3.895300 
# 
# 
# High freq. dielectric constant tensor:
#      x y z
#    x 1.903760 0.000000 0.000000 
#    y 0.000000 1.911330 0.000000 
#    z 0.000000 0.000000 1.883350 
# 
# From -- ./inp_files/25490.got.cif
#   From: 2010.03.12/outbox.cif.g09.slc.cpg/sg73_13_cif.got.tgz:25490.got - 2010.04.16 15:25:48.
