data_PCOD8295682
_publ_section_title
;
Structure prediction by ZEFSAII (Michael W. Deem and Ramdas Pophale) SiO2 
 PCOD8295682
Probable space group: I B C A 
;
_chemical_formula_sum "Si O2"
_cell_formula_units_Z 128
_cell_length_a 23.064526
_cell_length_b 25.846663
_cell_length_c 11.410743
_cell_angle_alpha 90.000000
_cell_angle_beta 90.000000
_cell_angle_gamma 90.000000
_cell_volume 6802.412094
_symmetry_space_group_name_H-M "I B C A "
_symmetry_group_IT_number 73
_symmetry_cell_setting 'orthorhombic'
loop_
_space_group_symop_operation_xyz
x,y,z
-x,1/2-y,z
x,-y,1/2-z
1/2-x,y,-z
-x,-y,-z
x,1/2+y,-z
-x,y,1/2+z
1/2+x,-y,z
1/2+x,1/2+y,1/2+z
1/2-x,-y,1/2+z
1/2+x,1/2-y,-z
-x,1/2+y,1/2-z
1/2-x,1/2-y,1/2-z
1/2+x,y,1/2-z
1/2-x,1/2+y,z
x,1/2-y,1/2+z
loop_
_atom_site_type_symbol
_atom_site_label
_atom_site_fract_x
_atom_site_fract_y
_atom_site_fract_z
Si Si1 0.484716 0.879739 0.887889
Si Si2 0.658449 0.196731 0.523189
Si Si3 0.982936 0.306271 0.703332
Si Si4 0.605382 0.194786 0.002081
Si Si5 0.201478 0.375574 0.910684
Si Si6 0.261151 0.804803 0.695332
Si Si7 0.610342 0.059598 0.223846
Si Si8 0.570894 0.372876 0.929096
O O1 0.529294 0.850934 0.799549
O O2 0.451902 0.929613 0.836500
O O3 0.438696 0.833810 0.911025
O O4 0.519380 0.901912 0.999833
O O5 0.622835 0.249039 0.552214
O O6 0.684755 0.200561 0.392317
O O7 0.704491 0.180816 0.621150
O O8 0.614388 0.149302 0.525360
O O9 0.924585 0.302216 0.625350
O O10 0.000000 0.250000 0.755022
O O11 0.040586 0.324545 0.634772
O O12 0.664657 0.161953 0.004079
O O13 0.227734 0.345869 0.798364
O O14 0.162892 0.422412 0.859693
O O15 0.250000 0.397984 0.000000
O O16 0.250000 0.750000 0.750000
O O17 0.608148 0.089882 0.346518
O O18 0.619087 0.000000 0.250000
#
# Coordination Sequence:
#
# PCOD8295682 Si02
#       8
#    16  16  16  16  16  16  16  16
#     4   9  22  34  55  89 116 154 197 234 294 362
#     4  11  21  33  52  82 122 164 196 234 285 350
#     4  10  19  30  49  80 120 159 191 223 275 353
#     4  10  20  33  51  80 120 161 192 230 283 347
#     4  11  22  41  59  84 114 151 208 247 291 363
#     4  11  22  34  52  82 118 164 200 234 290 346
#     4  10  22  44  66  83 113 153 201 262 308 341
#     4  10  20  37  55  83 119 148 194 241 289 358
#
# _framework density 18.816855
#
# number of rings (size 3 to 8) (size 9 to 14) (size 15 to 20)
#    0.000    1.750    3.750    0.750    1.750    2.500 
#    0.000    1.250    0.000    0.000    0.000    1.750 
#    0.000    0.000    0.000    0.000    0.000    0.000 
#
# Total GULP energy -793130.792601 kJ/mol
# GULP energy per Si atom -12392.668634 kJ/mol
# Density = 1.877403 g / cm^3
# Si number density = 18.816855 Si / 1000 Ang^3
#
#
#
# Elastic Constant Matrix: (Units=GPa)
#
#
# Indices 1 2 3 4 5 6 
#
# 1 82.0831 39.7634 40.7328 0.0000 0.0000 0.0000
# 2 39.7634 95.1147 28.7991 0.0000 0.0000 0.0000
# 3 40.7328 28.7991 79.9453 0.0000 0.0000 0.0000
# 4 0.0000 0.0000 0.0000 16.4250 0.0000 0.0000
# 5 0.0000 0.0000 0.0000 0.0000 34.6479 0.0000
# 6 0.0000 0.0000 0.0000 0.0000 0.0000 15.7219
#
#
#
# Elastic Compliance Matrix: (Units=1/GPa)
#
#
# Indices 1 2 3 4 5 6 
#
# 1 0.018553 -0.005493 -0.007474 0.000000 0.000000 0.000000
# 2 -0.005493 0.013427 -0.002038 0.000000 0.000000 0.000000
# 3 -0.007474 -0.002038 0.017051 0.000000 0.000000 0.000000
# 4 0.000000 0.000000 0.000000 0.060883 0.000000 0.000000
# 5 0.000000 0.000000 0.000000 0.000000 0.028862 0.000000
# 6 0.000000 0.000000 0.000000 0.000000 0.000000 0.063606
#
#
# Mechanical properties :
#
#
# Convention : Reuss Voigt Hill
#
# Bulk Modulus (GPa) = 52.57551 52.85928 52.71739
# Shear Modulus (GPa) = 20.94405 23.21547 22.07976
#
# Velocity S-wave (km/s) = 3.33986 3.51630 3.42921
# Velocity P-wave (km/s) = 6.54784 6.68119 6.61485
#
# Compressibility (1/GPa) = 0.01902026
#
# Stress axis : x y z
#
# Youngs Moduli (GPa) = 53.90071 74.47592 58.64826
#
# Poissons Ratio (x) = 0.40910 0.43833
# Poissons Ratio (y) = 0.29608 0.11953
# Poissons Ratio (z) = 0.40285 0.15179
#
# Static dielectric constant tensor:
#      x y z
#    x 3.870100 0.000000 0.000000 
#    y 0.000000 3.204860 0.000000 
#    z 0.000000 0.000000 3.738130 
# 
# 
# High freq. dielectric constant tensor:
#      x y z
#    x 1.741720 0.000000 0.000000 
#    y 0.000000 1.684690 0.000000 
#    z 0.000000 0.000000 1.738920 
# 
# From -- ./inp_files/13921.got.cif
#   From: 2010.03.12/outbox.cif.g09.slc.cpg/sg73_7_cif.got.tgz:13921.got - 2010.04.16 15:25:48.
