data_PCOD8295277
_publ_section_title
;
Structure prediction by ZEFSAII (Michael W. Deem and Ramdas Pophale) SiO2 
 PCOD8295277
Probable space group: I B A M
;
_chemical_formula_sum "Si O2"
_cell_formula_units_Z 116
_cell_length_a 10.233638
_cell_length_b 34.244390
_cell_length_c 17.445057
_cell_angle_alpha 90.000000
_cell_angle_beta 90.000000
_cell_angle_gamma 90.000000
_cell_volume 6113.527606
_symmetry_space_group_name_H-M "I B A M"
_symmetry_group_IT_number 72
_symmetry_cell_setting 'orthorhombic'
loop_
_space_group_symop_operation_xyz
x,y,z
-x,-y,z
x,-y,1/2-z
-x,y,1/2-z
-x,-y,-z
x,y,-z
-x,y,1/2+z
x,-y,1/2+z
1/2+x,1/2+y,1/2+z
1/2-x,1/2-y,1/2+z
1/2+x,1/2-y,-z
1/2-x,1/2+y,-z
1/2-x,1/2-y,1/2-z
1/2+x,1/2+y,1/2-z
1/2-x,1/2+y,z
1/2+x,1/2-y,z
loop_
_atom_site_type_symbol
_atom_site_label
_atom_site_fract_x
_atom_site_fract_y
_atom_site_fract_z
Si Si1 0.514171 0.720857 0.590518
Si Si2 0.809672 0.559662 0.673920
Si Si3 0.346493 0.498433 0.084551
Si Si4 0.694976 0.781791 0.091854
Si Si5 0.000000 0.500000 0.750000
Si Si6 0.806404 0.368218 0.913297
Si Si7 0.498184 0.367453 0.087247
Si Si8 0.119964 0.931153 0.197157
O O1 0.517007 0.726003 0.500000
O O2 0.410585 0.751492 0.626121
O O3 0.660012 0.729307 0.622707
O O4 0.467914 0.677164 0.610897
O O5 0.705067 0.539489 0.617047
O O6 0.915514 0.527284 0.694810
O O7 0.877652 0.596722 0.632293
O O8 0.738729 0.579111 0.746795
O O9 0.500000 0.500000 0.075238
O O10 0.315886 0.464149 0.143842
O O11 0.284531 0.490760 0.000000
O O12 0.657531 0.825489 0.120106
O O13 0.698488 0.781647 0.000000
O O14 0.651490 0.375401 0.906798
O O15 0.855179 0.370802 0.000000
O O16 0.420074 0.393997 0.146911
O O17 0.450995 0.376044 0.000000
O O18 0.000000 0.946717 0.250000
#
# Coordination Sequence:
#
# PCOD8295277 Si02
#       8
#    16  16  16  16   4  16  16  16
#     4   8  14  26  46  74 109 145 179 219 271 323
#     4  12  23  39  57  74 104 146 190 222 273 331
#     4  11  21  34  57  87 110 128 165 231 291 329
#     4   8  14  26  48  78 109 140 177 223 272 324
#     4  12  28  44  56  68 104 160 198 226 256 332
#     4   9  17  32  55  83 109 137 178 227 275 329
#     4   9  17  30  51  85 118 138 166 223 286 328
#     4  12  20  32  56  84 107 134 174 225 280 343
#
# _framework density 18.974314
#
# number of rings (size 3 to 8) (size 9 to 14) (size 15 to 20)
#    0.000    2.069    4.138    2.483    0.000    2.207 
#    0.000    2.759    0.000    2.483    1.793    0.000 
#    0.000    0.000    0.000    0.000    0.000    0.000 
#
# Total GULP energy -718875.063137 kJ/mol
# GULP energy per Si atom -12394.397640 kJ/mol
# Density = 1.893113 g / cm^3
# Si number density = 18.974314 Si / 1000 Ang^3
#
#
#
# Elastic Constant Matrix: (Units=GPa)
#
#
# Indices 1 2 3 4 5 6 
#
# 1 51.1510 39.9612 21.9650 0.0001 0.0000 0.0000
# 2 39.9612 140.9747 47.3690 0.0002 0.0000 0.0000
# 3 21.9650 47.3690 77.2220 -0.0005 0.0004 -0.0001
# 4 0.0001 0.0002 -0.0005 21.8119 0.0001 0.0000
# 5 0.0000 0.0000 0.0004 0.0001 -0.2324 0.0000
# 6 0.0000 0.0000 -0.0001 0.0000 0.0000 27.6424
#
#
#
# Elastic Compliance Matrix: (Units=1/GPa)
#
#
# Indices 1 2 3 4 5 6 
#
# 1 0.025884 -0.006126 -0.003605 0.000000 -0.000009 0.000000
# 2 -0.006126 0.010385 -0.004628 0.000000 -0.000009 0.000000
# 3 -0.003605 -0.004628 0.016814 0.000000 0.000030 0.000000
# 4 0.000000 0.000000 0.000000 0.045846 0.000018 0.000000
# 5 -0.000009 -0.000009 0.000030 0.000018 -4.302454 0.000007
# 6 0.000000 0.000000 0.000000 0.000000 0.000007 0.036176
#
#
# Mechanical properties :
#
#
# Convention : Reuss Voigt Hill
#
# Bulk Modulus (GPa) = 41.04136 54.21535 47.62836
# Shear Modulus (GPa) = -1.21050 20.51454 9.65202
#
# Velocity S-wave (km/s) = -0.79960 3.29169 2.25786
# Velocity P-wave (km/s) = 4.56338 6.56369 5.65272
#
# Compressibility (1/GPa) = 0.02436566
#
# Stress axis : x y z
#
# Youngs Moduli (GPa) = 38.63442 96.29332 59.47519
#
# Poissons Ratio (x) = 0.58988 0.21439
# Poissons Ratio (y) = 0.23667 0.27524
# Poissons Ratio (z) = 0.13926 0.44563
#
# Static dielectric constant tensor:
#      x y z
#    x 3.344220 0.000000 0.000000 
#    y 0.000000 3.724470 0.000000 
#    z 0.000000 0.000000 3.518590 
# 
# 
# High freq. dielectric constant tensor:
#      x y z
#    x 1.699400 0.000000 0.000000 
#    y 0.000000 1.747160 0.000000 
#    z 0.000000 0.000000 1.717850 
# 
# From -- ./inp_files/29799.got.cif
#   From: 2010.03.12/outbox.cif.g09.slc.cpg/sg72_15_cif.got.tgz:29799.got - 2010.04.16 14:54:00.
