data_PCOD8295192
_publ_section_title
;
Structure prediction by ZEFSAII (Michael W. Deem and Ramdas Pophale) SiO2 
 PCOD8295192
Probable space group: I B A M
;
_chemical_formula_sum "Si O2"
_cell_formula_units_Z 104
_cell_length_a 9.346150
_cell_length_b 25.355156
_cell_length_c 20.750943
_cell_angle_alpha 90.000000
_cell_angle_beta 90.000000
_cell_angle_gamma 90.000000
_cell_volume 4917.415109
_symmetry_space_group_name_H-M "I B A M"
_symmetry_group_IT_number 72
_symmetry_cell_setting 'orthorhombic'
loop_
_space_group_symop_operation_xyz
x,y,z
-x,-y,z
x,-y,1/2-z
-x,y,1/2-z
-x,-y,-z
x,y,-z
-x,y,1/2+z
x,-y,1/2+z
1/2+x,1/2+y,1/2+z
1/2-x,1/2-y,1/2+z
1/2+x,1/2-y,-z
1/2-x,1/2+y,-z
1/2-x,1/2-y,1/2-z
1/2+x,1/2+y,1/2-z
1/2-x,1/2+y,z
1/2+x,1/2-y,z
loop_
_atom_site_type_symbol
_atom_site_label
_atom_site_fract_x
_atom_site_fract_y
_atom_site_fract_z
Si Si1 0.384402 0.232260 0.345205
Si Si2 0.170907 0.389403 0.620088
Si Si3 0.904562 0.451220 0.358936
Si Si4 0.850654 0.720380 0.572578
Si Si5 0.791470 0.633988 0.767210
Si Si6 0.500000 0.318631 0.750000
Si Si7 0.161134 0.014020 0.924154
O O1 0.230585 0.242400 0.376855
O O2 0.485605 0.220771 0.405531
O O3 0.378680 0.182502 0.297940
O O4 0.431044 0.283578 0.305898
O O5 0.205754 0.339852 0.574471
O O6 0.165060 0.368996 0.693092
O O7 0.297213 0.431668 0.611130
O O8 0.015048 0.413722 0.601797
O O9 0.835213 0.421348 0.298608
O O10 0.774369 0.468603 0.405104
O O11 0.000000 0.500000 0.332784
O O12 0.836718 0.742140 0.500000
O O13 0.622912 0.643491 0.778014
O O14 0.169553 0.022614 0.000000
O O15 0.000000 0.000000 0.902168
#
# Coordination Sequence:
#
# PCOD8295192 Si02
#       7
#    16  16  16  16  16   8  16
#     4  12  24  44  67 101 136 182 225 279 339 402
#     4  11  23  41  69  97 129 174 225 280 337 396
#     4  10  24  42  68  99 129 169 224 282 337 396
#     4  12  25  43  65  97 139 182 228 275 330 406
#     4  12  24  41  69 101 138 172 221 283 344 406
#     4  12  24  40  72 103 137 178 222 282 344 404
#     4  10  24  46  67  93 134 177 222 275 339 411
#
# _framework density 21.149322000000002
#
# number of rings (size 3 to 8) (size 9 to 14) (size 15 to 20)
#    0.000    0.769    4.615    2.769    2.154    7.692 
#    0.000    0.769    0.000    0.000    0.000    0.000 
#    0.000    0.000    0.000    0.000    0.000    0.000 
#
# Total GULP energy -644940.660726 kJ/mol
# GULP energy per Si atom -12402.705014 kJ/mol
# Density = 2.110119 g / cm^3
# Si number density = 21.149322 Si / 1000 Ang^3
#
#
#
# Elastic Constant Matrix: (Units=GPa)
#
#
# Indices 1 2 3 4 5 6 
#
# 1 134.1476 44.2845 40.7599 0.0000 0.0000 0.0000
# 2 44.2845 98.9986 36.6955 0.0000 0.0000 0.0000
# 3 40.7599 36.6955 104.0363 -0.0001 0.0000 0.0000
# 4 0.0000 0.0000 -0.0001 24.8764 0.0000 0.0000
# 5 0.0000 0.0000 0.0000 0.0000 37.4837 0.0000
# 6 0.0000 0.0000 0.0000 0.0000 0.0000 33.9855
#
#
#
# Elastic Compliance Matrix: (Units=1/GPa)
#
#
# Indices 1 2 3 4 5 6 
#
# 1 0.009278 -0.003224 -0.002498 0.000000 0.000000 0.000000
# 2 -0.003224 0.012741 -0.003231 0.000000 0.000000 0.000000
# 3 -0.002498 -0.003231 0.011730 0.000000 0.000000 0.000000
# 4 0.000000 0.000000 0.000000 0.040199 0.000000 0.000000
# 5 0.000000 0.000000 0.000000 0.000000 0.026678 0.000000
# 6 0.000000 0.000000 0.000000 0.000000 0.000000 0.029424
#
#
# Mechanical properties :
#
#
# Convention : Reuss Voigt Hill
#
# Bulk Modulus (GPa) = 63.11754 64.51806 63.81780
# Shear Modulus (GPa) = 32.62922 33.63194 33.13058
#
# Velocity S-wave (km/s) = 3.93211 3.99207 3.96221
# Velocity P-wave (km/s) = 7.10802 7.19869 7.15349
#
# Compressibility (1/GPa) = 0.01584346
#
# Stress axis : x y z
#
# Youngs Moduli (GPa) = 107.78431 78.48656 85.25090
#
# Poissons Ratio (x) = 0.25307 0.21292
# Poissons Ratio (y) = 0.34754 0.27542
# Poissons Ratio (z) = 0.26920 0.25357
#
# Static dielectric constant tensor:
#      x y z
#    x 4.107510 0.000000 0.000000 
#    y 0.000000 3.986590 0.000000 
#    z 0.000000 0.000000 3.598090 
# 
# 
# High freq. dielectric constant tensor:
#      x y z
#    x 1.843840 0.000000 0.000000 
#    y 0.000000 1.832340 0.000000 
#    z 0.000000 0.000000 1.816260 
# 
# From -- ./inp_files/36128.got.cif
#   From: 2010.03.12/outbox.cif.g09.slc.cpg/sg72_19_cif.got.tgz:36128.got - 2010.04.16 14:54:00.
