data_PCOD8295769
_publ_section_title
;
Structure prediction by ZEFSAII (Michael W. Deem and Ramdas Pophale) SiO2 
 PCOD8295769
Probable space group: I B C A 
;
_chemical_formula_sum "Si O2"
_cell_formula_units_Z 96
_cell_length_a 9.360834
_cell_length_b 25.525742
_cell_length_c 17.567180
_cell_angle_alpha 90.000000
_cell_angle_beta 90.000000
_cell_angle_gamma 90.000000
_cell_volume 4197.541227
_symmetry_space_group_name_H-M "I B C A "
_symmetry_group_IT_number 73
_symmetry_cell_setting 'orthorhombic'
loop_
_space_group_symop_operation_xyz
x,y,z
-x,1/2-y,z
x,-y,1/2-z
1/2-x,y,-z
-x,-y,-z
x,1/2+y,-z
-x,y,1/2+z
1/2+x,-y,z
1/2+x,1/2+y,1/2+z
1/2-x,-y,1/2+z
1/2+x,1/2-y,-z
-x,1/2+y,1/2-z
1/2-x,1/2-y,1/2-z
1/2+x,y,1/2-z
1/2-x,1/2+y,z
x,1/2-y,1/2+z
loop_
_atom_site_type_symbol
_atom_site_label
_atom_site_fract_x
_atom_site_fract_y
_atom_site_fract_z
Si Si1 0.614834 0.473335 0.171566
Si Si2 0.603218 0.443074 0.884430
Si Si3 0.986474 0.623751 0.250003
Si Si4 0.412452 0.797782 0.138710
Si Si5 0.417627 0.149812 0.990360
Si Si6 0.909616 0.302576 0.375963
O O1 0.668846 0.500000 0.250000
O O2 0.739847 0.467672 0.109584
O O3 0.505370 0.509902 0.127226
O O4 0.553939 0.416273 0.190014
O O5 0.615198 0.406843 0.808760
O O6 0.563469 0.409828 0.959522
O O7 0.899646 0.667632 0.204335
O O8 0.103774 0.654215 0.301646
O O9 0.500000 0.750000 0.178722
O O10 0.518612 0.809877 0.069553
O O11 0.254192 0.786503 0.104855
O O12 0.250000 0.162647 0.000000
O O13 0.512503 0.157438 0.065897
O O14 0.000000 0.250000 0.370458
#
# Coordination Sequence:
#
# PCOD8295769 Si02
#       6
#    16  16  16  16  16  16
#     4  10  19  37  65  97 128 163 207 259 320 376
#     4  10  22  40  65  94 127 165 210 262 315 379
#     4  10  22  39  67  98 128 167 212 259 310 377
#     4  11  24  42  65  96 131 169 216 263 314 380
#     4  11  24  44  65  89 127 173 217 265 320 378
#     4  12  25  42  67  96 130 171 214 264 321 378
#
# _framework density 22.870531
#
# number of rings (size 3 to 8) (size 9 to 14) (size 15 to 20)
#    0.000    1.333    0.000    6.000    0.000    8.000 
#    0.000    5.000    0.000    6.000    0.000    0.000 
#    0.000    0.000    0.000    0.000    0.000    0.000 
#
# Total GULP energy -594969.499468 kJ/mol
# GULP energy per Si atom -12395.197906 kJ/mol
# Density = 2.281848 g / cm^3
# Si number density = 22.870531 Si / 1000 Ang^3
#
#
#
# Elastic Constant Matrix: (Units=GPa)
#
#
# Indices 1 2 3 4 5 6 
#
# 1 185.7208 73.9169 48.0932 -0.0001 0.0000 0.0000
# 2 73.9169 133.4204 51.5096 -0.0001 0.0000 0.0000
# 3 48.0932 51.5096 71.1269 -0.0007 0.0001 0.0000
# 4 -0.0001 -0.0001 -0.0007 31.6707 0.0001 0.0000
# 5 0.0000 0.0000 0.0001 0.0001 27.1251 0.0000
# 6 0.0000 0.0000 0.0000 0.0000 0.0000 21.8241
#
#
#
# Elastic Compliance Matrix: (Units=1/GPa)
#
#
# Indices 1 2 3 4 5 6 
#
# 1 0.007283 -0.002962 -0.002780 0.000000 0.000000 0.000000
# 2 -0.002962 0.011608 -0.006404 0.000000 0.000000 0.000000
# 3 -0.002780 -0.006404 0.020577 0.000000 0.000000 0.000000
# 4 0.000000 0.000000 0.000000 0.031575 0.000000 0.000000
# 5 0.000000 0.000000 0.000000 0.000000 0.036866 0.000000
# 6 0.000000 0.000000 0.000000 0.000000 0.000000 0.045821
#
#
# Mechanical properties :
#
#
# Convention : Reuss Voigt Hill
#
# Bulk Modulus (GPa) = 65.88860 81.92305 73.90582
# Shear Modulus (GPa) = 27.31047 30.57387 28.94217
#
# Velocity S-wave (km/s) = 3.45937 3.66023 3.56122
# Velocity P-wave (km/s) = 6.69539 7.33220 7.02102
#
# Compressibility (1/GPa) = 0.01517713
#
# Stress axis : x y z
#
# Youngs Moduli (GPa) = 137.30604 86.14451 48.59884
#
# Poissons Ratio (x) = 0.25514 0.13508
# Poissons Ratio (y) = 0.40667 0.31123
# Poissons Ratio (z) = 0.38165 0.55168
#
# Static dielectric constant tensor:
#      x y z
#    x 4.019530 0.000000 0.000000 
#    y 0.000000 4.262010 0.000000 
#    z 0.000000 0.000000 4.009450 
# 
# 
# High freq. dielectric constant tensor:
#      x y z
#    x 1.899810 0.000000 0.000000 
#    y 0.000000 1.915700 0.000000 
#    z 0.000000 0.000000 1.893470 
# 
# From -- ./inp_files/24880.got.cif
#   From: 2010.03.12/outbox.cif.g09.slc.cpg/sg73_13_cif.got.tgz:24880.got - 2010.04.16 15:25:48.
