data_PCOD8295912
_publ_section_title
;
Structure prediction by ZEFSAII (Michael W. Deem and Ramdas Pophale) SiO2 
 PCOD8295912
Probable space group: I B C A 
;
_chemical_formula_sum "Si O2"
_cell_formula_units_Z 72
_cell_length_a 16.257335
_cell_length_b 10.299854
_cell_length_c 21.175045
_cell_angle_alpha 90.000000
_cell_angle_beta 90.000000
_cell_angle_gamma 90.000000
_cell_volume 3545.722682
_symmetry_space_group_name_H-M "I B C A "
_symmetry_group_IT_number 73
_symmetry_cell_setting 'orthorhombic'
loop_
_space_group_symop_operation_xyz
x,y,z
-x,1/2-y,z
x,-y,1/2-z
1/2-x,y,-z
-x,-y,-z
x,1/2+y,-z
-x,y,1/2+z
1/2+x,-y,z
1/2+x,1/2+y,1/2+z
1/2-x,-y,1/2+z
1/2+x,1/2-y,-z
-x,1/2+y,1/2-z
1/2-x,1/2-y,1/2-z
1/2+x,y,1/2-z
1/2-x,1/2+y,z
x,1/2-y,1/2+z
loop_
_atom_site_type_symbol
_atom_site_label
_atom_site_fract_x
_atom_site_fract_y
_atom_site_fract_z
Si Si1 0.835236 0.992931 0.601730
Si Si2 0.587620 0.304322 0.508275
Si Si3 0.750000 0.367570 0.000000
Si Si4 0.233034 0.874078 0.792315
Si Si5 0.910878 0.263641 0.634050
O O1 0.899165 0.929664 0.552277
O O2 0.804126 0.891147 0.654522
O O3 0.757347 0.041831 0.561401
O O4 0.875321 0.118437 0.633228
O O5 0.500000 0.250000 0.532468
O O6 0.667772 0.213318 0.514766
O O7 0.579767 0.334210 0.433924
O O8 0.250000 0.750000 0.750000
O O9 0.144833 0.857547 0.824426
O O10 0.229261 0.000000 0.750000
O O11 0.000000 0.250000 0.666272
#
# Coordination Sequence:
#
# PCOD8295912 Si02
#       5
#    16  16   8  16  16
#     4  11  21  40  66  94 134 166 222 268 331 402
#     4  10  22  38  65 104 134 167 213 275 347 407
#     4  10  20  36  66  96 134 172 208 268 352 392
#     4  12  25  46  68  90 126 178 230 269 319 389
#     4  10  23  43  64  97 132 167 213 279 333 392
#
# _framework density 20.306156000000001
#
# number of rings (size 3 to 8) (size 9 to 14) (size 15 to 20)
#    0.000    1.333    2.222    4.667    0.000    9.778 
#    4.000    0.000    0.000    0.000    0.000    0.000 
#    0.000    0.000    0.000    0.000    0.000    0.000 
#
# Total GULP energy -446247.466920 kJ/mol
# GULP energy per Si atom -12395.762970 kJ/mol
# Density = 2.025994 g / cm^3
# Si number density = 20.306156 Si / 1000 Ang^3
#
#
#
# Elastic Constant Matrix: (Units=GPa)
#
#
# Indices 1 2 3 4 5 6 
#
# 1 139.0851 34.9917 39.3991 0.0000 0.0000 0.0000
# 2 34.9917 99.5121 44.8724 0.0000 0.0000 0.0000
# 3 39.3991 44.8724 80.8497 0.0000 0.0000 0.0000
# 4 0.0000 0.0000 0.0000 47.8051 0.0000 0.0000
# 5 0.0000 0.0000 0.0000 0.0000 26.0983 0.0000
# 6 0.0000 0.0000 0.0000 0.0000 0.0000 8.1611
#
#
#
# Elastic Compliance Matrix: (Units=1/GPa)
#
#
# Indices 1 2 3 4 5 6 
#
# 1 0.008505 -0.001496 -0.003314 0.000000 0.000000 0.000000
# 2 -0.001496 0.013667 -0.006856 0.000000 0.000000 0.000000
# 3 -0.003314 -0.006856 0.017789 0.000000 0.000000 0.000000
# 4 0.000000 0.000000 0.000000 0.020918 0.000000 0.000000
# 5 0.000000 0.000000 0.000000 0.000000 0.038317 0.000000
# 6 0.000000 0.000000 0.000000 0.000000 0.000000 0.122533
#
#
# Mechanical properties :
#
#
# Convention : Reuss Voigt Hill
#
# Bulk Modulus (GPa) = 60.14054 61.99702 61.06878
# Shear Modulus (GPa) = 19.95179 29.75847 24.85513
#
# Velocity S-wave (km/s) = 3.13796 3.83233 3.50239
# Velocity P-wave (km/s) = 6.54296 7.08376 6.81872
#
# Compressibility (1/GPa) = 0.01662772
#
# Stress axis : x y z
#
# Youngs Moduli (GPa) = 117.57653 73.17056 56.21488
#
# Poissons Ratio (x) = 0.10948 0.18631
# Poissons Ratio (y) = 0.17592 0.38541
# Poissons Ratio (z) = 0.38968 0.50166
#
# Static dielectric constant tensor:
#      x y z
#    x 3.890740 0.000000 0.000000 
#    y 0.000000 3.585350 0.000000 
#    z 0.000000 0.000000 3.849260 
# 
# 
# High freq. dielectric constant tensor:
#      x y z
#    x 1.800200 0.000000 0.000000 
#    y 0.000000 1.794220 0.000000 
#    z 0.000000 0.000000 1.787350 
# 
# From -- ./inp_files/6023.got.cif
#   From: 2010.03.12/outbox.cif.g09.slc.cpg/sg73_4_cif.got.tgz:6023.got - 2010.04.16 15:25:48.
