data_PCOD8295565
_publ_section_title
;
Structure prediction by ZEFSAII (Michael W. Deem and Ramdas Pophale) SiO2 
 PCOD8295565
Probable space group: I B C A 
;
_chemical_formula_sum "Si O2"
_cell_formula_units_Z 120
_cell_length_a 17.286580
_cell_length_b 25.366468
_cell_length_c 12.880508
_cell_angle_alpha 90.000000
_cell_angle_beta 90.000000
_cell_angle_gamma 90.000000
_cell_volume 5648.096040
_symmetry_space_group_name_H-M "I B C A "
_symmetry_group_IT_number 73
_symmetry_cell_setting 'orthorhombic'
loop_
_space_group_symop_operation_xyz
x,y,z
-x,1/2-y,z
x,-y,1/2-z
1/2-x,y,-z
-x,-y,-z
x,1/2+y,-z
-x,y,1/2+z
1/2+x,-y,z
1/2+x,1/2+y,1/2+z
1/2-x,-y,1/2+z
1/2+x,1/2-y,-z
-x,1/2+y,1/2-z
1/2-x,1/2-y,1/2-z
1/2+x,y,1/2-z
1/2-x,1/2+y,z
x,1/2-y,1/2+z
loop_
_atom_site_type_symbol
_atom_site_label
_atom_site_fract_x
_atom_site_fract_y
_atom_site_fract_z
Si Si1 0.571430 0.403163 0.804422
Si Si2 0.951156 0.547007 0.951114
Si Si3 0.172446 0.500000 0.750000
Si Si4 0.713052 0.457695 0.394386
Si Si5 0.836258 0.778411 0.456651
Si Si6 0.265516 0.647022 0.693747
Si Si7 0.600593 0.858634 0.400936
Si Si8 0.691042 0.335578 0.909192
O O1 0.494123 0.426623 0.853024
O O2 0.619694 0.448547 0.746080
O O3 0.555813 0.360100 0.711363
O O4 0.624284 0.379275 0.896277
O O5 0.872368 0.518892 0.913587
O O6 0.931451 0.592826 0.032419
O O7 0.000000 0.500000 0.000000
O O8 0.228218 0.498156 0.649173
O O9 0.750000 0.435070 0.500000
O O10 0.699570 0.411876 0.307552
O O11 0.750000 0.775184 0.500000
O O12 0.830424 0.813946 0.352872
O O13 0.902692 0.803447 0.533118
O O14 0.857203 0.718202 0.429659
O O15 0.191649 0.638557 0.619830
O O16 0.243045 0.669059 0.805948
O O17 0.750000 0.351682 0.000000
#
# Coordination Sequence:
#
# PCOD8295565 Si02
#       8
#    16  16   8  16  16  16  16  16
#     4  11  24  42  62  93 137 173 213 274 346 409
#     4  12  25  40  63  95 130 177 221 282 340 402
#     4  12  24  40  64  94 128 174 218 274 328 404
#     4  12  21  41  66  92 121 176 233 273 329 410
#     4   9  17  33  68  99 119 160 220 274 324 390
#     4  10  17  36  67  92 122 163 224 272 319 395
#     4  10  19  40  65  86 123 172 218 267 321 408
#     4  10  21  37  60 100 137 164 209 284 346 391
#
# _framework density 21.246098
#
# number of rings (size 3 to 8) (size 9 to 14) (size 15 to 20)
#    0.000    1.333    5.333    2.400    0.000    4.267 
#    2.400    0.667    0.000    3.200    0.000    0.000 
#    0.000    0.000    0.000    0.000    0.000    0.000 
#
# Total GULP energy -743343.343315 kJ/mol
# GULP energy per Si atom -12389.055722 kJ/mol
# Density = 2.119774 g / cm^3
# Si number density = 21.246098 Si / 1000 Ang^3
#
#
#
# Elastic Constant Matrix: (Units=GPa)
#
#
# Indices 1 2 3 4 5 6 
#
# 1 90.9139 26.4760 46.4711 0.0000 0.0000 0.0000
# 2 26.4760 84.0124 36.2853 -0.0001 0.0000 0.0000
# 3 46.4711 36.2853 120.5463 -0.0002 -0.0002 -0.0001
# 4 0.0000 -0.0001 -0.0002 33.0039 -0.0001 -0.0001
# 5 0.0000 0.0000 -0.0002 -0.0001 35.0433 0.0000
# 6 0.0000 0.0000 -0.0001 -0.0001 0.0000 30.7598
#
#
#
# Elastic Compliance Matrix: (Units=1/GPa)
#
#
# Indices 1 2 3 4 5 6 
#
# 1 0.014111 -0.002411 -0.004714 0.000000 0.000000 0.000000
# 2 -0.002411 0.014094 -0.003313 0.000000 0.000000 0.000000
# 3 -0.004714 -0.003313 0.011110 0.000000 0.000000 0.000000
# 4 0.000000 0.000000 0.000000 0.030299 0.000000 0.000000
# 5 0.000000 0.000000 0.000000 0.000000 0.028536 0.000000
# 6 0.000000 0.000000 0.000000 0.000000 0.000000 0.032510
#
#
# Mechanical properties :
#
#
# Convention : Reuss Voigt Hill
#
# Bulk Modulus (GPa) = 54.23316 57.10416 55.66866
# Shear Modulus (GPa) = 31.70922 32.17743 31.94332
#
# Velocity S-wave (km/s) = 3.86744 3.89589 3.88169
# Velocity P-wave (km/s) = 6.74718 6.86827 6.80799
#
# Compressibility (1/GPa) = 0.01843890
#
# Stress axis : x y z
#
# Youngs Moduli (GPa) = 70.86544 70.95402 90.00807
#
# Poissons Ratio (x) = 0.17107 0.42432
# Poissons Ratio (y) = 0.17085 0.29818
# Poissons Ratio (z) = 0.33408 0.23506
#
# Static dielectric constant tensor:
#      x y z
#    x 3.638410 0.000000 0.000000 
#    y 0.000000 4.072930 0.000000 
#    z 0.000000 0.000000 4.032920 
# 
# 
# High freq. dielectric constant tensor:
#      x y z
#    x 1.800590 0.000000 0.000000 
#    y 0.000000 1.825930 0.000000 
#    z 0.000000 0.000000 1.838170 
# 
# From -- ./inp_files/18321.got.cif
#   From: 2010.03.12/outbox.cif.g09.slc.cpg/sg73_10_cif.got.tgz:18321.got - 2010.04.16 15:25:48.
