data_PCOD8295533
_publ_section_title
;
Structure prediction by ZEFSAII (Michael W. Deem and Ramdas Pophale) SiO2 
 PCOD8295533
Probable space group: I B C A 
;
_chemical_formula_sum "Si O2"
_cell_formula_units_Z 104
_cell_length_a 20.827741
_cell_length_b 16.795512
_cell_length_c 15.779763
_cell_angle_alpha 90.000000
_cell_angle_beta 90.000000
_cell_angle_gamma 90.000000
_cell_volume 5519.959511
_symmetry_space_group_name_H-M "I B C A "
_symmetry_group_IT_number 73
_symmetry_cell_setting 'orthorhombic'
loop_
_space_group_symop_operation_xyz
x,y,z
-x,1/2-y,z
x,-y,1/2-z
1/2-x,y,-z
-x,-y,-z
x,1/2+y,-z
-x,y,1/2+z
1/2+x,-y,z
1/2+x,1/2+y,1/2+z
1/2-x,-y,1/2+z
1/2+x,1/2-y,-z
-x,1/2+y,1/2-z
1/2-x,1/2-y,1/2-z
1/2+x,y,1/2-z
1/2-x,1/2+y,z
x,1/2-y,1/2+z
loop_
_atom_site_type_symbol
_atom_site_label
_atom_site_fract_x
_atom_site_fract_y
_atom_site_fract_z
Si Si1 0.406450 0.511521 0.572104
Si Si2 0.208435 0.694562 0.806620
Si Si3 0.683841 0.577322 0.302908
Si Si4 0.000000 0.750000 0.285266
Si Si5 0.053113 0.486454 0.614976
Si Si6 0.877448 0.828961 0.349675
Si Si7 0.411908 0.377746 0.238645
O O1 0.361120 0.448687 0.619384
O O2 0.412468 0.484180 0.475499
O O3 0.476441 0.508307 0.614171
O O4 0.376733 0.601115 0.579475
O O5 0.250000 0.750000 0.750000
O O6 0.255178 0.625193 0.844000
O O7 0.169881 0.753397 0.872541
O O8 0.160258 0.653137 0.740723
O O9 0.707976 0.500000 0.250000
O O10 0.642683 0.633880 0.240983
O O11 0.050055 0.703319 0.345176
O O12 0.038103 0.807239 0.221217
O O13 0.072589 0.408672 0.666552
O O14 0.082129 0.561108 0.663463
#
# Coordination Sequence:
#
# PCOD8295533 Si02
#       7
#    16  16  16   8  16  16  16
#     4  10  19  35  56  84 116 143 178 234 286 331
#     4   9  19  35  58  80 107 147 190 227 264 337
#     4   9  18  31  57  81 107 146 188 222 272 330
#     4  10  16  30  56  80 104 142 178 222 278 332
#     4  10  21  34  57  86 114 139 186 234 284 331
#     4   9  17  31  55  81 110 142 179 223 275 331
#     4  10  20  34  59  80 111 144 190 228 277 333
#
# _framework density 18.840717999999999
#
# number of rings (size 3 to 8) (size 9 to 14) (size 15 to 20)
#    0.000    2.462    1.538    0.923    6.462    0.000 
#    0.000    1.538   23.692    0.000    0.000    0.000 
#    0.000    0.000    0.000    0.000    0.000    0.000 
#
# Total GULP energy -644339.078139 kJ/mol
# GULP energy per Si atom -12391.136118 kJ/mol
# Density = 1.879784 g / cm^3
# Si number density = 18.840718 Si / 1000 Ang^3
#
#
#
# Elastic Constant Matrix: (Units=GPa)
#
#
# Indices 1 2 3 4 5 6 
#
# 1 128.1327 61.8828 37.2675 0.0000 0.0000 0.0000
# 2 61.8828 108.3673 33.6009 0.0000 0.0000 0.0000
# 3 37.2675 33.6009 68.1041 0.0000 0.0000 0.0000
# 4 0.0000 0.0000 0.0000 9.5831 0.0000 0.0000
# 5 0.0000 0.0000 0.0000 0.0000 19.5197 0.0000
# 6 0.0000 0.0000 0.0000 0.0000 0.0000 48.3480
#
#
#
# Elastic Compliance Matrix: (Units=1/GPa)
#
#
# Indices 1 2 3 4 5 6 
#
# 1 0.011477 -0.005439 -0.003597 0.000000 0.000000 0.000000
# 2 -0.005439 0.013472 -0.003670 0.000000 0.000000 0.000000
# 3 -0.003597 -0.003670 0.018463 0.000000 0.000000 0.000000
# 4 0.000000 0.000000 0.000000 0.104350 0.000000 0.000000
# 5 0.000000 0.000000 0.000000 0.000000 0.051230 0.000000
# 6 0.000000 0.000000 0.000000 0.000000 0.000000 0.020683
#
#
# Mechanical properties :
#
#
# Convention : Reuss Voigt Hill
#
# Bulk Modulus (GPa) = 55.55870 63.34520 59.45195
# Shear Modulus (GPa) = 19.91333 26.94703 23.43018
#
# Velocity S-wave (km/s) = 3.25457 3.78597 3.53029
# Velocity P-wave (km/s) = 6.60876 7.26677 6.94556
#
# Compressibility (1/GPa) = 0.01799898
#
# Stress axis : x y z
#
# Youngs Moduli (GPa) = 87.12814 74.22948 54.16304
#
# Poissons Ratio (x) = 0.40371 0.19484
# Poissons Ratio (y) = 0.47387 0.19880
# Poissons Ratio (z) = 0.31342 0.27246
#
# Static dielectric constant tensor:
#      x y z
#    x 3.855540 0.000000 0.000000 
#    y 0.000000 4.159410 0.000000 
#    z 0.000000 0.000000 2.946760 
# 
# 
# High freq. dielectric constant tensor:
#      x y z
#    x 1.746590 0.000000 0.000000 
#    y 0.000000 1.756300 0.000000 
#    z 0.000000 0.000000 1.674520 
# 
# From -- ./inp_files/18790.got.cif
#   From: 2010.03.12/outbox.cif.g09.slc.cpg/sg73_10_cif.got.tgz:18790.got - 2010.04.16 15:25:48.
