data_PCOD8295798
_publ_section_title
;
Structure prediction by ZEFSAII (Michael W. Deem and Ramdas Pophale) SiO2 
 PCOD8295798
Probable space group: I B C A 
;
_chemical_formula_sum "Si O2"
_cell_formula_units_Z 104
_cell_length_a 11.624559
_cell_length_b 17.440693
_cell_length_c 23.498826
_cell_angle_alpha 90.000000
_cell_angle_beta 90.000000
_cell_angle_gamma 90.000000
_cell_volume 4764.160555
_symmetry_space_group_name_H-M "I B C A "
_symmetry_group_IT_number 73
_symmetry_cell_setting 'orthorhombic'
loop_
_space_group_symop_operation_xyz
x,y,z
-x,1/2-y,z
x,-y,1/2-z
1/2-x,y,-z
-x,-y,-z
x,1/2+y,-z
-x,y,1/2+z
1/2+x,-y,z
1/2+x,1/2+y,1/2+z
1/2-x,-y,1/2+z
1/2+x,1/2-y,-z
-x,1/2+y,1/2-z
1/2-x,1/2-y,1/2-z
1/2+x,y,1/2-z
1/2-x,1/2+y,z
x,1/2-y,1/2+z
loop_
_atom_site_type_symbol
_atom_site_label
_atom_site_fract_x
_atom_site_fract_y
_atom_site_fract_z
Si Si1 0.903654 0.416183 0.766890
Si Si2 0.563903 0.059583 0.125990
Si Si3 0.250178 0.814521 0.662400
Si Si4 0.927189 0.676058 0.566854
Si Si5 0.725638 0.661113 0.115065
Si Si6 0.014066 0.889068 0.351725
Si Si7 0.250000 0.753818 0.500000
O O1 0.852728 0.500000 0.750000
O O2 0.797063 0.358864 0.781478
O O3 0.994665 0.415429 0.817977
O O4 0.973296 0.387747 0.713063
O O5 0.508694 0.100811 0.069700
O O6 0.696859 0.086496 0.128388
O O7 0.560681 0.968556 0.122232
O O8 0.175360 0.843149 0.609759
O O9 0.246028 0.721684 0.666139
O O10 0.381728 0.830542 0.646462
O O11 0.866004 0.692976 0.505453
O O12 0.000000 0.750000 0.587577
O O13 0.593129 0.636957 0.110290
O O14 0.753066 0.700475 0.055083
#
# Coordination Sequence:
#
# PCOD8295798 Si02
#       7
#    16  16  16  16  16  16   8
#     4   9  22  39  65  95 133 181 220 265 333 414
#     4  10  22  43  66  93 136 176 219 271 344 412
#     4  10  22  41  65  94 133 177 227 272 338 405
#     4  10  19  41  68  96 120 175 222 272 337 407
#     4  11  24  45  66  99 130 178 228 293 336 414
#     4  11  25  40  66 100 139 175 221 289 344 404
#     4  10  22  40  72  92 130 168 230 290 342 396
#
# _framework density 21.829660000000001
#
# number of rings (size 3 to 8) (size 9 to 14) (size 15 to 20)
#    0.000    1.846    3.077    0.462    8.615    3.692 
#    2.769    1.538    0.000    0.000    0.000    0.000 
#    0.000    0.000    0.000    0.000    0.000    0.000 
#
# Total GULP energy -644303.937537 kJ/mol
# GULP energy per Si atom -12390.460337 kJ/mol
# Density = 2.177997 g / cm^3
# Si number density = 21.829660 Si / 1000 Ang^3
#
#
#
# Elastic Constant Matrix: (Units=GPa)
#
#
# Indices 1 2 3 4 5 6 
#
# 1 139.8508 45.0245 22.5664 0.0000 0.0000 0.0000
# 2 45.0245 102.7354 33.0027 0.0000 0.0000 0.0000
# 3 22.5664 33.0027 63.0629 0.0000 0.0000 0.0000
# 4 0.0000 0.0000 0.0000 21.2351 0.0000 0.0000
# 5 0.0000 0.0000 0.0000 0.0000 23.4901 0.0000
# 6 0.0000 0.0000 0.0000 0.0000 0.0000 43.3327
#
#
#
# Elastic Compliance Matrix: (Units=1/GPa)
#
#
# Indices 1 2 3 4 5 6 
#
# 1 0.008413 -0.003270 -0.001299 0.000000 0.000000 0.000000
# 2 -0.003270 0.012971 -0.005618 0.000000 0.000000 0.000000
# 3 -0.001299 -0.005618 0.019262 0.000000 0.000000 0.000000
# 4 0.000000 0.000000 0.000000 0.047092 0.000000 0.000000
# 5 0.000000 0.000000 0.000000 0.000000 0.042571 0.000000
# 6 0.000000 0.000000 0.000000 0.000000 0.000000 0.023077
#
#
# Mechanical properties :
#
#
# Convention : Reuss Voigt Hill
#
# Bulk Modulus (GPa) = 49.32896 56.31513 52.82205
# Shear Modulus (GPa) = 27.69795 31.28197 29.48996
#
# Velocity S-wave (km/s) = 3.56592 3.78961 3.67946
# Velocity P-wave (km/s) = 6.29290 6.70833 6.50394
#
# Compressibility (1/GPa) = 0.02027207
#
# Stress axis : x y z
#
# Youngs Moduli (GPa) = 118.86708 77.09216 51.91453
#
# Poissons Ratio (x) = 0.25206 0.06746
# Poissons Ratio (y) = 0.38864 0.29168
# Poissons Ratio (z) = 0.15445 0.43313
#
# Static dielectric constant tensor:
#      x y z
#    x 4.292510 0.000000 0.000000 
#    y 0.000000 4.082520 0.000000 
#    z 0.000000 0.000000 3.903690 
# 
# 
# High freq. dielectric constant tensor:
#      x y z
#    x 1.875380 0.000000 0.000000 
#    y 0.000000 1.853410 0.000000 
#    z 0.000000 0.000000 1.830640 
# 
# From -- ./inp_files/31795.got.cif
#   From: 2010.03.12/outbox.cif.g09.slc.cpg/sg73_16_cif.got.tgz:31795.got - 2010.04.16 15:25:48.
