data_PCOD8295409
_publ_section_title
;
Structure prediction by ZEFSAII (Michael W. Deem and Ramdas Pophale) SiO2 
 PCOD8295409
Probable space group: I B A M
;
_chemical_formula_sum "Si O2"
_cell_formula_units_Z 80
_cell_length_a 8.138663
_cell_length_b 27.866485
_cell_length_c 17.730347
_cell_angle_alpha 90.000000
_cell_angle_beta 90.000000
_cell_angle_gamma 90.000000
_cell_volume 4021.170544
_symmetry_space_group_name_H-M "I B A M"
_symmetry_group_IT_number 72
_symmetry_cell_setting 'orthorhombic'
loop_
_space_group_symop_operation_xyz
x,y,z
-x,-y,z
x,-y,1/2-z
-x,y,1/2-z
-x,-y,-z
x,y,-z
-x,y,1/2+z
x,-y,1/2+z
1/2+x,1/2+y,1/2+z
1/2-x,1/2-y,1/2+z
1/2+x,1/2-y,-z
1/2-x,1/2+y,-z
1/2-x,1/2-y,1/2-z
1/2+x,1/2+y,1/2-z
1/2-x,1/2+y,z
1/2+x,1/2-y,z
loop_
_atom_site_type_symbol
_atom_site_label
_atom_site_fract_x
_atom_site_fract_y
_atom_site_fract_z
Si Si1 0.187818 0.049767 0.274825
Si Si2 0.408304 0.221419 0.828664
Si Si3 0.278869 0.199823 0.584478
Si Si4 0.106721 0.100777 0.415621
Si Si5 0.352813 0.638906 0.193431
O O1 0.188239 0.058273 0.365130
O O2 0.260299 0.096583 0.231322
O O3 0.000000 0.046818 0.250000
O O4 0.278292 0.000000 0.250000
O O5 0.500000 0.229831 0.750000
O O6 0.532148 0.201954 0.891187
O O7 0.336070 0.271878 0.856837
O O8 0.257524 0.184913 0.821442
O O9 0.260228 0.221255 0.500000
O O10 0.232912 0.144473 0.585549
O O11 0.080797 0.080825 0.500000
O O12 0.930688 0.119035 0.384319
O O13 0.500000 0.653283 0.250000
#
# Coordination Sequence:
#
# PCOD8295409 Si02
#       5
#    16  16  16  16  16
#     4   8  15  31  52  77 106 133 166 221 273 311
#     4  12  23  36  56  80 107 146 190 229 267 325
#     4  11  24  38  53  77 111 147 181 224 276 323
#     4   9  18  34  55  77 104 141 180 217 265 324
#     4   9  19  35  53  78 108 138 176 226 271 312
#
# _framework density 19.894704999999998
#
# number of rings (size 3 to 8) (size 9 to 14) (size 15 to 20)
#    0.000    2.600    0.000    4.800    0.000    7.200 
#    0.000    8.000    0.000    5.400    0.000    2.800 
#    0.000    0.000    0.000    0.000    0.000    0.000 
#
# Total GULP energy -495767.699792 kJ/mol
# GULP energy per Si atom -12394.192495 kJ/mol
# Density = 1.984942 g / cm^3
# Si number density = 19.894705 Si / 1000 Ang^3
#
#
#
# Elastic Constant Matrix: (Units=GPa)
#
#
# Indices 1 2 3 4 5 6 
#
# 1 61.8457 20.0231 37.1869 0.0000 0.0000 0.0000
# 2 20.0231 80.1138 69.5039 -0.0001 0.0000 0.0000
# 3 37.1869 69.5039 161.1537 -0.0002 0.0000 0.0000
# 4 0.0000 -0.0001 -0.0002 27.6012 0.0000 0.0000
# 5 0.0000 0.0000 0.0000 0.0000 27.0458 0.0000
# 6 0.0000 0.0000 0.0000 0.0000 0.0000 5.6278
#
#
#
# Elastic Compliance Matrix: (Units=1/GPa)
#
#
# Indices 1 2 3 4 5 6 
#
# 1 0.018886 -0.001501 -0.003711 0.000000 0.000000 0.000000
# 2 -0.001501 0.020064 -0.008307 0.000000 0.000000 0.000000
# 3 -0.003711 -0.008307 0.010644 0.000000 0.000000 0.000000
# 4 0.000000 0.000000 0.000000 0.036230 0.000000 0.000000
# 5 0.000000 0.000000 0.000000 0.000000 0.036974 0.000000
# 6 0.000000 0.000000 0.000000 0.000000 0.000000 0.177689
#
#
# Mechanical properties :
#
#
# Convention : Reuss Voigt Hill
#
# Bulk Modulus (GPa) = 44.33163 61.83787 53.08475
# Shear Modulus (GPa) = 14.92331 23.81492 19.36912
#
# Velocity S-wave (km/s) = 2.74179 3.46359 3.12361
# Velocity P-wave (km/s) = 5.68812 6.86625 6.30476
#
# Compressibility (1/GPa) = 0.02255726
#
# Stress axis : x y z
#
# Youngs Moduli (GPa) = 52.94795 49.83946 93.94667
#
# Poissons Ratio (x) = 0.07481 0.34861
# Poissons Ratio (y) = 0.07948 0.78043
# Poissons Ratio (z) = 0.19648 0.41403
#
# Static dielectric constant tensor:
#      x y z
#    x 3.372700 0.000000 0.000000 
#    y 0.000000 4.584760 0.000000 
#    z 0.000000 0.000000 4.010590 
# 
# 
# High freq. dielectric constant tensor:
#      x y z
#    x 1.739460 0.000000 0.000000 
#    y 0.000000 1.773920 0.000000 
#    z 0.000000 0.000000 1.786460 
# 
# From -- ./inp_files/28140.got.cif
#   From: 2010.03.12/outbox.cif.g09.slc.cpg/sg72_15_cif.got.tgz:28140.got - 2010.04.16 14:54:00.
