data_PCOD8295679
_publ_section_title
;
Structure prediction by ZEFSAII (Michael W. Deem and Ramdas Pophale) SiO2 
 PCOD8295679
Probable space group: I B C A 
;
_chemical_formula_sum "Si O2"
_cell_formula_units_Z 120
_cell_length_a 16.278626
_cell_length_b 16.039878
_cell_length_c 22.459960
_cell_angle_alpha 90.000000
_cell_angle_beta 90.000000
_cell_angle_gamma 90.000000
_cell_volume 5864.456707
_symmetry_space_group_name_H-M "I B C A "
_symmetry_group_IT_number 73
_symmetry_cell_setting 'orthorhombic'
loop_
_space_group_symop_operation_xyz
x,y,z
-x,1/2-y,z
x,-y,1/2-z
1/2-x,y,-z
-x,-y,-z
x,1/2+y,-z
-x,y,1/2+z
1/2+x,-y,z
1/2+x,1/2+y,1/2+z
1/2-x,-y,1/2+z
1/2+x,1/2-y,-z
-x,1/2+y,1/2-z
1/2-x,1/2-y,1/2-z
1/2+x,y,1/2-z
1/2-x,1/2+y,z
x,1/2-y,1/2+z
loop_
_atom_site_type_symbol
_atom_site_label
_atom_site_fract_x
_atom_site_fract_y
_atom_site_fract_z
Si Si1 0.330309 0.363360 0.460694
Si Si2 0.918903 0.302366 0.932866
Si Si3 0.545603 0.500000 0.250000
Si Si4 0.056846 0.669203 0.745654
Si Si5 0.174576 0.317911 0.859688
Si Si6 0.292115 0.314898 0.333922
Si Si7 0.851579 0.438837 0.856241
Si Si8 0.266093 0.533477 0.435343
O O1 0.250000 0.346743 0.500000
O O2 0.408646 0.336945 0.500110
O O3 0.329316 0.310040 0.400502
O O4 0.334292 0.461274 0.443984
O O5 0.843266 0.242058 0.915807
O O6 0.919353 0.376350 0.884058
O O7 0.000000 0.250000 0.928754
O O8 0.491995 0.583567 0.243503
O O9 0.604189 0.495264 0.192612
O O10 0.092312 0.670980 0.679011
O O11 0.133907 0.670528 0.789430
O O12 0.000000 0.750000 0.756580
O O13 0.247667 0.274336 0.821296
O O14 0.201418 0.406147 0.884683
O O15 0.225147 0.388975 0.327127
O O16 0.818913 0.494711 0.910841
O O17 0.250000 0.576331 0.500000
#
# Coordination Sequence:
#
# PCOD8295679 Si02
#       8
#    16  16   8  16  16  16  16  16
#     4  10  18  42  62  95 132 171 210 277 325 397
#     4  11  21  41  68  95 133 181 217 271 347 409
#     4  12  28  42  70  94 146 180 222 294 358 404
#     4  12  28  47  64 101 144 178 229 293 352 406
#     4  11  23  39  72  96 128 179 236 267 338 413
#     4  10  23  41  74  94 133 177 235 279 329 403
#     4  10  22  43  67  96 132 180 228 270 340 408
#     4  10  21  38  68 101 128 161 227 278 323 397
#
# _framework density 20.462254000000001
#
# number of rings (size 3 to 8) (size 9 to 14) (size 15 to 20)
#    0.000    1.333    5.333    3.200    9.333    0.533 
#    0.000    2.000    0.000    0.000    0.000    0.000 
#    0.000    0.000    0.000    0.000    0.000    0.000 
#
# Total GULP energy -743884.024479 kJ/mol
# GULP energy per Si atom -12398.067075 kJ/mol
# Density = 2.041568 g / cm^3
# Si number density = 20.462254 Si / 1000 Ang^3
#
#
#
# Elastic Constant Matrix: (Units=GPa)
#
#
# Indices 1 2 3 4 5 6 
#
# 1 99.2677 59.1529 58.3921 0.0000 0.0000 0.0000
# 2 59.1529 120.9858 55.8508 0.0000 0.0000 0.0000
# 3 58.3921 55.8508 96.4378 0.0000 0.0000 0.0000
# 4 0.0000 0.0000 0.0000 31.0707 0.0000 0.0000
# 5 0.0000 0.0000 0.0000 0.0000 31.9454 0.0000
# 6 0.0000 0.0000 0.0000 0.0000 0.0000 29.3082
#
#
#
# Elastic Compliance Matrix: (Units=1/GPa)
#
#
# Indices 1 2 3 4 5 6 
#
# 1 0.017646 -0.005044 -0.007763 0.000000 0.000000 0.000000
# 2 -0.005044 0.012723 -0.004315 0.000000 0.000000 0.000000
# 3 -0.007763 -0.004315 0.017569 0.000000 0.000000 0.000000
# 4 0.000000 0.000000 0.000000 0.032185 0.000000 0.000000
# 5 0.000000 0.000000 0.000000 0.000000 0.031303 0.000000
# 6 0.000000 0.000000 0.000000 0.000000 0.000000 0.034120
#
#
# Mechanical properties :
#
#
# Convention : Reuss Voigt Hill
#
# Bulk Modulus (GPa) = 73.02203 73.72033 73.37118
# Shear Modulus (GPa) = 27.12167 28.01788 27.56978
#
# Velocity S-wave (km/s) = 3.64462 3.70435 3.67461
# Velocity P-wave (km/s) = 7.31264 7.37577 7.34427
#
# Compressibility (1/GPa) = 0.01369450
#
# Stress axis : x y z
#
# Youngs Moduli (GPa) = 56.67018 78.59694 56.91909
#
# Poissons Ratio (x) = 0.39642 0.44189
# Poissons Ratio (y) = 0.28583 0.24558
# Poissons Ratio (z) = 0.43996 0.33911
#
# Static dielectric constant tensor:
#      x y z
#    x 3.669370 0.000000 0.000000 
#    y 0.000000 3.841990 0.000000 
#    z 0.000000 0.000000 3.968660 
# 
# 
# High freq. dielectric constant tensor:
#      x y z
#    x 1.783020 0.000000 0.000000 
#    y 0.000000 1.799420 0.000000 
#    z 0.000000 0.000000 1.810920 
# 
# From -- ./inp_files/29650.got.cif
#   From: 2010.03.12/outbox.cif.g09.slc.cpg/sg73_15_cif.got.tgz:29650.got - 2010.04.16 15:25:48.
