data_PCOD8295397
_publ_section_title
;
Structure prediction by ZEFSAII (Michael W. Deem and Ramdas Pophale) SiO2 
 PCOD8295397
Probable space group: I B A M
;
_chemical_formula_sum "Si O2"
_cell_formula_units_Z 48
_cell_length_a 15.819623
_cell_length_b 7.445371
_cell_length_c 16.923985
_cell_angle_alpha 90.000000
_cell_angle_beta 90.000000
_cell_angle_gamma 90.000000
_cell_volume 1993.357087
_symmetry_space_group_name_H-M "I B A M"
_symmetry_group_IT_number 72
_symmetry_cell_setting 'orthorhombic'
loop_
_space_group_symop_operation_xyz
x,y,z
-x,-y,z
x,-y,1/2-z
-x,y,1/2-z
-x,-y,-z
x,y,-z
-x,y,1/2+z
x,-y,1/2+z
1/2+x,1/2+y,1/2+z
1/2-x,1/2-y,1/2+z
1/2+x,1/2-y,-z
1/2-x,1/2+y,-z
1/2-x,1/2-y,1/2-z
1/2+x,1/2+y,1/2-z
1/2-x,1/2+y,z
1/2+x,1/2-y,z
loop_
_atom_site_type_symbol
_atom_site_label
_atom_site_fract_x
_atom_site_fract_y
_atom_site_fract_z
Si Si1 0.335898 0.866985 0.152077
Si Si2 0.344051 0.509958 0.409601
Si Si3 0.917075 0.707871 0.696253
O O1 0.362447 0.702219 0.095459
O O2 0.336876 0.794786 0.242961
O O3 0.246729 0.946882 0.126813
O O4 0.406957 0.025089 0.144350
O O5 0.348311 0.572651 0.500000
O O6 0.414536 0.619103 0.360199
O O7 0.000000 0.711481 0.750000
#
# Coordination Sequence:
#
# PCOD8295397 Si02
#       3
#    16  16  16
#     4  11  23  42  73 106 141 198 253 299 357 441
#     4  12  25  42  73 111 150 189 242 313 376 440
#     4  11  26  46  73 107 146 198 251 308 365 444
#
# _framework density 24.079979000000002
#
# number of rings (size 3 to 8) (size 9 to 14) (size 15 to 20)
#    0.000    0.667    3.333    5.000    4.667    5.333 
#    0.000    5.000    0.000   18.000    0.000    0.000 
#    0.000    0.000    0.000    0.000    0.000    0.000 
#
# Total GULP energy -297486.272995 kJ/mol
# GULP energy per Si atom -12395.261375 kJ/mol
# Density = 2.402517 g / cm^3
# Si number density = 24.079979 Si / 1000 Ang^3
#
#
#
# Elastic Constant Matrix: (Units=GPa)
#
#
# Indices 1 2 3 4 5 6 
#
# 1 118.9699 76.0131 65.1076 0.0000 0.0000 0.0000
# 2 76.0131 167.4680 52.2169 0.0000 0.0000 0.0000
# 3 65.1076 52.2169 126.8358 0.0000 0.0000 0.0000
# 4 0.0000 0.0000 0.0000 38.8031 0.0000 0.0000
# 5 0.0000 0.0000 0.0000 0.0000 13.6533 0.0000
# 6 0.0000 0.0000 0.0000 0.0000 0.0000 25.1187
#
#
#
# Elastic Compliance Matrix: (Units=1/GPa)
#
#
# Indices 1 2 3 4 5 6 
#
# 1 0.014501 -0.004889 -0.005431 0.000000 0.000000 0.000000
# 2 -0.004889 0.008499 -0.000989 0.000000 0.000000 0.000000
# 3 -0.005431 -0.000989 0.011080 0.000000 0.000000 0.000000
# 4 0.000000 0.000000 0.000000 0.025771 0.000000 0.000000
# 5 0.000000 0.000000 0.000000 0.000000 0.073243 0.000000
# 6 0.000000 0.000000 0.000000 0.000000 0.000000 0.039811
#
#
# Mechanical properties :
#
#
# Convention : Reuss Voigt Hill
#
# Bulk Modulus (GPa) = 87.25236 88.88322 88.06779
# Shear Modulus (GPa) = 25.08241 30.17742 27.62992
#
# Velocity S-wave (km/s) = 3.23093 3.54392 3.39104
# Velocity P-wave (km/s) = 7.08743 7.33060 7.21004
#
# Compressibility (1/GPa) = 0.01146101
#
# Stress axis : x y z
#
# Youngs Moduli (GPa) = 68.95957 117.66506 90.25670
#
# Poissons Ratio (x) = 0.57522 0.49021
# Poissons Ratio (y) = 0.33712 0.08930
# Poissons Ratio (z) = 0.37454 0.11642
#
# Static dielectric constant tensor:
#      x y z
#    x 4.198600 0.000000 0.000000 
#    y 0.000000 4.904430 0.000000 
#    z 0.000000 0.000000 4.288240 
# 
# 
# High freq. dielectric constant tensor:
#      x y z
#    x 1.942030 0.000000 0.000000 
#    y 0.000000 1.979280 0.000000 
#    z 0.000000 0.000000 1.932770 
# 
# From -- ./inp_files/29945.got.cif
#   From: 2010.03.12/outbox.cif.g09.slc.cpg/sg72_15_cif.got.tgz:29945.got - 2010.04.16 14:54:00.
