data_PCOD8295483
_publ_section_title
;
Structure prediction by ZEFSAII (Michael W. Deem and Ramdas Pophale) SiO2 
 PCOD8295483
Probable space group: I B A M
;
_chemical_formula_sum "Si O2"
_cell_formula_units_Z 72
_cell_length_a 7.703588
_cell_length_b 16.145312
_cell_length_c 26.471584
_cell_angle_alpha 90.000000
_cell_angle_beta 90.000000
_cell_angle_gamma 90.000000
_cell_volume 3292.451750
_symmetry_space_group_name_H-M "I B A M"
_symmetry_group_IT_number 72
_symmetry_cell_setting 'orthorhombic'
loop_
_space_group_symop_operation_xyz
x,y,z
-x,-y,z
x,-y,1/2-z
-x,y,1/2-z
-x,-y,-z
x,y,-z
-x,y,1/2+z
x,-y,1/2+z
1/2+x,1/2+y,1/2+z
1/2-x,1/2-y,1/2+z
1/2+x,1/2-y,-z
1/2-x,1/2+y,-z
1/2-x,1/2-y,1/2-z
1/2+x,1/2+y,1/2-z
1/2-x,1/2+y,z
1/2+x,1/2-y,z
loop_
_atom_site_type_symbol
_atom_site_label
_atom_site_fract_x
_atom_site_fract_y
_atom_site_fract_z
Si Si1 0.056272 0.706977 0.615915
Si Si2 0.500000 0.500000 0.598862
Si Si3 0.350227 0.312439 0.715231
Si Si4 0.122606 0.162504 0.443285
Si Si5 0.839923 0.561081 0.345225
O O1 0.076023 0.764292 0.665827
O O2 0.234477 0.663114 0.600977
O O3 0.008769 0.762968 0.567843
O O4 0.910448 0.635903 0.619810
O O5 0.519629 0.422690 0.562021
O O6 0.324156 0.487389 0.631468
O O7 0.500000 0.350310 0.750000
O O8 0.250000 0.250000 0.750000
O O9 0.228559 0.391333 0.704233
O O10 0.196936 0.170139 0.500000
O O11 0.000000 0.500000 0.332004
#
# Coordination Sequence:
#
# PCOD8295483 Si02
#       5
#    16   8  16  16  16
#     4  12  23  46  73 104 149 197 249 315 373 444
#     4  12  25  46  73 108 152 198 243 318 385 444
#     4  12  24  45  77 107 141 199 256 306 375 451
#     4  12  24  43  74 109 147 199 254 309 380 458
#     4  12  26  47  76 106 155 200 243 313 388 439
#
# _framework density 21.868202
#
# number of rings (size 3 to 8) (size 9 to 14) (size 15 to 20)
#    0.000    0.000    8.889    1.000    0.000    0.000 
#    0.000   11.667    0.000    0.000    0.000    0.000 
#    0.000    0.000    0.000    0.000    0.000    0.000 
#
# Total GULP energy -446226.513849 kJ/mol
# GULP energy per Si atom -12395.180940 kJ/mol
# Density = 2.181843 g / cm^3
# Si number density = 21.868202 Si / 1000 Ang^3
#
#
#
# Elastic Constant Matrix: (Units=GPa)
#
#
# Indices 1 2 3 4 5 6 
#
# 1 132.1933 59.5980 51.8699 0.0000 0.0000 0.0000
# 2 59.5980 147.9723 49.1507 0.0000 0.0000 0.0000
# 3 51.8699 49.1507 120.4574 0.0000 0.0000 0.0000
# 4 0.0000 0.0000 0.0000 13.3264 0.0000 0.0000
# 5 0.0000 0.0000 0.0000 0.0000 39.9110 0.0000
# 6 0.0000 0.0000 0.0000 0.0000 0.0000 48.1482
#
#
#
# Elastic Compliance Matrix: (Units=1/GPa)
#
#
# Indices 1 2 3 4 5 6 
#
# 1 0.010172 -0.003056 -0.003133 0.000000 0.000000 0.000000
# 2 -0.003056 0.008736 -0.002248 0.000000 0.000000 0.000000
# 3 -0.003133 -0.002248 0.010568 0.000000 0.000000 0.000000
# 4 0.000000 0.000000 0.000000 0.075039 0.000000 0.000000
# 5 0.000000 0.000000 0.000000 0.000000 0.025056 0.000000
# 6 0.000000 0.000000 0.000000 0.000000 0.000000 0.020769
#
#
# Mechanical properties :
#
#
# Convention : Reuss Voigt Hill
#
# Bulk Modulus (GPa) = 79.36205 80.20669 79.78437
# Shear Modulus (GPa) = 29.16889 36.27742 32.72315
#
# Velocity S-wave (km/s) = 3.65615 4.07739 3.87250
# Velocity P-wave (km/s) = 7.36160 7.67618 7.52054
#
# Compressibility (1/GPa) = 0.01260048
#
# Stress axis : x y z
#
# Youngs Moduli (GPa) = 98.31026 114.47137 94.62284
#
# Poissons Ratio (x) = 0.34985 0.29646
# Poissons Ratio (y) = 0.30045 0.21276
# Poissons Ratio (z) = 0.30801 0.25739
#
# Static dielectric constant tensor:
#      x y z
#    x 4.024240 0.000000 0.000000 
#    y 0.000000 4.436560 0.000000 
#    z 0.000000 0.000000 3.051610 
# 
# 
# High freq. dielectric constant tensor:
#      x y z
#    x 1.878080 0.000000 0.000000 
#    y 0.000000 1.873040 0.000000 
#    z 0.000000 0.000000 1.843490 
# 
# From -- ./inp_files/47016.got.cif
#   From: 2010.03.12/outbox.cif.g09.slc.cpg/sg72_24_cif.got.tgz:47016.got - 2010.04.16 14:54:00.
