data_PCOD8295836
_publ_section_title
;
Structure prediction by ZEFSAII (Michael W. Deem and Ramdas Pophale) SiO2 
 PCOD8295836
Probable space group: I B C A 
;
_chemical_formula_sum "Si O2"
_cell_formula_units_Z 80
_cell_length_a 21.521208
_cell_length_b 21.589109
_cell_length_c 8.801167
_cell_angle_alpha 90.000000
_cell_angle_beta 90.000000
_cell_angle_gamma 90.000000
_cell_volume 4089.230823
_symmetry_space_group_name_H-M "I B C A "
_symmetry_group_IT_number 73
_symmetry_cell_setting 'orthorhombic'
loop_
_space_group_symop_operation_xyz
x,y,z
-x,1/2-y,z
x,-y,1/2-z
1/2-x,y,-z
-x,-y,-z
x,1/2+y,-z
-x,y,1/2+z
1/2+x,-y,z
1/2+x,1/2+y,1/2+z
1/2-x,-y,1/2+z
1/2+x,1/2-y,-z
-x,1/2+y,1/2-z
1/2-x,1/2-y,1/2-z
1/2+x,y,1/2-z
1/2-x,1/2+y,z
x,1/2-y,1/2+z
loop_
_atom_site_type_symbol
_atom_site_label
_atom_site_fract_x
_atom_site_fract_y
_atom_site_fract_z
Si Si1 0.500000 0.250000 0.819889
Si Si2 0.421390 0.943129 0.457920
Si Si3 0.711077 0.943854 0.849597
Si Si4 0.479352 0.000000 0.750000
Si Si5 0.079479 0.196076 0.925480
Si Si6 0.285019 0.303192 0.656430
O O1 0.472294 0.302771 0.708381
O O2 0.442366 0.231463 0.924220
O O3 0.357728 0.969539 0.390011
O O4 0.477024 0.951295 0.337629
O O5 0.409689 0.871854 0.485478
O O6 0.435489 0.969755 0.624165
O O7 0.712145 0.874079 0.771675
O O8 0.740284 0.000000 0.750000
O O9 0.750000 0.938603 0.000000
O O10 0.145149 0.222956 0.867532
O O11 0.250000 0.309652 0.500000
O O12 0.250000 0.250000 0.750000
#
# Coordination Sequence:
#
# PCOD8295836 Si02
#       6
#     8  16  16   8  16  16
#     4  10  20  34  54  82 110 152 184 234 292 342
#     4  10  20  36  56  83 114 149 188 239 286 344
#     4  10  22  39  58  83 118 152 193 242 292 347
#     4  10  20  34  58  84 114 150 190 230 288 352
#     4  10  20  35  56  80 115 145 191 236 286 345
#     4  10  21  38  60  83 113 151 192 242 288 343
#
# _framework density 19.563580999999999
#
# number of rings (size 3 to 8) (size 9 to 14) (size 15 to 20)
#    0.000    2.000    1.000    2.400    1.400    0.800 
#    0.000    0.000    4.400    0.000    0.000    0.000 
#    0.000    0.000    0.000    0.000    0.000    0.000 
#
# Total GULP energy -495554.465053 kJ/mol
# GULP energy per Si atom -12388.861626 kJ/mol
# Density = 1.951905 g / cm^3
# Si number density = 19.563581 Si / 1000 Ang^3
#
#
#
# Elastic Constant Matrix: (Units=GPa)
#
#
# Indices 1 2 3 4 5 6 
#
# 1 104.3541 40.3052 31.7977 0.0000 0.0000 0.0000
# 2 40.3052 90.2836 47.5091 0.0000 0.0000 0.0000
# 3 31.7977 47.5091 90.4473 0.0000 0.0000 0.0000
# 4 0.0000 0.0000 0.0000 9.3136 0.0000 0.0000
# 5 0.0000 0.0000 0.0000 0.0000 31.2598 0.0000
# 6 0.0000 0.0000 0.0000 0.0000 0.0000 31.8071
#
#
#
# Elastic Compliance Matrix: (Units=1/GPa)
#
#
# Indices 1 2 3 4 5 6 
#
# 1 0.011814 -0.004268 -0.001911 0.000000 0.000000 0.000000
# 2 -0.004268 0.016849 -0.007350 0.000000 0.000000 0.000000
# 3 -0.001911 -0.007350 0.015589 0.000000 0.000000 0.000000
# 4 0.000000 0.000000 0.000000 0.107370 0.000000 0.000000
# 5 0.000000 0.000000 0.000000 0.000000 0.031990 0.000000
# 6 0.000000 0.000000 0.000000 0.000000 0.000000 0.031439
#
#
# Mechanical properties :
#
#
# Convention : Reuss Voigt Hill
#
# Bulk Modulus (GPa) = 58.16314 58.25657 58.20985
# Shear Modulus (GPa) = 20.17419 25.50763 22.84091
#
# Velocity S-wave (km/s) = 3.21473 3.61478 3.42061
# Velocity P-wave (km/s) = 6.60108 6.87495 6.73940
#
# Compressibility (1/GPa) = 0.01719302
#
# Stress axis : x y z
#
# Youngs Moduli (GPa) = 84.64772 59.34955 64.14878
#
# Poissons Ratio (x) = 0.25332 0.12261
# Poissons Ratio (y) = 0.36129 0.47149
# Poissons Ratio (z) = 0.16178 0.43621
#
# Static dielectric constant tensor:
#      x y z
#    x 3.983120 0.000000 0.000000 
#    y 0.000000 3.864350 0.000000 
#    z 0.000000 0.000000 3.225230 
# 
# 
# High freq. dielectric constant tensor:
#      x y z
#    x 1.774830 0.000000 0.000000 
#    y 0.000000 1.756240 0.000000 
#    z 0.000000 0.000000 1.756400 
# 
# From -- ./inp_files/6231.got.cif
#   From: 2010.03.12/outbox.cif.g09.slc.cpg/sg73_4_cif.got.tgz:6231.got - 2010.04.16 15:25:48.
