data_PCOD8295433
_publ_section_title
;
Structure prediction by ZEFSAII (Michael W. Deem and Ramdas Pophale) SiO2 
 PCOD8295433
Probable space group: I B A M
;
_chemical_formula_sum "Si O2"
_cell_formula_units_Z 68
_cell_length_a 11.907637
_cell_length_b 19.060194
_cell_length_c 13.658308
_cell_angle_alpha 90.000000
_cell_angle_beta 90.000000
_cell_angle_gamma 90.000000
_cell_volume 3099.915142
_symmetry_space_group_name_H-M "I B A M"
_symmetry_group_IT_number 72
_symmetry_cell_setting 'orthorhombic'
loop_
_space_group_symop_operation_xyz
x,y,z
-x,-y,z
x,-y,1/2-z
-x,y,1/2-z
-x,-y,-z
x,y,-z
-x,y,1/2+z
x,-y,1/2+z
1/2+x,1/2+y,1/2+z
1/2-x,1/2-y,1/2+z
1/2+x,1/2-y,-z
1/2-x,1/2+y,-z
1/2-x,1/2-y,1/2-z
1/2+x,1/2+y,1/2-z
1/2-x,1/2+y,z
1/2+x,1/2-y,z
loop_
_atom_site_type_symbol
_atom_site_label
_atom_site_fract_x
_atom_site_fract_y
_atom_site_fract_z
Si Si1 0.121110 0.519613 0.638393
Si Si2 0.375859 0.694872 0.233033
Si Si3 0.000000 0.000000 0.250000
Si Si4 0.192655 0.320029 0.885850
Si Si5 0.328737 0.426141 0.392528
O O1 0.118324 0.500000 0.750000
O O2 0.148628 0.600779 0.621614
O O3 0.218872 0.473305 0.591113
O O4 0.000000 0.500000 0.590950
O O5 0.500000 0.664641 0.250000
O O6 0.316383 0.691730 0.339251
O O7 0.387402 0.771216 0.181711
O O8 0.300935 0.648577 0.157318
O O9 0.079542 0.043048 0.179495
O O10 0.195165 0.297469 0.000000
O O11 0.381977 0.414631 0.500000
#
# Coordination Sequence:
#
# PCOD8295433 Si02
#       5
#    16  16   4  16  16
#     4  11  24  44  72 101 136 183 231 290 347 405
#     4  11  25  46  68  99 143 180 228 287 344 420
#     4  12  22  44  58 102 136 180 224 290 336 410
#     4  11  25  45  70 102 137 181 232 287 349 412
#     4  12  24  42  69 101 138 184 232 282 348 413
#
# _framework density 21.936084999999999
#
# number of rings (size 3 to 8) (size 9 to 14) (size 15 to 20)
#    0.000    0.706    4.706    1.765    3.294    3.765 
#    0.000    0.000    0.000    0.000    0.000    0.000 
#    0.000    0.000    0.000    0.000    0.000    0.000 
#
# Total GULP energy -421333.955491 kJ/mol
# GULP energy per Si atom -12392.175161 kJ/mol
# Density = 2.188616 g / cm^3
# Si number density = 21.936085 Si / 1000 Ang^3
#
#
#
# Elastic Constant Matrix: (Units=GPa)
#
#
# Indices 1 2 3 4 5 6 
#
# 1 128.4008 43.7085 43.4095 0.0000 0.0000 0.0000
# 2 43.7085 129.4999 30.0141 -0.0006 0.0001 0.0017
# 3 43.4095 30.0141 165.5716 -0.0009 0.0001 0.0017
# 4 0.0000 -0.0006 -0.0009 23.9767 0.0001 0.0017
# 5 0.0000 0.0001 0.0001 0.0001 41.6614 -0.0004
# 6 0.0000 0.0017 0.0017 0.0017 -0.0004 111.4286
#
#
#
# Elastic Compliance Matrix: (Units=1/GPa)
#
#
# Indices 1 2 3 4 5 6 
#
# 1 0.009375 -0.002708 -0.001967 0.000000 0.000000 0.000000
# 2 -0.002708 0.008843 -0.000893 0.000000 0.000000 0.000000
# 3 -0.001967 -0.000893 0.006717 0.000000 0.000000 0.000000
# 4 0.000000 0.000000 0.000000 0.041707 0.000000 -0.000001
# 5 0.000000 0.000000 0.000000 0.000000 0.024003 0.000000
# 6 0.000000 0.000000 0.000000 -0.000001 0.000000 0.008974
#
#
# Mechanical properties :
#
#
# Convention : Reuss Voigt Hill
#
# Bulk Modulus (GPa) = 72.47013 73.08184 72.77598
# Shear Modulus (GPa) = 43.34401 55.83603 49.59002
#
# Velocity S-wave (km/s) = 4.44996 5.05067 4.75980
# Velocity P-wave (km/s) = 7.71437 8.20978 7.96593
#
# Compressibility (1/GPa) = 0.01379879
#
# Stress axis : x y z
#
# Youngs Moduli (GPa) = 106.66607 113.08264 148.87024
#
# Poissons Ratio (x) = 0.30627 0.29283
# Poissons Ratio (y) = 0.28889 0.13293
# Poissons Ratio (z) = 0.20981 0.10098
#
# Static dielectric constant tensor:
#      x y z
#    x 4.249670 0.000000 0.000000 
#    y 0.000000 3.980710 0.000000 
#    z 0.000000 0.000000 4.050400 
# 
# 
# High freq. dielectric constant tensor:
#      x y z
#    x 1.852420 0.000000 0.000000 
#    y 0.000000 1.875260 0.000000 
#    z 0.000000 0.000000 1.882710 
# 
# From -- ./inp_files/19911.got.cif
#   From: 2010.03.12/outbox.cif.g09.slc.cpg/sg72_10_cif.got.tgz:19911.got - 2010.04.16 14:54:00.
