data_PCOD8295558
_publ_section_title
;
Structure prediction by ZEFSAII (Michael W. Deem and Ramdas Pophale) SiO2 
 PCOD8295558
Probable space group: I B C A 
;
_chemical_formula_sum "Si O2"
_cell_formula_units_Z 120
_cell_length_a 13.044993
_cell_length_b 22.386920
_cell_length_c 19.260257
_cell_angle_alpha 90.000000
_cell_angle_beta 90.000000
_cell_angle_gamma 90.000000
_cell_volume 5624.711809
_symmetry_space_group_name_H-M "I B C A "
_symmetry_group_IT_number 73
_symmetry_cell_setting 'orthorhombic'
loop_
_space_group_symop_operation_xyz
x,y,z
-x,1/2-y,z
x,-y,1/2-z
1/2-x,y,-z
-x,-y,-z
x,1/2+y,-z
-x,y,1/2+z
1/2+x,-y,z
1/2+x,1/2+y,1/2+z
1/2-x,-y,1/2+z
1/2+x,1/2-y,-z
-x,1/2+y,1/2-z
1/2-x,1/2-y,1/2-z
1/2+x,y,1/2-z
1/2-x,1/2+y,z
x,1/2-y,1/2+z
loop_
_atom_site_type_symbol
_atom_site_label
_atom_site_fract_x
_atom_site_fract_y
_atom_site_fract_z
Si Si1 0.579620 0.515084 0.061234
Si Si2 0.439869 0.688603 0.254138
Si Si3 0.426658 0.621633 0.647822
Si Si4 0.215882 0.204431 0.134428
Si Si5 0.962902 0.188626 0.529351
Si Si6 0.293009 0.665656 0.367832
Si Si7 0.750000 0.599814 0.000000
Si Si8 0.833603 0.391281 0.939979
O O1 0.536107 0.553943 0.126590
O O2 0.667336 0.558553 0.035121
O O3 0.629690 0.454637 0.090276
O O4 0.500000 0.500000 0.000000
O O5 0.500000 0.750000 0.270515
O O6 0.511927 0.640831 0.215941
O O7 0.340897 0.703357 0.207666
O O8 0.395815 0.655042 0.322286
O O9 0.451130 0.664662 0.582328
O O10 0.306186 0.631142 0.663969
O O11 0.138566 0.205321 0.070989
O O12 0.283560 0.263206 0.130682
O O13 0.289147 0.146675 0.124372
O O14 0.934736 0.140723 0.470833
O O15 0.000000 0.250000 0.493464
O O16 0.311251 0.641192 0.445278
O O17 0.750000 0.402610 0.000000
#
# Coordination Sequence:
#
# PCOD8295558 Si02
#       8
#    16  16  16  16  16  16   8  16
#     4  11  21  41  65  91 131 177 224 274 330 391
#     4  11  22  41  67  97 130 175 223 263 336 417
#     4  10  20  37  66  93 126 178 221 267 335 397
#     4  10  20  35  61  92 131 168 210 265 328 391
#     4  10  17  32  57  94 135 162 209 265 330 398
#     4  11  22  41  65  95 135 169 209 280 341 401
#     4  10  26  40  64  98 130 164 220 278 344 388
#     4  10  21  34  59  96 130 171 220 271 324 392
#
# _framework density 21.334426000000001
#
# number of rings (size 3 to 8) (size 9 to 14) (size 15 to 20)
#    0.000    1.600    4.667    1.200    2.800    0.000 
#    2.400    0.000    0.000   10.400    0.000    0.000 
#    0.000    0.000    0.000    0.000    0.000    0.000 
#
# Total GULP energy -743834.034422 kJ/mol
# GULP energy per Si atom -12397.233907 kJ/mol
# Density = 2.128587 g / cm^3
# Si number density = 21.334426 Si / 1000 Ang^3
#
#
#
# Elastic Constant Matrix: (Units=GPa)
#
#
# Indices 1 2 3 4 5 6 
#
# 1 71.9317 43.1433 40.2117 0.0000 0.0000 0.0000
# 2 43.1433 156.8904 48.9072 0.0000 0.0000 0.0000
# 3 40.2117 48.9072 91.8597 0.0001 0.0000 0.0000
# 4 0.0000 0.0000 0.0001 -15.4520 0.0000 0.0000
# 5 0.0000 0.0000 0.0000 0.0000 31.0441 0.0000
# 6 0.0000 0.0000 0.0000 0.0000 0.0000 36.2980
#
#
#
# Elastic Compliance Matrix: (Units=1/GPa)
#
#
# Indices 1 2 3 4 5 6 
#
# 1 0.019716 -0.003275 -0.006887 0.000000 0.000000 0.000000
# 2 -0.003275 0.008186 -0.002925 0.000000 0.000000 0.000000
# 3 -0.006887 -0.002925 0.015458 0.000000 0.000000 0.000000
# 4 0.000000 0.000000 0.000000 -0.064717 0.000000 0.000000
# 5 0.000000 0.000000 0.000000 0.000000 0.032212 0.000000
# 6 0.000000 0.000000 0.000000 0.000000 0.000000 0.027550
#
#
# Mechanical properties :
#
#
# Convention : Reuss Voigt Hill
#
# Bulk Modulus (GPa) = 58.18381 65.02290 61.60335
# Shear Modulus (GPa) = 71.11427 22.93933 47.02680
#
# Velocity S-wave (km/s) = 5.77975 3.28262 4.70006
# Velocity P-wave (km/s) = 8.47774 6.70161 7.64145
#
# Compressibility (1/GPa) = 0.01718691
#
# Stress axis : x y z
#
# Youngs Moduli (GPa) = 50.71901 122.15697 64.69006
#
# Poissons Ratio (x) = 0.40005 0.44554
# Poissons Ratio (y) = 0.16610 0.18921
# Poissons Ratio (z) = 0.34932 0.35729
#
# Static dielectric constant tensor:
#      x y z
#    x 3.518310 0.000000 0.000000 
#    y 0.000000 4.137840 0.000000 
#    z 0.000000 0.000000 4.122290 
# 
# 
# High freq. dielectric constant tensor:
#      x y z
#    x 1.844390 0.000000 0.000000 
#    y 0.000000 1.835330 0.000000 
#    z 0.000000 0.000000 1.806420 
# 
# From -- ./inp_files/26222.got.cif
#   From: 2010.03.12/outbox.cif.g09.slc.cpg/sg73_14_cif.got.tgz:26222.got - 2010.04.16 15:25:48.
