data_PCOD8295617
_publ_section_title
;
Structure prediction by ZEFSAII (Michael W. Deem and Ramdas Pophale) SiO2 
 PCOD8295617
Probable space group: I B C A 
;
_chemical_formula_sum "Si O2"
_cell_formula_units_Z 96
_cell_length_a 20.973581
_cell_length_b 22.255465
_cell_length_c 10.089143
_cell_angle_alpha 90.000000
_cell_angle_beta 90.000000
_cell_angle_gamma 90.000000
_cell_volume 4709.377863
_symmetry_space_group_name_H-M "I B C A "
_symmetry_group_IT_number 73
_symmetry_cell_setting 'orthorhombic'
loop_
_space_group_symop_operation_xyz
x,y,z
-x,1/2-y,z
x,-y,1/2-z
1/2-x,y,-z
-x,-y,-z
x,1/2+y,-z
-x,y,1/2+z
1/2+x,-y,z
1/2+x,1/2+y,1/2+z
1/2-x,-y,1/2+z
1/2+x,1/2-y,-z
-x,1/2+y,1/2-z
1/2-x,1/2-y,1/2-z
1/2+x,y,1/2-z
1/2-x,1/2+y,z
x,1/2-y,1/2+z
loop_
_atom_site_type_symbol
_atom_site_label
_atom_site_fract_x
_atom_site_fract_y
_atom_site_fract_z
Si Si1 0.790901 0.257867 0.619119
Si Si2 0.867292 0.643990 0.001209
Si Si3 0.593144 0.790262 0.246753
Si Si4 0.960146 0.163449 0.221582
Si Si5 0.905042 0.521909 0.104141
Si Si6 0.051805 0.453587 0.365711
O O1 0.750000 0.230584 0.500000
O O2 0.750000 0.250000 0.750000
O O3 0.810075 0.328685 0.590724
O O4 0.856060 0.218924 0.628380
O O5 0.867905 0.687023 0.127661
O O6 0.858344 0.574943 0.049796
O O7 0.934678 0.650051 0.925600
O O8 0.537384 0.837327 0.207763
O O9 0.562573 0.726112 0.282245
O O10 0.931766 0.113226 0.319069
O O11 0.881973 0.500000 0.250000
O O12 0.976594 0.546424 0.107837
O O13 0.906209 0.467640 0.997054
O O14 0.070296 0.500000 0.250000
#
# Coordination Sequence:
#
# PCOD8295617 Si02
#       6
#    16  16  16  16  16  16
#     4  11  23  44  65  90 121 168 227 272 327 383
#     4  11  21  40  60  91 135 168 205 274 325 387
#     4  10  22  36  59  93 129 171 200 263 330 394
#     4  10  21  36  56  91 137 170 202 246 330 397
#     4  10  21  34  54  89 123 173 216 249 310 378
#     4  10  18  34  56  80 130 178 213 243 294 396
#
# _framework density 20.384858999999999
#
# number of rings (size 3 to 8) (size 9 to 14) (size 15 to 20)
#    0.000    1.667    5.000    0.000    0.000    5.333 
#    6.000    0.000    0.000    0.000    8.667    0.000 
#    0.000    0.000    0.000    0.000    0.000    0.000 
#
# Total GULP energy -594913.065739 kJ/mol
# GULP energy per Si atom -12394.022203 kJ/mol
# Density = 2.033846 g / cm^3
# Si number density = 20.384859 Si / 1000 Ang^3
#
#
#
# Elastic Constant Matrix: (Units=GPa)
#
#
# Indices 1 2 3 4 5 6 
#
# 1 78.0829 35.9657 49.3791 0.0000 0.0000 0.0000
# 2 35.9657 118.2360 57.8913 0.0000 0.0000 0.0000
# 3 49.3791 57.8913 130.0444 0.0000 0.0000 0.0000
# 4 0.0000 0.0000 0.0000 40.7221 0.0000 0.0000
# 5 0.0000 0.0000 0.0000 0.0000 34.2342 0.0000
# 6 0.0000 0.0000 0.0000 0.0000 0.0000 20.5826
#
#
#
# Elastic Compliance Matrix: (Units=1/GPa)
#
#
# Indices 1 2 3 4 5 6 
#
# 1 0.017477 -0.002643 -0.005460 0.000000 0.000000 0.000000
# 2 -0.002643 0.011215 -0.003989 0.000000 0.000000 0.000000
# 3 -0.005460 -0.003989 0.011538 0.000000 0.000000 0.000000
# 4 0.000000 0.000000 0.000000 0.024557 0.000000 0.000000
# 5 0.000000 0.000000 0.000000 0.000000 0.029211 0.000000
# 6 0.000000 0.000000 0.000000 0.000000 0.000000 0.048585
#
#
# Mechanical properties :
#
#
# Convention : Reuss Voigt Hill
#
# Bulk Modulus (GPa) = 62.31640 68.09282 65.20461
# Shear Modulus (GPa) = 29.05057 31.31627 30.18342
#
# Velocity S-wave (km/s) = 3.77915 3.92376 3.85213
# Velocity P-wave (km/s) = 7.04833 7.34874 7.20010
#
# Compressibility (1/GPa) = 0.01604714
#
# Stress axis : x y z
#
# Youngs Moduli (GPa) = 57.21835 89.16909 86.66731
#
# Poissons Ratio (x) = 0.23568 0.47316
# Poissons Ratio (y) = 0.15123 0.34570
# Poissons Ratio (z) = 0.31239 0.35567
#
# Static dielectric constant tensor:
#      x y z
#    x 3.644460 0.000000 0.000000 
#    y 0.000000 3.690330 0.000000 
#    z 0.000000 0.000000 3.954950 
# 
# 
# High freq. dielectric constant tensor:
#      x y z
#    x 1.757110 0.000000 0.000000 
#    y 0.000000 1.787870 0.000000 
#    z 0.000000 0.000000 1.805110 
# 
# From -- ./inp_files/7180.got.cif
#   From: 2010.03.12/outbox.cif.g09.slc.cpg/sg73_4_cif.got.tgz:7180.got - 2010.04.16 15:25:48.
