data_PCOD8295651
_publ_section_title
;
Structure prediction by ZEFSAII (Michael W. Deem and Ramdas Pophale) SiO2 
 PCOD8295651
Probable space group: I B C A 
;
_chemical_formula_sum "Si O2"
_cell_formula_units_Z 104
_cell_length_a 18.695539
_cell_length_b 17.334600
_cell_length_c 16.148220
_cell_angle_alpha 90.000000
_cell_angle_beta 90.000000
_cell_angle_gamma 90.000000
_cell_volume 5233.310137
_symmetry_space_group_name_H-M "I B C A "
_symmetry_group_IT_number 73
_symmetry_cell_setting 'orthorhombic'
loop_
_space_group_symop_operation_xyz
x,y,z
-x,1/2-y,z
x,-y,1/2-z
1/2-x,y,-z
-x,-y,-z
x,1/2+y,-z
-x,y,1/2+z
1/2+x,-y,z
1/2+x,1/2+y,1/2+z
1/2-x,-y,1/2+z
1/2+x,1/2-y,-z
-x,1/2+y,1/2-z
1/2-x,1/2-y,1/2-z
1/2+x,y,1/2-z
1/2-x,1/2+y,z
x,1/2-y,1/2+z
loop_
_atom_site_type_symbol
_atom_site_label
_atom_site_fract_x
_atom_site_fract_y
_atom_site_fract_z
Si Si1 0.354393 0.072636 0.433252
Si Si2 0.419792 0.974198 0.907627
Si Si3 0.268578 0.965469 0.835575
Si Si4 0.750000 0.196554 0.000000
Si Si5 0.953077 0.678700 0.181892
Si Si6 0.524602 0.928409 0.688719
Si Si7 0.291162 0.788177 0.825158
O O1 0.404837 0.023693 0.494733
O O2 0.291298 0.013811 0.404239
O O3 0.320890 0.144639 0.483270
O O4 0.401605 0.099302 0.353928
O O5 0.347397 0.993649 0.857431
O O6 0.450681 0.889803 0.884964
O O7 0.472724 0.042851 0.884578
O O8 0.262551 0.874085 0.830893
O O9 0.243166 0.000000 0.750000
O O10 0.729222 0.246963 0.082674
O O11 0.874637 0.713981 0.197148
O O12 0.000000 0.750000 0.148371
O O13 0.987808 0.644240 0.265997
O O14 0.538921 0.000000 0.750000
O O15 0.250000 0.750000 0.750000
#
# Coordination Sequence:
#
# PCOD8295651 Si02
#       7
#    16  16  16   8  16  16  16
#     4  11  18  35  57  89 110 153 195 244 291 356
#     4  10  18  38  57  81 114 153 189 240 297 346
#     4  10  19  34  62  85 113 148 200 240 292 352
#     4  10  20  38  64  86 116 158 210 236 300 366
#     4  10  21  37  57  85 115 155 195 239 297 352
#     4  10  22  35  58  85 118 149 197 241 297 357
#     4  10  21  39  65  84 117 161 199 244 300 356
#
# _framework density 19.872699999999998
#
# number of rings (size 3 to 8) (size 9 to 14) (size 15 to 20)
#    0.000    1.846    4.615    3.231    4.308    0.000 
#    0.000    2.308    6.769    0.000    0.000    0.000 
#    0.000    0.000    0.000    0.000    0.000    0.000 
#
# Total GULP energy -644471.596857 kJ/mol
# GULP energy per Si atom -12393.684555 kJ/mol
# Density = 1.982747 g / cm^3
# Si number density = 19.872700 Si / 1000 Ang^3
#
#
#
# Elastic Constant Matrix: (Units=GPa)
#
#
# Indices 1 2 3 4 5 6 
#
# 1 107.1504 29.7426 47.8839 0.0000 0.0000 0.0000
# 2 29.7426 31.8751 16.8957 0.0000 0.0000 0.0000
# 3 47.8839 16.8957 123.4940 0.0000 0.0000 0.0000
# 4 0.0000 0.0000 0.0000 24.3988 0.0000 0.0000
# 5 0.0000 0.0000 0.0000 0.0000 49.0466 0.0000
# 6 0.0000 0.0000 0.0000 0.0000 0.0000 15.4757
#
#
#
# Elastic Compliance Matrix: (Units=1/GPa)
#
#
# Indices 1 2 3 4 5 6 
#
# 1 0.014206 -0.011144 -0.003984 0.000000 0.000000 0.000000
# 2 -0.011144 0.042568 -0.001503 0.000000 0.000000 0.000000
# 3 -0.003984 -0.001503 0.009848 0.000000 0.000000 0.000000
# 4 0.000000 0.000000 0.000000 0.040986 0.000000 0.000000
# 5 0.000000 0.000000 0.000000 0.000000 0.020389 0.000000
# 6 0.000000 0.000000 0.000000 0.000000 0.000000 0.064618
#
#
# Mechanical properties :
#
#
# Convention : Reuss Voigt Hill
#
# Bulk Modulus (GPa) = 29.97567 50.17376 40.07472
# Shear Modulus (GPa) = 21.09744 28.98404 25.04074
#
# Velocity S-wave (km/s) = 3.26180 3.82316 3.55358
# Velocity P-wave (km/s) = 5.41317 6.69261 6.08660
#
# Compressibility (1/GPa) = 0.03336038
#
# Stress axis : x y z
#
# Youngs Moduli (GPa) = 70.39097 23.49195 101.54545
#
# Poissons Ratio (x) = 0.26180 0.40453
# Poissons Ratio (y) = 0.78446 0.15259
# Poissons Ratio (z) = 0.28042 0.03530
#
# Static dielectric constant tensor:
#      x y z
#    x 3.745900 0.000000 0.000000 
#    y 0.000000 3.182470 0.000000 
#    z 0.000000 0.000000 2.175900 
# 
# 
# High freq. dielectric constant tensor:
#      x y z
#    x 1.795650 0.000000 0.000000 
#    y 0.000000 1.719450 0.000000 
#    z 0.000000 0.000000 1.787310 
# 
# From -- ./inp_files/22621.got.cif
#   From: 2010.03.12/outbox.cif.g09.slc.cpg/sg73_12_cif.got.tgz:22621.got - 2010.04.16 15:25:48.
