data_PCOD8295137
_publ_section_title
;
Structure prediction by ZEFSAII (Michael W. Deem and Ramdas Pophale) SiO2 
 PCOD8295137
Probable space group: I B A M
;
_chemical_formula_sum "Si O2"
_cell_formula_units_Z 96
_cell_length_a 13.891261
_cell_length_b 20.349823
_cell_length_c 16.767763
_cell_angle_alpha 90.000000
_cell_angle_beta 90.000000
_cell_angle_gamma 90.000000
_cell_volume 4739.990097
_symmetry_space_group_name_H-M "I B A M"
_symmetry_group_IT_number 72
_symmetry_cell_setting 'orthorhombic'
loop_
_space_group_symop_operation_xyz
x,y,z
-x,-y,z
x,-y,1/2-z
-x,y,1/2-z
-x,-y,-z
x,y,-z
-x,y,1/2+z
x,-y,1/2+z
1/2+x,1/2+y,1/2+z
1/2-x,1/2-y,1/2+z
1/2+x,1/2-y,-z
1/2-x,1/2+y,-z
1/2-x,1/2-y,1/2-z
1/2+x,1/2+y,1/2-z
1/2-x,1/2+y,z
1/2+x,1/2-y,z
loop_
_atom_site_type_symbol
_atom_site_label
_atom_site_fract_x
_atom_site_fract_y
_atom_site_fract_z
Si Si1 0.055405 0.566148 0.593404
Si Si2 0.747187 0.060797 0.807485
Si Si3 0.079831 0.315052 0.408335
Si Si4 0.023081 0.807877 0.340640
Si Si5 0.567462 0.437554 0.408389
Si Si6 0.734593 0.314253 0.198635
O O1 0.080507 0.567410 0.500000
O O2 0.152173 0.574165 0.642438
O O3 0.000000 0.500000 0.617169
O O4 0.989934 0.626975 0.619784
O O5 0.831432 0.043813 0.869138
O O6 0.776185 0.124562 0.757547
O O7 0.729322 0.000000 0.750000
O O8 0.107653 0.322985 0.500000
O O9 0.177803 0.323364 0.360774
O O10 0.027313 0.245794 0.396281
O O11 0.137877 0.807373 0.354003
O O12 0.000000 0.789297 0.250000
O O13 0.981966 0.878633 0.361484
O O14 0.500000 0.500000 0.400303
O O15 0.584132 0.417573 0.500000
O O16 0.750000 0.250000 0.250000
#
# Coordination Sequence:
#
# PCOD8295137 Si02
#       6
#    16  16  16  16  16  16
#     4  10  23  43  64  90 129 171 213 264 320 385
#     4  12  24  39  66  96 125 168 215 262 322 379
#     4  11  25  43  65  94 131 170 213 265 323 381
#     4  12  23  42  68  94 130 167 215 265 318 380
#     4  11  25  43  65  95 131 168 211 264 321 383
#     4  12  24  40  65  95 125 166 210 267 315 376
#
# _framework density 20.253205999999999
#
# number of rings (size 3 to 8) (size 9 to 14) (size 15 to 20)
#    0.000    0.667    3.333    4.000    0.000    3.000 
#    0.000    6.667    0.000    0.000    0.000    0.000 
#    0.000    0.000    0.000    0.000    0.000    0.000 
#
# Total GULP energy -595571.918377 kJ/mol
# GULP energy per Si atom -12407.748300 kJ/mol
# Density = 2.020711 g / cm^3
# Si number density = 20.253206 Si / 1000 Ang^3
#
#
#
# Elastic Constant Matrix: (Units=GPa)
#
#
# Indices 1 2 3 4 5 6 
#
# 1 156.9272 18.3935 61.0896 0.0000 0.0000 0.0000
# 2 18.3935 95.1805 17.6313 0.0000 0.0000 0.0000
# 3 61.0896 17.6313 80.1440 0.0000 0.0000 0.0001
# 4 0.0000 0.0000 0.0000 55.8809 0.0000 0.0000
# 5 0.0000 0.0000 0.0000 0.0000 28.9433 0.0000
# 6 0.0000 0.0000 0.0001 0.0000 0.0000 30.4804
#
#
#
# Elastic Compliance Matrix: (Units=1/GPa)
#
#
# Indices 1 2 3 4 5 6 
#
# 1 0.009083 -0.000493 -0.006815 0.000000 0.000000 0.000000
# 2 -0.000493 0.010979 -0.002040 0.000000 0.000000 0.000000
# 3 -0.006815 -0.002040 0.018121 0.000000 0.000000 0.000000
# 4 0.000000 0.000000 0.000000 0.017895 0.000000 0.000000
# 5 0.000000 0.000000 0.000000 0.000000 0.034550 0.000000
# 6 0.000000 0.000000 0.000000 0.000000 0.000000 0.032808
#
#
# Mechanical properties :
#
#
# Convention : Reuss Voigt Hill
#
# Bulk Modulus (GPa) = 51.31322 58.49784 54.90553
# Shear Modulus (GPa) = 33.64077 38.73673 36.18875
#
# Velocity S-wave (km/s) = 4.07997 4.37810 4.23166
# Velocity P-wave (km/s) = 6.89824 7.38261 7.14453
#
# Compressibility (1/GPa) = 0.01948815
#
# Stress axis : x y z
#
# Youngs Moduli (GPa) = 110.09296 91.07936 55.18399
#
# Poissons Ratio (x) = 0.04489 0.37609
# Poissons Ratio (y) = 0.05426 0.11256
# Poissons Ratio (z) = 0.75031 0.18578
#
# Static dielectric constant tensor:
#      x y z
#    x 3.656180 0.000000 0.000000 
#    y 0.000000 3.811250 0.000000 
#    z 0.000000 0.000000 3.680130 
# 
# 
# High freq. dielectric constant tensor:
#      x y z
#    x 1.809650 0.000000 0.000000 
#    y 0.000000 1.808810 0.000000 
#    z 0.000000 0.000000 1.796800 
# 
# From -- ./inp_files/21813.got.cif
#   From: 2010.03.12/outbox.cif.g09.slc.cpg/sg72_11_cif.got.tgz:21813.got - 2010.04.16 14:54:00.
