data_PCOD8295142
_publ_section_title
;
Structure prediction by ZEFSAII (Michael W. Deem and Ramdas Pophale) SiO2 
 PCOD8295142
Probable space group: I B A M
;
_chemical_formula_sum "Si O2"
_cell_formula_units_Z 96
_cell_length_a 11.186355
_cell_length_b 22.421327
_cell_length_c 17.652754
_cell_angle_alpha 90.000000
_cell_angle_beta 90.000000
_cell_angle_gamma 90.000000
_cell_volume 4427.538837
_symmetry_space_group_name_H-M "I B A M"
_symmetry_group_IT_number 72
_symmetry_cell_setting 'orthorhombic'
loop_
_space_group_symop_operation_xyz
x,y,z
-x,-y,z
x,-y,1/2-z
-x,y,1/2-z
-x,-y,-z
x,y,-z
-x,y,1/2+z
x,-y,1/2+z
1/2+x,1/2+y,1/2+z
1/2-x,1/2-y,1/2+z
1/2+x,1/2-y,-z
1/2-x,1/2+y,-z
1/2-x,1/2-y,1/2-z
1/2+x,1/2+y,1/2-z
1/2-x,1/2+y,z
1/2+x,1/2-y,z
loop_
_atom_site_type_symbol
_atom_site_label
_atom_site_fract_x
_atom_site_fract_y
_atom_site_fract_z
Si Si1 0.947838 0.902707 0.674519
Si Si2 0.210155 0.203988 0.313338
Si Si3 0.561896 0.123223 0.170274
Si Si4 0.773674 0.537896 0.090251
Si Si5 0.642182 0.191319 0.410729
Si Si6 0.311988 0.409062 0.411725
O O1 0.908117 0.836021 0.701171
O O2 0.837961 0.935041 0.634954
O O3 0.000000 0.935013 0.750000
O O4 0.052909 0.905997 0.614387
O O5 0.250000 0.250000 0.250000
O O6 0.316604 0.158407 0.320810
O O7 0.178120 0.241683 0.388417
O O8 0.500000 0.105556 0.250000
O O9 0.600179 0.063592 0.123086
O O10 0.482139 0.169220 0.123383
O O11 0.765034 0.467745 0.108916
O O12 0.765289 0.550796 0.000000
O O13 0.631128 0.188106 0.500000
O O14 0.741911 0.146792 0.376392
O O15 0.318542 0.401853 0.500000
#
# Coordination Sequence:
#
# PCOD8295142 Si02
#       6
#    16  16  16  16  16  16
#     4  11  24  39  67 100 132 173 220 274 331 401
#     4  11  24  42  66  91 133 178 217 271 345 392
#     4  11  24  43  69  95 129 177 225 276 337 402
#     4  10  23  45  69  96 135 177 220 273 338 405
#     4  11  25  41  65  98 129 172 226 271 325 400
#     4  10  23  43  66  95 134 174 215 272 337 395
#
# _framework density 21.682473999999999
#
# number of rings (size 3 to 8) (size 9 to 14) (size 15 to 20)
#    0.000    1.333    1.667    2.500    7.000    7.333 
#    0.000    3.333    0.000    0.000    0.000    0.000 
#    0.000    0.000    0.000    0.000    0.000    0.000 
#
# Total GULP energy -594854.656354 kJ/mol
# GULP energy per Si atom -12392.805341 kJ/mol
# Density = 2.163312 g / cm^3
# Si number density = 21.682474 Si / 1000 Ang^3
#
#
#
# Elastic Constant Matrix: (Units=GPa)
#
#
# Indices 1 2 3 4 5 6 
#
# 1 91.8060 32.7103 40.0250 0.0000 0.0000 0.0000
# 2 32.7103 67.3837 35.4684 0.0000 0.0000 0.0000
# 3 40.0250 35.4684 93.6926 0.0000 0.0000 0.0000
# 4 0.0000 0.0000 0.0000 6.2237 0.0000 0.0000
# 5 0.0000 0.0000 0.0000 0.0000 36.3768 0.0000
# 6 0.0000 0.0000 0.0000 0.0000 0.0000 13.4699
#
#
#
# Elastic Compliance Matrix: (Units=1/GPa)
#
#
# Indices 1 2 3 4 5 6 
#
# 1 0.014494 -0.004717 -0.004406 0.000000 0.000000 0.000000
# 2 -0.004717 0.020068 -0.005582 0.000000 0.000000 0.000000
# 3 -0.004406 -0.005582 0.014669 0.000000 0.000000 0.000000
# 4 0.000000 0.000000 0.000000 0.160677 0.000000 0.000000
# 5 0.000000 0.000000 0.000000 0.000000 0.027490 0.000000
# 6 0.000000 0.000000 0.000000 0.000000 0.000000 0.074240
#
#
# Mechanical properties :
#
#
# Convention : Reuss Voigt Hill
#
# Bulk Modulus (GPa) = 50.45160 52.14330 51.29745
# Shear Modulus (GPa) = 14.38210 20.85933 17.62071
#
# Velocity S-wave (km/s) = 2.57827 3.10504 2.85383
# Velocity P-wave (km/s) = 5.67293 6.07913 5.87954
#
# Compressibility (1/GPa) = 0.01982098
#
# Stress axis : x y z
#
# Youngs Moduli (GPa) = 68.99379 49.83001 68.17225
#
# Poissons Ratio (x) = 0.23503 0.30038
# Poissons Ratio (y) = 0.32542 0.38055
# Poissons Ratio (z) = 0.30400 0.27816
#
# Static dielectric constant tensor:
#      x y z
#    x 4.089120 0.000000 0.000000 
#    y 0.000000 4.127110 0.000000 
#    z 0.000000 0.000000 3.841160 
# 
# 
# High freq. dielectric constant tensor:
#      x y z
#    x 1.865670 0.000000 0.000000 
#    y 0.000000 1.858740 0.000000 
#    z 0.000000 0.000000 1.858460 
# 
# From -- ./inp_files/29423.got.cif
#   From: 2010.03.12/outbox.cif.g09.slc.cpg/sg72_15_cif.got.tgz:29423.got - 2010.04.16 14:54:00.
