data_PCOD8295065
_publ_section_title
;
Structure prediction by ZEFSAII (Michael W. Deem and Ramdas Pophale) SiO2 
 PCOD8295065
Probable space group: I B A M
;
_chemical_formula_sum "Si O2"
_cell_formula_units_Z 88
_cell_length_a 18.056028
_cell_length_b 8.769826
_cell_length_c 26.659727
_cell_angle_alpha 90.000000
_cell_angle_beta 90.000000
_cell_angle_gamma 90.000000
_cell_volume 4221.520418
_symmetry_space_group_name_H-M "I B A M"
_symmetry_group_IT_number 72
_symmetry_cell_setting 'orthorhombic'
loop_
_space_group_symop_operation_xyz
x,y,z
-x,-y,z
x,-y,1/2-z
-x,y,1/2-z
-x,-y,-z
x,y,-z
-x,y,1/2+z
x,-y,1/2+z
1/2+x,1/2+y,1/2+z
1/2-x,1/2-y,1/2+z
1/2+x,1/2-y,-z
1/2-x,1/2+y,-z
1/2-x,1/2-y,1/2-z
1/2+x,1/2+y,1/2-z
1/2-x,1/2+y,z
1/2+x,1/2-y,z
loop_
_atom_site_type_symbol
_atom_site_label
_atom_site_fract_x
_atom_site_fract_y
_atom_site_fract_z
Si Si1 0.471800 0.663125 0.883519
Si Si2 0.938236 0.375033 0.945125
Si Si3 0.878102 0.000000 0.250000
Si Si4 0.166105 0.457095 0.353588
Si Si5 0.048999 0.288090 0.706216
Si Si6 0.319146 0.689657 0.842569
O O1 0.500000 0.500000 0.867931
O O2 0.516885 0.718747 0.932335
O O3 0.492622 0.785355 0.840454
O O4 0.382340 0.655978 0.884730
O O5 0.877798 0.433169 0.905453
O O6 0.000000 0.500000 0.948909
O O7 0.900576 0.351450 0.000000
O O8 0.928774 0.115242 0.218949
O O9 0.831399 0.103140 0.289322
O O10 0.121346 0.385907 0.306826
O O11 0.241533 0.366470 0.363908
O O12 0.184308 0.628318 0.336730
O O13 0.000000 0.364575 0.750000
#
# Coordination Sequence:
#
# PCOD8295065 Si02
#       6
#    16  16   8  16  16  16
#     4  11  21  40  69  97 132 174 219 278 330 392
#     4  10  22  45  73  99 128 168 225 283 343 404
#     4  12  23  42  64  92 131 178 220 266 321 384
#     4  11  27  44  65  96 134 181 219 280 342 397
#     4  11  21  40  63  94 128 174 228 270 317 392
#     4  12  25  44  63  95 138 174 222 269 332 402
#
# _framework density 20.845571
#
# number of rings (size 3 to 8) (size 9 to 14) (size 15 to 20)
#    0.000    0.909    5.455    1.364    2.545    4.000 
#    3.273    1.818    0.000    0.000    0.000    0.000 
#    0.000    0.000    0.000    0.000    0.000    0.000 
#
# Total GULP energy -545325.652284 kJ/mol
# GULP energy per Si atom -12393.764825 kJ/mol
# Density = 2.079813 g / cm^3
# Si number density = 20.845571 Si / 1000 Ang^3
#
#
#
# Elastic Constant Matrix: (Units=GPa)
#
#
# Indices 1 2 3 4 5 6 
#
# 1 138.8784 55.8494 48.1723 0.0000 0.0000 0.0000
# 2 55.8494 122.5534 39.9937 0.0000 0.0000 0.0000
# 3 48.1723 39.9937 120.6766 0.0000 0.0000 0.0000
# 4 0.0000 0.0000 0.0000 18.3495 0.0000 0.0000
# 5 0.0000 0.0000 0.0000 0.0000 23.4133 0.0000
# 6 0.0000 0.0000 0.0000 0.0000 0.0000 30.4851
#
#
#
# Elastic Compliance Matrix: (Units=1/GPa)
#
#
# Indices 1 2 3 4 5 6 
#
# 1 0.009515 -0.003472 -0.002648 0.000000 0.000000 0.000000
# 2 -0.003472 0.010416 -0.002066 0.000000 0.000000 0.000000
# 3 -0.002648 -0.002066 0.010028 0.000000 0.000000 0.000000
# 4 0.000000 0.000000 0.000000 0.054498 0.000000 0.000000
# 5 0.000000 0.000000 0.000000 0.000000 0.042711 0.000000
# 6 0.000000 0.000000 0.000000 0.000000 0.000000 0.032803
#
#
# Mechanical properties :
#
#
# Convention : Reuss Voigt Hill
#
# Bulk Modulus (GPa) = 73.59426 74.45991 74.02709
# Shear Modulus (GPa) = 27.64387 30.32244 28.98316
#
# Velocity S-wave (km/s) = 3.64555 3.81809 3.73282
# Velocity P-wave (km/s) = 7.28706 7.43198 7.35988
#
# Compressibility (1/GPa) = 0.01358802
#
# Stress axis : x y z
#
# Youngs Moduli (GPa) = 105.09433 96.00367 99.71875
#
# Poissons Ratio (x) = 0.33335 0.26402
# Poissons Ratio (y) = 0.36491 0.20602
# Poissons Ratio (z) = 0.27825 0.19834
#
# Static dielectric constant tensor:
#      x y z
#    x 1.295600 0.000000 0.000000 
#    y 0.000000 3.694330 0.000000 
#    z 0.000000 0.000000 4.066130 
# 
# 
# High freq. dielectric constant tensor:
#      x y z
#    x 1.818560 0.000000 0.000000 
#    y 0.000000 1.832950 0.000000 
#    z 0.000000 0.000000 1.792140 
# 
# From -- ./inp_files/52029.got.cif
#   From: 2010.03.12/outbox.cif.g09.slc.cpg/sg72_27_cif.got.tgz:52029.got - 2010.04.16 14:54:00.
