data_PCOD8295073
_publ_section_title
;
Structure prediction by ZEFSAII (Michael W. Deem and Ramdas Pophale) SiO2 
 PCOD8295073
Probable space group: I B A M
;
_chemical_formula_sum "Si O2"
_cell_formula_units_Z 72
_cell_length_a 13.821125
_cell_length_b 18.307357
_cell_length_c 14.026807
_cell_angle_alpha 90.000000
_cell_angle_beta 90.000000
_cell_angle_gamma 90.000000
_cell_volume 3549.178702
_symmetry_space_group_name_H-M "I B A M"
_symmetry_group_IT_number 72
_symmetry_cell_setting 'orthorhombic'
loop_
_space_group_symop_operation_xyz
x,y,z
-x,-y,z
x,-y,1/2-z
-x,y,1/2-z
-x,-y,-z
x,y,-z
-x,y,1/2+z
x,-y,1/2+z
1/2+x,1/2+y,1/2+z
1/2-x,1/2-y,1/2+z
1/2+x,1/2-y,-z
1/2-x,1/2+y,-z
1/2-x,1/2-y,1/2-z
1/2+x,1/2+y,1/2-z
1/2-x,1/2+y,z
1/2+x,1/2-y,z
loop_
_atom_site_type_symbol
_atom_site_label
_atom_site_fract_x
_atom_site_fract_y
_atom_site_fract_z
Si Si1 0.066093 0.886355 0.500000
Si Si2 0.637324 0.449205 0.500000
Si Si3 0.402125 0.329932 0.294696
Si Si4 0.000000 0.309415 0.750000
Si Si5 0.452798 0.079087 0.389868
Si Si6 0.754299 0.072972 0.192626
O O1 0.101908 0.842338 0.592085
O O2 0.950536 0.892266 0.500000
O O3 0.107856 0.967074 0.500000
O O4 0.702161 0.433331 0.589423
O O5 0.500000 0.368164 0.250000
O O6 0.407511 0.242987 0.272205
O O7 0.304196 0.360499 0.248559
O O8 0.976895 0.359689 0.843429
O O9 0.431388 0.097393 0.500000
O O10 0.359446 0.085168 0.321650
O O11 0.500000 0.000000 0.380076
O O12 0.776678 0.000000 0.250000
#
# Coordination Sequence:
#
# PCOD8295073 Si02
#       6
#     8   8  16   8  16  16
#     4  11  20  36  57  93 142 179 208 253 326 401
#     4  11  20  32  60  93 135 177 215 265 320 377
#     4  10  23  37  62  95 136 169 211 259 331 395
#     4  10  23  44  65  92 128 174 208 272 333 384
#     4  11  25  46  71  94 121 170 225 277 328 385
#     4  12  22  39  65  99 133 170 223 270 321 388
#
# _framework density 20.286383000000001
#
# number of rings (size 3 to 8) (size 9 to 14) (size 15 to 20)
#    0.667    0.444    5.556    1.667    1.556    1.333 
#    2.000    0.000    0.000    0.000    0.000    0.000 
#    0.000    0.000    0.000    0.000    0.000    0.000 
#
# Total GULP energy -446277.718222 kJ/mol
# GULP energy per Si atom -12396.603284 kJ/mol
# Density = 2.024021 g / cm^3
# Si number density = 20.286383 Si / 1000 Ang^3
#
#
#
# Elastic Constant Matrix: (Units=GPa)
#
#
# Indices 1 2 3 4 5 6 
#
# 1 80.0067 30.4747 51.6299 0.0000 0.0000 0.0000
# 2 30.4747 129.3959 68.8166 0.0002 0.0000 0.0000
# 3 51.6299 68.8166 175.2125 0.0005 0.0001 0.0000
# 4 0.0000 0.0002 0.0005 52.6403 0.0001 0.0001
# 5 0.0000 0.0000 0.0001 0.0001 38.6077 0.0000
# 6 0.0000 0.0000 0.0000 0.0001 0.0000 24.2499
#
#
#
# Elastic Compliance Matrix: (Units=1/GPa)
#
#
# Indices 1 2 3 4 5 6 
#
# 1 0.015680 -0.001562 -0.004007 0.000000 0.000000 0.000000
# 2 -0.001562 0.009924 -0.003438 0.000000 0.000000 0.000000
# 3 -0.004007 -0.003438 0.008238 0.000000 0.000000 0.000000
# 4 0.000000 0.000000 0.000000 0.018997 0.000000 0.000000
# 5 0.000000 0.000000 0.000000 0.000000 0.025902 0.000000
# 6 0.000000 0.000000 0.000000 0.000000 0.000000 0.041237
#
#
# Mechanical properties :
#
#
# Convention : Reuss Voigt Hill
#
# Bulk Modulus (GPa) = 63.17349 76.27305 69.72327
# Shear Modulus (GPa) = 34.89988 38.67917 36.78952
#
# Velocity S-wave (km/s) = 4.15222 4.37127 4.26315
# Velocity P-wave (km/s) = 7.36182 7.94714 7.66007
#
# Compressibility (1/GPa) = 0.01582942
#
# Stress axis : x y z
#
# Youngs Moduli (GPa) = 63.77724 100.76282 121.38511
#
# Poissons Ratio (x) = 0.15737 0.48638
# Poissons Ratio (y) = 0.09961 0.41728
# Poissons Ratio (z) = 0.25555 0.34639
#
# Static dielectric constant tensor:
#      x y z
#    x 3.600490 0.000000 0.000000 
#    y 0.000000 3.592430 0.000000 
#    z 0.000000 0.000000 4.031450 
# 
# 
# High freq. dielectric constant tensor:
#      x y z
#    x 1.777450 0.000000 0.000000 
#    y 0.000000 1.788020 0.000000 
#    z 0.000000 0.000000 1.810870 
# 
# From -- ./inp_files/21505.got.cif
#   From: 2010.03.12/outbox.cif.g09.slc.cpg/sg72_11_cif.got.tgz:21505.got - 2010.04.16 14:54:00.
