data_PCOD8295978
_publ_section_title
;
Structure prediction by ZEFSAII (Michael W. Deem and Ramdas Pophale) SiO2 
 PCOD8295978
Probable space group: I B C A 
;
_chemical_formula_sum "Si O2"
_cell_formula_units_Z 104
_cell_length_a 30.209968
_cell_length_b 7.932487
_cell_length_c 21.089347
_cell_angle_alpha 90.000000
_cell_angle_beta 90.000000
_cell_angle_gamma 90.000000
_cell_volume 5053.854878
_symmetry_space_group_name_H-M "I B C A "
_symmetry_group_IT_number 73
_symmetry_cell_setting 'orthorhombic'
loop_
_space_group_symop_operation_xyz
x,y,z
-x,1/2-y,z
x,-y,1/2-z
1/2-x,y,-z
-x,-y,-z
x,1/2+y,-z
-x,y,1/2+z
1/2+x,-y,z
1/2+x,1/2+y,1/2+z
1/2-x,-y,1/2+z
1/2+x,1/2-y,-z
-x,1/2+y,1/2-z
1/2-x,1/2-y,1/2-z
1/2+x,y,1/2-z
1/2-x,1/2+y,z
x,1/2-y,1/2+z
loop_
_atom_site_type_symbol
_atom_site_label
_atom_site_fract_x
_atom_site_fract_y
_atom_site_fract_z
Si Si1 0.345888 0.000000 0.250000
Si Si2 0.841321 0.721106 0.970844
Si Si3 0.950097 0.191755 0.907792
Si Si4 0.092488 0.030625 0.994756
Si Si5 0.116209 0.654681 0.699875
Si Si6 0.305976 0.817457 0.894655
Si Si7 0.788756 0.936679 0.367080
O O1 0.376494 0.157848 0.229182
O O2 0.312111 0.082234 0.299847
O O3 0.859772 0.910186 0.976521
O O4 0.808540 0.709150 0.911915
O O5 0.889381 0.632340 0.957578
O O6 0.815181 0.647590 0.031847
O O7 0.930300 0.158443 0.838077
O O8 0.000000 0.250000 0.899474
O O9 0.943885 0.023885 0.951918
O O10 0.925207 0.343531 0.942259
O O11 0.114919 0.500000 0.750000
O O12 0.153981 0.617778 0.648582
O O13 0.263749 0.912099 0.865141
O O14 0.300414 0.617810 0.893760
#
# Coordination Sequence:
#
# PCOD8295978 Si02
#       7
#     8  16  16  16  16  16  16
#     4  10  26  46  64  94 138 186 230 286 318 406
#     4  11  20  38  61  92 133 170 215 268 337 390
#     4  11  23  44  69 103 133 159 223 280 343 427
#     4  10  20  38  69  94 127 170 201 272 344 398
#     4  11  25  46  69  94 132 188 228 276 343 409
#     4  11  24  39  59  94 130 172 230 286 321 396
#     4  11  25  37  60  93 132 176 226 275 327 384
#
# _framework density 20.578351000000001
#
# number of rings (size 3 to 8) (size 9 to 14) (size 15 to 20)
#    0.000    1.231    4.615    1.846    7.538    2.462 
#    1.385    0.000    0.000    0.000    0.000    0.000 
#    0.000    0.000    0.000    0.000    0.000    0.000 
#
# Total GULP energy -644301.785028 kJ/mol
# GULP energy per Si atom -12390.418943 kJ/mol
# Density = 2.053151 g / cm^3
# Si number density = 20.578351 Si / 1000 Ang^3
#
#
#
# Elastic Constant Matrix: (Units=GPa)
#
#
# Indices 1 2 3 4 5 6 
#
# 1 85.3949 19.8276 28.8013 0.0000 0.0000 0.0000
# 2 19.8276 45.9975 28.9085 0.0000 0.0000 0.0000
# 3 28.8013 28.9085 111.3345 0.0000 0.0000 0.0000
# 4 0.0000 0.0000 0.0000 35.1087 0.0000 0.0000
# 5 0.0000 0.0000 0.0000 0.0000 30.2749 0.0000
# 6 0.0000 0.0000 0.0000 0.0000 0.0000 17.9230
#
#
#
# Elastic Compliance Matrix: (Units=1/GPa)
#
#
# Indices 1 2 3 4 5 6 
#
# 1 0.013517 -0.004337 -0.002371 0.000000 0.000000 0.000000
# 2 -0.004337 0.027371 -0.005985 0.000000 0.000000 0.000000
# 3 -0.002371 -0.005985 0.011149 0.000000 0.000000 0.000000
# 4 0.000000 0.000000 0.000000 0.028483 0.000000 0.000000
# 5 0.000000 0.000000 0.000000 0.000000 0.033031 0.000000
# 6 0.000000 0.000000 0.000000 0.000000 0.000000 0.055794
#
#
# Mechanical properties :
#
#
# Convention : Reuss Voigt Hill
#
# Bulk Modulus (GPa) = 37.52017 44.20021 40.86019
# Shear Modulus (GPa) = 24.55623 27.67395 26.11509
#
# Velocity S-wave (km/s) = 3.45817 3.67114 3.56625
# Velocity P-wave (km/s) = 5.84959 6.28453 6.07096
#
# Compressibility (1/GPa) = 0.02665233
#
# Stress axis : x y z
#
# Youngs Moduli (GPa) = 73.98226 36.53469 89.69174
#
# Poissons Ratio (x) = 0.15844 0.21263
# Poissons Ratio (y) = 0.32083 0.53683
# Poissons Ratio (z) = 0.17539 0.21867
#
# Static dielectric constant tensor:
#      x y z
#    x 4.041920 0.000000 0.000000 
#    y 0.000000 4.332400 0.000000 
#    z 0.000000 0.000000 3.714830 
# 
# 
# High freq. dielectric constant tensor:
#      x y z
#    x 1.794400 0.000000 0.000000 
#    y 0.000000 1.824220 0.000000 
#    z 0.000000 0.000000 1.796280 
# 
# From -- ./inp_files/7998.got.cif
#   From: 2010.03.12/outbox.cif.g09.slc.cpg/sg73_4_cif.got.tgz:7998.got - 2010.04.16 15:25:48.
