data_PCOD8295208
_publ_section_title
;
Structure prediction by ZEFSAII (Michael W. Deem and Ramdas Pophale) SiO2 
 PCOD8295208
Probable space group: I B A M
;
_chemical_formula_sum "Si O2"
_cell_formula_units_Z 112
_cell_length_a 14.493178
_cell_length_b 21.244766
_cell_length_c 17.252033
_cell_angle_alpha 90.000000
_cell_angle_beta 90.000000
_cell_angle_gamma 90.000000
_cell_volume 5311.972991
_symmetry_space_group_name_H-M "I B A M"
_symmetry_group_IT_number 72
_symmetry_cell_setting 'orthorhombic'
loop_
_space_group_symop_operation_xyz
x,y,z
-x,-y,z
x,-y,1/2-z
-x,y,1/2-z
-x,-y,-z
x,y,-z
-x,y,1/2+z
x,-y,1/2+z
1/2+x,1/2+y,1/2+z
1/2-x,1/2-y,1/2+z
1/2+x,1/2-y,-z
1/2-x,1/2+y,-z
1/2-x,1/2-y,1/2-z
1/2+x,1/2+y,1/2-z
1/2-x,1/2+y,z
1/2+x,1/2-y,z
loop_
_atom_site_type_symbol
_atom_site_label
_atom_site_fract_x
_atom_site_fract_y
_atom_site_fract_z
Si Si1 0.663033 0.224677 0.089667
Si Si2 0.901213 0.618244 0.662309
Si Si3 0.127569 0.250961 0.589624
Si Si4 0.714712 0.015773 0.589195
Si Si5 0.890904 0.402426 0.661932
Si Si6 0.526598 0.678163 0.338953
Si Si7 0.579078 0.451142 0.910166
O O1 0.768542 0.235550 0.112654
O O2 0.640067 0.151976 0.103485
O O3 0.602647 0.268898 0.144276
O O4 0.643775 0.241215 0.000000
O O5 0.910727 0.690679 0.638595
O O6 0.827275 0.584383 0.607103
O O7 0.866396 0.616363 0.750468
O O8 0.000170 0.584571 0.652854
O O9 0.117764 0.267703 0.500000
O O10 0.064749 0.190650 0.609849
O O11 0.696962 0.998649 0.500000
O O12 0.823167 0.016443 0.608200
O O13 0.664696 0.965429 0.643220
O O14 0.500000 0.681357 0.250000
O O15 0.568314 0.610538 0.358492
O O16 0.500000 0.500000 0.886858
O O17 0.572867 0.431467 0.000000
#
# Coordination Sequence:
#
# PCOD8295208 Si02
#       7
#    16  16  16  16  16  16  16
#     4  11  24  42  66  97 133 173 223 275 325 391
#     4  11  23  42  64  96 135 174 212 268 334 391
#     4  11  24  41  68  98 129 175 225 269 326 396
#     4  11  24  42  67  94 126 175 224 270 328 391
#     4  11  24  41  64  97 135 172 216 271 333 391
#     4  12  25  43  67 100 135 174 216 275 338 395
#     4  10  24  47  69  91 128 174 224 277 328 391
#
# _framework density 21.084444000000001
#
# number of rings (size 3 to 8) (size 9 to 14) (size 15 to 20)
#    0.000    1.000    1.429    4.714    2.000    9.429 
#    2.571    0.000    0.000    0.000    0.000    0.000 
#    0.000    0.000    0.000    0.000    0.000    0.000 
#
# Total GULP energy -694880.919665 kJ/mol
# GULP energy per Si atom -12408.587851 kJ/mol
# Density = 2.103645 g / cm^3
# Si number density = 21.084444 Si / 1000 Ang^3
#
#
#
# Elastic Constant Matrix: (Units=GPa)
#
#
# Indices 1 2 3 4 5 6 
#
# 1 128.9605 26.8016 46.5183 0.0000 0.0000 0.0000
# 2 26.8016 79.6484 21.3694 0.0000 0.0000 0.0000
# 3 46.5183 21.3694 89.1132 0.0001 -0.0001 0.0000
# 4 0.0000 0.0000 0.0001 14.8813 0.0000 0.0000
# 5 0.0000 0.0000 -0.0001 0.0000 20.6095 0.0000
# 6 0.0000 0.0000 0.0000 0.0000 0.0000 36.7033
#
#
#
# Elastic Compliance Matrix: (Units=1/GPa)
#
#
# Indices 1 2 3 4 5 6 
#
# 1 0.009863 -0.002071 -0.004652 0.000000 0.000000 0.000000
# 2 -0.002071 0.013853 -0.002241 0.000000 0.000000 0.000000
# 3 -0.004652 -0.002241 0.014187 0.000000 0.000000 0.000000
# 4 0.000000 0.000000 0.000000 0.067199 0.000000 0.000000
# 5 0.000000 0.000000 0.000000 0.000000 0.048521 0.000000
# 6 0.000000 0.000000 0.000000 0.000000 0.000000 0.027246
#
#
# Mechanical properties :
#
#
# Convention : Reuss Voigt Hill
#
# Bulk Modulus (GPa) = 50.06002 54.12230 52.09116
# Shear Modulus (GPa) = 24.33624 27.97433 26.15528
#
# Velocity S-wave (km/s) = 3.40108 3.64644 3.52590
# Velocity P-wave (km/s) = 6.26237 6.59195 6.42927
#
# Compressibility (1/GPa) = 0.01997602
#
# Stress axis : x y z
#
# Youngs Moduli (GPa) = 101.39231 72.18530 70.48489
#
# Poissons Ratio (x) = 0.14947 0.32789
# Poissons Ratio (y) = 0.20995 0.15796
# Poissons Ratio (z) = 0.47167 0.16177
#
# Static dielectric constant tensor:
#      x y z
#    x 4.026860 0.000000 0.000000 
#    y 0.000000 3.750310 0.000000 
#    z 0.000000 0.000000 3.761330 
# 
# 
# High freq. dielectric constant tensor:
#      x y z
#    x 1.842160 0.000000 0.000000 
#    y 0.000000 1.827770 0.000000 
#    z 0.000000 0.000000 1.831070 
# 
# From -- ./inp_files/22100.got.cif
#   From: 2010.03.12/outbox.cif.g09.slc.cpg/sg72_12_cif.got.tgz:22100.got - 2010.04.16 14:54:00.
