data_PCOD8295255
_publ_section_title
;
Structure prediction by ZEFSAII (Michael W. Deem and Ramdas Pophale) SiO2 
 PCOD8295255
Probable space group: I B A M
;
_chemical_formula_sum "Si O2"
_cell_formula_units_Z 112
_cell_length_a 10.648089
_cell_length_b 31.333810
_cell_length_c 14.639309
_cell_angle_alpha 90.000000
_cell_angle_beta 90.000000
_cell_angle_gamma 90.000000
_cell_volume 4884.335144
_symmetry_space_group_name_H-M "I B A M"
_symmetry_group_IT_number 72
_symmetry_cell_setting 'orthorhombic'
loop_
_space_group_symop_operation_xyz
x,y,z
-x,-y,z
x,-y,1/2-z
-x,y,1/2-z
-x,-y,-z
x,y,-z
-x,y,1/2+z
x,-y,1/2+z
1/2+x,1/2+y,1/2+z
1/2-x,1/2-y,1/2+z
1/2+x,1/2-y,-z
1/2-x,1/2+y,-z
1/2-x,1/2-y,1/2-z
1/2+x,1/2+y,1/2-z
1/2-x,1/2+y,z
1/2+x,1/2-y,z
loop_
_atom_site_type_symbol
_atom_site_label
_atom_site_fract_x
_atom_site_fract_y
_atom_site_fract_z
Si Si1 0.261224 0.919674 0.396673
Si Si2 0.359514 0.506294 0.391744
Si Si3 0.861629 0.641360 0.267132
Si Si4 0.210355 0.714675 0.100827
Si Si5 0.020027 0.135148 0.857227
Si Si6 0.973305 0.766898 0.145200
Si Si7 0.729572 0.403445 0.398701
O O1 0.311164 0.922415 0.500000
O O2 0.370576 0.900551 0.332101
O O3 0.146690 0.887038 0.388955
O O4 0.223153 0.966161 0.359881
O O5 0.500000 0.500000 0.350201
O O6 0.371193 0.508574 0.500000
O O7 0.286201 0.548643 0.357352
O O8 0.785404 0.678904 0.318836
O O9 0.799968 0.628312 0.170841
O O10 0.000000 0.659332 0.250000
O O11 0.328576 0.746839 0.121332
O O12 0.078978 0.739873 0.093573
O O13 0.226954 0.693663 0.000000
O O14 0.020241 0.184278 0.886084
O O15 0.000000 0.128670 0.750000
O O16 0.910501 0.113122 0.913664
O O17 0.000000 0.759784 0.250000
O O18 0.794478 0.403427 0.500000
#
# Coordination Sequence:
#
# PCOD8295255 Si02
#       7
#    16  16  16  16  16  16  16
#     4  11  21  39  68  98 135 177 218 272 345 421
#     4   9  18  34  63 104 138 168 214 279 354 419
#     4  12  27  47  66  92 132 185 240 278 333 406
#     4  12  26  47  75 105 139 181 231 292 354 419
#     4  11  20  38  66 101 138 173 215 270 347 418
#     4  11  24  44  70 101 142 184 230 283 349 417
#     4  11  23  41  66 100 138 174 224 288 344 404
#
# _framework density 22.93045
#
# number of rings (size 3 to 8) (size 9 to 14) (size 15 to 20)
#    0.000    1.000    4.286    3.000    0.000    4.571 
#    0.000    2.857    0.000    2.571    0.000    0.000 
#    0.000    0.000    0.000    0.000    0.000    0.000 
#
# Total GULP energy -694170.694740 kJ/mol
# GULP energy per Si atom -12395.905263 kJ/mol
# Density = 2.287826 g / cm^3
# Si number density = 22.930450 Si / 1000 Ang^3
#
#
#
# Elastic Constant Matrix: (Units=GPa)
#
#
# Indices 1 2 3 4 5 6 
#
# 1 109.6981 31.7600 33.1956 0.0000 -0.0003 -0.0001
# 2 31.7600 97.8630 31.7243 -0.0001 0.0000 0.0001
# 3 33.1956 31.7243 124.5951 -0.0029 0.0000 -0.0002
# 4 0.0000 -0.0001 -0.0029 -10.6435 -0.0003 -0.0001
# 5 -0.0003 0.0000 0.0000 -0.0003 24.3509 0.0002
# 6 -0.0001 0.0001 -0.0002 -0.0001 0.0002 32.2207
#
#
#
# Elastic Compliance Matrix: (Units=1/GPa)
#
#
# Indices 1 2 3 4 5 6 
#
# 1 0.010548 -0.002738 -0.002113 0.000001 0.000000 0.000000
# 2 -0.002738 0.011849 -0.002287 0.000001 0.000000 0.000000
# 3 -0.002113 -0.002287 0.009171 -0.000002 0.000000 0.000000
# 4 0.000001 0.000001 -0.000002 -0.093954 -0.000001 0.000000
# 5 0.000000 0.000000 0.000000 -0.000001 0.041066 0.000000
# 6 0.000000 0.000000 0.000000 0.000000 0.000000 0.031036
#
#
# Mechanical properties :
#
#
# Convention : Reuss Voigt Hill
#
# Bulk Modulus (GPa) = 57.83452 58.39066 58.11259
# Shear Modulus (GPa) = 168.02954 24.88406 96.45680
#
# Velocity S-wave (km/s) = 8.56954 3.29781 6.49279
# Velocity P-wave (km/s) = 11.09921 6.32615 9.03362
#
# Compressibility (1/GPa) = 0.01729071
#
# Stress axis : x y z
#
# Youngs Moduli (GPa) = 94.80330 84.39886 109.03477
#
# Poissons Ratio (x) = 0.23110 0.23040
# Poissons Ratio (y) = 0.25959 0.24940
# Poissons Ratio (z) = 0.20033 0.19305
#
# Static dielectric constant tensor:
#      x y z
#    x 4.131110 0.000000 0.000000 
#    y 0.000000 4.348450 0.000000 
#    z 0.000000 0.000000 4.515880 
# 
# 
# High freq. dielectric constant tensor:
#      x y z
#    x 1.882620 0.000000 0.000000 
#    y 0.000000 1.904760 0.000000 
#    z 0.000000 0.000000 1.914860 
# 
# From -- ./inp_files/20690.got.cif
#   From: 2010.03.12/outbox.cif.g09.slc.cpg/sg72_11_cif.got.tgz:20690.got - 2010.04.16 14:54:00.
