data_PCOD8295669
_publ_section_title
;
Structure prediction by ZEFSAII (Michael W. Deem and Ramdas Pophale) SiO2 
 PCOD8295669
Probable space group: I B C A 
;
_chemical_formula_sum "Si O2"
_cell_formula_units_Z 104
_cell_length_a 14.175377
_cell_length_b 22.202243
_cell_length_c 17.330895
_cell_angle_alpha 90.000000
_cell_angle_beta 90.000000
_cell_angle_gamma 90.000000
_cell_volume 5454.468784
_symmetry_space_group_name_H-M "I B C A "
_symmetry_group_IT_number 73
_symmetry_cell_setting 'orthorhombic'
loop_
_space_group_symop_operation_xyz
x,y,z
-x,1/2-y,z
x,-y,1/2-z
1/2-x,y,-z
-x,-y,-z
x,1/2+y,-z
-x,y,1/2+z
1/2+x,-y,z
1/2+x,1/2+y,1/2+z
1/2-x,-y,1/2+z
1/2+x,1/2-y,-z
-x,1/2+y,1/2-z
1/2-x,1/2-y,1/2-z
1/2+x,y,1/2-z
1/2-x,1/2+y,z
x,1/2-y,1/2+z
loop_
_atom_site_type_symbol
_atom_site_label
_atom_site_fract_x
_atom_site_fract_y
_atom_site_fract_z
Si Si1 0.181770 0.171404 0.730769
Si Si2 0.993588 0.995019 0.875216
Si Si3 0.500000 0.750000 0.085820
Si Si4 0.009799 0.597122 0.246610
Si Si5 0.117775 0.199815 0.219066
Si Si6 0.163039 0.168027 0.548460
Si Si7 0.143621 0.969410 0.992587
O O1 0.120146 0.114319 0.756095
O O2 0.278415 0.169448 0.779548
O O3 0.126348 0.232895 0.753531
O O4 0.195242 0.168039 0.638074
O O5 0.983143 0.932024 0.829449
O O6 0.988111 0.050851 0.819284
O O7 0.094795 0.996886 0.916998
O O8 0.907920 0.003098 0.933465
O O9 0.567474 0.794517 0.135737
O O10 0.569308 0.708435 0.034881
O O11 0.948097 0.656568 0.230208
O O12 0.250000 0.195932 0.500000
O O13 0.138794 0.102786 0.513558
O O14 0.250000 0.992487 0.000000
#
# Coordination Sequence:
#
# PCOD8295669 Si02
#       7
#    16  16   8  16  16  16  16
#     4  10  20  36  57  89 115 150 192 239 296 354
#     4  10  23  36  58  87 114 154 201 235 294 349
#     4  10  18  40  58  84 120 154 184 250 296 350
#     4  11  20  37  58  88 120 149 191 249 292 352
#     4  10  19  34  61  83 114 148 184 235 301 341
#     4  10  20  36  60  82 115 160 197 235 296 359
#     4  10  21  40  57  79 116 159 196 242 286 349
#
# _framework density 19.066935000000001
#
# number of rings (size 3 to 8) (size 9 to 14) (size 15 to 20)
#    0.000    1.846    4.615    0.000    4.308    1.231 
#    0.000    8.462    0.000    4.615    0.000    0.000 
#    0.000    0.000    0.000    0.000    0.000    0.000 
#
# Total GULP energy -644478.647979 kJ/mol
# GULP energy per Si atom -12393.820153 kJ/mol
# Density = 1.902354 g / cm^3
# Si number density = 19.066935 Si / 1000 Ang^3
#
#
#
# Elastic Constant Matrix: (Units=GPa)
#
#
# Indices 1 2 3 4 5 6 
#
# 1 131.3606 35.4696 34.0065 0.0000 0.0000 0.0000
# 2 35.4696 55.1990 13.0714 0.0000 0.0000 0.0000
# 3 34.0065 13.0714 55.9729 0.0002 0.0001 0.0000
# 4 0.0000 0.0000 0.0002 16.0363 0.0000 0.0000
# 5 0.0000 0.0000 0.0001 0.0000 31.0867 0.0000
# 6 0.0000 0.0000 0.0000 0.0000 0.0000 34.1064
#
#
#
# Elastic Compliance Matrix: (Units=1/GPa)
#
#
# Indices 1 2 3 4 5 6 
#
# 1 0.010398 -0.005489 -0.005036 0.000000 0.000000 0.000000
# 2 -0.005489 0.022075 -0.001820 0.000000 0.000000 0.000000
# 3 -0.005036 -0.001820 0.021350 0.000000 0.000000 0.000000
# 4 0.000000 0.000000 0.000000 0.062359 0.000000 0.000000
# 5 0.000000 0.000000 0.000000 0.000000 0.032168 0.000000
# 6 0.000000 0.000000 0.000000 0.000000 0.000000 0.029320
#
#
# Mechanical properties :
#
#
# Convention : Reuss Voigt Hill
#
# Bulk Modulus (GPa) = 34.32509 45.29193 39.80851
# Shear Modulus (GPa) = 23.57699 26.91155 25.24427
#
# Velocity S-wave (km/s) = 3.52026 3.76097 3.64260
# Velocity P-wave (km/s) = 5.87916 6.53189 6.21410
#
# Compressibility (1/GPa) = 0.02913321
#
# Stress axis : x y z
#
# Youngs Moduli (GPa) = 96.16780 45.30098 46.83780
#
# Poissons Ratio (x) = 0.24867 0.23586
# Poissons Ratio (y) = 0.52790 0.08525
# Poissons Ratio (z) = 0.48427 0.08245
#
# Static dielectric constant tensor:
#      x y z
#    x 3.761360 0.000000 0.000000 
#    y 0.000000 3.588190 0.000000 
#    z 0.000000 0.000000 3.364460 
# 
# 
# High freq. dielectric constant tensor:
#      x y z
#    x 1.753480 0.000000 0.000000 
#    y 0.000000 1.742930 0.000000 
#    z 0.000000 0.000000 1.715290 
# 
# From -- ./inp_files/22054.got.cif
#   From: 2010.03.12/outbox.cif.g09.slc.cpg/sg73_12_cif.got.tgz:22054.got - 2010.04.16 15:25:48.
