data_PCOD8295510
_publ_section_title
;
Structure prediction by ZEFSAII (Michael W. Deem and Ramdas Pophale) SiO2 
 PCOD8295510
Probable space group: I B A M
;
_chemical_formula_sum "Si O2"
_cell_formula_units_Z 96
_cell_length_a 25.968297
_cell_length_b 12.929558
_cell_length_c 17.236187
_cell_angle_alpha 90.000000
_cell_angle_beta 90.000000
_cell_angle_gamma 90.000000
_cell_volume 5787.198055
_symmetry_space_group_name_H-M "I B A M"
_symmetry_group_IT_number 72
_symmetry_cell_setting 'orthorhombic'
loop_
_space_group_symop_operation_xyz
x,y,z
-x,-y,z
x,-y,1/2-z
-x,y,1/2-z
-x,-y,-z
x,y,-z
-x,y,1/2+z
x,-y,1/2+z
1/2+x,1/2+y,1/2+z
1/2-x,1/2-y,1/2+z
1/2+x,1/2-y,-z
1/2-x,1/2+y,-z
1/2-x,1/2-y,1/2-z
1/2+x,1/2+y,1/2-z
1/2-x,1/2+y,z
1/2+x,1/2-y,z
loop_
_atom_site_type_symbol
_atom_site_label
_atom_site_fract_x
_atom_site_fract_y
_atom_site_fract_z
Si Si1 0.307964 0.222879 0.768487
Si Si2 0.395980 0.618618 0.268963
Si Si3 0.123033 0.428971 0.178569
Si Si4 0.940541 0.781767 0.412501
Si Si5 0.035139 0.272123 0.820700
Si Si6 0.147621 0.378927 0.587832
O O1 0.250000 0.250000 0.750000
O O2 0.340342 0.328229 0.765488
O O3 0.329246 0.142515 0.704760
O O4 0.310878 0.171970 0.854193
O O5 0.388391 0.500000 0.250000
O O6 0.419768 0.629476 0.355196
O O7 0.434480 0.670083 0.207089
O O8 0.105288 0.500000 0.250000
O O9 0.074617 0.360349 0.152747
O O10 0.140229 0.499756 0.106451
O O11 0.936281 0.823732 0.500000
O O12 0.907123 0.677827 0.400228
O O13 0.999857 0.755297 0.394282
O O14 0.000000 0.313470 0.750000
O O15 0.168057 0.367311 0.500000
#
# Coordination Sequence:
#
# PCOD8295510 Si02
#       6
#    16  16  16  16  16  16
#     4   9  18  33  53  72  91 120 159 199 236 282
#     4   9  18  32  49  68  92 123 160 199 233 269
#     4   9  17  29  46  70  97 124 155 192 232 276
#     4   9  18  31  47  69  96 126 157 189 229 275
#     4   9  17  28  43  67  97 127 160 193 223 265
#     4   9  18  32  49  71  98 123 150 190 239 285
#
# _framework density 16.588338
#
# number of rings (size 3 to 8) (size 9 to 14) (size 15 to 20)
#    0.000    3.000    0.000    3.000    0.000    8.000 
#    0.000    4.167    0.000    7.000    0.000    0.000 
#    0.000    0.000    0.000    0.000    0.000    0.000 
#
# Total GULP energy -595149.134091 kJ/mol
# GULP energy per Si atom -12398.940294 kJ/mol
# Density = 1.655058 g / cm^3
# Si number density = 16.588338 Si / 1000 Ang^3
#
#
#
# Elastic Constant Matrix: (Units=GPa)
#
#
# Indices 1 2 3 4 5 6 
#
# 1 122.5603 53.4423 51.8495 0.0000 0.0000 0.0000
# 2 53.4423 123.1291 53.6982 0.0000 0.0000 0.0000
# 3 51.8495 53.6982 99.8078 0.0000 0.0000 0.0000
# 4 0.0000 0.0000 0.0000 17.7513 0.0000 0.0000
# 5 0.0000 0.0000 0.0000 0.0000 17.4888 0.0000
# 6 0.0000 0.0000 0.0000 0.0000 0.0000 12.8171
#
#
#
# Elastic Compliance Matrix: (Units=1/GPa)
#
#
# Indices 1 2 3 4 5 6 
#
# 1 0.011274 -0.003056 -0.004212 0.000000 0.000000 0.000000
# 2 -0.003056 0.011440 -0.004567 0.000000 0.000000 0.000000
# 3 -0.004212 -0.004567 0.014665 0.000000 0.000000 0.000000
# 4 0.000000 0.000000 0.000000 0.056334 0.000000 0.000000
# 5 0.000000 0.000000 0.000000 0.000000 0.057180 0.000000
# 6 0.000000 0.000000 0.000000 0.000000 0.000000 0.078021
#
#
# Mechanical properties :
#
#
# Convention : Reuss Voigt Hill
#
# Bulk Modulus (GPa) = 72.95537 73.71967 73.33752
# Shear Modulus (GPa) = 19.44365 22.04526 20.74445
#
# Velocity S-wave (km/s) = 3.42735 3.64945 3.54014
# Velocity P-wave (km/s) = 7.72902 7.89272 7.81130
#
# Compressibility (1/GPa) = 0.01370701
#
# Stress axis : x y z
#
# Youngs Moduli (GPa) = 88.69965 87.41381 68.19043
#
# Poissons Ratio (x) = 0.26715 0.28725
# Poissons Ratio (y) = 0.27108 0.31144
# Poissons Ratio (z) = 0.37365 0.39923
#
# Static dielectric constant tensor:
#      x y z
#    x 2.975420 0.000000 0.000000 
#    y 0.000000 3.051830 0.000000 
#    z 0.000000 0.000000 3.142050 
# 
# 
# High freq. dielectric constant tensor:
#      x y z
#    x 1.627550 0.000000 0.000000 
#    y 0.000000 1.632550 0.000000 
#    z 0.000000 0.000000 1.626970 
# 
# From -- ./inp_files/29459.got.cif
#   From: 2010.03.12/outbox.cif.g09.slc.cpg/sg72_15_cif.got.tgz:29459.got - 2010.04.16 14:54:00.
