data_PCOD8295461
_publ_section_title
;
Structure prediction by ZEFSAII (Michael W. Deem and Ramdas Pophale) SiO2 
 PCOD8295461
Probable space group: I B A M
;
_chemical_formula_sum "Si O2"
_cell_formula_units_Z 72
_cell_length_a 24.453505
_cell_length_b 10.060622
_cell_length_c 13.548951
_cell_angle_alpha 90.000000
_cell_angle_beta 90.000000
_cell_angle_gamma 90.000000
_cell_volume 3333.278651
_symmetry_space_group_name_H-M "I B A M"
_symmetry_group_IT_number 72
_symmetry_cell_setting 'orthorhombic'
loop_
_space_group_symop_operation_xyz
x,y,z
-x,-y,z
x,-y,1/2-z
-x,y,1/2-z
-x,-y,-z
x,y,-z
-x,y,1/2+z
x,-y,1/2+z
1/2+x,1/2+y,1/2+z
1/2-x,1/2-y,1/2+z
1/2+x,1/2-y,-z
1/2-x,1/2+y,-z
1/2-x,1/2-y,1/2-z
1/2+x,1/2+y,1/2-z
1/2-x,1/2+y,z
1/2+x,1/2-y,z
loop_
_atom_site_type_symbol
_atom_site_label
_atom_site_fract_x
_atom_site_fract_y
_atom_site_fract_z
Si Si1 0.500000 0.783534 0.250000
Si Si2 0.581390 0.934554 0.889752
Si Si3 0.912724 0.751299 0.109995
Si Si4 0.797262 0.568600 0.617694
Si Si5 0.208290 0.727169 0.382358
O O1 0.535578 0.877337 0.180149
O O2 0.541151 0.691046 0.314994
O O3 0.641386 0.886091 0.853628
O O4 0.580265 0.092900 0.888046
O O5 0.569456 0.882342 0.000000
O O6 0.851322 0.787750 0.144755
O O7 0.923434 0.807308 0.000000
O O8 0.792095 0.559891 0.500000
O O9 0.784758 0.421680 0.662719
O O10 0.755182 0.677046 0.661625
O O11 0.212720 0.717331 0.500000
#
# Coordination Sequence:
#
# PCOD8295461 Si02
#       5
#     8  16  16  16  16
#     4  12  19  26  42  62  89 124 153 182 229 278
#     4   9  17  27  40  62  90 117 148 187 227 269
#     4   9  17  27  40  62  90 117 148 187 227 269
#     4   8  14  26  44  66  92 119 148 186 230 274
#     4   8  14  26  44  66  92 119 148 186 230 274
#
# _framework density 21.600355
#
# number of rings (size 3 to 8) (size 9 to 14) (size 15 to 20)
#    0.000    3.111    0.000    5.333    0.000    1.778 
#    0.000    1.111    0.000    0.000    0.000    3.111 
#    0.000   10.667    0.000    0.000    0.000    0.000 
#
# Total GULP energy -446189.792263 kJ/mol
# GULP energy per Si atom -12394.160896 kJ/mol
# Density = 2.155119 g / cm^3
# Si number density = 21.600355 Si / 1000 Ang^3
#
#
#
# Elastic Constant Matrix: (Units=GPa)
#
#
# Indices 1 2 3 4 5 6 
#
# 1 194.4249 50.3696 55.1983 0.0000 0.0000 0.0000
# 2 50.3696 43.9541 18.5742 0.0000 0.0000 0.0000
# 3 55.1983 18.5742 62.5202 0.0000 0.0000 0.0000
# 4 0.0000 0.0000 0.0000 13.1427 0.0000 0.0000
# 5 0.0000 0.0000 0.0000 0.0000 -38.1062 0.0000
# 6 0.0000 0.0000 0.0000 0.0000 0.0000 21.7141
#
#
#
# Elastic Compliance Matrix: (Units=1/GPa)
#
#
# Indices 1 2 3 4 5 6 
#
# 1 0.008646 -0.007641 -0.005363 0.000000 0.000000 0.000000
# 2 -0.007641 0.032771 -0.002990 0.000000 0.000000 0.000000
# 3 -0.005363 -0.002990 0.021618 0.000000 0.000000 0.000000
# 4 0.000000 0.000000 0.000000 0.076088 0.000000 0.000000
# 5 0.000000 0.000000 0.000000 0.000000 -0.026242 0.000000
# 6 0.000000 0.000000 0.000000 0.000000 0.000000 0.046053
#
#
# Mechanical properties :
#
#
# Convention : Reuss Voigt Hill
#
# Bulk Modulus (GPa) = 32.20945 61.02039 46.61492
# Shear Modulus (GPa) = 24.84242 11.13394 17.98818
#
# Velocity S-wave (km/s) = 3.39498 2.27282 2.88891
# Velocity P-wave (km/s) = 5.50561 5.93285 5.72322
#
# Compressibility (1/GPa) = 0.03104679
#
# Stress axis : x y z
#
# Youngs Moduli (GPa) = 115.66690 30.51500 46.25802
#
# Poissons Ratio (x) = 0.23317 0.24808
# Poissons Ratio (y) = 0.88383 0.13830
# Poissons Ratio (z) = 0.62031 0.09123
#
# Static dielectric constant tensor:
#      x y z
#    x 4.656490 0.000000 0.000000 
#    y 0.000000 3.399880 0.000000 
#    z 0.000000 0.000000 4.445680 
# 
# 
# High freq. dielectric constant tensor:
#      x y z
#    x 1.868260 0.000000 0.000000 
#    y 0.000000 1.760250 0.000000 
#    z 0.000000 0.000000 1.867930 
# 
# From -- ./inp_files/20102.got.cif
#   From: 2010.03.12/outbox.cif.g09.slc.cpg/sg72_11_cif.got.tgz:20102.got - 2010.04.16 14:54:00.
