data_PCOD8295898
_publ_section_title
;
Structure prediction by ZEFSAII (Michael W. Deem and Ramdas Pophale) SiO2 
 PCOD8295898
Probable space group: I B C A 
;
_chemical_formula_sum "Si O2"
_cell_formula_units_Z 72
_cell_length_a 9.290410
_cell_length_b 13.444754
_cell_length_c 28.220921
_cell_angle_alpha 90.000000
_cell_angle_beta 90.000000
_cell_angle_gamma 90.000000
_cell_volume 3524.998397
_symmetry_space_group_name_H-M "I B C A "
_symmetry_group_IT_number 73
_symmetry_cell_setting 'orthorhombic'
loop_
_space_group_symop_operation_xyz
x,y,z
-x,1/2-y,z
x,-y,1/2-z
1/2-x,y,-z
-x,-y,-z
x,1/2+y,-z
-x,y,1/2+z
1/2+x,-y,z
1/2+x,1/2+y,1/2+z
1/2-x,-y,1/2+z
1/2+x,1/2-y,-z
-x,1/2+y,1/2-z
1/2-x,1/2-y,1/2-z
1/2+x,y,1/2-z
1/2-x,1/2+y,z
x,1/2-y,1/2+z
loop_
_atom_site_type_symbol
_atom_site_label
_atom_site_fract_x
_atom_site_fract_y
_atom_site_fract_z
Si Si1 0.991483 0.029195 0.054250
Si Si2 0.768746 0.550991 0.814269
Si Si3 0.520302 0.000000 0.250000
Si Si4 0.854913 0.200735 0.108684
Si Si5 0.771082 0.406582 0.895625
O O1 0.900480 0.131420 0.063757
O O2 0.151583 0.037769 0.073432
O O3 0.924312 0.937858 0.083426
O O4 0.000000 0.000000 0.000000
O O5 0.627163 0.567761 0.781943
O O6 0.914739 0.563346 0.783671
O O7 0.771990 0.636471 0.852855
O O8 0.760693 0.442806 0.840593
O O9 0.743995 0.288551 0.096419
O O10 0.000000 0.250000 0.130026
#
# Coordination Sequence:
#
# PCOD8295898 Si02
#       5
#    16  16   8  16  16
#     4  10  20  37  60  86 116 150 190 235 280 332
#     4  10  20  38  58  82 114 149 187 234 287 338
#     4  10  20  36  60  84 112 146 188 238 284 338
#     4   9  19  37  59  82 114 152 188 231 285 340
#     4  10  20  39  61  82 115 153 187 232 287 341
#
# _framework density 20.425540999999999
#
# number of rings (size 3 to 8) (size 9 to 14) (size 15 to 20)
#    0.000    2.222    0.000    4.667    0.000    0.000 
#    0.000   46.667    0.000    0.000    0.000    0.000 
#    0.000    0.000    0.000    0.000    0.000    0.000 
#
# Total GULP energy -446181.300862 kJ/mol
# GULP energy per Si atom -12393.925024 kJ/mol
# Density = 2.037905 g / cm^3
# Si number density = 20.425541 Si / 1000 Ang^3
#
#
#
# Elastic Constant Matrix: (Units=GPa)
#
#
# Indices 1 2 3 4 5 6 
#
# 1 86.5312 32.0164 44.5359 0.0000 0.0000 0.0000
# 2 32.0164 111.8573 40.2169 0.0000 0.0000 0.0000
# 3 44.5359 40.2169 130.6450 0.0000 0.0000 0.0000
# 4 0.0000 0.0000 0.0000 13.1725 0.0000 0.0000
# 5 0.0000 0.0000 0.0000 0.0000 34.5564 0.0000
# 6 0.0000 0.0000 0.0000 0.0000 0.0000 30.3563
#
#
#
# Elastic Compliance Matrix: (Units=1/GPa)
#
#
# Indices 1 2 3 4 5 6 
#
# 1 0.014710 -0.002707 -0.004181 0.000000 0.000000 0.000000
# 2 -0.002707 0.010551 -0.002325 0.000000 0.000000 0.000000
# 3 -0.004181 -0.002325 0.009795 0.000000 0.000000 0.000000
# 4 0.000000 0.000000 0.000000 0.075916 0.000000 0.000000
# 5 0.000000 0.000000 0.000000 0.000000 0.028938 0.000000
# 6 0.000000 0.000000 0.000000 0.000000 0.000000 0.032942
#
#
# Mechanical properties :
#
#
# Convention : Reuss Voigt Hill
#
# Bulk Modulus (GPa) = 60.13399 62.50798 61.32098
# Shear Modulus (GPa) = 25.40366 29.76801 27.58584
#
# Velocity S-wave (km/s) = 3.53047 3.82172 3.67898
# Velocity P-wave (km/s) = 6.79142 7.08120 6.93782
#
# Compressibility (1/GPa) = 0.01662953
#
# Stress axis : x y z
#
# Youngs Moduli (GPa) = 67.98031 94.78006 102.08864
#
# Poissons Ratio (x) = 0.25658 0.42686
# Poissons Ratio (y) = 0.18403 0.23736
# Poissons Ratio (z) = 0.28424 0.22037
#
# Static dielectric constant tensor:
#      x y z
#    x 3.907420 0.000000 0.000000 
#    y 0.000000 3.761900 0.000000 
#    z 0.000000 0.000000 3.744370 
# 
# 
# High freq. dielectric constant tensor:
#      x y z
#    x 1.810510 0.000000 0.000000 
#    y 0.000000 1.776630 0.000000 
#    z 0.000000 0.000000 1.794610 
# 
# From -- ./inp_files/4768.got.cif
#   From: 2010.03.12/outbox.cif.g09.slc.cpg/sg73_3_cif.got.tgz:4768.got - 2010.04.16 15:25:48.
