data_PCOD8295465
_publ_section_title
;
Structure prediction by ZEFSAII (Michael W. Deem and Ramdas Pophale) SiO2 
 PCOD8295465
Probable space group: I B A M
;
_chemical_formula_sum "Si O2"
_cell_formula_units_Z 112
_cell_length_a 17.012663
_cell_length_b 23.565482
_cell_length_c 14.500646
_cell_angle_alpha 90.000000
_cell_angle_beta 90.000000
_cell_angle_gamma 90.000000
_cell_volume 5813.477243
_symmetry_space_group_name_H-M "I B A M"
_symmetry_group_IT_number 72
_symmetry_cell_setting 'orthorhombic'
loop_
_space_group_symop_operation_xyz
x,y,z
-x,-y,z
x,-y,1/2-z
-x,y,1/2-z
-x,-y,-z
x,y,-z
-x,y,1/2+z
x,-y,1/2+z
1/2+x,1/2+y,1/2+z
1/2-x,1/2-y,1/2+z
1/2+x,1/2-y,-z
1/2-x,1/2+y,-z
1/2-x,1/2-y,1/2-z
1/2+x,1/2+y,1/2-z
1/2-x,1/2+y,z
1/2+x,1/2-y,z
loop_
_atom_site_type_symbol
_atom_site_label
_atom_site_fract_x
_atom_site_fract_y
_atom_site_fract_z
Si Si1 0.588431 0.565480 0.892960
Si Si2 0.698313 0.622848 0.750000
Si Si3 0.000000 0.369534 0.397157
Si Si4 0.873399 0.367795 0.750000
Si Si5 0.624382 0.265908 0.750000
Si Si6 0.411569 0.565480 0.892960
Si Si7 0.500000 0.264556 0.102212
O O1 0.654190 0.600578 0.839992
O O2 0.500000 0.587544 0.869453
O O3 0.594673 0.500000 0.863792
O O4 0.606172 0.573153 0.000000
O O5 0.788685 0.601781 0.750000
O O6 0.699307 0.692198 0.750000
O O7 0.654190 0.600578 0.660008
O O8 0.000000 0.397268 0.500000
O O9 0.078115 0.387504 0.340559
O O10 0.000000 0.302669 0.405964
O O11 0.921885 0.387504 0.340559
O O12 0.857428 0.300428 0.750000
O O13 0.576710 0.283412 0.841966
O O14 0.576710 0.283412 0.658034
O O15 0.393828 0.573153 0.000000
O O16 0.500000 0.292503 0.000000
#
# Coordination Sequence:
#
# PCOD8295465 Si02
#       7
#    16  16  16  16  16  16  16
#     4   9  20  38  55  73 102 137 172 211 253 299
#     4  12  21  29  50  79 103 132 165 208 258 306
#     4   8  15  33  54  63  85 134 176 204 242 290
#     4   9  19  33  47  72 105 132 170 211 247 296
#     4   9  19  30  42  68 104 137 165 205 250 290
#     4   9  20  38  55  73 102 137 172 211 253 299
#     4   8  15  29  46  61  85 132 180 206 232 278
#
# _framework density 19.265578000000001
#
# number of rings (size 3 to 8) (size 9 to 14) (size 15 to 20)
#    0.000    2.857    0.000    3.857    4.000    3.429 
#    0.000    0.000    0.000    8.571    0.000    8.000 
#    0.000   13.714    0.000    0.000    0.000    0.000 
#
# Total GULP energy -693987.369423 kJ/mol
# GULP energy per Si atom -12392.631597 kJ/mol
# Density = 1.922173 g / cm^3
# Si number density = 19.265578 Si / 1000 Ang^3
#
#
#
# Elastic Constant Matrix: (Units=GPa)
#
#
# Indices 1 2 3 4 5 6 
#
# 1 147.7646 20.0136 61.4821 0.0000 0.0000 0.0000
# 2 20.0136 23.8159 14.0603 0.0000 0.0000 0.0000
# 3 61.4821 14.0603 147.0249 0.0001 0.0000 0.0000
# 4 0.0000 0.0000 0.0001 19.9176 0.0000 0.0000
# 5 0.0000 0.0000 0.0000 0.0000 14.9366 0.0000
# 6 0.0000 0.0000 0.0000 0.0000 0.0000 16.4190
#
#
#
# Elastic Compliance Matrix: (Units=1/GPa)
#
#
# Indices 1 2 3 4 5 6 
#
# 1 0.008837 -0.005558 -0.003164 0.000000 0.000000 0.000000
# 2 -0.005558 0.047997 -0.002266 0.000000 0.000000 0.000000
# 3 -0.003164 -0.002266 0.008341 0.000000 0.000000 0.000000
# 4 0.000000 0.000000 0.000000 0.050207 0.000000 0.000000
# 5 0.000000 0.000000 0.000000 0.000000 0.066950 0.000000
# 6 0.000000 0.000000 0.000000 0.000000 0.000000 0.060905
#
#
# Mechanical properties :
#
#
# Convention : Reuss Voigt Hill
#
# Bulk Modulus (GPa) = 23.14824 56.63527 39.89175
# Shear Modulus (GPa) = 17.88192 25.12459 21.50326
#
# Velocity S-wave (km/s) = 3.04991 3.61518 3.34451
# Velocity P-wave (km/s) = 4.94409 6.84740 5.97206
#
# Compressibility (1/GPa) = 0.04319984
#
# Stress axis : x y z
#
# Youngs Moduli (GPa) = 113.16439 20.83452 119.88604
#
# Poissons Ratio (x) = 0.11580 0.37929
# Poissons Ratio (y) = 0.62898 0.27164
# Poissons Ratio (z) = 0.35802 0.04721
#
# Static dielectric constant tensor:
#      x y z
#    x 3.344160 0.000000 0.000000 
#    y 0.000000 3.130890 0.000000 
#    z 0.000000 0.000000 4.002170 
# 
# 
# High freq. dielectric constant tensor:
#      x y z
#    x 1.731670 0.000000 0.000000 
#    y 0.000000 1.719290 0.000000 
#    z 0.000000 0.000000 1.758160 
# 
# From -- ./inp_files/22303.got.cif
#   From: 2010.03.12/outbox.cif.g09.slc.cpg/sg72_12_cif.got.tgz:22303.got - 2010.04.16 14:54:00.
