data_PCOD8295275
_publ_section_title
;
Structure prediction by ZEFSAII (Michael W. Deem and Ramdas Pophale) SiO2 
 PCOD8295275
Probable space group: I B A M
;
_chemical_formula_sum "Si O2"
_cell_formula_units_Z 80
_cell_length_a 32.546707
_cell_length_b 14.726244
_cell_length_c 8.454040
_cell_angle_alpha 90.000000
_cell_angle_beta 90.000000
_cell_angle_gamma 90.000000
_cell_volume 4051.943161
_symmetry_space_group_name_H-M "I B A M"
_symmetry_group_IT_number 72
_symmetry_cell_setting 'orthorhombic'
loop_
_space_group_symop_operation_xyz
x,y,z
-x,-y,z
x,-y,1/2-z
-x,y,1/2-z
-x,-y,-z
x,y,-z
-x,y,1/2+z
x,-y,1/2+z
1/2+x,1/2+y,1/2+z
1/2-x,1/2-y,1/2+z
1/2+x,1/2-y,-z
1/2-x,1/2+y,-z
1/2-x,1/2-y,1/2-z
1/2+x,1/2+y,1/2-z
1/2-x,1/2+y,z
1/2+x,1/2-y,z
loop_
_atom_site_type_symbol
_atom_site_label
_atom_site_fract_x
_atom_site_fract_y
_atom_site_fract_z
Si Si1 0.634995 0.591653 0.818961
Si Si2 0.199864 0.683486 0.183933
Si Si3 0.617041 0.787392 0.314356
Si Si4 0.455003 0.097169 0.813152
Si Si5 0.215723 0.127388 0.821915
O O1 0.613905 0.500000 0.750000
O O2 0.620325 0.680107 0.723993
O O3 0.684718 0.579041 0.800257
O O4 0.622661 0.603378 0.000000
O O5 0.153877 0.653357 0.233361
O O6 0.210616 0.764789 0.302851
O O7 0.235485 0.606334 0.208980
O O8 0.199683 0.714716 0.000000
O O9 0.618331 0.802510 0.500000
O O10 0.574514 0.823229 0.245653
O O11 0.500000 0.120413 0.750000
O O12 0.439458 0.000000 0.750000
O O13 0.456016 0.094028 0.000000
O O14 0.202882 0.100139 0.000000
#
# Coordination Sequence:
#
# PCOD8295275 Si02
#       5
#    16  16  16  16  16
#     4  11  21  34  52  76 108 148 193 238 279 324
#     4   9  16  27  45  70 100 136 178 224 272 320
#     4  11  21  35  56  83 113 147 185 227 276 329
#     4  11  22  40  64  91 118 144 175 215 267 328
#     4   9  16  27  44  67  97 135 180 227 273 319
#
# _framework density 19.743614999999998
#
# number of rings (size 3 to 8) (size 9 to 14) (size 15 to 20)
#    0.000    1.800    0.000    9.600    0.000    2.400 
#    0.000    1.000    0.000    5.400    0.000    4.200 
#    0.000    0.000    0.000    0.000    0.000    0.000 
#
# Total GULP energy -495653.081936 kJ/mol
# GULP energy per Si atom -12391.327048 kJ/mol
# Density = 1.969868 g / cm^3
# Si number density = 19.743615 Si / 1000 Ang^3
#
#
#
# Elastic Constant Matrix: (Units=GPa)
#
#
# Indices 1 2 3 4 5 6 
#
# 1 101.7630 45.9891 35.6469 0.0000 0.0000 0.0000
# 2 45.9891 68.9192 26.1976 0.0000 0.0000 0.0000
# 3 35.6469 26.1976 135.3646 0.0000 0.0000 0.0000
# 4 0.0000 0.0000 0.0000 27.1297 0.0000 0.0000
# 5 0.0000 0.0000 0.0000 0.0000 32.5937 0.0000
# 6 0.0000 0.0000 0.0000 0.0000 0.0000 6.5067
#
#
#
# Elastic Compliance Matrix: (Units=1/GPa)
#
#
# Indices 1 2 3 4 5 6 
#
# 1 0.014611 -0.008945 -0.002116 0.000000 0.000000 0.000000
# 2 -0.008945 0.021138 -0.001735 0.000000 0.000000 0.000000
# 3 -0.002116 -0.001735 0.008281 0.000000 0.000000 0.000000
# 4 0.000000 0.000000 0.000000 0.036860 0.000000 0.000000
# 5 0.000000 0.000000 0.000000 0.000000 0.030681 0.000000
# 6 0.000000 0.000000 0.000000 0.000000 0.000000 0.153689
#
#
# Mechanical properties :
#
#
# Convention : Reuss Voigt Hill
#
# Bulk Modulus (GPa) = 54.24185 57.96823 56.10504
# Shear Modulus (GPa) = 16.83513 26.46023 21.64768
#
# Velocity S-wave (km/s) = 2.92325 3.66483 3.31485
# Velocity P-wave (km/s) = 6.23912 6.87984 6.56730
#
# Compressibility (1/GPa) = 0.01843595
#
# Stress axis : x y z
#
# Youngs Moduli (GPa) = 68.44359 47.30746 120.76360
#
# Poissons Ratio (x) = 0.42317 0.25558
# Poissons Ratio (y) = 0.61223 0.20957
# Poissons Ratio (z) = 0.14485 0.08210
#
# Static dielectric constant tensor:
#      x y z
#    x 3.713810 0.000000 0.000000 
#    y 0.000000 3.181490 0.000000 
#    z 0.000000 0.000000 3.639880 
# 
# 
# High freq. dielectric constant tensor:
#      x y z
#    x 1.751610 0.000000 0.000000 
#    y 0.000000 1.742760 0.000000 
#    z 0.000000 0.000000 1.788460 
# 
# From -- ./inp_files/9020.got.cif
#   From: 2010.03.12/outbox.cif.g09.slc.cpg/sg72_5_cif.got.tgz:9020.got - 2010.04.16 14:54:00.
