data_PCOD8295896
_publ_section_title
;
Structure prediction by ZEFSAII (Michael W. Deem and Ramdas Pophale) SiO2 
 PCOD8295896
Probable space group: I B C A 
;
_chemical_formula_sum "Si O2"
_cell_formula_units_Z 80
_cell_length_a 15.335557
_cell_length_b 13.507687
_cell_length_c 19.005749
_cell_angle_alpha 90.000000
_cell_angle_beta 90.000000
_cell_angle_gamma 90.000000
_cell_volume 3937.001068
_symmetry_space_group_name_H-M "I B C A "
_symmetry_group_IT_number 73
_symmetry_cell_setting 'orthorhombic'
loop_
_space_group_symop_operation_xyz
x,y,z
-x,1/2-y,z
x,-y,1/2-z
1/2-x,y,-z
-x,-y,-z
x,1/2+y,-z
-x,y,1/2+z
1/2+x,-y,z
1/2+x,1/2+y,1/2+z
1/2-x,-y,1/2+z
1/2+x,1/2-y,-z
-x,1/2+y,1/2-z
1/2-x,1/2-y,1/2-z
1/2+x,y,1/2-z
1/2-x,1/2+y,z
x,1/2-y,1/2+z
loop_
_atom_site_type_symbol
_atom_site_label
_atom_site_fract_x
_atom_site_fract_y
_atom_site_fract_z
Si Si1 0.799521 0.000756 0.135435
Si Si2 0.750000 0.892180 0.500000
Si Si3 0.261356 0.134266 0.750331
Si Si4 0.991495 0.508638 0.892839
Si Si5 0.584377 0.000000 0.250000
Si Si6 0.556212 0.345865 0.507625
O O1 0.744950 0.037198 0.068226
O O2 0.806475 0.088333 0.194056
O O3 0.753575 0.905367 0.170307
O O4 0.894352 0.965400 0.111883
O O5 0.660882 0.825578 0.502655
O O6 0.250000 0.250000 0.750000
O O7 0.357285 0.095497 0.727857
O O8 0.026135 0.532346 0.815535
O O9 0.050297 0.426772 0.930708
O O10 0.987356 0.610950 0.936601
O O11 0.500000 0.250000 0.528542
#
# Coordination Sequence:
#
# PCOD8295896 Si02
#       6
#    16   8  16  16   8  16
#     4   9  20  38  58  82 117 152 192 241 291 347
#     4  10  20  40  62  84 120 158 192 244 300 350
#     4  10  21  37  57  84 114 151 195 236 292 352
#     4  10  21  39  59  83 116 152 193 241 291 346
#     4  10  20  36  60  82 114 150 190 242 290 346
#     4  10  22  40  61  88 119 154 199 243 294 356
#
# _framework density 20.320035000000001
#
# number of rings (size 3 to 8) (size 9 to 14) (size 15 to 20)
#    0.000    2.400    0.000    3.600    0.000    6.400 
#    0.000   15.000    0.000    0.000    0.000    0.000 
#    0.000    0.000    0.000    0.000    0.000    0.000 
#
# Total GULP energy -495823.236580 kJ/mol
# GULP energy per Si atom -12395.580915 kJ/mol
# Density = 2.027379 g / cm^3
# Si number density = 20.320035 Si / 1000 Ang^3
#
#
#
# Elastic Constant Matrix: (Units=GPa)
#
#
# Indices 1 2 3 4 5 6 
#
# 1 107.9087 35.9348 23.6491 0.0000 0.0000 0.0000
# 2 35.9348 121.6376 22.6601 0.0000 0.0000 0.0000
# 3 23.6491 22.6601 113.0158 0.0000 0.0000 0.0000
# 4 0.0000 0.0000 0.0000 13.9218 0.0000 0.0000
# 5 0.0000 0.0000 0.0000 0.0000 36.4075 0.0000
# 6 0.0000 0.0000 0.0000 0.0000 0.0000 23.4481
#
#
#
# Elastic Compliance Matrix: (Units=1/GPa)
#
#
# Indices 1 2 3 4 5 6 
#
# 1 0.010565 -0.002815 -0.001646 0.000000 0.000000 0.000000
# 2 -0.002815 0.009290 -0.001274 0.000000 0.000000 0.000000
# 3 -0.001646 -0.001274 0.009448 0.000000 0.000000 0.000000
# 4 0.000000 0.000000 0.000000 0.071830 0.000000 0.000000
# 5 0.000000 0.000000 0.000000 0.000000 0.027467 0.000000
# 6 0.000000 0.000000 0.000000 0.000000 0.000000 0.042647
#
#
# Mechanical properties :
#
#
# Convention : Reuss Voigt Hill
#
# Bulk Modulus (GPa) = 56.07292 56.33889 56.20591
# Shear Modulus (GPa) = 26.50246 32.11000 29.30623
#
# Velocity S-wave (km/s) = 3.61536 3.97950 3.80179
# Velocity P-wave (km/s) = 6.71436 6.99294 6.85506
#
# Compressibility (1/GPa) = 0.01783392
#
# Stress axis : x y z
#
# Youngs Moduli (GPa) = 94.65035 107.64377 105.83985
#
# Poissons Ratio (x) = 0.30296 0.17427
# Poissons Ratio (y) = 0.26639 0.13481
# Poissons Ratio (z) = 0.15584 0.13711
#
# Static dielectric constant tensor:
#      x y z
#    x 3.773340 0.000000 0.000000 
#    y 0.000000 3.243300 0.000000 
#    z 0.000000 0.000000 3.917340 
# 
# 
# High freq. dielectric constant tensor:
#      x y z
#    x 1.801650 0.000000 0.000000 
#    y 0.000000 1.753660 0.000000 
#    z 0.000000 0.000000 1.810250 
# 
# From -- ./inp_files/25904.got.cif
#   From: 2010.03.12/outbox.cif.g09.slc.cpg/sg73_13_cif.got.tgz:25904.got - 2010.04.16 15:25:48.
