data_PCOD8295816
_publ_section_title
;
Structure prediction by ZEFSAII (Michael W. Deem and Ramdas Pophale) SiO2 
 PCOD8295816
Probable space group: I B C A 
;
_chemical_formula_sum "Si O2"
_cell_formula_units_Z 88
_cell_length_a 5.149828
_cell_length_b 32.593715
_cell_length_c 23.459147
_cell_angle_alpha 90.000000
_cell_angle_beta 90.000000
_cell_angle_gamma 90.000000
_cell_volume 3937.665355
_symmetry_space_group_name_H-M "I B C A "
_symmetry_group_IT_number 73
_symmetry_cell_setting 'orthorhombic'
loop_
_space_group_symop_operation_xyz
x,y,z
-x,1/2-y,z
x,-y,1/2-z
1/2-x,y,-z
-x,-y,-z
x,1/2+y,-z
-x,y,1/2+z
1/2+x,-y,z
1/2+x,1/2+y,1/2+z
1/2-x,-y,1/2+z
1/2+x,1/2-y,-z
-x,1/2+y,1/2-z
1/2-x,1/2-y,1/2-z
1/2+x,y,1/2-z
1/2-x,1/2+y,z
x,1/2-y,1/2+z
loop_
_atom_site_type_symbol
_atom_site_label
_atom_site_fract_x
_atom_site_fract_y
_atom_site_fract_z
Si Si1 0.500000 0.250000 0.789113
Si Si2 0.976665 0.204736 0.101105
Si Si3 0.998832 0.432158 0.463271
Si Si4 0.003751 0.611782 0.714218
Si Si5 0.973080 0.153827 0.405383
Si Si6 0.018395 0.474022 0.843341
O O1 0.750000 0.250000 0.750000
O O2 0.502257 0.209721 0.829852
O O3 0.203186 0.175354 0.078341
O O4 0.000000 0.250000 0.072536
O O5 0.703364 0.185638 0.083121
O O6 0.750000 0.443843 0.500000
O O7 0.988095 0.384670 0.446286
O O8 0.004160 0.461041 0.408694
O O9 0.250000 0.442256 0.500000
O O10 0.284948 0.621954 0.739555
O O11 0.966920 0.640678 0.660120
O O12 0.976792 0.564417 0.697519
O O13 0.299837 0.492472 0.829666
#
# Coordination Sequence:
#
# PCOD8295816 Si02
#       6
#     8  16  16  16  16  16
#     4  10  20  32  50  84 116 148 198 238 288 348
#     4  10  22  36  59  84 118 163 191 251 307 349
#     4  11  24  42  66  92 119 155 200 251 309 365
#     4  11  24  39  59  88 122 166 207 239 288 354
#     4  11  22  41  61  87 121 162 203 249 302 361
#     4  11  24  41  63  92 124 156 198 248 299 359
#
# _framework density 22.348265999999999
#
# number of rings (size 3 to 8) (size 9 to 14) (size 15 to 20)
#    0.545    0.727    0.000    6.000    0.000   14.545 
#    0.000    0.000    0.000   10.909    0.000    0.000 
#    0.000    0.000    0.000    0.000    0.000    0.000 
#
# Total GULP energy -545803.333751 kJ/mol
# GULP energy per Si atom -12404.621222 kJ/mol
# Density = 2.229740 g / cm^3
# Si number density = 22.348266 Si / 1000 Ang^3
#
#
#
# Elastic Constant Matrix: (Units=GPa)
#
#
# Indices 1 2 3 4 5 6 
#
# 1 132.5595 8.9113 10.7515 0.0000 0.0000 0.0000
# 2 8.9113 71.6568 -16.3344 0.0000 0.0000 0.0000
# 3 10.7515 -16.3344 23.9044 0.0000 0.0000 0.0000
# 4 0.0000 0.0000 0.0000 14.3941 0.0000 0.0000
# 5 0.0000 0.0000 0.0000 0.0000 9.0116 0.0000
# 6 0.0000 0.0000 0.0000 0.0000 0.0000 34.2585
#
#
#
# Elastic Compliance Matrix: (Units=1/GPa)
#
#
# Indices 1 2 3 4 5 6 
#
# 1 0.008107 -0.002179 -0.005135 0.000000 0.000000 0.000000
# 2 -0.002179 0.017116 0.012675 0.000000 0.000000 0.000000
# 3 -0.005135 0.012675 0.052804 0.000000 0.000000 0.000000
# 4 0.000000 0.000000 0.000000 0.069473 0.000000 0.000000
# 5 0.000000 0.000000 0.000000 0.000000 0.110968 0.000000
# 6 0.000000 0.000000 0.000000 0.000000 0.000000 0.029190
#
#
# Mechanical properties :
#
#
# Convention : Reuss Voigt Hill
#
# Bulk Modulus (GPa) = 11.26753 26.08638 18.67696
# Shear Modulus (GPa) = 16.31228 26.51899 21.41563
#
# Velocity S-wave (km/s) = 2.70462 3.44848 3.09895
# Velocity P-wave (km/s) = 3.84786 5.24919 4.60218
#
# Compressibility (1/GPa) = 0.08875059
#
# Stress axis : x y z
#
# Youngs Moduli (GPa) = 123.35449 58.42568 18.93784
#
# Poissons Ratio (x) = 0.12729 0.09724
# Poissons Ratio (y) = 0.26875 -0.24005
# Poissons Ratio (z) = 0.63341 -0.74057
#
# Static dielectric constant tensor:
#      x y z
#    x 3.948510 0.000000 0.000000 
#    y 0.000000 4.081620 0.000000 
#    z 0.000000 0.000000 4.106120 
# 
# 
# High freq. dielectric constant tensor:
#      x y z
#    x 1.893140 0.000000 0.000000 
#    y 0.000000 1.889680 0.000000 
#    z 0.000000 0.000000 1.875730 
# 
# From -- ./inp_files/28083.got.cif
#   From: 2010.03.12/outbox.cif.g09.slc.cpg/sg73_15_cif.got.tgz:28083.got - 2010.04.16 15:25:48.
