data_PCOD8295451
_publ_section_title
;
Structure prediction by ZEFSAII (Michael W. Deem and Ramdas Pophale) SiO2 
 PCOD8295451
Probable space group: I B A M
;
_chemical_formula_sum "Si O2"
_cell_formula_units_Z 64
_cell_length_a 14.421483
_cell_length_b 8.699973
_cell_length_c 22.121499
_cell_angle_alpha 90.000000
_cell_angle_beta 90.000000
_cell_angle_gamma 90.000000
_cell_volume 2775.507336
_symmetry_space_group_name_H-M "I B A M"
_symmetry_group_IT_number 72
_symmetry_cell_setting 'orthorhombic'
loop_
_space_group_symop_operation_xyz
x,y,z
-x,-y,z
x,-y,1/2-z
-x,y,1/2-z
-x,-y,-z
x,y,-z
-x,y,1/2+z
x,-y,1/2+z
1/2+x,1/2+y,1/2+z
1/2-x,1/2-y,1/2+z
1/2+x,1/2-y,-z
1/2-x,1/2+y,-z
1/2-x,1/2-y,1/2-z
1/2+x,1/2+y,1/2-z
1/2-x,1/2+y,z
1/2+x,1/2-y,z
loop_
_atom_site_type_symbol
_atom_site_label
_atom_site_fract_x
_atom_site_fract_y
_atom_site_fract_z
Si Si1 0.202669 0.132594 0.793623
Si Si2 0.805069 0.211544 0.000000
Si Si3 0.441795 0.227067 0.382343
Si Si4 0.118810 0.865785 0.500000
Si Si5 0.632784 0.899262 0.114823
O O1 0.250000 0.250000 0.750000
O O2 0.113897 0.199077 0.827427
O O3 0.280601 0.078847 0.840886
O O4 0.165562 0.000000 0.750000
O O5 0.842746 0.295448 0.941539
O O6 0.832101 0.032108 0.000000
O O7 0.694623 0.230144 0.000000
O O8 0.444563 0.343051 0.440089
O O9 0.544228 0.189291 0.356094
O O10 0.394311 0.070111 0.405462
#
# Coordination Sequence:
#
# PCOD8295451 Si02
#       5
#    16   8  16   8  16
#     4  12  26  47  72 101 142 190 240 292 348 415
#     4  12  25  42  73 106 144 186 231 299 364 433
#     4  11  25  47  74 107 140 187 234 296 361 430
#     4  12  25  42  73 106 144 184 233 293 372 425
#     4  11  25  47  74 105 143 184 237 292 363 429
#
# _framework density 23.058848000000001
#
# number of rings (size 3 to 8) (size 9 to 14) (size 15 to 20)
#    0.000    0.500    5.000    3.000    3.500    5.000 
#    0.000    1.250    0.000    0.000    0.000    0.000 
#    0.000    0.000    0.000    0.000    0.000    0.000 
#
# Total GULP energy -396745.003663 kJ/mol
# GULP energy per Si atom -12398.281364 kJ/mol
# Density = 2.300637 g / cm^3
# Si number density = 23.058848 Si / 1000 Ang^3
#
#
#
# Elastic Constant Matrix: (Units=GPa)
#
#
# Indices 1 2 3 4 5 6 
#
# 1 116.9050 24.2529 37.3072 0.0000 0.0000 0.0000
# 2 24.2529 114.8874 44.3934 0.0000 0.0000 0.0000
# 3 37.3072 44.3934 125.5951 0.0000 0.0000 0.0000
# 4 0.0000 0.0000 0.0000 52.1813 0.0000 0.0000
# 5 0.0000 0.0000 0.0000 0.0000 5.5868 0.0000
# 6 0.0000 0.0000 0.0000 0.0000 0.0000 39.8788
#
#
#
# Elastic Compliance Matrix: (Units=1/GPa)
#
#
# Indices 1 2 3 4 5 6 
#
# 1 0.009561 -0.001067 -0.002463 0.000000 0.000000 0.000000
# 2 -0.001067 0.010200 -0.003289 0.000000 0.000000 0.000000
# 3 -0.002463 -0.003289 0.009856 0.000000 0.000000 0.000000
# 4 0.000000 0.000000 0.000000 0.019164 0.000000 0.000000
# 5 0.000000 0.000000 0.000000 0.000000 0.178993 0.000000
# 6 0.000000 0.000000 0.000000 0.000000 0.000000 0.025076
#
#
# Mechanical properties :
#
#
# Convention : Reuss Voigt Hill
#
# Bulk Modulus (GPa) = 62.57457 63.25496 62.91477
# Shear Modulus (GPa) = 18.39497 36.29166 27.34331
#
# Velocity S-wave (km/s) = 2.82749 3.97151 3.44729
# Velocity P-wave (km/s) = 6.15268 6.96578 6.57181
#
# Compressibility (1/GPa) = 0.01598093
#
# Stress axis : x y z
#
# Youngs Moduli (GPa) = 104.58867 98.03870 101.45987
#
# Poissons Ratio (x) = 0.10457 0.24990
# Poissons Ratio (y) = 0.11156 0.33365
# Poissons Ratio (z) = 0.25761 0.32240
#
# Static dielectric constant tensor:
#      x y z
#    x 8.954520 0.000000 0.000000 
#    y 0.000000 4.245920 0.000000 
#    z 0.000000 0.000000 3.740310 
# 
# 
# High freq. dielectric constant tensor:
#      x y z
#    x 1.920520 0.000000 0.000000 
#    y 0.000000 1.926090 0.000000 
#    z 0.000000 0.000000 1.908640 
# 
# From -- ./inp_files/41956.got.cif
#   From: 2010.03.12/outbox.cif.g09.slc.cpg/sg72_21_cif.got.tgz:41956.got - 2010.04.16 14:54:00.
