data_PCOD8295311
_publ_section_title
;
Structure prediction by ZEFSAII (Michael W. Deem and Ramdas Pophale) SiO2 
 PCOD8295311
Probable space group: I B A M
;
_chemical_formula_sum "Si O2"
_cell_formula_units_Z 112
_cell_length_a 15.928740
_cell_length_b 31.796855
_cell_length_c 14.466355
_cell_angle_alpha 90.000000
_cell_angle_beta 90.000000
_cell_angle_gamma 90.000000
_cell_volume 7326.974975
_symmetry_space_group_name_H-M "I B A M"
_symmetry_group_IT_number 72
_symmetry_cell_setting 'orthorhombic'
loop_
_space_group_symop_operation_xyz
x,y,z
-x,-y,z
x,-y,1/2-z
-x,y,1/2-z
-x,-y,-z
x,y,-z
-x,y,1/2+z
x,-y,1/2+z
1/2+x,1/2+y,1/2+z
1/2-x,1/2-y,1/2+z
1/2+x,1/2-y,-z
1/2-x,1/2+y,-z
1/2-x,1/2-y,1/2-z
1/2+x,1/2+y,1/2-z
1/2-x,1/2+y,z
1/2+x,1/2-y,z
loop_
_atom_site_type_symbol
_atom_site_label
_atom_site_fract_x
_atom_site_fract_y
_atom_site_fract_z
Si Si1 0.804089 0.765641 0.397205
Si Si2 0.439229 0.117301 0.392363
Si Si3 0.633238 0.106862 0.606435
Si Si4 0.598637 0.953286 0.254654
Si Si5 0.620354 0.792264 0.394438
Si Si6 0.091072 0.788784 0.275304
Si Si7 0.768751 0.824101 0.107298
O O1 0.843701 0.768109 0.500000
O O2 0.720524 0.793187 0.391354
O O3 0.869579 0.782313 0.324690
O O4 0.781307 0.718169 0.371298
O O5 0.421554 0.110137 0.500000
O O6 0.538445 0.121547 0.371042
O O7 0.390067 0.078616 0.342004
O O8 0.405457 0.162067 0.356418
O O9 0.643683 0.095112 0.500000
O O10 0.646253 0.065368 0.666096
O O11 0.704530 0.139666 0.637344
O O12 0.500000 0.958507 0.250000
O O13 0.638773 0.000000 0.250000
O O14 0.588221 0.785320 0.500000
O O15 0.582464 0.754996 0.331657
O O16 0.145228 0.823247 0.332951
O O17 0.000000 0.807337 0.250000
O O18 0.794501 0.827367 0.000000
#
# Coordination Sequence:
#
# PCOD8295311 Si02
#       7
#    16  16  16  16  16  16  16
#     4   9  19  32  44  60  86 118 149 184 227 259
#     4   9  18  29  45  67  89 118 153 185 218 255
#     4   9  18  30  47  66  87 119 155 183 213 256
#     4   9  18  29  43  65  93 120 147 180 219 262
#     4   9  18  32  46  63  87 116 154 191 220 256
#     4  11  22  29  44  65  87 119 149 186 230 264
#     4   9  18  33  47  62  86 115 150 189 220 254
#
# _framework density 15.28598
#
# number of rings (size 3 to 8) (size 9 to 14) (size 15 to 20)
#    0.000    2.714    0.000    3.000    6.000    2.286 
#    0.000    2.857    0.000    0.000    0.000    0.000 
#    0.000    0.571    0.000    3.143    0.000    0.143 
#
# Total GULP energy -693816.884239 kJ/mol
# GULP energy per Si atom -12389.587219 kJ/mol
# Density = 1.525119 g / cm^3
# Si number density = 15.285980 Si / 1000 Ang^3
#
#
#
# Elastic Constant Matrix: (Units=GPa)
#
#
# Indices 1 2 3 4 5 6 
#
# 1 72.4093 39.4846 41.5888 0.0001 -0.0001 -0.0001
# 2 39.4846 106.5547 39.1840 0.0002 -0.0001 -0.0001
# 3 41.5888 39.1840 64.5406 0.0013 -0.0010 -0.0010
# 4 0.0001 0.0002 0.0013 20.7535 -0.0005 -0.0006
# 5 -0.0001 -0.0001 -0.0010 -0.0005 16.8645 0.0000
# 6 -0.0001 -0.0001 -0.0010 -0.0006 0.0000 9.9873
#
#
#
# Elastic Compliance Matrix: (Units=1/GPa)
#
#
# Indices 1 2 3 4 5 6 
#
# 1 0.023169 -0.003985 -0.012510 0.000001 -0.000001 -0.000001
# 2 -0.003985 0.012768 -0.005184 0.000000 0.000000 0.000000
# 3 -0.012510 -0.005184 0.026703 -0.000002 0.000001 0.000002
# 4 0.000001 0.000000 -0.000002 0.048185 0.000001 0.000003
# 5 -0.000001 0.000000 0.000001 0.000001 0.059296 0.000000
# 6 -0.000001 0.000000 0.000002 0.000003 0.000000 0.100127
#
#
# Mechanical properties :
#
#
# Convention : Reuss Voigt Hill
#
# Bulk Modulus (GPa) = 51.86350 53.77992 52.82171
# Shear Modulus (GPa) = 15.62346 17.73754 16.68050
#
# Velocity S-wave (km/s) = 3.20046 3.41013 3.30696
# Velocity P-wave (km/s) = 6.90360 7.12490 7.01512
#
# Compressibility (1/GPa) = 0.01928138
#
# Stress axis : x y z
#
# Youngs Moduli (GPa) = 43.16185 78.32237 37.44950
#
# Poissons Ratio (x) = 0.31210 0.46850
# Poissons Ratio (y) = 0.17199 0.19413
# Poissons Ratio (z) = 0.53996 0.40601
#
# Static dielectric constant tensor:
#      x y z
#    x 2.805390 0.000000 0.000000 
#    y 0.000000 3.035430 0.000000 
#    z 0.000000 0.000000 3.192610 
# 
# 
# High freq. dielectric constant tensor:
#      x y z
#    x 1.554040 0.000000 0.000000 
#    y 0.000000 1.557910 0.000000 
#    z 0.000000 0.000000 1.605600 
# 
# From -- ./inp_files/22443.got.cif
#   From: 2010.03.12/outbox.cif.g09.slc.cpg/sg72_12_cif.got.tgz:22443.got - 2010.04.16 14:54:00.
