data_PCOD8295387
_publ_section_title
;
Structure prediction by ZEFSAII (Michael W. Deem and Ramdas Pophale) SiO2 
 PCOD8295387
Probable space group: I B A M
;
_chemical_formula_sum "Si O2"
_cell_formula_units_Z 88
_cell_length_a 27.146747
_cell_length_b 7.491555
_cell_length_c 19.349944
_cell_angle_alpha 90.000000
_cell_angle_beta 90.000000
_cell_angle_gamma 90.000000
_cell_volume 3935.224199
_symmetry_space_group_name_H-M "I B A M"
_symmetry_group_IT_number 72
_symmetry_cell_setting 'orthorhombic'
loop_
_space_group_symop_operation_xyz
x,y,z
-x,-y,z
x,-y,1/2-z
-x,y,1/2-z
-x,-y,-z
x,y,-z
-x,y,1/2+z
x,-y,1/2+z
1/2+x,1/2+y,1/2+z
1/2-x,1/2-y,1/2+z
1/2+x,1/2-y,-z
1/2-x,1/2+y,-z
1/2-x,1/2-y,1/2-z
1/2+x,1/2+y,1/2-z
1/2-x,1/2+y,z
1/2+x,1/2-y,z
loop_
_atom_site_type_symbol
_atom_site_label
_atom_site_fract_x
_atom_site_fract_y
_atom_site_fract_z
Si Si1 0.874731 0.523322 0.168494
Si Si2 0.000000 0.000000 0.123919
Si Si3 0.957797 0.361916 0.922332
Si Si4 0.288686 0.897125 0.077740
Si Si5 0.682722 0.488849 0.423562
Si Si6 0.896628 0.068044 0.323459
O O1 0.868658 0.500000 0.250000
O O2 0.915155 0.389488 0.135220
O O3 0.823160 0.485638 0.128701
O O4 0.889129 0.727168 0.157565
O O5 0.045315 0.041739 0.173563
O O6 0.982746 0.166572 0.077487
O O7 0.000000 0.500000 0.902454
O O8 0.937383 0.398846 0.000000
O O9 0.308137 0.698571 0.075677
O O10 0.232366 0.896023 0.105498
O O11 0.289608 0.981390 0.000000
O O12 0.670104 0.417566 0.500000
O O13 0.634871 0.446890 0.377085
O O14 0.876956 0.000000 0.250000
#
# Coordination Sequence:
#
# PCOD8295387 Si02
#       6
#    16   8  16  16  16  16
#     4  11  23  41  63  92 130 173 213 266 329 386
#     4  12  24  44  66  98 129 173 218 268 326 386
#     4  11  24  43  67  97 130 167 216 270 320 382
#     4   9  19  38  63  90 121 163 209 263 326 387
#     4   9  20  38  62  88 122 162 208 267 326 384
#     4  11  24  41  61  92 129 169 218 270 323 388
#
# _framework density 22.362131000000002
#
# number of rings (size 3 to 8) (size 9 to 14) (size 15 to 20)
#    0.000    1.636    1.818    2.182    0.000    6.182 
#    0.000    5.455    0.000    0.000    0.000    0.000 
#    0.000    0.000    0.000    0.000    0.000    0.000 
#
# Total GULP energy -545440.558634 kJ/mol
# GULP energy per Si atom -12396.376333 kJ/mol
# Density = 2.231123 g / cm^3
# Si number density = 22.362131 Si / 1000 Ang^3
#
#
#
# Elastic Constant Matrix: (Units=GPa)
#
#
# Indices 1 2 3 4 5 6 
#
# 1 159.0752 19.4235 80.1774 0.0000 0.0000 0.0000
# 2 19.4235 58.9945 11.3744 0.0000 0.0000 0.0000
# 3 80.1774 11.3744 139.6045 0.0000 0.0000 0.0000
# 4 0.0000 0.0000 0.0000 27.0143 0.0000 0.0000
# 5 0.0000 0.0000 0.0000 0.0000 -62.0997 0.0000
# 6 0.0000 0.0000 0.0000 0.0000 0.0000 32.6819
#
#
#
# Elastic Compliance Matrix: (Units=1/GPa)
#
#
# Indices 1 2 3 4 5 6 
#
# 1 0.009077 -0.002015 -0.005049 0.000000 0.000000 0.000000
# 2 -0.002015 0.017669 -0.000282 0.000000 0.000000 0.000000
# 3 -0.005049 -0.000282 0.010086 0.000000 0.000000 0.000000
# 4 0.000000 0.000000 0.000000 0.037017 0.000000 0.000000
# 5 0.000000 0.000000 0.000000 0.000000 -0.016103 0.000000
# 6 0.000000 0.000000 0.000000 0.000000 0.000000 0.030598
#
#
# Mechanical properties :
#
#
# Convention : Reuss Voigt Hill
#
# Bulk Modulus (GPa) = 45.16939 64.40275 54.78607
# Shear Modulus (GPa) = 45.28313 15.96589 30.62451
#
# Velocity S-wave (km/s) = 4.50487 2.67492 3.70466
# Velocity P-wave (km/s) = 6.87760 6.19699 6.54615
#
# Compressibility (1/GPa) = 0.02213888
#
# Stress axis : x y z
#
# Youngs Moduli (GPa) = 110.16603 56.59750 99.14893
#
# Poissons Ratio (x) = 0.11405 0.50061
# Poissons Ratio (y) = 0.22200 0.02798
# Poissons Ratio (z) = 0.55623 0.01597
#
# Static dielectric constant tensor:
#      x y z
#    x 4.229470 0.000000 0.000000 
#    y 0.000000 4.127100 0.000000 
#    z 0.000000 0.000000 4.036850 
# 
# 
# High freq. dielectric constant tensor:
#      x y z
#    x 1.888750 0.000000 0.000000 
#    y 0.000000 1.885440 0.000000 
#    z 0.000000 0.000000 1.870180 
# 
# From -- ./inp_files/40151.got.cif
#   From: 2010.03.12/outbox.cif.g09.slc.cpg/sg72_21_cif.got.tgz:40151.got - 2010.04.16 14:54:00.
