data_PCOD8295779
_publ_section_title
;
Structure prediction by ZEFSAII (Michael W. Deem and Ramdas Pophale) SiO2 
 PCOD8295779
Probable space group: I B C A 
;
_chemical_formula_sum "Si O2"
_cell_formula_units_Z 88
_cell_length_a 19.917676
_cell_length_b 21.537899
_cell_length_c 8.404789
_cell_angle_alpha 90.000000
_cell_angle_beta 90.000000
_cell_angle_gamma 90.000000
_cell_volume 3605.527518
_symmetry_space_group_name_H-M "I B C A "
_symmetry_group_IT_number 73
_symmetry_cell_setting 'orthorhombic'
loop_
_space_group_symop_operation_xyz
x,y,z
-x,1/2-y,z
x,-y,1/2-z
1/2-x,y,-z
-x,-y,-z
x,1/2+y,-z
-x,y,1/2+z
1/2+x,-y,z
1/2+x,1/2+y,1/2+z
1/2-x,-y,1/2+z
1/2+x,1/2-y,-z
-x,1/2+y,1/2-z
1/2-x,1/2-y,1/2-z
1/2+x,y,1/2-z
1/2-x,1/2+y,z
x,1/2-y,1/2+z
loop_
_atom_site_type_symbol
_atom_site_label
_atom_site_fract_x
_atom_site_fract_y
_atom_site_fract_z
Si Si1 0.085443 0.890529 0.660380
Si Si2 0.000000 0.250000 0.632019
Si Si3 0.138328 0.718716 0.368176
Si Si4 0.680344 0.662247 0.823106
Si Si5 0.226416 0.064197 0.821262
Si Si6 0.952418 0.376115 0.204303
O O1 0.116504 0.825789 0.723757
O O2 0.145502 0.939530 0.682972
O O3 0.065812 0.883921 0.477799
O O4 0.017581 0.917379 0.746759
O O5 0.068788 0.235279 0.534716
O O6 0.019446 0.307463 0.745553
O O7 0.175074 0.779793 0.299087
O O8 0.187044 0.685957 0.495461
O O9 0.746353 0.622566 0.781342
O O10 0.615467 0.615778 0.807927
O O11 0.254894 0.000000 0.750000
O O12 0.250000 0.073257 0.000000
#
# Coordination Sequence:
#
# PCOD8295779 Si02
#       6
#    16   8  16  16  16  16
#     4  11  23  43  72 109 151 188 245 296 372 433
#     4   8  16  30  56  98 150 186 214 254 362 430
#     4  10  21  37  69 114 153 194 229 296 361 449
#     4  11  23  43  73 110 154 191 241 290 372 438
#     4  12  30  55  76  99 144 201 255 307 367 435
#     4  10  19  38  66 107 149 188 230 297 352 448
#
# _framework density 24.406970000000001
#
# number of rings (size 3 to 8) (size 9 to 14) (size 15 to 20)
#    0.000    1.455    1.818    4.364    2.545    6.545 
#    0.000    1.818    0.000    0.000    0.000    0.000 
#    0.000    0.000    0.000    0.000    0.000    0.000 
#
# Total GULP energy -545095.970920 kJ/mol
# GULP energy per Si atom -12388.544794 kJ/mol
# Density = 2.435142 g / cm^3
# Si number density = 24.406970 Si / 1000 Ang^3
#
#
#
# Elastic Constant Matrix: (Units=GPa)
#
#
# Indices 1 2 3 4 5 6 
#
# 1 124.5963 3.8402 2.4946 0.0000 0.0000 0.0000
# 2 3.8402 62.8906 30.4282 0.0000 0.0000 0.0000
# 3 2.4946 30.4282 65.9381 0.0000 0.0000 0.0000
# 4 0.0000 0.0000 0.0000 22.1903 0.0000 0.0000
# 5 0.0000 0.0000 0.0000 0.0000 21.7217 0.0000
# 6 0.0000 0.0000 0.0000 0.0000 0.0000 15.8271
#
#
#
# Elastic Compliance Matrix: (Units=1/GPa)
#
#
# Indices 1 2 3 4 5 6 
#
# 1 0.008042 -0.000443 -0.000100 0.000000 0.000000 0.000000
# 2 -0.000443 0.020496 -0.009441 0.000000 0.000000 0.000000
# 3 -0.000100 -0.009441 0.019526 0.000000 0.000000 0.000000
# 4 0.000000 0.000000 0.000000 0.045065 0.000000 0.000000
# 5 0.000000 0.000000 0.000000 0.000000 0.046037 0.000000
# 6 0.000000 0.000000 0.000000 0.000000 0.000000 0.063183
#
#
# Mechanical properties :
#
#
# Convention : Reuss Voigt Hill
#
# Bulk Modulus (GPa) = 35.59263 36.32790 35.96026
# Shear Modulus (GPa) = 21.58141 26.39197 23.98669
#
# Velocity S-wave (km/s) = 2.97683 3.29192 3.13833
# Velocity P-wave (km/s) = 5.14101 5.41900 5.28183
#
# Compressibility (1/GPa) = 0.02809571
#
# Stress axis : x y z
#
# Youngs Moduli (GPa) = 124.35394 48.79098 51.21287
#
# Poissons Ratio (x) = 0.02160 0.00512
# Poissons Ratio (y) = 0.05505 0.48351
# Poissons Ratio (z) = 0.01243 0.46065
#
# Static dielectric constant tensor:
#      x y z
#    x 5.157910 0.000000 0.000000 
#    y 0.000000 3.999660 0.000000 
#    z 0.000000 0.000000 4.058160 
# 
# 
# High freq. dielectric constant tensor:
#      x y z
#    x 2.005190 0.000000 0.000000 
#    y 0.000000 1.920130 0.000000 
#    z 0.000000 0.000000 1.960620 
# 
# From -- ./inp_files/6311.got.cif
#   From: 2010.03.12/outbox.cif.g09.slc.cpg/sg73_4_cif.got.tgz:6311.got - 2010.04.16 15:25:48.
