data_PCOD8295885
_publ_section_title
;
Structure prediction by ZEFSAII (Michael W. Deem and Ramdas Pophale) SiO2 
 PCOD8295885
Probable space group: I B C A 
;
_chemical_formula_sum "Si O2"
_cell_formula_units_Z 120
_cell_length_a 12.066052
_cell_length_b 22.041355
_cell_length_c 24.489192
_cell_angle_alpha 90.000000
_cell_angle_beta 90.000000
_cell_angle_gamma 90.000000
_cell_volume 6512.952911
_symmetry_space_group_name_H-M "I B C A "
_symmetry_group_IT_number 73
_symmetry_cell_setting 'orthorhombic'
loop_
_space_group_symop_operation_xyz
x,y,z
-x,1/2-y,z
x,-y,1/2-z
1/2-x,y,-z
-x,-y,-z
x,1/2+y,-z
-x,y,1/2+z
1/2+x,-y,z
1/2+x,1/2+y,1/2+z
1/2-x,-y,1/2+z
1/2+x,1/2-y,-z
-x,1/2+y,1/2-z
1/2-x,1/2-y,1/2-z
1/2+x,y,1/2-z
1/2-x,1/2+y,z
x,1/2-y,1/2+z
loop_
_atom_site_type_symbol
_atom_site_label
_atom_site_fract_x
_atom_site_fract_y
_atom_site_fract_z
Si Si1 0.491526 0.926668 0.202275
Si Si2 0.882159 0.864028 0.887286
Si Si3 0.500000 0.750000 0.075420
Si Si4 0.958919 0.060738 0.822638
Si Si5 0.281143 0.565385 0.633864
Si Si6 0.834467 0.430658 0.899021
Si Si7 0.645563 0.853252 0.532574
Si Si8 0.537328 0.068573 0.495425
O O1 0.554423 0.876099 0.168541
O O2 0.505945 0.908441 0.265473
O O3 0.361629 0.931100 0.186555
O O4 0.551541 0.989384 0.187473
O O5 0.910373 0.792722 0.893564
O O6 0.751516 0.878001 0.881196
O O7 0.926728 0.908986 0.935105
O O8 0.425210 0.793321 0.039731
O O9 0.841028 0.083728 0.845535
O O10 0.052745 0.077745 0.865896
O O11 0.282067 0.497527 0.608759
O O12 0.324412 0.613185 0.589165
O O13 0.863233 0.419283 0.962565
O O14 0.750000 0.830710 0.500000
O O15 0.576308 0.896179 0.491504
O O16 0.500000 0.000000 0.500000
#
# Coordination Sequence:
#
# PCOD8295885 Si02
#       8
#    16  16   8  16  16  16  16  16
#     4  10  20  36  57  86 120 166 195 247 311 377
#     4  11  22  40  60  86 118 166 210 251 296 370
#     4  10  24  44  58  84 118 178 228 236 292 374
#     4  10  22  33  58  93 126 152 198 253 322 373
#     4  11  20  37  57  90 127 159 198 248 322 377
#     4  11  22  34  58  92 129 157 197 256 315 373
#     4  11  23  37  62  85 125 167 207 258 305 365
#     4  11  20  34  56  91 126 157 198 246 319 382
#
# _framework density 18.424821999999999
#
# number of rings (size 3 to 8) (size 9 to 14) (size 15 to 20)
#    0.000    1.333    5.333    2.000    3.733    3.200 
#    0.000    0.000    0.000    3.200    0.000    0.000 
#    0.000    0.000    0.000    0.000    0.000    0.000 
#
# Total GULP energy -743666.308991 kJ/mol
# GULP energy per Si atom -12394.438483 kJ/mol
# Density = 1.838289 g / cm^3
# Si number density = 18.424822 Si / 1000 Ang^3
#
#
#
# Elastic Constant Matrix: (Units=GPa)
#
#
# Indices 1 2 3 4 5 6 
#
# 1 133.0095 48.2239 36.5410 0.0000 0.0000 0.0000
# 2 48.2239 107.9540 33.0400 0.0000 0.0000 0.0000
# 3 36.5410 33.0400 87.7182 0.0000 0.0000 0.0000
# 4 0.0000 0.0000 0.0000 16.0534 0.0000 0.0000
# 5 0.0000 0.0000 0.0000 0.0000 28.3382 0.0000
# 6 0.0000 0.0000 0.0000 0.0000 0.0000 32.3119
#
#
#
# Elastic Compliance Matrix: (Units=1/GPa)
#
#
# Indices 1 2 3 4 5 6 
#
# 1 0.009492 -0.003425 -0.002664 0.000000 0.000000 0.000000
# 2 -0.003425 0.011706 -0.002983 0.000000 0.000000 0.000000
# 3 -0.002664 -0.002983 0.013633 0.000000 0.000000 0.000000
# 4 0.000000 0.000000 0.000000 0.062292 0.000000 0.000000
# 5 0.000000 0.000000 0.000000 0.000000 0.035288 0.000000
# 6 0.000000 0.000000 0.000000 0.000000 0.000000 0.030948
#
#
# Mechanical properties :
#
#
# Convention : Reuss Voigt Hill
#
# Bulk Modulus (GPa) = 59.92177 62.69904 61.31041
# Shear Modulus (GPa) = 26.72869 29.39916 28.06392
#
# Velocity S-wave (km/s) = 3.81292 3.99886 3.90700
# Velocity P-wave (km/s) = 7.20954 7.44478 7.32810
#
# Compressibility (1/GPa) = 0.01668842
#
# Stress axis : x y z
#
# Youngs Moduli (GPa) = 105.35409 85.42731 73.34972
#
# Poissons Ratio (x) = 0.29256 0.19541
# Poissons Ratio (y) = 0.36081 0.21877
# Poissons Ratio (z) = 0.28067 0.25479
#
# Static dielectric constant tensor:
#      x y z
#    x 3.739930 0.000000 0.000000 
#    y 0.000000 3.183370 0.000000 
#    z 0.000000 0.000000 1.825110 
# 
# 
# High freq. dielectric constant tensor:
#      x y z
#    x 1.735780 0.000000 0.000000 
#    y 0.000000 1.679210 0.000000 
#    z 0.000000 0.000000 1.710700 
# 
# From -- ./inp_files/29089.got.cif
#   From: 2010.03.12/outbox.cif.g09.slc.cpg/sg73_15_cif.got.tgz:29089.got - 2010.04.16 15:25:48.
