data_PCOD8295711
_publ_section_title
;
Structure prediction by ZEFSAII (Michael W. Deem and Ramdas Pophale) SiO2 
 PCOD8295711
Probable space group: I B C A 
;
_chemical_formula_sum "Si O2"
_cell_formula_units_Z 88
_cell_length_a 20.342142
_cell_length_b 17.495211
_cell_length_c 11.505889
_cell_angle_alpha 90.000000
_cell_angle_beta 90.000000
_cell_angle_gamma 90.000000
_cell_volume 4094.831601
_symmetry_space_group_name_H-M "I B C A "
_symmetry_group_IT_number 73
_symmetry_cell_setting 'orthorhombic'
loop_
_space_group_symop_operation_xyz
x,y,z
-x,1/2-y,z
x,-y,1/2-z
1/2-x,y,-z
-x,-y,-z
x,1/2+y,-z
-x,y,1/2+z
1/2+x,-y,z
1/2+x,1/2+y,1/2+z
1/2-x,-y,1/2+z
1/2+x,1/2-y,-z
-x,1/2+y,1/2-z
1/2-x,1/2-y,1/2-z
1/2+x,y,1/2-z
1/2-x,1/2+y,z
x,1/2-y,1/2+z
loop_
_atom_site_type_symbol
_atom_site_label
_atom_site_fract_x
_atom_site_fract_y
_atom_site_fract_z
Si Si1 0.320768 0.887219 0.061929
Si Si2 0.894953 0.500000 0.250000
Si Si3 0.500000 0.750000 0.507736
Si Si4 0.868047 0.732145 0.347331
Si Si5 0.707708 0.415841 0.889452
Si Si6 0.921312 0.353916 0.363220
Si Si7 0.697497 0.000000 0.750000
O O1 0.330048 0.812280 0.143770
O O2 0.340263 0.963097 0.139407
O O3 0.250000 0.892377 0.000000
O O4 0.372376 0.882886 0.960033
O O5 0.851623 0.474789 0.137675
O O6 0.940223 0.427651 0.285001
O O7 0.563317 0.731512 0.583746
O O8 0.486895 0.678203 0.422590
O O9 0.818805 0.669779 0.402481
O O10 0.884672 0.711033 0.213949
O O11 0.758038 0.425665 0.782242
O O12 0.750000 0.442214 0.000000
#
# Coordination Sequence:
#
# PCOD8295711 Si02
#       7
#    16   8   8  16  16  16   8
#     4  11  22  37  60  93 126 158 196 245 301 364
#     4   9  18  34  60  85 118 163 194 233 302 367
#     4  10  22  40  62  86 116 156 208 264 302 346
#     4  10  22  38  62  87 114 158 205 247 303 362
#     4  10  19  34  56  86 122 155 189 237 297 361
#     4  10  21  40  62  87 122 157 198 251 302 355
#     4  11  22  34  56  87 126 159 190 237 300 369
#
# _framework density 21.490504999999999
#
# number of rings (size 3 to 8) (size 9 to 14) (size 15 to 20)
#    0.000    1.818    0.000    6.000    0.000    5.818 
#    0.000    3.636    0.000   33.818    0.000    0.000 
#    0.000    0.000    0.000    0.000    0.000    0.000 
#
# Total GULP energy -545110.277080 kJ/mol
# GULP energy per Si atom -12388.869934 kJ/mol
# Density = 2.144159 g / cm^3
# Si number density = 21.490505 Si / 1000 Ang^3
#
#
#
# Elastic Constant Matrix: (Units=GPa)
#
#
# Indices 1 2 3 4 5 6 
#
# 1 78.0695 45.5110 44.0308 0.0000 0.0000 0.0000
# 2 45.5110 146.5344 60.3436 0.0000 0.0000 0.0000
# 3 44.0308 60.3436 119.1484 0.0000 0.0000 0.0000
# 4 0.0000 0.0000 0.0000 25.6356 0.0000 0.0000
# 5 0.0000 0.0000 0.0000 0.0000 4.6776 0.0000
# 6 0.0000 0.0000 0.0000 0.0000 0.0000 26.2133
#
#
#
# Elastic Compliance Matrix: (Units=1/GPa)
#
#
# Indices 1 2 3 4 5 6 
#
# 1 0.017497 -0.003502 -0.004692 0.000000 0.000000 0.000000
# 2 -0.003502 0.009324 -0.003428 0.000000 0.000000 0.000000
# 3 -0.004692 -0.003428 0.011863 0.000000 0.000000 0.000000
# 4 0.000000 0.000000 0.000000 0.039008 0.000000 0.000000
# 5 0.000000 0.000000 0.000000 0.000000 0.213786 0.000000
# 6 0.000000 0.000000 0.000000 0.000000 0.000000 0.038149
#
#
# Mechanical properties :
#
#
# Convention : Reuss Voigt Hill
#
# Bulk Modulus (GPa) = 64.76987 71.50256 68.13621
# Shear Modulus (GPa) = 13.96580 24.22977 19.09778
#
# Velocity S-wave (km/s) = 2.55200 3.36142 2.98428
# Velocity P-wave (km/s) = 6.23601 6.95769 6.60671
#
# Compressibility (1/GPa) = 0.01543928
#
# Stress axis : x y z
#
# Youngs Moduli (GPa) = 57.15255 107.25490 84.29560
#
# Poissons Ratio (x) = 0.37560 0.39555
# Poissons Ratio (y) = 0.20014 0.28896
# Poissons Ratio (z) = 0.26818 0.36766
#
# Static dielectric constant tensor:
#      x y z
#    x 3.897740 0.000000 0.000000 
#    y 0.000000 4.217150 0.000000 
#    z 0.000000 0.000000 4.132400 
# 
# 
# High freq. dielectric constant tensor:
#      x y z
#    x 1.806460 0.000000 0.000000 
#    y 0.000000 1.853920 0.000000 
#    z 0.000000 0.000000 1.858730 
# 
# From -- ./inp_files/12761.got.cif
#   From: 2010.03.12/outbox.cif.g09.slc.cpg/sg73_7_cif.got.tgz:12761.got - 2010.04.16 15:25:48.
