data_PCOD8295829
_publ_section_title
;
Structure prediction by ZEFSAII (Michael W. Deem and Ramdas Pophale) SiO2 
 PCOD8295829
Probable space group: I B C A 
;
_chemical_formula_sum "Si O2"
_cell_formula_units_Z 104
_cell_length_a 26.074977
_cell_length_b 21.266998
_cell_length_c 9.426535
_cell_angle_alpha 90.000000
_cell_angle_beta 90.000000
_cell_angle_gamma 90.000000
_cell_volume 5227.357572
_symmetry_space_group_name_H-M "I B C A "
_symmetry_group_IT_number 73
_symmetry_cell_setting 'orthorhombic'
loop_
_space_group_symop_operation_xyz
x,y,z
-x,1/2-y,z
x,-y,1/2-z
1/2-x,y,-z
-x,-y,-z
x,1/2+y,-z
-x,y,1/2+z
1/2+x,-y,z
1/2+x,1/2+y,1/2+z
1/2-x,-y,1/2+z
1/2+x,1/2-y,-z
-x,1/2+y,1/2-z
1/2-x,1/2-y,1/2-z
1/2+x,y,1/2-z
1/2-x,1/2+y,z
x,1/2-y,1/2+z
loop_
_atom_site_type_symbol
_atom_site_label
_atom_site_fract_x
_atom_site_fract_y
_atom_site_fract_z
Si Si1 0.500000 0.750000 0.119627
Si Si2 0.646894 0.649038 0.354292
Si Si3 0.551272 0.926185 0.763711
Si Si4 0.404301 0.274490 0.206991
Si Si5 0.309804 0.691153 0.126313
Si Si6 0.471645 0.364591 0.032155
Si Si7 0.270465 0.169836 0.357322
O O1 0.450973 0.762163 0.217459
O O2 0.489063 0.689045 0.022978
O O3 0.600733 0.599128 0.350195
O O4 0.626862 0.720630 0.374439
O O5 0.686864 0.645781 0.486896
O O6 0.678297 0.638792 0.208082
O O7 0.548739 0.902880 0.602166
O O8 0.555224 0.000000 0.750000
O O9 0.500161 0.907530 0.851718
O O10 0.368342 0.306711 0.322057
O O11 0.423230 0.328848 0.101010
O O12 0.284489 0.758919 0.097038
O O13 0.274974 0.659727 0.245691
O O14 0.250000 0.135556 0.500000
#
# Coordination Sequence:
#
# PCOD8295829 Si02
#       7
#     8  16  16  16  16  16  16
#     4  12  20  36  58  96 126 158 196 260 326 380
#     4  11  22  37  60  89 126 162 203 255 308 373
#     4  12  27  44  63  85 122 175 222 261 304 364
#     4  11  20  33  59  91 124 154 201 250 319 375
#     4  10  20  33  56  89 129 161 191 236 315 388
#     4  12  23  41  61  89 125 161 208 261 313 378
#     4  10  20  34  57  92 132 160 189 242 319 388
#
# _framework density 19.895329
#
# number of rings (size 3 to 8) (size 9 to 14) (size 15 to 20)
#    0.000    0.923    3.077    6.923    4.308    0.000 
#    0.000    0.000    0.000    1.846    0.000    0.000 
#    0.000    0.000    0.000    0.000    0.000    0.000 
#
# Total GULP energy -644587.333448 kJ/mol
# GULP energy per Si atom -12395.910259 kJ/mol
# Density = 1.985005 g / cm^3
# Si number density = 19.895329 Si / 1000 Ang^3
#
#
#
# Elastic Constant Matrix: (Units=GPa)
#
#
# Indices 1 2 3 4 5 6 
#
# 1 105.1875 24.5987 54.3344 0.0000 0.0000 0.0000
# 2 24.5987 90.8623 44.8880 0.0000 0.0000 0.0000
# 3 54.3344 44.8880 134.0099 0.0000 0.0000 0.0000
# 4 0.0000 0.0000 0.0000 17.6166 0.0000 0.0000
# 5 0.0000 0.0000 0.0000 0.0000 35.4817 0.0000
# 6 0.0000 0.0000 0.0000 0.0000 0.0000 12.7505
#
#
#
# Elastic Compliance Matrix: (Units=1/GPa)
#
#
# Indices 1 2 3 4 5 6 
#
# 1 0.012104 -0.001021 -0.004565 0.000000 0.000000 0.000000
# 2 -0.001021 0.013274 -0.004032 0.000000 0.000000 0.000000
# 3 -0.004565 -0.004032 0.010664 0.000000 0.000000 0.000000
# 4 0.000000 0.000000 0.000000 0.056765 0.000000 0.000000
# 5 0.000000 0.000000 0.000000 0.000000 0.028184 0.000000
# 6 0.000000 0.000000 0.000000 0.000000 0.000000 0.078429
#
#
# Mechanical properties :
#
#
# Convention : Reuss Voigt Hill
#
# Bulk Modulus (GPa) = 59.51006 64.18912 61.84959
# Shear Modulus (GPa) = 22.29575 26.91899 24.60737
#
# Velocity S-wave (km/s) = 3.35125 3.68235 3.52069
# Velocity P-wave (km/s) = 6.70455 7.10021 6.90522
#
# Compressibility (1/GPa) = 0.01680388
#
# Stress axis : x y z
#
# Youngs Moduli (GPa) = 82.61756 75.33417 93.77502
#
# Poissons Ratio (x) = 0.07695 0.42812
# Poissons Ratio (y) = 0.08439 0.37812
# Poissons Ratio (z) = 0.37718 0.30376
#
# Static dielectric constant tensor:
#      x y z
#    x 3.741060 0.000000 0.000000 
#    y 0.000000 3.099900 0.000000 
#    z 0.000000 0.000000 3.921810 
# 
# 
# High freq. dielectric constant tensor:
#      x y z
#    x 1.791230 0.000000 0.000000 
#    y 0.000000 1.701780 0.000000 
#    z 0.000000 0.000000 1.801750 
# 
# From -- ./inp_files/8005.got.cif
#   From: 2010.03.12/outbox.cif.g09.slc.cpg/sg73_5_cif.got.tgz:8005.got - 2010.04.16 15:25:48.
