data_PCOD8295495
_publ_section_title
;
Structure prediction by ZEFSAII (Michael W. Deem and Ramdas Pophale) SiO2 
 PCOD8295495
Probable space group: I B A M
;
_chemical_formula_sum "Si O2"
_cell_formula_units_Z 64
_cell_length_a 9.860889
_cell_length_b 13.308789
_cell_length_c 22.055014
_cell_angle_alpha 90.000000
_cell_angle_beta 90.000000
_cell_angle_gamma 90.000000
_cell_volume 2894.422647
_symmetry_space_group_name_H-M "I B A M"
_symmetry_group_IT_number 72
_symmetry_cell_setting 'orthorhombic'
loop_
_space_group_symop_operation_xyz
x,y,z
-x,-y,z
x,-y,1/2-z
-x,y,1/2-z
-x,-y,-z
x,y,-z
-x,y,1/2+z
x,-y,1/2+z
1/2+x,1/2+y,1/2+z
1/2-x,1/2-y,1/2+z
1/2+x,1/2-y,-z
1/2-x,1/2+y,-z
1/2-x,1/2-y,1/2-z
1/2+x,1/2+y,1/2-z
1/2-x,1/2+y,z
1/2+x,1/2-y,z
loop_
_atom_site_type_symbol
_atom_site_label
_atom_site_fract_x
_atom_site_fract_y
_atom_site_fract_z
Si Si1 0.151823 0.537825 0.378341
Si Si2 0.774834 0.358075 0.500000
Si Si3 0.400214 0.587851 0.870517
Si Si4 0.375796 0.779303 0.209101
Si Si5 0.033571 0.169912 0.000000
O O1 0.210321 0.571777 0.442291
O O2 0.245282 0.444877 0.357429
O O3 0.169068 0.628246 0.331893
O O4 0.000000 0.500000 0.384094
O O5 0.891897 0.275864 0.500000
O O6 0.626987 0.306501 0.500000
O O7 0.500000 0.500000 0.847517
O O8 0.428250 0.688012 0.832524
O O9 0.424408 0.606438 0.941503
O O10 0.500000 0.815761 0.250000
O O11 0.250000 0.750000 0.250000
#
# Coordination Sequence:
#
# PCOD8295495 Si02
#       5
#    16   8  16  16   8
#     4  12  27  46  74 108 146 188 237 297 364 425
#     4  12  26  46  76 110 145 183 234 298 370 431
#     4  12  25  47  76 102 144 191 237 293 365 429
#     4  12  28  47  71 104 144 190 248 296 345 422
#     4  12  26  45  78 108 145 184 232 297 370 435
#
# _framework density 22.111491999999998
#
# number of rings (size 3 to 8) (size 9 to 14) (size 15 to 20)
#    0.000    0.000    5.000    4.500    3.500    6.000 
#    0.000    0.000    0.000    0.000    0.000    0.000 
#    0.000    0.000    0.000    0.000    0.000    0.000 
#
# Total GULP energy -397093.289358 kJ/mol
# GULP energy per Si atom -12409.165292 kJ/mol
# Density = 2.206117 g / cm^3
# Si number density = 22.111492 Si / 1000 Ang^3
#
#
#
# Elastic Constant Matrix: (Units=GPa)
#
#
# Indices 1 2 3 4 5 6 
#
# 1 135.3165 9.4530 20.0418 0.0000 0.0000 0.0000
# 2 9.4530 77.7037 28.6235 0.0000 0.0000 0.0000
# 3 20.0418 28.6235 124.4455 0.0000 0.0000 0.0000
# 4 0.0000 0.0000 0.0000 219.6864 0.0000 0.0000
# 5 0.0000 0.0000 0.0000 0.0000 29.9727 0.0000
# 6 0.0000 0.0000 0.0000 0.0000 0.0000 52.3689
#
#
#
# Elastic Compliance Matrix: (Units=1/GPa)
#
#
# Indices 1 2 3 4 5 6 
#
# 1 0.007590 -0.000517 -0.001103 0.000000 0.000000 0.000000
# 2 -0.000517 0.014096 -0.003159 0.000000 0.000000 0.000000
# 3 -0.001103 -0.003159 0.008940 0.000000 0.000000 0.000000
# 4 0.000000 0.000000 0.000000 0.004552 0.000000 0.000000
# 5 0.000000 0.000000 0.000000 0.000000 0.033364 0.000000
# 6 0.000000 0.000000 0.000000 0.000000 0.000000 0.019095
#
#
# Mechanical properties :
#
#
# Convention : Reuss Voigt Hill
#
# Bulk Modulus (GPa) = 47.46749 50.41138 48.93944
# Shear Modulus (GPa) = 47.97671 79.02875 63.50273
#
# Velocity S-wave (km/s) = 4.66313 5.98487 5.36486
# Velocity P-wave (km/s) = 7.10682 8.40276 7.78182
#
# Compressibility (1/GPa) = 0.02106705
#
# Stress axis : x y z
#
# Youngs Moduli (GPa) = 131.75896 70.94251 111.85764
#
# Poissons Ratio (x) = 0.03667 0.12343
# Poissons Ratio (y) = 0.06810 0.35335
# Poissons Ratio (z) = 0.14539 0.22410
#
# Static dielectric constant tensor:
#      x y z
#    x 7.588840 0.000000 0.000000 
#    y 0.000000 4.129880 0.000000 
#    z 0.000000 0.000000 4.168970 
# 
# 
# High freq. dielectric constant tensor:
#      x y z
#    x 1.889530 0.000000 0.000000 
#    y 0.000000 1.879840 0.000000 
#    z 0.000000 0.000000 1.882380 
# 
# From -- ./inp_files/41940.got.cif
#   From: 2010.03.12/outbox.cif.g09.slc.cpg/sg72_21_cif.got.tgz:41940.got - 2010.04.16 14:54:00.
