data_PCOD8295238
_publ_section_title
;
Structure prediction by ZEFSAII (Michael W. Deem and Ramdas Pophale) SiO2 
 PCOD8295238
Probable space group: I B A M
;
_chemical_formula_sum "Si O2"
_cell_formula_units_Z 128
_cell_length_a 19.381760
_cell_length_b 23.122420
_cell_length_c 17.645083
_cell_angle_alpha 90.000000
_cell_angle_beta 90.000000
_cell_angle_gamma 90.000000
_cell_volume 7907.700324
_symmetry_space_group_name_H-M "I B A M"
_symmetry_group_IT_number 72
_symmetry_cell_setting 'orthorhombic'
loop_
_space_group_symop_operation_xyz
x,y,z
-x,-y,z
x,-y,1/2-z
-x,y,1/2-z
-x,-y,-z
x,y,-z
-x,y,1/2+z
x,-y,1/2+z
1/2+x,1/2+y,1/2+z
1/2-x,1/2-y,1/2+z
1/2+x,1/2-y,-z
1/2-x,1/2+y,-z
1/2-x,1/2-y,1/2-z
1/2+x,1/2+y,1/2-z
1/2-x,1/2+y,z
1/2+x,1/2-y,z
loop_
_atom_site_type_symbol
_atom_site_label
_atom_site_fract_x
_atom_site_fract_y
_atom_site_fract_z
Si Si1 0.215356 0.836858 0.089671
Si Si2 0.008112 0.247163 0.909735
Si Si3 0.234573 0.153766 0.910192
Si Si4 0.156537 0.268520 0.089752
Si Si5 0.495989 0.384476 0.588975
Si Si6 0.862263 0.722408 0.589764
Si Si7 0.129814 0.067910 0.666112
Si Si8 0.139148 0.065371 0.840962
O O1 0.293633 0.820892 0.115954
O O2 0.166471 0.784388 0.116425
O O3 0.191585 0.894202 0.131953
O O4 0.210420 0.847068 0.000000
O O5 0.078632 0.276438 0.878056
O O6 0.003507 0.181281 0.881004
O O7 0.941228 0.283244 0.880195
O O8 0.009767 0.247099 0.000000
O O9 0.185463 0.206473 0.884090
O O10 0.312879 0.169877 0.883039
O O11 0.209834 0.096447 0.867104
O O12 0.231017 0.143453 0.000000
O O13 0.156158 0.267867 0.000000
O O14 0.510112 0.386755 0.500000
O O15 0.556121 0.419831 0.629334
O O16 0.423029 0.413626 0.606194
O O17 0.860363 0.722516 0.500000
O O18 0.122192 0.080830 0.754690
O O19 0.150977 0.002464 0.648665
#
# Coordination Sequence:
#
# PCOD8295238 Si02
#       8
#    16  16  16  16  16  16  16  16
#     4   9  16  29  48  69  90 118 156 194 226 270
#     4   9  14  24  46  73  95 119 146 180 231 279
#     4   9  16  29  48  69  90 118 156 194 226 270
#     4   8  14  25  45  71  96 116 146 192 235 271
#     4  11  20  32  51  70  90 123 163 193 219 267
#     4   8  14  25  45  71  96 116 146 192 235 271
#     4  11  23  35  45  62  94 130 159 193 234 269
#     4  11  23  35  45  62  94 130 159 193 234 269
#
# _framework density 16.186754000000001
#
# number of rings (size 3 to 8) (size 9 to 14) (size 15 to 20)
#    0.000    2.500    2.500    3.000    0.000    3.500 
#    0.000    2.500    0.000    0.000    0.000    0.875 
#    0.000    7.000    0.000    0.000    0.000    0.000 
#
# Total GULP energy -793208.404926 kJ/mol
# GULP energy per Si atom -12393.881327 kJ/mol
# Density = 1.614991 g / cm^3
# Si number density = 16.186754 Si / 1000 Ang^3
#
#
#
# Elastic Constant Matrix: (Units=GPa)
#
#
# Indices 1 2 3 4 5 6 
#
# 1 131.2681 46.3748 12.0186 0.0000 0.0000 0.0000
# 2 46.3748 68.6344 18.0846 0.0000 0.0000 0.0000
# 3 12.0186 18.0846 29.3409 0.0000 0.0000 0.0000
# 4 0.0000 0.0000 0.0000 2.3416 0.0000 0.0000
# 5 0.0000 0.0000 0.0000 0.0000 9.1113 0.0000
# 6 0.0000 0.0000 0.0000 0.0000 0.0000 26.6462
#
#
#
# Elastic Compliance Matrix: (Units=1/GPa)
#
#
# Indices 1 2 3 4 5 6 
#
# 1 0.010007 -0.006783 0.000082 0.000000 0.000000 0.000000
# 2 -0.006783 0.021993 -0.010777 0.000000 0.000000 0.000000
# 3 0.000082 -0.010777 0.040691 0.000000 0.000000 0.000000
# 4 0.000000 0.000000 0.000000 0.427056 0.000000 0.000000
# 5 0.000000 0.000000 0.000000 0.000000 0.109754 0.000000
# 6 0.000000 0.000000 0.000000 0.000000 0.000000 0.037529
#
#
# Mechanical properties :
#
#
# Convention : Reuss Voigt Hill
#
# Bulk Modulus (GPa) = 26.50110 42.46659 34.48385
# Shear Modulus (GPa) = 7.19876 17.80417 12.50147
#
# Velocity S-wave (km/s) = 2.11115 3.32011 2.78209
# Velocity P-wave (km/s) = 4.72761 6.40233 5.62761
#
# Compressibility (1/GPa) = 0.03773429
#
# Stress axis : x y z
#
# Youngs Moduli (GPa) = 99.93202 45.46974 24.57536
#
# Poissons Ratio (x) = 0.30842 -0.00201
# Poissons Ratio (y) = 0.67783 0.26485
# Poissons Ratio (z) = -0.00817 0.49003
#
# Static dielectric constant tensor:
#      x y z
#    x 3.558430 0.000000 0.000000 
#    y 0.000000 2.932930 0.000000 
#    z 0.000000 0.000000 2.775200 
# 
# 
# High freq. dielectric constant tensor:
#      x y z
#    x 1.627940 0.000000 0.000000 
#    y 0.000000 1.593760 0.000000 
#    z 0.000000 0.000000 1.594200 
# 
# From -- ./inp_files/32068.got.cif
#   From: 2010.03.12/outbox.cif.g09.slc.cpg/sg72_17_cif.got.tgz:32068.got - 2010.04.16 14:54:00.
