data_PCOD8295907
_publ_section_title
;
Structure prediction by ZEFSAII (Michael W. Deem and Ramdas Pophale) SiO2 
 PCOD8295907
Probable space group: I B C A 
;
_chemical_formula_sum "Si O2"
_cell_formula_units_Z 104
_cell_length_a 19.650451
_cell_length_b 9.471389
_cell_length_c 27.019246
_cell_angle_alpha 90.000000
_cell_angle_beta 90.000000
_cell_angle_gamma 90.000000
_cell_volume 5028.742776
_symmetry_space_group_name_H-M "I B C A "
_symmetry_group_IT_number 73
_symmetry_cell_setting 'orthorhombic'
loop_
_space_group_symop_operation_xyz
x,y,z
-x,1/2-y,z
x,-y,1/2-z
1/2-x,y,-z
-x,-y,-z
x,1/2+y,-z
-x,y,1/2+z
1/2+x,-y,z
1/2+x,1/2+y,1/2+z
1/2-x,-y,1/2+z
1/2+x,1/2-y,-z
-x,1/2+y,1/2-z
1/2-x,1/2-y,1/2-z
1/2+x,y,1/2-z
1/2-x,1/2+y,z
x,1/2-y,1/2+z
loop_
_atom_site_type_symbol
_atom_site_label
_atom_site_fract_x
_atom_site_fract_y
_atom_site_fract_z
Si Si1 0.225067 0.733894 0.194057
Si Si2 0.164789 0.898836 0.538033
Si Si3 0.544249 0.545032 0.864666
Si Si4 0.669971 0.480313 0.808656
Si Si5 0.541547 0.607723 0.532529
Si Si6 0.099049 0.144657 0.859327
Si Si7 0.750000 0.845177 0.500000
O O1 0.250000 0.750000 0.250000
O O2 0.288559 0.652697 0.169136
O O3 0.154195 0.645194 0.185853
O O4 0.210115 0.884226 0.168634
O O5 0.112664 0.862331 0.494073
O O6 0.130944 0.918933 0.591183
O O7 0.214675 0.762356 0.539343
O O8 0.198816 0.050968 0.528649
O O9 0.591391 0.468361 0.823870
O O10 0.554454 0.458837 0.914366
O O11 0.571748 0.701488 0.873263
O O12 0.466169 0.547391 0.845059
O O13 0.672663 0.500000 0.750000
O O14 0.500000 0.750000 0.539136
O O15 0.500000 0.500000 0.500000
#
# Coordination Sequence:
#
# PCOD8295907 Si02
#       7
#    16  16  16  16  16  16   8
#     4   9  19  37  61  88 114 161 203 250 309 381
#     4  11  22  38  57  85 118 160 201 247 308 356
#     4  10  21  38  60  93 121 161 207 256 315 372
#     4   9  19  39  64  87 121 158 206 257 316 371
#     4  12  23  39  63  88 124 166 210 251 304 378
#     4  10  20  36  63  87 122 158 208 252 314 375
#     4  10  24  38  54  82 120 154 202 248 296 362
#
# _framework density 20.681114000000001
#
# number of rings (size 3 to 8) (size 9 to 14) (size 15 to 20)
#    0.000    1.846    1.538    2.769    0.000    4.923 
#    2.769    2.308    6.769    0.000    0.000    0.000 
#    0.000    0.000    0.000    0.000    0.000    0.000 
#
# Total GULP energy -644315.456701 kJ/mol
# GULP energy per Si atom -12390.681860 kJ/mol
# Density = 2.063404 g / cm^3
# Si number density = 20.681114 Si / 1000 Ang^3
#
#
#
# Elastic Constant Matrix: (Units=GPa)
#
#
# Indices 1 2 3 4 5 6 
#
# 1 166.5613 61.0504 62.8950 0.0000 0.0000 0.0000
# 2 61.0504 85.7379 30.4260 0.0000 0.0000 0.0000
# 3 62.8950 30.4260 67.2073 0.0000 0.0000 0.0000
# 4 0.0000 0.0000 0.0000 19.6682 0.0000 0.0000
# 5 0.0000 0.0000 0.0000 0.0000 41.9117 0.0000
# 6 0.0000 0.0000 0.0000 0.0000 0.0000 36.2119
#
#
#
# Elastic Compliance Matrix: (Units=1/GPa)
#
#
# Indices 1 2 3 4 5 6 
#
# 1 0.010758 -0.004870 -0.007863 0.000000 0.000000 0.000000
# 2 -0.004870 0.016100 -0.002732 0.000000 0.000000 0.000000
# 3 -0.007863 -0.002732 0.023474 0.000000 0.000000 0.000000
# 4 0.000000 0.000000 0.000000 0.050844 0.000000 0.000000
# 5 0.000000 0.000000 0.000000 0.000000 0.023860 0.000000
# 6 0.000000 0.000000 0.000000 0.000000 0.000000 0.027615
#
#
# Mechanical properties :
#
#
# Convention : Reuss Voigt Hill
#
# Bulk Modulus (GPa) = 51.53589 69.80548 60.67069
# Shear Modulus (GPa) = 26.30915 30.56735 28.43825
#
# Velocity S-wave (km/s) = 3.57057 3.84869 3.71223
# Velocity P-wave (km/s) = 6.47858 7.31959 6.91189
#
# Compressibility (1/GPa) = 0.01940395
#
# Stress axis : x y z
#
# Youngs Moduli (GPa) = 92.95503 62.11000 42.59970
#
# Poissons Ratio (x) = 0.30247 0.33496
# Poissons Ratio (y) = 0.45268 0.11636
# Poissons Ratio (z) = 0.73090 0.16966
#
# Static dielectric constant tensor:
#      x y z
#    x 4.148220 0.000000 0.000000 
#    y 0.000000 4.023600 0.000000 
#    z 0.000000 0.000000 3.353270 
# 
# 
# High freq. dielectric constant tensor:
#      x y z
#    x 1.827320 0.000000 0.000000 
#    y 0.000000 1.812420 0.000000 
#    z 0.000000 0.000000 1.782580 
# 
# From -- ./inp_files/34681.got.cif
#   From: 2010.03.12/outbox.cif.g09.slc.cpg/sg73_18_cif.got.tgz:34681.got - 2010.04.16 15:25:48.
