data_PCOD8295765
_publ_section_title
;
Structure prediction by ZEFSAII (Michael W. Deem and Ramdas Pophale) SiO2 
 PCOD8295765
Probable space group: I B C A 
;
_chemical_formula_sum "Si O2"
_cell_formula_units_Z 112
_cell_length_a 17.717875
_cell_length_b 18.356401
_cell_length_c 18.312391
_cell_angle_alpha 90.000000
_cell_angle_beta 90.000000
_cell_angle_gamma 90.000000
_cell_volume 5955.856461
_symmetry_space_group_name_H-M "I B C A "
_symmetry_group_IT_number 73
_symmetry_cell_setting 'orthorhombic'
loop_
_space_group_symop_operation_xyz
x,y,z
-x,1/2-y,z
x,-y,1/2-z
1/2-x,y,-z
-x,-y,-z
x,1/2+y,-z
-x,y,1/2+z
1/2+x,-y,z
1/2+x,1/2+y,1/2+z
1/2-x,-y,1/2+z
1/2+x,1/2-y,-z
-x,1/2+y,1/2-z
1/2-x,1/2-y,1/2-z
1/2+x,y,1/2-z
1/2-x,1/2+y,z
x,1/2-y,1/2+z
loop_
_atom_site_type_symbol
_atom_site_label
_atom_site_fract_x
_atom_site_fract_y
_atom_site_fract_z
Si Si1 0.343532 0.287977 0.079799
Si Si2 0.949174 0.814428 0.146166
Si Si3 0.322766 0.675707 0.042225
Si Si4 0.957315 0.581731 0.066445
Si Si5 0.536399 0.078688 0.421534
Si Si6 0.544318 0.819682 0.686619
Si Si7 0.711249 0.766516 0.671873
O O1 0.366479 0.218966 0.132832
O O2 0.391881 0.360884 0.083055
O O3 0.265003 0.312517 0.116956
O O4 0.340280 0.253437 0.998450
O O5 0.973171 0.828584 0.228587
O O6 0.000000 0.750000 0.110664
O O7 0.964876 0.889227 0.103104
O O8 0.394233 0.622720 0.042739
O O9 0.305638 0.691345 0.127800
O O10 0.250000 0.640505 0.000000
O O11 0.935642 0.502702 0.099305
O O12 0.969399 0.573894 0.980380
O O13 0.494834 0.111815 0.351486
O O14 0.500000 0.750000 0.654242
O O15 0.634365 0.813049 0.678400
O O16 0.750000 0.750000 0.750000
#
# Coordination Sequence:
#
# PCOD8295765 Si02
#       7
#    16  16  16  16  16  16  16
#     4  10  19  37  61  84 117 153 198 245 300 355
#     4   9  18  33  57  85 112 149 194 243 293 342
#     4  10  21  36  60  88 115 159 198 247 302 353
#     4  10  22  36  58  87 118 157 194 246 297 358
#     4  11  22  38  58  88 120 154 201 242 299 364
#     4  11  21  35  60  89 114 153 200 247 292 354
#     4  11  21  35  58  91 120 147 203 254 293 345
#
# _framework density 18.805021
#
# number of rings (size 3 to 8) (size 9 to 14) (size 15 to 20)
#    0.000    1.714    4.286    0.857    0.000    0.571 
#    0.000    5.000    0.000    0.000    0.000    0.000 
#    0.000    0.000    0.000    0.000    0.000    0.000 
#
# Total GULP energy -693740.266377 kJ/mol
# GULP energy per Si atom -12388.219042 kJ/mol
# Density = 1.876222 g / cm^3
# Si number density = 18.805021 Si / 1000 Ang^3
#
#
#
# Elastic Constant Matrix: (Units=GPa)
#
#
# Indices 1 2 3 4 5 6 
#
# 1 103.3718 51.7150 24.4933 0.0000 0.0000 0.0000
# 2 51.7150 114.4463 48.1565 0.0000 0.0000 0.0000
# 3 24.4933 48.1565 90.8896 0.0000 0.0000 0.0000
# 4 0.0000 0.0000 0.0000 20.2339 0.0000 0.0000
# 5 0.0000 0.0000 0.0000 0.0000 31.5290 0.0000
# 6 0.0000 0.0000 0.0000 0.0000 0.0000 17.4966
#
#
#
# Elastic Compliance Matrix: (Units=1/GPa)
#
#
# Indices 1 2 3 4 5 6 
#
# 1 0.012516 -0.005452 -0.000484 0.000000 0.000000 0.000000
# 2 -0.005452 0.013619 -0.005747 0.000000 0.000000 0.000000
# 3 -0.000484 -0.005747 0.014178 0.000000 0.000000 0.000000
# 4 0.000000 0.000000 0.000000 0.049422 0.000000 0.000000
# 5 0.000000 0.000000 0.000000 0.000000 0.031717 0.000000
# 6 0.000000 0.000000 0.000000 0.000000 0.000000 0.057154
#
#
# Mechanical properties :
#
#
# Convention : Reuss Voigt Hill
#
# Bulk Modulus (GPa) = 59.00678 61.93746 60.47212
# Shear Modulus (GPa) = 24.08235 26.14143 25.11189
#
# Velocity S-wave (km/s) = 3.58248 3.73249 3.65825
# Velocity P-wave (km/s) = 6.96839 7.18216 7.07609
#
# Compressibility (1/GPa) = 0.01694720
#
# Stress axis : x y z
#
# Youngs Moduli (GPa) = 79.89752 73.42460 70.53304
#
# Poissons Ratio (x) = 0.40030 0.03416
# Poissons Ratio (y) = 0.43559 0.40534
# Poissons Ratio (z) = 0.03869 0.42196
#
# Static dielectric constant tensor:
#      x y z
#    x 3.687560 0.000000 0.000000 
#    y 0.000000 3.296450 0.000000 
#    z 0.000000 0.000000 3.480460 
# 
# 
# High freq. dielectric constant tensor:
#      x y z
#    x 1.738980 0.000000 0.000000 
#    y 0.000000 1.692000 0.000000 
#    z 0.000000 0.000000 1.740100 
# 
# From -- ./inp_files/22774.got.cif
#   From: 2010.03.12/outbox.cif.g09.slc.cpg/sg73_12_cif.got.tgz:22774.got - 2010.04.16 15:25:48.
