data_PCOD8295951
_publ_section_title
;
Structure prediction by ZEFSAII (Michael W. Deem and Ramdas Pophale) SiO2 
 PCOD8295951
Probable space group: I B C A 
;
_chemical_formula_sum "Si O2"
_cell_formula_units_Z 120
_cell_length_a 20.220197
_cell_length_b 14.437317
_cell_length_c 20.895388
_cell_angle_alpha 90.000000
_cell_angle_beta 90.000000
_cell_angle_gamma 90.000000
_cell_volume 6099.894372
_symmetry_space_group_name_H-M "I B C A "
_symmetry_group_IT_number 73
_symmetry_cell_setting 'orthorhombic'
loop_
_space_group_symop_operation_xyz
x,y,z
-x,1/2-y,z
x,-y,1/2-z
1/2-x,y,-z
-x,-y,-z
x,1/2+y,-z
-x,y,1/2+z
1/2+x,-y,z
1/2+x,1/2+y,1/2+z
1/2-x,-y,1/2+z
1/2+x,1/2-y,-z
-x,1/2+y,1/2-z
1/2-x,1/2-y,1/2-z
1/2+x,y,1/2-z
1/2-x,1/2+y,z
x,1/2-y,1/2+z
loop_
_atom_site_type_symbol
_atom_site_label
_atom_site_fract_x
_atom_site_fract_y
_atom_site_fract_z
Si Si1 0.678591 0.617217 0.192385
Si Si2 0.342325 0.692631 0.149151
Si Si3 0.592507 0.127074 0.591599
Si Si4 0.500000 0.750000 0.834852
Si Si5 0.453313 0.167730 0.955445
Si Si6 0.783625 0.418822 0.838028
Si Si7 0.065610 0.399784 0.743162
Si Si8 0.959095 0.061732 0.141848
O O1 0.701937 0.714779 0.161713
O O2 0.715977 0.530905 0.159961
O O3 0.690012 0.615880 0.268737
O O4 0.601834 0.619153 0.171055
O O5 0.392404 0.699926 0.089426
O O6 0.290163 0.609577 0.142323
O O7 0.384855 0.674273 0.212709
O O8 0.560543 0.219687 0.620082
O O9 0.580267 0.118197 0.515887
O O10 0.670515 0.125392 0.606775
O O11 0.561345 0.041556 0.628223
O O12 0.528527 0.659776 0.797755
O O13 0.500000 0.250000 0.979730
O O14 0.506009 0.102131 0.920856
O O15 0.104193 0.500000 0.750000
O O16 0.011126 0.440540 0.697019
#
# Coordination Sequence:
#
# PCOD8295951 Si02
#       8
#    16  16  16   8  16  16  16  16
#     4  10  20  38  65  86 125 158 204 243 318 386
#     4  11  23  40  61  88 123 166 203 251 306 381
#     4  11  22  39  60  86 125 159 207 253 302 367
#     4  12  22  36  58  98 122 156 200 264 316 362
#     4  11  22  39  64  89 118 161 211 259 305 357
#     4  10  23  38  61  91 119 166 198 249 310 376
#     4  11  22  34  60  91 126 153 198 258 319 372
#     4  10  20  38  60  90 117 163 198 255 314 368
#
# _framework density 19.672473
#
# number of rings (size 3 to 8) (size 9 to 14) (size 15 to 20)
#    0.000    1.333    3.333    3.200    5.600    0.533 
#    0.000    0.000    0.000    1.600    0.000    0.000 
#    0.000    0.000    0.000    0.000    0.000    0.000 
#
# Total GULP energy -743340.095121 kJ/mol
# GULP energy per Si atom -12389.001585 kJ/mol
# Density = 1.962770 g / cm^3
# Si number density = 19.672473 Si / 1000 Ang^3
#
#
#
# Elastic Constant Matrix: (Units=GPa)
#
#
# Indices 1 2 3 4 5 6 
#
# 1 87.9198 16.3579 27.3881 0.0000 0.0000 0.0000
# 2 16.3579 82.9005 6.2733 0.0000 0.0000 0.0000
# 3 27.3881 6.2733 62.6768 0.0000 0.0000 0.0000
# 4 0.0000 0.0000 0.0000 16.6349 0.0000 0.0000
# 5 0.0000 0.0000 0.0000 0.0000 7.9414 0.0000
# 6 0.0000 0.0000 0.0000 0.0000 0.0000 27.3028
#
#
#
# Elastic Compliance Matrix: (Units=1/GPa)
#
#
# Indices 1 2 3 4 5 6 
#
# 1 0.013569 -0.002246 -0.005704 0.000000 0.000000 0.000000
# 2 -0.002246 0.012526 -0.000272 0.000000 0.000000 0.000000
# 3 -0.005704 -0.000272 0.018475 0.000000 0.000000 0.000000
# 4 0.000000 0.000000 0.000000 0.060114 0.000000 0.000000
# 5 0.000000 0.000000 0.000000 0.000000 0.125923 0.000000
# 6 0.000000 0.000000 0.000000 0.000000 0.000000 0.036626
#
#
# Mechanical properties :
#
#
# Convention : Reuss Voigt Hill
#
# Bulk Modulus (GPa) = 35.55577 37.05953 36.30765
# Shear Modulus (GPa) = 17.06170 22.60768 19.83469
#
# Velocity S-wave (km/s) = 2.94817 3.39367 3.17873
# Velocity P-wave (km/s) = 5.44996 5.85108 5.65408
#
# Compressibility (1/GPa) = 0.02812483
#
# Stress axis : x y z
#
# Youngs Moduli (GPa) = 73.69830 79.83147 54.12771
#
# Poissons Ratio (x) = 0.17928 0.30877
# Poissons Ratio (y) = 0.16551 0.01475
# Poissons Ratio (z) = 0.42041 0.02175
#
# Static dielectric constant tensor:
#      x y z
#    x 3.592370 0.000000 0.000000 
#    y 0.000000 4.137010 0.000000 
#    z 0.000000 0.000000 3.363200 
# 
# 
# High freq. dielectric constant tensor:
#      x y z
#    x 1.760770 0.000000 0.000000 
#    y 0.000000 1.781390 0.000000 
#    z 0.000000 0.000000 1.750620 
# 
# From -- ./inp_files/18967.got.cif
#   From: 2010.03.12/outbox.cif.g09.slc.cpg/sg73_10_cif.got.tgz:18967.got - 2010.04.16 15:25:48.
