data_PCOD8295564
_publ_section_title
;
Structure prediction by ZEFSAII (Michael W. Deem and Ramdas Pophale) SiO2 
 PCOD8295564
Probable space group: I B C A 
;
_chemical_formula_sum "Si O2"
_cell_formula_units_Z 120
_cell_length_a 20.936290
_cell_length_b 19.926198
_cell_length_c 15.405487
_cell_angle_alpha 90.000000
_cell_angle_beta 90.000000
_cell_angle_gamma 90.000000
_cell_volume 6426.871233
_symmetry_space_group_name_H-M "I B C A "
_symmetry_group_IT_number 73
_symmetry_cell_setting 'orthorhombic'
loop_
_space_group_symop_operation_xyz
x,y,z
-x,1/2-y,z
x,-y,1/2-z
1/2-x,y,-z
-x,-y,-z
x,1/2+y,-z
-x,y,1/2+z
1/2+x,-y,z
1/2+x,1/2+y,1/2+z
1/2-x,-y,1/2+z
1/2+x,1/2-y,-z
-x,1/2+y,1/2-z
1/2-x,1/2-y,1/2-z
1/2+x,y,1/2-z
1/2-x,1/2+y,z
x,1/2-y,1/2+z
loop_
_atom_site_type_symbol
_atom_site_label
_atom_site_fract_x
_atom_site_fract_y
_atom_site_fract_z
Si Si1 0.064170 0.216152 0.883722
Si Si2 0.484985 0.100413 0.020515
Si Si3 0.912131 0.501987 0.078967
Si Si4 0.590147 0.302304 0.450277
Si Si5 0.168722 0.500000 0.750000
Si Si6 0.721312 0.643097 0.781068
Si Si7 0.683161 0.105983 0.031597
Si Si8 0.653554 0.771568 0.722339
O O1 0.049617 0.138857 0.901535
O O2 0.121159 0.221174 0.815961
O O3 0.000000 0.250000 0.845599
O O4 0.081806 0.244729 0.978661
O O5 0.522753 0.044633 0.075546
O O6 0.530709 0.146574 0.959928
O O7 0.429497 0.070660 0.959074
O O8 0.881286 0.496385 0.172478
O O9 0.860805 0.540895 0.020845
O O10 0.657726 0.337402 0.467605
O O11 0.598737 0.274206 0.352413
O O12 0.214349 0.433676 0.745328
O O13 0.685983 0.640158 0.873797
O O14 0.685943 0.697672 0.719556
O O15 0.794853 0.667886 0.788470
O O16 0.750000 0.078764 0.000000
#
# Coordination Sequence:
#
# PCOD8295564 Si02
#       8
#    16  16  16  16   8  16  16  16
#     4  10  22  37  56  86 121 148 188 245 293 343
#     4   9  20  39  55  84 117 148 198 242 285 351
#     4   9  20  37  59  80 113 156 195 237 287 348
#     4  10  20  35  60  85 114 154 192 236 295 352
#     4  10  22  38  60  84 118 158 192 240 294 354
#     4  10  22  39  58  87 120 149 199 244 287 351
#     4  10  17  36  61  80 113 158 192 231 293 353
#     4  11  22  38  62  89 118 154 194 247 294 349
#
# _framework density 18.671606000000001
#
# number of rings (size 3 to 8) (size 9 to 14) (size 15 to 20)
#    0.000    2.133    2.667    0.000    3.733    2.667 
#    4.800    0.000    0.000    0.000    0.000    0.000 
#    0.000    0.000    0.000    0.000    0.000    0.000 
#
# Total GULP energy -743429.943264 kJ/mol
# GULP energy per Si atom -12390.499054 kJ/mol
# Density = 1.862911 g / cm^3
# Si number density = 18.671606 Si / 1000 Ang^3
#
#
#
# Elastic Constant Matrix: (Units=GPa)
#
#
# Indices 1 2 3 4 5 6 
#
# 1 79.7468 36.5677 19.4757 0.0000 0.0000 0.0000
# 2 36.5677 104.8056 30.3745 0.0000 0.0000 0.0000
# 3 19.4757 30.3745 66.7537 0.0000 0.0000 0.0000
# 4 0.0000 0.0000 0.0000 15.6757 0.0000 0.0000
# 5 0.0000 0.0000 0.0000 0.0000 28.8993 0.0000
# 6 0.0000 0.0000 0.0000 0.0000 0.0000 12.8858
#
#
#
# Elastic Compliance Matrix: (Units=1/GPa)
#
#
# Indices 1 2 3 4 5 6 
#
# 1 0.015237 -0.004640 -0.002334 0.000000 0.000000 0.000000
# 2 -0.004640 0.012404 -0.004290 0.000000 0.000000 0.000000
# 3 -0.002334 -0.004290 0.017614 0.000000 0.000000 0.000000
# 4 0.000000 0.000000 0.000000 0.063793 0.000000 0.000000
# 5 0.000000 0.000000 0.000000 0.000000 0.034603 0.000000
# 6 0.000000 0.000000 0.000000 0.000000 0.000000 0.077605
#
#
# Mechanical properties :
#
#
# Convention : Reuss Voigt Hill
#
# Bulk Modulus (GPa) = 44.00286 47.12687 45.56487
# Shear Modulus (GPa) = 19.89182 22.48472 21.18827
#
# Velocity S-wave (km/s) = 3.26751 3.47395 3.37231
# Velocity P-wave (km/s) = 6.15251 6.43318 6.29441
#
# Compressibility (1/GPa) = 0.02272579
#
# Stress axis : x y z
#
# Youngs Moduli (GPa) = 65.62792 80.62039 56.77406
#
# Poissons Ratio (x) = 0.37408 0.13253
# Poissons Ratio (y) = 0.30451 0.24358
# Poissons Ratio (z) = 0.15319 0.34589
#
# Static dielectric constant tensor:
#      x y z
#    x 3.520310 0.000000 0.000000 
#    y 0.000000 3.611970 0.000000 
#    z 0.000000 0.000000 3.262210 
# 
# 
# High freq. dielectric constant tensor:
#      x y z
#    x 1.728360 0.000000 0.000000 
#    y 0.000000 1.727370 0.000000 
#    z 0.000000 0.000000 1.711790 
# 
# From -- ./inp_files/18966.got.cif
#   From: 2010.03.12/outbox.cif.g09.slc.cpg/sg73_10_cif.got.tgz:18966.got - 2010.04.16 15:25:48.
