data_PCOD8295486
_publ_section_title
;
Structure prediction by ZEFSAII (Michael W. Deem and Ramdas Pophale) SiO2 
 PCOD8295486
Probable space group: I B A M
;
_chemical_formula_sum "Si O2"
_cell_formula_units_Z 80
_cell_length_a 8.909094
_cell_length_b 28.237058
_cell_length_c 17.111935
_cell_angle_alpha 90.000000
_cell_angle_beta 90.000000
_cell_angle_gamma 90.000000
_cell_volume 4304.791376
_symmetry_space_group_name_H-M "I B A M"
_symmetry_group_IT_number 72
_symmetry_cell_setting 'orthorhombic'
loop_
_space_group_symop_operation_xyz
x,y,z
-x,-y,z
x,-y,1/2-z
-x,y,1/2-z
-x,-y,-z
x,y,-z
-x,y,1/2+z
x,-y,1/2+z
1/2+x,1/2+y,1/2+z
1/2-x,1/2-y,1/2+z
1/2+x,1/2-y,-z
1/2-x,1/2+y,-z
1/2-x,1/2-y,1/2-z
1/2+x,1/2+y,1/2-z
1/2-x,1/2+y,z
1/2+x,1/2-y,z
loop_
_atom_site_type_symbol
_atom_site_label
_atom_site_fract_x
_atom_site_fract_y
_atom_site_fract_z
Si Si1 0.796651 0.124584 0.186675
Si Si2 0.077248 0.705891 0.333369
Si Si3 0.056021 0.050472 0.411080
Si Si4 0.277502 0.221223 0.913041
Si Si5 0.884729 0.132578 0.356893
O O1 0.651439 0.153795 0.158452
O O2 0.787168 0.119027 0.280284
O O3 0.810268 0.073004 0.143293
O O4 0.950233 0.153362 0.166500
O O5 0.207878 0.744511 0.347260
O O6 0.000000 0.713426 0.250000
O O7 0.953623 0.713165 0.399719
O O8 0.114608 0.046019 0.500000
O O9 0.910274 0.084803 0.407081
O O10 0.000000 0.000000 0.378358
O O11 0.199218 0.170331 0.909512
O O12 0.256471 0.242408 0.000000
#
# Coordination Sequence:
#
# PCOD8295486 Si02
#       5
#    16  16  16  16  16
#     4   9  20  35  57  84 111 148 195 236 292 346
#     4  12  24  39  59  81 118 160 200 247 293 351
#     4   9  18  33  59  91 118 145 185 239 296 351
#     4  12  25  38  56  84 118 157 202 246 296 349
#     4   9  19  36  57  83 114 147 194 245 286 346
#
# _framework density 18.583943000000001
#
# number of rings (size 3 to 8) (size 9 to 14) (size 15 to 20)
#    1.200    0.600    2.000    3.000    2.800    3.200 
#    0.000    0.000    0.000    1.200    0.000    4.200 
#    0.000    0.000    0.000    0.000    0.000    0.000 
#
# Total GULP energy -495630.552135 kJ/mol
# GULP energy per Si atom -12390.763803 kJ/mol
# Density = 1.854165 g / cm^3
# Si number density = 18.583943 Si / 1000 Ang^3
#
#
#
# Elastic Constant Matrix: (Units=GPa)
#
#
# Indices 1 2 3 4 5 6 
#
# 1 78.9537 38.9383 27.2094 0.0000 0.0000 0.0000
# 2 38.9383 107.3987 31.7602 0.0000 0.0000 0.0000
# 3 27.2094 31.7602 95.0171 -0.0001 0.0000 0.0000
# 4 0.0000 0.0000 -0.0001 28.6606 0.0000 0.0000
# 5 0.0000 0.0000 0.0000 0.0000 25.9685 0.0000
# 6 0.0000 0.0000 0.0000 0.0000 0.0000 30.2900
#
#
#
# Elastic Compliance Matrix: (Units=1/GPa)
#
#
# Indices 1 2 3 4 5 6 
#
# 1 0.016140 -0.004977 -0.002958 0.000000 0.000000 0.000000
# 2 -0.004977 0.011867 -0.002541 0.000000 0.000000 0.000000
# 3 -0.002958 -0.002541 0.012221 0.000000 0.000000 0.000000
# 4 0.000000 0.000000 0.000000 0.034891 0.000000 0.000000
# 5 0.000000 0.000000 0.000000 0.000000 0.038508 0.000000
# 6 0.000000 0.000000 0.000000 0.000000 0.000000 0.033014
#
#
# Mechanical properties :
#
#
# Convention : Reuss Voigt Hill
#
# Bulk Modulus (GPa) = 51.88147 53.02058 52.45103
# Shear Modulus (GPa) = 28.73249 29.21459 28.97354
#
# Velocity S-wave (km/s) = 3.93630 3.96919 3.95278
# Velocity P-wave (km/s) = 6.97404 7.04260 7.00841
#
# Compressibility (1/GPa) = 0.01927470
#
# Stress axis : x y z
#
# Youngs Moduli (GPa) = 61.95951 84.26706 81.82579
#
# Poissons Ratio (x) = 0.41937 0.24206
# Poissons Ratio (y) = 0.30835 0.20796
# Poissons Ratio (z) = 0.18329 0.21416
#
# Static dielectric constant tensor:
#      x y z
#    x 3.287270 0.000000 0.000000 
#    y 0.000000 3.222080 0.000000 
#    z 0.000000 0.000000 3.299280 
# 
# 
# High freq. dielectric constant tensor:
#      x y z
#    x 1.697660 0.000000 0.000000 
#    y 0.000000 1.701690 0.000000 
#    z 0.000000 0.000000 1.726750 
# 
# From -- ./inp_files/28301.got.cif
#   From: 2010.03.12/outbox.cif.g09.slc.cpg/sg72_15_cif.got.tgz:28301.got - 2010.04.16 14:54:00.
