data_PCOD8295304
_publ_section_title
;
Structure prediction by ZEFSAII (Michael W. Deem and Ramdas Pophale) SiO2 
 PCOD8295304
Probable space group: I B A M
;
_chemical_formula_sum "Si O2"
_cell_formula_units_Z 96
_cell_length_a 13.782787
_cell_length_b 20.248514
_cell_length_c 17.027854
_cell_angle_alpha 90.000000
_cell_angle_beta 90.000000
_cell_angle_gamma 90.000000
_cell_volume 4752.149765
_symmetry_space_group_name_H-M "I B A M"
_symmetry_group_IT_number 72
_symmetry_cell_setting 'orthorhombic'
loop_
_space_group_symop_operation_xyz
x,y,z
-x,-y,z
x,-y,1/2-z
-x,y,1/2-z
-x,-y,-z
x,y,-z
-x,y,1/2+z
x,-y,1/2+z
1/2+x,1/2+y,1/2+z
1/2-x,1/2-y,1/2+z
1/2+x,1/2-y,-z
1/2-x,1/2+y,-z
1/2-x,1/2-y,1/2-z
1/2+x,1/2+y,1/2-z
1/2-x,1/2+y,z
1/2+x,1/2-y,z
loop_
_atom_site_type_symbol
_atom_site_label
_atom_site_fract_x
_atom_site_fract_y
_atom_site_fract_z
Si Si1 0.034401 0.927497 0.337585
Si Si2 0.066968 0.436822 0.590742
Si Si3 0.020170 0.306318 0.159630
Si Si4 0.247924 0.436878 0.695504
Si Si5 0.585562 0.316018 0.589458
Si Si6 0.769250 0.686589 0.802247
O O1 0.149786 0.920496 0.344694
O O2 0.000000 0.909825 0.250000
O O3 0.989690 0.875102 0.397197
O O4 0.000000 0.000000 0.362848
O O5 0.080112 0.417812 0.500000
O O6 0.171892 0.452595 0.626923
O O7 0.000000 0.500000 0.601927
O O8 0.016789 0.378221 0.637595
O O9 0.135550 0.301844 0.144479
O O10 0.000000 0.289788 0.250000
O O11 0.965301 0.253331 0.106708
O O12 0.262209 0.500000 0.750000
O O13 0.210221 0.375211 0.745766
O O14 0.620040 0.316193 0.500000
O O15 0.679480 0.328518 0.642058
O O16 0.750000 0.750000 0.750000
#
# Coordination Sequence:
#
# PCOD8295304 Si02
#       6
#    16  16  16  16  16  16
#     4  11  21  42  68  96 127 169 220 268 311 384
#     4  11  26  44  64  99 140 168 209 274 332 380
#     4  12  23  42  70  95 125 172 222 264 312 388
#     4  12  22  39  71  97 124 173 225 260 314 387
#     4  12  26  42  63  97 137 166 207 273 335 379
#     4  12  23  40  67  96 122 169 222 264 310 387
#
# _framework density 20.201381999999999
#
# number of rings (size 3 to 8) (size 9 to 14) (size 15 to 20)
#    0.000    0.333    6.667    3.000    0.000    2.333 
#    0.000    4.167    0.000    0.000    0.000    0.000 
#    0.000    0.000    0.000    0.000    0.000    0.000 
#
# Total GULP energy -595586.876452 kJ/mol
# GULP energy per Si atom -12408.059926 kJ/mol
# Density = 2.015540 g / cm^3
# Si number density = 20.201382 Si / 1000 Ang^3
#
#
#
# Elastic Constant Matrix: (Units=GPa)
#
#
# Indices 1 2 3 4 5 6 
#
# 1 156.3772 9.4994 38.2808 0.0000 0.0000 0.0000
# 2 9.4994 91.4642 26.6187 0.0001 0.0000 0.0000
# 3 38.2808 26.6187 94.6001 0.0003 0.0000 0.0000
# 4 0.0000 0.0001 0.0003 19.5517 0.0000 0.0000
# 5 0.0000 0.0000 0.0000 0.0000 12.6236 0.0000
# 6 0.0000 0.0000 0.0000 0.0000 0.0000 32.3556
#
#
#
# Elastic Compliance Matrix: (Units=1/GPa)
#
#
# Indices 1 2 3 4 5 6 
#
# 1 0.007099 0.000108 -0.002903 0.000000 0.000000 0.000000
# 2 0.000108 0.011910 -0.003395 0.000000 0.000000 0.000000
# 3 -0.002903 -0.003395 0.012701 0.000000 0.000000 0.000000
# 4 0.000000 0.000000 0.000000 0.051146 0.000000 0.000000
# 5 0.000000 0.000000 0.000000 0.000000 0.079217 0.000000
# 6 0.000000 0.000000 0.000000 0.000000 0.000000 0.030907
#
#
# Mechanical properties :
#
#
# Convention : Reuss Voigt Hill
#
# Bulk Modulus (GPa) = 51.73468 54.58213 53.15841
# Shear Modulus (GPa) = 23.60689 30.77569 27.19129
#
# Velocity S-wave (km/s) = 3.42216 3.90737 3.67278
# Velocity P-wave (km/s) = 6.42495 6.88726 6.66012
#
# Compressibility (1/GPa) = 0.01932939
#
# Stress axis : x y z
#
# Youngs Moduli (GPa) = 140.86726 83.96271 78.73570
#
# Poissons Ratio (x) = -0.00903 0.22856
# Poissons Ratio (y) = -0.01515 0.26729
# Poissons Ratio (z) = 0.40892 0.28504
#
# Static dielectric constant tensor:
#      x y z
#    x 4.154350 0.000000 0.000000 
#    y 0.000000 6.708420 0.000000 
#    z 0.000000 0.000000 3.597020 
# 
# 
# High freq. dielectric constant tensor:
#      x y z
#    x 1.809460 0.000000 0.000000 
#    y 0.000000 1.807160 0.000000 
#    z 0.000000 0.000000 1.772440 
# 
# From -- ./inp_files/21824.got.cif
#   From: 2010.03.12/outbox.cif.g09.slc.cpg/sg72_11_cif.got.tgz:21824.got - 2010.04.16 14:54:00.
