data_PCOD8295543
_publ_section_title
;
Structure prediction by ZEFSAII (Michael W. Deem and Ramdas Pophale) SiO2 
 PCOD8295543
Probable space group: I B C A 
;
_chemical_formula_sum "Si O2"
_cell_formula_units_Z 72
_cell_length_a 5.251897
_cell_length_b 19.654391
_cell_length_c 25.826111
_cell_angle_alpha 90.000000
_cell_angle_beta 90.000000
_cell_angle_gamma 90.000000
_cell_volume 2665.844449
_symmetry_space_group_name_H-M "I B C A "
_symmetry_group_IT_number 73
_symmetry_cell_setting 'orthorhombic'
loop_
_space_group_symop_operation_xyz
x,y,z
-x,1/2-y,z
x,-y,1/2-z
1/2-x,y,-z
-x,-y,-z
x,1/2+y,-z
-x,y,1/2+z
1/2+x,-y,z
1/2+x,1/2+y,1/2+z
1/2-x,-y,1/2+z
1/2+x,1/2-y,-z
-x,1/2+y,1/2-z
1/2-x,1/2-y,1/2-z
1/2+x,y,1/2-z
1/2-x,1/2+y,z
x,1/2-y,1/2+z
loop_
_atom_site_type_symbol
_atom_site_label
_atom_site_fract_x
_atom_site_fract_y
_atom_site_fract_z
Si Si1 0.500000 0.250000 0.135536
Si Si2 0.174078 0.967875 0.440761
Si Si3 0.177005 0.686906 0.941480
Si Si4 0.618010 0.473181 0.307065
Si Si5 0.814687 0.179119 0.217006
O O1 0.583839 0.311555 0.097726
O O2 0.742609 0.227147 0.169363
O O3 0.250000 0.986925 0.500000
O O4 0.073094 0.889881 0.436011
O O5 0.446523 0.987256 0.414439
O O6 0.000000 0.750000 0.923819
O O7 0.250000 0.702018 0.000000
O O8 0.540833 0.500000 0.250000
O O9 0.340862 0.481606 0.335041
O O10 0.712728 0.396482 0.304328
O O11 0.604417 0.192767 0.262724
#
# Coordination Sequence:
#
# PCOD8295543 Si02
#       5
#     8  16  16  16  16
#     4  12  30  44  66 108 138 194 252 298 358 458
#     4   9  20  39  70 103 136 181 236 301 376 438
#     4  11  25  47  76 103 147 196 250 312 374 442
#     4  10  16  34  64  95 125 177 230 276 351 432
#     4  12  24  44  69  97 142 187 226 298 361 423
#
# _framework density 27.008329
#
# number of rings (size 3 to 8) (size 9 to 14) (size 15 to 20)
#    0.000    1.333    5.556    0.667    6.222    0.889 
#    0.000    2.222    0.000    0.000    0.000    0.000 
#    0.000    0.000    0.000    0.000    0.000    0.000 
#
# Total GULP energy -446095.041937 kJ/mol
# GULP energy per Si atom -12391.528943 kJ/mol
# Density = 2.694686 g / cm^3
# Si number density = 27.008329 Si / 1000 Ang^3
#
#
#
# Elastic Constant Matrix: (Units=GPa)
#
#
# Indices 1 2 3 4 5 6 
#
# 1 218.4640 62.4582 56.2541 0.0000 0.0000 0.0000
# 2 62.4582 145.1521 36.5497 0.0000 0.0000 0.0000
# 3 56.2541 36.5497 83.7574 0.0000 0.0000 0.0000
# 4 0.0000 0.0000 0.0000 -11.2701 0.0000 0.0000
# 5 0.0000 0.0000 0.0000 0.0000 28.1059 0.0000
# 6 0.0000 0.0000 0.0000 0.0000 0.0000 175.6956
#
#
#
# Elastic Compliance Matrix: (Units=1/GPa)
#
#
# Indices 1 2 3 4 5 6 
#
# 1 0.005898 -0.001730 -0.003206 0.000000 0.000000 0.000000
# 2 -0.001730 0.008248 -0.002437 0.000000 0.000000 0.000000
# 3 -0.003206 -0.002437 0.015156 0.000000 0.000000 0.000000
# 4 0.000000 0.000000 0.000000 -0.088730 0.000000 0.000000
# 5 0.000000 0.000000 0.000000 0.000000 0.035580 0.000000
# 6 0.000000 0.000000 0.000000 0.000000 0.000000 0.005692
#
#
# Mechanical properties :
#
#
# Convention : Reuss Voigt Hill
#
# Bulk Modulus (GPa) = 68.70665 84.21085 76.45875
# Shear Modulus (GPa) = 3471.49211 57.98037 1764.73624
#
# Velocity S-wave (km/s) = 35.89055 4.63834 25.58951
# Velocity P-wave (km/s) = 41.74929 7.74163 30.02446
#
# Compressibility (1/GPa) = 0.01455463
#
# Stress axis : x y z
#
# Youngs Moduli (GPa) = 169.55839 121.24839 65.98135
#
# Poissons Ratio (x) = 0.20982 0.21153
# Poissons Ratio (y) = 0.29342 0.16078
# Poissons Ratio (z) = 0.54359 0.29546
#
# Static dielectric constant tensor:
#      x y z
#    x 5.215060 0.000000 0.000000 
#    y 0.000000 4.864090 0.000000 
#    z 0.000000 0.000000 4.934900 
# 
# 
# High freq. dielectric constant tensor:
#      x y z
#    x 2.101540 0.000000 0.000000 
#    y 0.000000 2.084520 0.000000 
#    z 0.000000 0.000000 2.103990 
# 
# From -- ./inp_files/30859.got.cif
#   From: 2010.03.12/outbox.cif.g09.slc.cpg/sg73_16_cif.got.tgz:30859.got - 2010.04.16 15:25:48.
