data_PCOD8295725
_publ_section_title
;
Structure prediction by ZEFSAII (Michael W. Deem and Ramdas Pophale) SiO2 
 PCOD8295725
Probable space group: I B C A 
;
_chemical_formula_sum "Si O2"
_cell_formula_units_Z 120
_cell_length_a 22.044918
_cell_length_b 12.393017
_cell_length_c 22.384666
_cell_angle_alpha 90.000000
_cell_angle_beta 90.000000
_cell_angle_gamma 90.000000
_cell_volume 6115.558880
_symmetry_space_group_name_H-M "I B C A "
_symmetry_group_IT_number 73
_symmetry_cell_setting 'orthorhombic'
loop_
_space_group_symop_operation_xyz
x,y,z
-x,1/2-y,z
x,-y,1/2-z
1/2-x,y,-z
-x,-y,-z
x,1/2+y,-z
-x,y,1/2+z
1/2+x,-y,z
1/2+x,1/2+y,1/2+z
1/2-x,-y,1/2+z
1/2+x,1/2-y,-z
-x,1/2+y,1/2-z
1/2-x,1/2-y,1/2-z
1/2+x,y,1/2-z
1/2-x,1/2+y,z
x,1/2-y,1/2+z
loop_
_atom_site_type_symbol
_atom_site_label
_atom_site_fract_x
_atom_site_fract_y
_atom_site_fract_z
Si Si1 0.927001 0.567151 0.439939
Si Si2 0.171856 0.727059 0.690729
Si Si3 0.771756 0.899027 0.790272
Si Si4 0.121957 0.716744 0.480448
Si Si5 0.945724 0.486190 0.567690
Si Si6 0.569084 0.786722 0.892278
Si Si7 0.812087 0.536865 0.106606
Si Si8 0.250000 0.872740 0.000000
O O1 0.894618 0.683240 0.437443
O O2 0.952608 0.550652 0.506055
O O3 0.880751 0.473688 0.418854
O O4 0.990628 0.558424 0.403829
O O5 0.176373 0.670837 0.755990
O O6 0.211215 0.834830 0.693616
O O7 0.103718 0.748939 0.668088
O O8 0.200337 0.645957 0.642624
O O9 0.751651 0.000000 0.750000
O O10 0.801006 0.932954 0.852726
O O11 0.099778 0.612118 0.443811
O O12 0.094984 0.731184 0.547148
O O13 0.194181 0.706714 0.486200
O O14 0.921936 0.582864 0.610153
O O15 0.500000 0.750000 0.885955
O O16 0.764839 0.542971 0.052623
#
# Coordination Sequence:
#
# PCOD8295725 Si02
#       8
#    16  16  16  16  16  16  16   8
#     4  10  20  34  56  78 123 160 204 240 303 368
#     4  10  20  41  61  88 112 155 209 257 317 368
#     4   9  22  40  64  84 115 156 203 258 316 377
#     4  11  22  36  51  87 130 172 200 252 305 386
#     4  10  19  35  53  83 116 164 201 246 294 374
#     4  11  21  35  63  87 119 159 212 259 315 375
#     4  11  22  37  57  88 123 163 203 252 306 378
#     4  12  24  34  52  90 134 158 214 248 308 382
#
# _framework density 19.622083
#
# number of rings (size 3 to 8) (size 9 to 14) (size 15 to 20)
#    0.000    1.600    2.667    3.600    3.733    0.533 
#    0.000    0.000    0.000    5.600    0.000    0.000 
#    0.000    0.000    0.000    0.000    0.000    0.000 
#
# Total GULP energy -743433.812241 kJ/mol
# GULP energy per Si atom -12390.563537 kJ/mol
# Density = 1.957742 g / cm^3
# Si number density = 19.622083 Si / 1000 Ang^3
#
#
#
# Elastic Constant Matrix: (Units=GPa)
#
#
# Indices 1 2 3 4 5 6 
#
# 1 143.6959 56.6944 44.8125 0.0000 0.0000 0.0000
# 2 56.6944 121.9444 33.5090 0.0000 0.0000 0.0000
# 3 44.8125 33.5090 75.0764 0.0000 0.0000 0.0000
# 4 0.0000 0.0000 0.0000 23.2051 0.0000 0.0000
# 5 0.0000 0.0000 0.0000 0.0000 15.3876 0.0000
# 6 0.0000 0.0000 0.0000 0.0000 0.0000 32.5576
#
#
#
# Elastic Compliance Matrix: (Units=1/GPa)
#
#
# Indices 1 2 3 4 5 6 
#
# 1 0.009582 -0.003286 -0.004253 0.000000 0.000000 0.000000
# 2 -0.003286 0.010474 -0.002713 0.000000 0.000000 0.000000
# 3 -0.004253 -0.002713 0.017069 0.000000 0.000000 0.000000
# 4 0.000000 0.000000 0.000000 0.043094 0.000000 0.000000
# 5 0.000000 0.000000 0.000000 0.000000 0.064987 0.000000
# 6 0.000000 0.000000 0.000000 0.000000 0.000000 0.030715
#
#
# Mechanical properties :
#
#
# Convention : Reuss Voigt Hill
#
# Bulk Modulus (GPa) = 60.16615 67.86095 64.01355
# Shear Modulus (GPa) = 24.75670 27.94345 26.35007
#
# Velocity S-wave (km/s) = 3.55586 3.77779 3.66851
# Velocity P-wave (km/s) = 6.89840 7.32721 7.11604
#
# Compressibility (1/GPa) = 0.01662064
#
# Stress axis : x y z
#
# Youngs Moduli (GPa) = 104.36319 95.47557 58.58522
#
# Poissons Ratio (x) = 0.31376 0.24914
# Poissons Ratio (y) = 0.34296 0.15896
# Poissons Ratio (z) = 0.44382 0.25905
#
# Static dielectric constant tensor:
#      x y z
#    x 3.572040 0.000000 0.000000 
#    y 0.000000 3.841350 0.000000 
#    z 0.000000 0.000000 3.454890 
# 
# 
# High freq. dielectric constant tensor:
#      x y z
#    x 1.759720 0.000000 0.000000 
#    y 0.000000 1.782770 0.000000 
#    z 0.000000 0.000000 1.727320 
# 
# From -- ./inp_files/30185.got.cif
#   From: 2010.03.12/outbox.cif.g09.slc.cpg/sg73_16_cif.got.tgz:30185.got - 2010.04.16 15:25:48.
