data_PCOD8295497
_publ_section_title
;
Structure prediction by ZEFSAII (Michael W. Deem and Ramdas Pophale) SiO2 
 PCOD8295497
Probable space group: I B A M
;
_chemical_formula_sum "Si O2"
_cell_formula_units_Z 112
_cell_length_a 16.549857
_cell_length_b 16.714868
_cell_length_c 29.555894
_cell_angle_alpha 90.000000
_cell_angle_beta 90.000000
_cell_angle_gamma 90.000000
_cell_volume 8176.007801
_symmetry_space_group_name_H-M "I B A M"
_symmetry_group_IT_number 72
_symmetry_cell_setting 'orthorhombic'
loop_
_space_group_symop_operation_xyz
x,y,z
-x,-y,z
x,-y,1/2-z
-x,y,1/2-z
-x,-y,-z
x,y,-z
-x,y,1/2+z
x,-y,1/2+z
1/2+x,1/2+y,1/2+z
1/2-x,1/2-y,1/2+z
1/2+x,1/2-y,-z
1/2-x,1/2+y,-z
1/2-x,1/2-y,1/2-z
1/2+x,1/2+y,1/2-z
1/2-x,1/2+y,z
1/2+x,1/2-y,z
loop_
_atom_site_type_symbol
_atom_site_label
_atom_site_fract_x
_atom_site_fract_y
_atom_site_fract_z
Si Si1 0.906875 0.719164 0.249939
Si Si2 0.903637 0.091991 0.401985
Si Si3 0.182340 0.813337 0.176060
Si Si4 0.272307 0.906990 0.750047
Si Si5 0.182465 0.813404 0.676044
Si Si6 0.587667 0.594321 0.000000
Si Si7 0.596155 0.407794 0.401984
Si Si8 0.912142 0.094117 0.500000
O O1 0.886735 0.775534 0.292432
O O2 0.857813 0.637073 0.253745
O O3 0.884576 0.764361 0.203700
O O4 0.000000 0.696631 0.250000
O O5 0.858671 0.149631 0.367673
O O6 0.869378 0.116537 0.452276
O O7 0.999882 0.104805 0.399445
O O8 0.882592 0.999869 0.390808
O O9 0.228082 0.882487 0.203659
O O10 0.245554 0.745391 0.160793
O O11 0.140923 0.850042 0.132353
O O12 0.216818 0.883970 0.707452
O O13 0.289765 0.000000 0.750000
O O14 0.630387 0.616821 0.047727
O O15 0.499857 0.636019 0.000000
O O16 0.574483 0.500089 0.000000
#
# Coordination Sequence:
#
# PCOD8295497 Si02
#       8
#    16  16  16  16  16   8  16   8
#     4   9  17  28  40  54  73  97 124 152 180 213
#     4   9  15  24  40  58  74  95 123 152 179 210
#     4   9  17  27  38  54  77 100 119 145 184 222
#     4   9  17  28  40  54  73  97 124 152 180 213
#     4   9  17  27  38  54  77 100 119 145 184 222
#     4   7  12  22  35  54  76  94 117 149 180 208
#     4   9  15  24  40  58  74  95 123 152 179 210
#     4   7  12  22  35  54  76  94 117 149 180 208
#
# _framework density 13.698617
#
# number of rings (size 3 to 8) (size 9 to 14) (size 15 to 20)
#    0.000    3.286    0.000    5.143    0.000    0.286 
#    0.000    0.714    0.000    6.857    0.000    0.000 
#    0.000    0.000    0.000    0.000    0.000  171.429 
#
# Total GULP energy -693809.022407 kJ/mol
# GULP energy per Si atom -12389.446829 kJ/mol
# Density = 1.366744 g / cm^3
# Si number density = 13.698617 Si / 1000 Ang^3
#
#
#
# Elastic Constant Matrix: (Units=GPa)
#
#
# Indices 1 2 3 4 5 6 
#
# 1 54.3471 19.7142 28.7270 0.0000 0.0000 0.0000
# 2 19.7142 67.8516 40.0651 0.0000 0.0000 0.0000
# 3 28.7270 40.0651 112.6075 0.0000 0.0000 0.0000
# 4 0.0000 0.0000 0.0000 21.7890 0.0000 0.0000
# 5 0.0000 0.0000 0.0000 0.0000 15.7302 0.0000
# 6 0.0000 0.0000 0.0000 0.0000 0.0000 16.3224
#
#
#
# Elastic Compliance Matrix: (Units=1/GPa)
#
#
# Indices 1 2 3 4 5 6 
#
# 1 0.022057 -0.003907 -0.004237 0.000000 0.000000 0.000000
# 2 -0.003907 0.019350 -0.005888 0.000000 0.000000 0.000000
# 3 -0.004237 -0.005888 0.012056 0.000000 0.000000 0.000000
# 4 0.000000 0.000000 0.000000 0.045895 0.000000 0.000000
# 5 0.000000 0.000000 0.000000 0.000000 0.063572 0.000000
# 6 0.000000 0.000000 0.000000 0.000000 0.000000 0.061265
#
#
# Mechanical properties :
#
#
# Convention : Reuss Voigt Hill
#
# Bulk Modulus (GPa) = 39.37042 45.75762 42.56402
# Shear Modulus (GPa) = 19.17731 20.52167 19.84949
#
# Velocity S-wave (km/s) = 3.74564 3.87471 3.81072
# Velocity P-wave (km/s) = 6.89270 7.31392 7.10643
#
# Compressibility (1/GPa) = 0.02539978
#
# Stress axis : x y z
#
# Youngs Moduli (GPa) = 45.33714 51.67991 82.94532
#
# Poissons Ratio (x) = 0.20191 0.35143
# Poissons Ratio (y) = 0.17712 0.48837
# Poissons Ratio (z) = 0.19209 0.30429
#
# Static dielectric constant tensor:
#      x y z
#    x 2.476310 0.000000 0.000000 
#    y 0.000000 2.495450 0.000000 
#    z 0.000000 0.000000 2.898910 
# 
# 
# High freq. dielectric constant tensor:
#      x y z
#    x 1.500940 0.000000 0.000000 
#    y 0.000000 1.504170 0.000000 
#    z 0.000000 0.000000 1.530030 
# 
# From -- ./inp_files/48756.got.cif
#   From: 2010.03.12/outbox.cif.g09.slc.cpg/sg72_25_cif.got.tgz:48756.got - 2010.04.16 14:54:00.
