data_PCOD8295611
_publ_section_title
;
Structure prediction by ZEFSAII (Michael W. Deem and Ramdas Pophale) SiO2 
 PCOD8295611
Probable space group: I B C A 
;
_chemical_formula_sum "Si O2"
_cell_formula_units_Z 120
_cell_length_a 11.959447
_cell_length_b 20.608716
_cell_length_c 24.495902
_cell_angle_alpha 90.000000
_cell_angle_beta 90.000000
_cell_angle_gamma 90.000000
_cell_volume 6037.476716
_symmetry_space_group_name_H-M "I B C A "
_symmetry_group_IT_number 73
_symmetry_cell_setting 'orthorhombic'
loop_
_space_group_symop_operation_xyz
x,y,z
-x,1/2-y,z
x,-y,1/2-z
1/2-x,y,-z
-x,-y,-z
x,1/2+y,-z
-x,y,1/2+z
1/2+x,-y,z
1/2+x,1/2+y,1/2+z
1/2-x,-y,1/2+z
1/2+x,1/2-y,-z
-x,1/2+y,1/2-z
1/2-x,1/2-y,1/2-z
1/2+x,y,1/2-z
1/2-x,1/2+y,z
x,1/2-y,1/2+z
loop_
_atom_site_type_symbol
_atom_site_label
_atom_site_fract_x
_atom_site_fract_y
_atom_site_fract_z
Si Si1 0.594249 0.000000 0.750000
Si Si2 0.540540 0.057350 0.568511
Si Si3 0.904833 0.832937 0.353703
Si Si4 0.854547 0.687990 0.320729
Si Si5 0.414198 0.523808 0.331826
Si Si6 0.745831 0.390142 0.729366
Si Si7 0.008356 0.409688 0.046877
Si Si8 0.784488 0.416131 0.104913
O O1 0.519165 0.013371 0.804045
O O2 0.670326 0.936626 0.763510
O O3 0.460551 0.070096 0.620025
O O4 0.482444 0.097602 0.518766
O O5 0.666776 0.078364 0.576274
O O6 0.553607 0.980351 0.561046
O O7 0.862215 0.759822 0.344846
O O8 0.806768 0.874888 0.327527
O O9 0.924533 0.854995 0.417333
O O10 0.020578 0.842695 0.320607
O O11 0.795541 0.675056 0.261544
O O12 0.774784 0.649838 0.361486
O O13 0.364036 0.568998 0.284804
O O14 0.320565 0.474278 0.354127
O O15 0.876666 0.407708 0.058283
#
# Coordination Sequence:
#
# PCOD8295611 Si02
#       8
#     8  16  16  16  16  16  16  16
#     4  12  22  34  54  82 120 156 186 238 300 358
#     4  10  19  33  55  84 112 140 181 241 295 348
#     4  10  21  38  55  76 110 148 190 238 282 345
#     4  10  21  35  56  80 105 148 197 233 279 343
#     4  11  21  32  52  85 119 150 184 236 308 365
#     4  12  21  34  54  80 113 148 189 234 289 353
#     4   9  19  34  55  80 109 145 184 230 294 350
#     4  10  18  33  54  81 111 143 185 230 286 357
#
# _framework density 19.875852999999999
#
# number of rings (size 3 to 8) (size 9 to 14) (size 15 to 20)
#    0.000    1.600    0.000    8.400    0.000    0.000 
#    0.000    2.000    0.000   11.200    0.000    0.000 
#    0.000    0.000    0.000    0.000    0.000    0.000 
#
# Total GULP energy -743433.534035 kJ/mol
# GULP energy per Si atom -12390.558901 kJ/mol
# Density = 1.983061 g / cm^3
# Si number density = 19.875853 Si / 1000 Ang^3
#
#
#
# Elastic Constant Matrix: (Units=GPa)
#
#
# Indices 1 2 3 4 5 6 
#
# 1 79.7735 29.3352 43.4880 0.0000 0.0000 0.0000
# 2 29.3352 77.1664 40.9392 0.0000 0.0000 0.0000
# 3 43.4880 40.9392 115.8478 0.0000 0.0000 0.0000
# 4 0.0000 0.0000 0.0000 24.8914 0.0000 0.0000
# 5 0.0000 0.0000 0.0000 0.0000 26.2896 0.0000
# 6 0.0000 0.0000 0.0000 0.0000 0.0000 25.2116
#
#
#
# Elastic Compliance Matrix: (Units=1/GPa)
#
#
# Indices 1 2 3 4 5 6 
#
# 1 0.016574 -0.003692 -0.004917 0.000000 0.000000 0.000000
# 2 -0.003692 0.016772 -0.004541 0.000000 0.000000 0.000000
# 3 -0.004917 -0.004541 0.012082 0.000000 0.000000 0.000000
# 4 0.000000 0.000000 0.000000 0.040175 0.000000 0.000000
# 5 0.000000 0.000000 0.000000 0.000000 0.038038 0.000000
# 6 0.000000 0.000000 0.000000 0.000000 0.000000 0.039664
#
#
# Mechanical properties :
#
#
# Convention : Reuss Voigt Hill
#
# Bulk Modulus (GPa) = 52.27911 55.59027 53.93469
# Shear Modulus (GPa) = 25.51282 25.88020 25.69651
#
# Velocity S-wave (km/s) = 3.58664 3.61237 3.59952
# Velocity P-wave (km/s) = 6.59635 6.74006 6.66859
#
# Compressibility (1/GPa) = 0.01912810
#
# Stress axis : x y z
#
# Youngs Moduli (GPa) = 60.33717 59.62443 82.76461
#
# Poissons Ratio (x) = 0.22013 0.40694
# Poissons Ratio (y) = 0.22276 0.37583
# Poissons Ratio (z) = 0.29667 0.27075
#
# Static dielectric constant tensor:
#      x y z
#    x 3.662090 0.000000 0.000000 
#    y 0.000000 3.495420 0.000000 
#    z 0.000000 0.000000 3.906380 
# 
# 
# High freq. dielectric constant tensor:
#      x y z
#    x 1.779430 0.000000 0.000000 
#    y 0.000000 1.747260 0.000000 
#    z 0.000000 0.000000 1.774190 
# 
# From -- ./inp_files/31909.got.cif
#   From: 2010.03.12/outbox.cif.g09.slc.cpg/sg73_16_cif.got.tgz:31909.got - 2010.04.16 15:25:48.
