data_PCOD8295454
_publ_section_title
;
Structure prediction by ZEFSAII (Michael W. Deem and Ramdas Pophale) SiO2 
 PCOD8295454
Probable space group: I B A M
;
_chemical_formula_sum "Si O2"
_cell_formula_units_Z 64
_cell_length_a 16.336087
_cell_length_b 10.538619
_cell_length_c 17.297139
_cell_angle_alpha 90.000000
_cell_angle_beta 90.000000
_cell_angle_gamma 90.000000
_cell_volume 2977.871936
_symmetry_space_group_name_H-M "I B A M"
_symmetry_group_IT_number 72
_symmetry_cell_setting 'orthorhombic'
loop_
_space_group_symop_operation_xyz
x,y,z
-x,-y,z
x,-y,1/2-z
-x,y,1/2-z
-x,-y,-z
x,y,-z
-x,y,1/2+z
x,-y,1/2+z
1/2+x,1/2+y,1/2+z
1/2-x,1/2-y,1/2+z
1/2+x,1/2-y,-z
1/2-x,1/2+y,-z
1/2-x,1/2-y,1/2-z
1/2+x,1/2+y,1/2-z
1/2-x,1/2+y,z
1/2+x,1/2-y,z
loop_
_atom_site_type_symbol
_atom_site_label
_atom_site_fract_x
_atom_site_fract_y
_atom_site_fract_z
Si Si1 0.053918 0.267517 0.180032
Si Si2 0.903153 0.513550 0.915895
Si Si3 0.811483 0.862045 0.268318
Si Si4 0.602233 0.269639 0.410289
O O1 0.115444 0.377135 0.147074
O O2 0.108800 0.153954 0.213438
O O3 0.000000 0.326881 0.250000
O O4 0.993457 0.214260 0.113479
O O5 0.867861 0.375444 0.893674
O O6 0.000000 0.500000 0.921386
O O7 0.868369 0.554856 0.000000
O O8 0.750000 0.750000 0.250000
O O9 0.839177 0.857675 0.358307
O O10 0.773068 0.000000 0.250000
O O11 0.611675 0.307171 0.500000
#
# Coordination Sequence:
#
# PCOD8295454 Si02
#       4
#    16  16  16  16
#     4   9  18  32  59  90 121 156 205 251 305 350
#     4   8  14  27  52  90 123 148 185 238 297 356
#     4  11  26  43  61  87 124 167 210 247 303 375
#     4   9  19  38  64  94 124 155 201 260 309 356
#
# _framework density 21.491857
#
# number of rings (size 3 to 8) (size 9 to 14) (size 15 to 20)
#    0.000    2.750    0.000    2.250    3.500   15.000 
#    0.000    7.500    0.000    0.000    0.000    0.000 
#    0.000    0.000    0.000    0.000    0.000    0.000 
#
# Total GULP energy -396575.759755 kJ/mol
# GULP energy per Si atom -12392.992492 kJ/mol
# Density = 2.144294 g / cm^3
# Si number density = 21.491857 Si / 1000 Ang^3
#
#
#
# Elastic Constant Matrix: (Units=GPa)
#
#
# Indices 1 2 3 4 5 6 
#
# 1 43.9624 30.6524 35.2546 0.0000 0.0000 0.0000
# 2 30.6524 119.3923 58.2557 0.0000 0.0000 0.0000
# 3 35.2546 58.2557 141.0322 0.0000 0.0000 0.0000
# 4 0.0000 0.0000 0.0000 29.8988 0.0000 0.0000
# 5 0.0000 0.0000 0.0000 0.0000 13.8533 0.0000
# 6 0.0000 0.0000 0.0000 0.0000 0.0000 27.6373
#
#
#
# Elastic Compliance Matrix: (Units=1/GPa)
#
#
# Indices 1 2 3 4 5 6 
#
# 1 0.030832 -0.005204 -0.005558 0.000000 0.000000 0.000000
# 2 -0.005204 0.011368 -0.003395 0.000000 0.000000 0.000000
# 3 -0.005558 -0.003395 0.009882 0.000000 0.000000 0.000000
# 4 0.000000 0.000000 0.000000 0.033446 0.000000 0.000000
# 5 0.000000 0.000000 0.000000 0.000000 0.072185 0.000000
# 6 0.000000 0.000000 0.000000 0.000000 0.000000 0.036183
#
#
# Mechanical properties :
#
#
# Convention : Reuss Voigt Hill
#
# Bulk Modulus (GPa) = 42.07106 61.41244 51.74175
# Shear Modulus (GPa) = 21.72660 26.29285 24.00973
#
# Velocity S-wave (km/s) = 3.18295 3.50149 3.34601
# Velocity P-wave (km/s) = 5.75553 6.70701 6.24940
#
# Compressibility (1/GPa) = 0.02376931
#
# Stress axis : x y z
#
# Youngs Moduli (GPa) = 32.43390 87.96358 101.19169
#
# Poissons Ratio (x) = 0.45775 0.56239
# Poissons Ratio (y) = 0.16878 0.34355
# Poissons Ratio (z) = 0.18026 0.29864
#
# Static dielectric constant tensor:
#      x y z
#    x 3.513660 0.000000 0.000000 
#    y 0.000000 3.776530 0.000000 
#    z 0.000000 0.000000 4.207960 
# 
# 
# High freq. dielectric constant tensor:
#      x y z
#    x 1.804560 0.000000 0.000000 
#    y 0.000000 1.816770 0.000000 
#    z 0.000000 0.000000 1.856080 
# 
# From -- ./inp_files/28936.got.cif
#   From: 2010.03.12/outbox.cif.g09.slc.cpg/sg72_15_cif.got.tgz:28936.got - 2010.04.16 14:54:00.
