data_PCOD8295148
_publ_section_title
;
Structure prediction by ZEFSAII (Michael W. Deem and Ramdas Pophale) SiO2 
 PCOD8295148
Probable space group: I B A M
;
_chemical_formula_sum "Si O2"
_cell_formula_units_Z 48
_cell_length_a 18.005028
_cell_length_b 7.432451
_cell_length_c 15.639731
_cell_angle_alpha 90.000000
_cell_angle_beta 90.000000
_cell_angle_gamma 90.000000
_cell_volume 2092.932080
_symmetry_space_group_name_H-M "I B A M"
_symmetry_group_IT_number 72
_symmetry_cell_setting 'orthorhombic'
loop_
_space_group_symop_operation_xyz
x,y,z
-x,-y,z
x,-y,1/2-z
-x,y,1/2-z
-x,-y,-z
x,y,-z
-x,y,1/2+z
x,-y,1/2+z
1/2+x,1/2+y,1/2+z
1/2-x,1/2-y,1/2+z
1/2+x,1/2-y,-z
1/2-x,1/2+y,-z
1/2-x,1/2-y,1/2-z
1/2+x,1/2+y,1/2-z
1/2-x,1/2+y,z
1/2+x,1/2-y,z
loop_
_atom_site_type_symbol
_atom_site_label
_atom_site_fract_x
_atom_site_fract_y
_atom_site_fract_z
Si Si1 0.662904 0.619334 0.094135
Si Si2 0.698208 0.746935 0.333853
Si Si3 0.585436 0.974513 0.899208
O O1 0.661309 0.449194 0.157292
O O2 0.744568 0.710746 0.089408
O O3 0.604755 0.769236 0.126349
O O4 0.640545 0.552089 0.000000
O O5 0.750000 0.750000 0.250000
O O6 0.633187 0.894895 0.337779
O O7 0.500000 0.000000 0.876709
O O8 0.601778 0.010695 0.000000
#
# Coordination Sequence:
#
# PCOD8295148 Si02
#       3
#    16  16  16
#     4  11  22  39  68  97 129 180 236 285 339 423
#     4  12  24  39  65 100 135 176 226 291 351 420
#     4  10  23  43  68 101 139 182 237 296 349 412
#
# _framework density 22.934332999999999
#
# number of rings (size 3 to 8) (size 9 to 14) (size 15 to 20)
#    0.000    1.000    3.333    4.000    0.000    1.333 
#    0.000    8.333    0.000    4.000    0.000    0.000 
#    0.000    0.000    0.000    0.000    0.000    0.000 
#
# Total GULP energy -297519.725059 kJ/mol
# GULP energy per Si atom -12396.655211 kJ/mol
# Density = 2.288213 g / cm^3
# Si number density = 22.934333 Si / 1000 Ang^3
#
#
#
# Elastic Constant Matrix: (Units=GPa)
#
#
# Indices 1 2 3 4 5 6 
#
# 1 145.5282 83.6109 50.1333 0.0000 0.0000 0.0000
# 2 83.6109 213.5355 77.2630 0.0000 0.0000 0.0000
# 3 50.1333 77.2630 99.1369 0.0000 0.0000 0.0000
# 4 0.0000 0.0000 0.0000 26.9443 0.0000 0.0000
# 5 0.0000 0.0000 0.0000 0.0000 31.4597 0.0000
# 6 0.0000 0.0000 0.0000 0.0000 0.0000 41.9001
#
#
#
# Elastic Compliance Matrix: (Units=1/GPa)
#
#
# Indices 1 2 3 4 5 6 
#
# 1 0.009325 -0.002709 -0.002604 0.000000 0.000000 0.000000
# 2 -0.002709 0.007309 -0.004327 0.000000 0.000000 0.000000
# 3 -0.002604 -0.004327 0.014776 0.000000 0.000000 0.000000
# 4 0.000000 0.000000 0.000000 0.037114 0.000000 0.000000
# 5 0.000000 0.000000 0.000000 0.000000 0.031787 0.000000
# 6 0.000000 0.000000 0.000000 0.000000 0.000000 0.023866
#
#
# Mechanical properties :
#
#
# Convention : Reuss Voigt Hill
#
# Bulk Modulus (GPa) = 82.43714 97.80165 90.11940
# Shear Modulus (GPa) = 33.89820 36.54039 35.21929
#
# Velocity S-wave (km/s) = 3.84872 3.99590 3.92300
# Velocity P-wave (km/s) = 7.46814 8.00165 7.73949
#
# Compressibility (1/GPa) = 0.01213046
#
# Stress axis : x y z
#
# Youngs Moduli (GPa) = 107.23734 136.81310 67.67686
#
# Poissons Ratio (x) = 0.37062 0.17626
# Poissons Ratio (y) = 0.29050 0.29281
# Poissons Ratio (z) = 0.27930 0.59194
#
# Static dielectric constant tensor:
#      x y z
#    x 4.046280 0.000000 0.000000 
#    y 0.000000 4.257930 0.000000 
#    z 0.000000 0.000000 4.108050 
# 
# 
# High freq. dielectric constant tensor:
#      x y z
#    x 1.883380 0.000000 0.000000 
#    y 0.000000 1.918330 0.000000 
#    z 0.000000 0.000000 1.904820 
# 
# From -- ./inp_files/22582.got.cif
#   From: 2010.03.12/outbox.cif.g09.slc.cpg/sg72_12_cif.got.tgz:22582.got - 2010.04.16 14:54:00.
