data_PCOD8295887
_publ_section_title
;
Structure prediction by ZEFSAII (Michael W. Deem and Ramdas Pophale) SiO2 
 PCOD8295887
Probable space group: I B C A 
;
_chemical_formula_sum "Si O2"
_cell_formula_units_Z 88
_cell_length_a 11.502115
_cell_length_b 18.057455
_cell_length_c 22.209243
_cell_angle_alpha 90.000000
_cell_angle_beta 90.000000
_cell_angle_gamma 90.000000
_cell_volume 4612.835874
_symmetry_space_group_name_H-M "I B C A "
_symmetry_group_IT_number 73
_symmetry_cell_setting 'orthorhombic'
loop_
_space_group_symop_operation_xyz
x,y,z
-x,1/2-y,z
x,-y,1/2-z
1/2-x,y,-z
-x,-y,-z
x,1/2+y,-z
-x,y,1/2+z
1/2+x,-y,z
1/2+x,1/2+y,1/2+z
1/2-x,-y,1/2+z
1/2+x,1/2-y,-z
-x,1/2+y,1/2-z
1/2-x,1/2-y,1/2-z
1/2+x,y,1/2-z
1/2-x,1/2+y,z
x,1/2-y,1/2+z
loop_
_atom_site_type_symbol
_atom_site_label
_atom_site_fract_x
_atom_site_fract_y
_atom_site_fract_z
Si Si1 0.448085 0.566645 0.578956
Si Si2 0.687398 0.300540 0.128435
Si Si3 0.500000 0.750000 0.778809
Si Si4 0.528874 0.599279 0.449160
Si Si5 0.723827 0.655417 0.935087
Si Si6 0.562101 0.176169 0.336089
O O1 0.526898 0.593241 0.521890
O O2 0.446512 0.478448 0.583208
O O3 0.313531 0.588573 0.573476
O O4 0.496562 0.603425 0.639697
O O5 0.596173 0.291812 0.182110
O O6 0.626923 0.342146 0.071926
O O7 0.737831 0.220233 0.112431
O O8 0.803536 0.341446 0.149313
O O9 0.446229 0.814935 0.736407
O O10 0.404742 0.625078 0.426065
O O11 0.750000 0.691077 0.000000
O O12 0.500000 0.250000 0.365826
#
# Coordination Sequence:
#
# PCOD8295887 Si02
#       6
#    16  16   8  16  16  16
#     4  10  22  41  55  91 131 160 199 245 315 366
#     4  12  21  39  65  91 116 158 211 256 306 363
#     4  10  22  42  60  90 120 154 212 262 306 348
#     4  10  23  36  62  89 126 165 194 250 314 376
#     4  10  20  36  58  89 122 153 199 254 297 363
#     4  10  23  37  63  85 118 160 201 254 299 365
#
# _framework density 19.077202
#
# number of rings (size 3 to 8) (size 9 to 14) (size 15 to 20)
#    0.545    1.091    3.636    0.545    5.091    0.000 
#    0.000    0.909    0.000    2.182    0.000    0.000 
#    0.000    0.000    0.000    0.000    0.000    0.000 
#
# Total GULP energy -545363.246646 kJ/mol
# GULP energy per Si atom -12394.619242 kJ/mol
# Density = 1.903378 g / cm^3
# Si number density = 19.077202 Si / 1000 Ang^3
#
#
#
# Elastic Constant Matrix: (Units=GPa)
#
#
# Indices 1 2 3 4 5 6 
#
# 1 110.5791 13.1802 20.4230 0.0000 0.0000 0.0000
# 2 13.1802 77.2167 19.8947 0.0000 0.0000 0.0000
# 3 20.4230 19.8947 60.0728 0.0000 0.0000 0.0000
# 4 0.0000 0.0000 0.0000 -12.9737 0.0000 0.0000
# 5 0.0000 0.0000 0.0000 0.0000 30.3780 0.0000
# 6 0.0000 0.0000 0.0000 0.0000 0.0000 -38.2032
#
#
#
# Elastic Compliance Matrix: (Units=1/GPa)
#
#
# Indices 1 2 3 4 5 6 
#
# 1 0.009704 -0.000882 -0.003007 0.000000 0.000000 0.000000
# 2 -0.000882 0.014239 -0.004416 0.000000 0.000000 0.000000
# 3 -0.003007 -0.004416 0.019131 0.000000 0.000000 0.000000
# 4 0.000000 0.000000 0.000000 -0.077079 0.000000 0.000000
# 5 0.000000 0.000000 0.000000 0.000000 0.032919 0.000000
# 6 0.000000 0.000000 0.000000 0.000000 0.000000 -0.026176
#
#
# Mechanical properties :
#
#
# Convention : Reuss Voigt Hill
#
# Bulk Modulus (GPa) = 37.78603 39.42939 38.60771
# Shear Modulus (GPa) = -2729.51202 8.79827 -1360.35687
#
# Velocity S-wave (km/s) = -37.86658 2.14987 -26.73252
# Velocity P-wave (km/s) = 43.49698 5.18419 30.53777
#
# Compressibility (1/GPa) = 0.02646481
#
# Stress axis : x y z
#
# Youngs Moduli (GPa) = 103.05297 70.23081 52.27068
#
# Poissons Ratio (x) = 0.06191 0.15718
# Poissons Ratio (y) = 0.09085 0.23082
# Poissons Ratio (z) = 0.30988 0.31013
#
# Static dielectric constant tensor:
#      x y z
#    x 3.612180 0.000000 0.000000 
#    y 0.000000 3.321620 0.000000 
#    z 0.000000 0.000000 3.367490 
# 
# 
# High freq. dielectric constant tensor:
#      x y z
#    x 1.758490 0.000000 0.000000 
#    y 0.000000 1.724050 0.000000 
#    z 0.000000 0.000000 1.724870 
# 
# From -- ./inp_files/13533.got.cif
#   From: 2010.03.12/outbox.cif.g09.slc.cpg/sg73_7_cif.got.tgz:13533.got - 2010.04.16 15:25:48.
