data_PCOD8295600
_publ_section_title
;
Structure prediction by ZEFSAII (Michael W. Deem and Ramdas Pophale) SiO2 
 PCOD8295600
Probable space group: I B C A 
;
_chemical_formula_sum "Si O2"
_cell_formula_units_Z 80
_cell_length_a 17.834826
_cell_length_b 8.075385
_cell_length_c 26.977906
_cell_angle_alpha 90.000000
_cell_angle_beta 90.000000
_cell_angle_gamma 90.000000
_cell_volume 3885.441286
_symmetry_space_group_name_H-M "I B C A "
_symmetry_group_IT_number 73
_symmetry_cell_setting 'orthorhombic'
loop_
_space_group_symop_operation_xyz
x,y,z
-x,1/2-y,z
x,-y,1/2-z
1/2-x,y,-z
-x,-y,-z
x,1/2+y,-z
-x,y,1/2+z
1/2+x,-y,z
1/2+x,1/2+y,1/2+z
1/2-x,-y,1/2+z
1/2+x,1/2-y,-z
-x,1/2+y,1/2-z
1/2-x,1/2-y,1/2-z
1/2+x,y,1/2-z
1/2-x,1/2+y,z
x,1/2-y,1/2+z
loop_
_atom_site_type_symbol
_atom_site_label
_atom_site_fract_x
_atom_site_fract_y
_atom_site_fract_z
Si Si1 0.613291 0.139700 0.851376
Si Si2 0.500000 0.750000 0.804514
Si Si3 0.650925 0.895295 0.457207
Si Si4 0.186262 0.985125 0.558069
Si Si5 0.946683 0.517120 0.371563
Si Si6 0.099676 0.000000 0.750000
O O1 0.533761 0.067027 0.869804
O O2 0.606807 0.338657 0.849907
O O3 0.673745 0.075875 0.890024
O O4 0.643536 0.071742 0.797985
O O5 0.559226 0.645677 0.837526
O O6 0.547785 0.853650 0.767000
O O7 0.661990 0.705880 0.441481
O O8 0.724569 0.007118 0.448736
O O9 0.637991 0.914595 0.516364
O O10 0.580679 0.970844 0.427005
#
# Coordination Sequence:
#
# PCOD8295600 Si02
#       6
#    16   8  16  16  16   8
#     4  10  21  36  56  82 111 143 184 227 270 319
#     4  10  18  32  54  80 108 144 184 224 270 320
#     4  11  21  37  58  80 111 144 179 221 272 329
#     4  11  22  37  58  83 110 145 182 220 271 329
#     4  10  20  35  56  83 111 143 182 227 271 320
#     4  10  18  32  54  78 110 144 182 224 270 318
#
# _framework density 20.589682
#
# number of rings (size 3 to 8) (size 9 to 14) (size 15 to 20)
#    0.000    1.600    0.000    9.600    0.000    0.800 
#    0.000    2.000    0.000   15.600    0.000    0.000 
#    0.000    0.000    0.000    0.000    0.000    0.000 
#
# Total GULP energy -495753.375823 kJ/mol
# GULP energy per Si atom -12393.834396 kJ/mol
# Density = 2.054282 g / cm^3
# Si number density = 20.589682 Si / 1000 Ang^3
#
#
#
# Elastic Constant Matrix: (Units=GPa)
#
#
# Indices 1 2 3 4 5 6 
#
# 1 29.7191 7.8924 27.1601 0.0000 0.0000 0.0000
# 2 7.8924 124.7483 41.9119 0.0000 0.0000 0.0000
# 3 27.1601 41.9119 164.4141 0.0000 0.0000 0.0000
# 4 0.0000 0.0000 0.0000 40.8810 0.0000 0.0000
# 5 0.0000 0.0000 0.0000 0.0000 26.7469 0.0000
# 6 0.0000 0.0000 0.0000 0.0000 0.0000 22.9608
#
#
#
# Elastic Compliance Matrix: (Units=1/GPa)
#
#
# Indices 1 2 3 4 5 6 
#
# 1 0.039644 -0.000337 -0.006463 0.000000 0.000000 0.000000
# 2 -0.000337 0.008770 -0.002180 0.000000 0.000000 0.000000
# 3 -0.006463 -0.002180 0.007706 0.000000 0.000000 0.000000
# 4 0.000000 0.000000 0.000000 0.024461 0.000000 0.000000
# 5 0.000000 0.000000 0.000000 0.000000 0.037388 0.000000
# 6 0.000000 0.000000 0.000000 0.000000 0.000000 0.043552
#
#
# Mechanical properties :
#
#
# Convention : Reuss Voigt Hill
#
# Bulk Modulus (GPa) = 26.20530 52.53446 39.36988
# Shear Modulus (GPa) = 26.01446 34.24555 30.13000
#
# Velocity S-wave (km/s) = 3.55839 4.08271 3.82953
# Velocity P-wave (km/s) = 5.44407 6.91339 6.22225
#
# Compressibility (1/GPa) = 0.03816022
#
# Stress axis : x y z
#
# Youngs Moduli (GPa) = 25.22420 114.02702 129.77606
#
# Poissons Ratio (x) = 0.03840 0.83876
# Poissons Ratio (y) = 0.00849 0.28291
# Poissons Ratio (z) = 0.16303 0.24857
#
# Static dielectric constant tensor:
#      x y z
#    x 3.293360 0.000000 0.000000 
#    y 0.000000 4.047310 0.000000 
#    z 0.000000 0.000000 4.094010 
# 
# 
# High freq. dielectric constant tensor:
#      x y z
#    x 1.755750 0.000000 0.000000 
#    y 0.000000 1.830790 0.000000 
#    z 0.000000 0.000000 1.816560 
# 
# From -- ./inp_files/6219.got.cif
#   From: 2010.03.12/outbox.cif.g09.slc.cpg/sg73_4_cif.got.tgz:6219.got - 2010.04.16 15:25:48.
