data_PCOD8295839
_publ_section_title
;
Structure prediction by ZEFSAII (Michael W. Deem and Ramdas Pophale) SiO2 
 PCOD8295839
Probable space group: I B C A 
;
_chemical_formula_sum "Si O2"
_cell_formula_units_Z 64
_cell_length_a 4.971473
_cell_length_b 26.291915
_cell_length_c 25.077938
_cell_angle_alpha 90.000000
_cell_angle_beta 90.000000
_cell_angle_gamma 90.000000
_cell_volume 3277.925879
_symmetry_space_group_name_H-M "I B C A "
_symmetry_group_IT_number 73
_symmetry_cell_setting 'orthorhombic'
loop_
_space_group_symop_operation_xyz
x,y,z
-x,1/2-y,z
x,-y,1/2-z
1/2-x,y,-z
-x,-y,-z
x,1/2+y,-z
-x,y,1/2+z
1/2+x,-y,z
1/2+x,1/2+y,1/2+z
1/2-x,-y,1/2+z
1/2+x,1/2-y,-z
-x,1/2+y,1/2-z
1/2-x,1/2-y,1/2-z
1/2+x,y,1/2-z
1/2-x,1/2+y,z
x,1/2-y,1/2+z
loop_
_atom_site_type_symbol
_atom_site_label
_atom_site_fract_x
_atom_site_fract_y
_atom_site_fract_z
Si Si1 0.126853 0.804015 0.058766
Si Si2 0.129295 0.643252 0.896303
Si Si3 0.370937 0.605837 0.214361
Si Si4 0.634838 0.533082 0.624904
O O1 0.374336 0.820025 0.095886
O O2 0.000000 0.750000 0.074994
O O3 0.881011 0.842825 0.066157
O O4 0.250000 0.803482 0.000000
O O5 0.068219 0.583758 0.910142
O O6 0.193653 0.646869 0.832738
O O7 0.168045 0.613593 0.262728
O O8 0.363428 0.549471 0.187591
O O9 0.426259 0.488912 0.611145
#
# Coordination Sequence:
#
# PCOD8295839 Si02
#       4
#    16  16  16  16
#     4  12  23  42  68  92 109 139 198 259 317 358
#     4  10  23  38  59  90 126 157 180 261 296 344
#     4  10  20  34  56  87 123 164 203 236 282 338
#     4  10  20  34  56  87 123 164 203 236 282 338
#
# _framework density 19.524542
#
# number of rings (size 3 to 8) (size 9 to 14) (size 15 to 20)
#    1.500    0.000    0.000    7.500    0.000    3.000 
#    0.000    0.000    0.000   30.000    0.000    0.000 
#    0.000    0.000    0.000    0.000    0.000    0.000 
#
# Total GULP energy -396428.010486 kJ/mol
# GULP energy per Si atom -12388.375328 kJ/mol
# Density = 1.948010 g / cm^3
# Si number density = 19.524542 Si / 1000 Ang^3
#
#
#
# Elastic Constant Matrix: (Units=GPa)
#
#
# Indices 1 2 3 4 5 6 
#
# 1 130.0523 45.1759 25.9274 0.0000 0.0000 0.0000
# 2 45.1759 95.4221 45.9061 0.0000 0.0000 0.0000
# 3 25.9274 45.9061 26.5519 0.0000 0.0000 0.0000
# 4 0.0000 0.0000 0.0000 33.4813 0.0000 0.0000
# 5 0.0000 0.0000 0.0000 0.0000 40.4814 0.0000
# 6 0.0000 0.0000 0.0000 0.0000 0.0000 45.9616
#
#
#
# Elastic Compliance Matrix: (Units=1/GPa)
#
#
# Indices 1 2 3 4 5 6 
#
# 1 0.009549 -0.000208 -0.008965 0.000000 0.000000 0.000000
# 2 -0.000208 0.062293 -0.107497 0.000000 0.000000 0.000000
# 3 -0.008965 -0.107497 0.232269 0.000000 0.000000 0.000000
# 4 0.000000 0.000000 0.000000 0.029867 0.000000 0.000000
# 5 0.000000 0.000000 0.000000 0.000000 0.024703 0.000000
# 6 0.000000 0.000000 0.000000 0.000000 0.000000 0.021757
#
#
# Mechanical properties :
#
#
# Convention : Reuss Voigt Hill
#
# Bulk Modulus (GPa) = 14.12983 54.00501 34.06742
# Shear Modulus (GPa) = 7.84477 32.98598 20.41537
#
# Velocity S-wave (km/s) = 2.00664 4.11477 3.23712
# Velocity P-wave (km/s) = 3.55267 7.09191 5.60877
#
# Compressibility (1/GPa) = 0.07077227
#
# Stress axis : x y z
#
# Youngs Moduli (GPa) = 104.72712 16.05314 4.30535
#
# Poissons Ratio (x) = 0.00334 0.03860
# Poissons Ratio (y) = 0.02177 0.46281
# Poissons Ratio (z) = 0.93884 1.72566
#
# Static dielectric constant tensor:
#      x y z
#    x 3.631180 0.000000 0.000000 
#    y 0.000000 3.476580 0.000000 
#    z 0.000000 0.000000 3.330690 
# 
# 
# High freq. dielectric constant tensor:
#      x y z
#    x 1.778680 0.000000 0.000000 
#    y 0.000000 1.747490 0.000000 
#    z 0.000000 0.000000 1.735890 
# 
# From -- ./inp_files/24399.got.cif
#   From: 2010.03.12/outbox.cif.g09.slc.cpg/sg73_13_cif.got.tgz:24399.got - 2010.04.16 15:25:48.
