data_PCOD8295421
_publ_section_title
;
Structure prediction by ZEFSAII (Michael W. Deem and Ramdas Pophale) SiO2 
 PCOD8295421
Probable space group: I B A M
;
_chemical_formula_sum "Si O2"
_cell_formula_units_Z 64
_cell_length_a 10.785490
_cell_length_b 18.483321
_cell_length_c 13.861100
_cell_angle_alpha 90.000000
_cell_angle_beta 90.000000
_cell_angle_gamma 90.000000
_cell_volume 2763.233486
_symmetry_space_group_name_H-M "I B A M"
_symmetry_group_IT_number 72
_symmetry_cell_setting 'orthorhombic'
loop_
_space_group_symop_operation_xyz
x,y,z
-x,-y,z
x,-y,1/2-z
-x,y,1/2-z
-x,-y,-z
x,y,-z
-x,y,1/2+z
x,-y,1/2+z
1/2+x,1/2+y,1/2+z
1/2-x,1/2-y,1/2+z
1/2+x,1/2-y,-z
1/2-x,1/2+y,-z
1/2-x,1/2-y,1/2-z
1/2+x,1/2+y,1/2-z
1/2-x,1/2+y,z
1/2+x,1/2-y,z
loop_
_atom_site_type_symbol
_atom_site_label
_atom_site_fract_x
_atom_site_fract_y
_atom_site_fract_z
Si Si1 0.880000 0.964794 0.645601
Si Si2 0.370334 0.966537 0.606627
Si Si3 0.631046 0.169980 0.280067
Si Si4 0.182450 0.808719 0.113521
O O1 0.901599 0.878196 0.640912
O O2 0.878497 0.000000 0.750000
O O3 0.743412 0.976309 0.599219
O O4 0.000000 0.000000 0.590693
O O5 0.401355 0.937504 0.500000
O O6 0.311098 0.900826 0.668841
O O7 0.500000 0.000000 0.648384
O O8 0.500000 0.140346 0.250000
O O9 0.696857 0.192133 0.181069
O O10 0.611848 0.235602 0.355809
O O11 0.216438 0.806893 0.000000
#
# Coordination Sequence:
#
# PCOD8295421 Si02
#       4
#    16  16  16  16
#     4  11  24  42  70  99 133 179 227 280 341 407
#     4  11  24  43  70 104 138 179 232 285 340 407
#     4  11  25  43  69  97 134 181 226 281 343 413
#     4  11  25  44  66  98 136 176 225 283 343 410
#
# _framework density 23.161273000000001
#
# number of rings (size 3 to 8) (size 9 to 14) (size 15 to 20)
#    0.000    1.000    2.500    3.000    3.500    6.000 
#    0.000    0.000    0.000    0.750    0.000    0.000 
#    0.000    0.000    0.000    0.000    0.000    0.000 
#
# Total GULP energy -396435.483896 kJ/mol
# GULP energy per Si atom -12388.608872 kJ/mol
# Density = 2.310856 g / cm^3
# Si number density = 23.161273 Si / 1000 Ang^3
#
#
#
# Elastic Constant Matrix: (Units=GPa)
#
#
# Indices 1 2 3 4 5 6 
#
# 1 133.7538 31.6217 1.3670 0.0000 0.0000 0.0002
# 2 31.6217 154.8471 44.6569 0.0000 0.0001 -0.0002
# 3 1.3670 44.6569 160.5305 0.0000 0.0001 -0.0012
# 4 0.0000 0.0000 0.0000 4.7518 0.0001 -0.0003
# 5 0.0000 0.0001 0.0001 0.0001 62.0717 -0.0005
# 6 0.0002 -0.0002 -0.0012 -0.0003 -0.0005 125.2689
#
#
#
# Elastic Compliance Matrix: (Units=1/GPa)
#
#
# Indices 1 2 3 4 5 6 
#
# 1 0.007881 -0.001729 0.000414 0.000000 0.000000 0.000000
# 2 -0.001729 0.007400 -0.002044 0.000000 0.000000 0.000000
# 3 0.000414 -0.002044 0.006794 0.000000 0.000000 0.000000
# 4 0.000000 0.000000 0.000000 0.210448 0.000000 0.000000
# 5 0.000000 0.000000 0.000000 0.000000 0.016110 0.000000
# 6 0.000000 0.000000 0.000000 0.000000 0.000000 0.007983
#
#
# Mechanical properties :
#
#
# Convention : Reuss Voigt Hill
#
# Bulk Modulus (GPa) = 65.11261 67.15807 66.13534
# Shear Modulus (GPa) = 18.62514 63.18420 40.90467
#
# Velocity S-wave (km/s) = 2.83883 5.22870 4.20704
# Velocity P-wave (km/s) = 6.23851 8.09390 7.22600
#
# Compressibility (1/GPa) = 0.01535801
#
# Stress axis : x y z
#
# Youngs Moduli (GPa) = 126.88919 135.12649 147.17963
#
# Poissons Ratio (x) = 0.23359 -0.06090
# Poissons Ratio (y) = 0.21935 0.30083
# Poissons Ratio (z) = -0.05251 0.27619
#
# Static dielectric constant tensor:
#      x y z
#    x 4.490030 0.000000 0.000000 
#    y 0.000000 4.296190 0.000000 
#    z 0.000000 0.000000 4.163520 
# 
# 
# High freq. dielectric constant tensor:
#      x y z
#    x 1.903370 0.000000 0.000000 
#    y 0.000000 1.925520 0.000000 
#    z 0.000000 0.000000 1.921620 
# 
# From -- ./inp_files/19706.got.cif
#   From: 2010.03.12/outbox.cif.g09.slc.cpg/sg72_10_cif.got.tgz:19706.got - 2010.04.16 14:54:00.
