data_PCOD8295396
_publ_section_title
;
Structure prediction by ZEFSAII (Michael W. Deem and Ramdas Pophale) SiO2 
 PCOD8295396
Probable space group: I B A M
;
_chemical_formula_sum "Si O2"
_cell_formula_units_Z 96
_cell_length_a 14.523076
_cell_length_b 13.962076
_cell_length_c 21.100060
_cell_angle_alpha 90.000000
_cell_angle_beta 90.000000
_cell_angle_gamma 90.000000
_cell_volume 4278.507504
_symmetry_space_group_name_H-M "I B A M"
_symmetry_group_IT_number 72
_symmetry_cell_setting 'orthorhombic'
loop_
_space_group_symop_operation_xyz
x,y,z
-x,-y,z
x,-y,1/2-z
-x,y,1/2-z
-x,-y,-z
x,y,-z
-x,y,1/2+z
x,-y,1/2+z
1/2+x,1/2+y,1/2+z
1/2-x,1/2-y,1/2+z
1/2+x,1/2-y,-z
1/2-x,1/2+y,-z
1/2-x,1/2-y,1/2-z
1/2+x,1/2+y,1/2-z
1/2-x,1/2+y,z
1/2+x,1/2-y,z
loop_
_atom_site_type_symbol
_atom_site_label
_atom_site_fract_x
_atom_site_fract_y
_atom_site_fract_z
Si Si1 0.095463 0.953503 0.318590
Si Si2 0.268586 0.823458 0.929638
Si Si3 0.630698 0.198143 0.627640
Si Si4 0.923216 0.254679 0.642083
Si Si5 0.109065 0.605910 0.745119
Si Si6 0.251365 0.536607 0.928023
O O1 0.074569 0.839333 0.313349
O O2 0.125200 0.000000 0.250000
O O3 0.169444 0.963977 0.374418
O O4 0.000000 0.000000 0.341321
O O5 0.182074 0.798284 0.884526
O O6 0.353607 0.748796 0.917347
O O7 0.298268 0.933687 0.921856
O O8 0.234039 0.801867 0.000000
O O9 0.522531 0.213837 0.616484
O O10 0.652585 0.168583 0.699316
O O11 0.672065 0.115562 0.582465
O O12 0.870898 0.340573 0.679804
O O13 0.153276 0.500000 0.750000
O O14 0.000000 0.600040 0.750000
O O15 0.291312 0.548670 0.000000
#
# Coordination Sequence:
#
# PCOD8295396 Si02
#       6
#    16  16  16  16  16  16
#     4  11  26  44  73 104 144 185 243 300 355 430
#     4  11  25  43  65  97 136 180 237 286 346 428
#     4  11  23  42  70  96 141 181 228 292 352 421
#     4  11  24  43  70 101 136 183 231 292 358 421
#     4   9  20  37  62  98 135 170 217 276 343 420
#     4  11  25  46  69 102 143 186 238 295 360 439
#
# _framework density 22.437729000000001
#
# number of rings (size 3 to 8) (size 9 to 14) (size 15 to 20)
#    0.000    1.333    1.667    2.500    9.333    6.333 
#    0.000    1.667    0.000    0.000    0.000    0.000 
#    0.000    0.000    0.000    0.000    0.000    0.000 
#
# Total GULP energy -594832.180640 kJ/mol
# GULP energy per Si atom -12392.337097 kJ/mol
# Density = 2.238666 g / cm^3
# Si number density = 22.437729 Si / 1000 Ang^3
#
#
#
# Elastic Constant Matrix: (Units=GPa)
#
#
# Indices 1 2 3 4 5 6 
#
# 1 108.0534 34.8136 67.5350 0.0000 0.0000 0.0000
# 2 34.8136 133.4500 48.0160 0.0000 0.0000 0.0000
# 3 67.5350 48.0160 126.7569 0.0000 0.0000 0.0000
# 4 0.0000 0.0000 0.0000 35.0928 0.0000 0.0000
# 5 0.0000 0.0000 0.0000 0.0000 26.1273 0.0000
# 6 0.0000 0.0000 0.0000 0.0000 0.0000 32.3256
#
#
#
# Elastic Compliance Matrix: (Units=1/GPa)
#
#
# Indices 1 2 3 4 5 6 
#
# 1 0.014019 -0.001123 -0.007044 0.000000 0.000000 0.000000
# 2 -0.001123 0.008766 -0.002722 0.000000 0.000000 0.000000
# 3 -0.007044 -0.002722 0.012673 0.000000 0.000000 0.000000
# 4 0.000000 0.000000 0.000000 0.028496 0.000000 0.000000
# 5 0.000000 0.000000 0.000000 0.000000 0.038274 0.000000
# 6 0.000000 0.000000 0.000000 0.000000 0.000000 0.030935
#
#
# Mechanical properties :
#
#
# Convention : Reuss Voigt Hill
#
# Bulk Modulus (GPa) = 73.09876 74.33219 73.71548
# Shear Modulus (GPa) = 31.34769 33.23551 32.29160
#
# Velocity S-wave (km/s) = 3.74183 3.85285 3.79775
# Velocity P-wave (km/s) = 7.16363 7.27961 7.22186
#
# Compressibility (1/GPa) = 0.01368012
#
# Stress axis : x y z
#
# Youngs Moduli (GPa) = 71.33200 114.07899 78.90624
#
# Poissons Ratio (x) = 0.12808 0.55581
# Poissons Ratio (y) = 0.08009 0.21481
# Poissons Ratio (z) = 0.50245 0.31056
#
# Static dielectric constant tensor:
#      x y z
#    x 3.816540 0.000000 0.000000 
#    y 0.000000 4.475240 0.000000 
#    z 0.000000 0.000000 4.170960 
# 
# 
# High freq. dielectric constant tensor:
#      x y z
#    x 1.870150 0.000000 0.000000 
#    y 0.000000 1.904880 0.000000 
#    z 0.000000 0.000000 1.884390 
# 
# From -- ./inp_files/38053.got.cif
#   From: 2010.03.12/outbox.cif.g09.slc.cpg/sg72_20_cif.got.tgz:38053.got - 2010.04.16 14:54:00.
