data_PCOD8295321
_publ_section_title
;
Structure prediction by ZEFSAII (Michael W. Deem and Ramdas Pophale) SiO2 
 PCOD8295321
Probable space group: I B A M
;
_chemical_formula_sum "Si O2"
_cell_formula_units_Z 96
_cell_length_a 8.904837
_cell_length_b 21.537043
_cell_length_c 25.218940
_cell_angle_alpha 90.000000
_cell_angle_beta 90.000000
_cell_angle_gamma 90.000000
_cell_volume 4836.585592
_symmetry_space_group_name_H-M "I B A M"
_symmetry_group_IT_number 72
_symmetry_cell_setting 'orthorhombic'
loop_
_space_group_symop_operation_xyz
x,y,z
-x,-y,z
x,-y,1/2-z
-x,y,1/2-z
-x,-y,-z
x,y,-z
-x,y,1/2+z
x,-y,1/2+z
1/2+x,1/2+y,1/2+z
1/2-x,1/2-y,1/2+z
1/2+x,1/2-y,-z
1/2-x,1/2+y,-z
1/2-x,1/2-y,1/2-z
1/2+x,1/2+y,1/2-z
1/2-x,1/2+y,z
1/2+x,1/2-y,z
loop_
_atom_site_type_symbol
_atom_site_label
_atom_site_fract_x
_atom_site_fract_y
_atom_site_fract_z
Si Si1 0.899852 0.149583 0.802086
Si Si2 0.330768 0.323327 0.561366
Si Si3 0.557237 0.242145 0.618320
Si Si4 0.867152 0.536286 0.694850
Si Si5 0.938422 0.343130 0.299609
Si Si6 0.917027 0.939814 0.875015
O O1 0.888994 0.212886 0.835093
O O2 0.728960 0.130652 0.788423
O O3 0.000000 0.158913 0.750000
O O4 0.968461 0.094709 0.836470
O O5 0.289090 0.322285 0.500000
O O6 0.475733 0.280184 0.571683
O O7 0.194712 0.296360 0.595206
O O8 0.363281 0.394174 0.578214
O O9 0.441528 0.193242 0.644708
O O10 0.834056 0.500000 0.750000
O O11 0.721044 0.536013 0.659174
O O12 0.000000 0.500000 0.663614
O O13 0.931235 0.604892 0.702956
O O14 0.000000 0.300571 0.250000
O O15 0.000000 0.000000 0.900071
#
# Coordination Sequence:
#
# PCOD8295321 Si02
#       6
#    16  16  16  16  16  16
#     4  11  25  38  61  95 138 178 211 253 319 399
#     4  11  24  46  71  94 123 170 224 283 338 382
#     4  11  23  42  65  95 128 168 214 271 328 390
#     4  11  22  37  59  91 129 177 213 253 308 383
#     4  12  22  37  61  92 132 172 213 256 314 384
#     4  11  25  41  64  98 131 172 217 272 323 392
#
# _framework density 19.848711999999999
#
# number of rings (size 3 to 8) (size 9 to 14) (size 15 to 20)
#    0.000    0.833    5.000    3.000    4.667    1.667 
#    0.000    0.000    0.000    0.500    0.000    0.000 
#    0.000    0.000    0.000    0.000    0.000    0.000 
#
# Total GULP energy -594961.651474 kJ/mol
# GULP energy per Si atom -12395.034406 kJ/mol
# Density = 1.980354 g / cm^3
# Si number density = 19.848712 Si / 1000 Ang^3
#
#
#
# Elastic Constant Matrix: (Units=GPa)
#
#
# Indices 1 2 3 4 5 6 
#
# 1 99.9696 39.3276 20.9833 0.0000 0.0000 0.0000
# 2 39.3276 116.1207 47.0019 0.0000 0.0000 0.0000
# 3 20.9833 47.0019 91.3414 0.0000 0.0000 0.0000
# 4 0.0000 0.0000 0.0000 17.7950 0.0000 0.0000
# 5 0.0000 0.0000 0.0000 0.0000 21.4064 0.0000
# 6 0.0000 0.0000 0.0000 0.0000 0.0000 29.1049
#
#
#
# Elastic Compliance Matrix: (Units=1/GPa)
#
#
# Indices 1 2 3 4 5 6 
#
# 1 0.011588 -0.003596 -0.000812 0.000000 0.000000 0.000000
# 2 -0.003596 0.011993 -0.005345 0.000000 0.000000 0.000000
# 3 -0.000812 -0.005345 0.013885 0.000000 0.000000 0.000000
# 4 0.000000 0.000000 0.000000 0.056196 0.000000 0.000000
# 5 0.000000 0.000000 0.000000 0.000000 0.046715 0.000000
# 6 0.000000 0.000000 0.000000 0.000000 0.000000 0.034358
#
#
# Mechanical properties :
#
#
# Convention : Reuss Voigt Hill
#
# Bulk Modulus (GPa) = 55.67850 58.00634 56.84242
# Shear Modulus (GPa) = 24.97151 27.00252 25.98702
#
# Velocity S-wave (km/s) = 3.55081 3.69238 3.62229
# Velocity P-wave (km/s) = 6.70249 6.88955 6.79666
#
# Compressibility (1/GPa) = 0.01796025
#
# Stress axis : x y z
#
# Youngs Moduli (GPa) = 86.29550 83.38007 72.02052
#
# Poissons Ratio (x) = 0.29985 0.05845
# Poissons Ratio (y) = 0.31033 0.38497
# Poissons Ratio (z) = 0.07004 0.44569
#
# Static dielectric constant tensor:
#      x y z
#    x 3.729980 0.000000 0.000000 
#    y 0.000000 3.801910 0.000000 
#    z 0.000000 0.000000 3.498960 
# 
# 
# High freq. dielectric constant tensor:
#      x y z
#    x 1.790980 0.000000 0.000000 
#    y 0.000000 1.786170 0.000000 
#    z 0.000000 0.000000 1.743430 
# 
# From -- ./inp_files/47303.got.cif
#   From: 2010.03.12/outbox.cif.g09.slc.cpg/sg72_24_cif.got.tgz:47303.got - 2010.04.16 14:54:00.
