data_PCOD8295750
_publ_section_title
;
Structure prediction by ZEFSAII (Michael W. Deem and Ramdas Pophale) SiO2 
 PCOD8295750
Probable space group: I B C A 
;
_chemical_formula_sum "Si O2"
_cell_formula_units_Z 80
_cell_length_a 8.421015
_cell_length_b 26.826253
_cell_length_c 16.658116
_cell_angle_alpha 90.000000
_cell_angle_beta 90.000000
_cell_angle_gamma 90.000000
_cell_volume 3763.139683
_symmetry_space_group_name_H-M "I B C A "
_symmetry_group_IT_number 73
_symmetry_cell_setting 'orthorhombic'
loop_
_space_group_symop_operation_xyz
x,y,z
-x,1/2-y,z
x,-y,1/2-z
1/2-x,y,-z
-x,-y,-z
x,1/2+y,-z
-x,y,1/2+z
1/2+x,-y,z
1/2+x,1/2+y,1/2+z
1/2-x,-y,1/2+z
1/2+x,1/2-y,-z
-x,1/2+y,1/2-z
1/2-x,1/2-y,1/2-z
1/2+x,y,1/2-z
1/2-x,1/2+y,z
x,1/2-y,1/2+z
loop_
_atom_site_type_symbol
_atom_site_label
_atom_site_fract_x
_atom_site_fract_y
_atom_site_fract_z
Si Si1 0.000000 0.250000 0.399710
Si Si2 0.250000 0.811141 0.000000
Si Si3 0.926630 0.656138 0.687745
Si Si4 0.817292 0.432066 0.913883
Si Si5 0.822564 0.531171 0.088043
Si Si6 0.717062 0.370316 0.349803
O O1 0.118277 0.221822 0.458224
O O2 0.104594 0.287584 0.343833
O O3 0.163732 0.846815 0.934833
O O4 0.813555 0.616622 0.642135
O O5 0.902501 0.649581 0.782554
O O6 0.109491 0.648207 0.671403
O O7 0.703341 0.475311 0.876191
O O8 0.994310 0.454251 0.918749
O O9 0.750000 0.415141 0.000000
O O10 0.722445 0.569732 0.142819
O O11 0.750000 0.529560 0.000000
#
# Coordination Sequence:
#
# PCOD8295750 Si02
#       6
#     8   8  16  16  16  16
#     4  10  24  42  62  92 120 160 216 258 320 372
#     4  10  22  42  64  86 116 162 206 256 310 386
#     4  10  24  40  60  92 123 160 209 261 307 369
#     4  10  21  36  59  93 126 161 207 247 308 377
#     4  10  19  36  59  88 125 163 200 245 304 374
#     4  10  22  41  61  88 125 158 204 250 314 371
#
# _framework density 21.258844
#
# number of rings (size 3 to 8) (size 9 to 14) (size 15 to 20)
#    0.000    2.000    1.000    2.400    1.400    9.600 
#    0.000    4.000    0.000    0.000    0.000    0.000 
#    0.000    0.000    0.000    0.000    0.000    0.000 
#
# Total GULP energy -495862.973039 kJ/mol
# GULP energy per Si atom -12396.574326 kJ/mol
# Density = 2.121046 g / cm^3
# Si number density = 21.258844 Si / 1000 Ang^3
#
#
#
# Elastic Constant Matrix: (Units=GPa)
#
#
# Indices 1 2 3 4 5 6 
#
# 1 42.1001 26.7853 19.2815 -0.0001 0.0000 0.0000
# 2 26.7853 150.7366 72.1177 -0.0001 0.0000 0.0000
# 3 19.2815 72.1177 128.7753 -0.0004 0.0000 0.0000
# 4 -0.0001 -0.0001 -0.0004 24.0383 0.0000 0.0000
# 5 0.0000 0.0000 0.0000 0.0000 32.7412 0.0000
# 6 0.0000 0.0000 0.0000 0.0000 0.0000 29.5135
#
#
#
# Elastic Compliance Matrix: (Units=1/GPa)
#
#
# Indices 1 2 3 4 5 6 
#
# 1 0.027103 -0.003927 -0.001859 0.000000 0.000000 0.000000
# 2 -0.003927 0.009631 -0.004806 0.000000 0.000000 0.000000
# 3 -0.001859 -0.004806 0.010735 0.000000 0.000000 0.000000
# 4 0.000000 0.000000 0.000000 0.041600 0.000000 0.000000
# 5 0.000000 0.000000 0.000000 0.000000 0.030543 0.000000
# 6 0.000000 0.000000 0.000000 0.000000 0.000000 0.033883
#
#
# Mechanical properties :
#
#
# Convention : Reuss Voigt Hill
#
# Bulk Modulus (GPa) = 38.04304 61.99788 50.02046
# Shear Modulus (GPa) = 27.25700 30.82044 29.03872
#
# Velocity S-wave (km/s) = 3.58460 3.81172 3.69990
# Velocity P-wave (km/s) = 5.92169 6.97129 6.46782
#
# Compressibility (1/GPa) = 0.02628602
#
# Stress axis : x y z
#
# Youngs Moduli (GPa) = 36.89691 103.83079 93.15185
#
# Poissons Ratio (x) = 0.40770 0.17318
# Poissons Ratio (y) = 0.14488 0.44766
# Poissons Ratio (z) = 0.06859 0.49898
#
# Static dielectric constant tensor:
#      x y z
#    x 3.663900 0.000000 0.000000 
#    y 0.000000 4.681470 0.000000 
#    z 0.000000 0.000000 4.356030 
# 
# 
# High freq. dielectric constant tensor:
#      x y z
#    x 1.819750 0.000000 0.000000 
#    y 0.000000 1.851580 0.000000 
#    z 0.000000 0.000000 1.826460 
# 
# From -- ./inp_files/20765.got.cif
#   From: 2010.03.12/outbox.cif.g09.slc.cpg/sg73_11_cif.got.tgz:20765.got - 2010.04.16 15:25:48.
