data_PCOD8295292
_publ_section_title
;
Structure prediction by ZEFSAII (Michael W. Deem and Ramdas Pophale) SiO2 
 PCOD8295292
Probable space group: I B A M
;
_chemical_formula_sum "Si O2"
_cell_formula_units_Z 96
_cell_length_a 28.536132
_cell_length_b 20.124857
_cell_length_c 8.658936
_cell_angle_alpha 90.000000
_cell_angle_beta 90.000000
_cell_angle_gamma 90.000000
_cell_volume 4972.702047
_symmetry_space_group_name_H-M "I B A M"
_symmetry_group_IT_number 72
_symmetry_cell_setting 'orthorhombic'
loop_
_space_group_symop_operation_xyz
x,y,z
-x,-y,z
x,-y,1/2-z
-x,y,1/2-z
-x,-y,-z
x,y,-z
-x,y,1/2+z
x,-y,1/2+z
1/2+x,1/2+y,1/2+z
1/2-x,1/2-y,1/2+z
1/2+x,1/2-y,-z
1/2-x,1/2+y,-z
1/2-x,1/2-y,1/2-z
1/2+x,1/2+y,1/2-z
1/2-x,1/2+y,z
1/2+x,1/2-y,z
loop_
_atom_site_type_symbol
_atom_site_label
_atom_site_fract_x
_atom_site_fract_y
_atom_site_fract_z
Si Si1 0.052512 0.678609 0.684708
Si Si2 0.595147 0.690082 0.177806
Si Si3 0.378186 0.073793 0.184981
Si Si4 0.050819 0.936025 0.680449
Si Si5 0.798412 0.807040 0.324536
Si Si6 0.290222 0.841681 0.681748
O O1 0.050961 0.679885 0.500000
O O2 0.084041 0.738852 0.748206
O O3 0.076864 0.611386 0.744865
O O4 0.000000 0.683375 0.750000
O O5 0.570015 0.634990 0.276125
O O6 0.648951 0.667961 0.189836
O O7 0.578436 0.691288 0.000000
O O8 0.329916 0.108338 0.245641
O O9 0.378528 0.000000 0.250000
O O10 0.381762 0.074009 0.000000
O O11 0.049735 0.943695 0.500000
O O12 0.000000 0.938926 0.750000
O O13 0.079134 0.000000 0.750000
O O14 0.781182 0.804444 0.500000
O O15 0.763084 0.858053 0.236133
O O16 0.798717 0.732613 0.252932
O O17 0.294062 0.843746 0.500000
#
# Coordination Sequence:
#
# PCOD8295292 Si02
#       6
#    16  16  16  16  16  16
#     4  12  25  41  62  89 119 157 202 254 306 360
#     4  11  21  38  60  88 123 158 196 246 297 350
#     4  11  23  42  63  88 121 159 202 250 305 363
#     4  11  22  38  58  83 113 153 197 239 291 352
#     4   9  18  33  57  86 116 149 187 235 287 341
#     4   9  18  35  57  84 116 150 188 236 286 342
#
# _framework density 19.305399999999999
#
# number of rings (size 3 to 8) (size 9 to 14) (size 15 to 20)
#    0.000    1.500    1.667    5.000    0.000    3.000 
#    0.000    2.500    0.000    2.000    0.000    0.000 
#    0.000    0.000    0.000    0.000    0.000    0.000 
#
# Total GULP energy -594967.241276 kJ/mol
# GULP energy per Si atom -12395.150860 kJ/mol
# Density = 1.926146 g / cm^3
# Si number density = 19.305400 Si / 1000 Ang^3
#
#
#
# Elastic Constant Matrix: (Units=GPa)
#
#
# Indices 1 2 3 4 5 6 
#
# 1 89.5093 22.4071 32.6183 0.0000 0.0000 0.0000
# 2 22.4071 85.7770 30.6777 0.0000 0.0000 0.0000
# 3 32.6183 30.6777 119.6913 0.0000 0.0000 0.0000
# 4 0.0000 0.0000 0.0000 40.3247 0.0000 0.0000
# 5 0.0000 0.0000 0.0000 0.0000 35.5700 0.0000
# 6 0.0000 0.0000 0.0000 0.0000 0.0000 -23.9678
#
#
#
# Elastic Compliance Matrix: (Units=1/GPa)
#
#
# Indices 1 2 3 4 5 6 
#
# 1 0.012806 -0.002309 -0.002898 0.000000 0.000000 0.000000
# 2 -0.002309 0.013251 -0.002767 0.000000 0.000000 0.000000
# 3 -0.002898 -0.002767 0.009854 0.000000 0.000000 0.000000
# 4 0.000000 0.000000 0.000000 0.024799 0.000000 0.000000
# 5 0.000000 0.000000 0.000000 0.000000 0.028114 0.000000
# 6 0.000000 0.000000 0.000000 0.000000 0.000000 -0.041723
#
#
# Mechanical properties :
#
#
# Convention : Reuss Voigt Hill
#
# Bulk Modulus (GPa) = 50.09322 51.82042 50.95682
# Shear Modulus (GPa) = 71.73306 24.33701 48.03503
#
# Velocity S-wave (km/s) = 6.10227 3.55439 4.99356
# Velocity P-wave (km/s) = 8.69795 6.61405 7.72658
#
# Compressibility (1/GPa) = 0.01996278
#
# Stress axis : x y z
#
# Youngs Moduli (GPa) = 78.08767 75.46671 101.48300
#
# Poissons Ratio (x) = 0.17423 0.29412
# Poissons Ratio (y) = 0.18029 0.28081
# Poissons Ratio (z) = 0.22631 0.20882
#
# Static dielectric constant tensor:
#      x y z
#    x 3.734990 0.000000 0.000000 
#    y 0.000000 3.544260 0.000000 
#    z 0.000000 0.000000 3.611780 
# 
# 
# High freq. dielectric constant tensor:
#      x y z
#    x 1.756030 0.000000 0.000000 
#    y 0.000000 1.741850 0.000000 
#    z 0.000000 0.000000 1.759760 
# 
# From -- ./inp_files/8078.got.cif
#   From: 2010.03.12/outbox.cif.g09.slc.cpg/sg72_5_cif.got.tgz:8078.got - 2010.04.16 14:54:00.
