data_PCOD8295574
_publ_section_title
;
Structure prediction by ZEFSAII (Michael W. Deem and Ramdas Pophale) SiO2 
 PCOD8295574
Probable space group: I B C A 
;
_chemical_formula_sum "Si O2"
_cell_formula_units_Z 112
_cell_length_a 24.571964
_cell_length_b 10.487606
_cell_length_c 25.912596
_cell_angle_alpha 90.000000
_cell_angle_beta 90.000000
_cell_angle_gamma 90.000000
_cell_volume 6677.703899
_symmetry_space_group_name_H-M "I B C A "
_symmetry_group_IT_number 73
_symmetry_cell_setting 'orthorhombic'
loop_
_space_group_symop_operation_xyz
x,y,z
-x,1/2-y,z
x,-y,1/2-z
1/2-x,y,-z
-x,-y,-z
x,1/2+y,-z
-x,y,1/2+z
1/2+x,-y,z
1/2+x,1/2+y,1/2+z
1/2-x,-y,1/2+z
1/2+x,1/2-y,-z
-x,1/2+y,1/2-z
1/2-x,1/2-y,1/2-z
1/2+x,y,1/2-z
1/2-x,1/2+y,z
x,1/2-y,1/2+z
loop_
_atom_site_type_symbol
_atom_site_label
_atom_site_fract_x
_atom_site_fract_y
_atom_site_fract_z
Si Si1 0.179517 0.868887 0.725547
Si Si2 0.717725 0.927504 0.950615
Si Si3 0.351719 0.766986 0.378514
Si Si4 0.382440 0.006302 0.508464
Si Si5 0.180564 0.005124 0.111024
Si Si6 0.191790 0.879760 0.283987
Si Si7 0.063814 0.262897 0.461550
O O1 0.148264 0.857786 0.671086
O O2 0.243394 0.872418 0.715916
O O3 0.164951 0.749795 0.762445
O O4 0.158084 0.000000 0.750000
O O5 0.690638 0.807594 0.922887
O O6 0.669475 0.021236 0.970165
O O7 0.758001 0.999511 0.911435
O O8 0.750000 0.872449 0.000000
O O9 0.331249 0.628648 0.360883
O O10 0.411624 0.765859 0.403653
O O11 0.362774 0.969377 0.565974
O O12 0.422561 0.893552 0.491217
O O13 0.412767 0.141695 0.507135
O O14 0.173573 0.109193 0.156223
O O15 0.171948 0.000000 0.250000
O O16 0.000000 0.250000 0.455865
#
# Coordination Sequence:
#
# PCOD8295574 Si02
#       7
#    16  16  16  16  16  16  16
#     4  10  20  31  45  72 101 131 170 204 238 290
#     4   9  18  29  44  72 108 140 158 199 235 301
#     4  10  19  32  49  73 100 133 174 198 253 303
#     4   9  20  34  51  77 102 131 171 199 254 302
#     4  10  18  30  49  72 105 140 166 197 240 304
#     4  10  18  30  47  68 101 139 166 196 237 286
#     4  10  20  37  56  75  98 130 170 220 256 294
#
# _framework density 16.772231999999999
#
# number of rings (size 3 to 8) (size 9 to 14) (size 15 to 20)
#    0.000    2.286    2.857    0.429    0.000    5.143 
#    5.143    0.000    0.000    0.000    7.429    0.000 
#    0.000    0.000    0.000    0.000    0.000    0.000 
#
# Total GULP energy -694269.436158 kJ/mol
# GULP energy per Si atom -12397.668503 kJ/mol
# Density = 1.673406 g / cm^3
# Si number density = 16.772232 Si / 1000 Ang^3
#
#
#
# Elastic Constant Matrix: (Units=GPa)
#
#
# Indices 1 2 3 4 5 6 
#
# 1 84.0603 32.7491 33.6409 0.0000 0.0000 0.0000
# 2 32.7491 110.6897 50.8252 0.0000 0.0000 0.0000
# 3 33.6409 50.8252 105.3213 0.0000 0.0000 0.0000
# 4 0.0000 0.0000 0.0000 32.5499 0.0000 0.0000
# 5 0.0000 0.0000 0.0000 0.0000 13.5219 0.0000
# 6 0.0000 0.0000 0.0000 0.0000 0.0000 16.0925
#
#
#
# Elastic Compliance Matrix: (Units=1/GPa)
#
#
# Indices 1 2 3 4 5 6 
#
# 1 0.014255 -0.002732 -0.003235 0.000000 0.000000 0.000000
# 2 -0.002732 0.012130 -0.004981 0.000000 0.000000 0.000000
# 3 -0.003235 -0.004981 0.012932 0.000000 0.000000 0.000000
# 4 0.000000 0.000000 0.000000 0.030722 0.000000 0.000000
# 5 0.000000 0.000000 0.000000 0.000000 0.073954 0.000000
# 6 0.000000 0.000000 0.000000 0.000000 0.000000 0.062141
#
#
# Mechanical properties :
#
#
# Convention : Reuss Voigt Hill
#
# Bulk Modulus (GPa) = 57.40242 59.38908 58.39575
# Shear Modulus (GPa) = 21.38251 24.62326 23.00288
#
# Velocity S-wave (km/s) = 3.57441 3.83573 3.70738
# Velocity P-wave (km/s) = 7.16479 7.42315 7.29511
#
# Compressibility (1/GPa) = 0.01742087
#
# Stress axis : x y z
#
# Youngs Moduli (GPa) = 70.14950 82.44265 77.33037
#
# Poissons Ratio (x) = 0.22526 0.25015
# Poissons Ratio (y) = 0.19167 0.38516
# Poissons Ratio (z) = 0.22692 0.41062
#
# Static dielectric constant tensor:
#      x y z
#    x 2.854890 0.000000 0.000000 
#    y 0.000000 3.196570 0.000000 
#    z 0.000000 0.000000 3.210520 
# 
# 
# High freq. dielectric constant tensor:
#      x y z
#    x 1.604140 0.000000 0.000000 
#    y 0.000000 1.648730 0.000000 
#    z 0.000000 0.000000 1.652580 
# 
# From -- ./inp_files/29106.got.cif
#   From: 2010.03.12/outbox.cif.g09.slc.cpg/sg73_15_cif.got.tgz:29106.got - 2010.04.16 15:25:48.
