data_PCOD8295076
_publ_section_title
;
Structure prediction by ZEFSAII (Michael W. Deem and Ramdas Pophale) SiO2 
 PCOD8295076
Probable space group: I B A M
;
_chemical_formula_sum "Si O2"
_cell_formula_units_Z 56
_cell_length_a 32.596342
_cell_length_b 5.089335
_cell_length_c 14.467066
_cell_angle_alpha 90.000000
_cell_angle_beta 90.000000
_cell_angle_gamma 90.000000
_cell_volume 2399.995168
_symmetry_space_group_name_H-M "I B A M"
_symmetry_group_IT_number 72
_symmetry_cell_setting 'orthorhombic'
loop_
_space_group_symop_operation_xyz
x,y,z
-x,-y,z
x,-y,1/2-z
-x,y,1/2-z
-x,-y,-z
x,y,-z
-x,y,1/2+z
x,-y,1/2+z
1/2+x,1/2+y,1/2+z
1/2-x,1/2-y,1/2+z
1/2+x,1/2-y,-z
1/2-x,1/2+y,-z
1/2-x,1/2-y,1/2-z
1/2+x,1/2+y,1/2-z
1/2-x,1/2+y,z
1/2+x,1/2-y,z
loop_
_atom_site_type_symbol
_atom_site_label
_atom_site_fract_x
_atom_site_fract_y
_atom_site_fract_z
Si Si1 0.528573 0.244887 0.500000
Si Si2 0.268299 0.277914 0.352279
Si Si3 0.858935 0.908903 0.105285
Si Si4 0.407577 0.099047 0.150760
O O1 0.500000 0.500000 0.500000
O O2 0.556211 0.231801 0.408295
O O3 0.500000 0.000000 0.500000
O O4 0.250000 0.250000 0.250000
O O5 0.244785 0.513211 0.405541
O O6 0.316844 0.316266 0.348439
O O7 0.889238 0.658967 0.102188
O O8 0.874818 0.163072 0.162955
O O9 0.852374 0.002912 0.000000
O O10 0.423929 0.000000 0.250000
#
# Coordination Sequence:
#
# PCOD8295076 Si02
#       4
#     8  16  16  16
#     4  12  26  52  84 114 160 192 238 324 382 462
#     4  10  23  38  60  97 142 194 255 309 387 420
#     4  12  24  45  73 104 156 202 263 325 376 458
#     4  12  27  47  78 117 148 203 258 303 390 467
#
# _framework density 23.333379999999998
#
# number of rings (size 3 to 8) (size 9 to 14) (size 15 to 20)
#    0.000    0.571    2.857    4.286   12.000    1.714 
#    0.000    1.429    0.000    0.000    0.000    0.000 
#    0.000    0.000    0.000    0.000    0.000    0.000 
#
# Total GULP energy -347077.679923 kJ/mol
# GULP energy per Si atom -12395.631426 kJ/mol
# Density = 2.328027 g / cm^3
# Si number density = 23.333380 Si / 1000 Ang^3
#
#
#
# Elastic Constant Matrix: (Units=GPa)
#
#
# Indices 1 2 3 4 5 6 
#
# 1 140.1444 63.7621 58.7012 0.0000 0.0000 0.0000
# 2 63.7621 215.1379 34.8274 0.0000 0.0000 0.0000
# 3 58.7012 34.8274 129.4996 0.0000 0.0000 0.0000
# 4 0.0000 0.0000 0.0000 26.2129 0.0000 0.0000
# 5 0.0000 0.0000 0.0000 0.0000 26.4239 0.0000
# 6 0.0000 0.0000 0.0000 0.0000 0.0000 57.7169
#
#
#
# Elastic Compliance Matrix: (Units=1/GPa)
#
#
# Indices 1 2 3 4 5 6 
#
# 1 0.009770 -0.002278 -0.003816 0.000000 0.000000 0.000000
# 2 -0.002278 0.005391 -0.000417 0.000000 0.000000 0.000000
# 3 -0.003816 -0.000417 0.009564 0.000000 0.000000 0.000000
# 4 0.000000 0.000000 0.000000 0.038149 0.000000 0.000000
# 5 0.000000 0.000000 0.000000 0.000000 0.037844 0.000000
# 6 0.000000 0.000000 0.000000 0.000000 0.000000 0.017326
#
#
# Mechanical properties :
#
#
# Convention : Reuss Voigt Hill
#
# Bulk Modulus (GPa) = 85.45139 88.81814 87.13476
# Shear Modulus (GPa) = 37.04566 43.90349 40.47458
#
# Velocity S-wave (km/s) = 3.98888 4.34242 4.16940
# Velocity P-wave (km/s) = 7.61028 7.95548 7.78479
#
# Compressibility (1/GPa) = 0.01170256
#
# Stress axis : x y z
#
# Youngs Moduli (GPa) = 102.35037 185.49932 104.55772
#
# Poissons Ratio (x) = 0.42256 0.39901
# Poissons Ratio (y) = 0.23315 0.04363
# Poissons Ratio (z) = 0.39059 0.07740
#
# Static dielectric constant tensor:
#      x y z
#    x 4.101820 0.000000 0.000000 
#    y 0.000000 2.578850 0.000000 
#    z 0.000000 0.000000 4.376910 
# 
# 
# High freq. dielectric constant tensor:
#      x y z
#    x 1.911730 0.000000 0.000000 
#    y 0.000000 1.960330 0.000000 
#    z 0.000000 0.000000 1.919720 
# 
# From -- ./inp_files/26138.got.cif
#   From: 2010.03.12/outbox.cif.g09.slc.cpg/sg72_14_cif.got.tgz:26138.got - 2010.04.16 14:54:00.
