data_PCOD8295493
_publ_section_title
;
Structure prediction by ZEFSAII (Michael W. Deem and Ramdas Pophale) SiO2 
 PCOD8295493
Probable space group: I B A M
;
_chemical_formula_sum "Si O2"
_cell_formula_units_Z 96
_cell_length_a 14.700936
_cell_length_b 20.441451
_cell_length_c 14.283294
_cell_angle_alpha 90.000000
_cell_angle_beta 90.000000
_cell_angle_gamma 90.000000
_cell_volume 4292.250725
_symmetry_space_group_name_H-M "I B A M"
_symmetry_group_IT_number 72
_symmetry_cell_setting 'orthorhombic'
loop_
_space_group_symop_operation_xyz
x,y,z
-x,-y,z
x,-y,1/2-z
-x,y,1/2-z
-x,-y,-z
x,y,-z
-x,y,1/2+z
x,-y,1/2+z
1/2+x,1/2+y,1/2+z
1/2-x,1/2-y,1/2+z
1/2+x,1/2-y,-z
1/2-x,1/2+y,-z
1/2-x,1/2-y,1/2-z
1/2+x,1/2+y,1/2-z
1/2-x,1/2+y,z
1/2+x,1/2-y,z
loop_
_atom_site_type_symbol
_atom_site_label
_atom_site_fract_x
_atom_site_fract_y
_atom_site_fract_z
Si Si1 0.590537 0.602916 0.200663
Si Si2 0.707846 0.975599 0.000000
Si Si3 0.830708 0.781613 0.812154
Si Si4 0.169643 0.857656 0.500000
Si Si5 0.979105 0.921643 0.500000
Si Si6 0.018920 0.577135 0.000000
Si Si7 0.429216 0.154661 0.668134
Si Si8 0.216878 0.446844 0.185474
O O1 0.500000 0.572957 0.250000
O O2 0.608125 0.675275 0.241550
O O3 0.580005 0.599753 0.089195
O O4 0.680272 0.561091 0.223658
O O5 0.797113 0.932356 0.000000
O O6 0.628089 0.920743 0.000000
O O7 0.707187 0.027658 0.081874
O O8 0.750000 0.750000 0.750000
O O9 0.897601 0.727522 0.858147
O O10 0.796703 0.821671 0.904373
O O11 0.062658 0.871136 0.500000
O O12 0.000000 0.000000 0.500000
O O13 0.000000 0.500000 0.000000
O O14 0.977291 0.613946 0.912401
O O15 0.500000 0.158643 0.750000
O O16 0.335564 0.120647 0.699770
O O17 0.167348 0.500000 0.250000
#
# Coordination Sequence:
#
# PCOD8295493 Si02
#       8
#    16   8  16   8   8   8  16  16
#     4  12  26  48  74 108 152 195 254 310 375 456
#     4  12  26  47  72 111 148 190 238 307 383 453
#     4  12  27  52  75 107 150 203 257 311 375 453
#     4  12  27  50  74 106 151 192 250 312 371 458
#     4  12  28  47  77 113 148 197 248 310 393 456
#     4  12  25  46  73 108 148 185 242 312 376 451
#     4  12  27  46  75 105 145 195 245 301 373 438
#     4  12  25  43  73 107 151 186 239 306 374 447
#
# _framework density 22.365888999999999
#
# number of rings (size 3 to 8) (size 9 to 14) (size 15 to 20)
#    0.000    0.000    5.000    4.500    4.667    0.667 
#    0.000    0.000    0.000    0.000    0.000    0.000 
#    0.000    0.000    0.000    0.000    0.000    0.000 
#
# Total GULP energy -594963.417084 kJ/mol
# GULP energy per Si atom -12395.071189 kJ/mol
# Density = 2.231498 g / cm^3
# Si number density = 22.365889 Si / 1000 Ang^3
#
#
#
# Elastic Constant Matrix: (Units=GPa)
#
#
# Indices 1 2 3 4 5 6 
#
# 1 95.1492 14.1227 -0.6229 0.0000 0.0000 0.0000
# 2 14.1227 115.5144 26.5114 0.0001 0.0001 0.0000
# 3 -0.6229 26.5114 76.2559 0.0002 0.0002 -0.0001
# 4 0.0000 0.0001 0.0002 -1.8974 0.0000 0.0000
# 5 0.0000 0.0001 0.0002 0.0000 34.4136 -0.0001
# 6 0.0000 0.0000 -0.0001 0.0000 -0.0001 26.1580
#
#
#
# Elastic Compliance Matrix: (Units=1/GPa)
#
#
# Indices 1 2 3 4 5 6 
#
# 1 0.010728 -0.001447 0.000591 0.000000 0.000000 0.000000
# 2 -0.001447 0.009603 -0.003350 0.000000 0.000000 0.000000
# 3 0.000591 -0.003350 0.014283 0.000001 0.000000 0.000000
# 4 0.000000 0.000000 0.000001 -0.527024 0.000000 0.000000
# 5 0.000000 0.000000 0.000000 0.000000 0.029058 0.000000
# 6 0.000000 0.000000 0.000000 0.000000 0.000000 0.038229
#
#
# Mechanical properties :
#
#
# Convention : Reuss Voigt Hill
#
# Bulk Modulus (GPa) = 38.16647 40.77132 39.46889
# Shear Modulus (GPa) = -12.25568 28.19539 7.96985
#
# Velocity S-wave (km/s) = -2.34340 3.55440 1.88974
# Velocity P-wave (km/s) = 3.12723 5.92570 4.73780
#
# Compressibility (1/GPa) = 0.02620101
#
# Stress axis : x y z
#
# Youngs Moduli (GPa) = 93.20979 104.13627 70.01153
#
# Poissons Ratio (x) = 0.15071 -0.04136
# Poissons Ratio (y) = 0.13490 0.23456
# Poissons Ratio (z) = -0.05507 0.34889
#
# Static dielectric constant tensor:
#      x y z
#    x 4.466620 0.000000 0.000000 
#    y 0.000000 4.086190 0.000000 
#    z 0.000000 0.000000 3.935180 
# 
# 
# High freq. dielectric constant tensor:
#      x y z
#    x 1.892100 0.000000 0.000000 
#    y 0.000000 1.893240 0.000000 
#    z 0.000000 0.000000 1.889980 
# 
# From -- ./inp_files/21934.got.cif
#   From: 2010.03.12/outbox.cif.g09.slc.cpg/sg72_11_cif.got.tgz:21934.got - 2010.04.16 14:54:00.
