data_PCOD8295108
_publ_section_title
;
Structure prediction by ZEFSAII (Michael W. Deem and Ramdas Pophale) SiO2 
 PCOD8295108
Probable space group: I B A M
;
_chemical_formula_sum "Si O2"
_cell_formula_units_Z 64
_cell_length_a 13.833840
_cell_length_b 9.378554
_cell_length_c 22.676310
_cell_angle_alpha 90.000000
_cell_angle_beta 90.000000
_cell_angle_gamma 90.000000
_cell_volume 2942.056557
_symmetry_space_group_name_H-M "I B A M"
_symmetry_group_IT_number 72
_symmetry_cell_setting 'orthorhombic'
loop_
_space_group_symop_operation_xyz
x,y,z
-x,-y,z
x,-y,1/2-z
-x,y,1/2-z
-x,-y,-z
x,y,-z
-x,y,1/2+z
x,-y,1/2+z
1/2+x,1/2+y,1/2+z
1/2-x,1/2-y,1/2+z
1/2+x,1/2-y,-z
1/2-x,1/2+y,-z
1/2-x,1/2-y,1/2-z
1/2+x,1/2+y,1/2-z
1/2-x,1/2+y,z
1/2+x,1/2-y,z
loop_
_atom_site_type_symbol
_atom_site_label
_atom_site_fract_x
_atom_site_fract_y
_atom_site_fract_z
Si Si1 0.211785 0.023355 0.681056
Si Si2 0.344404 0.235230 0.375245
Si Si3 0.135956 0.374771 0.000000
Si Si4 0.410466 0.812254 0.500000
Si Si5 0.953541 0.147298 0.110016
O O1 0.310950 0.104428 0.665695
O O2 0.118796 0.118896 0.663993
O O3 0.206253 0.000000 0.750000
O O4 0.211522 0.876907 0.644653
O O5 0.316561 0.199885 0.443032
O O6 0.460140 0.250441 0.367308
O O7 0.155090 0.545352 0.000000
O O8 0.022641 0.350033 0.000000
O O9 0.389988 0.718660 0.558257
O O10 0.000000 0.000000 0.085884
#
# Coordination Sequence:
#
# PCOD8295108 Si02
#       5
#    16  16   8   8  16
#     4  11  24  43  65  92 133 174 220 270 318 395
#     4  10  23  41  64  94 131 169 218 271 330 389
#     4   9  20  37  61  94 132 164 210 273 334 384
#     4   9  17  35  63  92 129 164 216 272 318 392
#     4   9  20  38  65  94 130 174 215 266 341 389
#
# _framework density 21.753491
#
# number of rings (size 3 to 8) (size 9 to 14) (size 15 to 20)
#    0.000    2.250    0.000    1.125    3.500    9.500 
#    0.000    0.000    0.000    0.000    0.000    0.000 
#    0.000    0.000    0.000    0.000    0.000    0.000 
#
# Total GULP energy -396846.903347 kJ/mol
# GULP energy per Si atom -12401.465730 kJ/mol
# Density = 2.170398 g / cm^3
# Si number density = 21.753491 Si / 1000 Ang^3
#
#
#
# Elastic Constant Matrix: (Units=GPa)
#
#
# Indices 1 2 3 4 5 6 
#
# 1 64.2441 54.8554 63.9812 0.0000 0.0000 0.0000
# 2 54.8554 132.7717 97.8755 0.0000 0.0000 0.0000
# 3 63.9812 97.8755 200.8765 0.0000 0.0000 0.0000
# 4 0.0000 0.0000 0.0000 33.5422 0.0000 0.0000
# 5 0.0000 0.0000 0.0000 0.0000 17.9694 0.0000
# 6 0.0000 0.0000 0.0000 0.0000 0.0000 34.8861
#
#
#
# Elastic Compliance Matrix: (Units=1/GPa)
#
#
# Indices 1 2 3 4 5 6 
#
# 1 0.026828 -0.007467 -0.004907 0.000000 0.000000 0.000000
# 2 -0.007467 0.013832 -0.004361 0.000000 0.000000 0.000000
# 3 -0.004907 -0.004361 0.008666 0.000000 0.000000 0.000000
# 4 0.000000 0.000000 0.000000 0.029813 0.000000 0.000000
# 5 0.000000 0.000000 0.000000 0.000000 0.055650 0.000000
# 6 0.000000 0.000000 0.000000 0.000000 0.000000 0.028665
#
#
# Mechanical properties :
#
#
# Convention : Reuss Voigt Hill
#
# Bulk Modulus (GPa) = 63.06777 92.36848 77.71812
# Shear Modulus (GPa) = 24.72696 29.35824 27.04260
#
# Velocity S-wave (km/s) = 3.37514 3.67766 3.52964
# Velocity P-wave (km/s) = 6.65160 7.78378 7.23985
#
# Compressibility (1/GPa) = 0.01585596
#
# Stress axis : x y z
#
# Youngs Moduli (GPa) = 37.27433 72.29828 115.39487
#
# Poissons Ratio (x) = 0.53986 0.56621
# Poissons Ratio (y) = 0.27833 0.50324
# Poissons Ratio (z) = 0.18290 0.31529
#
# Static dielectric constant tensor:
#      x y z
#    x 3.767230 0.000000 0.000000 
#    y 0.000000 4.214290 0.000000 
#    z 0.000000 0.000000 3.831150 
# 
# 
# High freq. dielectric constant tensor:
#      x y z
#    x 1.848290 0.000000 0.000000 
#    y 0.000000 1.862690 0.000000 
#    z 0.000000 0.000000 1.842350 
# 
# From -- ./inp_files/41950.got.cif
#   From: 2010.03.12/outbox.cif.g09.slc.cpg/sg72_21_cif.got.tgz:41950.got - 2010.04.16 14:54:00.
