data_PCOD8295219
_publ_section_title
;
Structure prediction by ZEFSAII (Michael W. Deem and Ramdas Pophale) SiO2 
 PCOD8295219
Probable space group: I B A M
;
_chemical_formula_sum "Si O2"
_cell_formula_units_Z 68
_cell_length_a 19.223566
_cell_length_b 16.993410
_cell_length_c 9.507903
_cell_angle_alpha 90.000000
_cell_angle_beta 90.000000
_cell_angle_gamma 90.000000
_cell_volume 3105.984122
_symmetry_space_group_name_H-M "I B A M"
_symmetry_group_IT_number 72
_symmetry_cell_setting 'orthorhombic'
loop_
_space_group_symop_operation_xyz
x,y,z
-x,-y,z
x,-y,1/2-z
-x,y,1/2-z
-x,-y,-z
x,y,-z
-x,y,1/2+z
x,-y,1/2+z
1/2+x,1/2+y,1/2+z
1/2-x,1/2-y,1/2+z
1/2+x,1/2-y,-z
1/2-x,1/2+y,-z
1/2-x,1/2-y,1/2-z
1/2+x,1/2+y,1/2-z
1/2-x,1/2+y,z
1/2+x,1/2-y,z
loop_
_atom_site_type_symbol
_atom_site_label
_atom_site_fract_x
_atom_site_fract_y
_atom_site_fract_z
Si Si1 0.419781 0.919483 0.500000
Si Si2 0.736573 0.076825 0.500000
Si Si3 0.373037 0.339748 0.203240
Si Si4 0.266578 0.735493 0.500000
Si Si5 0.000000 0.500000 0.250000
Si Si6 0.180066 0.000000 0.750000
Si Si7 0.464111 0.252863 0.000000
Si Si8 0.120097 0.769338 0.500000
O O1 0.342520 0.953368 0.500000
O O2 0.455238 0.945572 0.645964
O O3 0.417388 0.824985 0.500000
O O4 0.738850 0.170755 0.500000
O O5 0.771713 0.043390 0.638602
O O6 0.305356 0.296748 0.137806
O O7 0.367997 0.433520 0.175954
O O8 0.443635 0.305291 0.135408
O O9 0.374560 0.326875 0.368444
O O10 0.184692 0.706914 0.500000
O O11 0.544963 0.226561 0.000000
#
# Coordination Sequence:
#
# PCOD8295219 Si02
#       8
#     8   8  16   8   4   8   8   8
#     4  11  24  47  68  99 145 181 231 280 348 413
#     4  12  23  43  70 102 131 180 226 290 337 418
#     4  11  24  47  67 102 137 180 231 288 342 418
#     4  11  23  43  71  98 137 170 233 281 338 414
#     4  10  26  46  64 102 146 188 220 288 348 424
#     4  12  25  44  71 101 141 174 226 294 358 393
#     4  11  26  44  73  98 141 184 242 276 337 414
#     4  12  24  41  70 103 131 180 232 283 335 404
#
# _framework density 21.893221
#
# number of rings (size 3 to 8) (size 9 to 14) (size 15 to 20)
#    0.000    0.706    4.706    3.529    3.294    0.000 
#    8.471    3.529    0.000    0.000    0.000    0.000 
#    0.000    0.000    0.000    0.000    0.000    0.000 
#
# Total GULP energy -421537.806461 kJ/mol
# GULP energy per Si atom -12398.170778 kJ/mol
# Density = 2.184339 g / cm^3
# Si number density = 21.893221 Si / 1000 Ang^3
#
#
#
# Elastic Constant Matrix: (Units=GPa)
#
#
# Indices 1 2 3 4 5 6 
#
# 1 124.1099 9.4705 28.4079 0.0000 0.0000 0.0000
# 2 9.4705 124.9450 49.8600 0.0000 0.0000 0.0000
# 3 28.4079 49.8600 155.0676 0.0000 0.0000 0.0000
# 4 0.0000 0.0000 0.0000 20.8740 0.0000 0.0000
# 5 0.0000 0.0000 0.0000 0.0000 25.5999 0.0000
# 6 0.0000 0.0000 0.0000 0.0000 0.0000 28.5036
#
#
#
# Elastic Compliance Matrix: (Units=1/GPa)
#
#
# Indices 1 2 3 4 5 6 
#
# 1 0.008410 -0.000026 -0.001532 0.000000 0.000000 0.000000
# 2 -0.000026 0.009182 -0.002948 0.000000 0.000000 0.000000
# 3 -0.001532 -0.002948 0.007677 0.000000 0.000000 0.000000
# 4 0.000000 0.000000 0.000000 0.047906 0.000000 0.000000
# 5 0.000000 0.000000 0.000000 0.000000 0.039063 0.000000
# 6 0.000000 0.000000 0.000000 0.000000 0.000000 0.035083
#
#
# Mechanical properties :
#
#
# Convention : Reuss Voigt Hill
#
# Bulk Modulus (GPa) = 61.51040 64.39991 62.95516
# Shear Modulus (GPa) = 30.91148 36.08778 33.49963
#
# Velocity S-wave (km/s) = 3.76163 4.06440 3.91594
# Velocity P-wave (km/s) = 6.85734 7.17670 7.01884
#
# Compressibility (1/GPa) = 0.01625741
#
# Stress axis : x y z
#
# Youngs Moduli (GPa) = 118.90458 108.91218 130.25488
#
# Poissons Ratio (x) = 0.00283 0.19960
# Poissons Ratio (y) = 0.00309 0.38393
# Poissons Ratio (z) = 0.18220 0.32102
#
# Static dielectric constant tensor:
#      x y z
#    x 4.324520 0.000000 0.000000 
#    y 0.000000 3.900870 0.000000 
#    z 0.000000 0.000000 4.035710 
# 
# 
# High freq. dielectric constant tensor:
#      x y z
#    x 1.866320 0.000000 0.000000 
#    y 0.000000 1.850700 0.000000 
#    z 0.000000 0.000000 1.879400 
# 
# From -- ./inp_files/5529.got.cif
#   From: 2010.03.12/outbox.cif.g09.slc.cpg/sg72_3_cif.got.tgz:5529.got - 2010.04.16 14:54:00.
