data_PCOD8295955
_publ_section_title
;
Structure prediction by ZEFSAII (Michael W. Deem and Ramdas Pophale) SiO2 
 PCOD8295955
Probable space group: I B C A 
;
_chemical_formula_sum "Si O2"
_cell_formula_units_Z 80
_cell_length_a 23.643378
_cell_length_b 9.884884
_cell_length_c 17.570940
_cell_angle_alpha 90.000000
_cell_angle_beta 90.000000
_cell_angle_gamma 90.000000
_cell_volume 4106.540388
_symmetry_space_group_name_H-M "I B C A "
_symmetry_group_IT_number 73
_symmetry_cell_setting 'orthorhombic'
loop_
_space_group_symop_operation_xyz
x,y,z
-x,1/2-y,z
x,-y,1/2-z
1/2-x,y,-z
-x,-y,-z
x,1/2+y,-z
-x,y,1/2+z
1/2+x,-y,z
1/2+x,1/2+y,1/2+z
1/2-x,-y,1/2+z
1/2+x,1/2-y,-z
-x,1/2+y,1/2-z
1/2-x,1/2-y,1/2-z
1/2+x,y,1/2-z
1/2-x,1/2+y,z
x,1/2-y,1/2+z
loop_
_atom_site_type_symbol
_atom_site_label
_atom_site_fract_x
_atom_site_fract_y
_atom_site_fract_z
Si Si1 0.646670 0.190577 0.915910
Si Si2 0.681888 0.946584 0.169178
Si Si3 0.857114 0.301598 0.416958
Si Si4 0.188887 0.947207 0.669293
Si Si5 0.540034 0.128357 0.995291
O O1 0.645679 0.317612 0.858446
O O2 0.584189 0.122245 0.924356
O O3 0.688208 0.073223 0.888008
O O4 0.667052 0.241874 0.999657
O O5 0.677575 0.068314 0.109862
O O6 0.658272 0.000000 0.250000
O O7 0.746631 0.896843 0.176985
O O8 0.849753 0.177267 0.358914
O O9 0.923598 0.344435 0.426897
O O10 0.164940 0.000000 0.750000
O O11 0.500000 0.250000 0.976995
O O12 0.500000 0.000000 0.000000
#
# Coordination Sequence:
#
# PCOD8295955 Si02
#       5
#    16  16  16  16  16
#     4  10  22  36  59  89 109 156 200 248 281 349
#     4  11  22  37  56  84 126 163 188 229 296 357
#     4  10  22  36  59  89 109 156 200 248 281 349
#     4  11  22  37  56  84 126 163 188 229 296 357
#     4  10  20  38  61  84 111 144 194 252 308 340
#
# _framework density 19.481117999999999
#
# number of rings (size 3 to 8) (size 9 to 14) (size 15 to 20)
#    1.200    0.400    0.000    6.000    0.000    8.000 
#    0.000    0.000    0.000   18.000    0.000    0.000 
#    0.000    0.000    0.000    0.000    0.000    0.000 
#
# Total GULP energy -495723.745597 kJ/mol
# GULP energy per Si atom -12393.093640 kJ/mol
# Density = 1.943678 g / cm^3
# Si number density = 19.481118 Si / 1000 Ang^3
#
#
#
# Elastic Constant Matrix: (Units=GPa)
#
#
# Indices 1 2 3 4 5 6 
#
# 1 78.2744 39.0769 45.3069 0.0000 0.0000 0.0000
# 2 39.0769 138.2655 45.0255 0.0000 0.0000 0.0000
# 3 45.3069 45.0255 93.7311 0.0000 0.0000 0.0000
# 4 0.0000 0.0000 0.0000 41.7857 0.0000 0.0000
# 5 0.0000 0.0000 0.0000 0.0000 14.6707 0.0000
# 6 0.0000 0.0000 0.0000 0.0000 0.0000 43.4537
#
#
#
# Elastic Compliance Matrix: (Units=1/GPa)
#
#
# Indices 1 2 3 4 5 6 
#
# 1 0.018586 -0.002759 -0.007659 0.000000 0.000000 0.000000
# 2 -0.002759 0.008983 -0.002982 0.000000 0.000000 0.000000
# 3 -0.007659 -0.002982 0.015803 0.000000 0.000000 0.000000
# 4 0.000000 0.000000 0.000000 0.023932 0.000000 0.000000
# 5 0.000000 0.000000 0.000000 0.000000 0.068163 0.000000
# 6 0.000000 0.000000 0.000000 0.000000 0.000000 0.023013
#
#
# Mechanical properties :
#
#
# Convention : Reuss Voigt Hill
#
# Bulk Modulus (GPa) = 60.33605 63.23219 61.78412
# Shear Modulus (GPa) = 26.20511 32.03947 29.12229
#
# Velocity S-wave (km/s) = 3.67161 4.05982 3.87059
# Velocity P-wave (km/s) = 7.00094 7.38274 7.19437
#
# Compressibility (1/GPa) = 0.01657384
#
# Stress axis : x y z
#
# Youngs Moduli (GPa) = 53.80460 111.31975 63.27887
#
# Poissons Ratio (x) = 0.30711 0.48463
# Poissons Ratio (y) = 0.14843 0.18868
# Poissons Ratio (z) = 0.41207 0.33192
#
# Static dielectric constant tensor:
#      x y z
#    x 3.420970 0.000000 0.000000 
#    y 0.000000 3.464400 0.000000 
#    z 0.000000 0.000000 3.564850 
# 
# 
# High freq. dielectric constant tensor:
#      x y z
#    x 1.737090 0.000000 0.000000 
#    y 0.000000 1.774080 0.000000 
#    z 0.000000 0.000000 1.749210 
# 
# From -- ./inp_files/23816.got.cif
#   From: 2010.03.12/outbox.cif.g09.slc.cpg/sg73_12_cif.got.tgz:23816.got - 2010.04.16 15:25:48.
