data_PCOD8295919
_publ_section_title
;
Structure prediction by ZEFSAII (Michael W. Deem and Ramdas Pophale) SiO2 
 PCOD8295919
Probable space group: I B C A 
;
_chemical_formula_sum "Si O2"
_cell_formula_units_Z 88
_cell_length_a 8.882817
_cell_length_b 24.461628
_cell_length_c 19.929180
_cell_angle_alpha 90.000000
_cell_angle_beta 90.000000
_cell_angle_gamma 90.000000
_cell_volume 4330.374953
_symmetry_space_group_name_H-M "I B C A "
_symmetry_group_IT_number 73
_symmetry_cell_setting 'orthorhombic'
loop_
_space_group_symop_operation_xyz
x,y,z
-x,1/2-y,z
x,-y,1/2-z
1/2-x,y,-z
-x,-y,-z
x,1/2+y,-z
-x,y,1/2+z
1/2+x,-y,z
1/2+x,1/2+y,1/2+z
1/2-x,-y,1/2+z
1/2+x,1/2-y,-z
-x,1/2+y,1/2-z
1/2-x,1/2-y,1/2-z
1/2+x,y,1/2-z
1/2-x,1/2+y,z
x,1/2-y,1/2+z
loop_
_atom_site_type_symbol
_atom_site_label
_atom_site_fract_x
_atom_site_fract_y
_atom_site_fract_z
Si Si1 0.947422 0.583371 0.886628
Si Si2 0.754977 0.880168 0.142825
Si Si3 0.463536 0.026560 0.180708
Si Si4 0.300110 0.621094 0.294094
Si Si5 0.529982 0.686477 0.899902
Si Si6 0.250000 0.628969 0.500000
O O1 0.996529 0.520794 0.873443
O O2 0.867411 0.609551 0.821255
O O3 0.101058 0.616835 0.899734
O O4 0.835869 0.588634 0.949379
O O5 0.825264 0.940075 0.150382
O O6 0.715299 0.859324 0.217747
O O7 0.865885 0.841092 0.101921
O O8 0.607446 0.065007 0.193710
O O9 0.409210 0.000000 0.250000
O O10 0.379666 0.671260 0.332414
O O11 0.500000 0.750000 0.905231
O O12 0.627244 0.666844 0.963504
#
# Coordination Sequence:
#
# PCOD8295919 Si02
#       6
#    16  16  16  16  16   8
#     4  11  21  36  60  91 129 167 206 253 313 366
#     4  11  21  36  63  98 124 159 212 261 314 386
#     4  11  19  33  61  95 130 166 197 240 311 385
#     4  10  20  37  59  98 131 154 202 261 317 387
#     4  10  24  45  66  88 120 169 219 269 325 367
#     4  10  26  46  60  84 128 168 224 274 294 382
#
# _framework density 20.321566000000001
#
# number of rings (size 3 to 8) (size 9 to 14) (size 15 to 20)
#    0.000    1.455    3.636    2.182    0.000    2.909 
#    0.000   17.273    0.000    0.000    0.000    0.000 
#    0.000    0.000    0.000    0.000    0.000    0.000 
#
# Total GULP energy -545605.164172 kJ/mol
# GULP energy per Si atom -12400.117368 kJ/mol
# Density = 2.027531 g / cm^3
# Si number density = 20.321566 Si / 1000 Ang^3
#
#
#
# Elastic Constant Matrix: (Units=GPa)
#
#
# Indices 1 2 3 4 5 6 
#
# 1 146.2330 46.0583 39.6950 0.0000 0.0000 0.0000
# 2 46.0583 113.8983 46.4029 0.0000 0.0000 0.0000
# 3 39.6950 46.4029 92.6795 0.0000 0.0000 0.0000
# 4 0.0000 0.0000 0.0000 14.5401 0.0000 0.0000
# 5 0.0000 0.0000 0.0000 0.0000 27.3308 0.0000
# 6 0.0000 0.0000 0.0000 0.0000 0.0000 15.7041
#
#
#
# Elastic Compliance Matrix: (Units=1/GPa)
#
#
# Indices 1 2 3 4 5 6 
#
# 1 0.008219 -0.002374 -0.002332 0.000000 0.000000 0.000000
# 2 -0.002374 0.011715 -0.004849 0.000000 0.000000 0.000000
# 3 -0.002332 -0.004849 0.014216 0.000000 0.000000 0.000000
# 4 0.000000 0.000000 0.000000 0.068776 0.000000 0.000000
# 5 0.000000 0.000000 0.000000 0.000000 0.036589 0.000000
# 6 0.000000 0.000000 0.000000 0.000000 0.000000 0.063678
#
#
# Mechanical properties :
#
#
# Convention : Reuss Voigt Hill
#
# Bulk Modulus (GPa) = 66.48144 68.56924 67.52534
# Shear Modulus (GPa) = 21.99592 26.22530 24.11061
#
# Velocity S-wave (km/s) = 3.29354 3.59627 3.44823
# Velocity P-wave (km/s) = 6.87379 7.14560 7.01101
#
# Compressibility (1/GPa) = 0.01504179
#
# Stress axis : x y z
#
# Youngs Moduli (GPa) = 121.66973 85.36005 70.34149
#
# Poissons Ratio (x) = 0.20261 0.16402
# Poissons Ratio (y) = 0.28880 0.34108
# Poissons Ratio (z) = 0.28371 0.41390
#
# Static dielectric constant tensor:
#      x y z
#    x 3.990840 0.000000 0.000000 
#    y 0.000000 3.538490 0.000000 
#    z 0.000000 0.000000 3.619200 
# 
# 
# High freq. dielectric constant tensor:
#      x y z
#    x 1.818730 0.000000 0.000000 
#    y 0.000000 1.767970 0.000000 
#    z 0.000000 0.000000 1.778630 
# 
# From -- ./inp_files/24805.got.cif
#   From: 2010.03.12/outbox.cif.g09.slc.cpg/sg73_13_cif.got.tgz:24805.got - 2010.04.16 15:25:48.
