data_PCOD8295623
_publ_section_title
;
Structure prediction by ZEFSAII (Michael W. Deem and Ramdas Pophale) SiO2 
 PCOD8295623
Probable space group: I B C A 
;
_chemical_formula_sum "Si O2"
_cell_formula_units_Z 88
_cell_length_a 13.363498
_cell_length_b 22.108831
_cell_length_c 14.938215
_cell_angle_alpha 90.000000
_cell_angle_beta 90.000000
_cell_angle_gamma 90.000000
_cell_volume 4413.515323
_symmetry_space_group_name_H-M "I B C A "
_symmetry_group_IT_number 73
_symmetry_cell_setting 'orthorhombic'
loop_
_space_group_symop_operation_xyz
x,y,z
-x,1/2-y,z
x,-y,1/2-z
1/2-x,y,-z
-x,-y,-z
x,1/2+y,-z
-x,y,1/2+z
1/2+x,-y,z
1/2+x,1/2+y,1/2+z
1/2-x,-y,1/2+z
1/2+x,1/2-y,-z
-x,1/2+y,1/2-z
1/2-x,1/2-y,1/2-z
1/2+x,y,1/2-z
1/2-x,1/2+y,z
x,1/2-y,1/2+z
loop_
_atom_site_type_symbol
_atom_site_label
_atom_site_fract_x
_atom_site_fract_y
_atom_site_fract_z
Si Si1 0.922453 0.626746 0.195697
Si Si2 0.034974 0.098091 0.973695
Si Si3 0.983148 0.000000 0.750000
Si Si4 0.385928 0.018270 0.423051
Si Si5 0.224892 0.870376 0.901965
Si Si6 0.506813 0.319652 0.370774
O O1 0.914305 0.557005 0.225998
O O2 0.812631 0.648376 0.165456
O O3 0.956391 0.670494 0.274977
O O4 0.003541 0.634144 0.115784
O O5 0.940629 0.055470 0.997789
O O6 0.057692 0.144380 0.053903
O O7 0.128512 0.051988 0.954107
O O8 0.050548 0.979385 0.832562
O O9 0.283629 0.055490 0.405392
O O10 0.121273 0.841777 0.867959
O O11 0.250000 0.844231 0.000000
O O12 0.500000 0.250000 0.396646
#
# Coordination Sequence:
#
# PCOD8295623 Si02
#       6
#    16  16   8  16  16  16
#     4  11  21  37  66  94 128 172 207 265 326 389
#     4   9  18  37  62  88 125 166 203 253 326 375
#     4  10  18  34  60  94 134 158 196 262 328 376
#     4   9  17  33  60  91 127 158 198 255 315 391
#     4  11  21  40  65  95 123 171 216 257 324 396
#     4  11  24  42  65  92 129 171 221 271 319 379
#
# _framework density 19.938753999999999
#
# number of rings (size 3 to 8) (size 9 to 14) (size 15 to 20)
#    0.000    1.818    7.273    0.000    0.000    2.182 
#    0.000    0.000    0.000    0.000    0.000    0.000 
#    0.000    0.000    0.000    0.000    0.000    0.000 
#
# Total GULP energy -545374.386831 kJ/mol
# GULP energy per Si atom -12394.872428 kJ/mol
# Density = 1.989337 g / cm^3
# Si number density = 19.938754 Si / 1000 Ang^3
#
#
#
# Elastic Constant Matrix: (Units=GPa)
#
#
# Indices 1 2 3 4 5 6 
#
# 1 71.5150 28.6271 34.1117 -0.0001 0.0000 0.0000
# 2 28.6271 96.8847 44.7867 0.0000 0.0000 0.0000
# 3 34.1117 44.7867 131.2669 -0.0002 0.0000 0.0000
# 4 -0.0001 0.0000 -0.0002 27.7867 0.0000 0.0000
# 5 0.0000 0.0000 0.0000 0.0000 27.5229 0.0000
# 6 0.0000 0.0000 0.0000 0.0000 0.0000 10.3864
#
#
#
# Elastic Compliance Matrix: (Units=1/GPa)
#
#
# Indices 1 2 3 4 5 6 
#
# 1 0.016917 -0.003522 -0.003194 0.000000 0.000000 0.000000
# 2 -0.003522 0.012987 -0.003516 0.000000 0.000000 0.000000
# 3 -0.003194 -0.003516 0.009648 0.000000 0.000000 0.000000
# 4 0.000000 0.000000 0.000000 0.035988 0.000000 0.000000
# 5 0.000000 0.000000 0.000000 0.000000 0.036333 0.000000
# 6 0.000000 0.000000 0.000000 0.000000 0.000000 0.096279
#
#
# Mechanical properties :
#
#
# Convention : Reuss Voigt Hill
#
# Bulk Modulus (GPa) = 52.39044 57.19085 54.79064
# Shear Modulus (GPa) = 21.27842 25.94861 23.61352
#
# Velocity S-wave (km/s) = 3.27033 3.61143 3.44510
# Velocity P-wave (km/s) = 6.37125 6.79231 6.58514
#
# Compressibility (1/GPa) = 0.01908745
#
# Stress axis : x y z
#
# Youngs Moduli (GPa) = 59.11381 76.99723 103.65053
#
# Poissons Ratio (x) = 0.27116 0.33110
# Poissons Ratio (y) = 0.20818 0.36443
# Poissons Ratio (z) = 0.18883 0.27072
#
# Static dielectric constant tensor:
#      x y z
#    x 3.312630 0.000000 0.000000 
#    y 0.000000 3.621030 0.000000 
#    z 0.000000 0.000000 3.851610 
# 
# 
# High freq. dielectric constant tensor:
#      x y z
#    x 1.738440 0.000000 0.000000 
#    y 0.000000 1.755600 0.000000 
#    z 0.000000 0.000000 1.798640 
# 
# From -- ./inp_files/16966.got.cif
#   From: 2010.03.12/outbox.cif.g09.slc.cpg/sg73_9_cif.got.tgz:16966.got - 2010.04.16 15:25:48.
