data_PCOD8295467
_publ_section_title
;
Structure prediction by ZEFSAII (Michael W. Deem and Ramdas Pophale) SiO2 
 PCOD8295467
Probable space group: I B A M
;
_chemical_formula_sum "Si O2"
_cell_formula_units_Z 64
_cell_length_a 11.172992
_cell_length_b 27.071391
_cell_length_c 9.956870
_cell_angle_alpha 90.000000
_cell_angle_beta 90.000000
_cell_angle_gamma 90.000000
_cell_volume 3011.638887
_symmetry_space_group_name_H-M "I B A M"
_symmetry_group_IT_number 72
_symmetry_cell_setting 'orthorhombic'
loop_
_space_group_symop_operation_xyz
x,y,z
-x,-y,z
x,-y,1/2-z
-x,y,1/2-z
-x,-y,-z
x,y,-z
-x,y,1/2+z
x,-y,1/2+z
1/2+x,1/2+y,1/2+z
1/2-x,1/2-y,1/2+z
1/2+x,1/2-y,-z
1/2-x,1/2+y,-z
1/2-x,1/2-y,1/2-z
1/2+x,1/2+y,1/2-z
1/2-x,1/2+y,z
1/2+x,1/2-y,z
loop_
_atom_site_type_symbol
_atom_site_label
_atom_site_fract_x
_atom_site_fract_y
_atom_site_fract_z
Si Si1 0.743687 0.810429 0.500000
Si Si2 0.482733 0.647261 0.500000
Si Si3 0.000000 0.081499 0.250000
Si Si4 0.746734 0.456859 0.156319
Si Si5 0.736835 0.301678 0.000000
Si Si6 0.640902 0.146096 0.265329
O O1 0.888953 0.807348 0.500000
O O2 0.693687 0.754943 0.500000
O O3 0.700024 0.842027 0.375194
O O4 0.452159 0.615524 0.630596
O O5 0.619531 0.664192 0.500000
O O6 0.107606 0.048274 0.194880
O O7 0.802139 0.500000 0.250000
O O8 0.820525 0.407257 0.181386
O O9 0.757426 0.471837 0.000000
O O10 0.816077 0.312276 0.130480
O O11 0.500000 0.148386 0.250000
#
# Coordination Sequence:
#
# PCOD8295467 Si02
#       6
#     8   8   8  16   8  16
#     4  12  27  42  77 108 133 192 241 281 348 416
#     4  12  22  42  75 100 144 180 227 296 350 402
#     4  12  21  44  68 102 144 180 222 294 355 408
#     4  12  27  46  71 103 140 182 232 290 353 417
#     4  12  25  50  67 106 145 184 235 293 346 402
#     4  12  26  48  70 101 148 186 231 291 343 416
#
# _framework density 21.250889000000001
#
# number of rings (size 3 to 8) (size 9 to 14) (size 15 to 20)
#    0.000    0.000    7.500    1.875    7.000    1.500 
#    0.000    1.250    0.000    0.000    0.000    0.000 
#    0.000    0.000    0.000    0.000    0.000    0.000 
#
# Total GULP energy -396968.781460 kJ/mol
# GULP energy per Si atom -12405.274421 kJ/mol
# Density = 2.120252 g / cm^3
# Si number density = 21.250889 Si / 1000 Ang^3
#
#
#
# Elastic Constant Matrix: (Units=GPa)
#
#
# Indices 1 2 3 4 5 6 
#
# 1 125.6521 11.5784 34.4758 0.0004 0.0000 -0.0003
# 2 11.5784 90.9742 45.8667 -0.0005 -0.0003 -0.0001
# 3 34.4758 45.8667 192.7388 0.0004 -0.0019 -0.0005
# 4 0.0004 -0.0005 0.0004 30.4743 -0.0005 0.0002
# 5 0.0000 -0.0003 -0.0019 -0.0005 21.7289 0.0004
# 6 -0.0003 -0.0001 -0.0005 0.0002 0.0004 16.4461
#
#
#
# Elastic Compliance Matrix: (Units=1/GPa)
#
#
# Indices 1 2 3 4 5 6 
#
# 1 0.008379 -0.000353 -0.001415 0.000000 0.000000 0.000000
# 2 -0.000353 0.012506 -0.002913 0.000000 0.000000 0.000000
# 3 -0.001415 -0.002913 0.006135 0.000000 0.000000 0.000000
# 4 0.000000 0.000000 0.000000 0.032814 0.000001 0.000000
# 5 0.000000 0.000000 0.000000 0.000001 0.046022 -0.000001
# 6 0.000000 0.000000 0.000000 0.000000 -0.000001 0.060805
#
#
# Mechanical properties :
#
#
# Convention : Reuss Voigt Hill
#
# Bulk Modulus (GPa) = 56.63175 65.91189 61.27182
# Shear Modulus (GPa) = 27.48646 34.89282 31.18964
#
# Velocity S-wave (km/s) = 3.60033 4.05649 3.83520
# Velocity P-wave (km/s) = 6.63250 7.28173 6.96468
#
# Compressibility (1/GPa) = 0.01765794
#
# Stress axis : x y z
#
# Youngs Moduli (GPa) = 119.34310 79.96388 163.00944
#
# Poissons Ratio (x) = 0.02824 0.23062
# Poissons Ratio (y) = 0.04214 0.47482
# Poissons Ratio (z) = 0.16884 0.23292
#
# Static dielectric constant tensor:
#      x y z
#    x 3.850030 0.000000 0.000000 
#    y 0.000000 3.773950 0.000000 
#    z 0.000000 0.000000 4.144870 
# 
# 
# High freq. dielectric constant tensor:
#      x y z
#    x 1.834030 0.000000 0.000000 
#    y 0.000000 1.832040 0.000000 
#    z 0.000000 0.000000 1.857780 
# 
# From -- ./inp_files/2687.got.cif
#   From: 2010.03.12/outbox.cif.g09.slc.cpg/sg72_2_cif.got.tgz:2687.got - 2010.04.16 14:54:00.
