data_PCOD8295540
_publ_section_title
;
Structure prediction by ZEFSAII (Michael W. Deem and Ramdas Pophale) SiO2 
 PCOD8295540
Probable space group: I B C A 
;
_chemical_formula_sum "Si O2"
_cell_formula_units_Z 120
_cell_length_a 23.971048
_cell_length_b 15.893871
_cell_length_c 15.728236
_cell_angle_alpha 90.000000
_cell_angle_beta 90.000000
_cell_angle_gamma 90.000000
_cell_volume 5992.343802
_symmetry_space_group_name_H-M "I B C A "
_symmetry_group_IT_number 73
_symmetry_cell_setting 'orthorhombic'
loop_
_space_group_symop_operation_xyz
x,y,z
-x,1/2-y,z
x,-y,1/2-z
1/2-x,y,-z
-x,-y,-z
x,1/2+y,-z
-x,y,1/2+z
1/2+x,-y,z
1/2+x,1/2+y,1/2+z
1/2-x,-y,1/2+z
1/2+x,1/2-y,-z
-x,1/2+y,1/2-z
1/2-x,1/2-y,1/2-z
1/2+x,y,1/2-z
1/2-x,1/2+y,z
x,1/2-y,1/2+z
loop_
_atom_site_type_symbol
_atom_site_label
_atom_site_fract_x
_atom_site_fract_y
_atom_site_fract_z
Si Si1 0.863905 0.383553 0.594492
Si Si2 0.165608 0.656486 0.136771
Si Si3 0.686192 0.533268 0.502901
Si Si4 0.848579 0.961923 0.666342
Si Si5 0.436661 0.097279 0.246337
Si Si6 0.500000 0.750000 0.837120
Si Si7 0.392566 0.189580 0.576913
Si Si8 0.269709 0.092967 0.278686
O O1 0.855614 0.471007 0.545730
O O2 0.916051 0.382816 0.658375
O O3 0.877900 0.313095 0.523309
O O4 0.806352 0.367293 0.645159
O O5 0.179046 0.622621 0.042251
O O6 0.115109 0.604405 0.180990
O O7 0.152745 0.754077 0.125635
O O8 0.220874 0.650544 0.195166
O O9 0.750000 0.500622 0.500000
O O10 0.668942 0.537133 0.602191
O O11 0.891862 0.901991 0.619654
O O12 0.794350 0.908810 0.694639
O O13 0.877781 0.000000 0.750000
O O14 0.483148 0.168191 0.220646
O O15 0.459438 0.000000 0.250000
O O16 0.452600 0.772468 0.904734
O O17 0.290982 0.000000 0.250000
#
# Coordination Sequence:
#
# PCOD8295540 Si02
#       8
#    16  16  16  16  16   8  16  16
#     4  10  18  35  62  90 113 157 201 239 293 370
#     4  10  19  36  55  87 120 162 196 245 298 364
#     4  11  17  32  57  87 123 155 197 235 282 356
#     4  10  21  36  57  85 122 162 193 244 295 362
#     4  10  19  39  71  87 111 158 214 252 312 374
#     4  10  24  44  60  86 124 156 204 282 314 348
#     4  10  24  39  57  82 124 153 197 265 313 348
#     4  10  16  33  62  85 117 159 203 233 284 371
#
# _framework density 20.025552999999999
#
# number of rings (size 3 to 8) (size 9 to 14) (size 15 to 20)
#    0.000    1.867    4.000    1.600    0.000    1.600 
#    9.600    0.667    0.000    0.000    0.000    0.000 
#    0.000    0.000    0.000    0.000    0.000    0.000 
#
# Total GULP energy -743461.017215 kJ/mol
# GULP energy per Si atom -12391.016954 kJ/mol
# Density = 1.997997 g / cm^3
# Si number density = 20.025553 Si / 1000 Ang^3
#
#
#
# Elastic Constant Matrix: (Units=GPa)
#
#
# Indices 1 2 3 4 5 6 
#
# 1 45.2457 20.8223 21.3637 0.0000 0.0000 0.0000
# 2 20.8223 71.5950 36.8458 0.0000 0.0000 0.0000
# 3 21.3637 36.8458 130.0797 0.0000 0.0000 0.0000
# 4 0.0000 0.0000 0.0000 34.7590 0.0000 0.0000
# 5 0.0000 0.0000 0.0000 0.0000 24.5989 0.0000
# 6 0.0000 0.0000 0.0000 0.0000 0.0000 19.5331
#
#
#
# Elastic Compliance Matrix: (Units=1/GPa)
#
#
# Indices 1 2 3 4 5 6 
#
# 1 0.026199 -0.006328 -0.002510 0.000000 0.000000 0.000000
# 2 -0.006328 0.017879 -0.004025 0.000000 0.000000 0.000000
# 3 -0.002510 -0.004025 0.009240 0.000000 0.000000 0.000000
# 4 0.000000 0.000000 0.000000 0.028769 0.000000 0.000000
# 5 0.000000 0.000000 0.000000 0.000000 0.040652 0.000000
# 6 0.000000 0.000000 0.000000 0.000000 0.000000 0.051195
#
#
# Mechanical properties :
#
#
# Convention : Reuss Voigt Hill
#
# Bulk Modulus (GPa) = 36.24268 44.99824 40.62046
# Shear Modulus (GPa) = 23.93963 26.97079 25.45521
#
# Velocity S-wave (km/s) = 3.46128 3.67388 3.56917
# Velocity P-wave (km/s) = 5.84050 6.36520 6.10849
#
# Compressibility (1/GPa) = 0.02759178
#
# Stress axis : x y z
#
# Youngs Moduli (GPa) = 38.16953 55.93070 108.22435
#
# Poissons Ratio (x) = 0.35390 0.27170
# Poissons Ratio (y) = 0.24152 0.43562
# Poissons Ratio (z) = 0.09582 0.22513
#
# Static dielectric constant tensor:
#      x y z
#    x 3.330410 0.000000 0.000000 
#    y 0.000000 3.528000 0.000000 
#    z 0.000000 0.000000 3.961890 
# 
# 
# High freq. dielectric constant tensor:
#      x y z
#    x 1.751190 0.000000 0.000000 
#    y 0.000000 1.761400 0.000000 
#    z 0.000000 0.000000 1.797680 
# 
# From -- ./inp_files/23659.got.cif
#   From: 2010.03.12/outbox.cif.g09.slc.cpg/sg73_12_cif.got.tgz:23659.got - 2010.04.16 15:25:48.
