data_PCOD8295141
_publ_section_title
;
Structure prediction by ZEFSAII (Michael W. Deem and Ramdas Pophale) SiO2 
 PCOD8295141
Probable space group: I B A M
;
_chemical_formula_sum "Si O2"
_cell_formula_units_Z 48
_cell_length_a 7.128474
_cell_length_b 17.511772
_cell_length_c 17.207351
_cell_angle_alpha 90.000000
_cell_angle_beta 90.000000
_cell_angle_gamma 90.000000
_cell_volume 2148.031678
_symmetry_space_group_name_H-M "I B A M"
_symmetry_group_IT_number 72
_symmetry_cell_setting 'orthorhombic'
loop_
_space_group_symop_operation_xyz
x,y,z
-x,-y,z
x,-y,1/2-z
-x,y,1/2-z
-x,-y,-z
x,y,-z
-x,y,1/2+z
x,-y,1/2+z
1/2+x,1/2+y,1/2+z
1/2-x,1/2-y,1/2+z
1/2+x,1/2-y,-z
1/2-x,1/2+y,-z
1/2-x,1/2-y,1/2-z
1/2+x,1/2+y,1/2-z
1/2-x,1/2+y,z
1/2+x,1/2-y,z
loop_
_atom_site_type_symbol
_atom_site_label
_atom_site_fract_x
_atom_site_fract_y
_atom_site_fract_z
Si Si1 0.380679 0.429785 0.411145
Si Si2 0.945999 0.651912 0.661201
Si Si3 0.184027 0.198089 0.412121
O O1 0.500000 0.500000 0.375432
O O2 0.327195 0.448664 0.500000
O O3 0.189375 0.418246 0.362673
O O4 0.500607 0.353046 0.405129
O O5 0.836808 0.731251 0.646430
O O6 0.000000 0.642926 0.750000
O O7 0.133547 0.648709 0.609496
O O8 0.207736 0.229219 0.500000
#
# Coordination Sequence:
#
# PCOD8295141 Si02
#       3
#    16  16  16
#     4  10  23  43  66  95 133 178 229 283 333 399
#     4  12  24  39  66  99 137 172 222 284 342 401
#     4  11  22  39  67  96 129 178 231 276 327 406
#
# _framework density 22.346038
#
# number of rings (size 3 to 8) (size 9 to 14) (size 15 to 20)
#    0.000    1.000    3.333    4.000    0.000    1.333 
#    0.000   10.000    0.000    0.000    0.000    0.000 
#    0.000    0.000    0.000    0.000    0.000    0.000 
#
# Total GULP energy -297721.393461 kJ/mol
# GULP energy per Si atom -12405.058061 kJ/mol
# Density = 2.229518 g / cm^3
# Si number density = 22.346038 Si / 1000 Ang^3
#
#
#
# Elastic Constant Matrix: (Units=GPa)
#
#
# Indices 1 2 3 4 5 6 
#
# 1 141.6682 18.4014 75.6234 0.0000 0.0000 0.0000
# 2 18.4014 55.4642 50.9913 0.0000 0.0000 0.0000
# 3 75.6234 50.9913 133.2870 0.0000 0.0000 0.0000
# 4 0.0000 0.0000 0.0000 -2.6302 0.0000 0.0000
# 5 0.0000 0.0000 0.0000 0.0000 39.7770 0.0000
# 6 0.0000 0.0000 0.0000 0.0000 0.0000 47.7451
#
#
#
# Elastic Compliance Matrix: (Units=1/GPa)
#
#
# Indices 1 2 3 4 5 6 
#
# 1 0.010452 0.003061 -0.007101 0.000000 0.000000 0.000000
# 2 0.003061 0.028708 -0.012719 0.000000 0.000000 0.000000
# 3 -0.007101 -0.012719 0.016397 0.000000 0.000000 0.000000
# 4 0.000000 0.000000 0.000000 -0.380194 0.000000 0.000000
# 5 0.000000 0.000000 0.000000 0.000000 0.025140 0.000000
# 6 0.000000 0.000000 0.000000 0.000000 0.000000 0.020945
#
#
# Mechanical properties :
#
#
# Convention : Reuss Voigt Hill
#
# Bulk Modulus (GPa) = 45.37620 68.93907 57.15763
# Shear Modulus (GPa) = -21.03605 29.33859 4.15127
#
# Velocity S-wave (km/s) = -3.07152 3.62736 1.36446
# Velocity P-wave (km/s) = 2.78770 6.96141 5.30248
#
# Compressibility (1/GPa) = 0.02203798
#
# Stress axis : x y z
#
# Youngs Moduli (GPa) = 95.67791 34.83389 60.98498
#
# Poissons Ratio (x) = -0.10662 0.43305
# Poissons Ratio (y) = -0.29285 0.77568
# Poissons Ratio (z) = 0.67941 0.44306
#
# Static dielectric constant tensor:
#      x y z
#    x 4.298170 0.000000 0.000000 
#    y 0.000000 3.846790 0.000000 
#    z 0.000000 0.000000 3.853880 
# 
# 
# High freq. dielectric constant tensor:
#      x y z
#    x 1.902970 0.000000 0.000000 
#    y 0.000000 1.864060 0.000000 
#    z 0.000000 0.000000 1.865410 
# 
# From -- ./inp_files/18002.got.cif
#   From: 2010.03.12/outbox.cif.g09.slc.cpg/sg72_10_cif.got.tgz:18002.got - 2010.04.16 14:54:00.
