data_PCOD8295262
_publ_section_title
;
Structure prediction by ZEFSAII (Michael W. Deem and Ramdas Pophale) SiO2 
 PCOD8295262
Probable space group: I B A M
;
_chemical_formula_sum "Si O2"
_cell_formula_units_Z 48
_cell_length_a 15.576368
_cell_length_b 6.784546
_cell_length_c 18.966283
_cell_angle_alpha 90.000000
_cell_angle_beta 90.000000
_cell_angle_gamma 90.000000
_cell_volume 2004.329954
_symmetry_space_group_name_H-M "I B A M"
_symmetry_group_IT_number 72
_symmetry_cell_setting 'orthorhombic'
loop_
_space_group_symop_operation_xyz
x,y,z
-x,-y,z
x,-y,1/2-z
-x,y,1/2-z
-x,-y,-z
x,y,-z
-x,y,1/2+z
x,-y,1/2+z
1/2+x,1/2+y,1/2+z
1/2-x,1/2-y,1/2+z
1/2+x,1/2-y,-z
1/2-x,1/2+y,-z
1/2-x,1/2-y,1/2-z
1/2+x,1/2+y,1/2-z
1/2-x,1/2+y,z
1/2+x,1/2-y,z
loop_
_atom_site_type_symbol
_atom_site_label
_atom_site_fract_x
_atom_site_fract_y
_atom_site_fract_z
Si Si1 0.683895 0.418736 0.674729
Si Si2 0.426779 0.342315 0.417588
Si Si3 0.622494 0.005513 0.826492
O O1 0.647657 0.500000 0.750000
O O2 0.662352 0.570391 0.611911
O O3 0.785552 0.381723 0.681041
O O4 0.638022 0.217495 0.649102
O O5 0.500000 0.500000 0.397871
O O6 0.420126 0.301936 0.500000
O O7 0.439726 0.129501 0.379139
O O8 0.578134 0.000000 0.750000
#
# Coordination Sequence:
#
# PCOD8295262 Si02
#       3
#    16  16  16
#     4  11  20  40  71 101 131 172 232 289 338 401
#     4  11  26  44  61  97 148 180 217 285 349 405
#     4  11  20  41  71 100 129 175 231 291 338 395
#
# _framework density 23.948152
#
# number of rings (size 3 to 8) (size 9 to 14) (size 15 to 20)
#    0.000    1.000    6.667    2.000    0.000    4.667 
#    0.000    5.000    0.000    0.000    0.000    0.000 
#    0.000    0.000    0.000    0.000    0.000    0.000 
#
# Total GULP energy -297513.882674 kJ/mol
# GULP energy per Si atom -12396.411778 kJ/mol
# Density = 2.389364 g / cm^3
# Si number density = 23.948152 Si / 1000 Ang^3
#
#
#
# Elastic Constant Matrix: (Units=GPa)
#
#
# Indices 1 2 3 4 5 6 
#
# 1 61.1043 32.6467 37.4592 0.0000 0.0000 0.0000
# 2 32.6467 179.3824 85.1348 0.0000 0.0000 0.0000
# 3 37.4592 85.1348 168.0227 0.0000 0.0000 0.0000
# 4 0.0000 0.0000 0.0000 47.1269 0.0000 0.0000
# 5 0.0000 0.0000 0.0000 0.0000 22.7841 0.0000
# 6 0.0000 0.0000 0.0000 0.0000 0.0000 51.6502
#
#
#
# Elastic Compliance Matrix: (Units=1/GPa)
#
#
# Indices 1 2 3 4 5 6 
#
# 1 0.019462 -0.001952 -0.003350 0.000000 0.000000 0.000000
# 2 -0.001952 0.007536 -0.003383 0.000000 0.000000 0.000000
# 3 -0.003350 -0.003383 0.008412 0.000000 0.000000 0.000000
# 4 0.000000 0.000000 0.000000 0.021219 0.000000 0.000000
# 5 0.000000 0.000000 0.000000 0.000000 0.043890 0.000000
# 6 0.000000 0.000000 0.000000 0.000000 0.000000 0.019361
#
#
# Mechanical properties :
#
#
# Convention : Reuss Voigt Hill
#
# Bulk Modulus (GPa) = 55.43162 79.88788 67.65975
# Shear Modulus (GPa) = 34.90070 41.19682 38.04876
#
# Velocity S-wave (km/s) = 3.82166 4.15209 3.99030
# Velocity P-wave (km/s) = 6.53224 7.51116 7.03874
#
# Compressibility (1/GPa) = 0.01804024
#
# Stress axis : x y z
#
# Youngs Moduli (GPa) = 51.38222 132.70516 118.87148
#
# Poissons Ratio (x) = 0.25907 0.39819
# Poissons Ratio (y) = 0.10031 0.40213
# Poissons Ratio (z) = 0.17212 0.44893
#
# Static dielectric constant tensor:
#      x y z
#    x 4.034600 0.000000 0.000000 
#    y 0.000000 4.622240 0.000000 
#    z 0.000000 0.000000 4.004830 
# 
# 
# High freq. dielectric constant tensor:
#      x y z
#    x 1.934160 0.000000 0.000000 
#    y 0.000000 1.984320 0.000000 
#    z 0.000000 0.000000 1.921240 
# 
# From -- ./inp_files/31003.got.cif
#   From: 2010.03.12/outbox.cif.g09.slc.cpg/sg72_16_cif.got.tgz:31003.got - 2010.04.16 14:54:00.
