data_PCOD8295244
_publ_section_title
;
Structure prediction by ZEFSAII (Michael W. Deem and Ramdas Pophale) SiO2 
 PCOD8295244
Probable space group: I B A M
;
_chemical_formula_sum "Si O2"
_cell_formula_units_Z 92
_cell_length_a 24.247700
_cell_length_b 8.869694
_cell_length_c 21.812724
_cell_angle_alpha 90.000000
_cell_angle_beta 90.000000
_cell_angle_gamma 90.000000
_cell_volume 4691.255553
_symmetry_space_group_name_H-M "I B A M"
_symmetry_group_IT_number 72
_symmetry_cell_setting 'orthorhombic'
loop_
_space_group_symop_operation_xyz
x,y,z
-x,-y,z
x,-y,1/2-z
-x,y,1/2-z
-x,-y,-z
x,y,-z
-x,y,1/2+z
x,-y,1/2+z
1/2+x,1/2+y,1/2+z
1/2-x,1/2-y,1/2+z
1/2+x,1/2-y,-z
1/2-x,1/2+y,-z
1/2-x,1/2-y,1/2-z
1/2+x,1/2+y,1/2-z
1/2-x,1/2+y,z
1/2+x,1/2-y,z
loop_
_atom_site_type_symbol
_atom_site_label
_atom_site_fract_x
_atom_site_fract_y
_atom_site_fract_z
Si Si1 0.448018 0.758966 0.833706
Si Si2 0.354803 0.037003 0.679261
Si Si3 0.764534 0.119194 0.203220
Si Si4 0.028768 0.159407 0.568099
Si Si5 0.578449 0.500000 0.750000
Si Si6 0.500000 0.000000 0.250000
Si Si7 0.871842 0.792530 0.650910
O O1 0.384753 0.810356 0.847935
O O2 0.489118 0.766262 0.891444
O O3 0.455984 0.594339 0.801451
O O4 0.461589 0.895962 0.789791
O O5 0.289636 0.059622 0.668049
O O6 0.364276 0.000000 0.750000
O O7 0.377574 0.887796 0.645069
O O8 0.750000 0.250000 0.250000
O O9 0.807060 0.163483 0.148574
O O10 0.791918 0.000000 0.250000
O O11 0.034933 0.229263 0.500000
O O12 0.089973 0.139499 0.597182
O O13 0.000000 0.000000 0.563228
O O14 0.610440 0.636032 0.783567
#
# Coordination Sequence:
#
# PCOD8295244 Si02
#       7
#    16  16  16  16   8   4  16
#     4  12  22  37  58  89 127 162 201 260 313 388
#     4  11  21  36  54  92 137 155 192 248 324 389
#     4  11  20  33  57  93 131 160 194 245 321 399
#     4  11  26  44  63  88 121 172 226 266 301 359
#     4  12  20  31  59  94 113 152 206 243 334 382
#     4  12  24  34  56  92 134 158 192 258 342 370
#     4  12  22  38  60  91 129 168 200 263 312 386
#
# _framework density 19.610952999999999
#
# number of rings (size 3 to 8) (size 9 to 14) (size 15 to 20)
#    0.000    0.522    8.696    2.087    0.000    0.696 
#    0.000    3.913    0.000    2.087    0.000    0.000 
#    0.000    0.000    0.000    0.000    0.000    0.000 
#
# Total GULP energy -569857.248154 kJ/mol
# GULP energy per Si atom -12388.201047 kJ/mol
# Density = 1.956632 g / cm^3
# Si number density = 19.610953 Si / 1000 Ang^3
#
#
#
# Elastic Constant Matrix: (Units=GPa)
#
#
# Indices 1 2 3 4 5 6 
#
# 1 132.0112 37.2911 60.5262 0.0000 0.0000 0.0000
# 2 37.2911 103.9313 29.0767 0.0000 0.0000 0.0000
# 3 60.5262 29.0767 94.6469 0.0000 0.0000 0.0000
# 4 0.0000 0.0000 0.0000 35.3715 0.0000 0.0000
# 5 0.0000 0.0000 0.0000 0.0000 12.5987 0.0000
# 6 0.0000 0.0000 0.0000 0.0000 0.0000 30.2626
#
#
#
# Elastic Compliance Matrix: (Units=1/GPa)
#
#
# Indices 1 2 3 4 5 6 
#
# 1 0.011158 -0.002196 -0.006461 0.000000 0.000000 0.000000
# 2 -0.002196 0.010959 -0.001962 0.000000 0.000000 0.000000
# 3 -0.006461 -0.001962 0.015300 0.000000 0.000000 0.000000
# 4 0.000000 0.000000 0.000000 0.028271 0.000000 0.000000
# 5 0.000000 0.000000 0.000000 0.000000 0.079373 0.000000
# 6 0.000000 0.000000 0.000000 0.000000 0.000000 0.033044
#
#
# Mechanical properties :
#
#
# Convention : Reuss Voigt Hill
#
# Bulk Modulus (GPa) = 61.81062 64.93082 63.37072
# Shear Modulus (GPa) = 24.42176 29.22625 26.82401
#
# Velocity S-wave (km/s) = 3.53273 3.86463 3.70240
# Velocity P-wave (km/s) = 6.94457 7.28664 7.11766
#
# Compressibility (1/GPa) = 0.01617845
#
# Stress axis : x y z
#
# Youngs Moduli (GPa) = 89.62523 91.25207 65.35965
#
# Poissons Ratio (x) = 0.20038 0.42226
# Poissons Ratio (y) = 0.19681 0.12826
# Poissons Ratio (z) = 0.57903 0.17907
#
# Static dielectric constant tensor:
#      x y z
#    x 4.098250 0.000000 0.000000 
#    y 0.000000 6.684220 0.000000 
#    z 0.000000 0.000000 3.318740 
# 
# 
# High freq. dielectric constant tensor:
#      x y z
#    x 1.781760 0.000000 0.000000 
#    y 0.000000 1.780640 0.000000 
#    z 0.000000 0.000000 1.692640 
# 
# From -- ./inp_files/40719.got.cif
#   From: 2010.03.12/outbox.cif.g09.slc.cpg/sg72_21_cif.got.tgz:40719.got - 2010.04.16 14:54:00.
