data_PCOD8295625
_publ_section_title
;
Structure prediction by ZEFSAII (Michael W. Deem and Ramdas Pophale) SiO2 
 PCOD8295625
Probable space group: I B C A 
;
_chemical_formula_sum "Si O2"
_cell_formula_units_Z 120
_cell_length_a 19.863891
_cell_length_b 21.347446
_cell_length_c 14.268790
_cell_angle_alpha 90.000000
_cell_angle_beta 90.000000
_cell_angle_gamma 90.000000
_cell_volume 6050.585376
_symmetry_space_group_name_H-M "I B C A "
_symmetry_group_IT_number 73
_symmetry_cell_setting 'orthorhombic'
loop_
_space_group_symop_operation_xyz
x,y,z
-x,1/2-y,z
x,-y,1/2-z
1/2-x,y,-z
-x,-y,-z
x,1/2+y,-z
-x,y,1/2+z
1/2+x,-y,z
1/2+x,1/2+y,1/2+z
1/2-x,-y,1/2+z
1/2+x,1/2-y,-z
-x,1/2+y,1/2-z
1/2-x,1/2-y,1/2-z
1/2+x,y,1/2-z
1/2-x,1/2+y,z
x,1/2-y,1/2+z
loop_
_atom_site_type_symbol
_atom_site_label
_atom_site_fract_x
_atom_site_fract_y
_atom_site_fract_z
Si Si1 0.000000 0.750000 0.756172
Si Si2 0.062816 0.126367 0.784785
Si Si3 0.218712 0.254387 0.597713
Si Si4 0.596829 0.330795 0.878649
Si Si5 0.210567 0.156785 0.755308
Si Si6 0.044761 0.552680 0.605381
Si Si7 0.994578 0.079216 0.092601
Si Si8 0.838160 0.926156 0.737589
O O1 0.964776 0.696341 0.693933
O O2 0.939329 0.779532 0.814840
O O3 0.143549 0.122754 0.793996
O O4 0.047657 0.106074 0.678442
O O5 0.025640 0.081488 0.858018
O O6 0.250000 0.230709 0.500000
O O7 0.154513 0.295258 0.564688
O O8 0.195436 0.196135 0.661062
O O9 0.266730 0.298151 0.660161
O O10 0.543020 0.364729 0.946065
O O11 0.626531 0.389509 0.821300
O O12 0.265376 0.105416 0.723502
O O13 0.052992 0.560364 0.493473
O O14 0.111498 0.583285 0.649394
O O15 0.039450 0.479135 0.629193
O O16 0.826715 0.000000 0.750000
#
# Coordination Sequence:
#
# PCOD8295625 Si02
#       8
#     8  16  16  16  16  16  16  16
#     4  10  18  34  62  84 118 152 192 248 300 354
#     4  11  21  39  61  88 125 153 194 258 303 351
#     4  10  22  40  62  83 123 166 198 244 306 360
#     4  10  19  37  60  84 121 156 198 249 294 364
#     4  10  24  39  60  92 121 158 208 248 298 374
#     4  11  21  38  63  89 117 159 207 249 306 363
#     4  10  22  36  62  91 118 153 205 254 300 359
#     4  11  20  39  62  84 119 168 203 241 312 367
#
# _framework density 19.832791
#
# number of rings (size 3 to 8) (size 9 to 14) (size 15 to 20)
#    0.000    1.600    5.333    0.400    1.867    2.133 
#    0.000    2.667    0.000    0.800    0.000    0.000 
#    0.000    0.000    0.000    0.000    0.000    0.000 
#
# Total GULP energy -743547.029179 kJ/mol
# GULP energy per Si atom -12392.450486 kJ/mol
# Density = 1.978765 g / cm^3
# Si number density = 19.832791 Si / 1000 Ang^3
#
#
#
# Elastic Constant Matrix: (Units=GPa)
#
#
# Indices 1 2 3 4 5 6 
#
# 1 88.7212 19.0473 14.9027 0.0000 0.0000 0.0000
# 2 19.0473 86.3277 10.7640 0.0000 0.0000 0.0000
# 3 14.9027 10.7640 48.4299 0.0000 0.0000 0.0000
# 4 0.0000 0.0000 0.0000 16.4211 0.0000 0.0000
# 5 0.0000 0.0000 0.0000 0.0000 17.2084 0.0000
# 6 0.0000 0.0000 0.0000 0.0000 0.0000 32.8821
#
#
#
# Elastic Compliance Matrix: (Units=1/GPa)
#
#
# Indices 1 2 3 4 5 6 
#
# 1 0.012317 -0.002309 -0.003277 0.000000 0.000000 0.000000
# 2 -0.002309 0.012347 -0.002034 0.000000 0.000000 0.000000
# 3 -0.003277 -0.002034 0.022109 0.000000 0.000000 0.000000
# 4 0.000000 0.000000 0.000000 0.060897 0.000000 0.000000
# 5 0.000000 0.000000 0.000000 0.000000 0.058111 0.000000
# 6 0.000000 0.000000 0.000000 0.000000 0.000000 0.030412
#
#
# Mechanical properties :
#
#
# Convention : Reuss Voigt Hill
#
# Bulk Modulus (GPa) = 31.71238 34.76744 33.23991
# Shear Modulus (GPa) = 22.52823 25.21999 23.87411
#
# Velocity S-wave (km/s) = 3.37398 3.56986 3.47330
# Velocity P-wave (km/s) = 5.58596 5.87879 5.73424
#
# Compressibility (1/GPa) = 0.03153342
#
# Stress axis : x y z
#
# Youngs Moduli (GPa) = 81.18561 80.99255 45.23083
#
# Poissons Ratio (x) = 0.18702 0.14822
# Poissons Ratio (y) = 0.18747 0.09198
# Poissons Ratio (z) = 0.26605 0.16471
#
# Static dielectric constant tensor:
#      x y z
#    x 2.563570 0.000000 0.000000 
#    y 0.000000 3.800170 0.000000 
#    z 0.000000 0.000000 3.232150 
# 
# 
# High freq. dielectric constant tensor:
#      x y z
#    x 1.774950 0.000000 0.000000 
#    y 0.000000 1.787340 0.000000 
#    z 0.000000 0.000000 1.746530 
# 
# From -- ./inp_files/18951.got.cif
#   From: 2010.03.12/outbox.cif.g09.slc.cpg/sg73_10_cif.got.tgz:18951.got - 2010.04.16 15:25:48.
