data_PCOD8295708
_publ_section_title
;
Structure prediction by ZEFSAII (Michael W. Deem and Ramdas Pophale) SiO2 
 PCOD8295708
Probable space group: I B C A 
;
_chemical_formula_sum "Si O2"
_cell_formula_units_Z 72
_cell_length_a 30.221793
_cell_length_b 5.099860
_cell_length_c 24.977440
_cell_angle_alpha 90.000000
_cell_angle_beta 90.000000
_cell_angle_gamma 90.000000
_cell_volume 3849.695728
_symmetry_space_group_name_H-M "I B C A "
_symmetry_group_IT_number 73
_symmetry_cell_setting 'orthorhombic'
loop_
_space_group_symop_operation_xyz
x,y,z
-x,1/2-y,z
x,-y,1/2-z
1/2-x,y,-z
-x,-y,-z
x,1/2+y,-z
-x,y,1/2+z
1/2+x,-y,z
1/2+x,1/2+y,1/2+z
1/2-x,-y,1/2+z
1/2+x,1/2-y,-z
-x,1/2+y,1/2-z
1/2-x,1/2-y,1/2-z
1/2+x,y,1/2-z
1/2-x,1/2+y,z
x,1/2-y,1/2+z
loop_
_atom_site_type_symbol
_atom_site_label
_atom_site_fract_x
_atom_site_fract_y
_atom_site_fract_z
Si Si1 0.628147 0.407408 0.308636
Si Si2 0.230178 0.776041 0.809404
Si Si3 0.051916 0.228583 0.468059
Si Si4 0.085461 0.116481 0.353463
Si Si5 0.500000 0.250000 0.713902
O O1 0.612215 0.500000 0.250000
O O2 0.677990 0.306555 0.307415
O O3 0.623939 0.667221 0.344795
O O4 0.598367 0.170260 0.331315
O O5 0.250000 0.750000 0.750000
O O6 0.245126 0.513244 0.840252
O O7 0.065589 0.521908 0.485457
O O8 0.076844 0.116340 0.416455
O O9 0.000000 0.250000 0.456326
O O10 0.041958 0.210089 0.323398
O O11 0.490361 0.500000 0.750000
#
# Coordination Sequence:
#
# PCOD8295708 Si02
#       5
#    16  16  16  16   8
#     4  12  23  35  56  85 122 162 189 232 280 339
#     4  10  19  34  54  76 111 155 190 232 276 326
#     4  10  21  40  64  82 105 147 201 264 307 327
#     4  12  24  38  56  85 117 152 209 235 279 355
#     4  12  24  40  50  74 120 170 194 220 262 334
#
# _framework density 18.702776
#
# number of rings (size 3 to 8) (size 9 to 14) (size 15 to 20)
#    0.000    0.889    3.333    6.667    3.111    0.000 
#    0.000    0.000    0.000    0.000    0.000    0.000 
#    0.000   62.222    0.000    0.000    0.000    0.000 
#
# Total GULP energy -446189.074574 kJ/mol
# GULP energy per Si atom -12394.140960 kJ/mol
# Density = 1.866021 g / cm^3
# Si number density = 18.702776 Si / 1000 Ang^3
#
#
#
# Elastic Constant Matrix: (Units=GPa)
#
#
# Indices 1 2 3 4 5 6 
#
# 1 72.1587 25.0345 33.1070 0.0000 0.0000 0.0000
# 2 25.0345 158.2092 40.2364 0.0000 0.0000 0.0000
# 3 33.1070 40.2364 90.7732 0.0000 0.0000 0.0000
# 4 0.0000 0.0000 0.0000 15.6541 0.0000 0.0000
# 5 0.0000 0.0000 0.0000 0.0000 7.5256 0.0000
# 6 0.0000 0.0000 0.0000 0.0000 0.0000 33.2228
#
#
#
# Elastic Compliance Matrix: (Units=1/GPa)
#
#
# Indices 1 2 3 4 5 6 
#
# 1 0.016858 -0.001244 -0.005597 0.000000 0.000000 0.000000
# 2 -0.001244 0.007216 -0.002745 0.000000 0.000000 0.000000
# 3 -0.005597 -0.002745 0.014274 0.000000 0.000000 0.000000
# 4 0.000000 0.000000 0.000000 0.063881 0.000000 0.000000
# 5 0.000000 0.000000 0.000000 0.000000 0.132880 0.000000
# 6 0.000000 0.000000 0.000000 0.000000 0.000000 0.030100
#
#
# Mechanical properties :
#
#
# Convention : Reuss Voigt Hill
#
# Bulk Modulus (GPa) = 52.14729 57.54411 54.84570
# Shear Modulus (GPa) = 17.19559 26.13137 21.66348
#
# Velocity S-wave (km/s) = 3.03547 3.74196 3.40708
# Velocity P-wave (km/s) = 6.34256 7.03592 6.69822
#
# Compressibility (1/GPa) = 0.01917645
#
# Stress axis : x y z
#
# Youngs Moduli (GPa) = 59.31930 138.58770 70.05528
#
# Poissons Ratio (x) = 0.17242 0.39210
# Poissons Ratio (y) = 0.07380 0.19228
# Poissons Ratio (z) = 0.33201 0.38038
#
# Static dielectric constant tensor:
#      x y z
#    x 3.362370 0.000000 0.000000 
#    y 0.000000 4.676960 0.000000 
#    z 0.000000 0.000000 3.157340 
# 
# 
# High freq. dielectric constant tensor:
#      x y z
#    x 1.717480 0.000000 0.000000 
#    y 0.000000 1.764610 0.000000 
#    z 0.000000 0.000000 1.682680 
# 
# From -- ./inp_files/1693.got.cif
#   From: 2010.03.12/outbox.cif.g09.slc.cpg/sg73_1_cif.got.tgz:1693.got - 2010.04.16 15:25:48.
