data_PCOD8295227
_publ_section_title
;
Structure prediction by ZEFSAII (Michael W. Deem and Ramdas Pophale) SiO2 
 PCOD8295227
Probable space group: I B A M
;
_chemical_formula_sum "Si O2"
_cell_formula_units_Z 72
_cell_length_a 11.416334
_cell_length_b 14.724363
_cell_length_c 18.160554
_cell_angle_alpha 90.000000
_cell_angle_beta 90.000000
_cell_angle_gamma 90.000000
_cell_volume 3052.757273
_symmetry_space_group_name_H-M "I B A M"
_symmetry_group_IT_number 72
_symmetry_cell_setting 'orthorhombic'
loop_
_space_group_symop_operation_xyz
x,y,z
-x,-y,z
x,-y,1/2-z
-x,y,1/2-z
-x,-y,-z
x,y,-z
-x,y,1/2+z
x,-y,1/2+z
1/2+x,1/2+y,1/2+z
1/2-x,1/2-y,1/2+z
1/2+x,1/2-y,-z
1/2-x,1/2+y,-z
1/2-x,1/2-y,1/2-z
1/2+x,1/2+y,1/2-z
1/2-x,1/2+y,z
1/2+x,1/2-y,z
loop_
_atom_site_type_symbol
_atom_site_label
_atom_site_fract_x
_atom_site_fract_y
_atom_site_fract_z
Si Si1 0.358306 0.162673 0.702777
Si Si2 0.000000 0.500000 0.341590
Si Si3 0.701083 0.870902 0.864758
Si Si4 0.953275 0.856478 0.828393
Si Si5 0.327583 0.677715 0.582549
O O1 0.441950 0.075940 0.709467
O O2 0.302927 0.174967 0.783103
O O3 0.434492 0.249221 0.681925
O O4 0.267305 0.138985 0.638831
O O5 0.106508 0.449378 0.386054
O O6 0.836838 0.905998 0.862495
O O7 0.677178 0.787903 0.919829
O O8 0.000000 0.898056 0.750000
O O9 0.049508 0.864656 0.891961
O O10 0.301377 0.643119 0.500000
#
# Coordination Sequence:
#
# PCOD8295227 Si02
#       5
#    16   8  16  16  16
#     4  11  20  37  66  93 128 161 205 264 318 378
#     4  12  23  40  67 104 127 158 211 270 327 386
#     4  11  21  37  65  94 128 164 208 263 323 380
#     4  11  18  37  65  90 121 169 214 259 309 374
#     4  11  23  39  62  93 125 166 220 263 308 378
#
# _framework density 23.585234
#
# number of rings (size 3 to 8) (size 9 to 14) (size 15 to 20)
#    0.000    0.889    6.667    3.333    0.000    3.556 
#    0.000    3.333    0.000    1.333    0.000    0.000 
#    0.000    0.000    0.000    0.000    0.000    0.000 
#
# Total GULP energy -446035.593627 kJ/mol
# GULP energy per Si atom -12389.877601 kJ/mol
# Density = 2.353155 g / cm^3
# Si number density = 23.585234 Si / 1000 Ang^3
#
#
#
# Elastic Constant Matrix: (Units=GPa)
#
#
# Indices 1 2 3 4 5 6 
#
# 1 178.6833 18.4028 49.4834 0.0000 0.0000 0.0000
# 2 18.4028 59.2344 -4.0475 0.0000 0.0000 0.0000
# 3 49.4834 -4.0475 119.6746 0.0000 0.0000 0.0000
# 4 0.0000 0.0000 0.0000 6.9619 0.0000 0.0000
# 5 0.0000 0.0000 0.0000 0.0000 24.8205 0.0000
# 6 0.0000 0.0000 0.0000 0.0000 0.0000 39.1149
#
#
#
# Elastic Compliance Matrix: (Units=1/GPa)
#
#
# Indices 1 2 3 4 5 6 
#
# 1 0.006605 -0.002244 -0.002807 0.000000 0.000000 0.000000
# 2 -0.002244 0.017683 0.001526 0.000000 0.000000 0.000000
# 3 -0.002807 0.001526 0.009568 0.000000 0.000000 0.000000
# 4 0.000000 0.000000 0.000000 0.143639 0.000000 0.000000
# 5 0.000000 0.000000 0.000000 0.000000 0.040289 0.000000
# 6 0.000000 0.000000 0.000000 0.000000 0.000000 0.025566
#
#
# Mechanical properties :
#
#
# Convention : Reuss Voigt Hill
#
# Bulk Modulus (GPa) = 37.30390 53.91885 45.61137
# Shear Modulus (GPa) = 19.28000 33.76303 26.52151
#
# Velocity S-wave (km/s) = 2.86223 3.78766 3.35699
# Velocity P-wave (km/s) = 5.17437 6.48378 5.86573
#
# Compressibility (1/GPa) = 0.02680685
#
# Stress axis : x y z
#
# Youngs Moduli (GPa) = 151.40250 56.55004 104.51279
#
# Poissons Ratio (x) = 0.12689 0.29336
# Poissons Ratio (y) = 0.33972 -0.15947
# Poissons Ratio (z) = 0.42497 -0.08629
#
# Static dielectric constant tensor:
#      x y z
#    x 4.805560 0.000000 0.000000 
#    y 0.000000 3.935810 0.000000 
#    z 0.000000 0.000000 3.686300 
# 
# 
# High freq. dielectric constant tensor:
#      x y z
#    x 1.965090 0.000000 0.000000 
#    y 0.000000 1.908800 0.000000 
#    z 0.000000 0.000000 1.892120 
# 
# From -- ./inp_files/29031.got.cif
#   From: 2010.03.12/outbox.cif.g09.slc.cpg/sg72_15_cif.got.tgz:29031.got - 2010.04.16 14:54:00.
