data_PCOD8295563
_publ_section_title
;
Structure prediction by ZEFSAII (Michael W. Deem and Ramdas Pophale) SiO2 
 PCOD8295563
Probable space group: I B C A 
;
_chemical_formula_sum "Si O2"
_cell_formula_units_Z 120
_cell_length_a 18.267481
_cell_length_b 21.114779
_cell_length_c 16.683333
_cell_angle_alpha 90.000000
_cell_angle_beta 90.000000
_cell_angle_gamma 90.000000
_cell_volume 6434.992172
_symmetry_space_group_name_H-M "I B C A "
_symmetry_group_IT_number 73
_symmetry_cell_setting 'orthorhombic'
loop_
_space_group_symop_operation_xyz
x,y,z
-x,1/2-y,z
x,-y,1/2-z
1/2-x,y,-z
-x,-y,-z
x,1/2+y,-z
-x,y,1/2+z
1/2+x,-y,z
1/2+x,1/2+y,1/2+z
1/2-x,-y,1/2+z
1/2+x,1/2-y,-z
-x,1/2+y,1/2-z
1/2-x,1/2-y,1/2-z
1/2+x,y,1/2-z
1/2-x,1/2+y,z
x,1/2-y,1/2+z
loop_
_atom_site_type_symbol
_atom_site_label
_atom_site_fract_x
_atom_site_fract_y
_atom_site_fract_z
Si Si1 0.337629 0.070888 0.410065
Si Si2 0.065198 0.982222 0.397897
Si Si3 0.675893 0.415548 0.597784
Si Si4 0.000000 0.250000 0.549169
Si Si5 0.411974 0.208074 0.594239
Si Si6 0.917037 0.549344 0.572403
Si Si7 0.477503 0.366149 0.844435
Si Si8 0.060510 0.668003 0.164590
O O1 0.329050 0.070056 0.504665
O O2 0.258982 0.083190 0.368867
O O3 0.399202 0.121187 0.385690
O O4 0.365893 0.002041 0.384102
O O5 0.096696 0.946343 0.476844
O O6 0.032155 0.927237 0.340433
O O7 0.128303 0.028070 0.359036
O O8 0.002340 0.032432 0.419021
O O9 0.651406 0.342804 0.607812
O O10 0.073324 0.235701 0.495738
O O11 0.983137 0.189710 0.606068
O O12 0.486618 0.173016 0.614709
O O13 0.394621 0.266216 0.655208
O O14 0.895031 0.612386 0.620566
O O15 0.459062 0.345108 0.755505
#
# Coordination Sequence:
#
# PCOD8295563 Si02
#       8
#    16  16  16   8  16  16  16  16
#     4   9  20  31  58  79 109 140 182 235 272 331
#     4   9  17  29  57  76 101 134 187 230 261 317
#     4  10  17  36  55  82 106 143 191 224 280 328
#     4  10  18  32  56  80 106 132 186 230 268 308
#     4  10  19  33  56  82 102 148 178 232 264 340
#     4   9  16  32  51  80 102 137 181 227 270 314
#     4  11  20  34  53  86 108 141 180 237 275 323
#     4  10  20  31  53  78 115 137 181 223 288 323
#
# _framework density 18.648040999999999
#
# number of rings (size 3 to 8) (size 9 to 14) (size 15 to 20)
#    0.000    2.400    2.667    3.200    0.000    2.133 
#    0.000    0.667    8.800    1.600    0.000    0.000 
#    0.000    0.000    0.000    0.000    0.000    0.000 
#
# Total GULP energy -743317.255873 kJ/mol
# GULP energy per Si atom -12388.620931 kJ/mol
# Density = 1.860560 g / cm^3
# Si number density = 18.648041 Si / 1000 Ang^3
#
#
#
# Elastic Constant Matrix: (Units=GPa)
#
#
# Indices 1 2 3 4 5 6 
#
# 1 98.5227 50.0647 8.8184 0.0000 0.0000 0.0000
# 2 50.0647 144.8310 42.3284 0.0000 0.0000 0.0000
# 3 8.8184 42.3284 62.6374 0.0000 0.0000 0.0000
# 4 0.0000 0.0000 0.0000 22.8217 0.0000 0.0000
# 5 0.0000 0.0000 0.0000 0.0000 1.4401 0.0000
# 6 0.0000 0.0000 0.0000 0.0000 0.0000 19.1343
#
#
#
# Elastic Compliance Matrix: (Units=1/GPa)
#
#
# Indices 1 2 3 4 5 6 
#
# 1 0.012416 -0.004711 0.001436 0.000000 0.000000 0.000000
# 2 -0.004711 0.010392 -0.006359 0.000000 0.000000 0.000000
# 3 0.001436 -0.006359 0.020060 0.000000 0.000000 0.000000
# 4 0.000000 0.000000 0.000000 0.043818 0.000000 0.000000
# 5 0.000000 0.000000 0.000000 0.000000 0.694387 0.000000
# 6 0.000000 0.000000 0.000000 0.000000 0.000000 0.052262
#
#
# Mechanical properties :
#
#
# Convention : Reuss Voigt Hill
#
# Bulk Modulus (GPa) = 42.37631 56.49043 49.43337
# Shear Modulus (GPa) = 5.81078 22.33120 14.07099
#
# Velocity S-wave (km/s) = 1.76714 3.46426 2.74990
# Velocity P-wave (km/s) = 5.19012 6.80883 6.05382
#
# Compressibility (1/GPa) = 0.02359809
#
# Stress axis : x y z
#
# Youngs Moduli (GPa) = 80.54413 96.23022 49.85032
#
# Poissons Ratio (x) = 0.45338 -0.07158
# Poissons Ratio (y) = 0.37948 0.31700
# Poissons Ratio (z) = -0.11565 0.61194
#
# Static dielectric constant tensor:
#      x y z
#    x 3.472730 0.000000 0.000000 
#    y 0.000000 3.983000 0.000000 
#    z 0.000000 0.000000 3.241710 
# 
# 
# High freq. dielectric constant tensor:
#      x y z
#    x 1.683210 0.000000 0.000000 
#    y 0.000000 1.740870 0.000000 
#    z 0.000000 0.000000 1.698920 
# 
# From -- ./inp_files/22807.got.cif
#   From: 2010.03.12/outbox.cif.g09.slc.cpg/sg73_12_cif.got.tgz:22807.got - 2010.04.16 15:25:48.
