data_PCOD8295967
_publ_section_title
;
Structure prediction by ZEFSAII (Michael W. Deem and Ramdas Pophale) SiO2 
 PCOD8295967
Probable space group: I B C A 
;
_chemical_formula_sum "Si O2"
_cell_formula_units_Z 72
_cell_length_a 20.296165
_cell_length_b 12.444294
_cell_length_c 13.528958
_cell_angle_alpha 90.000000
_cell_angle_beta 90.000000
_cell_angle_gamma 90.000000
_cell_volume 3417.028462
_symmetry_space_group_name_H-M "I B C A "
_symmetry_group_IT_number 73
_symmetry_cell_setting 'orthorhombic'
loop_
_space_group_symop_operation_xyz
x,y,z
-x,1/2-y,z
x,-y,1/2-z
1/2-x,y,-z
-x,-y,-z
x,1/2+y,-z
-x,y,1/2+z
1/2+x,-y,z
1/2+x,1/2+y,1/2+z
1/2-x,-y,1/2+z
1/2+x,1/2-y,-z
-x,1/2+y,1/2-z
1/2-x,1/2-y,1/2-z
1/2+x,y,1/2-z
1/2-x,1/2+y,z
x,1/2-y,1/2+z
loop_
_atom_site_type_symbol
_atom_site_label
_atom_site_fract_x
_atom_site_fract_y
_atom_site_fract_z
Si Si1 0.942369 0.671585 0.764825
Si Si2 0.185015 0.713032 0.695952
Si Si3 0.190814 0.602813 0.070075
Si Si4 0.944988 0.983538 0.084190
Si Si5 0.239616 0.000000 0.250000
O O1 0.878096 0.745792 0.755997
O O2 0.932566 0.592829 0.856996
O O3 0.962167 0.610177 0.663149
O O4 0.000000 0.750000 0.795468
O O5 0.250000 0.750000 0.750000
O O6 0.182858 0.767644 0.586209
O O7 0.190022 0.583285 0.694101
O O8 0.123320 0.550398 0.029982
O O9 0.208579 0.555327 0.176901
O O10 0.250000 0.572802 0.000000
O O11 0.000000 0.000000 0.000000
#
# Coordination Sequence:
#
# PCOD8295967 Si02
#       5
#    16  16  16  16   8
#     4  10  22  40  61  85 120 160 198 244 296 349
#     4   9  19  37  60  85 115 152 194 240 291 345
#     4  10  21  38  61  90 121 156 196 244 296 349
#     4  10  22  41  61  86 120 158 199 244 295 353
#     4  10  20  38  64  90 118 156 198 242 294 354
#
# _framework density 21.07094
#
# number of rings (size 3 to 8) (size 9 to 14) (size 15 to 20)
#    0.000    2.222    0.000    4.000    0.000    8.889 
#    0.000    8.889    0.000    0.000    0.000    0.000 
#    0.000    0.000    0.000    0.000    0.000    0.000 
#
# Total GULP energy -446101.329775 kJ/mol
# GULP energy per Si atom -12391.703605 kJ/mol
# Density = 2.102298 g / cm^3
# Si number density = 21.070940 Si / 1000 Ang^3
#
#
#
# Elastic Constant Matrix: (Units=GPa)
#
#
# Indices 1 2 3 4 5 6 
#
# 1 162.7252 50.0046 39.9522 0.0000 0.0000 0.0000
# 2 50.0046 109.0528 9.1113 0.0000 0.0000 0.0000
# 3 39.9522 9.1113 64.0122 0.0000 0.0000 0.0000
# 4 0.0000 0.0000 0.0000 11.9019 0.0000 0.0000
# 5 0.0000 0.0000 0.0000 0.0000 39.2998 0.0000
# 6 0.0000 0.0000 0.0000 0.0000 0.0000 34.5099
#
#
#
# Elastic Compliance Matrix: (Units=1/GPa)
#
#
# Indices 1 2 3 4 5 6 
#
# 1 0.008364 -0.003440 -0.004731 0.000000 0.000000 0.000000
# 2 -0.003440 0.010695 0.000625 0.000000 0.000000 0.000000
# 3 -0.004731 0.000625 0.018486 0.000000 0.000000 0.000000
# 4 0.000000 0.000000 0.000000 0.084020 0.000000 0.000000
# 5 0.000000 0.000000 0.000000 0.000000 0.025445 0.000000
# 6 0.000000 0.000000 0.000000 0.000000 0.000000 0.028977
#
#
# Mechanical properties :
#
#
# Convention : Reuss Voigt Hill
#
# Bulk Modulus (GPa) = 44.53769 59.32517 51.93143
# Shear Modulus (GPa) = 25.18092 32.92379 29.05235
#
# Velocity S-wave (km/s) = 3.46071 3.95716 3.71723
# Velocity P-wave (km/s) = 6.09521 7.00678 6.56683
#
# Compressibility (1/GPa) = 0.02245289
#
# Stress axis : x y z
#
# Youngs Moduli (GPa) = 119.56256 93.50180 54.09616
#
# Poissons Ratio (x) = 0.32163 0.25590
# Poissons Ratio (y) = 0.41128 -0.03379
# Poissons Ratio (z) = 0.56559 -0.05841
#
# Static dielectric constant tensor:
#      x y z
#    x 3.827140 0.000000 0.000000 
#    y 0.000000 4.676800 0.000000 
#    z 0.000000 0.000000 4.440960 
# 
# 
# High freq. dielectric constant tensor:
#      x y z
#    x 1.835440 0.000000 0.000000 
#    y 0.000000 1.839440 0.000000 
#    z 0.000000 0.000000 1.797040 
# 
# From -- ./inp_files/10606.got.cif
#   From: 2010.03.12/outbox.cif.g09.slc.cpg/sg73_6_cif.got.tgz:10606.got - 2010.04.16 15:25:48.
