data_PCOD8295491
_publ_section_title
;
Structure prediction by ZEFSAII (Michael W. Deem and Ramdas Pophale) SiO2 
 PCOD8295491
Probable space group: I B A M
;
_chemical_formula_sum "Si O2"
_cell_formula_units_Z 96
_cell_length_a 14.992957
_cell_length_b 14.168358
_cell_length_c 19.398045
_cell_angle_alpha 90.000000
_cell_angle_beta 90.000000
_cell_angle_gamma 90.000000
_cell_volume 4120.641004
_symmetry_space_group_name_H-M "I B A M"
_symmetry_group_IT_number 72
_symmetry_cell_setting 'orthorhombic'
loop_
_space_group_symop_operation_xyz
x,y,z
-x,-y,z
x,-y,1/2-z
-x,y,1/2-z
-x,-y,-z
x,y,-z
-x,y,1/2+z
x,-y,1/2+z
1/2+x,1/2+y,1/2+z
1/2-x,1/2-y,1/2+z
1/2+x,1/2-y,-z
1/2-x,1/2+y,-z
1/2-x,1/2-y,1/2-z
1/2+x,1/2+y,1/2-z
1/2-x,1/2+y,z
1/2+x,1/2-y,z
loop_
_atom_site_type_symbol
_atom_site_label
_atom_site_fract_x
_atom_site_fract_y
_atom_site_fract_z
Si Si1 0.826747 0.671567 0.245472
Si Si2 0.266945 0.788648 0.000000
Si Si3 0.086186 0.262992 0.886481
Si Si4 0.663901 0.480642 0.500000
Si Si5 0.782751 0.000000 0.750000
Si Si6 0.057893 0.407934 0.372304
Si Si7 0.083981 0.950489 0.365727
Si Si8 0.172190 0.396695 0.500000
O O1 0.750000 0.750000 0.250000
O O2 0.899592 0.708154 0.192623
O O3 0.779344 0.578601 0.214839
O O4 0.881252 0.642186 0.314066
O O5 0.326194 0.777975 0.068259
O O6 0.226363 0.891097 0.000000
O O7 0.182771 0.716965 0.000000
O O8 0.058592 0.154076 0.890306
O O9 0.004711 0.329586 0.909363
O O10 0.604410 0.483843 0.568479
O O11 0.725056 0.573131 0.500000
O O12 0.837156 0.948153 0.810173
O O13 0.124292 0.439800 0.432844
O O14 0.000000 0.500000 0.346745
O O15 0.000000 0.000000 0.328865
#
# Coordination Sequence:
#
# PCOD8295491 Si02
#       8
#    16   8  16   8   8  16  16   8
#     4  12  25  45  72 104 141 188 242 300 359 433
#     4  12  25  46  76 105 140 190 236 298 368 433
#     4  12  25  47  71 105 145 184 237 294 364 432
#     4  12  25  48  72  99 141 181 236 293 354 430
#     4  12  25  46  71 100 138 182 238 288 363 424
#     4  12  27  46  74 107 147 191 242 301 368 436
#     4  12  27  44  69 101 140 186 233 290 353 428
#     4  12  24  46  74 107 141 184 245 298 361 430
#
# _framework density 23.297348
#
# number of rings (size 3 to 8) (size 9 to 14) (size 15 to 20)
#    0.000    0.000    3.333    6.750    4.667    2.000 
#    0.000    0.000    0.000    0.000    0.000    0.000 
#    0.000    0.000    0.000    0.000    0.000    0.000 
#
# Total GULP energy -595294.027938 kJ/mol
# GULP energy per Si atom -12401.958915 kJ/mol
# Density = 2.324432 g / cm^3
# Si number density = 23.297348 Si / 1000 Ang^3
#
#
#
# Elastic Constant Matrix: (Units=GPa)
#
#
# Indices 1 2 3 4 5 6 
#
# 1 96.7254 42.0169 24.0279 0.0000 0.0000 0.0000
# 2 42.0169 146.5297 12.5647 0.0000 0.0000 0.0000
# 3 24.0279 12.5647 109.3764 0.0000 0.0000 0.0000
# 4 0.0000 0.0000 0.0000 24.0673 0.0000 0.0000
# 5 0.0000 0.0000 0.0000 0.0000 46.5225 0.0000
# 6 0.0000 0.0000 0.0000 0.0000 0.0000 54.7610
#
#
#
# Elastic Compliance Matrix: (Units=1/GPa)
#
#
# Indices 1 2 3 4 5 6 
#
# 1 0.012372 -0.003348 -0.002333 0.000000 0.000000 0.000000
# 2 -0.003348 0.007798 -0.000160 0.000000 0.000000 0.000000
# 3 -0.002333 -0.000160 0.009674 0.000000 0.000000 0.000000
# 4 0.000000 0.000000 0.000000 0.041550 0.000000 0.000000
# 5 0.000000 0.000000 0.000000 0.000000 0.021495 0.000000
# 6 0.000000 0.000000 0.000000 0.000000 0.000000 0.018261
#
#
# Mechanical properties :
#
#
# Convention : Reuss Voigt Hill
#
# Bulk Modulus (GPa) = 55.06168 56.65004 55.85586
# Shear Modulus (GPa) = 38.79352 43.33830 41.06591
#
# Velocity S-wave (km/s) = 4.08505 4.31771 4.20299
# Velocity P-wave (km/s) = 6.77759 7.01610 6.89788
#
# Compressibility (1/GPa) = 0.01816145
#
# Stress axis : x y z
#
# Youngs Moduli (GPa) = 80.82504 128.23404 103.37226
#
# Poissons Ratio (x) = 0.42928 0.24121
# Poissons Ratio (y) = 0.27057 0.01658
# Poissons Ratio (z) = 0.18860 0.02057
#
# Static dielectric constant tensor:
#      x y z
#    x 4.549790 0.000000 0.000000 
#    y 0.000000 4.343100 0.000000 
#    z 0.000000 0.000000 3.975060 
# 
# 
# High freq. dielectric constant tensor:
#      x y z
#    x 1.934640 0.000000 0.000000 
#    y 0.000000 1.936550 0.000000 
#    z 0.000000 0.000000 1.919890 
# 
# From -- ./inp_files/38091.got.cif
#   From: 2010.03.12/outbox.cif.g09.slc.cpg/sg72_20_cif.got.tgz:38091.got - 2010.04.16 14:54:00.
