data_PCOD8295385
_publ_section_title
;
Structure prediction by ZEFSAII (Michael W. Deem and Ramdas Pophale) SiO2 
 PCOD8295385
Probable space group: I B A M
;
_chemical_formula_sum "Si O2"
_cell_formula_units_Z 88
_cell_length_a 11.958861
_cell_length_b 14.623493
_cell_length_c 24.217713
_cell_angle_alpha 90.000000
_cell_angle_beta 90.000000
_cell_angle_gamma 90.000000
_cell_volume 4235.201402
_symmetry_space_group_name_H-M "I B A M"
_symmetry_group_IT_number 72
_symmetry_cell_setting 'orthorhombic'
loop_
_space_group_symop_operation_xyz
x,y,z
-x,-y,z
x,-y,1/2-z
-x,y,1/2-z
-x,-y,-z
x,y,-z
-x,y,1/2+z
x,-y,1/2+z
1/2+x,1/2+y,1/2+z
1/2-x,1/2-y,1/2+z
1/2+x,1/2-y,-z
1/2-x,1/2+y,-z
1/2-x,1/2-y,1/2-z
1/2+x,1/2+y,1/2-z
1/2-x,1/2+y,z
1/2+x,1/2-y,z
loop_
_atom_site_type_symbol
_atom_site_label
_atom_site_fract_x
_atom_site_fract_y
_atom_site_fract_z
Si Si1 0.733090 0.000000 0.750000
Si Si2 0.349172 0.313400 0.264470
Si Si3 0.472947 0.244784 0.164475
Si Si4 0.185714 0.030721 0.936678
Si Si5 0.962840 0.859752 0.562881
Si Si6 0.388256 0.045219 0.853199
O O1 0.810259 0.917690 0.772559
O O2 0.653882 0.019982 0.802954
O O3 0.250000 0.250000 0.250000
O O4 0.425516 0.314800 0.210043
O O5 0.397060 0.262852 0.320036
O O6 0.444720 0.273078 0.102043
O O7 0.423151 0.143618 0.172119
O O8 0.292980 0.053312 0.899551
O O9 0.082284 0.096400 0.922287
O O10 0.140483 0.928277 0.926995
O O11 0.222616 0.043906 0.000000
O O12 0.962098 0.825060 0.500000
O O13 0.500000 0.000000 0.879255
#
# Coordination Sequence:
#
# PCOD8295385 Si02
#       6
#     8  16  16  16  16  16
#     4  12  23  41  68  84 128 177 220 259 328 372
#     4  11  23  41  61  92 129 169 216 270 311 396
#     4  11  24  38  62  94 131 161 212 269 326 379
#     4   9  20  42  67  92 124 165 214 267 317 386
#     4   9  19  40  69  95 121 160 217 272 321 371
#     4  12  25  39  62  91 130 176 208 258 330 400
#
# _framework density 20.778231999999999
#
# number of rings (size 3 to 8) (size 9 to 14) (size 15 to 20)
#    0.000    1.455    1.818    4.636    2.545    4.000 
#    0.000    0.000    0.000    0.000    0.000    0.000 
#    0.000    0.000    0.000    0.000    0.000    0.000 
#
# Total GULP energy -545200.024077 kJ/mol
# GULP energy per Si atom -12390.909638 kJ/mol
# Density = 2.073094 g / cm^3
# Si number density = 20.778232 Si / 1000 Ang^3
#
#
#
# Elastic Constant Matrix: (Units=GPa)
#
#
# Indices 1 2 3 4 5 6 
#
# 1 103.7385 35.8110 41.3847 0.0000 0.0000 0.0000
# 2 35.8110 80.8717 31.7054 0.0000 0.0000 0.0000
# 3 41.3847 31.7054 113.0399 0.0000 0.0000 0.0000
# 4 0.0000 0.0000 0.0000 31.9396 0.0000 0.0000
# 5 0.0000 0.0000 0.0000 0.0000 40.3011 0.0000
# 6 0.0000 0.0000 0.0000 0.0000 0.0000 32.6017
#
#
#
# Elastic Compliance Matrix: (Units=1/GPa)
#
#
# Indices 1 2 3 4 5 6 
#
# 1 0.012430 -0.004180 -0.003378 0.000000 0.000000 0.000000
# 2 -0.004180 0.015298 -0.002761 0.000000 0.000000 0.000000
# 3 -0.003378 -0.002761 0.010858 0.000000 0.000000 0.000000
# 4 0.000000 0.000000 0.000000 0.031309 0.000000 0.000000
# 5 0.000000 0.000000 0.000000 0.000000 0.024813 0.000000
# 6 0.000000 0.000000 0.000000 0.000000 0.000000 0.030673
#
#
# Mechanical properties :
#
#
# Convention : Reuss Voigt Hill
#
# Bulk Modulus (GPa) = 55.71486 57.27248 56.49367
# Shear Modulus (GPa) = 32.89419 33.55175 33.22297
#
# Velocity S-wave (km/s) = 3.98315 4.02276 4.00300
# Velocity P-wave (km/s) = 6.93009 7.01430 6.97232
#
# Compressibility (1/GPa) = 0.01794853
#
# Stress axis : x y z
#
# Youngs Moduli (GPa) = 80.44868 65.36621 92.10109
#
# Poissons Ratio (x) = 0.27322 0.31116
# Poissons Ratio (y) = 0.33626 0.25426
# Poissons Ratio (z) = 0.27179 0.18045
#
# Static dielectric constant tensor:
#      x y z
#    x 3.696690 0.000000 0.000000 
#    y 0.000000 3.159520 0.000000 
#    z 0.000000 0.000000 3.768170 
# 
# 
# High freq. dielectric constant tensor:
#      x y z
#    x 1.825020 0.000000 0.000000 
#    y 0.000000 1.795060 0.000000 
#    z 0.000000 0.000000 1.813930 
# 
# From -- ./inp_files/48014.got.cif
#   From: 2010.03.12/outbox.cif.g09.slc.cpg/sg72_25_cif.got.tgz:48014.got - 2010.04.16 14:54:00.
