data_PCOD8295106
_publ_section_title
;
Structure prediction by ZEFSAII (Michael W. Deem and Ramdas Pophale) SiO2 
 PCOD8295106
Probable space group: I B A M
;
_chemical_formula_sum "Si O2"
_cell_formula_units_Z 88
_cell_length_a 13.385522
_cell_length_b 25.227648
_cell_length_c 12.786415
_cell_angle_alpha 90.000000
_cell_angle_beta 90.000000
_cell_angle_gamma 90.000000
_cell_volume 4317.783584
_symmetry_space_group_name_H-M "I B A M"
_symmetry_group_IT_number 72
_symmetry_cell_setting 'orthorhombic'
loop_
_space_group_symop_operation_xyz
x,y,z
-x,-y,z
x,-y,1/2-z
-x,y,1/2-z
-x,-y,-z
x,y,-z
-x,y,1/2+z
x,-y,1/2+z
1/2+x,1/2+y,1/2+z
1/2-x,1/2-y,1/2+z
1/2+x,1/2-y,-z
1/2-x,1/2+y,-z
1/2-x,1/2-y,1/2-z
1/2+x,1/2+y,1/2-z
1/2-x,1/2+y,z
1/2+x,1/2-y,z
loop_
_atom_site_type_symbol
_atom_site_label
_atom_site_fract_x
_atom_site_fract_y
_atom_site_fract_z
Si Si1 0.000000 0.770374 0.250000
Si Si2 0.214192 0.050093 0.698319
Si Si3 0.456801 0.914993 0.500000
Si Si4 0.127316 0.687934 0.622296
Si Si5 0.155457 0.473608 0.000000
Si Si6 0.147747 0.840888 0.120132
Si Si7 0.098356 0.405319 0.717921
O O1 0.075568 0.738526 0.324972
O O2 0.063271 0.806241 0.172425
O O3 0.270899 0.032601 0.595712
O O4 0.147166 0.101738 0.678054
O O5 0.299511 0.062614 0.784455
O O6 0.153710 0.000000 0.750000
O O7 0.576390 0.924931 0.500000
O O8 0.420047 0.881962 0.398839
O O9 0.401482 0.971413 0.500000
O O10 0.092846 0.681847 0.500000
O O11 0.247603 0.690744 0.628511
O O12 0.095121 0.638975 0.692927
O O13 0.119672 0.850994 0.000000
O O14 0.000000 0.441031 0.750000
#
# Coordination Sequence:
#
# PCOD8295106 Si02
#       7
#     8  16   8  16   8  16  16
#     4  12  22  42  71  96 121 158 220 270 314 380
#     4  11  21  37  59  84 123 170 212 249 312 374
#     4  11  22  30  48  87 128 169 222 253 300 374
#     4  10  23  41  63  93 128 165 208 258 323 383
#     4  11  20  32  52  79 125 176 209 252 305 374
#     4  10  23  42  68  94 126 166 205 257 329 384
#     4  11  21  31  51  85 122 169 207 250 304 374
#
# _framework density 20.380828000000001
#
# number of rings (size 3 to 8) (size 9 to 14) (size 15 to 20)
#    0.000    1.273    5.455    1.091    2.545    0.364 
#    1.636    0.455   20.000    1.091    0.000    0.000 
#    0.000    0.000    0.000    0.000    0.000    0.000 
#
# Total GULP energy -545106.201747 kJ/mol
# GULP energy per Si atom -12388.777312 kJ/mol
# Density = 2.033444 g / cm^3
# Si number density = 20.380828 Si / 1000 Ang^3
#
#
#
# Elastic Constant Matrix: (Units=GPa)
#
#
# Indices 1 2 3 4 5 6 
#
# 1 54.9886 38.9257 34.9945 -0.0001 0.0000 0.0001
# 2 38.9257 114.2704 45.3510 -0.0002 0.0001 0.0003
# 3 34.9945 45.3510 139.5136 -0.0002 -0.0001 0.0003
# 4 -0.0001 -0.0002 -0.0002 18.2592 0.0000 0.0001
# 5 0.0000 0.0001 -0.0001 0.0000 28.2265 -0.0001
# 6 0.0001 0.0003 0.0003 0.0001 -0.0001 -5.6863
#
#
#
# Elastic Compliance Matrix: (Units=1/GPa)
#
#
# Indices 1 2 3 4 5 6 
#
# 1 0.025917 -0.007174 -0.004169 0.000000 0.000000 0.000000
# 2 -0.007174 0.012033 -0.002112 0.000000 0.000000 0.000000
# 3 -0.004169 -0.002112 0.008900 0.000000 0.000000 0.000000
# 4 0.000000 0.000000 0.000000 0.054767 0.000000 0.000001
# 5 0.000000 0.000000 0.000000 0.000000 0.035428 0.000000
# 6 0.000000 0.000000 0.000000 0.000001 0.000000 -0.175860
#
#
# Mechanical properties :
#
#
# Convention : Reuss Voigt Hill
#
# Bulk Modulus (GPa) = 50.14952 60.81279 55.48115
# Shear Modulus (GPa) = -950.75061 20.79331 -464.97865
#
# Velocity S-wave (km/s) = -21.62187 3.19758 -15.12086
# Velocity P-wave (km/s) = 24.46795 6.59816 16.66051
#
# Compressibility (1/GPa) = 0.01994037
#
# Stress axis : x y z
#
# Youngs Moduli (GPa) = 38.58472 83.10332 112.35953
#
# Poissons Ratio (x) = 0.59619 0.46840
# Poissons Ratio (y) = 0.27681 0.23732
# Poissons Ratio (z) = 0.16085 0.17552
#
# Static dielectric constant tensor:
#      x y z
#    x 3.566000 0.000000 0.000000 
#    y 0.000000 3.683060 0.000000 
#    z 0.000000 0.000000 4.018290 
# 
# 
# High freq. dielectric constant tensor:
#      x y z
#    x 1.765930 0.000000 0.000000 
#    y 0.000000 1.781050 0.000000 
#    z 0.000000 0.000000 1.822610 
# 
# From -- ./inp_files/12880.got.cif
#   From: 2010.03.12/outbox.cif.g09.slc.cpg/sg72_7_cif.got.tgz:12880.got - 2010.04.16 14:54:00.
