data_PCOD8295067
_publ_section_title
;
Structure prediction by ZEFSAII (Michael W. Deem and Ramdas Pophale) SiO2 
 PCOD8295067
Probable space group: I B A M
;
_chemical_formula_sum "Si O2"
_cell_formula_units_Z 112
_cell_length_a 13.744634
_cell_length_b 17.270281
_cell_length_c 22.951270
_cell_angle_alpha 90.000000
_cell_angle_beta 90.000000
_cell_angle_gamma 90.000000
_cell_volume 5448.027683
_symmetry_space_group_name_H-M "I B A M"
_symmetry_group_IT_number 72
_symmetry_cell_setting 'orthorhombic'
loop_
_space_group_symop_operation_xyz
x,y,z
-x,-y,z
x,-y,1/2-z
-x,y,1/2-z
-x,-y,-z
x,y,-z
-x,y,1/2+z
x,-y,1/2+z
1/2+x,1/2+y,1/2+z
1/2-x,1/2-y,1/2+z
1/2+x,1/2-y,-z
1/2-x,1/2+y,-z
1/2-x,1/2-y,1/2-z
1/2+x,1/2+y,1/2-z
1/2-x,1/2+y,z
1/2+x,1/2-y,z
loop_
_atom_site_type_symbol
_atom_site_label
_atom_site_fract_x
_atom_site_fract_y
_atom_site_fract_z
Si Si1 0.748105 0.916079 0.243033
Si Si2 0.323326 0.305851 0.642307
Si Si3 0.918940 0.434175 0.158430
Si Si4 0.319374 0.671923 0.348344
Si Si5 0.589109 0.552847 0.934661
Si Si6 0.013740 0.726093 0.184613
Si Si7 0.746650 0.068989 0.564734
O O1 0.798533 0.855878 0.199667
O O2 0.638638 0.932219 0.220186
O O3 0.749830 0.881140 0.308025
O O4 0.801822 0.000000 0.250000
O O5 0.249725 0.237207 0.624633
O O6 0.428730 0.271107 0.651840
O O7 0.317556 0.362723 0.587313
O O8 0.965896 0.350297 0.146353
O O9 0.844373 0.449119 0.105919
O O10 0.000000 0.500000 0.159446
O O11 0.385524 0.626898 0.395263
O O12 0.395715 0.716588 0.308108
O O13 0.500000 0.500000 0.909167
O O14 0.689376 0.507302 0.936772
O O15 0.559731 0.580374 0.000000
O O16 0.000000 0.696721 0.250000
O O17 0.709035 0.089735 0.500000
#
# Coordination Sequence:
#
# PCOD8295067 Si02
#       7
#    16  16  16  16  16  16  16
#     4  11  23  40  61  92 131 175 214 262 319 396
#     4  11  23  40  62  96 131 168 217 268 331 385
#     4  11  26  41  64  98 130 182 224 264 326 399
#     4  12  22  41  65  95 135 167 215 274 328 387
#     4  10  23  44  71  97 127 172 226 277 330 395
#     4  12  24  40  64  96 136 173 208 269 333 392
#     4  10  22  46  69  92 132 174 219 276 330 386
#
# _framework density 20.557898000000002
#
# number of rings (size 3 to 8) (size 9 to 14) (size 15 to 20)
#    0.000    1.000    4.286    3.857    6.000    0.857 
#    0.000    1.429    0.000    0.000    0.000    0.000 
#    0.000    0.000    0.000    0.000    0.000    0.000 
#
# Total GULP energy -694097.428924 kJ/mol
# GULP energy per Si atom -12394.596945 kJ/mol
# Density = 2.051111 g / cm^3
# Si number density = 20.557898 Si / 1000 Ang^3
#
#
#
# Elastic Constant Matrix: (Units=GPa)
#
#
# Indices 1 2 3 4 5 6 
#
# 1 108.6351 31.5312 29.4857 0.0000 0.0000 0.0000
# 2 31.5312 111.6019 33.2370 0.0000 0.0000 0.0000
# 3 29.4857 33.2370 83.5266 0.0000 0.0000 0.0000
# 4 0.0000 0.0000 0.0000 19.4978 0.0000 0.0000
# 5 0.0000 0.0000 0.0000 0.0000 22.9595 0.0000
# 6 0.0000 0.0000 0.0000 0.0000 0.0000 39.1734
#
#
#
# Elastic Compliance Matrix: (Units=1/GPa)
#
#
# Indices 1 2 3 4 5 6 
#
# 1 0.010611 -0.002135 -0.002896 0.000000 0.000000 0.000000
# 2 -0.002135 0.010595 -0.003462 0.000000 0.000000 0.000000
# 3 -0.002896 -0.003462 0.014372 0.000000 0.000000 0.000000
# 4 0.000000 0.000000 0.000000 0.051288 0.000000 0.000000
# 5 0.000000 0.000000 0.000000 0.000000 0.043555 0.000000
# 6 0.000000 0.000000 0.000000 0.000000 0.000000 0.025528
#
#
# Mechanical properties :
#
#
# Convention : Reuss Voigt Hill
#
# Bulk Modulus (GPa) = 53.78982 54.69681 54.24332
# Shear Modulus (GPa) = 27.91229 30.29343 29.10286
#
# Velocity S-wave (km/s) = 3.68875 3.84287 3.76660
# Velocity P-wave (km/s) = 6.66066 6.80839 6.73493
#
# Compressibility (1/GPa) = 0.01859088
#
# Stress axis : x y z
#
# Youngs Moduli (GPa) = 94.24196 94.38576 69.57885
#
# Poissons Ratio (x) = 0.20156 0.20150
# Poissons Ratio (y) = 0.20125 0.24089
# Poissons Ratio (z) = 0.27293 0.32677
#
# Static dielectric constant tensor:
#      x y z
#    x 3.840570 0.000000 0.000000 
#    y 0.000000 3.962600 0.000000 
#    z 0.000000 0.000000 3.739390 
# 
# 
# High freq. dielectric constant tensor:
#      x y z
#    x 1.805390 0.000000 0.000000 
#    y 0.000000 1.822420 0.000000 
#    z 0.000000 0.000000 1.784810 
# 
# From -- ./inp_files/44327.got.cif
#   From: 2010.03.12/outbox.cif.g09.slc.cpg/sg72_23_cif.got.tgz:44327.got - 2010.04.16 14:54:00.
