data_PCOD8295569
_publ_section_title
;
Structure prediction by ZEFSAII (Michael W. Deem and Ramdas Pophale) SiO2 
 PCOD8295569
Probable space group: I B C A 
;
_chemical_formula_sum "Si O2"
_cell_formula_units_Z 120
_cell_length_a 20.418571
_cell_length_b 23.595535
_cell_length_c 12.464307
_cell_angle_alpha 90.000000
_cell_angle_beta 90.000000
_cell_angle_gamma 90.000000
_cell_volume 6005.142406
_symmetry_space_group_name_H-M "I B C A "
_symmetry_group_IT_number 73
_symmetry_cell_setting 'orthorhombic'
loop_
_space_group_symop_operation_xyz
x,y,z
-x,1/2-y,z
x,-y,1/2-z
1/2-x,y,-z
-x,-y,-z
x,1/2+y,-z
-x,y,1/2+z
1/2+x,-y,z
1/2+x,1/2+y,1/2+z
1/2-x,-y,1/2+z
1/2+x,1/2-y,-z
-x,1/2+y,1/2-z
1/2-x,1/2-y,1/2-z
1/2+x,y,1/2-z
1/2-x,1/2+y,z
x,1/2-y,1/2+z
loop_
_atom_site_type_symbol
_atom_site_label
_atom_site_fract_x
_atom_site_fract_y
_atom_site_fract_z
Si Si1 0.666813 0.294359 0.472442
Si Si2 0.042399 0.640865 0.405936
Si Si3 0.000000 0.250000 0.716334
Si Si4 0.692451 0.826845 0.090020
Si Si5 0.123283 0.732312 0.162103
Si Si6 0.882138 0.933324 0.242333
Si Si7 0.582703 0.127026 0.532008
Si Si8 0.279747 0.346595 0.785875
O O1 0.604910 0.335728 0.469613
O O2 0.659913 0.235409 0.405624
O O3 0.673080 0.274678 0.597751
O O4 0.728093 0.328477 0.413300
O O5 0.063029 0.592954 0.320928
O O6 0.008197 0.693815 0.351318
O O7 0.989577 0.613750 0.486918
O O8 0.064236 0.266165 0.784458
O O9 0.716429 0.839871 0.211401
O O10 0.750000 0.827859 0.000000
O O11 0.638687 0.874719 0.061143
O O12 0.087146 0.690053 0.079854
O O13 0.162362 0.695462 0.247951
O O14 0.900765 0.919951 0.120045
O O15 0.809702 0.909561 0.273239
O O16 0.879849 0.000000 0.250000
#
# Coordination Sequence:
#
# PCOD8295569 Si02
#       8
#    16  16   8  16  16  16  16  16
#     4  10  19  31  50  76 116 151 176 223 285 349
#     4  11  22  34  52  85 113 148 193 230 296 357
#     4  12  16  30  50  76 118 150 184 234 290 360
#     4  11  18  33  55  80 115 146 186 227 283 358
#     4  10  18  28  47  74 111 147 179 220 274 351
#     4  10  21  39  58  79 107 147 202 251 290 347
#     4  10  20  36  55  83 110 149 192 243 285 350
#     4  10  19  36  51  83 108 147 196 229 284 354
#
# _framework density 19.982873999999999
#
# number of rings (size 3 to 8) (size 9 to 14) (size 15 to 20)
#    0.000    1.600    8.000    2.800    0.000    0.533 
#    0.000    0.000    0.000    0.800   13.867    0.000 
#    0.000    0.000    0.000    0.000    0.000    0.000 
#
# Total GULP energy -743340.508474 kJ/mol
# GULP energy per Si atom -12389.008475 kJ/mol
# Density = 1.993739 g / cm^3
# Si number density = 19.982874 Si / 1000 Ang^3
#
#
#
# Elastic Constant Matrix: (Units=GPa)
#
#
# Indices 1 2 3 4 5 6 
#
# 1 30.4823 -9.5047 -14.8936 0.0000 0.0000 0.0000
# 2 -9.5047 88.9805 13.7085 0.0000 0.0000 0.0000
# 3 -14.8936 13.7085 56.0147 0.0000 0.0000 0.0000
# 4 0.0000 0.0000 0.0000 3.2267 0.0000 0.0000
# 5 0.0000 0.0000 0.0000 0.0000 -9.9818 0.0000
# 6 0.0000 0.0000 0.0000 0.0000 0.0000 11.9948
#
#
#
# Elastic Compliance Matrix: (Units=1/GPa)
#
#
# Indices 1 2 3 4 5 6 
#
# 1 0.038283 0.002620 0.009538 0.000000 0.000000 0.000000
# 2 0.002620 0.011858 -0.002205 0.000000 0.000000 0.000000
# 3 0.009538 -0.002205 0.020928 0.000000 0.000000 0.000000
# 4 0.000000 0.000000 0.000000 0.309916 0.000000 0.000000
# 5 0.000000 0.000000 0.000000 0.000000 -0.100182 0.000000
# 6 0.000000 0.000000 0.000000 0.000000 0.000000 0.083369
#
#
# Mechanical properties :
#
#
# Convention : Reuss Voigt Hill
#
# Bulk Modulus (GPa) = 10.99218 17.12198 14.05708
# Shear Modulus (GPa) = 13.34786 13.45910 13.40348
#
# Velocity S-wave (km/s) = 2.58731 2.59806 2.59269
# Velocity P-wave (km/s) = 3.79977 4.19367 4.00157
#
# Compressibility (1/GPa) = 0.09097375
#
# Stress axis : x y z
#
# Youngs Moduli (GPa) = 26.12126 84.33099 47.78249
#
# Poissons Ratio (x) = -0.22094 -0.45574
# Poissons Ratio (y) = -0.06844 0.10538
# Poissons Ratio (z) = -0.24914 0.18599
#
# Static dielectric constant tensor:
#      x y z
#    x 3.814420 0.000000 0.000000 
#    y 0.000000 3.256380 0.000000 
#    z 0.000000 0.000000 4.021820 
# 
# 
# High freq. dielectric constant tensor:
#      x y z
#    x 1.784630 0.000000 0.000000 
#    y 0.000000 1.717610 0.000000 
#    z 0.000000 0.000000 1.798190 
# 
# From -- ./inp_files/18948.got.cif
#   From: 2010.03.12/outbox.cif.g09.slc.cpg/sg73_10_cif.got.tgz:18948.got - 2010.04.16 15:25:48.
