data_PCOD8295481
_publ_section_title
;
Structure prediction by ZEFSAII (Michael W. Deem and Ramdas Pophale) SiO2 
 PCOD8295481
Probable space group: I B A M
;
_chemical_formula_sum "Si O2"
_cell_formula_units_Z 64
_cell_length_a 8.207071
_cell_length_b 15.038084
_cell_length_c 20.271644
_cell_angle_alpha 90.000000
_cell_angle_beta 90.000000
_cell_angle_gamma 90.000000
_cell_volume 2501.898390
_symmetry_space_group_name_H-M "I B A M"
_symmetry_group_IT_number 72
_symmetry_cell_setting 'orthorhombic'
loop_
_space_group_symop_operation_xyz
x,y,z
-x,-y,z
x,-y,1/2-z
-x,y,1/2-z
-x,-y,-z
x,y,-z
-x,y,1/2+z
x,-y,1/2+z
1/2+x,1/2+y,1/2+z
1/2-x,1/2-y,1/2+z
1/2+x,1/2-y,-z
1/2-x,1/2+y,-z
1/2-x,1/2-y,1/2-z
1/2+x,1/2+y,1/2-z
1/2-x,1/2+y,z
1/2+x,1/2-y,z
loop_
_atom_site_type_symbol
_atom_site_label
_atom_site_fract_x
_atom_site_fract_y
_atom_site_fract_z
Si Si1 0.188644 0.886383 0.000000
Si Si2 0.680519 0.473293 0.640306
Si Si3 0.373932 0.187179 0.690549
Si Si4 0.811289 0.340497 0.868353
Si Si5 0.138592 0.782677 0.500000
O O1 0.179410 0.948744 0.063234
O O2 0.047666 0.812043 0.000000
O O3 0.350497 0.825033 0.000000
O O4 0.500000 0.500000 0.663402
O O5 0.743120 0.392189 0.685180
O O6 0.798076 0.556829 0.652244
O O7 0.500000 0.173653 0.750000
O O8 0.275775 0.280462 0.689616
O O9 0.496596 0.184775 0.626902
O O10 0.726167 0.324336 0.936952
#
# Coordination Sequence:
#
# PCOD8295481 Si02
#       5
#     8  16  16  16   8
#     4  12  24  45  74 114 161 203 257 326 404 478
#     4  12  25  46  77 111 156 205 259 324 391 466
#     4  12  28  52  76 111 157 209 267 321 385 469
#     4  12  25  46  76 110 153 204 258 327 393 460
#     4  12  23  44  77 112 156 203 254 320 406 466
#
# _framework density 25.580575
#
# number of rings (size 3 to 8) (size 9 to 14) (size 15 to 20)
#    0.000    0.000    5.000    5.625    0.000    2.000 
#    0.000    3.750    0.000    0.000    0.000    0.000 
#    0.000    0.000    0.000    0.000    0.000    0.000 
#
# Total GULP energy -396943.508118 kJ/mol
# GULP energy per Si atom -12404.484629 kJ/mol
# Density = 2.552235 g / cm^3
# Si number density = 25.580575 Si / 1000 Ang^3
#
#
#
# Elastic Constant Matrix: (Units=GPa)
#
#
# Indices 1 2 3 4 5 6 
#
# 1 139.0010 67.1467 10.8697 0.0000 0.0000 0.0000
# 2 67.1467 192.2823 24.9770 0.0000 0.0000 0.0000
# 3 10.8697 24.9770 88.6194 0.0000 0.0000 0.0000
# 4 0.0000 0.0000 0.0000 67.9713 0.0000 0.0000
# 5 0.0000 0.0000 0.0000 0.0000 14.1097 0.0000
# 6 0.0000 0.0000 0.0000 0.0000 0.0000 58.2912
#
#
#
# Elastic Compliance Matrix: (Units=1/GPa)
#
#
# Indices 1 2 3 4 5 6 
#
# 1 0.008658 -0.002995 -0.000218 0.000000 0.000000 0.000000
# 2 -0.002995 0.006434 -0.001446 0.000000 0.000000 0.000000
# 3 -0.000218 -0.001446 0.011719 0.000000 0.000000 0.000000
# 4 0.000000 0.000000 0.000000 0.014712 0.000000 0.000000
# 5 0.000000 0.000000 0.000000 0.000000 0.070873 0.000000
# 6 0.000000 0.000000 0.000000 0.000000 0.000000 0.017155
#
#
# Mechanical properties :
#
#
# Convention : Reuss Voigt Hill
#
# Bulk Modulus (GPa) = 57.16625 69.54327 63.35476
# Shear Modulus (GPa) = 34.55407 49.20175 41.87791
#
# Velocity S-wave (km/s) = 3.67930 4.39042 4.05050
# Velocity P-wave (km/s) = 6.35969 7.27640 6.83344
#
# Compressibility (1/GPa) = 0.01749284
#
# Stress axis : x y z
#
# Youngs Moduli (GPa) = 115.49876 155.41256 85.33501
#
# Poissons Ratio (x) = 0.46549 0.01858
# Poissons Ratio (y) = 0.34594 0.12341
# Poissons Ratio (z) = 0.02515 0.22475
#
# Static dielectric constant tensor:
#      x y z
#    x 5.252160 0.000000 0.000000 
#    y 0.000000 4.727820 0.000000 
#    z 0.000000 0.000000 4.867730 
# 
# 
# High freq. dielectric constant tensor:
#      x y z
#    x 2.038720 0.000000 0.000000 
#    y 0.000000 2.028330 0.000000 
#    z 0.000000 0.000000 2.033970 
# 
# From -- ./inp_files/41966.got.cif
#   From: 2010.03.12/outbox.cif.g09.slc.cpg/sg72_21_cif.got.tgz:41966.got - 2010.04.16 14:54:00.
