data_PCOD8295125
_publ_section_title
;
Structure prediction by ZEFSAII (Michael W. Deem and Ramdas Pophale) SiO2 
 PCOD8295125
Probable space group: I B A M
;
_chemical_formula_sum "Si O2"
_cell_formula_units_Z 40
_cell_length_a 5.343889
_cell_length_b 12.255440
_cell_length_c 23.714264
_cell_angle_alpha 90.000000
_cell_angle_beta 90.000000
_cell_angle_gamma 90.000000
_cell_volume 1553.087725
_symmetry_space_group_name_H-M "I B A M"
_symmetry_group_IT_number 72
_symmetry_cell_setting 'orthorhombic'
loop_
_space_group_symop_operation_xyz
x,y,z
-x,-y,z
x,-y,1/2-z
-x,y,1/2-z
-x,-y,-z
x,y,-z
-x,y,1/2+z
x,-y,1/2+z
1/2+x,1/2+y,1/2+z
1/2-x,1/2-y,1/2+z
1/2+x,1/2-y,-z
1/2-x,1/2+y,-z
1/2-x,1/2-y,1/2-z
1/2+x,1/2+y,1/2-z
1/2-x,1/2+y,z
1/2+x,1/2-y,z
loop_
_atom_site_type_symbol
_atom_site_label
_atom_site_fract_x
_atom_site_fract_y
_atom_site_fract_z
Si Si1 0.721906 0.297743 0.812668
Si Si2 0.500000 0.500000 0.857010
Si Si3 0.894809 0.185929 0.064753
O O1 0.750000 0.250000 0.750000
O O2 0.478697 0.240124 0.843130
O O3 0.682685 0.428328 0.815854
O O4 0.338087 0.420391 0.896821
O O5 0.684510 0.278166 0.077341
O O6 0.866937 0.149949 0.000000
#
# Coordination Sequence:
#
# PCOD8295125 Si02
#       3
#    16   8  16
#     4  10  24  44  63  93 129 166 221 281 329 389
#     4  12  23  41  72  98 130 184 225 271 348 410
#     4  10  23  42  64  99 141 175 221 279 332 405
#
# _framework density 25.755143
#
# number of rings (size 3 to 8) (size 9 to 14) (size 15 to 20)
#    0.000    1.600    0.000    3.000    0.000    9.600 
#    0.000   14.000    0.000    0.000    0.000    0.000 
#    0.000    0.000    0.000    0.000    0.000    0.000 
#
# Total GULP energy -247895.473513 kJ/mol
# GULP energy per Si atom -12394.773676 kJ/mol
# Density = 2.569652 g / cm^3
# Si number density = 25.755143 Si / 1000 Ang^3
#
#
#
# Elastic Constant Matrix: (Units=GPa)
#
#
# Indices 1 2 3 4 5 6 
#
# 1 168.3959 58.4335 59.7019 0.0000 0.0000 0.0000
# 2 58.4335 201.1578 83.0680 0.0000 0.0000 0.0000
# 3 59.7019 83.0680 141.2547 0.0000 0.0000 0.0000
# 4 0.0000 0.0000 0.0000 66.6626 0.0000 0.0000
# 5 0.0000 0.0000 0.0000 0.0000 47.9048 0.0000
# 6 0.0000 0.0000 0.0000 0.0000 0.0000 43.1890
#
#
#
# Elastic Compliance Matrix: (Units=1/GPa)
#
#
# Indices 1 2 3 4 5 6 
#
# 1 0.007164 -0.001097 -0.002383 0.000000 0.000000 0.000000
# 2 -0.001097 0.006734 -0.003496 0.000000 0.000000 0.000000
# 3 -0.002383 -0.003496 0.010142 0.000000 0.000000 0.000000
# 4 0.000000 0.000000 0.000000 0.015001 0.000000 0.000000
# 5 0.000000 0.000000 0.000000 0.000000 0.020875 0.000000
# 6 0.000000 0.000000 0.000000 0.000000 0.000000 0.023154
#
#
# Mechanical properties :
#
#
# Convention : Reuss Voigt Hill
#
# Bulk Modulus (GPa) = 99.12688 101.46837 100.29762
# Shear Modulus (GPa) = 49.80868 52.19163 51.00015
#
# Velocity S-wave (km/s) = 4.40242 4.50650 4.45476
# Velocity P-wave (km/s) = 8.02580 8.15849 8.09242
#
# Compressibility (1/GPa) = 0.01008808
#
# Stress axis : x y z
#
# Youngs Moduli (GPa) = 139.59073 148.50780 98.59540
#
# Poissons Ratio (x) = 0.16292 0.23492
# Poissons Ratio (y) = 0.15314 0.34471
# Poissons Ratio (z) = 0.33260 0.51921
#
# Static dielectric constant tensor:
#      x y z
#    x 7.127400 0.000000 0.000000 
#    y 0.000000 4.485720 0.000000 
#    z 0.000000 0.000000 5.520530 
# 
# 
# High freq. dielectric constant tensor:
#      x y z
#    x 2.037880 0.000000 0.000000 
#    y 0.000000 2.005210 0.000000 
#    z 0.000000 0.000000 2.101300 
# 
# From -- ./inp_files/46269.got.cif
#   From: 2010.03.12/outbox.cif.g09.slc.cpg/sg72_24_cif.got.tgz:46269.got - 2010.04.16 14:54:00.
