data_PCOD8295139
_publ_section_title
;
Structure prediction by ZEFSAII (Michael W. Deem and Ramdas Pophale) SiO2 
 PCOD8295139
Probable space group: I B A M
;
_chemical_formula_sum "Si O2"
_cell_formula_units_Z 96
_cell_length_a 13.397286
_cell_length_b 21.510016
_cell_length_c 15.305427
_cell_angle_alpha 90.000000
_cell_angle_beta 90.000000
_cell_angle_gamma 90.000000
_cell_volume 4410.654224
_symmetry_space_group_name_H-M "I B A M"
_symmetry_group_IT_number 72
_symmetry_cell_setting 'orthorhombic'
loop_
_space_group_symop_operation_xyz
x,y,z
-x,-y,z
x,-y,1/2-z
-x,y,1/2-z
-x,-y,-z
x,y,-z
-x,y,1/2+z
x,-y,1/2+z
1/2+x,1/2+y,1/2+z
1/2-x,1/2-y,1/2+z
1/2+x,1/2-y,-z
1/2-x,1/2+y,-z
1/2-x,1/2-y,1/2-z
1/2+x,1/2+y,1/2-z
1/2-x,1/2+y,z
1/2+x,1/2-y,z
loop_
_atom_site_type_symbol
_atom_site_label
_atom_site_fract_x
_atom_site_fract_y
_atom_site_fract_z
Si Si1 0.330091 0.361064 0.903359
Si Si2 0.537517 0.674441 0.659165
Si Si3 0.842873 0.469898 0.097765
Si Si4 0.864728 0.295055 0.402168
Si Si5 0.168881 0.933840 0.271807
Si Si6 0.463339 0.084677 0.654963
O O1 0.443122 0.336005 0.903135
O O2 0.254346 0.303227 0.891292
O O3 0.305353 0.407092 0.824034
O O4 0.313159 0.391950 0.000000
O O5 0.500000 0.702966 0.750000
O O6 0.614134 0.723561 0.619709
O O7 0.591490 0.608653 0.675521
O O8 0.767051 0.442053 0.169206
O O9 0.872435 0.540360 0.124461
O O10 0.940863 0.426169 0.093265
O O11 0.795550 0.470118 0.000000
O O12 0.899364 0.309256 0.500000
O O13 0.926563 0.344089 0.344010
O O14 0.118253 0.000000 0.250000
O O15 0.500000 0.064464 0.750000
#
# Coordination Sequence:
#
# PCOD8295139 Si02
#       6
#    16  16  16  16  16  16
#     4  10  23  43  65  90 123 163 207 258 315 377
#     4  10  24  42  63  90 123 161 208 261 318 382
#     4  11  22  37  61  95 132 168 212 265 321 381
#     4  11  22  38  62  91 125 165 208 255 315 386
#     4  11  24  43  64  91 124 163 212 266 318 377
#     4  11  21  37  61  92 131 171 211 261 320 381
#
# _framework density 21.765478999999999
#
# number of rings (size 3 to 8) (size 9 to 14) (size 15 to 20)
#    0.000    1.333    0.000    7.000    0.000   10.333 
#    0.000    2.500    0.000    0.000    0.000    0.000 
#    0.000    0.000    0.000    0.000    0.000    0.000 
#
# Total GULP energy -595056.140264 kJ/mol
# GULP energy per Si atom -12397.002922 kJ/mol
# Density = 2.171594 g / cm^3
# Si number density = 21.765479 Si / 1000 Ang^3
#
#
#
# Elastic Constant Matrix: (Units=GPa)
#
#
# Indices 1 2 3 4 5 6 
#
# 1 125.5437 73.2903 50.9485 0.0001 0.0000 0.0000
# 2 73.2903 144.6720 44.0086 -0.0006 0.0001 0.0000
# 3 50.9485 44.0086 152.2075 -0.0011 0.0001 0.0001
# 4 0.0001 -0.0006 -0.0011 14.5673 0.0000 0.0001
# 5 0.0000 0.0001 0.0001 0.0000 33.7844 0.0000
# 6 0.0000 0.0000 0.0001 0.0001 0.0000 34.1387
#
#
#
# Elastic Compliance Matrix: (Units=1/GPa)
#
#
# Indices 1 2 3 4 5 6 
#
# 1 0.012121 -0.005379 -0.002502 0.000000 0.000000 0.000000
# 2 -0.005379 0.009966 -0.001081 0.000000 0.000000 0.000000
# 3 -0.002502 -0.001081 0.007720 0.000001 0.000000 0.000000
# 4 0.000000 0.000000 0.000001 0.068647 0.000000 0.000000
# 5 0.000000 0.000000 0.000000 0.000000 0.029599 0.000000
# 6 0.000000 0.000000 0.000000 0.000000 0.000000 0.029292
#
#
# Mechanical properties :
#
#
# Convention : Reuss Voigt Hill
#
# Bulk Modulus (GPa) = 84.15569 84.32422 84.23996
# Shear Modulus (GPa) = 27.89689 33.44314 30.67001
#
# Velocity S-wave (km/s) = 3.58397 3.92410 3.75789
# Velocity P-wave (km/s) = 7.47497 7.70440 7.59055
#
# Compressibility (1/GPa) = 0.01188274
#
# Stress axis : x y z
#
# Youngs Moduli (GPa) = 82.50061 100.33911 129.53399
#
# Poissons Ratio (x) = 0.53977 0.32408
# Poissons Ratio (y) = 0.44381 0.14002
# Poissons Ratio (z) = 0.20641 0.10846
#
# Static dielectric constant tensor:
#      x y z
#    x 3.966840 0.000000 0.000000 
#    y 0.000000 3.669360 0.000000 
#    z 0.000000 0.000000 4.099100 
# 
# 
# High freq. dielectric constant tensor:
#      x y z
#    x 1.858950 0.000000 0.000000 
#    y 0.000000 1.837980 0.000000 
#    z 0.000000 0.000000 1.869190 
# 
# From -- ./inp_files/21795.got.cif
#   From: 2010.03.12/outbox.cif.g09.slc.cpg/sg72_11_cif.got.tgz:21795.got - 2010.04.16 14:54:00.
