data_PCOD8295501
_publ_section_title
;
Structure prediction by ZEFSAII (Michael W. Deem and Ramdas Pophale) SiO2 
 PCOD8295501
Probable space group: I B A M
;
_chemical_formula_sum "Si O2"
_cell_formula_units_Z 96
_cell_length_a 9.335454
_cell_length_b 19.277155
_cell_length_c 31.377942
_cell_angle_alpha 90.000000
_cell_angle_beta 90.000000
_cell_angle_gamma 90.000000
_cell_volume 5646.805624
_symmetry_space_group_name_H-M "I B A M"
_symmetry_group_IT_number 72
_symmetry_cell_setting 'orthorhombic'
loop_
_space_group_symop_operation_xyz
x,y,z
-x,-y,z
x,-y,1/2-z
-x,y,1/2-z
-x,-y,-z
x,y,-z
-x,y,1/2+z
x,-y,1/2+z
1/2+x,1/2+y,1/2+z
1/2-x,1/2-y,1/2+z
1/2+x,1/2-y,-z
1/2-x,1/2+y,-z
1/2-x,1/2-y,1/2-z
1/2+x,1/2+y,1/2-z
1/2-x,1/2+y,z
1/2+x,1/2-y,z
loop_
_atom_site_type_symbol
_atom_site_label
_atom_site_fract_x
_atom_site_fract_y
_atom_site_fract_z
Si Si1 0.832222 0.579166 0.831642
Si Si2 0.824229 0.322967 0.500000
Si Si3 0.327743 0.175938 0.407757
Si Si4 0.338288 0.180381 0.907793
Si Si5 0.349765 0.813995 0.500000
Si Si6 0.662056 0.417535 0.249691
Si Si7 0.833282 0.418793 0.832228
O O1 0.777848 0.620784 0.872783
O O2 0.744994 0.609088 0.791450
O O3 0.797306 0.498984 0.840823
O O4 0.999412 0.590583 0.822084
O O5 0.799145 0.361218 0.545642
O O6 0.719704 0.259741 0.500000
O O7 0.984386 0.295022 0.500000
O O8 0.493870 0.194492 0.401680
O O9 0.241533 0.246955 0.401605
O O10 0.308080 0.147794 0.955463
O O11 0.283884 0.124384 0.873585
O O12 0.664364 0.500000 0.250000
O O13 0.500000 0.388665 0.250000
O O14 0.743666 0.389831 0.207850
#
# Coordination Sequence:
#
# PCOD8295501 Si02
#       7
#    16   8  16  16   8  16  16
#     4   9  17  30  47  66  89 117 147 179 218 263
#     4   8  14  26  43  63  87 115 147 178 210 254
#     4   9  17  29  46  67  90 117 148 181 217 257
#     4   9  17  29  46  67  90 117 148 181 217 257
#     4   8  14  26  43  63  87 115 147 178 210 254
#     4   9  17  29  46  67  88 113 147 183 218 259
#     4   9  17  30  47  66  89 117 147 179 218 263
#
# _framework density 17.000761000000001
#
# number of rings (size 3 to 8) (size 9 to 14) (size 15 to 20)
#    0.000    3.167    0.000    0.500    0.000    3.333 
#    0.000    1.667    0.000    5.000    0.000    0.000 
#    0.000   18.667    0.000    0.000    0.000    0.000 
#
# Total GULP energy -594659.417732 kJ/mol
# GULP energy per Si atom -12388.737869 kJ/mol
# Density = 1.696207 g / cm^3
# Si number density = 17.000761 Si / 1000 Ang^3
#
#
#
# Elastic Constant Matrix: (Units=GPa)
#
#
# Indices 1 2 3 4 5 6 
#
# 1 55.0261 27.2759 62.3590 0.0000 0.0000 0.0000
# 2 27.2759 52.5906 64.3807 0.0000 0.0000 0.0000
# 3 62.3590 64.3807 195.9364 0.0000 0.0000 0.0000
# 4 0.0000 0.0000 0.0000 30.2073 0.0000 0.0000
# 5 0.0000 0.0000 0.0000 0.0000 21.7977 0.0000
# 6 0.0000 0.0000 0.0000 0.0000 0.0000 17.7147
#
#
#
# Elastic Compliance Matrix: (Units=1/GPa)
#
#
# Indices 1 2 3 4 5 6 
#
# 1 0.029661 -0.006403 -0.007336 0.000000 0.000000 0.000000
# 2 -0.006403 0.033192 -0.008869 0.000000 0.000000 0.000000
# 3 -0.007336 -0.008869 0.010353 0.000000 0.000000 0.000000
# 4 0.000000 0.000000 0.000000 0.033105 0.000000 0.000000
# 5 0.000000 0.000000 0.000000 0.000000 0.045876 0.000000
# 6 0.000000 0.000000 0.000000 0.000000 0.000000 0.056450
#
#
# Mechanical properties :
#
#
# Convention : Reuss Voigt Hill
#
# Bulk Modulus (GPa) = 35.72599 67.95382 51.83991
# Shear Modulus (GPa) = 18.99829 23.91310 21.45569
#
# Velocity S-wave (km/s) = 3.34652 3.75452 3.55638
# Velocity P-wave (km/s) = 5.99936 7.67157 6.88641
#
# Compressibility (1/GPa) = 0.02799082
#
# Stress axis : x y z
#
# Youngs Moduli (GPa) = 33.71479 30.12749 96.59490
#
# Poissons Ratio (x) = 0.19290 0.70862
# Poissons Ratio (y) = 0.21586 0.85666
# Poissons Ratio (z) = 0.24733 0.26719
#
# Static dielectric constant tensor:
#      x y z
#    x 3.250430 0.000000 0.000000 
#    y 0.000000 3.379690 0.000000 
#    z 0.000000 0.000000 3.837630 
# 
# 
# High freq. dielectric constant tensor:
#      x y z
#    x 1.655450 0.000000 0.000000 
#    y 0.000000 1.603930 0.000000 
#    z 0.000000 0.000000 1.681190 
# 
# From -- ./inp_files/47519.got.cif
#   From: 2010.03.12/outbox.cif.g09.slc.cpg/sg72_24_cif.got.tgz:47519.got - 2010.04.16 14:54:00.
