data_PCOD8295802
_publ_section_title
;
Structure prediction by ZEFSAII (Michael W. Deem and Ramdas Pophale) SiO2 
 PCOD8295802
Probable space group: I B C A 
;
_chemical_formula_sum "Si O2"
_cell_formula_units_Z 104
_cell_length_a 11.598607
_cell_length_b 17.446314
_cell_length_c 24.327338
_cell_angle_alpha 90.000000
_cell_angle_beta 90.000000
_cell_angle_gamma 90.000000
_cell_volume 4922.708359
_symmetry_space_group_name_H-M "I B C A "
_symmetry_group_IT_number 73
_symmetry_cell_setting 'orthorhombic'
loop_
_space_group_symop_operation_xyz
x,y,z
-x,1/2-y,z
x,-y,1/2-z
1/2-x,y,-z
-x,-y,-z
x,1/2+y,-z
-x,y,1/2+z
1/2+x,-y,z
1/2+x,1/2+y,1/2+z
1/2-x,-y,1/2+z
1/2+x,1/2-y,-z
-x,1/2+y,1/2-z
1/2-x,1/2-y,1/2-z
1/2+x,y,1/2-z
1/2-x,1/2+y,z
x,1/2-y,1/2+z
loop_
_atom_site_type_symbol
_atom_site_label
_atom_site_fract_x
_atom_site_fract_y
_atom_site_fract_z
Si Si1 0.948602 0.331058 0.767826
Si Si2 0.567893 0.082588 0.134263
Si Si3 0.262653 0.807739 0.662734
Si Si4 0.919546 0.680174 0.571220
Si Si5 0.698099 0.655280 0.110356
Si Si6 0.013204 0.909998 0.338010
Si Si7 0.250000 0.746445 0.500000
O O1 0.813971 0.320750 0.782961
O O2 0.000000 0.250000 0.746559
O O3 0.023409 0.357145 0.820322
O O4 0.952607 0.395702 0.720725
O O5 0.497723 0.103305 0.077266
O O6 0.703311 0.092835 0.123317
O O7 0.543378 0.998178 0.154813
O O8 0.190585 0.829417 0.609395
O O9 0.302600 0.719511 0.658352
O O10 0.370870 0.862529 0.661846
O O11 0.863137 0.699973 0.511731
O O12 0.000000 0.750000 0.591184
O O13 0.573846 0.614097 0.112944
O O14 0.718714 0.691995 0.050834
#
# Coordination Sequence:
#
# PCOD8295802 Si02
#       7
#    16  16  16  16  16  16   8
#     4  11  22  43  70  96 134 189 242 275 335 421
#     4  11  23  45  64  98 144 187 215 281 368 417
#     4  10  21  42  67  99 131 182 238 284 343 414
#     4  10  19  42  72  97 127 176 226 279 341 417
#     4  11  23  46  69  97 137 178 234 300 341 427
#     4  12  28  38  66 106 143 180 228 299 354 416
#     4  10  22  40  78 102 114 174 248 292 334 414
#
# _framework density 21.126581999999999
#
# number of rings (size 3 to 8) (size 9 to 14) (size 15 to 20)
#    0.000    1.231    4.615    2.769    6.462    3.692 
#    0.000    1.538    0.000    0.000    0.000    0.000 
#    0.000    0.000    0.000    0.000    0.000    0.000 
#
# Total GULP energy -644625.065648 kJ/mol
# GULP energy per Si atom -12396.635878 kJ/mol
# Density = 2.107850 g / cm^3
# Si number density = 21.126582 Si / 1000 Ang^3
#
#
#
# Elastic Constant Matrix: (Units=GPa)
#
#
# Indices 1 2 3 4 5 6 
#
# 1 139.5612 67.1563 39.7333 0.0000 0.0000 0.0000
# 2 67.1563 146.3958 48.3450 0.0000 0.0000 0.0000
# 3 39.7333 48.3450 89.5517 0.0000 0.0000 0.0000
# 4 0.0000 0.0000 0.0000 20.7582 0.0000 0.0000
# 5 0.0000 0.0000 0.0000 0.0000 27.8762 0.0000
# 6 0.0000 0.0000 0.0000 0.0000 0.0000 33.6070
#
#
#
# Elastic Compliance Matrix: (Units=1/GPa)
#
#
# Indices 1 2 3 4 5 6 
#
# 1 0.009563 -0.003634 -0.002282 0.000000 0.000000 0.000000
# 2 -0.003634 0.009693 -0.003621 0.000000 0.000000 0.000000
# 3 -0.002282 -0.003621 0.014134 0.000000 0.000000 0.000000
# 4 0.000000 0.000000 0.000000 0.048174 0.000000 0.000000
# 5 0.000000 0.000000 0.000000 0.000000 0.035873 0.000000
# 6 0.000000 0.000000 0.000000 0.000000 0.000000 0.029756
#
#
# Mechanical properties :
#
#
# Convention : Reuss Voigt Hill
#
# Bulk Modulus (GPa) = 69.83953 76.21979 73.02966
# Shear Modulus (GPa) = 29.23332 31.13320 30.18326
#
# Velocity S-wave (km/s) = 3.72388 3.84298 3.78390
# Velocity P-wave (km/s) = 7.18464 7.47311 7.33029
#
# Compressibility (1/GPa) = 0.01431854
#
# Stress axis : x y z
#
# Youngs Moduli (GPa) = 104.56610 103.16359 70.75249
#
# Poissons Ratio (x) = 0.37485 0.16143
# Poissons Ratio (y) = 0.37995 0.25618
# Poissons Ratio (z) = 0.23858 0.37354
#
# Static dielectric constant tensor:
#      x y z
#    x 4.172490 0.000000 0.000000 
#    y 0.000000 3.705930 0.000000 
#    z 0.000000 0.000000 3.865960 
# 
# 
# High freq. dielectric constant tensor:
#      x y z
#    x 1.849720 0.000000 0.000000 
#    y 0.000000 1.808660 0.000000 
#    z 0.000000 0.000000 1.815220 
# 
# From -- ./inp_files/31794.got.cif
#   From: 2010.03.12/outbox.cif.g09.slc.cpg/sg73_16_cif.got.tgz:31794.got - 2010.04.16 15:25:48.
