data_PCOD8295221
_publ_section_title
;
Structure prediction by ZEFSAII (Michael W. Deem and Ramdas Pophale) SiO2 
 PCOD8295221
Probable space group: I B A M
;
_chemical_formula_sum "Si O2"
_cell_formula_units_Z 52
_cell_length_a 8.804684
_cell_length_b 27.320989
_cell_length_c 10.112689
_cell_angle_alpha 90.000000
_cell_angle_beta 90.000000
_cell_angle_gamma 90.000000
_cell_volume 2432.634387
_symmetry_space_group_name_H-M "I B A M"
_symmetry_group_IT_number 72
_symmetry_cell_setting 'orthorhombic'
loop_
_space_group_symop_operation_xyz
x,y,z
-x,-y,z
x,-y,1/2-z
-x,y,1/2-z
-x,-y,-z
x,y,-z
-x,y,1/2+z
x,-y,1/2+z
1/2+x,1/2+y,1/2+z
1/2-x,1/2-y,1/2+z
1/2+x,1/2-y,-z
1/2-x,1/2+y,-z
1/2-x,1/2-y,1/2-z
1/2+x,1/2+y,1/2-z
1/2-x,1/2+y,z
1/2+x,1/2-y,z
loop_
_atom_site_type_symbol
_atom_site_label
_atom_site_fract_x
_atom_site_fract_y
_atom_site_fract_z
Si Si1 0.040618 0.317962 0.000000
Si Si2 0.500000 0.336993 0.750000
Si Si3 0.205422 0.917671 0.153645
Si Si4 0.000000 0.000000 0.750000
Si Si5 0.104491 0.783452 0.000000
Si Si6 0.500000 0.113734 0.250000
O O1 0.216516 0.298235 0.000000
O O2 0.000060 0.350689 0.874738
O O3 0.916360 0.274740 0.000000
O O4 0.643647 0.372996 0.742405
O O5 0.506585 0.302763 0.623145
O O6 0.364782 0.925396 0.227134
O O7 0.104460 0.966424 0.157078
O O8 0.220805 0.901137 0.000000
#
# Coordination Sequence:
#
# PCOD8295221 Si02
#       6
#     8   8  16   4   8   8
#     4  12  28  44  64 103 141 184 237 285 329 400
#     4  11  21  43  70  92 140 184 222 287 335 397
#     4  11  23  47  70 105 137 173 229 280 342 424
#     4  10  26  46  78 102 132 172 222 282 352 418
#     4  12  26  44  64 101 140 180 248 278 332 399
#     4  12  23  47  69  98 146 180 225 283 345 398
#
# _framework density 21.376003000000001
#
# number of rings (size 3 to 8) (size 9 to 14) (size 15 to 20)
#    0.000    0.615    6.154    1.385    4.308    3.077 
#    5.538    1.538    0.000    0.000    0.000    0.000 
#    0.000    0.000    0.000    0.000    0.000    0.000 
#
# Total GULP energy -322115.465587 kJ/mol
# GULP energy per Si atom -12389.056369 kJ/mol
# Density = 2.132735 g / cm^3
# Si number density = 21.376003 Si / 1000 Ang^3
#
#
#
# Elastic Constant Matrix: (Units=GPa)
#
#
# Indices 1 2 3 4 5 6 
#
# 1 139.2151 56.0672 63.3060 0.0001 0.0001 0.0000
# 2 56.0672 106.4321 44.9688 -0.0003 0.0000 0.0001
# 3 63.3060 44.9688 146.5143 0.0005 0.0009 0.0004
# 4 0.0001 -0.0003 0.0005 31.2630 0.0002 0.0002
# 5 0.0001 0.0000 0.0009 0.0002 29.1577 0.0000
# 6 0.0000 0.0001 0.0004 0.0002 0.0000 39.3772
#
#
#
# Elastic Compliance Matrix: (Units=1/GPa)
#
#
# Indices 1 2 3 4 5 6 
#
# 1 0.010270 -0.004062 -0.003191 0.000000 0.000000 0.000000
# 2 -0.004062 0.012402 -0.002051 0.000000 0.000000 0.000000
# 3 -0.003191 -0.002051 0.008834 0.000000 0.000000 0.000000
# 4 0.000000 0.000000 0.000000 0.031987 0.000000 0.000000
# 5 0.000000 0.000000 0.000000 0.000000 0.034296 0.000000
# 6 0.000000 0.000000 0.000000 0.000000 0.000000 0.025395
#
#
# Mechanical properties :
#
#
# Convention : Reuss Voigt Hill
#
# Bulk Modulus (GPa) = 77.53472 80.09394 78.81433
# Shear Modulus (GPa) = 34.22509 35.14754 34.68632
#
# Velocity S-wave (km/s) = 4.00571 4.05934 4.03261
# Velocity P-wave (km/s) = 7.59901 7.71501 7.65723
#
# Compressibility (1/GPa) = 0.01289745
#
# Stress axis : x y z
#
# Youngs Moduli (GPa) = 97.37107 80.63062 113.20453
#
# Poissons Ratio (x) = 0.32752 0.36121
# Poissons Ratio (y) = 0.39552 0.23223
# Poissons Ratio (z) = 0.31069 0.16541
#
# Static dielectric constant tensor:
#      x y z
#    x 4.188530 0.000000 0.000000 
#    y 0.000000 3.921870 0.000000 
#    z 0.000000 0.000000 3.746070 
# 
# 
# High freq. dielectric constant tensor:
#      x y z
#    x 1.845810 0.000000 0.000000 
#    y 0.000000 1.842960 0.000000 
#    z 0.000000 0.000000 1.841900 
# 
# From -- ./inp_files/10478.got.cif
#   From: 2010.03.12/outbox.cif.g09.slc.cpg/sg72_6_cif.got.tgz:10478.got - 2010.04.16 14:54:00.
