data_PCOD8295927
_publ_section_title
;
Structure prediction by ZEFSAII (Michael W. Deem and Ramdas Pophale) SiO2 
 PCOD8295927
Probable space group: I B C A 
;
_chemical_formula_sum "Si O2"
_cell_formula_units_Z 88
_cell_length_a 12.089278
_cell_length_b 20.278271
_cell_length_c 16.630618
_cell_angle_alpha 90.000000
_cell_angle_beta 90.000000
_cell_angle_gamma 90.000000
_cell_volume 4076.990273
_symmetry_space_group_name_H-M "I B C A "
_symmetry_group_IT_number 73
_symmetry_cell_setting 'orthorhombic'
loop_
_space_group_symop_operation_xyz
x,y,z
-x,1/2-y,z
x,-y,1/2-z
1/2-x,y,-z
-x,-y,-z
x,1/2+y,-z
-x,y,1/2+z
1/2+x,-y,z
1/2+x,1/2+y,1/2+z
1/2-x,-y,1/2+z
1/2+x,1/2-y,-z
-x,1/2+y,1/2-z
1/2-x,1/2-y,1/2-z
1/2+x,y,1/2-z
1/2-x,1/2+y,z
x,1/2-y,1/2+z
loop_
_atom_site_type_symbol
_atom_site_label
_atom_site_fract_x
_atom_site_fract_y
_atom_site_fract_z
Si Si1 0.294309 0.961464 0.622359
Si Si2 0.726074 0.152366 0.257698
Si Si3 0.370383 0.767995 0.146465
Si Si4 0.750000 0.673017 0.000000
Si Si5 0.587591 0.947621 0.971112
Si Si6 0.899603 0.599923 0.120937
O O1 0.262091 0.918216 0.699566
O O2 0.360307 0.917808 0.553968
O O3 0.179862 0.984700 0.581688
O O4 0.365128 0.025478 0.646584
O O5 0.837264 0.170784 0.206327
O O6 0.702204 0.206486 0.324490
O O7 0.620071 0.147358 0.197382
O O8 0.500000 0.750000 0.148702
O O9 0.329539 0.782277 0.056043
O O10 0.674850 0.623631 0.951304
O O11 0.525921 0.895252 0.912192
O O12 0.500000 0.000000 0.000000
#
# Coordination Sequence:
#
# PCOD8295927 Si02
#       6
#    16  16  16   8  16  16
#     4  10  20  37  61  95 132 159 204 262 317 397
#     4  10  23  41  62  95 130 159 214 269 319 391
#     4  10  24  45  65  90 126 176 219 268 316 375
#     4  10  22  42  66  88 124 168 220 262 314 380
#     4   9  19  34  57  89 126 168 201 243 309 389
#     4  10  20  39  61  93 125 162 203 261 326 386
#
# _framework density 21.58455
#
# number of rings (size 3 to 8) (size 9 to 14) (size 15 to 20)
#    0.000    2.182    0.000    2.727    5.091    1.455 
#    3.273    5.455    0.000    0.000    0.000    0.000 
#    0.000    0.000    0.000    0.000    0.000    0.000 
#
# Total GULP energy -545089.390702 kJ/mol
# GULP energy per Si atom -12388.395243 kJ/mol
# Density = 2.153542 g / cm^3
# Si number density = 21.584550 Si / 1000 Ang^3
#
#
#
# Elastic Constant Matrix: (Units=GPa)
#
#
# Indices 1 2 3 4 5 6 
#
# 1 112.9691 18.3488 35.9272 0.0000 0.0000 0.0000
# 2 18.3488 75.1851 43.8827 0.0000 0.0000 0.0000
# 3 35.9272 43.8827 108.1754 0.0000 0.0000 0.0000
# 4 0.0000 0.0000 0.0000 30.7980 0.0000 0.0000
# 5 0.0000 0.0000 0.0000 0.0000 28.3152 0.0000
# 6 0.0000 0.0000 0.0000 0.0000 0.0000 29.6613
#
#
#
# Elastic Compliance Matrix: (Units=1/GPa)
#
#
# Indices 1 2 3 4 5 6 
#
# 1 0.009922 -0.000653 -0.003030 0.000000 0.000000 0.000000
# 2 -0.000653 0.017470 -0.006870 0.000000 0.000000 0.000000
# 3 -0.003030 -0.006870 0.013038 0.000000 0.000000 0.000000
# 4 0.000000 0.000000 0.000000 0.032470 0.000000 0.000000
# 5 0.000000 0.000000 0.000000 0.000000 0.035317 0.000000
# 6 0.000000 0.000000 0.000000 0.000000 0.000000 0.033714
#
#
# Mechanical properties :
#
#
# Convention : Reuss Voigt Hill
#
# Bulk Modulus (GPa) = 51.75246 54.73856 53.24551
# Shear Modulus (GPa) = 29.50265 30.96629 30.23447
#
# Velocity S-wave (km/s) = 3.70109 3.79179 3.74671
# Velocity P-wave (km/s) = 6.50329 6.67722 6.59083
#
# Compressibility (1/GPa) = 0.01932275
#
# Stress axis : x y z
#
# Youngs Moduli (GPa) = 100.78876 57.24258 76.70120
#
# Poissons Ratio (x) = 0.03736 0.23244
# Poissons Ratio (y) = 0.06578 0.52694
# Poissons Ratio (z) = 0.30544 0.39325
#
# Static dielectric constant tensor:
#      x y z
#    x 4.350870 0.000000 0.000000 
#    y 0.000000 3.715560 0.000000 
#    z 0.000000 0.000000 4.357110 
# 
# 
# High freq. dielectric constant tensor:
#      x y z
#    x 1.843100 0.000000 0.000000 
#    y 0.000000 1.818570 0.000000 
#    z 0.000000 0.000000 1.865730 
# 
# From -- ./inp_files/21268.got.cif
#   From: 2010.03.12/outbox.cif.g09.slc.cpg/sg73_11_cif.got.tgz:21268.got - 2010.04.16 15:25:48.
