data_PCOD8295419
_publ_section_title
;
Structure prediction by ZEFSAII (Michael W. Deem and Ramdas Pophale) SiO2 
 PCOD8295419
Probable space group: I B A M
;
_chemical_formula_sum "Si O2"
_cell_formula_units_Z 52
_cell_length_a 5.932905
_cell_length_b 30.453829
_cell_length_c 13.319047
_cell_angle_alpha 90.000000
_cell_angle_beta 90.000000
_cell_angle_gamma 90.000000
_cell_volume 2406.481075
_symmetry_space_group_name_H-M "I B A M"
_symmetry_group_IT_number 72
_symmetry_cell_setting 'orthorhombic'
loop_
_space_group_symop_operation_xyz
x,y,z
-x,-y,z
x,-y,1/2-z
-x,y,1/2-z
-x,-y,-z
x,y,-z
-x,y,1/2+z
x,-y,1/2+z
1/2+x,1/2+y,1/2+z
1/2-x,1/2-y,1/2+z
1/2+x,1/2-y,-z
1/2-x,1/2+y,-z
1/2-x,1/2-y,1/2-z
1/2+x,1/2+y,1/2-z
1/2-x,1/2+y,z
1/2+x,1/2-y,z
loop_
_atom_site_type_symbol
_atom_site_label
_atom_site_fract_x
_atom_site_fract_y
_atom_site_fract_z
Si Si1 0.871659 0.655591 0.613692
Si Si2 0.500000 0.373919 0.750000
Si Si3 0.190660 0.426362 0.884908
Si Si4 0.500000 0.000000 0.750000
Si Si5 0.500000 0.773632 0.250000
O O1 0.790435 0.663291 0.500000
O O2 0.672062 0.657968 0.694426
O O3 0.026621 0.696081 0.649267
O O4 0.985852 0.607928 0.624922
O O5 0.410677 0.404229 0.839653
O O6 0.150244 0.470403 0.822748
O O7 0.237237 0.439030 0.000000
O O8 0.750000 0.750000 0.250000
#
# Coordination Sequence:
#
# PCOD8295419 Si02
#       5
#    16   8  16   4   8
#     4  11  24  45  69  98 139 187 236 286 355 436
#     4  12  19  45  68 100 128 184 242 292 348 430
#     4  11  24  41  68  96 131 183 231 284 355 430
#     4  12  20  46  60  96 146 168 228 306 362 420
#     4  12  26  46  72 108 146 179 231 296 361 425
#
# _framework density 21.608317
#
# number of rings (size 3 to 8) (size 9 to 14) (size 15 to 20)
#    0.000    0.615    6.154    2.308    0.000    1.846 
#    0.000    1.538    0.000    0.000    0.000    0.000 
#    0.000    0.000    0.000    0.000    0.000    0.000 
#
# Total GULP energy -322149.902301 kJ/mol
# GULP energy per Si atom -12390.380858 kJ/mol
# Density = 2.155914 g / cm^3
# Si number density = 21.608317 Si / 1000 Ang^3
#
#
#
# Elastic Constant Matrix: (Units=GPa)
#
#
# Indices 1 2 3 4 5 6 
#
# 1 100.2013 35.0623 53.6772 0.0000 0.0000 0.0000
# 2 35.0623 113.4939 65.5510 0.0000 0.0000 0.0000
# 3 53.6772 65.5510 201.4681 0.0000 0.0000 0.0000
# 4 0.0000 0.0000 0.0000 27.1613 0.0000 0.0000
# 5 0.0000 0.0000 0.0000 0.0000 35.6570 0.0000
# 6 0.0000 0.0000 0.0000 0.0000 0.0000 16.1629
#
#
#
# Elastic Compliance Matrix: (Units=1/GPa)
#
#
# Indices 1 2 3 4 5 6 
#
# 1 0.012115 -0.002313 -0.002475 0.000000 0.000000 0.000000
# 2 -0.002313 0.011292 -0.003058 0.000000 0.000000 0.000000
# 3 -0.002475 -0.003058 0.006618 0.000000 0.000000 0.000000
# 4 0.000000 0.000000 0.000000 0.036817 0.000000 0.000000
# 5 0.000000 0.000000 0.000000 0.000000 0.028045 0.000000
# 6 0.000000 0.000000 0.000000 0.000000 0.000000 0.061870
#
#
# Mechanical properties :
#
#
# Convention : Reuss Voigt Hill
#
# Bulk Modulus (GPa) = 69.77044 80.41605 75.09324
# Shear Modulus (GPa) = 28.21245 33.18776 30.70011
#
# Velocity S-wave (km/s) = 3.61727 3.92328 3.77338
# Velocity P-wave (km/s) = 7.05726 7.60388 7.33566
#
# Compressibility (1/GPa) = 0.01433272
#
# Stress axis : x y z
#
# Youngs Moduli (GPa) = 82.54007 88.56071 151.10538
#
# Poissons Ratio (x) = 0.20486 0.37402
# Poissons Ratio (y) = 0.19093 0.46202
# Poissons Ratio (z) = 0.20431 0.27079
#
# Static dielectric constant tensor:
#      x y z
#    x 4.353690 0.000000 0.000000 
#    y 0.000000 4.045810 0.000000 
#    z 0.000000 0.000000 4.500430 
# 
# 
# High freq. dielectric constant tensor:
#      x y z
#    x 1.840840 0.000000 0.000000 
#    y 0.000000 1.852410 0.000000 
#    z 0.000000 0.000000 1.867430 
# 
# From -- ./inp_files/17620.got.cif
#   From: 2010.03.12/outbox.cif.g09.slc.cpg/sg72_9_cif.got.tgz:17620.got - 2010.04.16 14:54:00.
