data_PCOD8295272
_publ_section_title
;
Structure prediction by ZEFSAII (Michael W. Deem and Ramdas Pophale) SiO2 
 PCOD8295272
Probable space group: I B A M
;
_chemical_formula_sum "Si O2"
_cell_formula_units_Z 96
_cell_length_a 18.496854
_cell_length_b 32.487501
_cell_length_c 8.792197
_cell_angle_alpha 90.000000
_cell_angle_beta 90.000000
_cell_angle_gamma 90.000000
_cell_volume 5283.376801
_symmetry_space_group_name_H-M "I B A M"
_symmetry_group_IT_number 72
_symmetry_cell_setting 'orthorhombic'
loop_
_space_group_symop_operation_xyz
x,y,z
-x,-y,z
x,-y,1/2-z
-x,y,1/2-z
-x,-y,-z
x,y,-z
-x,y,1/2+z
x,-y,1/2+z
1/2+x,1/2+y,1/2+z
1/2-x,1/2-y,1/2+z
1/2+x,1/2-y,-z
1/2-x,1/2+y,-z
1/2-x,1/2-y,1/2-z
1/2+x,1/2+y,1/2-z
1/2-x,1/2+y,z
1/2+x,1/2-y,z
loop_
_atom_site_type_symbol
_atom_site_label
_atom_site_fract_x
_atom_site_fract_y
_atom_site_fract_z
Si Si1 0.076215 0.829244 0.820608
Si Si2 0.423528 0.242796 0.320399
Si Si3 0.217754 0.542779 0.179269
Si Si4 0.298368 0.376064 0.324204
Si Si5 0.150613 0.669120 0.175698
Si Si6 0.075717 0.413820 0.320614
O O1 0.101982 0.786090 0.748986
O O2 0.134879 0.863849 0.781638
O O3 0.000000 0.843000 0.750000
O O4 0.067733 0.824302 0.000000
O O5 0.500000 0.229119 0.250000
O O6 0.431051 0.247381 0.500000
O O7 0.364080 0.208636 0.279831
O O8 0.243524 0.500000 0.250000
O O9 0.274762 0.578084 0.225168
O O10 0.137952 0.555292 0.239759
O O11 0.215179 0.538500 0.000000
O O12 0.322165 0.375007 0.500000
O O13 0.232697 0.344603 0.296990
O O14 0.096571 0.632623 0.226540
O O15 0.137625 0.680543 0.000000
O O16 0.070207 0.416927 0.500000
O O17 0.000000 0.427311 0.250000
#
# Coordination Sequence:
#
# PCOD8295272 Si02
#       6
#    16  16  16  16  16  16
#     4  11  22  37  57  79 103 132 168 207 252 306
#     4  11  21  33  50  73 104 140 178 217 256 297
#     4   9  19  35  54  76 103 134 168 207 254 305
#     4   9  19  37  57  77 104 135 167 208 257 306
#     4   9  18  33  51  72 102 139 178 217 256 297
#     4   9  18  31  47  70 101 139 178 216 255 293
#
# _framework density 18.170199
#
# number of rings (size 3 to 8) (size 9 to 14) (size 15 to 20)
#    0.000    2.333    0.000    6.500    0.000    5.000 
#    0.000    5.000    0.000    0.500    0.000    3.500 
#    0.000    0.000    0.000    0.000    0.000    0.000 
#
# Total GULP energy -595256.971915 kJ/mol
# GULP energy per Si atom -12401.186915 kJ/mol
# Density = 1.812884 g / cm^3
# Si number density = 18.170199 Si / 1000 Ang^3
#
#
#
# Elastic Constant Matrix: (Units=GPa)
#
#
# Indices 1 2 3 4 5 6 
#
# 1 82.8603 65.9151 43.8671 0.0003 0.0003 -0.0014
# 2 65.9151 120.0710 50.9885 0.0038 0.0004 -0.0005
# 3 43.8671 50.9885 100.2825 0.0473 0.0056 -0.0629
# 4 0.0003 0.0038 0.0473 30.1572 0.0018 -0.0111
# 5 0.0003 0.0004 0.0056 0.0018 29.6440 -0.0090
# 6 -0.0014 -0.0005 -0.0629 -0.0111 -0.0090 14.7294
#
#
#
# Elastic Compliance Matrix: (Units=1/GPa)
#
#
# Indices 1 2 3 4 5 6 
#
# 1 0.023005 -0.010656 -0.004645 0.000008 0.000001 -0.000018
# 2 -0.010656 0.015558 -0.003249 0.000003 0.000001 -0.000014
# 3 -0.004645 -0.003249 0.013656 -0.000021 -0.000002 0.000058
# 4 0.000008 0.000003 -0.000021 0.033160 -0.000002 0.000025
# 5 0.000001 0.000001 -0.000002 -0.000002 0.033734 0.000021
# 6 -0.000018 -0.000014 0.000058 0.000025 0.000021 0.067892
#
#
# Mechanical properties :
#
#
# Convention : Reuss Voigt Hill
#
# Bulk Modulus (GPa) = 66.14666 69.41725 67.78196
# Shear Modulus (GPa) = 21.82041 24.40231 23.11136
#
# Velocity S-wave (km/s) = 3.46915 3.66865 3.57029
# Velocity P-wave (km/s) = 7.24773 7.49881 7.37434
#
# Compressibility (1/GPa) = 0.01511792
#
# Stress axis : x y z
#
# Youngs Moduli (GPa) = 43.46945 64.27505 73.22963
#
# Poissons Ratio (x) = 0.68494 0.34014
# Poissons Ratio (y) = 0.46323 0.23793
# Poissons Ratio (z) = 0.20191 0.20883
#
# Static dielectric constant tensor:
#      x y z
#    x 3.442570 0.000020 0.000000 
#    y 0.000020 3.457810 -0.000090 
#    z 0.000000 -0.000090 3.212170 
# 
# 
# High freq. dielectric constant tensor:
#      x y z
#    x 1.693340 0.000000 0.000000 
#    y 0.000000 1.696390 0.000000 
#    z 0.000000 0.000000 1.701260 
# 
# From -- ./inp_files/5987.got.cif
#   From: 2010.03.12/outbox.cif.g09.slc.cpg/sg72_3_cif.got.tgz:5987.got - 2010.04.16 14:54:00.
