data_PCOD8295300
_publ_section_title
;
Structure prediction by ZEFSAII (Michael W. Deem and Ramdas Pophale) SiO2 
 PCOD8295300
Probable space group: I B A M
;
_chemical_formula_sum "Si O2"
_cell_formula_units_Z 64
_cell_length_a 17.620848
_cell_length_b 12.975265
_cell_length_c 13.987450
_cell_angle_alpha 90.000000
_cell_angle_beta 90.000000
_cell_angle_gamma 90.000000
_cell_volume 3198.023041
_symmetry_space_group_name_H-M "I B A M"
_symmetry_group_IT_number 72
_symmetry_cell_setting 'orthorhombic'
loop_
_space_group_symop_operation_xyz
x,y,z
-x,-y,z
x,-y,1/2-z
-x,y,1/2-z
-x,-y,-z
x,y,-z
-x,y,1/2+z
x,-y,1/2+z
1/2+x,1/2+y,1/2+z
1/2-x,1/2-y,1/2+z
1/2+x,1/2-y,-z
1/2-x,1/2+y,-z
1/2-x,1/2-y,1/2-z
1/2+x,1/2+y,1/2-z
1/2-x,1/2+y,z
1/2+x,1/2-y,z
loop_
_atom_site_type_symbol
_atom_site_label
_atom_site_fract_x
_atom_site_fract_y
_atom_site_fract_z
Si Si1 0.045768 0.668209 0.844132
Si Si2 0.271388 0.426764 0.000000
Si Si3 0.205553 0.753544 0.846874
Si Si4 0.897065 0.512049 0.500000
Si Si5 0.793922 0.143412 0.500000
Si Si6 0.057469 0.719147 0.500000
O O1 0.117995 0.738552 0.819059
O O2 0.077677 0.571445 0.904011
O O3 0.000000 0.631216 0.750000
O O4 0.990659 0.744455 0.904997
O O5 0.283571 0.360400 0.904562
O O6 0.191346 0.485426 0.000000
O O7 0.327687 0.526777 0.000000
O O8 0.250000 0.750000 0.750000
O O9 0.239354 0.660638 0.909345
O O10 0.939947 0.404530 0.500000
O O11 0.861566 0.226584 0.500000
#
# Coordination Sequence:
#
# PCOD8295300 Si02
#       6
#    16   8  16   8   8   8
#     4  11  23  40  61  95 135 166 214 269 331 392
#     4  11  22  43  69  93 125 165 233 265 319 393
#     4  11  23  42  64  91 129 173 215 268 320 394
#     4  11  21  40  62  99 128 167 210 269 331 387
#     4  11  21  42  64  92 127 169 220 273 320 395
#     4  11  22  39  60  93 132 163 211 264 337 382
#
# _framework density 20.012364000000002
#
# number of rings (size 3 to 8) (size 9 to 14) (size 15 to 20)
#    0.000    1.000    5.000    5.250    0.000    3.000 
#    0.000    2.500    0.000    1.500    0.000    0.000 
#    0.000    0.000    0.000    0.000    0.000    0.000 
#
# Total GULP energy -396590.792264 kJ/mol
# GULP energy per Si atom -12393.462258 kJ/mol
# Density = 1.996682 g / cm^3
# Si number density = 20.012364 Si / 1000 Ang^3
#
#
#
# Elastic Constant Matrix: (Units=GPa)
#
#
# Indices 1 2 3 4 5 6 
#
# 1 142.2082 34.0226 59.5356 0.0000 0.0000 0.0000
# 2 34.0226 115.5468 50.9179 0.0000 0.0000 0.0000
# 3 59.5356 50.9179 162.6303 0.0000 0.0000 0.0000
# 4 0.0000 0.0000 0.0000 7.3115 0.0000 0.0000
# 5 0.0000 0.0000 0.0000 0.0000 39.6181 0.0000
# 6 0.0000 0.0000 0.0000 0.0000 0.0000 27.6602
#
#
#
# Elastic Compliance Matrix: (Units=1/GPa)
#
#
# Indices 1 2 3 4 5 6 
#
# 1 0.008472 -0.001308 -0.002692 0.000000 0.000000 0.000000
# 2 -0.001308 0.010242 -0.002728 0.000000 0.000000 0.000000
# 3 -0.002692 -0.002728 0.007988 0.000000 0.000000 0.000000
# 4 0.000000 0.000000 0.000000 0.136772 0.000000 0.000000
# 5 0.000000 0.000000 0.000000 0.000000 0.025241 0.000000
# 6 0.000000 0.000000 0.000000 0.000000 0.000000 0.036153
#
#
# Mechanical properties :
#
#
# Convention : Reuss Voigt Hill
#
# Bulk Modulus (GPa) = 75.49193 78.81526 77.15360
# Shear Modulus (GPa) = 20.59831 33.31191 26.95511
#
# Velocity S-wave (km/s) = 3.21172 4.08434 3.67403
# Velocity P-wave (km/s) = 7.18039 7.85565 7.52560
#
# Compressibility (1/GPa) = 0.01324645
#
# Stress axis : x y z
#
# Youngs Moduli (GPa) = 118.03787 97.63979 125.18325
#
# Poissons Ratio (x) = 0.12775 0.33696
# Poissons Ratio (y) = 0.15444 0.34145
# Poissons Ratio (z) = 0.31773 0.26632
#
# Static dielectric constant tensor:
#      x y z
#    x 3.963530 0.000000 0.000000 
#    y 0.000000 3.713370 0.000000 
#    z 0.000000 0.000000 3.399700 
# 
# 
# High freq. dielectric constant tensor:
#      x y z
#    x 1.799940 0.000000 0.000000 
#    y 0.000000 1.761250 0.000000 
#    z 0.000000 0.000000 1.784290 
# 
# From -- ./inp_files/22976.got.cif
#   From: 2010.03.12/outbox.cif.g09.slc.cpg/sg72_12_cif.got.tgz:22976.got - 2010.04.16 14:54:00.
