data_PCOD8295202
_publ_section_title
;
Structure prediction by ZEFSAII (Michael W. Deem and Ramdas Pophale) SiO2 
 PCOD8295202
Probable space group: I B A M
;
_chemical_formula_sum "Si O2"
_cell_formula_units_Z 64
_cell_length_a 8.683327
_cell_length_b 22.123309
_cell_length_c 14.019821
_cell_angle_alpha 90.000000
_cell_angle_beta 90.000000
_cell_angle_gamma 90.000000
_cell_volume 2693.262661
_symmetry_space_group_name_H-M "I B A M"
_symmetry_group_IT_number 72
_symmetry_cell_setting 'orthorhombic'
loop_
_space_group_symop_operation_xyz
x,y,z
-x,-y,z
x,-y,1/2-z
-x,y,1/2-z
-x,-y,-z
x,y,-z
-x,y,1/2+z
x,-y,1/2+z
1/2+x,1/2+y,1/2+z
1/2-x,1/2-y,1/2+z
1/2+x,1/2-y,-z
1/2-x,1/2+y,-z
1/2-x,1/2-y,1/2-z
1/2+x,1/2+y,1/2-z
1/2-x,1/2+y,z
1/2+x,1/2-y,z
loop_
_atom_site_type_symbol
_atom_site_label
_atom_site_fract_x
_atom_site_fract_y
_atom_site_fract_z
Si Si1 0.131680 0.117722 0.826055
Si Si2 0.174093 0.331861 0.827641
Si Si3 0.768869 0.449036 0.000000
Si Si4 0.034771 0.765200 0.109529
Si Si5 0.882997 0.584329 0.000000
O O1 0.291243 0.133160 0.770840
O O2 0.170033 0.067211 0.905239
O O3 0.077962 0.177967 0.879683
O O4 0.000000 0.095944 0.750000
O O5 0.015881 0.294096 0.830673
O O6 0.301183 0.280713 0.847349
O O7 0.181826 0.382563 0.908015
O O8 0.803281 0.519446 0.000000
O O9 0.931835 0.414714 0.000000
O O10 0.045073 0.745811 0.000000
#
# Coordination Sequence:
#
# PCOD8295202 Si02
#       5
#    16  16   8  16   8
#     4  10  24  44  72 107 143 184 242 296 362 438
#     4  11  24  42  69 108 146 185 238 296 360 431
#     4  11  26  50  74 101 142 196 246 294 364 409
#     4  11  20  39  66 103 145 186 231 289 360 437
#     4  11  26  46  74 103 140 195 251 294 341 439
#
# _framework density 23.762999000000001
#
# number of rings (size 3 to 8) (size 9 to 14) (size 15 to 20)
#    0.000    1.250    3.750    0.750    3.500    2.000 
#    0.000   16.250    0.000    0.000    0.000    0.000 
#    0.000    0.000    0.000    0.000    0.000    0.000 
#
# Total GULP energy -396806.432497 kJ/mol
# GULP energy per Si atom -12400.201016 kJ/mol
# Density = 2.370891 g / cm^3
# Si number density = 23.762999 Si / 1000 Ang^3
#
#
#
# Elastic Constant Matrix: (Units=GPa)
#
#
# Indices 1 2 3 4 5 6 
#
# 1 67.0367 49.1272 56.6192 0.0000 0.0000 0.0000
# 2 49.1272 97.6851 43.2702 -0.0002 0.0000 0.0000
# 3 56.6192 43.2702 158.7030 -0.0002 0.0000 0.0000
# 4 0.0000 -0.0002 -0.0002 -39.3060 0.0000 0.0000
# 5 0.0000 0.0000 0.0000 0.0000 33.8730 0.0000
# 6 0.0000 0.0000 0.0000 0.0000 0.0000 36.4357
#
#
#
# Elastic Compliance Matrix: (Units=1/GPa)
#
#
# Indices 1 2 3 4 5 6 
#
# 1 0.029742 -0.011667 -0.007430 0.000000 0.000000 0.000000
# 2 -0.011667 0.016219 -0.000260 0.000000 0.000000 0.000000
# 3 -0.007430 -0.000260 0.009023 0.000000 0.000000 0.000000
# 4 0.000000 0.000000 0.000000 -0.025441 0.000000 0.000000
# 5 0.000000 0.000000 0.000000 0.000000 0.029522 0.000000
# 6 0.000000 0.000000 0.000000 0.000000 0.000000 0.027446
#
#
# Mechanical properties :
#
#
# Convention : Reuss Voigt Hill
#
# Bulk Modulus (GPa) = 61.45844 69.05088 65.25466
# Shear Modulus (GPa) = 38.27076 17.82776 28.04926
#
# Velocity S-wave (km/s) = 4.01748 2.74201 3.43939
# Velocity P-wave (km/s) = 6.88763 6.25668 6.57972
#
# Compressibility (1/GPa) = 0.01627116
#
# Stress axis : x y z
#
# Youngs Moduli (GPa) = 33.62201 61.65423 110.83128
#
# Poissons Ratio (x) = 0.71930 0.82348
# Poissons Ratio (y) = 0.39226 0.02882
# Poissons Ratio (z) = 0.24981 0.01603
#
# Static dielectric constant tensor:
#      x y z
#    x 4.723520 0.000000 0.000000 
#    y 0.000000 4.026640 0.000000 
#    z 0.000000 0.000000 4.454300 
# 
# 
# High freq. dielectric constant tensor:
#      x y z
#    x 1.951950 0.000000 0.000000 
#    y 0.000000 1.921620 0.000000 
#    z 0.000000 0.000000 1.964200 
# 
# From -- ./inp_files/18698.got.cif
#   From: 2010.03.12/outbox.cif.g09.slc.cpg/sg72_10_cif.got.tgz:18698.got - 2010.04.16 14:54:00.
