data_PCOD8295450
_publ_section_title
;
Structure prediction by ZEFSAII (Michael W. Deem and Ramdas Pophale) SiO2 
 PCOD8295450
Probable space group: I B A M
;
_chemical_formula_sum "Si O2"
_cell_formula_units_Z 68
_cell_length_a 17.450736
_cell_length_b 9.745051
_cell_length_c 16.026812
_cell_angle_alpha 90.000000
_cell_angle_beta 90.000000
_cell_angle_gamma 90.000000
_cell_volume 2725.492600
_symmetry_space_group_name_H-M "I B A M"
_symmetry_group_IT_number 72
_symmetry_cell_setting 'orthorhombic'
loop_
_space_group_symop_operation_xyz
x,y,z
-x,-y,z
x,-y,1/2-z
-x,y,1/2-z
-x,-y,-z
x,y,-z
-x,y,1/2+z
x,-y,1/2+z
1/2+x,1/2+y,1/2+z
1/2-x,1/2-y,1/2+z
1/2+x,1/2-y,-z
1/2-x,1/2+y,-z
1/2-x,1/2-y,1/2-z
1/2+x,1/2+y,1/2-z
1/2-x,1/2+y,z
1/2+x,1/2-y,z
loop_
_atom_site_type_symbol
_atom_site_label
_atom_site_fract_x
_atom_site_fract_y
_atom_site_fract_z
Si Si1 0.667678 0.276722 0.174286
Si Si2 0.000000 0.500000 0.250000
Si Si3 0.513802 0.350350 0.904989
Si Si4 0.740751 0.989853 0.594423
Si Si5 0.382894 0.819410 0.346094
O O1 0.578164 0.266520 0.146903
O O2 0.695960 0.430447 0.150637
O O3 0.670901 0.249948 0.274107
O O4 0.719983 0.160746 0.129458
O O5 0.052806 0.588943 0.192818
O O6 0.500000 0.500000 0.866189
O O7 0.428149 0.289123 0.901686
O O8 0.542807 0.356440 0.000000
O O9 0.771273 0.972297 0.500000
O O10 0.666460 0.086022 0.593252
#
# Coordination Sequence:
#
# PCOD8295450 Si02
#       5
#    16   4  16  16  16
#     4  12  26  47  72 103 145 186 237 288 353 426
#     4  12  20  44  68 100 132 176 236 294 344 420
#     4  11  25  46  74 107 142 182 235 297 361 423
#     4  12  26  45  70 103 143 190 237 290 354 421
#     4  12  23  45  72 102 139 184 239 296 352 418
#
# _framework density 24.949617
#
# number of rings (size 3 to 8) (size 9 to 14) (size 15 to 20)
#    0.000    0.235    4.706    3.529    3.294    1.882 
#    0.000    3.529    0.000    0.000    0.000    0.000 
#    0.000    0.000    0.000    0.000    0.000    0.000 
#
# Total GULP energy -421608.101520 kJ/mol
# GULP energy per Si atom -12400.238280 kJ/mol
# Density = 2.489283 g / cm^3
# Si number density = 24.949617 Si / 1000 Ang^3
#
#
#
# Elastic Constant Matrix: (Units=GPa)
#
#
# Indices 1 2 3 4 5 6 
#
# 1 64.5093 24.2830 7.6977 0.0000 0.0000 0.0000
# 2 24.2830 113.7817 26.2900 0.0000 0.0000 0.0000
# 3 7.6977 26.2900 84.5017 0.0000 0.0000 0.0000
# 4 0.0000 0.0000 0.0000 20.4167 0.0000 0.0000
# 5 0.0000 0.0000 0.0000 0.0000 38.4345 0.0000
# 6 0.0000 0.0000 0.0000 0.0000 0.0000 70.0887
#
#
#
# Elastic Compliance Matrix: (Units=1/GPa)
#
#
# Indices 1 2 3 4 5 6 
#
# 1 0.016872 -0.003497 -0.000449 0.000000 0.000000 0.000000
# 2 -0.003497 0.010194 -0.002853 0.000000 0.000000 0.000000
# 3 -0.000449 -0.002853 0.012763 0.000000 0.000000 0.000000
# 4 0.000000 0.000000 0.000000 0.048979 0.000000 0.000000
# 5 0.000000 0.000000 0.000000 0.000000 0.026018 0.000000
# 6 0.000000 0.000000 0.000000 0.000000 0.000000 0.014268
#
#
# Mechanical properties :
#
#
# Convention : Reuss Voigt Hill
#
# Bulk Modulus (GPa) = 38.12353 42.14822 40.13588
# Shear Modulus (GPa) = 33.01740 39.42279 36.22010
#
# Velocity S-wave (km/s) = 3.64175 3.97935 3.81429
# Velocity P-wave (km/s) = 5.74426 6.16796 5.95987
#
# Compressibility (1/GPa) = 0.02623052
#
# Stress axis : x y z
#
# Youngs Moduli (GPa) = 59.27134 98.09415 78.35387
#
# Poissons Ratio (x) = 0.34303 0.03518
# Poissons Ratio (y) = 0.20727 0.22355
# Poissons Ratio (z) = 0.02661 0.27987
#
# Static dielectric constant tensor:
#      x y z
#    x 4.711680 0.000000 0.000000 
#    y 0.000000 4.556960 0.000000 
#    z 0.000000 0.000000 4.224960 
# 
# 
# High freq. dielectric constant tensor:
#      x y z
#    x 2.017360 0.000000 0.000000 
#    y 0.000000 2.003880 0.000000 
#    z 0.000000 0.000000 1.983060 
# 
# From -- ./inp_files/32297.got.cif
#   From: 2010.03.12/outbox.cif.g09.slc.cpg/sg72_17_cif.got.tgz:32297.got - 2010.04.16 14:54:00.
