data_PCOD8295229
_publ_section_title
;
Structure prediction by ZEFSAII (Michael W. Deem and Ramdas Pophale) SiO2 
 PCOD8295229
Probable space group: I B A M
;
_chemical_formula_sum "Si O2"
_cell_formula_units_Z 68
_cell_length_a 12.665983
_cell_length_b 14.084771
_cell_length_c 21.368348
_cell_angle_alpha 90.000000
_cell_angle_beta 90.000000
_cell_angle_gamma 90.000000
_cell_volume 3812.059222
_symmetry_space_group_name_H-M "I B A M"
_symmetry_group_IT_number 72
_symmetry_cell_setting 'orthorhombic'
loop_
_space_group_symop_operation_xyz
x,y,z
-x,-y,z
x,-y,1/2-z
-x,y,1/2-z
-x,-y,-z
x,y,-z
-x,y,1/2+z
x,-y,1/2+z
1/2+x,1/2+y,1/2+z
1/2-x,1/2-y,1/2+z
1/2+x,1/2-y,-z
1/2-x,1/2+y,-z
1/2-x,1/2-y,1/2-z
1/2+x,1/2+y,1/2-z
1/2-x,1/2+y,z
1/2+x,1/2-y,z
loop_
_atom_site_type_symbol
_atom_site_label
_atom_site_fract_x
_atom_site_fract_y
_atom_site_fract_z
Si Si1 0.094170 0.632446 0.426778
Si Si2 0.730959 0.719783 0.349863
Si Si3 0.107283 0.178406 0.727634
Si Si4 0.358474 0.920071 0.427339
Si Si5 0.500000 0.500000 0.750000
O O1 0.114578 0.653069 0.500000
O O2 0.148109 0.713583 0.385445
O O3 0.141416 0.530303 0.407405
O O4 0.969716 0.630500 0.411875
O O5 0.837742 0.777025 0.332806
O O6 0.685198 0.676025 0.286628
O O7 0.762822 0.631566 0.392679
O O8 0.000000 0.233964 0.750000
O O9 0.074330 0.070043 0.708504
O O10 0.335079 0.911736 0.500000
#
# Coordination Sequence:
#
# PCOD8295229 Si02
#       5
#    16  16  16  16   4
#     4   9  19  34  51  74 103 131 160 203 252 290
#     4  11  19  32  56  76  95 129 178 200 234 303
#     4   9  21  34  50  73 101 130 162 203 254 287
#     4   9  19  34  51  74 103 131 160 203 252 290
#     4   8  20  40  48  64 110 132 160 204 264 282
#
# _framework density 17.838128000000001
#
# number of rings (size 3 to 8) (size 9 to 14) (size 15 to 20)
#    0.706    1.882    0.000    3.529    3.294    0.000 
#    0.000    0.000    0.000    7.059    0.000   13.176 
#    0.000    0.000    0.000    0.000    0.000    0.000 
#
# Total GULP energy -421278.985117 kJ/mol
# GULP energy per Si atom -12390.558386 kJ/mol
# Density = 1.779753 g / cm^3
# Si number density = 17.838128 Si / 1000 Ang^3
#
#
#
# Elastic Constant Matrix: (Units=GPa)
#
#
# Indices 1 2 3 4 5 6 
#
# 1 51.2818 18.5856 12.6543 0.0000 0.0000 0.0000
# 2 18.5856 74.7756 25.5981 0.0000 0.0000 0.0000
# 3 12.6543 25.5981 48.7129 0.0000 0.0000 0.0000
# 4 0.0000 0.0000 0.0000 15.8692 0.0000 0.0000
# 5 0.0000 0.0000 0.0000 0.0000 29.7276 0.0000
# 6 0.0000 0.0000 0.0000 0.0000 0.0000 40.9239
#
#
#
# Elastic Compliance Matrix: (Units=1/GPa)
#
#
# Indices 1 2 3 4 5 6 
#
# 1 0.021896 -0.004262 -0.003448 0.000000 0.000000 0.000000
# 2 -0.004262 0.017136 -0.007898 0.000000 0.000000 0.000000
# 3 -0.003448 -0.007898 0.025575 0.000000 0.000000 0.000000
# 4 0.000000 0.000000 0.000000 0.063015 0.000000 0.000000
# 5 0.000000 0.000000 0.000000 0.000000 0.033639 0.000000
# 6 0.000000 0.000000 0.000000 0.000000 0.000000 0.024436
#
#
# Mechanical properties :
#
#
# Convention : Reuss Voigt Hill
#
# Bulk Modulus (GPa) = 29.94871 32.04960 30.99916
# Shear Modulus (GPa) = 21.92578 25.16629 23.54603
#
# Velocity S-wave (km/s) = 3.50973 3.76016 3.63710
# Velocity P-wave (km/s) = 5.76627 6.07105 5.92062
#
# Compressibility (1/GPa) = 0.03339042
#
# Stress axis : x y z
#
# Youngs Moduli (GPa) = 45.67135 58.35567 39.10142
#
# Poissons Ratio (x) = 0.24869 0.13484
# Poissons Ratio (y) = 0.19464 0.30882
# Poissons Ratio (z) = 0.15749 0.46089
#
# Static dielectric constant tensor:
#      x y z
#    x 3.358160 0.000000 0.000000 
#    y 0.000000 3.202460 0.000000 
#    z 0.000000 0.000000 3.047670 
# 
# 
# High freq. dielectric constant tensor:
#      x y z
#    x 1.694530 0.000000 0.000000 
#    y 0.000000 1.683820 0.000000 
#    z 0.000000 0.000000 1.674720 
# 
# From -- ./inp_files/37757.got.cif
#   From: 2010.03.12/outbox.cif.g09.slc.cpg/sg72_19_cif.got.tgz:37757.got - 2010.04.16 14:54:00.
