data_PCOD8295633
_publ_section_title
;
Structure prediction by ZEFSAII (Michael W. Deem and Ramdas Pophale) SiO2 
 PCOD8295633
Probable space group: I B C A 
;
_chemical_formula_sum "Si O2"
_cell_formula_units_Z 112
_cell_length_a 18.251867
_cell_length_b 16.054232
_cell_length_c 19.015127
_cell_angle_alpha 90.000000
_cell_angle_beta 90.000000
_cell_angle_gamma 90.000000
_cell_volume 5571.806947
_symmetry_space_group_name_H-M "I B C A "
_symmetry_group_IT_number 73
_symmetry_cell_setting 'orthorhombic'
loop_
_space_group_symop_operation_xyz
x,y,z
-x,1/2-y,z
x,-y,1/2-z
1/2-x,y,-z
-x,-y,-z
x,1/2+y,-z
-x,y,1/2+z
1/2+x,-y,z
1/2+x,1/2+y,1/2+z
1/2-x,-y,1/2+z
1/2+x,1/2-y,-z
-x,1/2+y,1/2-z
1/2-x,1/2-y,1/2-z
1/2+x,y,1/2-z
1/2-x,1/2+y,z
x,1/2-y,1/2+z
loop_
_atom_site_type_symbol
_atom_site_label
_atom_site_fract_x
_atom_site_fract_y
_atom_site_fract_z
Si Si1 0.201646 0.375178 0.125793
Si Si2 0.145925 0.535998 0.175514
Si Si3 0.824111 0.702225 0.734403
Si Si4 0.887320 0.780287 0.480180
Si Si5 0.494394 0.458753 0.111720
Si Si6 0.468311 0.119621 0.965855
Si Si7 0.631336 0.666238 0.863887
O O1 0.179288 0.472914 0.116356
O O2 0.152622 0.336937 0.190461
O O3 0.183882 0.320235 0.056890
O O4 0.287941 0.373042 0.139887
O O5 0.169559 0.500000 0.250000
O O6 0.181518 0.628834 0.174917
O O7 0.057922 0.538331 0.169618
O O8 0.750000 0.750000 0.750000
O O9 0.880420 0.769609 0.701207
O O10 0.900076 0.683653 0.459356
O O11 0.879372 0.784268 0.563738
O O12 0.955590 0.833816 0.453348
O O13 0.460548 0.549173 0.093698
O O14 0.428425 0.405521 0.143902
O O15 0.532480 0.420169 0.043031
#
# Coordination Sequence:
#
# PCOD8295633 Si02
#       7
#    16  16  16  16  16  16  16
#     4  10  20  38  59  82 118 153 193 244 299 348
#     4  10  20  37  60  83 114 155 194 240 295 352
#     4   9  20  39  58  81 112 153 192 231 294 354
#     4  10  18  35  59  84 113 152 198 239 291 346
#     4  10  19  37  56  86 118 148 201 237 295 357
#     4   9  19  33  58  82 115 154 185 243 298 345
#     4  10  21  37  58  84 116 155 193 242 290 355
#
# _framework density 20.101198
#
# number of rings (size 3 to 8) (size 9 to 14) (size 15 to 20)
#    0.000    2.286    1.429    1.286    0.000    1.714 
#    7.714    2.143    0.000    0.000    0.000    0.000 
#    0.000    0.000    0.000    0.000    0.000    0.000 
#
# Total GULP energy -694016.855237 kJ/mol
# GULP energy per Si atom -12393.158129 kJ/mol
# Density = 2.005545 g / cm^3
# Si number density = 20.101198 Si / 1000 Ang^3
#
#
#
# Elastic Constant Matrix: (Units=GPa)
#
#
# Indices 1 2 3 4 5 6 
#
# 1 81.8250 48.9114 12.1374 0.0000 0.0000 0.0000
# 2 48.9114 149.2931 28.8323 0.0000 0.0000 0.0000
# 3 12.1374 28.8323 42.7397 0.0000 0.0000 0.0000
# 4 0.0000 0.0000 0.0000 33.0336 0.0000 0.0000
# 5 0.0000 0.0000 0.0000 0.0000 28.4575 0.0000
# 6 0.0000 0.0000 0.0000 0.0000 0.0000 30.6544
#
#
#
# Elastic Compliance Matrix: (Units=1/GPa)
#
#
# Indices 1 2 3 4 5 6 
#
# 1 0.015243 -0.004781 -0.001104 0.000000 0.000000 0.000000
# 2 -0.004781 0.009201 -0.004849 0.000000 0.000000 0.000000
# 3 -0.001104 -0.004849 0.026982 0.000000 0.000000 0.000000
# 4 0.000000 0.000000 0.000000 0.030272 0.000000 0.000000
# 5 0.000000 0.000000 0.000000 0.000000 0.035140 0.000000
# 6 0.000000 0.000000 0.000000 0.000000 0.000000 0.032622
#
#
# Mechanical properties :
#
#
# Convention : Reuss Voigt Hill
#
# Bulk Modulus (GPa) = 33.37949 50.40224 41.89087
# Shear Modulus (GPa) = 27.63752 30.69419 29.16586
#
# Velocity S-wave (km/s) = 3.71201 3.91190 3.81327
# Velocity P-wave (km/s) = 5.91725 6.74779 6.34612
#
# Compressibility (1/GPa) = 0.02995852
#
# Stress axis : x y z
#
# Youngs Moduli (GPa) = 65.60571 108.68367 37.06138
#
# Poissons Ratio (x) = 0.51958 0.04090
# Poissons Ratio (y) = 0.31364 0.17973
# Poissons Ratio (z) = 0.07240 0.52705
#
# Static dielectric constant tensor:
#      x y z
#    x 3.359280 0.000000 0.000000 
#    y 0.000000 4.200810 0.000000 
#    z 0.000000 0.000000 3.637780 
# 
# 
# High freq. dielectric constant tensor:
#      x y z
#    x 1.759510 0.000000 0.000000 
#    y 0.000000 1.803530 0.000000 
#    z 0.000000 0.000000 1.767610 
# 
# From -- ./inp_files/22758.got.cif
#   From: 2010.03.12/outbox.cif.g09.slc.cpg/sg73_12_cif.got.tgz:22758.got - 2010.04.16 15:25:48.
