data_PCOD8295438
_publ_section_title
;
Structure prediction by ZEFSAII (Michael W. Deem and Ramdas Pophale) SiO2 
 PCOD8295438
Probable space group: I B A M
;
_chemical_formula_sum "Si O2"
_cell_formula_units_Z 64
_cell_length_a 22.290588
_cell_length_b 6.964760
_cell_length_c 14.673803
_cell_angle_alpha 90.000000
_cell_angle_beta 90.000000
_cell_angle_gamma 90.000000
_cell_volume 2278.087309
_symmetry_space_group_name_H-M "I B A M"
_symmetry_group_IT_number 72
_symmetry_cell_setting 'orthorhombic'
loop_
_space_group_symop_operation_xyz
x,y,z
-x,-y,z
x,-y,1/2-z
-x,y,1/2-z
-x,-y,-z
x,y,-z
-x,y,1/2+z
x,-y,1/2+z
1/2+x,1/2+y,1/2+z
1/2-x,1/2-y,1/2+z
1/2+x,1/2-y,-z
1/2-x,1/2+y,-z
1/2-x,1/2-y,1/2-z
1/2+x,1/2+y,1/2-z
1/2-x,1/2+y,z
1/2+x,1/2-y,z
loop_
_atom_site_type_symbol
_atom_site_label
_atom_site_fract_x
_atom_site_fract_y
_atom_site_fract_z
Si Si1 0.249018 0.334266 0.894678
Si Si2 0.555169 0.201663 0.500000
Si Si3 0.856722 0.149792 0.322358
Si Si4 0.645379 0.874435 0.158022
Si Si5 0.433319 0.651991 0.000000
O O1 0.214101 0.142288 0.852394
O O2 0.317137 0.338181 0.849849
O O3 0.199749 0.498837 0.879793
O O4 0.260527 0.299530 0.000000
O O5 0.588121 0.129160 0.408316
O O6 0.482648 0.169311 0.500000
O O7 0.547546 0.431670 0.500000
O O8 0.868394 0.359511 0.268470
O O9 0.895499 0.187029 0.410450
O O10 0.884261 0.000000 0.250000
#
# Coordination Sequence:
#
# PCOD8295438 Si02
#       5
#    16   8  16  16   8
#     4  12  24  44  75 110 154 192 230 301 373 443
#     4  11  24  46  76 109 138 193 250 304 350 433
#     4  12  25  45  74 105 147 189 242 295 367 432
#     4  12  25  44  73 112 148 189 243 294 369 439
#     4  11  26  48  74 105 142 193 250 301 356 417
#
# _framework density 28.093744999999998
#
# number of rings (size 3 to 8) (size 9 to 14) (size 15 to 20)
#    0.000    0.250    6.250    3.000    0.000    1.000 
#    0.000    2.500    0.000    3.000    0.000    0.000 
#    0.000    0.000    0.000    0.000    0.000    0.000 
#
# Total GULP energy -396461.165948 kJ/mol
# GULP energy per Si atom -12389.411436 kJ/mol
# Density = 2.802980 g / cm^3
# Si number density = 28.093745 Si / 1000 Ang^3
#
#
#
# Elastic Constant Matrix: (Units=GPa)
#
#
# Indices 1 2 3 4 5 6 
#
# 1 192.3534 -0.2668 87.7201 0.0000 0.0000 0.0000
# 2 -0.2668 30.2436 2.6973 0.0000 0.0000 0.0000
# 3 87.7201 2.6973 246.3076 0.0000 0.0000 0.0000
# 4 0.0000 0.0000 0.0000 20.4386 0.0000 0.0000
# 5 0.0000 0.0000 0.0000 0.0000 -636.7786 0.0000
# 6 0.0000 0.0000 0.0000 0.0000 0.0000 32.6430
#
#
#
# Elastic Compliance Matrix: (Units=1/GPa)
#
#
# Indices 1 2 3 4 5 6 
#
# 1 0.006209 0.000252 -0.002214 0.000000 0.000000 0.000000
# 2 0.000252 0.033107 -0.000452 0.000000 0.000000 0.000000
# 3 -0.002214 -0.000452 0.004853 0.000000 0.000000 0.000000
# 4 0.000000 0.000000 0.000000 0.048927 0.000000 0.000000
# 5 0.000000 0.000000 0.000000 0.000000 -0.001570 0.000000
# 6 0.000000 0.000000 0.000000 0.000000 0.000000 0.030634
#
#
# Mechanical properties :
#
#
# Convention : Reuss Voigt Hill
#
# Bulk Modulus (GPa) = 25.41852 72.13398 48.77625
# Shear Modulus (GPa) = 35.68813 -91.48912 -27.90050
#
# Velocity S-wave (km/s) = 3.56803 -5.71282 -3.15480
# Velocity P-wave (km/s) = 5.10312 4.21702 2.03206
#
# Compressibility (1/GPa) = 0.03934140
#
# Stress axis : x y z
#
# Youngs Moduli (GPa) = 161.06288 30.20466 206.04128
#
# Poissons Ratio (x) = -0.00762 0.45617
# Poissons Ratio (y) = -0.04063 0.09321
# Poissons Ratio (z) = 0.35659 0.01366
#
# Static dielectric constant tensor:
#      x y z
#    x 5.129650 0.000000 0.000000 
#    y 0.000000 8.433210 0.000000 
#    z 0.000000 0.000000 5.141850 
# 
# 
# High freq. dielectric constant tensor:
#      x y z
#    x 2.110160 0.000000 0.000000 
#    y 0.000000 2.250450 0.000000 
#    z 0.000000 0.000000 2.156760 
# 
# From -- ./inp_files/32228.got.cif
#   From: 2010.03.12/outbox.cif.g09.slc.cpg/sg72_17_cif.got.tgz:32228.got - 2010.04.16 14:54:00.
