data_PCOD8295190
_publ_section_title
;
Structure prediction by ZEFSAII (Michael W. Deem and Ramdas Pophale) SiO2 
 PCOD8295190
Probable space group: I B A M
;
_chemical_formula_sum "Si O2"
_cell_formula_units_Z 56
_cell_length_a 29.466161
_cell_length_b 8.812245
_cell_length_c 10.473366
_cell_angle_alpha 90.000000
_cell_angle_beta 90.000000
_cell_angle_gamma 90.000000
_cell_volume 2719.545949
_symmetry_space_group_name_H-M "I B A M"
_symmetry_group_IT_number 72
_symmetry_cell_setting 'orthorhombic'
loop_
_space_group_symop_operation_xyz
x,y,z
-x,-y,z
x,-y,1/2-z
-x,y,1/2-z
-x,-y,-z
x,y,-z
-x,y,1/2+z
x,-y,1/2+z
1/2+x,1/2+y,1/2+z
1/2-x,1/2-y,1/2+z
1/2+x,1/2-y,-z
1/2-x,1/2+y,-z
1/2-x,1/2-y,1/2-z
1/2+x,1/2+y,1/2-z
1/2-x,1/2+y,z
1/2+x,1/2-y,z
loop_
_atom_site_type_symbol
_atom_site_label
_atom_site_fract_x
_atom_site_fract_y
_atom_site_fract_z
Si Si1 0.050877 0.678698 0.500000
Si Si2 0.259332 0.000000 0.250000
Si Si3 0.189305 0.227000 0.856996
Si Si4 0.555241 0.824457 0.000000
Si Si5 0.094377 0.824856 0.747672
O O1 0.063675 0.502951 0.500000
O O2 0.070955 0.749929 0.626868
O O3 0.997699 0.711817 0.500000
O O4 0.228767 0.896598 0.341565
O O5 0.291100 0.895021 0.162970
O O6 0.148724 0.193910 0.758720
O O7 0.169813 0.215501 0.000000
O O8 0.578093 0.754330 0.875848
O O9 0.080521 0.000000 0.750000
#
# Coordination Sequence:
#
# PCOD8295190 Si02
#       5
#     8   8  16   8  16
#     4  11  25  49  69  96 135 176 230 274 334 401
#     4  10  24  42  64  96 128 176 218 270 324 386
#     4  11  23  43  66  96 133 172 219 269 326 393
#     4  11  27  45  71 100 131 180 224 276 334 405
#     4  12  25  42  70 103 138 174 222 279 334 398
#
# _framework density 20.591673
#
# number of rings (size 3 to 8) (size 9 to 14) (size 15 to 20)
#    0.000    0.857    2.857    3.429    4.000    5.714 
#   10.286    0.000    0.000    0.000    0.000    0.000 
#    0.000    0.000    0.000    0.000    0.000    0.000 
#
# Total GULP energy -347380.689177 kJ/mol
# GULP energy per Si atom -12406.453185 kJ/mol
# Density = 2.054481 g / cm^3
# Si number density = 20.591673 Si / 1000 Ang^3
#
#
#
# Elastic Constant Matrix: (Units=GPa)
#
#
# Indices 1 2 3 4 5 6 
#
# 1 94.1808 46.9992 50.8614 0.0000 0.0000 0.0000
# 2 46.9992 95.3688 39.8279 0.0000 0.0000 0.0000
# 3 50.8614 39.8279 157.5351 0.0000 0.0000 0.0000
# 4 0.0000 0.0000 0.0000 35.4850 0.0000 0.0000
# 5 0.0000 0.0000 0.0000 0.0000 29.7962 0.0000
# 6 0.0000 0.0000 0.0000 0.0000 0.0000 -0.4909
#
#
#
# Elastic Compliance Matrix: (Units=1/GPa)
#
#
# Indices 1 2 3 4 5 6 
#
# 1 0.015602 -0.006244 -0.003458 0.000000 0.000000 0.000000
# 2 -0.006244 0.014223 -0.001580 0.000000 0.000000 0.000000
# 3 -0.003458 -0.001580 0.007864 0.000000 0.000000 0.000000
# 4 0.000000 0.000000 0.000000 0.028181 0.000000 0.000000
# 5 0.000000 0.000000 0.000000 0.000000 0.033561 0.000000
# 6 0.000000 0.000000 0.000000 0.000000 0.000000 -2.037172
#
#
# Mechanical properties :
#
#
# Convention : Reuss Voigt Hill
#
# Bulk Modulus (GPa) = 66.12440 69.16240 67.64340
# Shear Modulus (GPa) = -2.61762 26.91780 12.15009
#
# Velocity S-wave (km/s) = -1.12870 3.61947 2.43173
# Velocity P-wave (km/s) = 5.52117 7.15038 6.38793
#
# Compressibility (1/GPa) = 0.01512301
#
# Stress axis : x y z
#
# Youngs Moduli (GPa) = 64.09529 70.31015 127.16585
#
# Poissons Ratio (x) = 0.43905 0.43979
# Poissons Ratio (y) = 0.40024 0.20088
# Poissons Ratio (z) = 0.22167 0.11107
#
# Static dielectric constant tensor:
#      x y z
#    x 3.902930 0.000000 0.000000 
#    y 0.000000 3.980540 0.000000 
#    z 0.000000 0.000000 3.471550 
# 
# 
# High freq. dielectric constant tensor:
#      x y z
#    x 1.819990 0.000000 0.000000 
#    y 0.000000 1.825230 0.000000 
#    z 0.000000 0.000000 1.811530 
# 
# From -- ./inp_files/15991.got.cif
#   From: 2010.03.12/outbox.cif.g09.slc.cpg/sg72_8_cif.got.tgz:15991.got - 2010.04.16 14:54:00.
