data_PCOD8295476
_publ_section_title
;
Structure prediction by ZEFSAII (Michael W. Deem and Ramdas Pophale) SiO2 
 PCOD8295476
Probable space group: I B A M
;
_chemical_formula_sum "Si O2"
_cell_formula_units_Z 96
_cell_length_a 10.344202
_cell_length_b 34.009626
_cell_length_c 15.687407
_cell_angle_alpha 90.000000
_cell_angle_beta 90.000000
_cell_angle_gamma 90.000000
_cell_volume 5518.868080
_symmetry_space_group_name_H-M "I B A M"
_symmetry_group_IT_number 72
_symmetry_cell_setting 'orthorhombic'
loop_
_space_group_symop_operation_xyz
x,y,z
-x,-y,z
x,-y,1/2-z
-x,y,1/2-z
-x,-y,-z
x,y,-z
-x,y,1/2+z
x,-y,1/2+z
1/2+x,1/2+y,1/2+z
1/2-x,1/2-y,1/2+z
1/2+x,1/2-y,-z
1/2-x,1/2+y,-z
1/2-x,1/2-y,1/2-z
1/2+x,1/2+y,1/2-z
1/2-x,1/2+y,z
1/2+x,1/2-y,z
loop_
_atom_site_type_symbol
_atom_site_label
_atom_site_fract_x
_atom_site_fract_y
_atom_site_fract_z
Si Si1 0.127760 0.259375 0.194641
Si Si2 0.552267 0.684040 0.399312
Si Si3 0.881235 0.100128 0.404137
Si Si4 0.734503 0.676710 0.097173
Si Si5 0.187350 0.910748 0.907411
Si Si6 0.846323 0.044641 0.254523
O O1 0.250000 0.250000 0.250000
O O2 0.152255 0.300209 0.145705
O O3 0.000000 0.264348 0.250000
O O4 0.121854 0.223735 0.127726
O O5 0.539872 0.680910 0.500000
O O6 0.634827 0.645309 0.369955
O O7 0.406714 0.684911 0.360495
O O8 0.823840 0.094156 0.500000
O O9 0.809700 0.069193 0.340432
O O10 0.034071 0.094301 0.406967
O O11 0.762131 0.630362 0.103158
O O12 0.735341 0.691346 0.000000
O O13 0.226065 0.937453 0.827637
O O14 0.226220 0.929318 0.000000
O O15 0.000000 0.046376 0.250000
O O16 0.796881 0.000000 0.250000
#
# Coordination Sequence:
#
# PCOD8295476 Si02
#       6
#    16  16  16  16  16  16
#     4  12  23  33  48  75 101 127 163 208 252 290
#     4   9  18  33  49  66  91 129 171 206 243 293
#     4   8  15  26  41  59  84 122 163 198 237 290
#     4   9  18  34  51  67  93 130 168 204 241 291
#     4   8  15  27  43  61  84 121 164 199 236 288
#     4   9  16  23  36  60  91 124 156 197 246 295
#
# _framework density 17.394870000000001
#
# number of rings (size 3 to 8) (size 9 to 14) (size 15 to 20)
#    0.000    2.833    1.667    2.500    2.333    1.333 
#    0.000    3.333    0.000    0.000    0.000    0.000 
#    0.000    0.667    0.000    3.667    0.000    3.667 
#
# Total GULP energy -594696.510778 kJ/mol
# GULP energy per Si atom -12389.510641 kJ/mol
# Density = 1.735528 g / cm^3
# Si number density = 17.394870 Si / 1000 Ang^3
#
#
#
# Elastic Constant Matrix: (Units=GPa)
#
#
# Indices 1 2 3 4 5 6 
#
# 1 40.0452 24.3210 22.7079 0.0000 0.0000 0.0000
# 2 24.3210 130.5093 75.0002 0.0000 0.0000 0.0000
# 3 22.7079 75.0002 106.3356 -0.0004 0.0001 0.0000
# 4 0.0000 0.0000 -0.0004 33.5883 0.0000 0.0000
# 5 0.0000 0.0000 0.0001 0.0000 13.7137 0.0000
# 6 0.0000 0.0000 0.0000 0.0000 0.0000 13.5356
#
#
#
# Elastic Compliance Matrix: (Units=1/GPa)
#
#
# Indices 1 2 3 4 5 6 
#
# 1 0.029148 -0.003119 -0.004025 0.000000 0.000000 0.000000
# 2 -0.003119 0.013219 -0.008657 0.000000 0.000000 0.000000
# 3 -0.004025 -0.008657 0.016370 0.000000 0.000000 0.000000
# 4 0.000000 0.000000 0.000000 0.029772 0.000000 0.000000
# 5 0.000000 0.000000 0.000000 0.000000 0.072920 0.000000
# 6 0.000000 0.000000 0.000000 0.000000 0.000000 0.073879
#
#
# Mechanical properties :
#
#
# Convention : Reuss Voigt Hill
#
# Bulk Modulus (GPa) = 36.85309 57.88314 47.36812
# Shear Modulus (GPa) = 18.11888 22.49157 20.30522
#
# Velocity S-wave (km/s) = 3.23092 3.59973 3.42030
# Velocity P-wave (km/s) = 5.92880 7.11517 6.54890
#
# Compressibility (1/GPa) = 0.02713476
#
# Stress axis : x y z
#
# Youngs Moduli (GPa) = 34.30725 75.65084 61.08826
#
# Poissons Ratio (x) = 0.23596 0.24586
# Poissons Ratio (y) = 0.10701 0.52886
# Poissons Ratio (z) = 0.13808 0.65493
#
# Static dielectric constant tensor:
#      x y z
#    x 2.846130 0.000000 0.000000 
#    y 0.000000 3.064380 0.000000 
#    z 0.000000 0.000000 3.512860 
# 
# 
# High freq. dielectric constant tensor:
#      x y z
#    x 1.591480 0.000000 0.000000 
#    y 0.000000 1.675390 0.000000 
#    z 0.000000 0.000000 1.686590 
# 
# From -- ./inp_files/29607.got.cif
#   From: 2010.03.12/outbox.cif.g09.slc.cpg/sg72_15_cif.got.tgz:29607.got - 2010.04.16 14:54:00.
