data_PCOD8295525
_publ_section_title
;
Structure prediction by ZEFSAII (Michael W. Deem and Ramdas Pophale) SiO2 
 PCOD8295525
Probable space group: I B C A 
;
_chemical_formula_sum "Si O2"
_cell_formula_units_Z 72
_cell_length_a 41.384435
_cell_length_b 5.317631
_cell_length_c 13.384524
_cell_angle_alpha 90.000000
_cell_angle_beta 90.000000
_cell_angle_gamma 90.000000
_cell_volume 2945.494111
_symmetry_space_group_name_H-M "I B C A "
_symmetry_group_IT_number 73
_symmetry_cell_setting 'orthorhombic'
loop_
_space_group_symop_operation_xyz
x,y,z
-x,1/2-y,z
x,-y,1/2-z
1/2-x,y,-z
-x,-y,-z
x,1/2+y,-z
-x,y,1/2+z
1/2+x,-y,z
1/2+x,1/2+y,1/2+z
1/2-x,-y,1/2+z
1/2+x,1/2-y,-z
-x,1/2+y,1/2-z
1/2-x,1/2-y,1/2-z
1/2+x,y,1/2-z
1/2-x,1/2+y,z
x,1/2-y,1/2+z
loop_
_atom_site_type_symbol
_atom_site_label
_atom_site_fract_x
_atom_site_fract_y
_atom_site_fract_z
Si Si1 0.402441 0.739992 0.856666
Si Si2 0.236704 0.852303 0.612804
Si Si3 0.570418 0.240630 0.367166
Si Si4 0.164571 0.324305 0.436497
Si Si5 0.500000 0.750000 0.686408
O O1 0.417965 0.750189 0.747739
O O2 0.417531 0.501233 0.916857
O O3 0.363619 0.712864 0.854322
O O4 0.412674 0.994745 0.915792
O O5 0.250000 0.891762 0.500000
O O6 0.255041 0.618589 0.666706
O O7 0.198693 0.799316 0.618658
O O8 0.531875 0.212170 0.380312
O O9 0.161522 0.602672 0.482433
O O10 0.494122 0.500000 0.750000
#
# Coordination Sequence:
#
# PCOD8295525 Si02
#       5
#    16  16  16  16   8
#     4  10  20  32  49  74 110 132 160 210 254 306
#     4  10  16  30  48  67  99 118 166 224 242 284
#     4  10  19  35  52  81 100 127 170 208 261 291
#     4  12  21  32  50  77 104 138 168 200 265 302
#     4  12  16  30  58  82 100 120 166 230 258 280
#
# _framework density 24.444116000000001
#
# number of rings (size 3 to 8) (size 9 to 14) (size 15 to 20)
#    0.000    1.333    8.889    1.333    0.000    0.000 
#    0.000    0.000    0.000    0.000    0.000   45.111 
#    0.000    0.000    0.000    0.000    0.000    0.000 
#
# Total GULP energy -446134.281589 kJ/mol
# GULP energy per Si atom -12392.618933 kJ/mol
# Density = 2.438848 g / cm^3
# Si number density = 24.444116 Si / 1000 Ang^3
#
#
#
# Elastic Constant Matrix: (Units=GPa)
#
#
# Indices 1 2 3 4 5 6 
#
# 1 239.6768 49.7328 8.6622 0.0000 0.0000 0.0000
# 2 49.7328 255.7237 -7.6183 0.0000 0.0000 0.0000
# 3 8.6622 -7.6183 27.3663 0.0000 0.0000 0.0000
# 4 0.0000 0.0000 0.0000 -7.2272 0.0000 0.0000
# 5 0.0000 0.0000 0.0000 0.0000 -8.9746 0.0000
# 6 0.0000 0.0000 0.0000 0.0000 0.0000 44.2285
#
#
#
# Elastic Compliance Matrix: (Units=1/GPa)
#
#
# Indices 1 2 3 4 5 6 
#
# 1 0.004421 -0.000909 -0.001652 0.000000 0.000000 0.000000
# 2 -0.000909 0.004130 0.001437 0.000000 0.000000 0.000000
# 3 -0.001652 0.001437 0.037465 0.000000 0.000000 0.000000
# 4 0.000000 0.000000 0.000000 -0.138367 0.000000 0.000000
# 5 0.000000 0.000000 0.000000 0.000000 -0.111425 0.000000
# 6 0.000000 0.000000 0.000000 0.000000 0.000000 0.022610
#
#
# Mechanical properties :
#
#
# Convention : Reuss Voigt Hill
#
# Bulk Modulus (GPa) = 22.84793 69.36890 46.10841
# Shear Modulus (GPa) = -30.42661 37.07134 3.32236
#
# Velocity S-wave (km/s) = -3.53192 3.89855 1.16710
# Velocity P-wave (km/s) = 2.69542 6.97890 4.55191
#
# Compressibility (1/GPa) = 0.04376764
#
# Stress axis : x y z
#
# Youngs Moduli (GPa) = 226.21340 242.12707 26.69193
#
# Poissons Ratio (x) = 0.22008 0.04410
# Poissons Ratio (y) = 0.20561 -0.03837
# Poissons Ratio (z) = 0.37377 -0.34804
#
# Static dielectric constant tensor:
#      x y z
#    x 4.575280 0.000000 0.000000 
#    y 0.000000 8.510110 0.000000 
#    z 0.000000 0.000000 3.755080 
# 
# 
# High freq. dielectric constant tensor:
#      x y z
#    x 1.978200 0.000000 0.000000 
#    y 0.000000 2.019990 0.000000 
#    z 0.000000 0.000000 1.922570 
# 
# From -- ./inp_files/27748.got.cif
#   From: 2010.03.12/outbox.cif.g09.slc.cpg/sg73_14_cif.got.tgz:27748.got - 2010.04.16 15:25:48.
