data_PCOD8295773
_publ_section_title
;
Structure prediction by ZEFSAII (Michael W. Deem and Ramdas Pophale) SiO2 
 PCOD8295773
Probable space group: I B C A 
;
_chemical_formula_sum "Si O2"
_cell_formula_units_Z 112
_cell_length_a 17.768622
_cell_length_b 14.521935
_cell_length_c 20.577832
_cell_angle_alpha 90.000000
_cell_angle_beta 90.000000
_cell_angle_gamma 90.000000
_cell_volume 5309.796224
_symmetry_space_group_name_H-M "I B C A "
_symmetry_group_IT_number 73
_symmetry_cell_setting 'orthorhombic'
loop_
_space_group_symop_operation_xyz
x,y,z
-x,1/2-y,z
x,-y,1/2-z
1/2-x,y,-z
-x,-y,-z
x,1/2+y,-z
-x,y,1/2+z
1/2+x,-y,z
1/2+x,1/2+y,1/2+z
1/2-x,-y,1/2+z
1/2+x,1/2-y,-z
-x,1/2+y,1/2-z
1/2-x,1/2-y,1/2-z
1/2+x,y,1/2-z
1/2-x,1/2+y,z
x,1/2-y,1/2+z
loop_
_atom_site_type_symbol
_atom_site_label
_atom_site_fract_x
_atom_site_fract_y
_atom_site_fract_z
Si Si1 0.219616 0.594833 0.665558
Si Si2 0.717638 0.452193 0.067734
Si Si3 0.768679 0.253728 0.571443
Si Si4 0.083887 0.029454 0.854556
Si Si5 0.069484 0.006230 0.178760
Si Si6 0.584890 0.218049 0.353491
Si Si7 0.362755 0.867957 0.234278
O O1 0.248596 0.506618 0.627342
O O2 0.221216 0.685096 0.621200
O O3 0.136147 0.567861 0.685923
O O4 0.272358 0.614373 0.728494
O O5 0.737025 0.347321 0.076339
O O6 0.627019 0.464116 0.075928
O O7 0.750000 0.491621 0.000000
O O8 0.750000 0.293783 0.500000
O O9 0.858127 0.252046 0.589007
O O10 0.112419 0.112273 0.807732
O O11 0.096981 0.931829 0.819357
O O12 0.994628 0.034462 0.869493
O O13 0.092601 0.108163 0.155484
O O14 0.031174 0.000000 0.250000
O O15 0.500000 0.250000 0.371313
O O16 0.612658 0.264428 0.285608
#
# Coordination Sequence:
#
# PCOD8295773 Si02
#       7
#    16  16  16  16  16  16  16
#     4  10  22  37  61  90 123 155 208 257 304 371
#     4  10  21  39  62  84 117 166 208 247 301 367
#     4  10  22  42  64  88 119 162 214 261 307 368
#     4  10  19  38  59  86 126 161 199 252 320 354
#     4  12  23  37  58  97 130 160 203 257 313 378
#     4  11  20  38  62  92 122 160 212 255 312 372
#     4   9  19  36  61  84 119 167 193 251 316 366
#
# _framework density 21.093088000000002
#
# number of rings (size 3 to 8) (size 9 to 14) (size 15 to 20)
#    0.000    1.714    4.286    0.429    4.000    1.143 
#    0.000    8.571    0.000    0.000    0.000    0.000 
#    0.000    0.000    0.000    0.000    0.000    0.000 
#
# Total GULP energy -693989.926455 kJ/mol
# GULP energy per Si atom -12392.677258 kJ/mol
# Density = 2.104508 g / cm^3
# Si number density = 21.093088 Si / 1000 Ang^3
#
#
#
# Elastic Constant Matrix: (Units=GPa)
#
#
# Indices 1 2 3 4 5 6 
#
# 1 168.1762 28.7946 38.9261 0.0000 0.0000 0.0000
# 2 28.7946 62.4496 25.8841 0.0000 0.0000 0.0000
# 3 38.9261 25.8841 71.1127 0.0000 0.0000 0.0000
# 4 0.0000 0.0000 0.0000 18.6171 0.0000 0.0000
# 5 0.0000 0.0000 0.0000 0.0000 27.6551 0.0000
# 6 0.0000 0.0000 0.0000 0.0000 0.0000 19.0486
#
#
#
# Elastic Compliance Matrix: (Units=1/GPa)
#
#
# Indices 1 2 3 4 5 6 
#
# 1 0.007001 -0.001931 -0.003129 0.000000 0.000000 0.000000
# 2 -0.001931 0.019391 -0.006001 0.000000 0.000000 0.000000
# 3 -0.003129 -0.006001 0.017959 0.000000 0.000000 0.000000
# 4 0.000000 0.000000 0.000000 0.053714 0.000000 0.000000
# 5 0.000000 0.000000 0.000000 0.000000 0.036160 0.000000
# 6 0.000000 0.000000 0.000000 0.000000 0.000000 0.052497
#
#
# Mechanical properties :
#
#
# Convention : Reuss Voigt Hill
#
# Bulk Modulus (GPa) = 44.98753 54.32757 49.65755
# Shear Modulus (GPa) = 23.12093 26.93974 25.03034
#
# Velocity S-wave (km/s) = 3.31439 3.57765 3.44853
# Velocity P-wave (km/s) = 6.00177 6.54814 6.28090
#
# Compressibility (1/GPa) = 0.02222838
#
# Stress axis : x y z
#
# Youngs Moduli (GPa) = 142.83457 51.57157 55.68105
#
# Poissons Ratio (x) = 0.09959 0.17425
# Poissons Ratio (y) = 0.27582 0.33414
# Poissons Ratio (z) = 0.44699 0.30947
#
# Static dielectric constant tensor:
#      x y z
#    x 4.136210 0.000000 0.000000 
#    y 0.000000 3.856180 0.000000 
#    z 0.000000 0.000000 3.761210 
# 
# 
# High freq. dielectric constant tensor:
#      x y z
#    x 1.834260 0.000000 0.000000 
#    y 0.000000 1.834190 0.000000 
#    z 0.000000 0.000000 1.790230 
# 
# From -- ./inp_files/29563.got.cif
#   From: 2010.03.12/outbox.cif.g09.slc.cpg/sg73_15_cif.got.tgz:29563.got - 2010.04.16 15:25:48.
