data_PCOD8295502
_publ_section_title
;
Structure prediction by ZEFSAII (Michael W. Deem and Ramdas Pophale) SiO2 
 PCOD8295502
Probable space group: I B A M
;
_chemical_formula_sum "Si O2"
_cell_formula_units_Z 64
_cell_length_a 8.321636
_cell_length_b 23.875857
_cell_length_c 13.977710
_cell_angle_alpha 90.000000
_cell_angle_beta 90.000000
_cell_angle_gamma 90.000000
_cell_volume 2777.177961
_symmetry_space_group_name_H-M "I B A M"
_symmetry_group_IT_number 72
_symmetry_cell_setting 'orthorhombic'
loop_
_space_group_symop_operation_xyz
x,y,z
-x,-y,z
x,-y,1/2-z
-x,y,1/2-z
-x,-y,-z
x,y,-z
-x,y,1/2+z
x,-y,1/2+z
1/2+x,1/2+y,1/2+z
1/2-x,1/2-y,1/2+z
1/2+x,1/2-y,-z
1/2-x,1/2+y,-z
1/2-x,1/2-y,1/2-z
1/2+x,1/2+y,1/2-z
1/2-x,1/2+y,z
1/2+x,1/2-y,z
loop_
_atom_site_type_symbol
_atom_site_label
_atom_site_fract_x
_atom_site_fract_y
_atom_site_fract_z
Si Si1 0.735115 0.513839 0.000000
Si Si2 0.902631 0.086463 0.843707
Si Si3 0.727901 0.765353 0.500000
Si Si4 0.554210 0.086291 0.500000
Si Si5 0.588374 0.843107 0.655991
Si Si6 0.534368 0.665749 0.500000
O O1 0.634041 0.530479 0.094398
O O2 0.775994 0.447470 0.000000
O O3 0.900972 0.546426 0.000000
O O4 0.735953 0.116366 0.816091
O O5 0.000000 0.068474 0.750000
O O6 0.010623 0.128756 0.905984
O O7 0.649678 0.790492 0.595897
O O8 0.707435 0.697334 0.500000
O O9 0.914590 0.780738 0.500000
O O10 0.544862 0.123024 0.595544
O O11 0.500000 0.820175 0.750000
#
# Coordination Sequence:
#
# PCOD8295502 Si02
#       6
#     8  16   8   8  16   8
#     4   8  15  32  56  79 105 138 181 227 275 332
#     4   9  18  33  53  79 112 146 178 224 283 333
#     4   9  19  34  51  77 110 145 185 227 272 327
#     4   8  15  32  56  79 103 136 181 233 278 318
#     4   9  18  33  54  80 108 139 183 232 274 325
#     4   9  19  34  51  75 110 150 187 226 273 326
#
# _framework density 23.044975999999998
#
# number of rings (size 3 to 8) (size 9 to 14) (size 15 to 20)
#    0.000    3.250    0.000    3.000    0.000    3.000 
#    0.000   18.750    0.000    4.500    0.000    7.000 
#    0.000    8.000    0.000    0.000    0.000    0.000 
#
# Total GULP energy -396694.529643 kJ/mol
# GULP energy per Si atom -12396.704051 kJ/mol
# Density = 2.299252 g / cm^3
# Si number density = 23.044976 Si / 1000 Ang^3
#
#
#
# Elastic Constant Matrix: (Units=GPa)
#
#
# Indices 1 2 3 4 5 6 
#
# 1 74.2121 20.9202 47.7692 0.0002 0.0000 0.0000
# 2 20.9202 34.8407 6.8724 0.0002 0.0000 0.0000
# 3 47.7692 6.8724 149.2349 0.0010 -0.0001 0.0001
# 4 0.0002 0.0002 0.0010 18.1795 0.0001 0.0000
# 5 0.0000 0.0000 -0.0001 0.0001 35.5988 0.0001
# 6 0.0000 0.0000 0.0001 0.0000 0.0001 43.4907
#
#
#
# Elastic Compliance Matrix: (Units=1/GPa)
#
#
# Indices 1 2 3 4 5 6 
#
# 1 0.020504 -0.011118 -0.006051 0.000000 0.000000 0.000000
# 2 -0.011118 0.034994 0.001947 0.000000 0.000000 0.000000
# 3 -0.006051 0.001947 0.008548 0.000000 0.000000 0.000000
# 4 0.000000 0.000000 0.000000 0.055007 0.000000 0.000000
# 5 0.000000 0.000000 0.000000 0.000000 0.028091 0.000000
# 6 0.000000 0.000000 0.000000 0.000000 0.000000 0.022993
#
#
# Mechanical properties :
#
#
# Convention : Reuss Voigt Hill
#
# Bulk Modulus (GPa) = 29.76006 45.49012 37.62509
# Shear Modulus (GPa) = 23.60914 31.63553 27.62234
#
# Velocity S-wave (km/s) = 3.20422 3.70912 3.46588
# Velocity P-wave (km/s) = 5.16056 6.17462 5.69022
#
# Compressibility (1/GPa) = 0.03360208
#
# Stress axis : x y z
#
# Youngs Moduli (GPa) = 48.77047 28.57638 116.98443
#
# Poissons Ratio (x) = 0.31772 0.70790
# Poissons Ratio (y) = 0.54224 -0.22781
# Poissons Ratio (z) = 0.29512 -0.05565
#
# Static dielectric constant tensor:
#      x y z
#    x 4.294370 0.000000 0.000000 
#    y 0.000000 4.093020 0.000000 
#    z 0.000000 0.000000 3.912520 
# 
# 
# High freq. dielectric constant tensor:
#      x y z
#    x 1.916730 0.000000 0.000000 
#    y 0.000000 1.901240 0.000000 
#    z 0.000000 0.000000 1.900110 
# 
# From -- ./inp_files/18748.got.cif
#   From: 2010.03.12/outbox.cif.g09.slc.cpg/sg72_10_cif.got.tgz:18748.got - 2010.04.16 14:54:00.
