data_PCOD8295517
_publ_section_title
;
Structure prediction by ZEFSAII (Michael W. Deem and Ramdas Pophale) SiO2 
 PCOD8295517
Probable space group: I B C A 
;
_chemical_formula_sum "Si O2"
_cell_formula_units_Z 56
_cell_length_a 5.220444
_cell_length_b 36.798980
_cell_length_c 12.925703
_cell_angle_alpha 90.000000
_cell_angle_beta 90.000000
_cell_angle_gamma 90.000000
_cell_volume 2483.118212
_symmetry_space_group_name_H-M "I B C A "
_symmetry_group_IT_number 73
_symmetry_cell_setting 'orthorhombic'
loop_
_space_group_symop_operation_xyz
x,y,z
-x,1/2-y,z
x,-y,1/2-z
1/2-x,y,-z
-x,-y,-z
x,1/2+y,-z
-x,y,1/2+z
1/2+x,-y,z
1/2+x,1/2+y,1/2+z
1/2-x,-y,1/2+z
1/2+x,1/2-y,-z
-x,1/2+y,1/2-z
1/2-x,1/2-y,1/2-z
1/2+x,y,1/2-z
1/2-x,1/2+y,z
x,1/2-y,1/2+z
loop_
_atom_site_type_symbol
_atom_site_label
_atom_site_fract_x
_atom_site_fract_y
_atom_site_fract_z
Si Si1 0.250000 0.272856 0.000000
Si Si2 0.193130 0.406071 0.812951
Si Si3 0.377607 0.484551 0.131838
Si Si4 0.629757 0.173400 0.182673
O O1 0.500000 0.250000 0.966413
O O2 0.162184 0.296937 0.904490
O O3 0.491563 0.408272 0.781964
O O4 0.128178 0.440957 0.882179
O O5 0.147902 0.367094 0.868203
O O6 0.375046 0.500000 0.250000
O O7 0.628210 0.499698 0.074465
O O8 0.348345 0.178633 0.230907
#
# Coordination Sequence:
#
# PCOD8295517 Si02
#       4
#     8  16  16  16
#     4  12  26  44  68  92 120 156 198 246 308 366
#     4  10  16  27  44  71 111 145 184 236 277 336
#     4  10  14  20  36  65 103 138 184 232 268 320
#     4  10  23  40  62  92 123 156 200 243 302 359
#
# _framework density 22.552292000000001
#
# number of rings (size 3 to 8) (size 9 to 14) (size 15 to 20)
#    0.000    1.714    5.714    1.714    0.000    3.429 
#    0.000    0.000    0.000    0.000    0.000    2.000 
#    0.000    0.000    0.000    0.000    0.000    0.000 
#
# Total GULP energy -346960.562176 kJ/mol
# GULP energy per Si atom -12391.448649 kJ/mol
# Density = 2.250096 g / cm^3
# Si number density = 22.552292 Si / 1000 Ang^3
#
#
#
# Elastic Constant Matrix: (Units=GPa)
#
#
# Indices 1 2 3 4 5 6 
#
# 1 156.4415 35.7652 7.6655 0.0002 0.0000 0.0000
# 2 35.7652 170.1557 26.1679 0.0010 0.0000 0.0000
# 3 7.6655 26.1679 27.4172 0.0019 0.0000 0.0000
# 4 0.0002 0.0010 0.0019 664.6360 -0.0001 0.0006
# 5 0.0000 0.0000 0.0000 -0.0001 26.0941 0.0000
# 6 0.0000 0.0000 0.0000 0.0006 0.0000 47.6815
#
#
#
# Elastic Compliance Matrix: (Units=1/GPa)
#
#
# Indices 1 2 3 4 5 6 
#
# 1 0.006724 -0.001318 -0.000622 0.000000 0.000000 0.000000
# 2 -0.001318 0.007146 -0.006452 0.000000 0.000000 0.000000
# 3 -0.000622 -0.006452 0.042806 0.000000 0.000000 0.000000
# 4 0.000000 0.000000 0.000000 0.001505 0.000000 0.000000
# 5 0.000000 0.000000 0.000000 0.000000 0.038323 0.000000
# 6 0.000000 0.000000 0.000000 0.000000 0.000000 0.020972
#
#
# Mechanical properties :
#
#
# Convention : Reuss Voigt Hill
#
# Bulk Modulus (GPa) = 25.06802 54.80129 39.93466
# Shear Modulus (GPa) = 33.88520 166.64337 100.26428
#
# Velocity S-wave (km/s) = 3.88044 8.60537 6.67496
# Velocity P-wave (km/s) = 5.58719 11.09455 8.78367
#
# Compressibility (1/GPa) = 0.03989147
#
# Stress axis : x y z
#
# Youngs Moduli (GPa) = 148.72361 139.93481 23.36139
#
# Poissons Ratio (x) = 0.18438 0.01454
# Poissons Ratio (y) = 0.19596 0.15073
# Poissons Ratio (z) = 0.09256 0.90289
#
# Static dielectric constant tensor:
#      x y z
#    x 6.039130 0.000000 0.000000 
#    y 0.000000 4.511380 0.000000 
#    z 0.000000 0.000000 3.388890 
# 
# 
# High freq. dielectric constant tensor:
#      x y z
#    x 1.928570 0.000000 0.000000 
#    y 0.000000 1.907760 0.000000 
#    z 0.000000 0.000000 1.840880 
# 
# From -- ./inp_files/20365.got.cif
#   From: 2010.03.12/outbox.cif.g09.slc.cpg/sg73_11_cif.got.tgz:20365.got - 2010.04.16 15:25:48.
