data_PCOD8295736
_publ_section_title
;
Structure prediction by ZEFSAII (Michael W. Deem and Ramdas Pophale) SiO2 
 PCOD8295736
Probable space group: I B C A 
;
_chemical_formula_sum "Si O2"
_cell_formula_units_Z 88
_cell_length_a 20.661050
_cell_length_b 11.019022
_cell_length_c 20.038896
_cell_angle_alpha 90.000000
_cell_angle_beta 90.000000
_cell_angle_gamma 90.000000
_cell_volume 4562.146531
_symmetry_space_group_name_H-M "I B C A "
_symmetry_group_IT_number 73
_symmetry_cell_setting 'orthorhombic'
loop_
_space_group_symop_operation_xyz
x,y,z
-x,1/2-y,z
x,-y,1/2-z
1/2-x,y,-z
-x,-y,-z
x,1/2+y,-z
-x,y,1/2+z
1/2+x,-y,z
1/2+x,1/2+y,1/2+z
1/2-x,-y,1/2+z
1/2+x,1/2-y,-z
-x,1/2+y,1/2-z
1/2-x,1/2-y,1/2-z
1/2+x,y,1/2-z
1/2-x,1/2+y,z
x,1/2-y,1/2+z
loop_
_atom_site_type_symbol
_atom_site_label
_atom_site_fract_x
_atom_site_fract_y
_atom_site_fract_z
Si Si1 0.588338 0.039830 0.822181
Si Si2 0.892807 0.881947 0.935152
Si Si3 0.811593 0.343479 0.579714
Si Si4 0.165716 0.373650 0.929507
Si Si5 0.000000 0.750000 0.850394
Si Si6 0.935617 0.330073 0.921646
O O1 0.648930 0.089580 0.863003
O O2 0.536461 0.147217 0.807526
O O3 0.613751 0.000000 0.750000
O O4 0.556189 0.928163 0.862667
O O5 0.829142 0.797961 0.929486
O O6 0.949995 0.820423 0.895670
O O7 0.872261 0.009031 0.901659
O O8 0.920603 0.900396 0.009718
O O9 0.828004 0.402027 0.508341
O O10 0.736969 0.356642 0.600906
O O11 0.125348 0.256668 0.907630
O O12 0.000000 0.250000 0.927928
#
# Coordination Sequence:
#
# PCOD8295736 Si02
#       6
#    16  16  16  16   8  16
#     4  11  24  41  60  82 125 166 202 237 283 361
#     4  10  19  35  61  90 122 145 190 258 308 352
#     4   9  21  35  57  88 118 157 193 243 304 345
#     4  10  20  34  61  92 117 148 195 253 305 350
#     4  10  22  40  60  88 118 160 196 248 308 336
#     4  11  22  35  61  93 118 154 197 246 303 355
#
# _framework density 19.289166000000002
#
# number of rings (size 3 to 8) (size 9 to 14) (size 15 to 20)
#    0.000    1.818    2.727    1.091    3.818    2.909 
#    0.000    0.909    0.000    0.000    0.000    0.000 
#    0.000    0.000    0.000    0.000    0.000    0.000 
#
# Total GULP energy -545476.437603 kJ/mol
# GULP energy per Si atom -12397.191764 kJ/mol
# Density = 1.924526 g / cm^3
# Si number density = 19.289166 Si / 1000 Ang^3
#
#
#
# Elastic Constant Matrix: (Units=GPa)
#
#
# Indices 1 2 3 4 5 6 
#
# 1 122.8177 44.2668 21.2290 0.0000 0.0000 0.0000
# 2 44.2668 90.0835 26.5375 0.0000 0.0000 0.0000
# 3 21.2290 26.5375 77.5800 0.0000 0.0000 0.0000
# 4 0.0000 0.0000 0.0000 8.8893 0.0000 0.0000
# 5 0.0000 0.0000 0.0000 0.0000 11.2171 0.0000
# 6 0.0000 0.0000 0.0000 0.0000 0.0000 23.0419
#
#
#
# Elastic Compliance Matrix: (Units=1/GPa)
#
#
# Indices 1 2 3 4 5 6 
#
# 1 0.009990 -0.004563 -0.001173 0.000000 0.000000 0.000000
# 2 -0.004563 0.014429 -0.003687 0.000000 0.000000 0.000000
# 3 -0.001173 -0.003687 0.014472 0.000000 0.000000 0.000000
# 4 0.000000 0.000000 0.000000 0.112495 0.000000 0.000000
# 5 0.000000 0.000000 0.000000 0.000000 0.089150 0.000000
# 6 0.000000 0.000000 0.000000 0.000000 0.000000 0.043399
#
#
# Mechanical properties :
#
#
# Convention : Reuss Voigt Hill
#
# Bulk Modulus (GPa) = 49.88804 52.72754 51.30779
# Shear Modulus (GPa) = 16.15699 21.85950 19.00825
#
# Velocity S-wave (km/s) = 2.89731 3.37003 3.14257
# Velocity P-wave (km/s) = 6.09195 6.52208 6.31068
#
# Compressibility (1/GPa) = 0.02004488
#
# Stress axis : x y z
#
# Youngs Moduli (GPa) = 100.10396 69.30275 69.09896
#
# Poissons Ratio (x) = 0.31626 0.08102
# Poissons Ratio (y) = 0.45682 0.25477
# Poissons Ratio (z) = 0.11738 0.25552
#
# Static dielectric constant tensor:
#      x y z
#    x 3.622210 0.000000 0.000000 
#    y 0.000000 3.758750 0.000000 
#    z 0.000000 0.000000 3.091850 
# 
# 
# High freq. dielectric constant tensor:
#      x y z
#    x 1.761020 0.000000 0.000000 
#    y 0.000000 1.766850 0.000000 
#    z 0.000000 0.000000 1.704840 
# 
# From -- ./inp_files/11881.got.cif
#   From: 2010.03.12/outbox.cif.g09.slc.cpg/sg73_6_cif.got.tgz:11881.got - 2010.04.16 15:25:48.
