data_PCOD8295147
_publ_section_title
;
Structure prediction by ZEFSAII (Michael W. Deem and Ramdas Pophale) SiO2 
 PCOD8295147
Probable space group: I B A M
;
_chemical_formula_sum "Si O2"
_cell_formula_units_Z 64
_cell_length_a 19.196414
_cell_length_b 8.770523
_cell_length_c 17.574452
_cell_angle_alpha 90.000000
_cell_angle_beta 90.000000
_cell_angle_gamma 90.000000
_cell_volume 2958.880265
_symmetry_space_group_name_H-M "I B A M"
_symmetry_group_IT_number 72
_symmetry_cell_setting 'orthorhombic'
loop_
_space_group_symop_operation_xyz
x,y,z
-x,-y,z
x,-y,1/2-z
-x,y,1/2-z
-x,-y,-z
x,y,-z
-x,y,1/2+z
x,-y,1/2+z
1/2+x,1/2+y,1/2+z
1/2-x,1/2-y,1/2+z
1/2+x,1/2-y,-z
1/2-x,1/2+y,-z
1/2-x,1/2-y,1/2-z
1/2+x,1/2+y,1/2-z
1/2-x,1/2+y,z
1/2+x,1/2-y,z
loop_
_atom_site_type_symbol
_atom_site_label
_atom_site_fract_x
_atom_site_fract_y
_atom_site_fract_z
Si Si1 0.545538 0.874790 0.326434
Si Si2 0.573703 0.425813 0.082734
Si Si3 0.194444 0.482946 0.668425
Si Si4 0.190686 0.159723 0.410602
O O1 0.500000 0.847164 0.250000
O O2 0.560723 0.715914 0.364286
O O3 0.620320 0.945565 0.313024
O O4 0.500000 0.000000 0.375277
O O5 0.500000 0.500000 0.071342
O O6 0.629123 0.545873 0.116966
O O7 0.602017 0.371485 0.000000
O O8 0.234887 0.500000 0.750000
O O9 0.185600 0.310690 0.639915
O O10 0.235581 0.578143 0.604465
O O11 0.183882 0.199557 0.500000
#
# Coordination Sequence:
#
# PCOD8295147 Si02
#       4
#    16  16  16  16
#     4  11  23  43  66  96 137 177 231 278 339 401
#     4  10  23  43  67  99 134 178 229 281 341 403
#     4  12  24  44  69  99 141 180 225 283 340 412
#     4  11  25  45  71 105 140 178 229 282 346 415
#
# _framework density 21.629802999999999
#
# number of rings (size 3 to 8) (size 9 to 14) (size 15 to 20)
#    0.000    1.000    2.500    4.500    0.000    5.000 
#    0.000    0.000    0.000    0.000    0.000    0.000 
#    0.000    0.000    0.000    0.000    0.000    0.000 
#
# Total GULP energy -396497.439616 kJ/mol
# GULP energy per Si atom -12390.544988 kJ/mol
# Density = 2.158057 g / cm^3
# Si number density = 21.629803 Si / 1000 Ang^3
#
#
#
# Elastic Constant Matrix: (Units=GPa)
#
#
# Indices 1 2 3 4 5 6 
#
# 1 123.4356 58.4892 47.8791 0.0000 0.0000 0.0000
# 2 58.4892 201.2776 98.8649 0.0000 0.0000 0.0000
# 3 47.8791 98.8649 104.2465 0.0000 0.0000 0.0000
# 4 0.0000 0.0000 0.0000 28.7451 0.0000 0.0000
# 5 0.0000 0.0000 0.0000 0.0000 23.5475 0.0000
# 6 0.0000 0.0000 0.0000 0.0000 0.0000 34.2693
#
#
#
# Elastic Compliance Matrix: (Units=1/GPa)
#
#
# Indices 1 2 3 4 5 6 
#
# 1 0.010015 -0.001219 -0.003444 0.000000 0.000000 0.000000
# 2 -0.001219 0.009449 -0.008402 0.000000 0.000000 0.000000
# 3 -0.003444 -0.008402 0.019142 0.000000 0.000000 0.000000
# 4 0.000000 0.000000 0.000000 0.034789 0.000000 0.000000
# 5 0.000000 0.000000 0.000000 0.000000 0.042467 0.000000
# 6 0.000000 0.000000 0.000000 0.000000 0.000000 0.029181
#
#
# Mechanical properties :
#
#
# Convention : Reuss Voigt Hill
#
# Bulk Modulus (GPa) = 80.14237 93.26955 86.70596
# Shear Modulus (GPa) = 28.51756 32.22746 30.37251
#
# Velocity S-wave (km/s) = 3.63497 3.86418 3.75133
# Velocity P-wave (km/s) = 7.39930 7.94504 7.67702
#
# Compressibility (1/GPa) = 0.01247779
#
# Stress axis : x y z
#
# Youngs Moduli (GPa) = 99.85360 105.82952 52.23999
#
# Poissons Ratio (x) = 0.12895 0.17991
# Poissons Ratio (y) = 0.12167 0.43891
# Poissons Ratio (z) = 0.34390 0.88915
#
# Static dielectric constant tensor:
#      x y z
#    x 4.109340 0.000000 0.000000 
#    y 0.000000 4.129270 0.000000 
#    z 0.000000 0.000000 5.783560 
# 
# 
# High freq. dielectric constant tensor:
#      x y z
#    x 1.865510 0.000000 0.000000 
#    y 0.000000 1.862510 0.000000 
#    z 0.000000 0.000000 1.843540 
# 
# From -- ./inp_files/32209.got.cif
#   From: 2010.03.12/outbox.cif.g09.slc.cpg/sg72_17_cif.got.tgz:32209.got - 2010.04.16 14:54:00.
