data_PCOD8295398
_publ_section_title
;
Structure prediction by ZEFSAII (Michael W. Deem and Ramdas Pophale) SiO2 
 PCOD8295398
Probable space group: I B A M
;
_chemical_formula_sum "Si O2"
_cell_formula_units_Z 64
_cell_length_a 21.600885
_cell_length_b 9.071996
_cell_length_c 13.972059
_cell_angle_alpha 90.000000
_cell_angle_beta 90.000000
_cell_angle_gamma 90.000000
_cell_volume 2738.008586
_symmetry_space_group_name_H-M "I B A M"
_symmetry_group_IT_number 72
_symmetry_cell_setting 'orthorhombic'
loop_
_space_group_symop_operation_xyz
x,y,z
-x,-y,z
x,-y,1/2-z
-x,y,1/2-z
-x,-y,-z
x,y,-z
-x,y,1/2+z
x,-y,1/2+z
1/2+x,1/2+y,1/2+z
1/2-x,1/2-y,1/2+z
1/2+x,1/2-y,-z
1/2-x,1/2+y,-z
1/2-x,1/2-y,1/2-z
1/2+x,1/2+y,1/2-z
1/2-x,1/2+y,z
1/2+x,1/2-y,z
loop_
_atom_site_type_symbol
_atom_site_label
_atom_site_fract_x
_atom_site_fract_y
_atom_site_fract_z
Si Si1 0.012366 0.328108 0.893555
Si Si2 0.168341 0.959518 0.000000
Si Si3 0.712756 0.783767 0.500000
Si Si4 0.856453 0.650386 0.807136
Si Si5 0.402668 0.372971 0.182266
O O1 0.955191 0.242669 0.847732
O O2 0.000000 0.500000 0.898892
O O3 0.072387 0.309936 0.829341
O O4 0.024719 0.265441 0.000000
O O5 0.214916 0.821520 0.000000
O O6 0.124388 0.956498 0.908833
O O7 0.207921 0.108685 0.000000
O O8 0.682716 0.853185 0.404279
O O9 0.845821 0.500000 0.750000
O O10 0.844417 0.786034 0.733414
O O11 0.430932 0.500000 0.250000
#
# Coordination Sequence:
#
# PCOD8295398 Si02
#       5
#    16   8   8  16  16
#     4  11  23  42  74 111 154 197 243 298 369 448
#     4  12  30  53  76 109 147 198 261 318 376 439
#     4  12  30  53  76 107 149 199 260 319 372 440
#     4  12  26  46  75 113 154 198 247 304 378 452
#     4  12  26  48  75 114 156 194 244 312 380 446
#
# _framework density 23.374651
#
# number of rings (size 3 to 8) (size 9 to 14) (size 15 to 20)
#    0.000    0.250    7.500    0.750    3.500    4.000 
#    0.000    2.500    0.000    0.000    0.000    0.000 
#    0.000    0.000    0.000    0.000    0.000    0.000 
#
# Total GULP energy -396779.457101 kJ/mol
# GULP energy per Si atom -12399.358034 kJ/mol
# Density = 2.332145 g / cm^3
# Si number density = 23.374651 Si / 1000 Ang^3
#
#
#
# Elastic Constant Matrix: (Units=GPa)
#
#
# Indices 1 2 3 4 5 6 
#
# 1 61.6404 11.2573 20.6093 0.0000 0.0000 0.0000
# 2 11.2573 128.5885 49.5382 0.0000 0.0000 0.0000
# 3 20.6093 49.5382 168.2145 0.0000 0.0000 0.0000
# 4 0.0000 0.0000 0.0000 58.3917 0.0000 0.0000
# 5 0.0000 0.0000 0.0000 0.0000 16.1780 0.0000
# 6 0.0000 0.0000 0.0000 0.0000 0.0000 33.1746
#
#
#
# Elastic Compliance Matrix: (Units=1/GPa)
#
#
# Indices 1 2 3 4 5 6 
#
# 1 0.016984 -0.000773 -0.001853 0.000000 0.000000 0.000000
# 2 -0.000773 0.008807 -0.002499 0.000000 0.000000 0.000000
# 3 -0.001853 -0.002499 0.006908 0.000000 0.000000 0.000000
# 4 0.000000 0.000000 0.000000 0.017126 0.000000 0.000000
# 5 0.000000 0.000000 0.000000 0.000000 0.061812 0.000000
# 6 0.000000 0.000000 0.000000 0.000000 0.000000 0.030144
#
#
# Mechanical properties :
#
#
# Convention : Reuss Voigt Hill
#
# Bulk Modulus (GPa) = 44.54615 57.91700 51.23158
# Shear Modulus (GPa) = 31.34534 40.01810 35.68172
#
# Velocity S-wave (km/s) = 3.66594 4.14216 3.91130
# Velocity P-wave (km/s) = 6.08421 6.90711 6.50868
#
# Compressibility (1/GPa) = 0.02244863
#
# Stress axis : x y z
#
# Youngs Moduli (GPa) = 58.87927 113.54447 144.76458
#
# Poissons Ratio (x) = 0.08776 0.26828
# Poissons Ratio (y) = 0.04551 0.36176
# Poissons Ratio (z) = 0.10912 0.28374
#
# Static dielectric constant tensor:
#      x y z
#    x 3.860790 0.000000 0.000000 
#    y 0.000000 4.291960 0.000000 
#    z 0.000000 0.000000 4.938870 
# 
# 
# High freq. dielectric constant tensor:
#      x y z
#    x 1.895680 0.000000 0.000000 
#    y 0.000000 1.939770 0.000000 
#    z 0.000000 0.000000 1.964510 
# 
# From -- ./inp_files/24764.got.cif
#   From: 2010.03.12/outbox.cif.g09.slc.cpg/sg72_13_cif.got.tgz:24764.got - 2010.04.16 14:54:00.
