data_PCOD8295752
_publ_section_title
;
Structure prediction by ZEFSAII (Michael W. Deem and Ramdas Pophale) SiO2 
 PCOD8295752
Probable space group: I B C A 
;
_chemical_formula_sum "Si O2"
_cell_formula_units_Z 80
_cell_length_a 9.896084
_cell_length_b 17.345080
_cell_length_c 26.627996
_cell_angle_alpha 90.000000
_cell_angle_beta 90.000000
_cell_angle_gamma 90.000000
_cell_volume 4570.652074
_symmetry_space_group_name_H-M "I B C A "
_symmetry_group_IT_number 73
_symmetry_cell_setting 'orthorhombic'
loop_
_space_group_symop_operation_xyz
x,y,z
-x,1/2-y,z
x,-y,1/2-z
1/2-x,y,-z
-x,-y,-z
x,1/2+y,-z
-x,y,1/2+z
1/2+x,-y,z
1/2+x,1/2+y,1/2+z
1/2-x,-y,1/2+z
1/2+x,1/2-y,-z
-x,1/2+y,1/2-z
1/2-x,1/2-y,1/2-z
1/2+x,y,1/2-z
1/2-x,1/2+y,z
x,1/2-y,1/2+z
loop_
_atom_site_type_symbol
_atom_site_label
_atom_site_fract_x
_atom_site_fract_y
_atom_site_fract_z
Si Si1 0.777315 0.924550 0.222015
Si Si2 0.248033 0.440149 0.391631
Si Si3 0.494114 0.011479 0.441165
Si Si4 0.508476 0.336841 0.778176
Si Si5 0.478969 0.664224 0.106341
O O1 0.795839 0.954074 0.165325
O O2 0.663496 0.860270 0.228088
O O3 0.916485 0.892102 0.244357
O O4 0.727509 0.000000 0.250000
O O5 0.360877 0.501129 0.413197
O O6 0.317263 0.355072 0.395820
O O7 0.111777 0.446950 0.423386
O O8 0.443376 0.099010 0.426986
O O9 0.500000 0.000000 0.500000
O O10 0.500000 0.250000 0.757915
O O11 0.464574 0.341762 0.836696
O O12 0.500000 0.750000 0.084319
#
# Coordination Sequence:
#
# PCOD8295752 Si02
#       5
#    16  16  16  16  16
#     4  11  21  33  54  84 115 147 188 231 266 334
#     4   9  21  34  58  83 110 145 188 228 280 327
#     4  10  19  36  62  79 106 145 186 235 280 334
#     4  10  20  35  53  79 114 154 185 222 283 335
#     4   8  18  35  57  79 109 147 186 226 281 337
#
# _framework density 17.502974999999999
#
# number of rings (size 3 to 8) (size 9 to 14) (size 15 to 20)
#    1.200    1.200    0.000    3.000    2.800    0.000 
#    0.000    0.000    8.800    0.000    0.000    0.000 
#    0.000    0.000    0.000    0.000    0.000    0.000 
#
# Total GULP energy -495554.783144 kJ/mol
# GULP energy per Si atom -12388.869579 kJ/mol
# Density = 1.746314 g / cm^3
# Si number density = 17.502975 Si / 1000 Ang^3
#
#
#
# Elastic Constant Matrix: (Units=GPa)
#
#
# Indices 1 2 3 4 5 6 
#
# 1 80.8200 10.1504 46.1330 0.0000 0.0000 0.0000
# 2 10.1504 74.0249 44.3764 0.0000 0.0000 0.0000
# 3 46.1330 44.3764 127.3453 0.0000 0.0000 0.0000
# 4 0.0000 0.0000 0.0000 17.5565 0.0000 0.0000
# 5 0.0000 0.0000 0.0000 0.0000 24.5296 0.0000
# 6 0.0000 0.0000 0.0000 0.0000 0.0000 24.1276
#
#
#
# Elastic Compliance Matrix: (Units=1/GPa)
#
#
# Indices 1 2 3 4 5 6 
#
# 1 0.015746 0.001593 -0.006260 0.000000 0.000000 0.000000
# 2 0.001593 0.017237 -0.006584 0.000000 0.000000 0.000000
# 3 -0.006260 -0.006584 0.012415 0.000000 0.000000 0.000000
# 4 0.000000 0.000000 0.000000 0.056959 0.000000 0.000000
# 5 0.000000 0.000000 0.000000 0.000000 0.040767 0.000000
# 6 0.000000 0.000000 0.000000 0.000000 0.000000 0.041446
#
#
# Mechanical properties :
#
#
# Convention : Reuss Voigt Hill
#
# Bulk Modulus (GPa) = 43.67239 53.72332 48.69785
# Shear Modulus (GPa) = 23.28793 25.34476 24.31634
#
# Velocity S-wave (km/s) = 3.65158 3.80942 3.73133
# Velocity P-wave (km/s) = 6.54097 7.07880 6.81519
#
# Compressibility (1/GPa) = 0.02289776
#
# Stress axis : x y z
#
# Youngs Moduli (GPa) = 63.50793 58.01326 80.55018
#
# Poissons Ratio (x) = -0.09243 0.50420
# Poissons Ratio (y) = -0.10119 0.53034
# Poissons Ratio (z) = 0.39753 0.38196
#
# Static dielectric constant tensor:
#      x y z
#    x 3.096270 0.000000 0.000000 
#    y 0.000000 6.710010 0.000000 
#    z 0.000000 0.000000 3.224040 
# 
# 
# High freq. dielectric constant tensor:
#      x y z
#    x 1.665890 0.000000 0.000000 
#    y 0.000000 1.660580 0.000000 
#    z 0.000000 0.000000 1.674520 
# 
# From -- ./inp_files/31106.got.cif
#   From: 2010.03.12/outbox.cif.g09.slc.cpg/sg73_16_cif.got.tgz:31106.got - 2010.04.16 15:25:48.
