data_PCOD8295473
_publ_section_title
;
Structure prediction by ZEFSAII (Michael W. Deem and Ramdas Pophale) SiO2 
 PCOD8295473
Probable space group: I B A M
;
_chemical_formula_sum "Si O2"
_cell_formula_units_Z 68
_cell_length_a 28.025225
_cell_length_b 4.971571
_cell_length_c 20.167829
_cell_angle_alpha 90.000000
_cell_angle_beta 90.000000
_cell_angle_gamma 90.000000
_cell_volume 2809.971431
_symmetry_space_group_name_H-M "I B A M"
_symmetry_group_IT_number 72
_symmetry_cell_setting 'orthorhombic'
loop_
_space_group_symop_operation_xyz
x,y,z
-x,-y,z
x,-y,1/2-z
-x,y,1/2-z
-x,-y,-z
x,y,-z
-x,y,1/2+z
x,-y,1/2+z
1/2+x,1/2+y,1/2+z
1/2-x,1/2-y,1/2+z
1/2+x,1/2-y,-z
1/2-x,1/2+y,-z
1/2-x,1/2-y,1/2-z
1/2+x,1/2+y,1/2-z
1/2-x,1/2+y,z
1/2+x,1/2-y,z
loop_
_atom_site_type_symbol
_atom_site_label
_atom_site_fract_x
_atom_site_fract_y
_atom_site_fract_z
Si Si1 0.874763 0.121475 0.182149
Si Si2 0.000000 0.500000 0.250000
Si Si3 0.085291 0.512572 0.500000
Si Si4 0.782010 0.965868 0.377497
Si Si5 0.571854 0.856702 0.641840
Si Si6 0.850256 0.987117 0.500000
O O1 0.817216 0.097236 0.183942
O O2 0.890737 0.425846 0.170584
O O3 0.895187 0.000000 0.250000
O O4 0.900017 0.923147 0.128499
O O5 0.969466 0.679650 0.197658
O O6 0.054049 0.558406 0.432326
O O7 0.104346 0.209696 0.500000
O O8 0.131820 0.705789 0.500000
O O9 0.736749 0.769749 0.376389
O O10 0.816216 0.917070 0.439134
#
# Coordination Sequence:
#
# PCOD8295473 Si02
#       6
#    16   4   8  16  16   8
#     4  12  24  46  70  97 141 190 229 283 353 415
#     4  12  28  48  80 110 132 180 228 294 344 436
#     4  12  22  44  72 102 139 186 227 280 354 422
#     4  12  24  39  64 102 137 185 241 288 330 395
#     4  12  25  45  74 105 138 178 229 286 357 417
#     4  12  22  41  68  97 139 190 231 279 346 403
#
# _framework density 24.199534
#
# number of rings (size 3 to 8) (size 9 to 14) (size 15 to 20)
#    0.000    0.000    7.059    3.529    0.000    3.294 
#    0.000    0.000    0.000    4.235    0.000    0.000 
#    0.000    0.000    0.000    0.000    0.000    0.000 
#
# Total GULP energy -421421.290787 kJ/mol
# GULP energy per Si atom -12394.743847 kJ/mol
# Density = 2.414445 g / cm^3
# Si number density = 24.199534 Si / 1000 Ang^3
#
#
#
# Elastic Constant Matrix: (Units=GPa)
#
#
# Indices 1 2 3 4 5 6 
#
# 1 99.2293 25.0922 31.4199 0.0000 0.0000 0.0000
# 2 25.0922 99.1005 -6.9540 0.0000 0.0000 0.0000
# 3 31.4199 -6.9540 129.7014 0.0000 0.0000 0.0000
# 4 0.0000 0.0000 0.0000 18.5393 0.0000 0.0000
# 5 0.0000 0.0000 0.0000 0.0000 78.1238 0.0000
# 6 0.0000 0.0000 0.0000 0.0000 0.0000 18.9615
#
#
#
# Elastic Compliance Matrix: (Units=1/GPa)
#
#
# Indices 1 2 3 4 5 6 
#
# 1 0.011855 -0.003215 -0.003044 0.000000 0.000000 0.000000
# 2 -0.003215 0.011001 0.001369 0.000000 0.000000 0.000000
# 3 -0.003044 0.001369 0.008521 0.000000 0.000000 0.000000
# 4 0.000000 0.000000 0.000000 0.053939 0.000000 0.000000
# 5 0.000000 0.000000 0.000000 0.000000 0.012800 0.000000
# 6 0.000000 0.000000 0.000000 0.000000 0.000000 0.052739
#
#
# Mechanical properties :
#
#
# Convention : Reuss Voigt Hill
#
# Bulk Modulus (GPa) = 46.30688 47.46081 46.88384
# Shear Modulus (GPa) = 29.79134 41.68979 35.74057
#
# Velocity S-wave (km/s) = 3.51247 4.15511 3.84723
# Velocity P-wave (km/s) = 5.96883 6.53259 6.25706
#
# Compressibility (1/GPa) = 0.02159506
#
# Stress axis : x y z
#
# Youngs Moduli (GPa) = 84.35560 90.90170 117.35941
#
# Poissons Ratio (x) = 0.29227 0.35726
# Poissons Ratio (y) = 0.27122 -0.16063
# Poissons Ratio (z) = 0.25679 -0.12442
#
# Static dielectric constant tensor:
#      x y z
#    x 4.113520 0.000000 0.000000 
#    y 0.000000 4.161640 0.000000 
#    z 0.000000 0.000000 5.228790 
# 
# 
# High freq. dielectric constant tensor:
#      x y z
#    x 1.939740 0.000000 0.000000 
#    y 0.000000 1.960130 0.000000 
#    z 0.000000 0.000000 1.983200 
# 
# From -- ./inp_files/34867.got.cif
#   From: 2010.03.12/outbox.cif.g09.slc.cpg/sg72_18_cif.got.tgz:34867.got - 2010.04.16 14:54:00.
