data_PCOD8295957
_publ_section_title
;
Structure prediction by ZEFSAII (Michael W. Deem and Ramdas Pophale) SiO2 
 PCOD8295957
Probable space group: I B C A 
;
_chemical_formula_sum "Si O2"
_cell_formula_units_Z 120
_cell_length_a 17.126406
_cell_length_b 13.812042
_cell_length_c 25.477397
_cell_angle_alpha 90.000000
_cell_angle_beta 90.000000
_cell_angle_gamma 90.000000
_cell_volume 6026.694540
_symmetry_space_group_name_H-M "I B C A "
_symmetry_group_IT_number 73
_symmetry_cell_setting 'orthorhombic'
loop_
_space_group_symop_operation_xyz
x,y,z
-x,1/2-y,z
x,-y,1/2-z
1/2-x,y,-z
-x,-y,-z
x,1/2+y,-z
-x,y,1/2+z
1/2+x,-y,z
1/2+x,1/2+y,1/2+z
1/2-x,-y,1/2+z
1/2+x,1/2-y,-z
-x,1/2+y,1/2-z
1/2-x,1/2-y,1/2-z
1/2+x,y,1/2-z
1/2-x,1/2+y,z
x,1/2-y,1/2+z
loop_
_atom_site_type_symbol
_atom_site_label
_atom_site_fract_x
_atom_site_fract_y
_atom_site_fract_z
Si Si1 0.875006 0.623242 0.105205
Si Si2 0.586016 0.207983 0.432718
Si Si3 0.487337 0.858695 0.321322
Si Si4 0.337717 0.592118 0.978947
Si Si5 0.839632 0.376476 0.511365
Si Si6 0.576289 0.500000 0.750000
Si Si7 0.663055 0.077465 0.350116
Si Si8 0.172958 0.826865 0.633783
O O1 0.829929 0.521414 0.115561
O O2 0.829451 0.709136 0.136683
O O3 0.963467 0.616743 0.126228
O O4 0.884163 0.642796 0.043360
O O5 0.500000 0.250000 0.430673
O O6 0.599023 0.131801 0.479676
O O7 0.641163 0.300036 0.443221
O O8 0.606164 0.154952 0.378154
O O9 0.500000 0.750000 0.302814
O O10 0.517508 0.923295 0.274164
O O11 0.395906 0.876007 0.332293
O O12 0.360138 0.481824 0.966450
O O13 0.343024 0.653199 0.926753
O O14 0.250000 0.601515 0.000000
O O15 0.750000 0.363846 0.500000
O O16 0.631255 0.552493 0.707454
O O17 0.747248 0.127728 0.344836
#
# Coordination Sequence:
#
# PCOD8295957 Si02
#       8
#    16  16  16  16  16   8  16  16
#     4  10  20  38  61  85 132 168 203 261 322 386
#     4  12  25  36  58  96 138 173 211 262 325 392
#     4   9  22  41  65  93 112 162 213 269 322 382
#     4  11  21  38  59  90 134 175 207 252 310 390
#     4  11  21  35  59  87 125 177 214 249 307 381
#     4  10  24  46  70  82 132 168 206 294 352 368
#     4  11  23  45  62  95 126 173 216 272 336 387
#     4  11  21  38  68  91 125 164 222 261 312 405
#
# _framework density 19.911413
#
# number of rings (size 3 to 8) (size 9 to 14) (size 15 to 20)
#    0.000    1.333    4.000    2.000    1.867    3.733 
#    0.000    7.333    0.000    0.000    0.000    0.000 
#    0.000    0.000    0.000    0.000    0.000    0.000 
#
# Total GULP energy -743961.552975 kJ/mol
# GULP energy per Si atom -12399.359216 kJ/mol
# Density = 1.986609 g / cm^3
# Si number density = 19.911413 Si / 1000 Ang^3
#
#
#
# Elastic Constant Matrix: (Units=GPa)
#
#
# Indices 1 2 3 4 5 6 
#
# 1 116.5862 63.2102 41.7990 0.0000 0.0000 0.0000
# 2 63.2102 134.8355 37.9847 0.0000 0.0000 0.0000
# 3 41.7990 37.9847 110.1742 0.0000 0.0000 0.0000
# 4 0.0000 0.0000 0.0000 146.5495 0.0000 0.0000
# 5 0.0000 0.0000 0.0000 0.0000 24.4714 0.0000
# 6 0.0000 0.0000 0.0000 0.0000 0.0000 28.4699
#
#
#
# Elastic Compliance Matrix: (Units=1/GPa)
#
#
# Indices 1 2 3 4 5 6 
#
# 1 0.012320 -0.004939 -0.002972 0.000000 0.000000 0.000000
# 2 -0.004939 0.010194 -0.001641 0.000000 0.000000 0.000000
# 3 -0.002972 -0.001641 0.010770 0.000000 0.000000 0.000000
# 4 0.000000 0.000000 0.000000 0.006824 0.000000 0.000000
# 5 0.000000 0.000000 0.000000 0.000000 0.040864 0.000000
# 6 0.000000 0.000000 0.000000 0.000000 0.000000 0.035125
#
#
# Mechanical properties :
#
#
# Convention : Reuss Voigt Hill
#
# Bulk Modulus (GPa) = 70.51284 71.95374 71.23329
# Shear Modulus (GPa) = 35.73326 54.47161 45.10244
#
# Velocity S-wave (km/s) = 4.24088 5.23606 4.76453
# Velocity P-wave (km/s) = 7.71170 8.53057 8.13145
#
# Compressibility (1/GPa) = 0.01418181
#
# Stress axis : x y z
#
# Youngs Moduli (GPa) = 81.16695 98.09808 92.85371
#
# Poissons Ratio (x) = 0.48446 0.27592
# Poissons Ratio (y) = 0.40085 0.15236
# Poissons Ratio (z) = 0.24119 0.16097
#
# Static dielectric constant tensor:
#      x y z
#    x 3.604280 0.000000 0.000000 
#    y 0.000000 4.077770 0.000000 
#    z 0.000000 0.000000 3.586610 
# 
# 
# High freq. dielectric constant tensor:
#      x y z
#    x 1.772000 0.000000 0.000000 
#    y 0.000000 1.799030 0.000000 
#    z 0.000000 0.000000 1.755310 
# 
# From -- ./inp_files/29879.got.cif
#   From: 2010.03.12/outbox.cif.g09.slc.cpg/sg73_15_cif.got.tgz:29879.got - 2010.04.16 15:25:48.
