data_PCOD8295732
_publ_section_title
;
Structure prediction by ZEFSAII (Michael W. Deem and Ramdas Pophale) SiO2 
 PCOD8295732
Probable space group: I B C A 
;
_chemical_formula_sum "Si O2"
_cell_formula_units_Z 128
_cell_length_a 23.915808
_cell_length_b 23.651079
_cell_length_c 11.816579
_cell_angle_alpha 90.000000
_cell_angle_beta 90.000000
_cell_angle_gamma 90.000000
_cell_volume 6683.866697
_symmetry_space_group_name_H-M "I B C A "
_symmetry_group_IT_number 73
_symmetry_cell_setting 'orthorhombic'
loop_
_space_group_symop_operation_xyz
x,y,z
-x,1/2-y,z
x,-y,1/2-z
1/2-x,y,-z
-x,-y,-z
x,1/2+y,-z
-x,y,1/2+z
1/2+x,-y,z
1/2+x,1/2+y,1/2+z
1/2-x,-y,1/2+z
1/2+x,1/2-y,-z
-x,1/2+y,1/2-z
1/2-x,1/2-y,1/2-z
1/2+x,y,1/2-z
1/2-x,1/2+y,z
x,1/2-y,1/2+z
loop_
_atom_site_type_symbol
_atom_site_label
_atom_site_fract_x
_atom_site_fract_y
_atom_site_fract_z
Si Si1 0.647768 0.878233 0.117730
Si Si2 0.430405 0.197400 0.277701
Si Si3 0.193990 0.086429 0.559676
Si Si4 0.447443 0.173038 0.741475
Si Si5 0.617170 0.675549 0.977712
Si Si6 0.311402 0.462807 0.550164
Si Si7 0.656021 0.795420 0.914680
Si Si8 0.230931 0.628516 0.209386
O O1 0.591852 0.872052 0.193076
O O2 0.702359 0.878845 0.199140
O O3 0.646431 0.936053 0.044225
O O4 0.650512 0.824601 0.035620
O O5 0.487173 0.161112 0.260550
O O6 0.437599 0.264328 0.288498
O O7 0.403702 0.178117 0.394521
O O8 0.392853 0.183194 0.169054
O O9 0.250000 0.067519 0.500000
O O10 0.155245 0.119817 0.471291
O O11 0.210391 0.128236 0.661807
O O12 0.166659 0.024907 0.588964
O O13 0.435045 0.169410 0.607312
O O14 0.654579 0.728483 0.936431
O O15 0.250000 0.463148 0.500000
O O16 0.306883 0.421731 0.657335
O O17 0.714402 0.812742 0.853872
#
# Coordination Sequence:
#
# PCOD8295732 Si02
#       8
#    16  16  16  16  16  16  16  16
#     4  10  19  36  58  87 115 151 197 240 292 351
#     4  10  21  37  56  81 112 154 194 249 285 343
#     4  11  21  35  54  84 120 154 189 234 289 350
#     4  10  22  35  58  82 113 152 197 243 292 337
#     4  11  22  37  53  86 116 148 195 234 292 350
#     4   8  18  34  57  83 112 151 194 236 285 342
#     4  10  20  36  56  83 115 154 190 236 293 354
#     4  10  19  35  58  84 118 152 192 236 291 353
#
# _framework density 19.150592
#
# number of rings (size 3 to 8) (size 9 to 14) (size 15 to 20)
#    0.000    2.000    2.500    2.250    1.750    2.000 
#    0.000    4.375    0.000    0.750    6.500    0.000 
#    0.000    0.000    0.000    0.000    0.000    0.000 
#
# Total GULP energy -793185.548624 kJ/mol
# GULP energy per Si atom -12393.524197 kJ/mol
# Density = 1.910700 g / cm^3
# Si number density = 19.150592 Si / 1000 Ang^3
#
#
#
# Elastic Constant Matrix: (Units=GPa)
#
#
# Indices 1 2 3 4 5 6 
#
# 1 83.3473 35.8544 20.7192 0.0000 0.0000 0.0000
# 2 35.8544 81.1661 23.0144 0.0000 0.0000 0.0000
# 3 20.7192 23.0144 69.4805 0.0000 0.0000 0.0000
# 4 0.0000 0.0000 0.0000 22.5330 0.0000 0.0000
# 5 0.0000 0.0000 0.0000 0.0000 28.8065 0.0000
# 6 0.0000 0.0000 0.0000 0.0000 0.0000 16.0350
#
#
#
# Elastic Compliance Matrix: (Units=1/GPa)
#
#
# Indices 1 2 3 4 5 6 
#
# 1 0.015211 -0.005997 -0.002550 0.000000 0.000000 0.000000
# 2 -0.005997 0.015961 -0.003499 0.000000 0.000000 0.000000
# 3 -0.002550 -0.003499 0.016312 0.000000 0.000000 0.000000
# 4 0.000000 0.000000 0.000000 0.044379 0.000000 0.000000
# 5 0.000000 0.000000 0.000000 0.000000 0.034714 0.000000
# 6 0.000000 0.000000 0.000000 0.000000 0.000000 0.062364
#
#
# Mechanical properties :
#
#
# Convention : Reuss Voigt Hill
#
# Bulk Modulus (GPa) = 42.74534 43.68554 43.21544
# Shear Modulus (GPa) = 22.64180 23.76862 23.20521
#
# Velocity S-wave (km/s) = 3.44219 3.52681 3.48476
# Velocity P-wave (km/s) = 6.17797 6.28057 6.22948
#
# Compressibility (1/GPa) = 0.02339436
#
# Stress axis : x y z
#
# Youngs Moduli (GPa) = 65.74006 62.65110 61.30522
#
# Poissons Ratio (x) = 0.37569 0.15632
# Poissons Ratio (y) = 0.39421 0.21450
# Poissons Ratio (z) = 0.16762 0.21920
#
# Static dielectric constant tensor:
#      x y z
#    x 3.459740 0.000000 0.000000 
#    y 0.000000 3.510460 0.000000 
#    z 0.000000 0.000000 3.541990 
# 
# 
# High freq. dielectric constant tensor:
#      x y z
#    x 1.720940 0.000000 0.000000 
#    y 0.000000 1.725180 0.000000 
#    z 0.000000 0.000000 1.757030 
# 
# From -- ./inp_files/13927.got.cif
#   From: 2010.03.12/outbox.cif.g09.slc.cpg/sg73_7_cif.got.tgz:13927.got - 2010.04.16 15:25:48.
