data_PCOD8295605
_publ_section_title
;
Structure prediction by ZEFSAII (Michael W. Deem and Ramdas Pophale) SiO2 
 PCOD8295605
Probable space group: I B C A 
;
_chemical_formula_sum "Si O2"
_cell_formula_units_Z 104
_cell_length_a 19.979375
_cell_length_b 26.810341
_cell_length_c 8.951271
_cell_angle_alpha 90.000000
_cell_angle_beta 90.000000
_cell_angle_gamma 90.000000
_cell_volume 4794.782834
_symmetry_space_group_name_H-M "I B C A "
_symmetry_group_IT_number 73
_symmetry_cell_setting 'orthorhombic'
loop_
_space_group_symop_operation_xyz
x,y,z
-x,1/2-y,z
x,-y,1/2-z
1/2-x,y,-z
-x,-y,-z
x,1/2+y,-z
-x,y,1/2+z
1/2+x,-y,z
1/2+x,1/2+y,1/2+z
1/2-x,-y,1/2+z
1/2+x,1/2-y,-z
-x,1/2+y,1/2-z
1/2-x,1/2-y,1/2-z
1/2+x,y,1/2-z
1/2-x,1/2+y,z
x,1/2-y,1/2+z
loop_
_atom_site_type_symbol
_atom_site_label
_atom_site_fract_x
_atom_site_fract_y
_atom_site_fract_z
Si Si1 0.540467 0.846286 0.834189
Si Si2 0.317963 0.091047 0.917329
Si Si3 0.250000 0.754548 0.000000
Si Si4 0.916279 0.820526 0.854105
Si Si5 0.843584 0.720254 0.754204
Si Si6 0.734988 0.448651 0.328541
Si Si7 0.608874 0.553562 0.315221
O O1 0.467038 0.836879 0.773648
O O2 0.601794 0.823224 0.739638
O O3 0.548727 0.906584 0.832720
O O4 0.541229 0.817354 0.993035
O O5 0.359482 0.140029 0.889419
O O6 0.301406 0.070792 0.752462
O O7 0.250000 0.106716 0.000000
O O8 0.357680 0.049858 0.017551
O O9 0.194843 0.722035 0.093225
O O10 0.288092 0.790271 0.117858
O O11 0.880925 0.771190 0.795892
O O12 0.714049 0.500000 0.250000
O O13 0.750000 0.454643 0.500000
O O14 0.664871 0.420085 0.295088
O O15 0.582152 0.500000 0.250000
#
# Coordination Sequence:
#
# PCOD8295605 Si02
#       7
#    16  16   8  16  16  16  16
#     4  11  25  43  63  93 128 180 219 266 329 391
#     4   9  20  38  62  88 123 166 212 270 334 386
#     4  10  24  38  68 100 128 170 212 268 336 378
#     4  11  25  42  66  90 132 176 219 261 331 398
#     4  11  23  44  65  96 134 168 214 269 325 398
#     4  10  18  32  57  90 121 161 209 269 331 384
#     4   9  19  40  63  85 122 171 216 270 329 385
#
# _framework density 21.690242999999999
#
# number of rings (size 3 to 8) (size 9 to 14) (size 15 to 20)
#    0.000    1.846    1.538    2.769    3.231    6.154 
#    2.769    3.846    0.000    0.000    0.000    0.000 
#    0.000    0.000    0.000    0.000    0.000    0.000 
#
# Total GULP energy -644228.074523 kJ/mol
# GULP energy per Si atom -12389.001433 kJ/mol
# Density = 2.164087 g / cm^3
# Si number density = 21.690243 Si / 1000 Ang^3
#
#
#
# Elastic Constant Matrix: (Units=GPa)
#
#
# Indices 1 2 3 4 5 6 
#
# 1 83.9762 34.7893 43.1069 0.0000 0.0000 0.0000
# 2 34.7893 90.0402 37.8561 0.0000 0.0000 0.0000
# 3 43.1069 37.8561 145.9434 0.0000 0.0000 0.0000
# 4 0.0000 0.0000 0.0000 23.0030 0.0000 0.0000
# 5 0.0000 0.0000 0.0000 0.0000 36.5514 0.0000
# 6 0.0000 0.0000 0.0000 0.0000 0.0000 2.8987
#
#
#
# Elastic Compliance Matrix: (Units=1/GPa)
#
#
# Indices 1 2 3 4 5 6 
#
# 1 0.015553 -0.004577 -0.003407 0.000000 0.000000 0.000000
# 2 -0.004577 0.013813 -0.002231 0.000000 0.000000 0.000000
# 3 -0.003407 -0.002231 0.008437 0.000000 0.000000 0.000000
# 4 0.000000 0.000000 0.000000 0.043473 0.000000 0.000000
# 5 0.000000 0.000000 0.000000 0.000000 0.027359 0.000000
# 6 0.000000 0.000000 0.000000 0.000000 0.000000 0.344978
#
#
# Mechanical properties :
#
#
# Convention : Reuss Voigt Hill
#
# Bulk Modulus (GPa) = 57.55968 61.27382 59.41675
# Shear Modulus (GPa) = 10.42031 26.10448 18.26240
#
# Velocity S-wave (km/s) = 2.19421 3.47293 2.90481
# Velocity P-wave (km/s) = 5.74580 6.66277 6.22120
#
# Compressibility (1/GPa) = 0.01737327
#
# Stress axis : x y z
#
# Youngs Moduli (GPa) = 64.29637 72.39794 118.52773
#
# Poissons Ratio (x) = 0.33137 0.40378
# Poissons Ratio (y) = 0.29429 0.26443
# Poissons Ratio (z) = 0.21903 0.16151
#
# Static dielectric constant tensor:
#      x y z
#    x 4.023230 0.000000 0.000000 
#    y 0.000000 3.828980 0.000000 
#    z 0.000000 0.000000 4.308680 
# 
# 
# High freq. dielectric constant tensor:
#      x y z
#    x 1.852140 0.000000 0.000000 
#    y 0.000000 1.832850 0.000000 
#    z 0.000000 0.000000 1.859840 
# 
# From -- ./inp_files/6567.got.cif
#   From: 2010.03.12/outbox.cif.g09.slc.cpg/sg73_4_cif.got.tgz:6567.got - 2010.04.16 15:25:48.
