data_PCOD8295400
_publ_section_title
;
Structure prediction by ZEFSAII (Michael W. Deem and Ramdas Pophale) SiO2 
 PCOD8295400
Probable space group: I B A M
;
_chemical_formula_sum "Si O2"
_cell_formula_units_Z 64
_cell_length_a 10.074521
_cell_length_b 19.643380
_cell_length_c 15.459428
_cell_angle_alpha 90.000000
_cell_angle_beta 90.000000
_cell_angle_gamma 90.000000
_cell_volume 3059.384384
_symmetry_space_group_name_H-M "I B A M"
_symmetry_group_IT_number 72
_symmetry_cell_setting 'orthorhombic'
loop_
_space_group_symop_operation_xyz
x,y,z
-x,-y,z
x,-y,1/2-z
-x,y,1/2-z
-x,-y,-z
x,y,-z
-x,y,1/2+z
x,-y,1/2+z
1/2+x,1/2+y,1/2+z
1/2-x,1/2-y,1/2+z
1/2+x,1/2-y,-z
1/2-x,1/2+y,-z
1/2-x,1/2-y,1/2-z
1/2+x,1/2+y,1/2-z
1/2-x,1/2+y,z
1/2+x,1/2-y,z
loop_
_atom_site_type_symbol
_atom_site_label
_atom_site_fract_x
_atom_site_fract_y
_atom_site_fract_z
Si Si1 0.300362 0.497224 0.500000
Si Si2 0.148048 0.474061 0.661637
Si Si3 0.494120 0.613921 0.000000
Si Si4 0.328300 0.820627 0.603604
Si Si5 0.035898 0.211104 0.846694
O O1 0.216020 0.513911 0.583962
O O2 0.344022 0.416817 0.500000
O O3 0.420744 0.547420 0.500000
O O4 0.218040 0.500000 0.750000
O O5 0.161184 0.393359 0.650048
O O6 0.000000 0.500000 0.662486
O O7 0.521734 0.656244 0.086175
O O8 0.327194 0.825203 0.500000
O O9 0.194895 0.782074 0.637657
O O10 0.460534 0.781602 0.634564
O O11 0.000000 0.186476 0.750000
#
# Coordination Sequence:
#
# PCOD8295400 Si02
#       5
#     8  16   8  16  16
#     4  11  23  43  71  95 139 182 230 277 350 409
#     4  11  25  43  68  99 139 179 231 283 340 417
#     4  11  24  43  67 107 131 179 232 286 342 415
#     4  12  24  49  71 102 142 184 234 289 349 412
#     4  12  26  45  72 103 142 183 231 293 347 415
#
# _framework density 20.919241
#
# number of rings (size 3 to 8) (size 9 to 14) (size 15 to 20)
#    0.000    0.500    6.250    1.125    7.000    2.000 
#    0.000    2.500    0.000    0.000    0.000    0.000 
#    0.000    0.000    0.000    0.000    0.000    0.000 
#
# Total GULP energy -396719.742888 kJ/mol
# GULP energy per Si atom -12397.491965 kJ/mol
# Density = 2.087163 g / cm^3
# Si number density = 20.919241 Si / 1000 Ang^3
#
#
#
# Elastic Constant Matrix: (Units=GPa)
#
#
# Indices 1 2 3 4 5 6 
#
# 1 108.5568 53.7610 48.1405 0.0000 0.0000 0.0000
# 2 53.7610 107.0003 62.5560 0.0000 0.0000 0.0000
# 3 48.1405 62.5560 220.3615 0.0000 0.0000 0.0000
# 4 0.0000 0.0000 0.0000 50.2416 0.0000 0.0000
# 5 0.0000 0.0000 0.0000 0.0000 24.0409 0.0000
# 6 0.0000 0.0000 0.0000 0.0000 0.0000 36.1235
#
#
#
# Elastic Compliance Matrix: (Units=1/GPa)
#
#
# Indices 1 2 3 4 5 6 
#
# 1 0.012496 -0.005614 -0.001136 0.000000 0.000000 0.000000
# 2 -0.005614 0.013728 -0.002671 0.000000 0.000000 0.000000
# 3 -0.001136 -0.002671 0.005544 0.000000 0.000000 0.000000
# 4 0.000000 0.000000 0.000000 0.019904 0.000000 0.000000
# 5 0.000000 0.000000 0.000000 0.000000 0.041596 0.000000
# 6 0.000000 0.000000 0.000000 0.000000 0.000000 0.027683
#
#
# Mechanical properties :
#
#
# Convention : Reuss Voigt Hill
#
# Bulk Modulus (GPa) = 77.36159 84.98151 81.17155
# Shear Modulus (GPa) = 34.69785 40.17859 37.43822
#
# Velocity S-wave (km/s) = 4.07708 4.38728 4.23502
# Velocity P-wave (km/s) = 7.69576 8.14715 7.92467
#
# Compressibility (1/GPa) = 0.01292631
#
# Stress axis : x y z
#
# Youngs Moduli (GPa) = 80.02601 72.84461 180.36498
#
# Poissons Ratio (x) = 0.40896 0.20492
# Poissons Ratio (y) = 0.44928 0.48168
# Poissons Ratio (z) = 0.09092 0.19454
#
# Static dielectric constant tensor:
#      x y z
#    x 4.047060 0.000000 0.000000 
#    y 0.000000 3.726950 0.000000 
#    z 0.000000 0.000000 5.188010 
# 
# 
# High freq. dielectric constant tensor:
#      x y z
#    x 1.825490 0.000000 0.000000 
#    y 0.000000 1.818090 0.000000 
#    z 0.000000 0.000000 1.840760 
# 
# From -- ./inp_files/19767.got.cif
#   From: 2010.03.12/outbox.cif.g09.slc.cpg/sg72_10_cif.got.tgz:19767.got - 2010.04.16 14:54:00.
