data_PCOD8295512
_publ_section_title
;
Structure prediction by ZEFSAII (Michael W. Deem and Ramdas Pophale) SiO2 
 PCOD8295512
Probable space group: I B A M
;
_chemical_formula_sum "Si O2"
_cell_formula_units_Z 64
_cell_length_a 15.577945
_cell_length_b 13.410341
_cell_length_c 14.375494
_cell_angle_alpha 90.000000
_cell_angle_beta 90.000000
_cell_angle_gamma 90.000000
_cell_volume 3003.120546
_symmetry_space_group_name_H-M "I B A M"
_symmetry_group_IT_number 72
_symmetry_cell_setting 'orthorhombic'
loop_
_space_group_symop_operation_xyz
x,y,z
-x,-y,z
x,-y,1/2-z
-x,y,1/2-z
-x,-y,-z
x,y,-z
-x,y,1/2+z
x,-y,1/2+z
1/2+x,1/2+y,1/2+z
1/2-x,1/2-y,1/2+z
1/2+x,1/2-y,-z
1/2-x,1/2+y,-z
1/2-x,1/2-y,1/2-z
1/2+x,1/2+y,1/2-z
1/2-x,1/2+y,z
1/2+x,1/2-y,z
loop_
_atom_site_type_symbol
_atom_site_label
_atom_site_fract_x
_atom_site_fract_y
_atom_site_fract_z
Si Si1 0.628373 0.500000 0.750000
Si Si2 0.881209 0.726759 0.892484
Si Si3 0.594023 0.004313 0.108212
Si Si4 0.000000 0.832422 0.750000
Si Si5 0.256628 0.396696 0.608651
O O1 0.574420 0.594582 0.786988
O O2 0.683109 0.524979 0.659575
O O3 0.863064 0.611317 0.870061
O O4 0.962568 0.764874 0.833179
O O5 0.791722 0.785122 0.870347
O O6 0.907554 0.742051 0.000000
O O7 0.500000 0.000000 0.156839
O O8 0.658475 0.916678 0.144881
O O9 0.580520 0.986684 0.000000
O O10 0.261624 0.422397 0.500000
#
# Coordination Sequence:
#
# PCOD8295512 Si02
#       5
#     8  16  16   8  16
#     4   9  18  34  53  78 112 144 179 226 274 323
#     4   9  18  35  57  81 110 143 181 224 274 327
#     4   9  18  36  57  79 110 145 183 229 274 321
#     4   9  18  34  53  80 114 142 179 226 269 328
#     4   9  18  35  56  78 107 143 183 227 273 325
#
# _framework density 21.311164999999999
#
# number of rings (size 3 to 8) (size 9 to 14) (size 15 to 20)
#    0.000    3.000    0.000    0.000    0.000    1.000 
#    9.000    7.500    0.000    0.000    0.000    0.000 
#    0.000    0.000    0.000    0.000    0.000    0.000 
#
# Total GULP energy -396465.036608 kJ/mol
# GULP energy per Si atom -12389.532394 kJ/mol
# Density = 2.126266 g / cm^3
# Si number density = 21.311165 Si / 1000 Ang^3
#
#
#
# Elastic Constant Matrix: (Units=GPa)
#
#
# Indices 1 2 3 4 5 6 
#
# 1 168.2576 68.5647 25.7887 0.0000 0.0000 0.0000
# 2 68.5647 88.9159 17.7161 0.0000 0.0000 0.0000
# 3 25.7887 17.7161 48.2935 0.0000 0.0000 0.0000
# 4 0.0000 0.0000 0.0000 14.4748 0.0000 0.0000
# 5 0.0000 0.0000 0.0000 0.0000 15.9471 0.0000
# 6 0.0000 0.0000 0.0000 0.0000 0.0000 33.5594
#
#
#
# Elastic Compliance Matrix: (Units=1/GPa)
#
#
# Indices 1 2 3 4 5 6 
#
# 1 0.008921 -0.006397 -0.002417 0.000000 0.000000 0.000000
# 2 -0.006397 0.016721 -0.002718 0.000000 0.000000 0.000000
# 3 -0.002417 -0.002718 0.022994 0.000000 0.000000 0.000000
# 4 0.000000 0.000000 0.000000 0.069086 0.000000 0.000000
# 5 0.000000 0.000000 0.000000 0.000000 0.062708 0.000000
# 6 0.000000 0.000000 0.000000 0.000000 0.000000 0.029798
#
#
# Mechanical properties :
#
#
# Convention : Reuss Voigt Hill
#
# Bulk Modulus (GPa) = 39.10504 58.84508 48.97506
# Shear Modulus (GPa) = 20.67696 25.68941 23.18319
#
# Velocity S-wave (km/s) = 3.11825 3.47572 3.30182
# Velocity P-wave (km/s) = 5.59947 6.61663 6.12918
#
# Compressibility (1/GPa) = 0.02557215
#
# Stress axis : x y z
#
# Youngs Moduli (GPa) = 112.10051 59.80443 43.48901
#
# Poissons Ratio (x) = 0.38259 0.10510
# Poissons Ratio (y) = 0.71714 0.11820
# Poissons Ratio (z) = 0.27092 0.16254
#
# Static dielectric constant tensor:
#      x y z
#    x 4.223940 0.000000 0.000000 
#    y 0.000000 3.914520 0.000000 
#    z 0.000000 0.000000 3.624170 
# 
# 
# High freq. dielectric constant tensor:
#      x y z
#    x 1.839220 0.000000 0.000000 
#    y 0.000000 1.833080 0.000000 
#    z 0.000000 0.000000 1.823240 
# 
# From -- ./inp_files/30143.got.cif
#   From: 2010.03.12/outbox.cif.g09.slc.cpg/sg72_16_cif.got.tgz:30143.got - 2010.04.16 14:54:00.
