data_PCOD8295645
_publ_section_title
;
Structure prediction by ZEFSAII (Michael W. Deem and Ramdas Pophale) SiO2 
 PCOD8295645
Probable space group: I B C A 
;
_chemical_formula_sum "Si O2"
_cell_formula_units_Z 88
_cell_length_a 11.852733
_cell_length_b 29.137621
_cell_length_c 11.572678
_cell_angle_alpha 90.000000
_cell_angle_beta 90.000000
_cell_angle_gamma 90.000000
_cell_volume 3996.745189
_symmetry_space_group_name_H-M "I B C A "
_symmetry_group_IT_number 73
_symmetry_cell_setting 'orthorhombic'
loop_
_space_group_symop_operation_xyz
x,y,z
-x,1/2-y,z
x,-y,1/2-z
1/2-x,y,-z
-x,-y,-z
x,1/2+y,-z
-x,y,1/2+z
1/2+x,-y,z
1/2+x,1/2+y,1/2+z
1/2-x,-y,1/2+z
1/2+x,1/2-y,-z
-x,1/2+y,1/2-z
1/2-x,1/2-y,1/2-z
1/2+x,y,1/2-z
1/2-x,1/2+y,z
x,1/2-y,1/2+z
loop_
_atom_site_type_symbol
_atom_site_label
_atom_site_fract_x
_atom_site_fract_y
_atom_site_fract_z
Si Si1 0.000000 0.250000 0.035797
Si Si2 0.694937 0.801464 0.646196
Si Si3 0.675740 0.786093 0.900153
Si Si4 0.163651 0.902570 0.908799
Si Si5 0.721139 0.546853 0.315056
Si Si6 0.937397 0.453110 0.029520
O O1 0.910762 0.230827 0.125160
O O2 0.950664 0.289245 0.949852
O O3 0.697622 0.812961 0.782605
O O4 0.801689 0.769910 0.609586
O O5 0.680436 0.848147 0.575880
O O6 0.750000 0.809763 0.000000
O O7 0.206813 0.914076 0.780697
O O8 0.034161 0.916365 0.936059
O O9 0.250000 0.926761 0.000000
O O10 0.686810 0.500000 0.250000
O O11 0.849171 0.543095 0.363711
O O12 0.632840 0.560252 0.415495
O O13 0.000000 0.500000 0.000000
#
# Coordination Sequence:
#
# PCOD8295645 Si02
#       6
#     8  16  16  16  16  16
#     4  10  18  36  64  88 120 172 214 256 334 386
#     4  10  22  41  62  96 132 171 222 274 331 396
#     4   9  19  39  62  87 123 171 214 263 322 399
#     4  12  26  43  70 103 138 177 230 292 339 408
#     4  11  25  45  70 100 135 181 227 279 344 413
#     4  11  25  46  69  98 136 180 229 279 345 408
#
# _framework density 22.017916
#
# number of rings (size 3 to 8) (size 9 to 14) (size 15 to 20)
#    0.000    1.455    1.818    3.273    5.091    1.455 
#   16.364    0.000    0.000    0.000    0.000    0.000 
#    0.000    0.000    0.000    0.000    0.000    0.000 
#
# Total GULP energy -545179.416414 kJ/mol
# GULP energy per Si atom -12390.441282 kJ/mol
# Density = 2.196780 g / cm^3
# Si number density = 22.017916 Si / 1000 Ang^3
#
#
#
# Elastic Constant Matrix: (Units=GPa)
#
#
# Indices 1 2 3 4 5 6 
#
# 1 130.6891 16.6459 56.6353 0.0006 -0.0004 0.0000
# 2 16.6459 74.5195 6.1812 0.0013 -0.0006 -0.0002
# 3 56.6353 6.1812 147.8889 0.0064 -0.0043 -0.0013
# 4 0.0006 0.0013 0.0064 26.0913 -0.0019 -0.0006
# 5 -0.0004 -0.0006 -0.0043 -0.0019 32.5509 0.0005
# 6 0.0000 -0.0002 -0.0013 -0.0006 0.0005 17.3804
#
#
#
# Elastic Compliance Matrix: (Units=1/GPa)
#
#
# Indices 1 2 3 4 5 6 
#
# 1 0.009411 -0.001810 -0.003529 0.000001 0.000000 0.000000
# 2 -0.001810 0.013814 0.000116 -0.000001 0.000000 0.000000
# 3 -0.003529 0.000116 0.008108 -0.000002 0.000001 0.000001
# 4 0.000001 -0.000001 -0.000002 0.038327 0.000002 0.000001
# 5 0.000000 0.000000 0.000001 0.000002 0.030721 -0.000001
# 6 0.000000 0.000000 0.000001 0.000001 -0.000001 0.057536
#
#
# Mechanical properties :
#
#
# Convention : Reuss Voigt Hill
#
# Bulk Modulus (GPa) = 47.87303 56.89137 52.38220
# Shear Modulus (GPa) = 28.51838 33.44685 30.98262
#
# Velocity S-wave (km/s) = 3.60284 3.90176 3.75528
# Velocity P-wave (km/s) = 6.25278 6.79655 6.53033
#
# Compressibility (1/GPa) = 0.02088859
#
# Stress axis : x y z
#
# Youngs Moduli (GPa) = 106.25460 72.39070 123.33072
#
# Poissons Ratio (x) = 0.13100 0.43518
# Poissons Ratio (y) = 0.19228 -0.01426
# Poissons Ratio (z) = 0.37492 -0.00837
#
# Static dielectric constant tensor:
#      x y z
#    x 4.622380 0.000000 -0.000010 
#    y 0.000000 3.585670 0.000000 
#    z -0.000010 0.000000 4.281840 
# 
# 
# High freq. dielectric constant tensor:
#      x y z
#    x 1.874600 0.000000 0.000000 
#    y 0.000000 1.832530 0.000000 
#    z 0.000000 0.000000 1.893820 
# 
# From -- ./inp_files/9858.got.cif
#   From: 2010.03.12/outbox.cif.g09.slc.cpg/sg73_5_cif.got.tgz:9858.got - 2010.04.16 15:25:48.
