data_PCOD8295749
_publ_section_title
;
Structure prediction by ZEFSAII (Michael W. Deem and Ramdas Pophale) SiO2 
 PCOD8295749
Probable space group: I B C A 
;
_chemical_formula_sum "Si O2"
_cell_formula_units_Z 96
_cell_length_a 21.854120
_cell_length_b 18.151533
_cell_length_c 10.616913
_cell_angle_alpha 90.000000
_cell_angle_beta 90.000000
_cell_angle_gamma 90.000000
_cell_volume 4211.578418
_symmetry_space_group_name_H-M "I B C A "
_symmetry_group_IT_number 73
_symmetry_cell_setting 'orthorhombic'
loop_
_space_group_symop_operation_xyz
x,y,z
-x,1/2-y,z
x,-y,1/2-z
1/2-x,y,-z
-x,-y,-z
x,1/2+y,-z
-x,y,1/2+z
1/2+x,-y,z
1/2+x,1/2+y,1/2+z
1/2-x,-y,1/2+z
1/2+x,1/2-y,-z
-x,1/2+y,1/2-z
1/2-x,1/2-y,1/2-z
1/2+x,y,1/2-z
1/2-x,1/2+y,z
x,1/2-y,1/2+z
loop_
_atom_site_type_symbol
_atom_site_label
_atom_site_fract_x
_atom_site_fract_y
_atom_site_fract_z
Si Si1 0.129157 0.707144 0.368216
Si Si2 0.340241 0.115241 0.090614
Si Si3 0.928205 0.740870 0.615542
Si Si4 0.712731 0.834066 0.153857
Si Si5 0.312866 0.059309 0.654041
Si Si6 0.169918 0.451427 0.121124
O O1 0.098187 0.705033 0.506548
O O2 0.091137 0.753169 0.262295
O O3 0.193686 0.750857 0.382569
O O4 0.139384 0.622669 0.316107
O O5 0.404262 0.158750 0.081567
O O6 0.286709 0.162440 0.161994
O O7 0.351397 0.035331 0.161904
O O8 0.313237 0.106188 0.949053
O O9 0.000000 0.750000 0.607545
O O10 0.682713 0.858776 0.286193
O O11 0.349809 0.057987 0.524454
O O12 0.241762 0.043382 0.633722
O O13 0.341355 0.000000 0.750000
#
# Coordination Sequence:
#
# PCOD8295749 Si02
#       6
#    16  16  16  16  16  16
#     4  11  25  41  68  96 130 164 219 270 323 393
#     4  10  20  36  61  91 128 165 211 258 321 381
#     4  11  25  46  66  88 121 173 218 272 326 383
#     4  10  19  36  58  93 132 170 197 257 328 379
#     4  11  18  31  56  87 141 177 203 246 310 405
#     4  11  22  34  57  98 125 176 214 256 317 383
#
# _framework density 22.794305000000001
#
# number of rings (size 3 to 8) (size 9 to 14) (size 15 to 20)
#    0.000    1.333    3.333    3.500    0.000    8.000 
#    0.000    0.833    0.000    4.000    0.000    0.000 
#    0.000    0.000    0.000    0.000    0.000    0.000 
#
# Total GULP energy -594636.633214 kJ/mol
# GULP energy per Si atom -12388.263192 kJ/mol
# Density = 2.274242 g / cm^3
# Si number density = 22.794305 Si / 1000 Ang^3
#
#
#
# Elastic Constant Matrix: (Units=GPa)
#
#
# Indices 1 2 3 4 5 6 
#
# 1 106.3320 62.9378 30.1883 0.0000 0.0000 0.0000
# 2 62.9378 146.4507 36.8051 0.0000 0.0000 0.0000
# 3 30.1883 36.8051 103.6203 0.0000 0.0000 0.0000
# 4 0.0000 0.0000 0.0000 45.7512 0.0000 0.0000
# 5 0.0000 0.0000 0.0000 0.0000 24.0552 0.0000
# 6 0.0000 0.0000 0.0000 0.0000 0.0000 16.6681
#
#
#
# Elastic Compliance Matrix: (Units=1/GPa)
#
#
# Indices 1 2 3 4 5 6 
#
# 1 0.012971 -0.005078 -0.001975 0.000000 0.000000 0.000000
# 2 -0.005078 0.009485 -0.001890 0.000000 0.000000 0.000000
# 3 -0.001975 -0.001890 0.010897 0.000000 0.000000 0.000000
# 4 0.000000 0.000000 0.000000 0.021857 0.000000 0.000000
# 5 0.000000 0.000000 0.000000 0.000000 0.041571 0.000000
# 6 0.000000 0.000000 0.000000 0.000000 0.000000 0.059995
#
#
# Mechanical properties :
#
#
# Convention : Reuss Voigt Hill
#
# Bulk Modulus (GPa) = 64.65053 68.47395 66.56224
# Shear Modulus (GPa) = 27.80580 32.39301 30.09941
#
# Velocity S-wave (km/s) = 3.49643 3.77384 3.63778
# Velocity P-wave (km/s) = 6.68762 7.00673 6.84903
#
# Compressibility (1/GPa) = 0.01546778
#
# Stress axis : x y z
#
# Youngs Moduli (GPa) = 77.09572 105.42511 91.76571
#
# Poissons Ratio (x) = 0.53534 0.18126
# Poissons Ratio (y) = 0.39148 0.17342
# Poissons Ratio (z) = 0.15228 0.19923
#
# Static dielectric constant tensor:
#      x y z
#    x 3.315810 0.000000 0.000000 
#    y 0.000000 4.138950 0.000000 
#    z 0.000000 0.000000 5.315560 
# 
# 
# High freq. dielectric constant tensor:
#      x y z
#    x 1.809010 0.000000 0.000000 
#    y 0.000000 1.905540 0.000000 
#    z 0.000000 0.000000 1.963410 
# 
# From -- ./inp_files/13657.got.cif
#   From: 2010.03.12/outbox.cif.g09.slc.cpg/sg73_7_cif.got.tgz:13657.got - 2010.04.16 15:25:48.
