data_PCOD8295366
_publ_section_title
;
Structure prediction by ZEFSAII (Michael W. Deem and Ramdas Pophale) SiO2 
 PCOD8295366
Probable space group: I B A M
;
_chemical_formula_sum "Si O2"
_cell_formula_units_Z 88
_cell_length_a 20.165957
_cell_length_b 9.186761
_cell_length_c 22.594813
_cell_angle_alpha 90.000000
_cell_angle_beta 90.000000
_cell_angle_gamma 90.000000
_cell_volume 4185.911154
_symmetry_space_group_name_H-M "I B A M"
_symmetry_group_IT_number 72
_symmetry_cell_setting 'orthorhombic'
loop_
_space_group_symop_operation_xyz
x,y,z
-x,-y,z
x,-y,1/2-z
-x,y,1/2-z
-x,-y,-z
x,y,-z
-x,y,1/2+z
x,-y,1/2+z
1/2+x,1/2+y,1/2+z
1/2-x,1/2-y,1/2+z
1/2+x,1/2-y,-z
1/2-x,1/2+y,-z
1/2-x,1/2-y,1/2-z
1/2+x,1/2+y,1/2-z
1/2-x,1/2+y,z
1/2+x,1/2-y,z
loop_
_atom_site_type_symbol
_atom_site_label
_atom_site_fract_x
_atom_site_fract_y
_atom_site_fract_z
Si Si1 0.568427 0.844579 0.276407
Si Si2 0.492639 0.159270 0.600083
Si Si3 0.137931 0.224396 0.598672
Si Si4 0.320318 0.946531 0.500000
Si Si5 0.329066 0.510682 0.500000
Si Si6 0.814070 0.165068 0.229443
Si Si7 0.405272 0.770444 0.000000
O O1 0.500000 0.785867 0.250000
O O2 0.556383 0.865716 0.345270
O O3 0.623537 0.725125 0.265256
O O4 0.590436 0.000000 0.250000
O O5 0.562926 0.232291 0.616147
O O6 0.452948 0.261651 0.555429
O O7 0.500000 0.000000 0.570518
O O8 0.172636 0.351383 0.559929
O O9 0.177459 0.189247 0.658963
O O10 0.138615 0.080489 0.558560
O O11 0.250096 0.028218 0.500000
O O12 0.377129 0.066893 0.500000
O O13 0.344439 0.340188 0.500000
O O14 0.750000 0.250000 0.250000
O O15 0.805353 0.000000 0.250000
#
# Coordination Sequence:
#
# PCOD8295366 Si02
#       7
#    16  16  16   8   8  16   8
#     4  11  22  44  72 104 139 190 232 288 354 422
#     4  12  22  42  74 101 138 179 240 287 346 417
#     4  11  25  47  69 102 142 178 234 294 346 414
#     4  11  24  45  77  95 140 190 236 285 344 428
#     4  11  28  46  63 106 141 186 226 291 359 408
#     4  12  29  48  73 107 144 187 237 292 355 428
#     4  12  25  40  74 105 131 188 239 287 347 408
#
# _framework density 21.022901000000001
#
# number of rings (size 3 to 8) (size 9 to 14) (size 15 to 20)
#    0.000    0.545    5.455    3.000    5.091    3.273 
#    0.000    0.000    0.000    0.000    0.000    0.000 
#    0.000    0.000    0.000    0.000    0.000    0.000 
#
# Total GULP energy -545661.323033 kJ/mol
# GULP energy per Si atom -12401.393705 kJ/mol
# Density = 2.097505 g / cm^3
# Si number density = 21.022901 Si / 1000 Ang^3
#
#
#
# Elastic Constant Matrix: (Units=GPa)
#
#
# Indices 1 2 3 4 5 6 
#
# 1 114.2906 61.9045 47.2049 0.0000 0.0000 0.0000
# 2 61.9045 130.1780 51.3102 0.0000 0.0000 0.0000
# 3 47.2049 51.3102 154.3220 0.0000 0.0000 0.0000
# 4 0.0000 0.0000 0.0000 13.5855 0.0000 0.0000
# 5 0.0000 0.0000 0.0000 0.0000 62.5089 0.0000
# 6 0.0000 0.0000 0.0000 0.0000 0.0000 39.8591
#
#
#
# Elastic Compliance Matrix: (Units=1/GPa)
#
#
# Indices 1 2 3 4 5 6 
#
# 1 0.012350 -0.005045 -0.002100 0.000000 0.000000 0.000000
# 2 -0.005045 0.010901 -0.002081 0.000000 0.000000 0.000000
# 3 -0.002100 -0.002081 0.007814 0.000000 0.000000 0.000000
# 4 0.000000 0.000000 0.000000 0.073608 0.000000 0.000000
# 5 0.000000 0.000000 0.000000 0.000000 0.015998 0.000000
# 6 0.000000 0.000000 0.000000 0.000000 0.000000 0.025088
#
#
# Mechanical properties :
#
#
# Convention : Reuss Voigt Hill
#
# Bulk Modulus (GPa) = 79.28767 79.95886 79.62327
# Shear Modulus (GPa) = 29.68840 39.08210 34.38525
#
# Velocity S-wave (km/s) = 3.76199 4.31632 4.04865
# Velocity P-wave (km/s) = 7.52774 7.93458 7.73384
#
# Compressibility (1/GPa) = 0.01261230
#
# Stress axis : x y z
#
# Youngs Moduli (GPa) = 80.97446 91.73306 127.96885
#
# Poissons Ratio (x) = 0.46278 0.26876
# Poissons Ratio (y) = 0.40851 0.26635
# Poissons Ratio (z) = 0.17006 0.19093
#
# Static dielectric constant tensor:
#      x y z
#    x 3.597830 0.000000 0.000000 
#    y 0.000000 3.745260 0.000000 
#    z 0.000000 0.000000 3.761330 
# 
# 
# High freq. dielectric constant tensor:
#      x y z
#    x 1.830750 0.000000 0.000000 
#    y 0.000000 1.819370 0.000000 
#    z 0.000000 0.000000 1.837760 
# 
# From -- ./inp_files/45292.got.cif
#   From: 2010.03.12/outbox.cif.g09.slc.cpg/sg72_23_cif.got.tgz:45292.got - 2010.04.16 14:54:00.
