data_PCOD8295439
_publ_section_title
;
Structure prediction by ZEFSAII (Michael W. Deem and Ramdas Pophale) SiO2 
 PCOD8295439
Probable space group: I B A M
;
_chemical_formula_sum "Si O2"
_cell_formula_units_Z 56
_cell_length_a 6.881148
_cell_length_b 18.277386
_cell_length_c 18.560617
_cell_angle_alpha 90.000000
_cell_angle_beta 90.000000
_cell_angle_gamma 90.000000
_cell_volume 2334.357629
_symmetry_space_group_name_H-M "I B A M"
_symmetry_group_IT_number 72
_symmetry_cell_setting 'orthorhombic'
loop_
_space_group_symop_operation_xyz
x,y,z
-x,-y,z
x,-y,1/2-z
-x,y,1/2-z
-x,-y,-z
x,y,-z
-x,y,1/2+z
x,-y,1/2+z
1/2+x,1/2+y,1/2+z
1/2-x,1/2-y,1/2+z
1/2+x,1/2-y,-z
1/2-x,1/2+y,-z
1/2-x,1/2-y,1/2-z
1/2+x,1/2+y,1/2-z
1/2-x,1/2+y,z
1/2+x,1/2-y,z
loop_
_atom_site_type_symbol
_atom_site_label
_atom_site_fract_x
_atom_site_fract_y
_atom_site_fract_z
Si Si1 0.204798 0.142459 0.138901
Si Si2 0.792749 0.197020 0.861484
Si Si3 0.255484 0.444585 0.500000
Si Si4 0.500000 0.855844 0.250000
Si Si5 0.184904 0.604163 0.500000
O O1 0.316945 0.217699 0.116009
O O2 0.156960 0.091964 0.071156
O O3 0.349070 0.100209 0.196831
O O4 0.993251 0.163596 0.169232
O O5 0.638599 0.195488 0.797031
O O6 0.719569 0.151824 0.929747
O O7 0.316686 0.530402 0.500000
O O8 0.028542 0.428352 0.500000
#
# Coordination Sequence:
#
# PCOD8295439 Si02
#       5
#    16  16   8   8   8
#     4  12  24  41  70 100 134 170 219 270 327 387
#     4  12  24  41  70 100 134 170 219 270 327 387
#     4  11  24  47  70  94 131 174 222 277 325 381
#     4  12  24  42  65 104 135 176 210 264 338 382
#     4  11  24  47  70  94 131 174 222 277 325 381
#
# _framework density 23.989470000000001
#
# number of rings (size 3 to 8) (size 9 to 14) (size 15 to 20)
#    0.000    0.286    5.714    3.429    0.000    2.286 
#    0.000    2.857    0.000    3.429    0.000    0.000 
#    0.000    0.000    0.000    0.000    0.000    0.000 
#
# Total GULP energy -346924.081574 kJ/mol
# GULP energy per Si atom -12390.145771 kJ/mol
# Density = 2.393487 g / cm^3
# Si number density = 23.989470 Si / 1000 Ang^3
#
#
#
# Elastic Constant Matrix: (Units=GPa)
#
#
# Indices 1 2 3 4 5 6 
#
# 1 118.5926 24.7978 54.4309 0.0000 0.0000 0.0000
# 2 24.7978 81.9366 51.5392 0.0000 0.0000 0.0000
# 3 54.4309 51.5392 148.5359 0.0000 0.0000 0.0000
# 4 0.0000 0.0000 0.0000 16.9457 0.0000 0.0000
# 5 0.0000 0.0000 0.0000 0.0000 91.1485 0.0000
# 6 0.0000 0.0000 0.0000 0.0000 0.0000 27.4218
#
#
#
# Elastic Compliance Matrix: (Units=1/GPa)
#
#
# Indices 1 2 3 4 5 6 
#
# 1 0.010194 -0.000941 -0.003409 0.000000 0.000000 0.000000
# 2 -0.000941 0.015699 -0.005102 0.000000 0.000000 0.000000
# 3 -0.003409 -0.005102 0.009752 0.000000 0.000000 0.000000
# 4 0.000000 0.000000 0.000000 0.059012 0.000000 0.000000
# 5 0.000000 0.000000 0.000000 0.000000 0.010971 0.000000
# 6 0.000000 0.000000 0.000000 0.000000 0.000000 0.036467
#
#
# Mechanical properties :
#
#
# Convention : Reuss Voigt Hill
#
# Bulk Modulus (GPa) = 59.73708 67.84456 63.79082
# Shear Modulus (GPa) = 30.01575 41.65636 35.83605
#
# Velocity S-wave (km/s) = 3.54108 4.17159 3.86920
# Velocity P-wave (km/s) = 6.45557 7.17950 6.82714
#
# Compressibility (1/GPa) = 0.01674002
#
# Stress axis : x y z
#
# Youngs Moduli (GPa) = 98.10090 63.69926 102.54239
#
# Poissons Ratio (x) = 0.05992 0.34957
# Poissons Ratio (y) = 0.09229 0.52322
# Poissons Ratio (z) = 0.33443 0.32502
#
# Static dielectric constant tensor:
#      x y z
#    x 4.783950 0.000000 0.000000 
#    y 0.000000 4.085770 0.000000 
#    z 0.000000 0.000000 4.505100 
# 
# 
# High freq. dielectric constant tensor:
#      x y z
#    x 1.993800 0.000000 0.000000 
#    y 0.000000 1.907260 0.000000 
#    z 0.000000 0.000000 1.954300 
# 
# From -- ./inp_files/27533.got.cif
#   From: 2010.03.12/outbox.cif.g09.slc.cpg/sg72_14_cif.got.tgz:27533.got - 2010.04.16 14:54:00.
