data_PCOD8295005
_publ_section_title
;
Structure prediction by ZEFSAII (Michael W. Deem and Ramdas Pophale) SiO2 
 PCOD8295005
Probable space group: I B A M
;
_chemical_formula_sum "Si O2"
_cell_formula_units_Z 96
_cell_length_a 22.961291
_cell_length_b 11.547120
_cell_length_c 18.159017
_cell_angle_alpha 90.000000
_cell_angle_beta 90.000000
_cell_angle_gamma 90.000000
_cell_volume 4814.623341
_symmetry_space_group_name_H-M "I B A M"
_symmetry_group_IT_number 72
_symmetry_cell_setting 'orthorhombic'
loop_
_space_group_symop_operation_xyz
x,y,z
-x,-y,z
x,-y,1/2-z
-x,y,1/2-z
-x,-y,-z
x,y,-z
-x,y,1/2+z
x,-y,1/2+z
1/2+x,1/2+y,1/2+z
1/2-x,1/2-y,1/2+z
1/2+x,1/2-y,-z
1/2-x,1/2+y,-z
1/2-x,1/2-y,1/2-z
1/2+x,1/2+y,1/2-z
1/2-x,1/2+y,z
1/2+x,1/2-y,z
loop_
_atom_site_type_symbol
_atom_site_label
_atom_site_fract_x
_atom_site_fract_y
_atom_site_fract_z
Si Si1 0.418431 0.771720 0.585225
Si Si2 0.145436 0.133906 0.171108
Si Si3 0.706703 0.830237 0.415844
Si Si4 0.675306 0.376232 0.663734
Si Si5 0.409234 0.040765 0.416826
Si Si6 0.472052 0.766118 0.828478
O O1 0.414877 0.741641 0.500000
O O2 0.361912 0.721232 0.623950
O O3 0.477529 0.717074 0.618097
O O4 0.418996 0.907774 0.602048
O O5 0.179380 0.209403 0.111048
O O6 0.176749 0.149489 0.249496
O O7 0.077796 0.169158 0.177050
O O8 0.147701 0.001063 0.145631
O O9 0.727389 0.813447 0.500000
O O10 0.759243 0.870722 0.365088
O O11 0.658974 0.931279 0.409161
O O12 0.430571 0.069552 0.500000
O O13 0.446654 0.114456 0.359816
O O14 0.500000 0.793171 0.750000
#
# Coordination Sequence:
#
# PCOD8295005 Si02
#       6
#    16  16  16  16  16  16
#     4  11  23  39  62  95 130 163 210 263 317 378
#     4  10  24  44  63  90 127 168 210 262 312 375
#     4  10  22  41  66  93 126 164 208 259 313 375
#     4  11  23  42  63  93 125 171 212 255 318 375
#     4   9  21  40  62  93 130 165 201 260 320 368
#     4  11  21  41  63  91 126 168 217 257 315 369
#
# _framework density 19.939254999999999
#
# number of rings (size 3 to 8) (size 9 to 14) (size 15 to 20)
#    0.000    1.667    1.667    2.000    2.333    5.333 
#    0.000    0.833    0.000    0.000    0.000    0.000 
#    0.000    0.000    0.000    0.000    0.000    0.000 
#
# Total GULP energy -595451.224397 kJ/mol
# GULP energy per Si atom -12405.233842 kJ/mol
# Density = 1.989387 g / cm^3
# Si number density = 19.939255 Si / 1000 Ang^3
#
#
#
# Elastic Constant Matrix: (Units=GPa)
#
#
# Indices 1 2 3 4 5 6 
#
# 1 105.4449 18.4081 19.8276 0.0000 0.0000 0.0000
# 2 18.4081 52.8608 5.3113 0.0000 0.0000 0.0000
# 3 19.8276 5.3113 42.1581 0.0000 0.0000 0.0000
# 4 0.0000 0.0000 0.0000 27.6999 0.0000 0.0000
# 5 0.0000 0.0000 0.0000 0.0000 26.5624 0.0000
# 6 0.0000 0.0000 0.0000 0.0000 0.0000 19.0054
#
#
#
# Elastic Compliance Matrix: (Units=1/GPa)
#
#
# Indices 1 2 3 4 5 6 
#
# 1 0.010957 -0.003340 -0.004732 0.000000 0.000000 0.000000
# 2 -0.003340 0.020178 -0.000971 0.000000 0.000000 0.000000
# 3 -0.004732 -0.000971 0.026068 0.000000 0.000000 0.000000
# 4 0.000000 0.000000 0.000000 0.036101 0.000000 0.000000
# 5 0.000000 0.000000 0.000000 0.000000 0.037647 0.000000
# 6 0.000000 0.000000 0.000000 0.000000 0.000000 0.052617
#
#
# Mechanical properties :
#
#
# Convention : Reuss Voigt Hill
#
# Bulk Modulus (GPa) = 25.56498 31.95087 28.75792
# Shear Modulus (GPa) = 23.28897 25.11466 24.20181
#
# Velocity S-wave (km/s) = 3.42130 3.55288 3.48771
# Velocity P-wave (km/s) = 5.33445 5.73493 5.53831
#
# Compressibility (1/GPa) = 0.03911601
#
# Stress axis : x y z
#
# Youngs Moduli (GPa) = 91.26962 49.55814 38.36084
#
# Poissons Ratio (x) = 0.16552 0.18153
# Poissons Ratio (y) = 0.30484 0.03726
# Poissons Ratio (z) = 0.43191 0.04814
#
# Static dielectric constant tensor:
#      x y z
#    x 3.762910 0.000000 0.000000 
#    y 0.000000 3.503250 0.000000 
#    z 0.000000 0.000000 3.754420 
# 
# 
# High freq. dielectric constant tensor:
#      x y z
#    x 1.792030 0.000000 0.000000 
#    y 0.000000 1.770100 0.000000 
#    z 0.000000 0.000000 1.789700 
# 
# From -- ./inp_files/33264.got.cif
#   From: 2010.03.12/outbox.cif.g09.slc.cpg/sg72_17_cif.got.tgz:33264.got - 2010.04.16 14:54:00.
