data_PCOD8295266
_publ_section_title
;
Structure prediction by ZEFSAII (Michael W. Deem and Ramdas Pophale) SiO2 
 PCOD8295266
Probable space group: I B A M
;
_chemical_formula_sum "Si O2"
_cell_formula_units_Z 80
_cell_length_a 23.113484
_cell_length_b 28.656332
_cell_length_c 9.058102
_cell_angle_alpha 90.000000
_cell_angle_beta 90.000000
_cell_angle_gamma 90.000000
_cell_volume 5999.612765
_symmetry_space_group_name_H-M "I B A M"
_symmetry_group_IT_number 72
_symmetry_cell_setting 'orthorhombic'
loop_
_space_group_symop_operation_xyz
x,y,z
-x,-y,z
x,-y,1/2-z
-x,y,1/2-z
-x,-y,-z
x,y,-z
-x,y,1/2+z
x,-y,1/2+z
1/2+x,1/2+y,1/2+z
1/2-x,1/2-y,1/2+z
1/2+x,1/2-y,-z
1/2-x,1/2+y,-z
1/2-x,1/2-y,1/2-z
1/2+x,1/2+y,1/2-z
1/2-x,1/2+y,z
1/2+x,1/2-y,z
loop_
_atom_site_type_symbol
_atom_site_label
_atom_site_fract_x
_atom_site_fract_y
_atom_site_fract_z
Si Si1 0.669319 0.223285 0.337630
Si Si2 0.124248 0.130367 0.324965
Si Si3 0.560151 0.275768 0.325458
Si Si4 0.762985 0.180459 0.161838
Si Si5 0.439413 0.451129 0.322194
O O1 0.658116 0.203229 0.500000
O O2 0.607784 0.238357 0.265976
O O3 0.703069 0.182239 0.252198
O O4 0.708860 0.268822 0.346278
O O5 0.121721 0.119235 0.500000
O O6 0.080017 0.171957 0.285295
O O7 0.189239 0.144589 0.274552
O O8 0.108480 0.086251 0.224880
O O9 0.500000 0.263703 0.250000
O O10 0.554218 0.270849 0.500000
O O11 0.745213 0.163445 0.000000
O O12 0.420556 0.500000 0.250000
O O13 0.500000 0.435270 0.250000
O O14 0.444541 0.454903 0.500000
#
# Coordination Sequence:
#
# PCOD8295266 Si02
#       5
#    16  16  16  16  16
#     4   8  14  24  35  49  70  92 116 146 178 211
#     4   9  17  29  41  55  74  92 117 153 188 220
#     4   9  17  26  36  51  72  97 122 152 185 215
#     4   8  14  24  38  53  69  90 114 144 180 214
#     4  11  21  32  44  56  71  93 120 150 187 225
#
# _framework density 13.334194
#
# number of rings (size 3 to 8) (size 9 to 14) (size 15 to 20)
#    0.000    3.000    0.000    5.400    0.000    4.000 
#    0.000    4.000    0.000    0.000    0.000    0.000 
#    0.000    0.000    0.000    0.000    0.000    1.000 
#
# Total GULP energy -495614.065463 kJ/mol
# GULP energy per Si atom -12390.351637 kJ/mol
# Density = 1.330384 g / cm^3
# Si number density = 13.334194 Si / 1000 Ang^3
#
#
#
# Elastic Constant Matrix: (Units=GPa)
#
#
# Indices 1 2 3 4 5 6 
#
# 1 96.7788 46.4499 42.6536 0.0000 0.0000 0.0000
# 2 46.4499 52.5501 33.1418 0.0000 0.0000 0.0000
# 3 42.6536 33.1418 66.2158 0.0000 0.0000 0.0000
# 4 0.0000 0.0000 0.0000 17.2316 0.0000 0.0000
# 5 0.0000 0.0000 0.0000 0.0000 23.3771 0.0000
# 6 0.0000 0.0000 0.0000 0.0000 0.0000 22.8122
#
#
#
# Elastic Compliance Matrix: (Units=1/GPa)
#
#
# Indices 1 2 3 4 5 6 
#
# 1 0.019311 -0.013479 -0.005693 0.000000 0.000000 0.000000
# 2 -0.013479 0.037215 -0.009944 0.000000 0.000000 0.000000
# 3 -0.005693 -0.009944 0.023747 0.000000 0.000000 0.000000
# 4 0.000000 0.000000 0.000000 0.058033 0.000000 0.000000
# 5 0.000000 0.000000 0.000000 0.000000 0.042777 0.000000
# 6 0.000000 0.000000 0.000000 0.000000 0.000000 0.043836
#
#
# Mechanical properties :
#
#
# Convention : Reuss Voigt Hill
#
# Bulk Modulus (GPa) = 45.37070 51.11502 48.24286
# Shear Modulus (GPa) = 17.21176 18.90414 18.05795
#
# Velocity S-wave (km/s) = 3.59667 3.76935 3.68402
# Velocity P-wave (km/s) = 7.16573 7.57370 7.37254
#
# Compressibility (1/GPa) = 0.02204066
#
# Stress axis : x y z
#
# Youngs Moduli (GPa) = 51.78262 26.87062 42.11139
#
# Poissons Ratio (x) = 0.36220 0.23975
# Poissons Ratio (y) = 0.69799 0.41875
# Poissons Ratio (z) = 0.29481 0.26720
#
# Static dielectric constant tensor:
#      x y z
#    x 2.769980 0.000000 0.000000 
#    y 0.000000 2.405060 0.000000 
#    z 0.000000 0.000000 2.797840 
# 
# 
# High freq. dielectric constant tensor:
#      x y z
#    x 1.497460 0.000000 0.000000 
#    y 0.000000 1.461210 0.000000 
#    z 0.000000 0.000000 1.510750 
# 
# From -- ./inp_files/6240.got.cif
#   From: 2010.03.12/outbox.cif.g09.slc.cpg/sg72_4_cif.got.tgz:6240.got - 2010.04.16 14:54:00.
