data_PCOD8295526
_publ_section_title
;
Structure prediction by ZEFSAII (Michael W. Deem and Ramdas Pophale) SiO2 
 PCOD8295526
Probable space group: I B C A 
;
_chemical_formula_sum "Si O2"
_cell_formula_units_Z 80
_cell_length_a 15.779018
_cell_length_b 8.241588
_cell_length_c 25.842757
_cell_angle_alpha 90.000000
_cell_angle_beta 90.000000
_cell_angle_gamma 90.000000
_cell_volume 3360.699766
_symmetry_space_group_name_H-M "I B C A "
_symmetry_group_IT_number 73
_symmetry_cell_setting 'orthorhombic'
loop_
_space_group_symop_operation_xyz
x,y,z
-x,1/2-y,z
x,-y,1/2-z
1/2-x,y,-z
-x,-y,-z
x,1/2+y,-z
-x,y,1/2+z
1/2+x,-y,z
1/2+x,1/2+y,1/2+z
1/2-x,-y,1/2+z
1/2+x,1/2-y,-z
-x,1/2+y,1/2-z
1/2-x,1/2-y,1/2-z
1/2+x,y,1/2-z
1/2-x,1/2+y,z
x,1/2-y,1/2+z
loop_
_atom_site_type_symbol
_atom_site_label
_atom_site_fract_x
_atom_site_fract_y
_atom_site_fract_z
Si Si1 0.000000 0.250000 0.294580
Si Si2 0.869142 0.137572 0.645575
Si Si3 0.379714 0.000000 0.750000
Si Si4 0.323251 0.504621 0.042253
Si Si5 0.939758 0.522332 0.864606
Si Si6 0.409471 0.324954 0.540508
O O1 0.062412 0.366321 0.327311
O O2 0.939152 0.345522 0.256614
O O3 0.829634 0.047787 0.697117
O O4 0.879994 0.330277 0.654958
O O5 0.961176 0.066891 0.630752
O O6 0.806668 0.091438 0.597827
O O7 0.338864 0.313888 0.049778
O O8 0.250000 0.535939 0.000000
O O9 0.404148 0.596130 0.016593
O O10 0.897723 0.471136 0.918859
O O11 0.500000 0.250000 0.550023
#
# Coordination Sequence:
#
# PCOD8295526 Si02
#       6
#     8  16   8  16  16  16
#     4  10  16  30  48  90 132 164 214 276 334 368
#     4  10  21  36  59  92 131 176 218 272 330 387
#     4  10  18  32  56  88 130 178 218 270 322 394
#     4  12  26  41  60  93 137 175 218 276 342 400
#     4  10  19  34  60  94 132 169 221 275 324 388
#     4  12  22  40  63  93 127 174 223 272 329 406
#
# _framework density 23.804566999999999
#
# number of rings (size 3 to 8) (size 9 to 14) (size 15 to 20)
#    0.000    1.200    3.000    6.000    2.800    0.000 
#    0.000    1.000    0.000    0.000    0.000   28.000 
#    0.000    0.000    0.000    0.000    0.000    0.000 
#
# Total GULP energy -495791.279619 kJ/mol
# GULP energy per Si atom -12394.781990 kJ/mol
# Density = 2.375039 g / cm^3
# Si number density = 23.804567 Si / 1000 Ang^3
#
#
#
# Elastic Constant Matrix: (Units=GPa)
#
#
# Indices 1 2 3 4 5 6 
#
# 1 32.7352 16.1549 25.7639 0.0000 0.0000 0.0000
# 2 16.1549 148.3520 61.8798 0.0000 0.0000 0.0000
# 3 25.7639 61.8798 188.3457 0.0000 0.0000 0.0000
# 4 0.0000 0.0000 0.0000 51.9173 0.0000 0.0000
# 5 0.0000 0.0000 0.0000 0.0000 27.0160 0.0000
# 6 0.0000 0.0000 0.0000 0.0000 0.0000 15.3528
#
#
#
# Elastic Compliance Matrix: (Units=1/GPa)
#
#
# Indices 1 2 3 4 5 6 
#
# 1 0.034784 -0.002089 -0.004072 0.000000 0.000000 0.000000
# 2 -0.002089 0.007937 -0.002322 0.000000 0.000000 0.000000
# 3 -0.004072 -0.002322 0.006629 0.000000 0.000000 0.000000
# 4 0.000000 0.000000 0.000000 0.019261 0.000000 0.000000
# 5 0.000000 0.000000 0.000000 0.000000 0.037015 0.000000
# 6 0.000000 0.000000 0.000000 0.000000 0.000000 0.065135
#
#
# Mechanical properties :
#
#
# Convention : Reuss Voigt Hill
#
# Bulk Modulus (GPa) = 30.87942 64.11445 47.49694
# Shear Modulus (GPa) = 25.18623 36.56617 30.87620
#
# Velocity S-wave (km/s) = 3.25628 3.92356 3.60539
# Velocity P-wave (km/s) = 5.20942 6.89332 6.10966
#
# Compressibility (1/GPa) = 0.03238402
#
# Stress axis : x y z
#
# Youngs Moduli (GPa) = 28.74897 125.99720 150.84928
#
# Poissons Ratio (x) = 0.26327 0.61420
# Poissons Ratio (y) = 0.06007 0.35023
# Poissons Ratio (z) = 0.11705 0.29253
#
# Static dielectric constant tensor:
#      x y z
#    x 3.705120 0.000000 0.000000 
#    y 0.000000 5.122340 0.000000 
#    z 0.000000 0.000000 4.547140 
# 
# 
# High freq. dielectric constant tensor:
#      x y z
#    x 1.882400 0.000000 0.000000 
#    y 0.000000 1.968030 0.000000 
#    z 0.000000 0.000000 1.955560 
# 
# From -- ./inp_files/32329.got.cif
#   From: 2010.03.12/outbox.cif.g09.slc.cpg/sg73_17_cif.got.tgz:32329.got - 2010.04.16 15:25:48.
