data_PCOD8295539
_publ_section_title
;
Structure prediction by ZEFSAII (Michael W. Deem and Ramdas Pophale) SiO2 
 PCOD8295539
Probable space group: I B C A 
;
_chemical_formula_sum "Si O2"
_cell_formula_units_Z 96
_cell_length_a 18.508345
_cell_length_b 17.534285
_cell_length_c 15.386707
_cell_angle_alpha 90.000000
_cell_angle_beta 90.000000
_cell_angle_gamma 90.000000
_cell_volume 4993.457195
_symmetry_space_group_name_H-M "I B C A "
_symmetry_group_IT_number 73
_symmetry_cell_setting 'orthorhombic'
loop_
_space_group_symop_operation_xyz
x,y,z
-x,1/2-y,z
x,-y,1/2-z
1/2-x,y,-z
-x,-y,-z
x,1/2+y,-z
-x,y,1/2+z
1/2+x,-y,z
1/2+x,1/2+y,1/2+z
1/2-x,-y,1/2+z
1/2+x,1/2-y,-z
-x,1/2+y,1/2-z
1/2-x,1/2-y,1/2-z
1/2+x,y,1/2-z
1/2-x,1/2+y,z
x,1/2-y,1/2+z
loop_
_atom_site_type_symbol
_atom_site_label
_atom_site_fract_x
_atom_site_fract_y
_atom_site_fract_z
Si Si1 0.839837 0.054250 0.826380
Si Si2 0.244505 0.797704 0.840094
Si Si3 0.843008 0.589330 0.421592
Si Si4 0.807142 0.846480 0.103763
Si Si5 0.443884 0.853303 0.722352
Si Si6 0.398526 0.814977 0.232735
O O1 0.784650 0.122207 0.843848
O O2 0.917268 0.086910 0.794933
O O3 0.808824 0.000000 0.750000
O O4 0.852244 0.002840 0.913078
O O5 0.250000 0.750000 0.750000
O O6 0.279914 0.741572 0.912102
O O7 0.158340 0.814962 0.848536
O O8 0.765603 0.606387 0.377210
O O9 0.846959 0.619274 0.519726
O O10 0.906161 0.632101 0.370020
O O11 0.862070 0.854595 0.183508
O O12 0.529806 0.862008 0.707794
O O13 0.421399 0.770554 0.757628
#
# Coordination Sequence:
#
# PCOD8295539 Si02
#       6
#    16  16  16  16  16  16
#     4  10  18  33  57  84 116 156 198 242 301 360
#     4  10  16  33  61  90 108 149 208 251 284 355
#     4  10  21  36  57  84 123 160 188 248 320 355
#     4  10  19  37  59  84 116 156 199 252 300 349
#     4  10  18  33  56  88 115 152 198 242 292 366
#     4  10  18  32  60  89 111 148 208 244 285 355
#
# _framework density 19.225156999999999
#
# number of rings (size 3 to 8) (size 9 to 14) (size 15 to 20)
#    0.000    2.000    5.000    3.000    0.000    0.000 
#    0.000   15.000    0.000    0.000    0.000    0.000 
#    0.000    0.000    0.000    0.000    0.000    0.000 
#
# Total GULP energy -594689.688776 kJ/mol
# GULP energy per Si atom -12389.368516 kJ/mol
# Density = 1.918140 g / cm^3
# Si number density = 19.225157 Si / 1000 Ang^3
#
#
#
# Elastic Constant Matrix: (Units=GPa)
#
#
# Indices 1 2 3 4 5 6 
#
# 1 146.3115 36.7031 42.1376 0.0000 0.0000 0.0000
# 2 36.7031 110.6535 36.7169 0.0000 0.0000 0.0000
# 3 42.1376 36.7169 78.7725 0.0000 0.0000 0.0000
# 4 0.0000 0.0000 0.0000 31.7837 0.0000 0.0000
# 5 0.0000 0.0000 0.0000 0.0000 25.8814 0.0000
# 6 0.0000 0.0000 0.0000 0.0000 0.0000 28.5661
#
#
#
# Elastic Compliance Matrix: (Units=1/GPa)
#
#
# Indices 1 2 3 4 5 6 
#
# 1 0.008288 -0.001512 -0.003729 0.000000 0.000000 0.000000
# 2 -0.001512 0.010966 -0.004303 0.000000 0.000000 0.000000
# 3 -0.003729 -0.004303 0.016695 0.000000 0.000000 0.000000
# 4 0.000000 0.000000 0.000000 0.031463 0.000000 0.000000
# 5 0.000000 0.000000 0.000000 0.000000 0.038638 0.000000
# 6 0.000000 0.000000 0.000000 0.000000 0.000000 0.035007
#
#
# Mechanical properties :
#
#
# Convention : Reuss Voigt Hill
#
# Bulk Modulus (GPa) = 59.30327 62.98364 61.14345
# Shear Modulus (GPa) = 30.16338 31.92491 31.04414
#
# Velocity S-wave (km/s) = 3.96530 4.07944 4.02278
# Velocity P-wave (km/s) = 7.20267 7.41763 7.31094
#
# Compressibility (1/GPa) = 0.01686248
#
# Stress axis : x y z
#
# Youngs Moduli (GPa) = 120.65871 91.18710 59.89800
#
# Poissons Ratio (x) = 0.13785 0.22334
# Poissons Ratio (y) = 0.18241 0.25774
# Poissons Ratio (z) = 0.44990 0.39237
#
# Static dielectric constant tensor:
#      x y z
#    x 3.789670 0.000000 0.000000 
#    y 0.000000 3.797580 0.000000 
#    z 0.000000 0.000000 3.251390 
# 
# 
# High freq. dielectric constant tensor:
#      x y z
#    x 1.745350 0.000000 0.000000 
#    y 0.000000 1.753240 0.000000 
#    z 0.000000 0.000000 1.708150 
# 
# From -- ./inp_files/22531.got.cif
#   From: 2010.03.12/outbox.cif.g09.slc.cpg/sg73_12_cif.got.tgz:22531.got - 2010.04.16 15:25:48.
