data_PCOD8295943
_publ_section_title
;
Structure prediction by ZEFSAII (Michael W. Deem and Ramdas Pophale) SiO2 
 PCOD8295943
Probable space group: I B C A 
;
_chemical_formula_sum "Si O2"
_cell_formula_units_Z 112
_cell_length_a 13.764686
_cell_length_b 30.627754
_cell_length_c 11.372882
_cell_angle_alpha 90.000000
_cell_angle_beta 90.000000
_cell_angle_gamma 90.000000
_cell_volume 4794.595705
_symmetry_space_group_name_H-M "I B C A "
_symmetry_group_IT_number 73
_symmetry_cell_setting 'orthorhombic'
loop_
_space_group_symop_operation_xyz
x,y,z
-x,1/2-y,z
x,-y,1/2-z
1/2-x,y,-z
-x,-y,-z
x,1/2+y,-z
-x,y,1/2+z
1/2+x,-y,z
1/2+x,1/2+y,1/2+z
1/2-x,-y,1/2+z
1/2+x,1/2-y,-z
-x,1/2+y,1/2-z
1/2-x,1/2-y,1/2-z
1/2+x,y,1/2-z
1/2-x,1/2+y,z
x,1/2-y,1/2+z
loop_
_atom_site_type_symbol
_atom_site_label
_atom_site_fract_x
_atom_site_fract_y
_atom_site_fract_z
Si Si1 0.707787 0.839557 0.686957
Si Si2 0.870239 0.099178 0.723692
Si Si3 0.750000 0.267668 0.500000
Si Si4 0.499053 0.336844 0.415659
Si Si5 0.115401 0.202559 0.895743
Si Si6 0.000000 0.750000 0.284306
Si Si7 0.351772 0.473623 0.458518
Si Si8 0.001962 0.535333 0.152645
O O1 0.787979 0.878627 0.692040
O O2 0.747896 0.797674 0.616381
O O3 0.608476 0.853429 0.615050
O O4 0.688627 0.829663 0.825143
O O5 0.915989 0.131547 0.629733
O O6 0.826793 0.059498 0.647334
O O7 0.961202 0.080908 0.798413
O O8 0.839868 0.233713 0.496887
O O9 0.474875 0.326958 0.554064
O O10 0.472249 0.290989 0.360469
O O11 0.089214 0.237204 0.796697
O O12 0.250000 0.492960 0.500000
O O13 0.409978 0.451324 0.566757
O O14 0.412621 0.514995 0.418141
O O15 0.037832 0.500000 0.250000
#
# Coordination Sequence:
#
# PCOD8295943 Si02
#       8
#    16  16   8  16  16   8  16  16
#     4  11  26  41  64  99 137 184 236 292 360 426
#     4  11  25  43  67 100 142 180 228 289 356 419
#     4  12  22  40  62  94 126 182 236 304 350 436
#     4  11  24  40  63  96 133 185 234 297 355 417
#     4  11  21  38  63  87 129 173 242 298 358 413
#     4  10  20  38  60  82 122 182 232 288 350 402
#     4  10  23  43  78 102 135 180 229 275 353 428
#     4   9  22  47  69 107 139 178 224 283 345 427
#
# _framework density 23.359632999999999
#
# number of rings (size 3 to 8) (size 9 to 14) (size 15 to 20)
#    0.000    1.429    0.000    5.143    4.000    5.143 
#    6.429    0.000    0.000    0.000    0.000    0.000 
#    0.000    0.000    0.000    0.000    0.000    0.000 
#
# Total GULP energy -693791.247917 kJ/mol
# GULP energy per Si atom -12389.129427 kJ/mol
# Density = 2.330647 g / cm^3
# Si number density = 23.359633 Si / 1000 Ang^3
#
#
#
# Elastic Constant Matrix: (Units=GPa)
#
#
# Indices 1 2 3 4 5 6 
#
# 1 100.8665 20.8100 33.3017 0.0038 0.0196 -0.0005
# 2 20.8100 63.4270 20.5962 0.0048 0.0174 -0.0004
# 3 33.3017 20.5962 98.7395 0.0226 0.0739 -0.0027
# 4 0.0038 0.0048 0.0226 25.7717 0.0335 -0.0022
# 5 0.0196 0.0174 0.0739 0.0335 62.9660 -0.0143
# 6 -0.0005 -0.0004 -0.0027 -0.0022 -0.0143 22.3777
#
#
#
# Elastic Compliance Matrix: (Units=1/GPa)
#
#
# Indices 1 2 3 4 5 6 
#
# 1 0.011576 -0.002714 -0.003338 0.000002 0.000001 0.000000
# 2 -0.002714 0.017548 -0.002745 0.000000 -0.000001 0.000000
# 3 -0.003338 -0.002745 0.011826 -0.000009 -0.000012 0.000001
# 4 0.000002 0.000000 -0.000009 0.038802 -0.000021 0.000004
# 5 0.000001 -0.000001 -0.000012 -0.000021 0.015882 0.000010
# 6 0.000000 0.000000 0.000001 0.000004 0.000010 0.044687
#
#
# Mechanical properties :
#
#
# Convention : Reuss Voigt Hill
#
# Bulk Modulus (GPa) = 42.81588 45.82765 44.32176
# Shear Modulus (GPa) = 30.17480 34.77809 32.47644
#
# Velocity S-wave (km/s) = 3.59799 3.86270 3.73269
# Velocity P-wave (km/s) = 5.96905 6.28926 6.13124
#
# Compressibility (1/GPa) = 0.02335582
#
# Stress axis : x y z
#
# Youngs Moduli (GPa) = 86.38451 56.98659 84.55876
#
# Poissons Ratio (x) = 0.15467 0.28227
# Poissons Ratio (y) = 0.23446 0.23211
# Poissons Ratio (z) = 0.28836 0.15643
#
# Static dielectric constant tensor:
#      x y z
#    x 4.106170 0.000000 0.000000 
#    y 0.000000 6.235970 -0.000010 
#    z 0.000000 -0.000010 4.762770 
# 
# 
# High freq. dielectric constant tensor:
#      x y z
#    x 1.921510 0.000000 0.000000 
#    y 0.000000 1.912450 0.000000 
#    z 0.000000 0.000000 1.932800 
# 
# From -- ./inp_files/11289.got.cif
#   From: 2010.03.12/outbox.cif.g09.slc.cpg/sg73_6_cif.got.tgz:11289.got - 2010.04.16 15:25:48.
