data_PCOD8295767
_publ_section_title
;
Structure prediction by ZEFSAII (Michael W. Deem and Ramdas Pophale) SiO2 
 PCOD8295767
Probable space group: I B C A 
;
_chemical_formula_sum "Si O2"
_cell_formula_units_Z 104
_cell_length_a 20.820036
_cell_length_b 8.978286
_cell_length_c 28.847075
_cell_angle_alpha 90.000000
_cell_angle_beta 90.000000
_cell_angle_gamma 90.000000
_cell_volume 5392.332894
_symmetry_space_group_name_H-M "I B C A "
_symmetry_group_IT_number 73
_symmetry_cell_setting 'orthorhombic'
loop_
_space_group_symop_operation_xyz
x,y,z
-x,1/2-y,z
x,-y,1/2-z
1/2-x,y,-z
-x,-y,-z
x,1/2+y,-z
-x,y,1/2+z
1/2+x,-y,z
1/2+x,1/2+y,1/2+z
1/2-x,-y,1/2+z
1/2+x,1/2-y,-z
-x,1/2+y,1/2-z
1/2-x,1/2-y,1/2-z
1/2+x,y,1/2-z
1/2-x,1/2+y,z
x,1/2-y,1/2+z
loop_
_atom_site_type_symbol
_atom_site_label
_atom_site_fract_x
_atom_site_fract_y
_atom_site_fract_z
Si Si1 0.334667 0.266963 0.714083
Si Si2 0.263242 0.500000 0.250000
Si Si3 0.442854 0.136285 0.281584
Si Si4 0.672942 0.470734 0.453312
Si Si5 0.500000 0.250000 0.588463
Si Si6 0.954182 0.365667 0.499192
Si Si7 0.250000 0.271332 0.500000
Si Si8 0.601778 0.562364 0.362804
O O1 0.279231 0.390830 0.718764
O O2 0.306496 0.100013 0.715289
O O3 0.385210 0.280011 0.755808
O O4 0.367865 0.297666 0.664784
O O5 0.500000 0.250000 0.291906
O O6 0.468761 0.000000 0.250000
O O7 0.413984 0.076114 0.329611
O O8 0.613012 0.399865 0.479041
O O9 0.725432 0.338046 0.458400
O O10 0.694845 0.623539 0.478217
O O11 0.653087 0.504788 0.400638
O O12 0.556300 0.314091 0.554584
O O13 0.466525 0.379961 0.617977
O O14 0.000000 0.250000 0.527335
O O15 0.000000 0.500000 0.500000
#
# Coordination Sequence:
#
# PCOD8295767 Si02
#       8
#    16   8  16  16   8  16   8  16
#     4  10  22  40  64  89 118 163 197 250 301 359
#     4  10  20  42  66  80 116 166 204 230 300 360
#     4  10  23  41  61  90 126 158 197 249 312 370
#     4  11  21  42  61  89 122 161 208 250 298 370
#     4  10  22  36  60  92 120 164 188 252 312 358
#     4  10  19  37  62  85 116 154 199 243 304 358
#     4  10  24  40  64  82 122 176 200 242 318 358
#     4  11  22  38  59  93 127 147 210 254 296 364
#
# _framework density 19.286642000000001
#
# number of rings (size 3 to 8) (size 9 to 14) (size 15 to 20)
#    0.462    1.231    3.846    1.846    5.385    1.846 
#    2.769    0.000    0.000    0.000    0.000    0.000 
#    0.000    0.000    0.000    0.000    0.000    0.000 
#
# Total GULP energy -644290.850889 kJ/mol
# GULP energy per Si atom -12390.208671 kJ/mol
# Density = 1.924274 g / cm^3
# Si number density = 19.286642 Si / 1000 Ang^3
#
#
#
# Elastic Constant Matrix: (Units=GPa)
#
#
# Indices 1 2 3 4 5 6 
#
# 1 95.2109 45.9757 41.2583 0.0000 0.0000 0.0000
# 2 45.9757 114.9234 34.2793 0.0000 0.0000 0.0000
# 3 41.2583 34.2793 116.2701 0.0000 0.0000 0.0000
# 4 0.0000 0.0000 0.0000 17.4365 0.0000 0.0000
# 5 0.0000 0.0000 0.0000 0.0000 20.1384 0.0000
# 6 0.0000 0.0000 0.0000 0.0000 0.0000 46.0786
#
#
#
# Elastic Compliance Matrix: (Units=1/GPa)
#
#
# Indices 1 2 3 4 5 6 
#
# 1 0.014355 -0.004631 -0.003729 0.000000 0.000000 0.000000
# 2 -0.004631 0.011034 -0.001610 0.000000 0.000000 0.000000
# 3 -0.003729 -0.001610 0.010398 0.000000 0.000000 0.000000
# 4 0.000000 0.000000 0.000000 0.057351 0.000000 0.000000
# 5 0.000000 0.000000 0.000000 0.000000 0.049656 0.000000
# 6 0.000000 0.000000 0.000000 0.000000 0.000000 0.021702
#
#
# Mechanical properties :
#
#
# Convention : Reuss Voigt Hill
#
# Bulk Modulus (GPa) = 63.09508 63.27010 63.18259
# Shear Modulus (GPa) = 26.35495 30.39012 28.37253
#
# Velocity S-wave (km/s) = 3.70061 3.97383 3.83965
# Velocity P-wave (km/s) = 7.14456 7.34380 7.24487
#
# Compressibility (1/GPa) = 0.01584910
#
# Stress axis : x y z
#
# Youngs Moduli (GPa) = 69.66351 90.62780 96.16856
#
# Poissons Ratio (x) = 0.41965 0.35857
# Poissons Ratio (y) = 0.32258 0.15483
# Poissons Ratio (z) = 0.25974 0.14591
#
# Static dielectric constant tensor:
#      x y z
#    x 3.600740 0.000000 0.000000 
#    y 0.000000 3.732760 0.000000 
#    z 0.000000 0.000000 3.308490 
# 
# 
# High freq. dielectric constant tensor:
#      x y z
#    x 1.755610 0.000000 0.000000 
#    y 0.000000 1.762520 0.000000 
#    z 0.000000 0.000000 1.732310 
# 
# From -- ./inp_files/27633.got.cif
#   From: 2010.03.12/outbox.cif.g09.slc.cpg/sg73_14_cif.got.tgz:27633.got - 2010.04.16 15:25:48.
