data_PCOD8295745
_publ_section_title
;
Structure prediction by ZEFSAII (Michael W. Deem and Ramdas Pophale) SiO2 
 PCOD8295745
Probable space group: I B C A 
;
_chemical_formula_sum "Si O2"
_cell_formula_units_Z 104
_cell_length_a 10.336267
_cell_length_b 24.100920
_cell_length_c 18.988289
_cell_angle_alpha 90.000000
_cell_angle_beta 90.000000
_cell_angle_gamma 90.000000
_cell_volume 4730.239969
_symmetry_space_group_name_H-M "I B C A "
_symmetry_group_IT_number 73
_symmetry_cell_setting 'orthorhombic'
loop_
_space_group_symop_operation_xyz
x,y,z
-x,1/2-y,z
x,-y,1/2-z
1/2-x,y,-z
-x,-y,-z
x,1/2+y,-z
-x,y,1/2+z
1/2+x,-y,z
1/2+x,1/2+y,1/2+z
1/2-x,-y,1/2+z
1/2+x,1/2-y,-z
-x,1/2+y,1/2-z
1/2-x,1/2-y,1/2-z
1/2+x,y,1/2-z
1/2-x,1/2+y,z
x,1/2-y,1/2+z
loop_
_atom_site_type_symbol
_atom_site_label
_atom_site_fract_x
_atom_site_fract_y
_atom_site_fract_z
Si Si1 0.031622 0.117251 0.495899
Si Si2 0.101598 0.297728 0.887975
Si Si3 0.745138 0.715469 0.680093
Si Si4 0.320904 0.934089 0.404259
Si Si5 0.563436 0.625405 0.644884
Si Si6 0.750000 0.531858 0.000000
Si Si7 0.963263 0.376623 0.795120
O O1 0.082940 0.175426 0.464457
O O2 0.130103 0.068673 0.473675
O O3 0.886842 0.103409 0.466789
O O4 0.035648 0.125209 0.579902
O O5 0.233220 0.262041 0.881227
O O6 0.000000 0.250000 0.869985
O O7 0.090316 0.347112 0.829018
O O8 0.750000 0.750000 0.750000
O O9 0.607323 0.688321 0.662041
O O10 0.846152 0.665382 0.689012
O O11 0.182410 0.912945 0.377941
O O12 0.422756 0.932287 0.338822
O O13 0.300218 0.995595 0.434065
O O14 0.488298 0.604655 0.714907
#
# Coordination Sequence:
#
# PCOD8295745 Si02
#       7
#    16  16  16  16  16   8  16
#     4  11  24  43  69 101 135 176 239 287 340 423
#     4   9  19  40  60  91 137 177 213 271 333 405
#     4  10  19  35  65  92 137 186 215 264 346 407
#     4  10  22  43  74  93 130 183 228 281 352 414
#     4  11  21  40  70 101 133 180 236 280 343 418
#     4  12  24  46  74  94 130 186 230 292 360 410
#     4   9  20  37  64  98 132 172 228 278 331 420
#
# _framework density 21.9862
#
# number of rings (size 3 to 8) (size 9 to 14) (size 15 to 20)
#    0.000    1.846    3.077    1.385    0.000    1.231 
#    8.308    0.769    0.000    0.000    0.000    0.000 
#    0.000    0.000    0.000    0.000    0.000    0.000 
#
# Total GULP energy -644223.693506 kJ/mol
# GULP energy per Si atom -12388.917183 kJ/mol
# Density = 2.193616 g / cm^3
# Si number density = 21.986200 Si / 1000 Ang^3
#
#
#
# Elastic Constant Matrix: (Units=GPa)
#
#
# Indices 1 2 3 4 5 6 
#
# 1 54.6579 34.0356 39.6268 0.0000 0.0000 0.0000
# 2 34.0356 77.3819 37.2573 0.0001 0.0000 0.0000
# 3 39.6268 37.2573 168.0220 0.0003 0.0000 0.0000
# 4 0.0000 0.0001 0.0003 38.1844 0.0000 0.0000
# 5 0.0000 0.0000 0.0000 0.0000 32.5539 0.0000
# 6 0.0000 0.0000 0.0000 0.0000 0.0000 36.0913
#
#
#
# Elastic Compliance Matrix: (Units=1/GPa)
#
#
# Indices 1 2 3 4 5 6 
#
# 1 0.027709 -0.010122 -0.004291 0.000000 0.000000 0.000000
# 2 -0.010122 0.018165 -0.001641 0.000000 0.000000 0.000000
# 3 -0.004291 -0.001641 0.007327 0.000000 0.000000 0.000000
# 4 0.000000 0.000000 0.000000 0.026189 0.000000 0.000000
# 5 0.000000 0.000000 0.000000 0.000000 0.030718 0.000000
# 6 0.000000 0.000000 0.000000 0.000000 0.000000 0.027708
#
#
# Mechanical properties :
#
#
# Convention : Reuss Voigt Hill
#
# Bulk Modulus (GPa) = 47.40438 57.98903 52.69671
# Shear Modulus (GPa) = 28.25597 33.97539 31.11568
#
# Velocity S-wave (km/s) = 3.58881 3.93530 3.76604
# Velocity P-wave (km/s) = 6.22740 6.86158 6.55217
#
# Compressibility (1/GPa) = 0.02109510
#
# Stress axis : x y z
#
# Youngs Moduli (GPa) = 36.08916 55.05135 136.47541
#
# Poissons Ratio (x) = 0.55722 0.58556
# Poissons Ratio (y) = 0.36529 0.22392
# Poissons Ratio (z) = 0.15484 0.09032
#
# Static dielectric constant tensor:
#      x y z
#    x 3.737290 0.000000 0.000020 
#    y 0.000000 3.424750 0.000000 
#    z 0.000020 0.000000 6.795870 
# 
# 
# High freq. dielectric constant tensor:
#      x y z
#    x 1.853000 0.000000 0.000000 
#    y 0.000000 1.849390 0.000000 
#    z 0.000000 0.000000 1.864040 
# 
# From -- ./inp_files/21458.got.cif
#   From: 2010.03.12/outbox.cif.g09.slc.cpg/sg73_11_cif.got.tgz:21458.got - 2010.04.16 15:25:48.
