data_PCOD8295883
_publ_section_title
;
Structure prediction by ZEFSAII (Michael W. Deem and Ramdas Pophale) SiO2 
 PCOD8295883
Probable space group: I B C A 
;
_chemical_formula_sum "Si O2"
_cell_formula_units_Z 80
_cell_length_a 15.247314
_cell_length_b 28.220982
_cell_length_c 8.731731
_cell_angle_alpha 90.000000
_cell_angle_beta 90.000000
_cell_angle_gamma 90.000000
_cell_volume 3757.212978
_symmetry_space_group_name_H-M "I B C A "
_symmetry_group_IT_number 73
_symmetry_cell_setting 'orthorhombic'
loop_
_space_group_symop_operation_xyz
x,y,z
-x,1/2-y,z
x,-y,1/2-z
1/2-x,y,-z
-x,-y,-z
x,1/2+y,-z
-x,y,1/2+z
1/2+x,-y,z
1/2+x,1/2+y,1/2+z
1/2-x,-y,1/2+z
1/2+x,1/2-y,-z
-x,1/2+y,1/2-z
1/2-x,1/2-y,1/2-z
1/2+x,y,1/2-z
1/2-x,1/2+y,z
x,1/2-y,1/2+z
loop_
_atom_site_type_symbol
_atom_site_label
_atom_site_fract_x
_atom_site_fract_y
_atom_site_fract_z
Si Si1 0.250000 0.476135 0.000000
Si Si2 0.876818 0.000000 0.750000
Si Si3 0.374240 0.402095 0.870276
Si Si4 0.029116 0.405147 0.828637
Si Si5 0.750000 0.675316 0.000000
Si Si6 0.500000 0.250000 0.936828
Si Si7 0.596872 0.803986 0.313685
O O1 0.317144 0.506848 0.098695
O O2 0.196178 0.444181 0.121976
O O3 0.934849 0.047094 0.751062
O O4 0.424632 0.400433 0.707019
O O5 0.322397 0.354171 0.905705
O O6 0.454129 0.409497 0.990454
O O7 0.081303 0.358795 0.766518
O O8 0.803186 0.705217 0.127984
O O9 0.421440 0.229951 0.830621
O O10 0.533235 0.207465 0.043196
#
# Coordination Sequence:
#
# PCOD8295883 Si02
#       7
#     8   8  16  16   8   8  16
#     4   9  20  36  52  81 120 150 186 229 274 321
#     4  10  22  36  56  86 116 152 186 226 278 332
#     4   9  19  35  56  81 113 153 186 227 277 327
#     4  10  20  36  57  82 113 147 189 226 273 335
#     4   9  18  34  58  81 114 146 178 233 290 325
#     4  10  22  38  62  84 108 148 190 230 280 338
#     4  10  20  38  59  84 113 146 187 232 279 331
#
# _framework density 21.292377999999999
#
# number of rings (size 3 to 8) (size 9 to 14) (size 15 to 20)
#    0.000    2.400    0.000    3.600    0.000    6.400 
#    0.000    0.000    0.000   18.000    0.000    0.000 
#    0.000    0.000    0.000    0.000    0.000    0.000 
#
# Total GULP energy -495758.846915 kJ/mol
# GULP energy per Si atom -12393.971173 kJ/mol
# Density = 2.124392 g / cm^3
# Si number density = 21.292378 Si / 1000 Ang^3
#
#
#
# Elastic Constant Matrix: (Units=GPa)
#
#
# Indices 1 2 3 4 5 6 
#
# 1 113.5947 17.7551 35.2889 0.0008 0.0003 0.0007
# 2 17.7551 91.2382 22.1321 0.0009 -0.0014 0.0003
# 3 35.2889 22.1321 61.7220 0.0109 -0.0115 0.0026
# 4 0.0008 0.0009 0.0109 19.1952 -0.0032 0.0003
# 5 0.0003 -0.0014 -0.0115 -0.0032 48.9683 0.0003
# 6 0.0007 0.0003 0.0026 0.0003 0.0003 19.3828
#
#
#
# Elastic Compliance Matrix: (Units=1/GPa)
#
#
# Indices 1 2 3 4 5 6 
#
# 1 0.010740 -0.000658 -0.005905 0.000003 -0.000001 0.000000
# 2 -0.000658 0.012045 -0.003943 0.000002 -0.000001 0.000000
# 3 -0.005905 -0.003943 0.020992 -0.000012 0.000005 -0.000003
# 4 0.000003 0.000002 -0.000012 0.052096 0.000003 -0.000001
# 5 -0.000001 -0.000001 0.000005 0.000003 0.020421 0.000000
# 6 0.000000 0.000000 -0.000003 -0.000001 0.000000 0.051592
#
#
# Mechanical properties :
#
#
# Convention : Reuss Voigt Hill
#
# Bulk Modulus (GPa) = 43.92572 46.32300 45.12436
# Shear Modulus (GPa) = 25.44706 30.26784 27.85745
#
# Velocity S-wave (km/s) = 3.46081 3.77441 3.62101
# Velocity P-wave (km/s) = 6.05344 6.38732 6.22262
#
# Compressibility (1/GPa) = 0.02276571
#
# Stress axis : x y z
#
# Youngs Moduli (GPa) = 93.10621 83.02361 47.63812
#
# Poissons Ratio (x) = 0.05461 0.28130
# Poissons Ratio (y) = 0.06124 0.18783
# Poissons Ratio (z) = 0.54978 0.32736
#
# Static dielectric constant tensor:
#      x y z
#    x 3.938600 0.000000 0.000000 
#    y 0.000000 3.716150 -0.000010 
#    z 0.000000 -0.000010 3.712200 
# 
# 
# High freq. dielectric constant tensor:
#      x y z
#    x 1.832880 0.000000 0.000000 
#    y 0.000000 1.828370 0.000000 
#    z 0.000000 0.000000 1.816380 
# 
# From -- ./inp_files/5639.got.cif
#   From: 2010.03.12/outbox.cif.g09.slc.cpg/sg73_3_cif.got.tgz:5639.got - 2010.04.16 15:25:48.
