data_PCOD8295707
_publ_section_title
;
Structure prediction by ZEFSAII (Michael W. Deem and Ramdas Pophale) SiO2 
 PCOD8295707
Probable space group: I B C A 
;
_chemical_formula_sum "Si O2"
_cell_formula_units_Z 72
_cell_length_a 18.823355
_cell_length_b 16.392268
_cell_length_c 10.596721
_cell_angle_alpha 90.000000
_cell_angle_beta 90.000000
_cell_angle_gamma 90.000000
_cell_volume 3269.697526
_symmetry_space_group_name_H-M "I B C A "
_symmetry_group_IT_number 73
_symmetry_cell_setting 'orthorhombic'
loop_
_space_group_symop_operation_xyz
x,y,z
-x,1/2-y,z
x,-y,1/2-z
1/2-x,y,-z
-x,-y,-z
x,1/2+y,-z
-x,y,1/2+z
1/2+x,-y,z
1/2+x,1/2+y,1/2+z
1/2-x,-y,1/2+z
1/2+x,1/2-y,-z
-x,1/2+y,1/2-z
1/2-x,1/2-y,1/2-z
1/2+x,y,1/2-z
1/2-x,1/2+y,z
x,1/2-y,1/2+z
loop_
_atom_site_type_symbol
_atom_site_label
_atom_site_fract_x
_atom_site_fract_y
_atom_site_fract_z
Si Si1 0.341806 0.051270 0.871766
Si Si2 0.483406 0.406649 0.483426
Si Si3 0.224607 0.657991 0.247653
Si Si4 0.569409 0.401357 0.245430
Si Si5 0.750000 0.568224 0.000000
O O1 0.405978 0.106041 0.921274
O O2 0.273465 0.107434 0.847847
O O3 0.366744 0.000000 0.750000
O O4 0.320073 0.986489 0.979026
O O5 0.500000 0.500000 0.500000
O O6 0.538937 0.368578 0.381138
O O7 0.482575 0.372734 0.628156
O O8 0.250000 0.750000 0.250000
O O9 0.142617 0.644494 0.211798
O O10 0.233880 0.625944 0.386279
O O11 0.578739 0.500000 0.250000
#
# Coordination Sequence:
#
# PCOD8295707 Si02
#       5
#    16  16  16  16   8
#     4  10  19  35  59  87 118 163 214 258 310 379
#     4  10  19  33  61  93 121 157 210 269 316 371
#     4  11  24  39  60  94 131 168 212 265 322 382
#     4  10  20  37  62  93 125 163 212 265 318 379
#     4  10  20  36  62  88 124 168 214 262 308 372
#
# _framework density 22.020386999999999
#
# number of rings (size 3 to 8) (size 9 to 14) (size 15 to 20)
#    0.000    1.778    0.000    8.000    0.000    4.444 
#    0.000    1.111    0.000    8.000    0.000    0.000 
#    0.000    0.000    0.000    0.000    0.000    0.000 
#
# Total GULP energy -446067.308611 kJ/mol
# GULP energy per Si atom -12390.758573 kJ/mol
# Density = 2.197027 g / cm^3
# Si number density = 22.020387 Si / 1000 Ang^3
#
#
#
# Elastic Constant Matrix: (Units=GPa)
#
#
# Indices 1 2 3 4 5 6 
#
# 1 111.8922 22.4695 51.4156 0.0000 0.0000 0.0000
# 2 22.4695 74.9288 39.7955 0.0000 0.0000 0.0000
# 3 51.4156 39.7955 122.1929 0.0000 0.0000 0.0000
# 4 0.0000 0.0000 0.0000 -21.6537 0.0000 0.0000
# 5 0.0000 0.0000 0.0000 0.0000 13.7156 0.0000
# 6 0.0000 0.0000 0.0000 0.0000 0.0000 23.6857
#
#
#
# Elastic Compliance Matrix: (Units=1/GPa)
#
#
# Indices 1 2 3 4 5 6 
#
# 1 0.011145 -0.001030 -0.004354 0.000000 0.000000 0.000000
# 2 -0.001030 0.016232 -0.004853 0.000000 0.000000 0.000000
# 3 -0.004354 -0.004853 0.011596 0.000000 0.000000 0.000000
# 4 0.000000 0.000000 0.000000 -0.046182 0.000000 0.000000
# 5 0.000000 0.000000 0.000000 0.000000 0.072909 0.000000
# 6 0.000000 0.000000 0.000000 0.000000 0.000000 0.042220
#
#
# Mechanical properties :
#
#
# Convention : Reuss Voigt Hill
#
# Bulk Modulus (GPa) = 54.05506 59.59721 56.82614
# Shear Modulus (GPa) = 37.15771 16.17175 26.66473
#
# Velocity S-wave (km/s) = 4.11228 2.71292 3.48359
# Velocity P-wave (km/s) = 6.86650 6.07755 6.48403
#
# Compressibility (1/GPa) = 0.01849966
#
# Stress axis : x y z
#
# Youngs Moduli (GPa) = 89.72903 61.60520 86.23303
#
# Poissons Ratio (x) = 0.06342 0.37547
# Poissons Ratio (y) = 0.09238 0.41852
# Poissons Ratio (z) = 0.39069 0.29899
#
# Static dielectric constant tensor:
#      x y z
#    x 4.321450 0.000000 0.000000 
#    y 0.000000 -72.796200 0.000000 
#    z 0.000000 0.000000 4.601290 
# 
# 
# High freq. dielectric constant tensor:
#      x y z
#    x 1.872700 0.000000 0.000000 
#    y 0.000000 1.804830 0.000000 
#    z 0.000000 0.000000 1.895220 
# 
# From -- ./inp_files/11657.got.cif
#   From: 2010.03.12/outbox.cif.g09.slc.cpg/sg73_6_cif.got.tgz:11657.got - 2010.04.16 15:25:48.
