data_PCOD8295812
_publ_section_title
;
Structure prediction by ZEFSAII (Michael W. Deem and Ramdas Pophale) SiO2 
 PCOD8295812
Probable space group: I B C A 
;
_chemical_formula_sum "Si O2"
_cell_formula_units_Z 88
_cell_length_a 5.105100
_cell_length_b 33.665980
_cell_length_c 27.128621
_cell_angle_alpha 90.000000
_cell_angle_beta 90.000000
_cell_angle_gamma 90.000000
_cell_volume 4662.547110
_symmetry_space_group_name_H-M "I B C A "
_symmetry_group_IT_number 73
_symmetry_cell_setting 'orthorhombic'
loop_
_space_group_symop_operation_xyz
x,y,z
-x,1/2-y,z
x,-y,1/2-z
1/2-x,y,-z
-x,-y,-z
x,1/2+y,-z
-x,y,1/2+z
1/2+x,-y,z
1/2+x,1/2+y,1/2+z
1/2-x,-y,1/2+z
1/2+x,1/2-y,-z
-x,1/2+y,1/2-z
1/2-x,1/2-y,1/2-z
1/2+x,y,1/2-z
1/2-x,1/2+y,z
x,1/2-y,1/2+z
loop_
_atom_site_type_symbol
_atom_site_label
_atom_site_fract_x
_atom_site_fract_y
_atom_site_fract_z
Si Si1 0.188583 0.847655 0.871802
Si Si2 0.504634 0.795427 0.718653
Si Si3 0.750000 0.649598 0.500000
Si Si4 0.747310 0.525217 0.557026
Si Si5 0.331438 0.890662 0.405600
Si Si6 0.385017 0.289658 0.950136
O O1 0.089478 0.827020 0.822274
O O2 0.444782 0.875940 0.866972
O O3 0.286425 0.812028 0.908796
O O4 0.952399 0.874367 0.891371
O O5 0.500000 0.750000 0.698803
O O6 0.208319 0.802824 0.736770
O O7 0.584656 0.622732 0.461569
O O8 0.591279 0.677275 0.536232
O O9 0.750000 0.538871 0.500000
O O10 0.459215 0.508713 0.568725
O O11 0.810267 0.561816 0.593340
O O12 0.500000 0.250000 0.925084
O O13 0.250000 0.274800 0.000000
#
# Coordination Sequence:
#
# PCOD8295812 Si02
#       6
#    16  16   8  16  16  16
#     4  11  23  35  56  82 108 148 186 234 281 334
#     4  10  21  40  61  83 111 146 190 245 296 337
#     4  10  20  32  44  68 102 152 182 226 258 306
#     4  10  20  34  53  77 107 152 194 226 265 325
#     4  11  21  35  53  78 114 142 189 223 276 323
#     4  11  20  32  46  68 105 148 191 221 256 308
#
# _framework density 18.873805000000001
#
# number of rings (size 3 to 8) (size 9 to 14) (size 15 to 20)
#    0.000    1.455    3.636    2.727    0.000    0.000 
#    0.000    2.727    0.000    0.000    0.000    0.000 
#    0.000   50.909    0.000    0.000    0.000    0.000 
#
# Total GULP energy -545147.594968 kJ/mol
# GULP energy per Si atom -12389.718067 kJ/mol
# Density = 1.883085 g / cm^3
# Si number density = 18.873805 Si / 1000 Ang^3
#
#
#
# Elastic Constant Matrix: (Units=GPa)
#
#
# Indices 1 2 3 4 5 6 
#
# 1 87.7644 27.2371 4.1078 0.0000 0.0000 0.0000
# 2 27.2371 108.5108 31.4430 0.0000 0.0000 0.0000
# 3 4.1078 31.4430 46.9363 0.0000 0.0000 0.0000
# 4 0.0000 0.0000 0.0000 22.9620 0.0000 0.0000
# 5 0.0000 0.0000 0.0000 0.0000 23.0665 0.0000
# 6 0.0000 0.0000 0.0000 0.0000 0.0000 30.4067
#
#
#
# Elastic Compliance Matrix: (Units=1/GPa)
#
#
# Indices 1 2 3 4 5 6 
#
# 1 0.012415 -0.003476 0.001242 0.000000 0.000000 0.000000
# 2 -0.003476 0.012409 -0.008009 0.000000 0.000000 0.000000
# 3 0.001242 -0.008009 0.026562 0.000000 0.000000 0.000000
# 4 0.000000 0.000000 0.000000 0.043550 0.000000 0.000000
# 5 0.000000 0.000000 0.000000 0.000000 0.043353 0.000000
# 6 0.000000 0.000000 0.000000 0.000000 0.000000 0.032887
#
#
# Mechanical properties :
#
#
# Convention : Reuss Voigt Hill
#
# Bulk Modulus (GPa) = 32.36211 40.97637 36.66924
# Shear Modulus (GPa) = 24.75723 27.31528 26.03625
#
# Velocity S-wave (km/s) = 3.62570 3.80841 3.71818
# Velocity P-wave (km/s) = 5.89164 6.41066 6.15662
#
# Compressibility (1/GPa) = 0.03090033
#
# Stress axis : x y z
#
# Youngs Moduli (GPa) = 80.54900 80.58772 37.64811
#
# Poissons Ratio (x) = 0.28014 -0.04677
# Poissons Ratio (y) = 0.28000 0.30151
# Poissons Ratio (z) = -0.10006 0.64539
#
# Static dielectric constant tensor:
#      x y z
#    x 3.414020 0.000000 0.000000 
#    y 0.000000 3.407530 0.000000 
#    z 0.000000 0.000000 -4.963430 
# 
# 
# High freq. dielectric constant tensor:
#      x y z
#    x 1.738580 0.000000 0.000000 
#    y 0.000000 1.732910 0.000000 
#    z 0.000000 0.000000 1.689900 
# 
# From -- ./inp_files/2273.got.cif
#   From: 2010.03.12/outbox.cif.g09.slc.cpg/sg73_2_cif.got.tgz:2273.got - 2010.04.16 15:25:48.
