data_PCOD8295981
_publ_section_title
;
Structure prediction by ZEFSAII (Michael W. Deem and Ramdas Pophale) SiO2 
 PCOD8295981
Probable space group: I B C A 
;
_chemical_formula_sum "Si O2"
_cell_formula_units_Z 96
_cell_length_a 13.312310
_cell_length_b 16.365989
_cell_length_c 22.620279
_cell_angle_alpha 90.000000
_cell_angle_beta 90.000000
_cell_angle_gamma 90.000000
_cell_volume 4928.260258
_symmetry_space_group_name_H-M "I B C A "
_symmetry_group_IT_number 73
_symmetry_cell_setting 'orthorhombic'
loop_
_space_group_symop_operation_xyz
x,y,z
-x,1/2-y,z
x,-y,1/2-z
1/2-x,y,-z
-x,-y,-z
x,1/2+y,-z
-x,y,1/2+z
1/2+x,-y,z
1/2+x,1/2+y,1/2+z
1/2-x,-y,1/2+z
1/2+x,1/2-y,-z
-x,1/2+y,1/2-z
1/2-x,1/2-y,1/2-z
1/2+x,y,1/2-z
1/2-x,1/2+y,z
x,1/2-y,1/2+z
loop_
_atom_site_type_symbol
_atom_site_label
_atom_site_fract_x
_atom_site_fract_y
_atom_site_fract_z
Si Si1 0.596724 0.145701 0.385571
Si Si2 0.787140 0.931752 0.067493
Si Si3 0.359309 0.769106 0.018645
Si Si4 0.624058 0.902362 0.614273
Si Si5 0.287087 0.768927 0.184873
Si Si6 0.395872 0.229055 0.101345
O O1 0.688675 0.083986 0.393154
O O2 0.581261 0.199437 0.445005
O O3 0.495538 0.095479 0.373745
O O4 0.621747 0.207607 0.331591
O O5 0.872543 0.861809 0.075876
O O6 0.836952 0.008833 0.099458
O O7 0.750000 0.946583 0.000000
O O8 0.346629 0.849579 0.057079
O O9 0.250000 0.731909 0.000000
O O10 0.411279 0.788302 0.956077
O O11 0.675119 0.862045 0.673222
O O12 0.250000 0.750000 0.250000
O O13 0.195394 0.755620 0.141158
O O14 0.500000 0.250000 0.136423
#
# Coordination Sequence:
#
# PCOD8295981 Si02
#       6
#    16  16  16  16  16  16
#     4  10  20  39  59  83 124 158 195 245 305 370
#     4  11  22  38  54  94 134 156 194 253 310 376
#     4  11  16  36  57  83 118 155 191 242 304 371
#     4  11  23  35  63  89 119 160 201 248 312 369
#     4  10  22  41  63  85 113 158 214 255 292 363
#     4  11  21  36  59  84 123 160 201 251 307 365
#
# _framework density 19.479490999999999
#
# number of rings (size 3 to 8) (size 9 to 14) (size 15 to 20)
#    0.000    1.333    6.667    3.500    0.000    3.333 
#    0.000    3.333    0.000    4.000    0.000    0.000 
#    0.000    0.000    0.000    0.000    0.000    0.000 
#
# Total GULP energy -594703.752721 kJ/mol
# GULP energy per Si atom -12389.661515 kJ/mol
# Density = 1.943515 g / cm^3
# Si number density = 19.479491 Si / 1000 Ang^3
#
#
#
# Elastic Constant Matrix: (Units=GPa)
#
#
# Indices 1 2 3 4 5 6 
#
# 1 120.2771 58.1391 28.7445 0.0000 0.0000 0.0000
# 2 58.1391 101.4234 34.6226 0.0000 0.0000 0.0000
# 3 28.7445 34.6226 103.1449 0.0000 0.0000 0.0000
# 4 0.0000 0.0000 0.0000 14.9380 0.0000 0.0000
# 5 0.0000 0.0000 0.0000 0.0000 11.0343 0.0000
# 6 0.0000 0.0000 0.0000 0.0000 0.0000 32.2386
#
#
#
# Elastic Compliance Matrix: (Units=1/GPa)
#
#
# Indices 1 2 3 4 5 6 
#
# 1 0.011617 -0.006273 -0.001132 0.000000 0.000000 0.000000
# 2 -0.006273 0.014523 -0.003127 0.000000 0.000000 0.000000
# 3 -0.001132 -0.003127 0.011060 0.000000 0.000000 0.000000
# 4 0.000000 0.000000 0.000000 0.066943 0.000000 0.000000
# 5 0.000000 0.000000 0.000000 0.000000 0.090626 0.000000
# 6 0.000000 0.000000 0.000000 0.000000 0.000000 0.031019
#
#
# Mechanical properties :
#
#
# Convention : Reuss Voigt Hill
#
# Bulk Modulus (GPa) = 61.96943 63.09532 62.53238
# Shear Modulus (GPa) = 19.82321 25.19812 22.51067
#
# Velocity S-wave (km/s) = 3.19352 3.60053 3.40311
# Velocity P-wave (km/s) = 6.74387 7.05309 6.90021
#
# Compressibility (1/GPa) = 0.01613699
#
# Stress axis : x y z
#
# Youngs Moduli (GPa) = 86.08306 68.85757 90.41542
#
# Poissons Ratio (x) = 0.43192 0.10233
# Poissons Ratio (y) = 0.53997 0.28271
# Poissons Ratio (z) = 0.09743 0.21530
#
# Static dielectric constant tensor:
#      x y z
#    x 3.993500 0.000000 0.000000 
#    y 0.000000 3.370020 0.000000 
#    z 0.000000 0.000000 3.476540 
# 
# 
# High freq. dielectric constant tensor:
#      x y z
#    x 1.781330 0.000000 0.000000 
#    y 0.000000 1.734790 0.000000 
#    z 0.000000 0.000000 1.730330 
# 
# From -- ./inp_files/18633.got.cif
#   From: 2010.03.12/outbox.cif.g09.slc.cpg/sg73_10_cif.got.tgz:18633.got - 2010.04.16 15:25:48.
