data_PCOD8295422
_publ_section_title
;
Structure prediction by ZEFSAII (Michael W. Deem and Ramdas Pophale) SiO2 
 PCOD8295422
Probable space group: I B A M
;
_chemical_formula_sum "Si O2"
_cell_formula_units_Z 80
_cell_length_a 11.410007
_cell_length_b 23.380624
_cell_length_c 14.077430
_cell_angle_alpha 90.000000
_cell_angle_beta 90.000000
_cell_angle_gamma 90.000000
_cell_volume 3755.479409
_symmetry_space_group_name_H-M "I B A M"
_symmetry_group_IT_number 72
_symmetry_cell_setting 'orthorhombic'
loop_
_space_group_symop_operation_xyz
x,y,z
-x,-y,z
x,-y,1/2-z
-x,y,1/2-z
-x,-y,-z
x,y,-z
-x,y,1/2+z
x,-y,1/2+z
1/2+x,1/2+y,1/2+z
1/2-x,1/2-y,1/2+z
1/2+x,1/2-y,-z
1/2-x,1/2+y,-z
1/2-x,1/2-y,1/2-z
1/2+x,1/2+y,1/2-z
1/2-x,1/2+y,z
1/2+x,1/2-y,z
loop_
_atom_site_type_symbol
_atom_site_label
_atom_site_fract_x
_atom_site_fract_y
_atom_site_fract_z
Si Si1 0.157218 0.349546 0.704899
Si Si2 0.947399 0.695131 0.891907
Si Si3 0.002307 0.904465 0.500000
Si Si4 0.120719 0.476045 0.352291
Si Si5 0.580055 0.320242 0.159758
Si Si6 0.188638 0.995189 0.000000
O O1 0.126685 0.344160 0.817539
O O2 0.113943 0.408017 0.656464
O O3 0.294326 0.343069 0.691711
O O4 0.083017 0.303019 0.644221
O O5 0.900791 0.760021 0.892663
O O6 0.935966 0.671145 0.000000
O O7 0.016773 0.865944 0.592907
O O8 0.873778 0.933254 0.500000
O O9 0.096662 0.954061 0.500000
O O10 0.141280 0.500000 0.250000
O O11 0.231537 0.498764 0.408458
O O12 0.000000 0.500000 0.397844
O O13 0.500000 0.310615 0.250000
#
# Coordination Sequence:
#
# PCOD8295422 Si02
#       6
#    16  16   8  16  16   8
#     4  11  25  48  68 103 144 183 223 296 359 403
#     4  11  24  42  72 105 140 181 234 281 352 433
#     4  11  26  46  69 105 135 186 238 287 362 411
#     4  11  24  46  69 101 138 179 234 291 355 418
#     4  12  25  47  69 101 143 186 229 293 350 430
#     4  11  25  46  73  99 136 183 241 287 350 427
#
# _framework density 21.302206999999999
#
# number of rings (size 3 to 8) (size 9 to 14) (size 15 to 20)
#    0.000    0.800    5.000    3.300    5.600    0.000 
#    7.200    2.000    0.000    0.000    0.000    0.000 
#    0.000    0.000    0.000    0.000    0.000    0.000 
#
# Total GULP energy -495976.804015 kJ/mol
# GULP energy per Si atom -12399.420100 kJ/mol
# Density = 2.125372 g / cm^3
# Si number density = 21.302207 Si / 1000 Ang^3
#
#
#
# Elastic Constant Matrix: (Units=GPa)
#
#
# Indices 1 2 3 4 5 6 
#
# 1 117.7722 67.6342 54.4157 -0.0001 0.0000 0.0000
# 2 67.6342 93.3788 24.1163 0.0001 0.0000 0.0000
# 3 54.4157 24.1163 134.4168 0.0002 0.0001 0.0000
# 4 -0.0001 0.0001 0.0002 30.9950 0.0000 0.0000
# 5 0.0000 0.0000 0.0001 0.0000 32.1174 0.0000
# 6 0.0000 0.0000 0.0000 0.0000 0.0000 37.3077
#
#
#
# Elastic Compliance Matrix: (Units=1/GPa)
#
#
# Indices 1 2 3 4 5 6 
#
# 1 0.017201 -0.011178 -0.004958 0.000000 0.000000 0.000000
# 2 -0.011178 0.018494 0.001207 0.000000 0.000000 0.000000
# 3 -0.004958 0.001207 0.009230 0.000000 0.000000 0.000000
# 4 0.000000 0.000000 0.000000 0.032263 0.000000 0.000000
# 5 0.000000 0.000000 0.000000 0.000000 0.031136 0.000000
# 6 0.000000 0.000000 0.000000 0.000000 0.000000 0.026804
#
#
# Mechanical properties :
#
#
# Convention : Reuss Voigt Hill
#
# Bulk Modulus (GPa) = 66.37063 70.87781 68.62422
# Shear Modulus (GPa) = 29.41018 33.37744 31.39381
#
# Velocity S-wave (km/s) = 3.71970 3.96264 3.84309
# Velocity P-wave (km/s) = 7.04787 7.36760 7.20951
#
# Compressibility (1/GPa) = 0.01506691
#
# Stress axis : x y z
#
# Youngs Moduli (GPa) = 58.13496 54.07207 108.34135
#
# Poissons Ratio (x) = 0.60444 0.53716
# Poissons Ratio (y) = 0.64986 -0.13080
# Poissons Ratio (z) = 0.28823 -0.06528
#
# Static dielectric constant tensor:
#      x y z
#    x 4.021790 0.000000 0.000000 
#    y 0.000000 3.551430 0.000000 
#    z 0.000000 0.000000 3.889900 
# 
# 
# High freq. dielectric constant tensor:
#      x y z
#    x 1.840150 0.000000 0.000000 
#    y 0.000000 1.843320 0.000000 
#    z 0.000000 0.000000 1.843130 
# 
# From -- ./inp_files/20256.got.cif
#   From: 2010.03.12/outbox.cif.g09.slc.cpg/sg72_11_cif.got.tgz:20256.got - 2010.04.16 14:54:00.
