data_PCOD8295178
_publ_section_title
;
Structure prediction by ZEFSAII (Michael W. Deem and Ramdas Pophale) SiO2 
 PCOD8295178
Probable space group: I B A M
;
_chemical_formula_sum "Si O2"
_cell_formula_units_Z 128
_cell_length_a 10.677213
_cell_length_b 22.999526
_cell_length_c 27.816007
_cell_angle_alpha 90.000000
_cell_angle_beta 90.000000
_cell_angle_gamma 90.000000
_cell_volume 6830.800149
_symmetry_space_group_name_H-M "I B A M"
_symmetry_group_IT_number 72
_symmetry_cell_setting 'orthorhombic'
loop_
_space_group_symop_operation_xyz
x,y,z
-x,-y,z
x,-y,1/2-z
-x,y,1/2-z
-x,-y,-z
x,y,-z
-x,y,1/2+z
x,-y,1/2+z
1/2+x,1/2+y,1/2+z
1/2-x,1/2-y,1/2+z
1/2+x,1/2-y,-z
1/2-x,1/2+y,-z
1/2-x,1/2-y,1/2-z
1/2+x,1/2+y,1/2-z
1/2-x,1/2+y,z
1/2+x,1/2-y,z
loop_
_atom_site_type_symbol
_atom_site_label
_atom_site_fract_x
_atom_site_fract_y
_atom_site_fract_z
Si Si1 0.448887 0.918037 0.198598
Si Si2 0.211715 0.684997 0.298977
Si Si3 0.807178 0.418849 0.142105
Si Si4 0.296699 0.527599 0.947625
Si Si5 0.432307 0.626199 0.655063
Si Si6 0.688629 0.517003 0.803978
Si Si7 0.565194 0.584613 0.946657
Si Si8 0.182104 0.820434 0.305983
O O1 0.500000 0.937376 0.250000
O O2 0.420071 0.849001 0.196850
O O3 0.552844 0.934171 0.159031
O O4 0.323012 0.953083 0.189191
O O5 0.307423 0.663278 0.338712
O O6 0.184400 0.751347 0.310566
O O7 0.271643 0.666287 0.247792
O O8 0.796274 0.435167 0.086180
O O9 0.696660 0.456583 0.167189
O O10 0.774970 0.351864 0.155697
O O11 0.433306 0.553884 0.950390
O O12 0.321024 0.460049 0.932838
O O13 0.232518 0.530211 0.000000
O O14 0.417919 0.559652 0.674566
O O15 0.450250 0.629687 0.597310
O O16 0.542266 0.657266 0.684763
O O17 0.653863 0.500000 0.750000
O O18 0.593206 0.612581 0.000000
#
# Coordination Sequence:
#
# PCOD8295178 Si02
#       8
#    16  16  16  16  16  16  16  16
#     4  11  21  36  55  74 109 160 193 218 266 338
#     4  10  24  39  54  80 113 154 201 232 268 334
#     4  12  20  33  59  83 112 152 185 228 286 337
#     4   9  18  33  54  85 117 146 181 228 288 353
#     4  11  21  37  58  85 115 146 190 241 292 332
#     4  11  22  35  52  83 121 152 182 225 283 351
#     4   9  17  33  57  83 116 148 179 228 295 356
#     4  11  23  37  56  81 113 154 191 238 280 325
#
# _framework density 18.738654
#
# number of rings (size 3 to 8) (size 9 to 14) (size 15 to 20)
#    0.000    1.500    5.000    2.250    1.750    0.500 
#    0.000    1.875    0.000    6.000    0.000    0.000 
#    0.000    0.000    0.000    0.000    0.000    0.000 
#
# Total GULP energy -793185.705390 kJ/mol
# GULP energy per Si atom -12393.526647 kJ/mol
# Density = 1.869600 g / cm^3
# Si number density = 18.738654 Si / 1000 Ang^3
#
#
#
# Elastic Constant Matrix: (Units=GPa)
#
#
# Indices 1 2 3 4 5 6 
#
# 1 63.6494 18.8770 34.2887 0.0000 0.0000 0.0000
# 2 18.8770 80.3532 40.0054 0.0000 0.0000 0.0000
# 3 34.2887 40.0054 121.8001 0.0000 0.0000 0.0000
# 4 0.0000 0.0000 0.0000 19.6359 0.0000 0.0000
# 5 0.0000 0.0000 0.0000 0.0000 23.7664 0.0000
# 6 0.0000 0.0000 0.0000 0.0000 0.0000 24.6110
#
#
#
# Elastic Compliance Matrix: (Units=1/GPa)
#
#
# Indices 1 2 3 4 5 6 
#
# 1 0.018820 -0.002132 -0.004598 0.000000 0.000000 0.000000
# 2 -0.002132 0.015120 -0.004366 0.000000 0.000000 0.000000
# 3 -0.004598 -0.004366 0.010939 0.000000 0.000000 0.000000
# 4 0.000000 0.000000 0.000000 0.050927 0.000000 0.000000
# 5 0.000000 0.000000 0.000000 0.000000 0.042076 0.000000
# 6 0.000000 0.000000 0.000000 0.000000 0.000000 0.040632
#
#
# Mechanical properties :
#
#
# Convention : Reuss Voigt Hill
#
# Bulk Modulus (GPa) = 44.07887 50.23833 47.15860
# Shear Modulus (GPa) = 24.00750 25.11141 24.55946
#
# Velocity S-wave (km/s) = 3.58323 3.66469 3.62419
# Velocity P-wave (km/s) = 6.37914 6.69140 6.53713
#
# Compressibility (1/GPa) = 0.02268661
#
# Stress axis : x y z
#
# Youngs Moduli (GPa) = 53.13386 66.13945 91.42017
#
# Poissons Ratio (x) = 0.14103 0.42034
# Poissons Ratio (y) = 0.11329 0.39912
# Poissons Ratio (z) = 0.24430 0.28875
#
# Static dielectric constant tensor:
#      x y z
#    x 3.402040 0.000000 0.000000 
#    y 0.000000 3.560920 0.000000 
#    z 0.000000 0.000000 3.665570 
# 
# 
# High freq. dielectric constant tensor:
#      x y z
#    x 1.723090 0.000000 0.000000 
#    y 0.000000 1.713110 0.000000 
#    z 0.000000 0.000000 1.715040 
# 
# From -- ./inp_files/48353.got.cif
#   From: 2010.03.12/outbox.cif.g09.slc.cpg/sg72_25_cif.got.tgz:48353.got - 2010.04.16 14:54:00.
