data_PCOD8295872
_publ_section_title
;
Structure prediction by ZEFSAII (Michael W. Deem and Ramdas Pophale) SiO2 
 PCOD8295872
Probable space group: I B C A 
;
_chemical_formula_sum "Si O2"
_cell_formula_units_Z 80
_cell_length_a 8.714146
_cell_length_b 17.451728
_cell_length_c 29.399663
_cell_angle_alpha 90.000000
_cell_angle_beta 90.000000
_cell_angle_gamma 90.000000
_cell_volume 4471.009779
_symmetry_space_group_name_H-M "I B C A "
_symmetry_group_IT_number 73
_symmetry_cell_setting 'orthorhombic'
loop_
_space_group_symop_operation_xyz
x,y,z
-x,1/2-y,z
x,-y,1/2-z
1/2-x,y,-z
-x,-y,-z
x,1/2+y,-z
-x,y,1/2+z
1/2+x,-y,z
1/2+x,1/2+y,1/2+z
1/2-x,-y,1/2+z
1/2+x,1/2-y,-z
-x,1/2+y,1/2-z
1/2-x,1/2-y,1/2-z
1/2+x,y,1/2-z
1/2-x,1/2+y,z
x,1/2-y,1/2+z
loop_
_atom_site_type_symbol
_atom_site_label
_atom_site_fract_x
_atom_site_fract_y
_atom_site_fract_z
Si Si1 0.763808 0.099624 0.447009
Si Si2 0.480182 0.495141 0.099300
Si Si3 0.818218 0.242118 0.387915
Si Si4 0.228840 0.603345 0.361020
Si Si5 0.678981 0.231955 0.798244
O O1 0.750000 0.115024 0.500000
O O2 0.748591 0.181905 0.423078
O O3 0.924547 0.061473 0.433058
O O4 0.627764 0.043308 0.433526
O O5 0.383692 0.446649 0.136173
O O6 0.583555 0.551646 0.128549
O O7 0.742749 0.326085 0.397505
O O8 0.766776 0.216666 0.336603
O O9 0.000000 0.250000 0.391514
O O10 0.208142 0.641756 0.310961
O O11 0.500000 0.250000 0.798501
O O12 0.750000 0.250000 0.750000
#
# Coordination Sequence:
#
# PCOD8295872 Si02
#       5
#    16  16  16  16  16
#     4  11  21  36  56  82 116 156 196 242 287 347
#     4  10  20  38  57  82 119 153 194 233 297 346
#     4  10  20  39  56  86 115 149 200 240 292 334
#     4   9  21  37  62  85 113 157 188 245 287 345
#     4  10  20  35  62  92 112 145 193 229 292 342
#
# _framework density 17.893049999999999
#
# number of rings (size 3 to 8) (size 9 to 14) (size 15 to 20)
#    1.200    0.800    2.000    2.400    0.000    0.000 
#    3.600    1.000    0.000   20.400    0.000    0.000 
#    0.000    0.000    0.000    0.000    0.000    0.000 
#
# Total GULP energy -495664.429765 kJ/mol
# GULP energy per Si atom -12391.610744 kJ/mol
# Density = 1.785232 g / cm^3
# Si number density = 17.893050 Si / 1000 Ang^3
#
#
#
# Elastic Constant Matrix: (Units=GPa)
#
#
# Indices 1 2 3 4 5 6 
#
# 1 99.6252 53.2588 46.9019 0.0000 0.0000 0.0000
# 2 53.2588 132.8071 61.7924 0.0000 0.0000 0.0000
# 3 46.9019 61.7924 132.6522 0.0000 0.0000 0.0000
# 4 0.0000 0.0000 0.0000 28.4936 0.0000 0.0000
# 5 0.0000 0.0000 0.0000 0.0000 9.7450 0.0000
# 6 0.0000 0.0000 0.0000 0.0000 0.0000 1.9190
#
#
#
# Elastic Compliance Matrix: (Units=1/GPa)
#
#
# Indices 1 2 3 4 5 6 
#
# 1 0.013595 -0.004105 -0.002894 0.000000 0.000000 0.000000
# 2 -0.004105 0.010853 -0.003604 0.000000 0.000000 0.000000
# 3 -0.002894 -0.003604 0.010241 0.000000 0.000000 0.000000
# 4 0.000000 0.000000 0.000000 0.035096 0.000000 0.000000
# 5 0.000000 0.000000 0.000000 0.000000 0.102616 0.000000
# 6 0.000000 0.000000 0.000000 0.000000 0.000000 0.521097
#
#
# Mechanical properties :
#
#
# Convention : Reuss Voigt Hill
#
# Bulk Modulus (GPa) = 74.17759 76.55454 75.36606
# Shear Modulus (GPa) = 6.95218 21.57364 14.26291
#
# Velocity S-wave (km/s) = 1.97328 3.47608 2.82639
# Velocity P-wave (km/s) = 6.83651 7.68038 7.27070
#
# Compressibility (1/GPa) = 0.01348116
#
# Stress axis : x y z
#
# Youngs Moduli (GPa) = 73.55723 92.14160 97.64895
#
# Poissons Ratio (x) = 0.37825 0.28264
# Poissons Ratio (y) = 0.30196 0.35193
# Poissons Ratio (z) = 0.21291 0.33208
#
# Static dielectric constant tensor:
#      x y z
#    x 3.592360 0.000000 0.000000 
#    y 0.000000 3.341860 0.000000 
#    z 0.000000 0.000000 3.182660 
# 
# 
# High freq. dielectric constant tensor:
#      x y z
#    x 1.710730 0.000000 0.000000 
#    y 0.000000 1.698670 0.000000 
#    z 0.000000 0.000000 1.662430 
# 
# From -- ./inp_files/33520.got.cif
#   From: 2010.03.12/outbox.cif.g09.slc.cpg/sg73_17_cif.got.tgz:33520.got - 2010.04.16 15:25:48.
