data_PCOD8295391
_publ_section_title
;
Structure prediction by ZEFSAII (Michael W. Deem and Ramdas Pophale) SiO2 
 PCOD8295391
Probable space group: I B A M
;
_chemical_formula_sum "Si O2"
_cell_formula_units_Z 88
_cell_length_a 12.159433
_cell_length_b 16.091685
_cell_length_c 21.106399
_cell_angle_alpha 90.000000
_cell_angle_beta 90.000000
_cell_angle_gamma 90.000000
_cell_volume 4129.799720
_symmetry_space_group_name_H-M "I B A M"
_symmetry_group_IT_number 72
_symmetry_cell_setting 'orthorhombic'
loop_
_space_group_symop_operation_xyz
x,y,z
-x,-y,z
x,-y,1/2-z
-x,y,1/2-z
-x,-y,-z
x,y,-z
-x,y,1/2+z
x,-y,1/2+z
1/2+x,1/2+y,1/2+z
1/2-x,1/2-y,1/2+z
1/2+x,1/2-y,-z
1/2-x,1/2+y,-z
1/2-x,1/2-y,1/2-z
1/2+x,1/2+y,1/2-z
1/2-x,1/2+y,z
1/2+x,1/2-y,z
loop_
_atom_site_type_symbol
_atom_site_label
_atom_site_fract_x
_atom_site_fract_y
_atom_site_fract_z
Si Si1 0.791017 0.000000 0.750000
Si Si2 0.972560 0.132465 0.071683
Si Si3 0.597201 0.942375 0.073633
Si Si4 0.669253 0.174156 0.236635
Si Si5 0.514938 0.203855 0.646638
Si Si6 0.338983 0.482823 0.613879
O O1 0.720833 0.082593 0.765055
O O2 0.867558 0.983413 0.811184
O O3 0.964662 0.202358 0.125063
O O4 0.870111 0.070879 0.082809
O O5 0.089670 0.087214 0.079426
O O6 0.966307 0.167655 0.000000
O O7 0.554570 0.849903 0.086820
O O8 0.500000 0.000000 0.100371
O O9 0.710089 0.963963 0.108800
O O10 0.617924 0.955866 0.000000
O O11 0.750000 0.250000 0.250000
O O12 0.583961 0.176381 0.293336
O O13 0.611831 0.190232 0.167985
#
# Coordination Sequence:
#
# PCOD8295391 Si02
#       6
#     8  16  16  16  16  16
#     4  12  22  40  72  94 140 178 215 279 356 398
#     4  11  24  44  68  97 135 180 227 284 342 407
#     4  11  23  42  64  94 133 174 224 275 326 402
#     4  11  24  42  63  99 138 172 220 282 333 419
#     4  11  24  39  66  94 132 170 225 268 338 394
#     4  11  23  43  69  99 132 178 228 276 347 416
#
# _framework density 21.308539
#
# number of rings (size 3 to 8) (size 9 to 14) (size 15 to 20)
#    0.000    0.909    1.818    6.000    0.000    3.636 
#    0.000    0.000    0.000    0.000    0.000    0.000 
#    0.000    0.000    0.000    0.000    0.000    0.000 
#
# Total GULP energy -545556.605104 kJ/mol
# GULP energy per Si atom -12399.013752 kJ/mol
# Density = 2.126004 g / cm^3
# Si number density = 21.308539 Si / 1000 Ang^3
#
#
#
# Elastic Constant Matrix: (Units=GPa)
#
#
# Indices 1 2 3 4 5 6 
#
# 1 97.0278 30.7410 9.9777 0.0000 0.0000 0.0000
# 2 30.7410 135.3422 4.5555 0.0000 0.0000 0.0000
# 3 9.9777 4.5555 90.9191 0.0000 0.0000 0.0000
# 4 0.0000 0.0000 0.0000 32.5163 0.0000 0.0000
# 5 0.0000 0.0000 0.0000 0.0000 27.3233 0.0000
# 6 0.0000 0.0000 0.0000 0.0000 0.0000 20.3891
#
#
#
# Elastic Compliance Matrix: (Units=1/GPa)
#
#
# Indices 1 2 3 4 5 6 
#
# 1 0.011215 -0.002510 -0.001105 0.000000 0.000000 0.000000
# 2 -0.002510 0.007963 -0.000124 0.000000 0.000000 0.000000
# 3 -0.001105 -0.000124 0.011126 0.000000 0.000000 0.000000
# 4 0.000000 0.000000 0.000000 0.030754 0.000000 0.000000
# 5 0.000000 0.000000 0.000000 0.000000 0.036599 0.000000
# 6 0.000000 0.000000 0.000000 0.000000 0.000000 0.049046
#
#
# Mechanical properties :
#
#
# Convention : Reuss Voigt Hill
#
# Bulk Modulus (GPa) = 43.80766 45.98194 44.89480
# Shear Modulus (GPa) = 30.90438 34.58006 32.74222
#
# Velocity S-wave (km/s) = 3.81245 4.03280 3.92417
# Velocity P-wave (km/s) = 6.32322 6.58108 6.45344
#
# Compressibility (1/GPa) = 0.02282706
#
# Stress axis : x y z
#
# Youngs Moduli (GPa) = 89.16424 125.58096 89.87755
#
# Poissons Ratio (x) = 0.31523 0.09932
# Poissons Ratio (y) = 0.22382 0.01110
# Poissons Ratio (z) = 0.09853 0.01551
#
# Static dielectric constant tensor:
#      x y z
#    x 3.962480 0.000000 0.000000 
#    y 0.000000 3.713080 0.000000 
#    z 0.000000 0.000000 4.117960 
# 
# 
# High freq. dielectric constant tensor:
#      x y z
#    x 1.834450 0.000000 0.000000 
#    y 0.000000 1.841610 0.000000 
#    z 0.000000 0.000000 1.848250 
# 
# From -- ./inp_files/43233.got.cif
#   From: 2010.03.12/outbox.cif.g09.slc.cpg/sg72_22_cif.got.tgz:43233.got - 2010.04.16 14:54:00.
