data_PCOD8295028
_publ_section_title
;
Structure prediction by ZEFSAII (Michael W. Deem and Ramdas Pophale) SiO2 
 PCOD8295028
Probable space group: I B A M
;
_chemical_formula_sum "Si O2"
_cell_formula_units_Z 56
_cell_length_a 21.138734
_cell_length_b 12.021396
_cell_length_c 10.179899
_cell_angle_alpha 90.000000
_cell_angle_beta 90.000000
_cell_angle_gamma 90.000000
_cell_volume 2586.886334
_symmetry_space_group_name_H-M "I B A M"
_symmetry_group_IT_number 72
_symmetry_cell_setting 'orthorhombic'
loop_
_space_group_symop_operation_xyz
x,y,z
-x,-y,z
x,-y,1/2-z
-x,y,1/2-z
-x,-y,-z
x,y,-z
-x,y,1/2+z
x,-y,1/2+z
1/2+x,1/2+y,1/2+z
1/2-x,1/2-y,1/2+z
1/2+x,1/2-y,-z
1/2-x,1/2+y,-z
1/2-x,1/2-y,1/2-z
1/2+x,1/2+y,1/2-z
1/2-x,1/2+y,z
1/2+x,1/2-y,z
loop_
_atom_site_type_symbol
_atom_site_label
_atom_site_fract_x
_atom_site_fract_y
_atom_site_fract_z
Si Si1 0.243035 0.654679 0.355388
Si Si2 0.054210 0.165263 0.149623
Si Si3 0.897515 0.590281 0.148823
Si Si4 0.844837 0.000000 0.250000
O O1 0.243568 0.710237 0.500000
O O2 0.250000 0.750000 0.250000
O O3 0.177837 0.589669 0.334301
O O4 0.300698 0.568495 0.349043
O O5 0.075278 0.289504 0.186295
O O6 0.000000 0.126569 0.250000
O O7 0.113431 0.083433 0.163225
O O8 0.028867 0.158456 0.000000
O O9 0.926444 0.500000 0.250000
O O10 0.916523 0.557085 0.000000
#
# Coordination Sequence:
#
# PCOD8295028 Si02
#       4
#    16  16  16   8
#     4  11  23  39  64  97 134 172 210 266 331 395
#     4  11  26  46  66  94 133 176 225 273 322 388
#     4  10  22  42  66  97 132 171 219 273 329 391
#     4  12  23  42  70 102 133 170 220 266 336 396
#
# _framework density 21.647646000000002
#
# number of rings (size 3 to 8) (size 9 to 14) (size 15 to 20)
#    0.000    1.143    4.286    1.286    0.000    7.429 
#    0.000    2.857    0.000    0.000    0.000    0.000 
#    0.000    0.000    0.000    0.000    0.000    0.000 
#
# Total GULP energy -347296.635285 kJ/mol
# GULP energy per Si atom -12403.451260 kJ/mol
# Density = 2.159838 g / cm^3
# Si number density = 21.647646 Si / 1000 Ang^3
#
#
#
# Elastic Constant Matrix: (Units=GPa)
#
#
# Indices 1 2 3 4 5 6 
#
# 1 80.6659 10.2736 22.1424 0.0000 0.0000 0.0000
# 2 10.2736 104.4716 51.0395 0.0000 0.0000 0.0000
# 3 22.1424 51.0395 134.3865 0.0000 0.0000 0.0000
# 4 0.0000 0.0000 0.0000 35.1629 0.0000 0.0000
# 5 0.0000 0.0000 0.0000 0.0000 29.4586 0.0000
# 6 0.0000 0.0000 0.0000 0.0000 0.0000 16.8594
#
#
#
# Elastic Compliance Matrix: (Units=1/GPa)
#
#
# Indices 1 2 3 4 5 6 
#
# 1 0.012991 -0.000285 -0.002032 0.000000 0.000000 0.000000
# 2 -0.000285 0.011759 -0.004419 0.000000 0.000000 0.000000
# 3 -0.002032 -0.004419 0.009454 0.000000 0.000000 0.000000
# 4 0.000000 0.000000 0.000000 0.028439 0.000000 0.000000
# 5 0.000000 0.000000 0.000000 0.000000 0.033946 0.000000
# 6 0.000000 0.000000 0.000000 0.000000 0.000000 0.059314
#
#
# Mechanical properties :
#
#
# Convention : Reuss Voigt Hill
#
# Bulk Modulus (GPa) = 48.23429 54.04835 51.14132
# Shear Modulus (GPa) = 28.36294 32.03407 30.19851
#
# Velocity S-wave (km/s) = 3.62361 3.85098 3.73902
# Velocity P-wave (km/s) = 6.31168 6.69290 6.50508
#
# Compressibility (1/GPa) = 0.02073214
#
# Stress axis : x y z
#
# Youngs Moduli (GPa) = 76.97675 85.04182 105.77021
#
# Poissons Ratio (x) = 0.02420 0.21497
# Poissons Ratio (y) = 0.02191 0.46741
# Poissons Ratio (z) = 0.15645 0.37581
#
# Static dielectric constant tensor:
#      x y z
#    x 3.933850 0.000000 0.000000 
#    y 0.000000 3.885380 0.000000 
#    z 0.000000 0.000000 6.666030 
# 
# 
# High freq. dielectric constant tensor:
#      x y z
#    x 1.851390 0.000000 0.000000 
#    y 0.000000 1.853680 0.000000 
#    z 0.000000 0.000000 1.854550 
# 
# From -- ./inp_files/11110.got.cif
#   From: 2010.03.12/outbox.cif.g09.slc.cpg/sg72_6_cif.got.tgz:11110.got - 2010.04.16 14:54:00.
