data_PCOD8295962
_publ_section_title
;
Structure prediction by ZEFSAII (Michael W. Deem and Ramdas Pophale) SiO2 
 PCOD8295962
Probable space group: I B C A 
;
_chemical_formula_sum "Si O2"
_cell_formula_units_Z 112
_cell_length_a 13.593720
_cell_length_b 11.430130
_cell_length_c 35.108173
_cell_angle_alpha 90.000000
_cell_angle_beta 90.000000
_cell_angle_gamma 90.000000
_cell_volume 5455.037240
_symmetry_space_group_name_H-M "I B C A "
_symmetry_group_IT_number 73
_symmetry_cell_setting 'orthorhombic'
loop_
_space_group_symop_operation_xyz
x,y,z
-x,1/2-y,z
x,-y,1/2-z
1/2-x,y,-z
-x,-y,-z
x,1/2+y,-z
-x,y,1/2+z
1/2+x,-y,z
1/2+x,1/2+y,1/2+z
1/2-x,-y,1/2+z
1/2+x,1/2-y,-z
-x,1/2+y,1/2-z
1/2-x,1/2-y,1/2-z
1/2+x,y,1/2-z
1/2-x,1/2+y,z
x,1/2-y,1/2+z
loop_
_atom_site_type_symbol
_atom_site_label
_atom_site_fract_x
_atom_site_fract_y
_atom_site_fract_z
Si Si1 0.096237 0.673417 0.195725
Si Si2 0.708537 0.583491 0.427299
Si Si3 0.100696 0.691132 0.551854
Si Si4 0.193777 0.000000 0.750000
Si Si5 0.907775 0.468377 0.637402
Si Si6 0.750000 0.942063 0.500000
Si Si7 0.610883 0.994782 0.112713
Si Si8 0.731888 0.619486 0.822082
O O1 0.123280 0.601705 0.233626
O O2 0.075858 0.588187 0.160658
O O3 0.190047 0.751580 0.183945
O O4 0.000000 0.750000 0.204410
O O5 0.668164 0.713759 0.427333
O O6 0.647870 0.494781 0.401496
O O7 0.703438 0.526968 0.468819
O O8 0.819274 0.592418 0.410853
O O9 0.161703 0.637155 0.516733
O O10 0.074327 0.597266 0.584270
O O11 0.000000 0.750000 0.536328
O O12 0.265871 0.948710 0.782093
O O13 0.844085 0.374454 0.661535
O O14 0.016240 0.420932 0.626943
O O15 0.664834 0.045701 0.149504
#
# Coordination Sequence:
#
# PCOD8295962 Si02
#       8
#    16  16  16   8  16   8  16  16
#     4  11  21  38  66  91 124 168 215 255 317 385
#     4  10  21  37  61  90 123 155 210 258 309 372
#     4  11  21  38  65  86 118 167 213 249 319 383
#     4  10  24  40  58  92 128 168 204 260 324 380
#     4  10  20  38  63  94 116 162 213 257 312 371
#     4  10  24  40  52  92 128 160 200 260 314 376
#     4  10  20  38  64  92 117 161 210 267 305 375
#     4  10  21  37  63  90 129 156 208 261 312 374
#
# _framework density 20.531482
#
# number of rings (size 3 to 8) (size 9 to 14) (size 15 to 20)
#    0.000    1.714    2.857    1.714    0.000    1.143 
#    2.571    0.000    0.000   10.286    0.000    0.000 
#    0.000    0.000    0.000    0.000    0.000    0.000 
#
# Total GULP energy -694441.837190 kJ/mol
# GULP energy per Si atom -12400.747093 kJ/mol
# Density = 2.048475 g / cm^3
# Si number density = 20.531482 Si / 1000 Ang^3
#
#
#
# Elastic Constant Matrix: (Units=GPa)
#
#
# Indices 1 2 3 4 5 6 
#
# 1 146.4470 39.0093 35.3672 0.0000 0.0000 0.0000
# 2 39.0093 59.1475 8.9917 0.0000 0.0000 0.0000
# 3 35.3672 8.9917 110.7285 0.0000 0.0000 0.0000
# 4 0.0000 0.0000 0.0000 15.6030 0.0000 0.0000
# 5 0.0000 0.0000 0.0000 0.0000 24.6153 0.0000
# 6 0.0000 0.0000 0.0000 0.0000 0.0000 31.2559
#
#
#
# Elastic Compliance Matrix: (Units=1/GPa)
#
#
# Indices 1 2 3 4 5 6 
#
# 1 0.008866 -0.005484 -0.002386 0.000000 0.000000 0.000000
# 2 -0.005484 0.020511 0.000086 0.000000 0.000000 0.000000
# 3 -0.002386 0.000086 0.009786 0.000000 0.000000 0.000000
# 4 0.000000 0.000000 0.000000 0.064090 0.000000 0.000000
# 5 0.000000 0.000000 0.000000 0.000000 0.040625 0.000000
# 6 0.000000 0.000000 0.000000 0.000000 0.000000 0.031994
#
#
# Mechanical properties :
#
#
# Convention : Reuss Voigt Hill
#
# Bulk Modulus (GPa) = 42.38424 53.67326 48.02875
# Shear Modulus (GPa) = 25.08709 29.82516 27.45612
#
# Velocity S-wave (km/s) = 3.49934 3.81551 3.66084
# Velocity P-wave (km/s) = 6.08404 6.75348 6.42748
#
# Compressibility (1/GPa) = 0.02359368
#
# Stress axis : x y z
#
# Youngs Moduli (GPa) = 112.79578 48.75471 102.18348
#
# Poissons Ratio (x) = 0.26739 0.24385
# Poissons Ratio (y) = 0.61861 -0.00880
# Poissons Ratio (z) = 0.26917 -0.00420
#
# Static dielectric constant tensor:
#      x y z
#    x 3.911010 0.000000 0.000000 
#    y 0.000000 3.527540 0.000000 
#    z 0.000000 0.000000 3.834600 
# 
# 
# High freq. dielectric constant tensor:
#      x y z
#    x 1.810970 0.000000 0.000000 
#    y 0.000000 1.780950 0.000000 
#    z 0.000000 0.000000 1.814660 
# 
# From -- ./inp_files/34347.got.cif
#   From: 2010.03.12/outbox.cif.g09.slc.cpg/sg73_18_cif.got.tgz:34347.got - 2010.04.16 15:25:48.
