data_PCOD8295690
_publ_section_title
;
Structure prediction by ZEFSAII (Michael W. Deem and Ramdas Pophale) SiO2 
 PCOD8295690
Probable space group: I B C A 
;
_chemical_formula_sum "Si O2"
_cell_formula_units_Z 80
_cell_length_a 22.618998
_cell_length_b 13.171096
_cell_length_c 16.425016
_cell_angle_alpha 90.000000
_cell_angle_beta 90.000000
_cell_angle_gamma 90.000000
_cell_volume 4893.291394
_symmetry_space_group_name_H-M "I B C A "
_symmetry_group_IT_number 73
_symmetry_cell_setting 'orthorhombic'
loop_
_space_group_symop_operation_xyz
x,y,z
-x,1/2-y,z
x,-y,1/2-z
1/2-x,y,-z
-x,-y,-z
x,1/2+y,-z
-x,y,1/2+z
1/2+x,-y,z
1/2+x,1/2+y,1/2+z
1/2-x,-y,1/2+z
1/2+x,1/2-y,-z
-x,1/2+y,1/2-z
1/2-x,1/2-y,1/2-z
1/2+x,y,1/2-z
1/2-x,1/2+y,z
x,1/2-y,1/2+z
loop_
_atom_site_type_symbol
_atom_site_label
_atom_site_fract_x
_atom_site_fract_y
_atom_site_fract_z
Si Si1 0.500000 0.250000 0.310170
Si Si2 0.750000 0.241169 0.500000
Si Si3 0.843267 0.870148 0.412736
Si Si4 0.648358 0.394066 0.070776
Si Si5 0.901118 0.116214 0.254813
Si Si6 0.938536 0.779239 0.964952
O O1 0.537757 0.322601 0.252370
O O2 0.455616 0.312139 0.371610
O O3 0.782909 0.312330 0.565436
O O4 0.794050 0.169593 0.450791
O O5 0.854694 0.857318 0.316508
O O6 0.897220 0.821001 0.463406
O O7 0.837234 0.987547 0.436521
O O8 0.630008 0.358294 0.160496
O O9 0.594416 0.371446 0.009068
O O10 0.920347 0.000000 0.250000
O O11 0.000000 0.750000 0.011396
#
# Coordination Sequence:
#
# PCOD8295690 Si02
#       6
#     8   8  16  16  16  16
#     4   8  16  32  46  66 106 124 146 196 234 278
#     4  10  20  34  50  70  92 128 166 200 236 274
#     4   9  18  34  49  69 100 122 159 199 237 274
#     4  10  19  31  52  72  93 127 164 193 235 285
#     4   9  18  32  48  72  95 126 156 192 239 282
#     4   8  17  31  47  72  96 127 150 190 235 279
#
# _framework density 16.348914000000001
#
# number of rings (size 3 to 8) (size 9 to 14) (size 15 to 20)
#    0.600    2.400    0.000    0.600    1.400    1.600 
#    0.000    0.000    0.000    0.000    0.000    0.000 
#    0.000    0.000    0.000    0.000    0.000    0.000 
#
# Total GULP energy -495723.974816 kJ/mol
# GULP energy per Si atom -12393.099370 kJ/mol
# Density = 1.631170 g / cm^3
# Si number density = 16.348914 Si / 1000 Ang^3
#
#
#
# Elastic Constant Matrix: (Units=GPa)
#
#
# Indices 1 2 3 4 5 6 
#
# 1 122.8018 62.5869 52.7419 0.0000 0.0000 0.0000
# 2 62.5869 95.8099 55.0441 0.0000 0.0000 0.0000
# 3 52.7419 55.0441 93.0811 0.0000 0.0000 0.0000
# 4 0.0000 0.0000 0.0000 24.4548 0.0000 0.0000
# 5 0.0000 0.0000 0.0000 0.0000 24.3457 0.0000
# 6 0.0000 0.0000 0.0000 0.0000 0.0000 24.4610
#
#
#
# Elastic Compliance Matrix: (Units=1/GPa)
#
#
# Indices 1 2 3 4 5 6 
#
# 1 0.012931 -0.006418 -0.003532 0.000000 0.000000 0.000000
# 2 -0.006418 0.018993 -0.007595 0.000000 0.000000 0.000000
# 3 -0.003532 -0.007595 0.017236 0.000000 0.000000 0.000000
# 4 0.000000 0.000000 0.000000 0.040892 0.000000 0.000000
# 5 0.000000 0.000000 0.000000 0.000000 0.041075 0.000000
# 6 0.000000 0.000000 0.000000 0.000000 0.000000 0.040881
#
#
# Mechanical properties :
#
#
# Convention : Reuss Voigt Hill
#
# Bulk Modulus (GPa) = 71.07100 72.49317 71.78208
# Shear Modulus (GPa) = 23.60842 24.07362 23.84102
#
# Velocity S-wave (km/s) = 3.80417 3.84147 3.82286
# Velocity P-wave (km/s) = 7.92852 8.00708 7.96790
#
# Compressibility (1/GPa) = 0.01407044
#
# Stress axis : x y z
#
# Youngs Moduli (GPa) = 77.33331 52.64968 58.01835
#
# Poissons Ratio (x) = 0.33791 0.20490
# Poissons Ratio (y) = 0.49633 0.44066
# Poissons Ratio (z) = 0.27311 0.39989
#
# Static dielectric constant tensor:
#      x y z
#    x 3.120810 0.000000 0.000000 
#    y 0.000000 2.973870 0.000000 
#    z 0.000000 0.000000 3.093250 
# 
# 
# High freq. dielectric constant tensor:
#      x y z
#    x 1.633520 0.000000 0.000000 
#    y 0.000000 1.619680 0.000000 
#    z 0.000000 0.000000 1.622430 
# 
# From -- ./inp_files/11801.got.cif
#   From: 2010.03.12/outbox.cif.g09.slc.cpg/sg73_6_cif.got.tgz:11801.got - 2010.04.16 15:25:48.
