data_PCOD8295159
_publ_section_title
;
Structure prediction by ZEFSAII (Michael W. Deem and Ramdas Pophale) SiO2 
 PCOD8295159
Probable space group: I B A M
;
_chemical_formula_sum "Si O2"
_cell_formula_units_Z 96
_cell_length_a 20.412272
_cell_length_b 13.731071
_cell_length_c 14.598131
_cell_angle_alpha 90.000000
_cell_angle_beta 90.000000
_cell_angle_gamma 90.000000
_cell_volume 4091.598551
_symmetry_space_group_name_H-M "I B A M"
_symmetry_group_IT_number 72
_symmetry_cell_setting 'orthorhombic'
loop_
_space_group_symop_operation_xyz
x,y,z
-x,-y,z
x,-y,1/2-z
-x,y,1/2-z
-x,-y,-z
x,y,-z
-x,y,1/2+z
x,-y,1/2+z
1/2+x,1/2+y,1/2+z
1/2-x,1/2-y,1/2+z
1/2+x,1/2-y,-z
1/2-x,1/2+y,-z
1/2-x,1/2-y,1/2-z
1/2+x,1/2+y,1/2-z
1/2-x,1/2+y,z
1/2+x,1/2-y,z
loop_
_atom_site_type_symbol
_atom_site_label
_atom_site_fract_x
_atom_site_fract_y
_atom_site_fract_z
Si Si1 0.902562 0.263851 0.101591
Si Si2 0.343359 0.810991 0.898732
Si Si3 0.179695 0.908215 0.396230
Si Si4 0.933810 0.049346 0.108801
Si Si5 0.192713 0.604870 0.775774
Si Si6 0.515863 0.892073 0.644120
O O1 0.918689 0.158213 0.145834
O O2 0.856201 0.327101 0.167199
O O3 0.971393 0.317720 0.087704
O O4 0.870064 0.253538 0.000000
O O5 0.355266 0.696249 0.893394
O O6 0.290441 0.842050 0.821259
O O7 0.409295 0.868289 0.876374
O O8 0.317371 0.840501 0.000000
O O9 0.201852 0.933063 0.500000
O O10 0.241893 0.914114 0.331240
O O11 0.126943 0.984241 0.358854
O O12 0.940428 0.053601 0.000000
O O13 0.000000 0.000000 0.149791
O O14 0.160007 0.500000 0.750000
O O15 0.500000 0.878998 0.750000
O O16 0.500000 0.000000 0.609155
#
# Coordination Sequence:
#
# PCOD8295159 Si02
#       6
#    16  16  16  16  16  16
#     4  11  23  41  71 104 138 181 226 282 349 421
#     4  11  24  43  69  96 130 182 233 285 345 413
#     4  10  23  44  70 100 137 180 228 285 354 421
#     4   9  19  40  72 108 143 179 227 285 349 425
#     4  12  26  44  65  95 140 182 233 292 342 419
#     4  11  22  40  65  97 138 175 222 276 342 411
#
# _framework density 23.462712
#
# number of rings (size 3 to 8) (size 9 to 14) (size 15 to 20)
#    0.000    1.333    1.667    3.500    0.000    9.333 
#    0.000    3.333    0.000    0.000    0.000    0.000 
#    0.000    0.667    0.000    0.000    0.000    0.000 
#
# Total GULP energy -595194.290884 kJ/mol
# GULP energy per Si atom -12399.881060 kJ/mol
# Density = 2.340931 g / cm^3
# Si number density = 23.462712 Si / 1000 Ang^3
#
#
#
# Elastic Constant Matrix: (Units=GPa)
#
#
# Indices 1 2 3 4 5 6 
#
# 1 134.0472 70.6933 50.1117 0.0000 0.0000 0.0000
# 2 70.6933 192.7381 58.8308 0.0000 0.0000 0.0000
# 3 50.1117 58.8308 132.0060 0.0000 0.0000 0.0000
# 4 0.0000 0.0000 0.0000 26.3640 0.0000 0.0000
# 5 0.0000 0.0000 0.0000 0.0000 20.7761 0.0000
# 6 0.0000 0.0000 0.0000 0.0000 0.0000 34.1767
#
#
#
# Elastic Compliance Matrix: (Units=1/GPa)
#
#
# Indices 1 2 3 4 5 6 
#
# 1 0.009903 -0.002876 -0.002478 0.000000 0.000000 0.000000
# 2 -0.002876 0.006841 -0.001957 0.000000 0.000000 0.000000
# 3 -0.002478 -0.001957 0.009388 0.000000 0.000000 0.000000
# 4 0.000000 0.000000 0.000000 0.037930 0.000000 0.000000
# 5 0.000000 0.000000 0.000000 0.000000 0.048132 0.000000
# 6 0.000000 0.000000 0.000000 0.000000 0.000000 0.029260
#
#
# Mechanical properties :
#
#
# Convention : Reuss Voigt Hill
#
# Bulk Modulus (GPa) = 86.87551 90.89587 88.88569
# Shear Modulus (GPa) = 31.26723 34.87373 33.07048
#
# Velocity S-wave (km/s) = 3.65449 3.85950 3.75839
# Velocity P-wave (km/s) = 7.41043 7.66066 7.53658
#
# Compressibility (1/GPa) = 0.01151072
#
# Stress axis : x y z
#
# Youngs Moduli (GPa) = 100.97926 146.18682 106.51835
#
# Poissons Ratio (x) = 0.42044 0.26391
# Poissons Ratio (y) = 0.29042 0.20844
# Poissons Ratio (z) = 0.25019 0.28606
#
# Static dielectric constant tensor:
#      x y z
#    x 4.052100 0.000000 0.000000 
#    y 0.000000 4.565660 0.000000 
#    z 0.000000 0.000000 4.475920 
# 
# 
# High freq. dielectric constant tensor:
#      x y z
#    x 1.912490 0.000000 0.000000 
#    y 0.000000 1.946570 0.000000 
#    z 0.000000 0.000000 1.937010 
# 
# From -- ./inp_files/24119.got.cif
#   From: 2010.03.12/outbox.cif.g09.slc.cpg/sg72_13_cif.got.tgz:24119.got - 2010.04.16 14:54:00.
