data_PCOD8295207
_publ_section_title
;
Structure prediction by ZEFSAII (Michael W. Deem and Ramdas Pophale) SiO2 
 PCOD8295207
Probable space group: I B A M
;
_chemical_formula_sum "Si O2"
_cell_formula_units_Z 96
_cell_length_a 11.603910
_cell_length_b 21.396951
_cell_length_c 19.367581
_cell_angle_alpha 90.000000
_cell_angle_beta 90.000000
_cell_angle_gamma 90.000000
_cell_volume 4808.743639
_symmetry_space_group_name_H-M "I B A M"
_symmetry_group_IT_number 72
_symmetry_cell_setting 'orthorhombic'
loop_
_space_group_symop_operation_xyz
x,y,z
-x,-y,z
x,-y,1/2-z
-x,y,1/2-z
-x,-y,-z
x,y,-z
-x,y,1/2+z
x,-y,1/2+z
1/2+x,1/2+y,1/2+z
1/2-x,1/2-y,1/2+z
1/2+x,1/2-y,-z
1/2-x,1/2+y,-z
1/2-x,1/2-y,1/2-z
1/2+x,1/2+y,1/2-z
1/2-x,1/2+y,z
1/2+x,1/2-y,z
loop_
_atom_site_type_symbol
_atom_site_label
_atom_site_fract_x
_atom_site_fract_y
_atom_site_fract_z
Si Si1 0.134547 0.011285 0.325430
Si Si2 0.414232 0.171595 0.684498
Si Si3 0.430241 0.312059 0.346271
Si Si4 0.156502 0.147840 0.300406
Si Si5 0.011828 0.426419 0.420302
Si Si6 0.224921 0.906766 0.578195
O O1 0.162888 0.082414 0.339956
O O2 0.186930 0.000000 0.250000
O O3 0.196152 0.968448 0.380109
O O4 0.000000 0.000000 0.327852
O O5 0.500000 0.167296 0.750000
O O6 0.415360 0.238359 0.647647
O O7 0.284054 0.172644 0.711034
O O8 0.433340 0.115262 0.630529
O O9 0.395848 0.349103 0.276491
O O10 0.569801 0.316039 0.352326
O O11 0.352700 0.346092 0.404048
O O12 0.971565 0.418573 0.500000
O O13 0.138936 0.396910 0.410469
O O14 0.000000 0.500000 0.399575
O O15 0.197696 0.923565 0.500000
#
# Coordination Sequence:
#
# PCOD8295207 Si02
#       6
#    16  16  16  16  16  16
#     4  11  19  36  62  90 124 166 203 255 324 375
#     4  12  25  38  68  98 125 165 222 270 313 390
#     4  11  22  40  61  91 132 168 205 261 334 376
#     4  11  21  39  61  93 126 165 206 264 321 378
#     4  10  24  47  66  88 130 175 212 265 335 389
#     4  11  23  40  65  93 129 171 216 267 321 389
#
# _framework density 19.963635
#
# number of rings (size 3 to 8) (size 9 to 14) (size 15 to 20)
#    0.000    1.000    5.000    3.500    2.333    1.333 
#    0.000    0.833    0.000    0.000    0.000    0.000 
#    0.000    0.000    0.000    0.000    0.000    0.000 
#
# Total GULP energy -594636.406813 kJ/mol
# GULP energy per Si atom -12388.258475 kJ/mol
# Density = 1.991820 g / cm^3
# Si number density = 19.963635 Si / 1000 Ang^3
#
#
#
# Elastic Constant Matrix: (Units=GPa)
#
#
# Indices 1 2 3 4 5 6 
#
# 1 125.5257 25.8595 31.4749 0.0000 0.0000 0.0000
# 2 25.8595 127.6679 36.3112 0.0000 0.0000 0.0000
# 3 31.4749 36.3112 89.0688 0.0000 0.0000 0.0000
# 4 0.0000 0.0000 0.0000 22.6999 0.0000 0.0000
# 5 0.0000 0.0000 0.0000 0.0000 28.1262 0.0000
# 6 0.0000 0.0000 0.0000 0.0000 0.0000 -9.8839
#
#
#
# Elastic Compliance Matrix: (Units=1/GPa)
#
#
# Indices 1 2 3 4 5 6 
#
# 1 0.008857 -0.001022 -0.002713 0.000000 0.000000 0.000000
# 2 -0.001022 0.008978 -0.003299 0.000000 0.000000 0.000000
# 3 -0.002713 -0.003299 0.013531 0.000000 0.000000 0.000000
# 4 0.000000 0.000000 0.000000 0.044053 0.000000 0.000000
# 5 0.000000 0.000000 0.000000 0.000000 0.035554 0.000000
# 6 0.000000 0.000000 0.000000 0.000000 0.000000 -0.101175
#
#
# Mechanical properties :
#
#
# Convention : Reuss Voigt Hill
#
# Bulk Modulus (GPa) = 57.81167 58.83929 58.32548
# Shear Modulus (GPa) = 168.72849 24.76291 96.74570
#
# Velocity S-wave (km/s) = 9.20334 3.52575 6.96894
# Velocity P-wave (km/s) = 11.91455 6.79057 9.69712
#
# Compressibility (1/GPa) = 0.01729755
#
# Stress axis : x y z
#
# Youngs Moduli (GPa) = 112.89933 111.38105 73.90466
#
# Poissons Ratio (x) = 0.11388 0.20052
# Poissons Ratio (y) = 0.11543 0.24380
# Poissons Ratio (z) = 0.30632 0.36743
#
# Static dielectric constant tensor:
#      x y z
#    x 4.131480 0.000000 0.000000 
#    y 0.000000 3.702160 0.000000 
#    z 0.000000 0.000000 4.275440 
# 
# 
# High freq. dielectric constant tensor:
#      x y z
#    x 1.794110 0.000000 0.000000 
#    y 0.000000 1.789160 0.000000 
#    z 0.000000 0.000000 1.753950 
# 
# From -- ./inp_files/33280.got.cif
#   From: 2010.03.12/outbox.cif.g09.slc.cpg/sg72_17_cif.got.tgz:33280.got - 2010.04.16 14:54:00.
