data_PCOD8295949
_publ_section_title
;
Structure prediction by ZEFSAII (Michael W. Deem and Ramdas Pophale) SiO2 
 PCOD8295949
Probable space group: I B C A 
;
_chemical_formula_sum "Si O2"
_cell_formula_units_Z 96
_cell_length_a 16.028043
_cell_length_b 13.653546
_cell_length_c 22.656119
_cell_angle_alpha 90.000000
_cell_angle_beta 90.000000
_cell_angle_gamma 90.000000
_cell_volume 4958.056527
_symmetry_space_group_name_H-M "I B C A "
_symmetry_group_IT_number 73
_symmetry_cell_setting 'orthorhombic'
loop_
_space_group_symop_operation_xyz
x,y,z
-x,1/2-y,z
x,-y,1/2-z
1/2-x,y,-z
-x,-y,-z
x,1/2+y,-z
-x,y,1/2+z
1/2+x,-y,z
1/2+x,1/2+y,1/2+z
1/2-x,-y,1/2+z
1/2+x,1/2-y,-z
-x,1/2+y,1/2-z
1/2-x,1/2-y,1/2-z
1/2+x,y,1/2-z
1/2-x,1/2+y,z
x,1/2-y,1/2+z
loop_
_atom_site_type_symbol
_atom_site_label
_atom_site_fract_x
_atom_site_fract_y
_atom_site_fract_z
Si Si1 0.032867 0.004153 0.120915
Si Si2 0.623460 0.902494 0.221292
Si Si3 0.576686 0.681127 0.544412
Si Si4 0.620345 0.185586 0.157291
Si Si5 0.605315 0.132659 0.589476
Si Si6 0.271127 0.700344 0.123252
O O1 0.041977 0.063712 0.182922
O O2 0.062667 0.071719 0.067719
O O3 0.092619 0.909196 0.120132
O O4 0.938244 0.969292 0.108152
O O5 0.598776 0.828053 0.273476
O O6 0.689980 0.850653 0.180120
O O7 0.664557 0.000000 0.250000
O O8 0.500000 0.750000 0.562641
O O9 0.583413 0.672384 0.474861
O O10 0.659422 0.727669 0.574425
O O11 0.572681 0.283489 0.135183
O O12 0.720056 0.202641 0.144385
O O13 0.705669 0.122179 0.594656
#
# Coordination Sequence:
#
# PCOD8295949 Si02
#       6
#    16  16  16  16  16  16
#     4  10  20  38  60  88 120 164 193 253 315 366
#     4   9  18  37  58  83 123 159 191 258 303 360
#     4  11  22  40  59  88 128 160 204 264 305 367
#     4   9  19  36  65  83 122 160 204 246 309 365
#     4  10  21  37  64  89 121 161 208 247 308 371
#     4   9  21  37  63  84 120 162 209 247 313 361
#
# _framework density 19.362425999999999
#
# number of rings (size 3 to 8) (size 9 to 14) (size 15 to 20)
#    1.000    1.333    0.000    3.000    0.000    0.000 
#    9.000   19.167   11.000    0.000    0.000    0.000 
#    0.000    0.000    0.000    0.000    0.000    0.000 
#
# Total GULP energy -594741.016837 kJ/mol
# GULP energy per Si atom -12390.437851 kJ/mol
# Density = 1.931836 g / cm^3
# Si number density = 19.362426 Si / 1000 Ang^3
#
#
#
# Elastic Constant Matrix: (Units=GPa)
#
#
# Indices 1 2 3 4 5 6 
#
# 1 82.2872 3.5307 29.0004 0.0000 0.0000 0.0000
# 2 3.5307 45.0898 29.4538 0.0000 0.0000 0.0000
# 3 29.0004 29.4538 112.0492 0.0000 0.0000 0.0000
# 4 0.0000 0.0000 0.0000 33.8592 0.0000 0.0000
# 5 0.0000 0.0000 0.0000 0.0000 17.3622 0.0000
# 6 0.0000 0.0000 0.0000 0.0000 0.0000 21.0136
#
#
#
# Elastic Compliance Matrix: (Units=1/GPa)
#
#
# Indices 1 2 3 4 5 6 
#
# 1 0.013453 0.001474 -0.003869 0.000000 0.000000 0.000000
# 2 0.001474 0.026937 -0.007462 0.000000 0.000000 0.000000
# 3 -0.003869 -0.007462 0.011888 0.000000 0.000000 0.000000
# 4 0.000000 0.000000 0.000000 0.029534 0.000000 0.000000
# 5 0.000000 0.000000 0.000000 0.000000 0.057596 0.000000
# 6 0.000000 0.000000 0.000000 0.000000 0.000000 0.047588
#
#
# Mechanical properties :
#
#
# Convention : Reuss Voigt Hill
#
# Bulk Modulus (GPa) = 30.71003 40.37733 35.54368
# Shear Modulus (GPa) = 22.98155 26.27643 24.62899
#
# Velocity S-wave (km/s) = 3.44890 3.68786 3.57038
# Velocity P-wave (km/s) = 5.63515 6.24760 5.94926
#
# Compressibility (1/GPa) = 0.03256265
#
# Stress axis : x y z
#
# Youngs Moduli (GPa) = 74.33288 37.12344 84.12040
#
# Poissons Ratio (x) = -0.05473 0.32549
# Poissons Ratio (y) = -0.10958 0.62774
# Poissons Ratio (z) = 0.28762 0.27703
#
# Static dielectric constant tensor:
#      x y z
#    x 3.495700 0.000000 0.000000 
#    y 0.000000 3.433730 0.000000 
#    z 0.000000 0.000000 3.596780 
# 
# 
# High freq. dielectric constant tensor:
#      x y z
#    x 1.742020 0.000000 0.000000 
#    y 0.000000 1.740540 0.000000 
#    z 0.000000 0.000000 1.763940 
# 
# From -- ./inp_files/25971.got.cif
#   From: 2010.03.12/outbox.cif.g09.slc.cpg/sg73_13_cif.got.tgz:25971.got - 2010.04.16 15:25:48.
