data_PCOD8295236
_publ_section_title
;
Structure prediction by ZEFSAII (Michael W. Deem and Ramdas Pophale) SiO2 
 PCOD8295236
Probable space group: I B A M
;
_chemical_formula_sum "Si O2"
_cell_formula_units_Z 96
_cell_length_a 26.910773
_cell_length_b 27.768827
_cell_length_c 9.343535
_cell_angle_alpha 90.000000
_cell_angle_beta 90.000000
_cell_angle_gamma 90.000000
_cell_volume 6982.242440
_symmetry_space_group_name_H-M "I B A M"
_symmetry_group_IT_number 72
_symmetry_cell_setting 'orthorhombic'
loop_
_space_group_symop_operation_xyz
x,y,z
-x,-y,z
x,-y,1/2-z
-x,y,1/2-z
-x,-y,-z
x,y,-z
-x,y,1/2+z
x,-y,1/2+z
1/2+x,1/2+y,1/2+z
1/2-x,1/2-y,1/2+z
1/2+x,1/2-y,-z
1/2-x,1/2+y,-z
1/2-x,1/2-y,1/2-z
1/2+x,1/2+y,1/2-z
1/2-x,1/2+y,z
1/2+x,1/2-y,z
loop_
_atom_site_type_symbol
_atom_site_label
_atom_site_fract_x
_atom_site_fract_y
_atom_site_fract_z
Si Si1 0.902387 0.609400 0.773550
Si Si2 0.434488 0.040367 0.500000
Si Si3 0.450788 0.068914 0.000000
Si Si4 0.279702 0.708322 0.171496
Si Si5 0.550219 0.791678 0.337312
Si Si6 0.865667 0.245648 0.163076
Si Si7 0.189106 0.347550 0.657409
O O1 0.907361 0.560675 0.861589
O O2 0.933904 0.601749 0.630628
O O3 0.924150 0.656186 0.850817
O O4 0.842836 0.616515 0.755336
O O5 0.490756 0.059384 0.500000
O O6 0.425837 0.983517 0.500000
O O7 0.250000 0.750000 0.250000
O O8 0.333536 0.705738 0.248144
O O9 0.247245 0.659518 0.200864
O O10 0.284449 0.718048 0.000000
O O11 0.500000 0.796764 0.250000
O O12 0.541033 0.773390 0.500000
O O13 0.583601 0.753263 0.250829
O O14 0.836475 0.295501 0.157706
O O15 0.876111 0.227701 0.000000
O O16 0.186641 0.370148 0.500000
#
# Coordination Sequence:
#
# PCOD8295236 Si02
#       7
#    16   8   8  16  16  16  16
#     4  11  20  32  45  58  75  95 123 162 202 245
#     4  11  22  34  42  64  67  94 128 164 200 249
#     4  11  22  34  48  50  77  96 124 158 208 251
#     4   9  15  25  40  56  77  98 123 147 182 229
#     4  11  21  30  43  59  78 103 130 160 195 231
#     4   9  17  28  40  58  79  99 123 150 186 227
#     4   8  15  27  41  56  72  97 117 144 189 233
#
# _framework density 13.749164
#
# number of rings (size 3 to 8) (size 9 to 14) (size 15 to 20)
#    0.000    2.167    1.667    4.500    2.333    1.333 
#    3.000    0.000    0.000    0.000    0.000    0.000 
#    0.000    0.000    0.000    0.000    0.000    0.000 
#
# Total GULP energy -594675.154533 kJ/mol
# GULP energy per Si atom -12389.065719 kJ/mol
# Density = 1.371787 g / cm^3
# Si number density = 13.749164 Si / 1000 Ang^3
#
#
#
# Elastic Constant Matrix: (Units=GPa)
#
#
# Indices 1 2 3 4 5 6 
#
# 1 61.1678 29.7255 29.9630 0.0000 0.0000 0.0000
# 2 29.7255 26.1546 17.5822 0.0000 0.0000 0.0000
# 3 29.9630 17.5822 101.4081 0.0000 0.0000 0.0000
# 4 0.0000 0.0000 0.0000 11.7055 0.0000 0.0000
# 5 0.0000 0.0000 0.0000 0.0000 20.7035 0.0000
# 6 0.0000 0.0000 0.0000 0.0000 0.0000 21.3614
#
#
#
# Elastic Compliance Matrix: (Units=1/GPa)
#
#
# Indices 1 2 3 4 5 6 
#
# 1 0.038063 -0.040409 -0.004240 0.000000 0.000000 0.000000
# 2 -0.040409 0.086179 -0.003002 0.000000 0.000000 0.000000
# 3 -0.004240 -0.003002 0.011635 0.000000 0.000000 0.000000
# 4 0.000000 0.000000 0.000000 0.085430 0.000000 0.000000
# 5 0.000000 0.000000 0.000000 0.000000 0.048301 0.000000
# 6 0.000000 0.000000 0.000000 0.000000 0.000000 0.046813
#
#
# Mechanical properties :
#
#
# Convention : Reuss Voigt Hill
#
# Bulk Modulus (GPa) = 24.64693 38.14133 31.39413
# Shear Modulus (GPa) = 11.75783 18.18472 14.97127
#
# Velocity S-wave (km/s) = 2.92750 3.64071 3.30341
# Velocity P-wave (km/s) = 5.42144 6.74345 6.11826
#
# Compressibility (1/GPa) = 0.04057300
#
# Stress axis : x y z
#
# Youngs Moduli (GPa) = 26.27209 11.60381 85.95120
#
# Poissons Ratio (x) = 0.46890 0.36446
# Poissons Ratio (y) = 1.06164 0.25802
# Poissons Ratio (z) = 0.11140 0.03483
#
# Static dielectric constant tensor:
#      x y z
#    x 3.035870 0.000000 0.000000 
#    y 0.000000 2.441240 0.000000 
#    z 0.000000 0.000000 2.882790 
# 
# 
# High freq. dielectric constant tensor:
#      x y z
#    x 1.514610 0.000000 0.000000 
#    y 0.000000 1.458060 0.000000 
#    z 0.000000 0.000000 1.544920 
# 
# From -- ./inp_files/8303.got.cif
#   From: 2010.03.12/outbox.cif.g09.slc.cpg/sg72_5_cif.got.tgz:8303.got - 2010.04.16 14:54:00.
