data_PCOD8295124
_publ_section_title
;
Structure prediction by ZEFSAII (Michael W. Deem and Ramdas Pophale) SiO2 
 PCOD8295124
Probable space group: I B A M
;
_chemical_formula_sum "Si O2"
_cell_formula_units_Z 56
_cell_length_a 23.448055
_cell_length_b 4.984103
_cell_length_c 21.235475
_cell_angle_alpha 90.000000
_cell_angle_beta 90.000000
_cell_angle_gamma 90.000000
_cell_volume 2481.737326
_symmetry_space_group_name_H-M "I B A M"
_symmetry_group_IT_number 72
_symmetry_cell_setting 'orthorhombic'
loop_
_space_group_symop_operation_xyz
x,y,z
-x,-y,z
x,-y,1/2-z
-x,y,1/2-z
-x,-y,-z
x,y,-z
-x,y,1/2+z
x,-y,1/2+z
1/2+x,1/2+y,1/2+z
1/2-x,1/2-y,1/2+z
1/2+x,1/2-y,-z
1/2-x,1/2+y,-z
1/2-x,1/2-y,1/2-z
1/2+x,1/2+y,1/2-z
1/2-x,1/2+y,z
1/2+x,1/2-y,z
loop_
_atom_site_type_symbol
_atom_site_label
_atom_site_fract_x
_atom_site_fract_y
_atom_site_fract_z
Si Si1 0.391676 0.391241 0.072361
Si Si2 0.211857 0.209036 0.340181
Si Si3 0.858477 0.500000 0.250000
Si Si4 0.438518 0.897852 0.133750
O O1 0.329828 0.384860 0.104404
O O2 0.435578 0.599925 0.105038
O O3 0.418840 0.097978 0.078588
O O4 0.383263 0.468330 0.000000
O O5 0.234445 0.514859 0.345265
O O6 0.178547 0.239342 0.273050
O O7 0.896494 0.398550 0.307314
O O8 0.500000 0.000000 0.157237
#
# Coordination Sequence:
#
# PCOD8295124 Si02
#       4
#    16  16   8  16
#     4  11  25  43  63  93 128 165 217 267 314 385
#     4  11  23  40  65  93 127 169 208 258 318 377
#     4  10  23  42  64  98 132 164 215 268 320 392
#     4  11  24  42  66  93 126 168 210 265 328 383
#
# _framework density 22.564838000000002
#
# number of rings (size 3 to 8) (size 9 to 14) (size 15 to 20)
#    0.000    1.143    0.000    6.429    0.000   13.714 
#    0.000    5.714    0.000    0.000    0.000    0.000 
#    0.000    0.000    0.000    0.000    0.000    0.000 
#
# Total GULP energy -347067.231690 kJ/mol
# GULP energy per Si atom -12395.258275 kJ/mol
# Density = 2.251348 g / cm^3
# Si number density = 22.564838 Si / 1000 Ang^3
#
#
#
# Elastic Constant Matrix: (Units=GPa)
#
#
# Indices 1 2 3 4 5 6 
#
# 1 114.9775 25.0194 34.5105 0.0000 0.0000 0.0000
# 2 25.0194 88.9229 39.4994 0.0000 0.0000 0.0000
# 3 34.5105 39.4994 121.8011 0.0000 0.0000 0.0000
# 4 0.0000 0.0000 0.0000 24.4676 0.0000 0.0000
# 5 0.0000 0.0000 0.0000 0.0000 9.5013 0.0000
# 6 0.0000 0.0000 0.0000 0.0000 0.0000 46.0272
#
#
#
# Elastic Compliance Matrix: (Units=1/GPa)
#
#
# Indices 1 2 3 4 5 6 
#
# 1 0.009738 -0.001769 -0.002185 0.000000 0.000000 0.000000
# 2 -0.001769 0.013460 -0.003864 0.000000 0.000000 0.000000
# 3 -0.002185 -0.003864 0.010082 0.000000 0.000000 0.000000
# 4 0.000000 0.000000 0.000000 0.040870 0.000000 0.000000
# 5 0.000000 0.000000 0.000000 0.000000 0.105248 0.000000
# 6 0.000000 0.000000 0.000000 0.000000 0.000000 0.021726
#
#
# Mechanical properties :
#
#
# Convention : Reuss Voigt Hill
#
# Bulk Modulus (GPa) = 56.67746 58.19558 57.43652
# Shear Modulus (GPa) = 22.45749 31.11072 26.78410
#
# Velocity S-wave (km/s) = 3.15817 3.71715 3.44900
# Velocity P-wave (km/s) = 6.20249 6.65352 6.43196
#
# Compressibility (1/GPa) = 0.01764370
#
# Stress axis : x y z
#
# Youngs Moduli (GPa) = 102.68732 74.29590 99.18400
#
# Poissons Ratio (x) = 0.13144 0.21676
# Poissons Ratio (y) = 0.18167 0.38321
# Poissons Ratio (z) = 0.22442 0.28705
#
# Static dielectric constant tensor:
#      x y z
#    x 4.276180 0.000000 0.000000 
#    y 0.000000 4.210320 0.000000 
#    z 0.000000 0.000000 3.935540 
# 
# 
# High freq. dielectric constant tensor:
#      x y z
#    x 1.902220 0.000000 0.000000 
#    y 0.000000 1.902270 0.000000 
#    z 0.000000 0.000000 1.878370 
# 
# From -- ./inp_files/40030.got.cif
#   From: 2010.03.12/outbox.cif.g09.slc.cpg/sg72_21_cif.got.tgz:40030.got - 2010.04.16 14:54:00.
