data_PCOD8295814
_publ_section_title
;
Structure prediction by ZEFSAII (Michael W. Deem and Ramdas Pophale) SiO2 
 PCOD8295814
Probable space group: I B C A 
;
_chemical_formula_sum "Si O2"
_cell_formula_units_Z 72
_cell_length_a 5.219531
_cell_length_b 29.469763
_cell_length_c 25.132727
_cell_angle_alpha 90.000000
_cell_angle_beta 90.000000
_cell_angle_gamma 90.000000
_cell_volume 3865.874386
_symmetry_space_group_name_H-M "I B C A "
_symmetry_group_IT_number 73
_symmetry_cell_setting 'orthorhombic'
loop_
_space_group_symop_operation_xyz
x,y,z
-x,1/2-y,z
x,-y,1/2-z
1/2-x,y,-z
-x,-y,-z
x,1/2+y,-z
-x,y,1/2+z
1/2+x,-y,z
1/2+x,1/2+y,1/2+z
1/2-x,-y,1/2+z
1/2+x,1/2-y,-z
-x,1/2+y,1/2-z
1/2-x,1/2-y,1/2-z
1/2+x,y,1/2-z
1/2-x,1/2+y,z
x,1/2-y,1/2+z
loop_
_atom_site_type_symbol
_atom_site_label
_atom_site_fract_x
_atom_site_fract_y
_atom_site_fract_z
Si Si1 0.742183 0.627424 0.437268
Si Si2 0.804620 0.299587 0.772621
Si Si3 0.000000 0.250000 0.868876
Si Si4 0.254591 0.025952 0.936487
Si Si5 0.741902 0.318514 0.437205
O O1 0.750000 0.622970 0.500000
O O2 0.765558 0.576949 0.412902
O O3 0.473067 0.648549 0.419710
O O4 0.977343 0.658819 0.418179
O O5 0.750000 0.250000 0.750000
O O6 0.534497 0.325210 0.760440
O O7 0.877651 0.291559 0.834361
O O8 0.222439 0.270922 0.906275
O O9 0.500745 0.998861 0.914983
O O10 0.250000 0.026843 0.000000
O O11 0.750000 0.308304 0.500000
#
# Coordination Sequence:
#
# PCOD8295814 Si02
#       5
#    16  16   8  16  16
#     4   9  18  31  40  55  83 109 139 185 223 241
#     4   8  16  30  47  66  81  96 136 188 235 270
#     4  10  20  32  48  62  82 120 162 182 210 258
#     4   9  15  24  42  60  72  95 135 177 218 263
#     4  10  21  31  41  57  85 120 153 184 205 235
#
# _framework density 18.624506
#
# number of rings (size 3 to 8) (size 9 to 14) (size 15 to 20)
#    0.000    3.111    0.000    1.333    0.000   16.000 
#    0.000    0.000    0.000    0.000    0.000    0.000 
#    0.000    0.000    0.000    0.000    0.000  700.000 
#
# Total GULP energy -446030.687204 kJ/mol
# GULP energy per Si atom -12389.741311 kJ/mol
# Density = 1.858212 g / cm^3
# Si number density = 18.624506 Si / 1000 Ang^3
#
#
#
# Elastic Constant Matrix: (Units=GPa)
#
#
# Indices 1 2 3 4 5 6 
#
# 1 169.2018 40.4576 27.8342 0.0000 0.0000 0.0000
# 2 40.4576 70.0468 28.5118 0.0000 0.0000 0.0000
# 3 27.8342 28.5118 51.3627 0.0000 0.0000 0.0000
# 4 0.0000 0.0000 0.0000 1.3433 0.0000 0.0000
# 5 0.0000 0.0000 0.0000 0.0000 15.3539 0.0000
# 6 0.0000 0.0000 0.0000 0.0000 0.0000 29.1867
#
#
#
# Elastic Compliance Matrix: (Units=1/GPa)
#
#
# Indices 1 2 3 4 5 6 
#
# 1 0.007013 -0.003235 -0.002005 0.000000 0.000000 0.000000
# 2 -0.003235 0.019935 -0.009313 0.000000 0.000000 0.000000
# 3 -0.002005 -0.009313 0.025726 0.000000 0.000000 0.000000
# 4 0.000000 0.000000 0.000000 0.744413 0.000000 0.000000
# 5 0.000000 0.000000 0.000000 0.000000 0.065130 0.000000
# 6 0.000000 0.000000 0.000000 0.000000 0.000000 0.034262
#
#
# Mechanical properties :
#
#
# Convention : Reuss Voigt Hill
#
# Bulk Modulus (GPa) = 42.42961 53.80205 48.11583
# Shear Modulus (GPa) = 5.35652 22.09730 13.72691
#
# Velocity S-wave (km/s) = 1.69774 3.44824 2.71778
# Velocity P-wave (km/s) = 5.16470 6.69360 5.97823
#
# Compressibility (1/GPa) = 0.02356845
#
# Stress axis : x y z
#
# Youngs Moduli (GPa) = 142.58468 50.16224 38.87139
#
# Poissons Ratio (x) = 0.16226 0.07794
# Poissons Ratio (y) = 0.46121 0.36202
# Poissons Ratio (z) = 0.28589 0.46718
#
# Static dielectric constant tensor:
#      x y z
#    x 1.561920 0.000000 0.000000 
#    y 0.000000 3.228720 0.000000 
#    z 0.000000 0.000000 3.179650 
# 
# 
# High freq. dielectric constant tensor:
#      x y z
#    x 1.752810 0.000000 0.000000 
#    y 0.000000 1.679880 0.000000 
#    z 0.000000 0.000000 1.664220 
# 
# From -- ./inp_files/3051.got.cif
#   From: 2010.03.12/outbox.cif.g09.slc.cpg/sg73_2_cif.got.tgz:3051.got - 2010.04.16 15:25:48.
