data_PCOD8295945
_publ_section_title
;
Structure prediction by ZEFSAII (Michael W. Deem and Ramdas Pophale) SiO2 
 PCOD8295945
Probable space group: I B C A 
;
_chemical_formula_sum "Si O2"
_cell_formula_units_Z 120
_cell_length_a 8.706042
_cell_length_b 26.562362
_cell_length_c 29.096980
_cell_angle_alpha 90.000000
_cell_angle_beta 90.000000
_cell_angle_gamma 90.000000
_cell_volume 6728.765056
_symmetry_space_group_name_H-M "I B C A "
_symmetry_group_IT_number 73
_symmetry_cell_setting 'orthorhombic'
loop_
_space_group_symop_operation_xyz
x,y,z
-x,1/2-y,z
x,-y,1/2-z
1/2-x,y,-z
-x,-y,-z
x,1/2+y,-z
-x,y,1/2+z
1/2+x,-y,z
1/2+x,1/2+y,1/2+z
1/2-x,-y,1/2+z
1/2+x,1/2-y,-z
-x,1/2+y,1/2-z
1/2-x,1/2-y,1/2-z
1/2+x,y,1/2-z
1/2-x,1/2+y,z
x,1/2-y,1/2+z
loop_
_atom_site_type_symbol
_atom_site_label
_atom_site_fract_x
_atom_site_fract_y
_atom_site_fract_z
Si Si1 0.635636 0.394458 0.457336
Si Si2 0.106219 0.700301 0.065890
Si Si3 0.838121 0.453260 0.043316
Si Si4 0.255144 0.536495 0.813997
Si Si5 0.671839 0.958537 0.389203
Si Si6 0.561459 0.804018 0.036231
Si Si7 0.868061 0.601933 0.612723
Si Si8 0.006764 0.500000 0.750000
O O1 0.750000 0.386165 0.500000
O O2 0.496204 0.429185 0.474157
O O3 0.714660 0.418262 0.412530
O O4 0.562597 0.341178 0.440220
O O5 0.290411 0.707728 0.067946
O O6 0.072718 0.659330 0.106289
O O7 0.000000 0.750000 0.074968
O O8 0.083244 0.674749 0.015793
O O9 0.880317 0.498967 0.075572
O O10 0.728265 0.411715 0.066990
O O11 0.750000 0.476446 0.000000
O O12 0.251137 0.485731 0.845727
O O13 0.257404 0.588400 0.843894
O O14 0.108477 0.537909 0.780752
O O15 0.406185 0.535032 0.782835
O O16 0.514327 0.932173 0.375806
O O17 0.500000 0.750000 0.025713
#
# Coordination Sequence:
#
# PCOD8295945 Si02
#       8
#    16  16  16  16  16  16  16   8
#     4  12  24  34  52  76 107 157 200 240 280 328
#     4  10  21  36  56  74 104 146 194 247 290 326
#     4  11  21  35  48  71 109 152 194 228 271 325
#     4  10  21  37  59  85 115 144 175 224 274 347
#     4  11  23  34  52  78 113 148 185 229 274 332
#     4  10  22  36  51  73 102 147 203 252 283 321
#     4  11  21  36  54  79 112 145 187 233 283 330
#     4  10  20  38  60  84 114 142 178 212 280 352
#
# _framework density 17.833881999999999
#
# number of rings (size 3 to 8) (size 9 to 14) (size 15 to 20)
#    0.000    1.333    2.667    4.400    7.467    1.600 
#    0.000    0.000    0.000    0.000    0.000    0.933 
#    0.000    0.000    0.000    0.000    0.000    0.000 
#
# Total GULP energy -743525.616484 kJ/mol
# GULP energy per Si atom -12392.093608 kJ/mol
# Density = 1.779329 g / cm^3
# Si number density = 17.833882 Si / 1000 Ang^3
#
#
#
# Elastic Constant Matrix: (Units=GPa)
#
#
# Indices 1 2 3 4 5 6 
#
# 1 103.7338 36.1930 37.5978 0.0000 0.0000 0.0000
# 2 36.1930 89.3035 33.7228 0.0000 0.0000 0.0000
# 3 37.5978 33.7228 81.8656 0.0000 0.0000 0.0000
# 4 0.0000 0.0000 0.0000 23.2580 0.0000 0.0000
# 5 0.0000 0.0000 0.0000 0.0000 13.6763 0.0000
# 6 0.0000 0.0000 0.0000 0.0000 0.0000 26.5224
#
#
#
# Elastic Compliance Matrix: (Units=1/GPa)
#
#
# Indices 1 2 3 4 5 6 
#
# 1 0.012379 -0.003399 -0.004285 0.000000 0.000000 0.000000
# 2 -0.003399 0.014194 -0.004286 0.000000 0.000000 0.000000
# 3 -0.004285 -0.004286 0.015949 0.000000 0.000000 0.000000
# 4 0.000000 0.000000 0.000000 0.042996 0.000000 0.000000
# 5 0.000000 0.000000 0.000000 0.000000 0.073119 0.000000
# 6 0.000000 0.000000 0.000000 0.000000 0.000000 0.037704
#
#
# Mechanical properties :
#
#
# Convention : Reuss Voigt Hill
#
# Bulk Modulus (GPa) = 53.81638 54.43667 54.12652
# Shear Modulus (GPa) = 22.07756 23.85061 22.96408
#
# Velocity S-wave (km/s) = 3.52228 3.66098 3.59230
# Velocity P-wave (km/s) = 6.83988 6.96139 6.90090
#
# Compressibility (1/GPa) = 0.01858170
#
# Stress axis : x y z
#
# Youngs Moduli (GPa) = 80.78169 70.45399 62.70141
#
# Poissons Ratio (x) = 0.23946 0.26869
# Poissons Ratio (y) = 0.27456 0.26873
# Poissons Ratio (z) = 0.34616 0.30195
#
# Static dielectric constant tensor:
#      x y z
#    x 3.728250 0.000000 0.000000 
#    y 0.000000 3.252670 0.000000 
#    z 0.000000 0.000000 3.209340 
# 
# 
# High freq. dielectric constant tensor:
#      x y z
#    x 1.713720 0.000000 0.000000 
#    y 0.000000 1.670130 0.000000 
#    z 0.000000 0.000000 1.654700 
# 
# From -- ./inp_files/33704.got.cif
#   From: 2010.03.12/outbox.cif.g09.slc.cpg/sg73_17_cif.got.tgz:33704.got - 2010.04.16 15:25:48.
