data_PCOD8295425
_publ_section_title
;
Structure prediction by ZEFSAII (Michael W. Deem and Ramdas Pophale) SiO2 
 PCOD8295425
Probable space group: I B A M
;
_chemical_formula_sum "Si O2"
_cell_formula_units_Z 64
_cell_length_a 20.652417
_cell_length_b 8.570445
_cell_length_c 15.999536
_cell_angle_alpha 90.000000
_cell_angle_beta 90.000000
_cell_angle_gamma 90.000000
_cell_volume 2831.924336
_symmetry_space_group_name_H-M "I B A M"
_symmetry_group_IT_number 72
_symmetry_cell_setting 'orthorhombic'
loop_
_space_group_symop_operation_xyz
x,y,z
-x,-y,z
x,-y,1/2-z
-x,y,1/2-z
-x,-y,-z
x,y,-z
-x,y,1/2+z
x,-y,1/2+z
1/2+x,1/2+y,1/2+z
1/2-x,1/2-y,1/2+z
1/2+x,1/2-y,-z
1/2-x,1/2+y,-z
1/2-x,1/2-y,1/2-z
1/2+x,1/2+y,1/2-z
1/2-x,1/2+y,z
1/2+x,1/2-y,z
loop_
_atom_site_type_symbol
_atom_site_label
_atom_site_fract_x
_atom_site_fract_y
_atom_site_fract_z
Si Si1 0.068334 0.439716 0.656657
Si Si2 0.939618 0.897478 0.595464
Si Si3 0.310354 0.107583 0.594686
Si Si4 0.816520 0.942217 0.842916
O O1 0.080194 0.500000 0.750000
O O2 0.067811 0.252280 0.654972
O O3 0.125156 0.503783 0.598316
O O4 0.000000 0.500000 0.621116
O O5 0.951443 0.843951 0.500000
O O6 0.874689 0.999397 0.598946
O O7 0.000000 0.000000 0.627922
O O8 0.300129 0.165814 0.500000
O O9 0.315379 0.254830 0.656138
O O10 0.251363 0.000776 0.622556
O O11 0.829291 0.000000 0.750000
#
# Coordination Sequence:
#
# PCOD8295425 Si02
#       4
#    16  16  16  16
#     4  11  24  43  66  96 132 172 217 267 325 389
#     4  11  24  43  68  98 133 173 219 271 328 390
#     4  12  24  41  66  95 130 170 217 270 326 388
#     4  12  25  43  66  94 129 170 217 269 329 392
#
# _framework density 22.599471999999999
#
# number of rings (size 3 to 8) (size 9 to 14) (size 15 to 20)
#    0.000    0.500    0.000    9.000    0.000    6.500 
#    0.000    0.000    0.000    0.000    0.000    0.000 
#    0.000    0.000    0.000    0.000    0.000    0.000 
#
# Total GULP energy -397115.644611 kJ/mol
# GULP energy per Si atom -12409.863894 kJ/mol
# Density = 2.254803 g / cm^3
# Si number density = 22.599472 Si / 1000 Ang^3
#
#
#
# Elastic Constant Matrix: (Units=GPa)
#
#
# Indices 1 2 3 4 5 6 
#
# 1 164.9973 65.9003 7.2286 0.0000 0.0000 0.0000
# 2 65.9003 164.8314 31.9700 0.0000 0.0000 0.0000
# 3 7.2286 31.9700 94.9857 0.0000 0.0000 0.0000
# 4 0.0000 0.0000 0.0000 -306.5310 0.0000 0.0000
# 5 0.0000 0.0000 0.0000 0.0000 -2.3699 0.0000
# 6 0.0000 0.0000 0.0000 0.0000 0.0000 42.3090
#
#
#
# Elastic Compliance Matrix: (Units=1/GPa)
#
#
# Indices 1 2 3 4 5 6 
#
# 1 0.007231 -0.002979 0.000452 0.000000 0.000000 0.000000
# 2 -0.002979 0.007717 -0.002371 0.000000 0.000000 0.000000
# 3 0.000452 -0.002371 0.011291 0.000000 0.000000 0.000000
# 4 0.000000 0.000000 0.000000 -0.003262 0.000000 0.000000
# 5 0.000000 0.000000 0.000000 0.000000 -0.421952 0.000000
# 6 0.000000 0.000000 0.000000 0.000000 0.000000 0.023636
#
#
# Mechanical properties :
#
#
# Convention : Reuss Voigt Hill
#
# Bulk Modulus (GPa) = 60.80803 70.55692 65.68248
# Shear Modulus (GPa) = -13.88645 -32.00402 -22.94523
#
# Velocity S-wave (km/s) = -2.48152 -3.76725 -3.18983
# Velocity P-wave (km/s) = 4.33067 3.51647 3.94463
#
# Compressibility (1/GPa) = 0.01644520
#
# Stress axis : x y z
#
# Youngs Moduli (GPa) = 138.30278 129.57628 88.56255
#
# Poissons Ratio (x) = 0.38594 -0.04005
# Poissons Ratio (y) = 0.41194 0.20997
# Poissons Ratio (z) = -0.06255 0.30721
#
# Static dielectric constant tensor:
#      x y z
#    x 4.301490 0.000000 0.000000 
#    y 0.000000 4.046320 0.000000 
#    z 0.000000 0.000000 3.896880 
# 
# 
# High freq. dielectric constant tensor:
#      x y z
#    x 1.912970 0.000000 0.000000 
#    y 0.000000 1.900610 0.000000 
#    z 0.000000 0.000000 1.889850 
# 
# From -- ./inp_files/24737.got.cif
#   From: 2010.03.12/outbox.cif.g09.slc.cpg/sg72_13_cif.got.tgz:24737.got - 2010.04.16 14:54:00.
