data_PCOD8295420
_publ_section_title
;
Structure prediction by ZEFSAII (Michael W. Deem and Ramdas Pophale) SiO2 
 PCOD8295420
Probable space group: I B A M
;
_chemical_formula_sum "Si O2"
_cell_formula_units_Z 68
_cell_length_a 15.123619
_cell_length_b 20.016555
_cell_length_c 10.242241
_cell_angle_alpha 90.000000
_cell_angle_beta 90.000000
_cell_angle_gamma 90.000000
_cell_volume 3100.559377
_symmetry_space_group_name_H-M "I B A M"
_symmetry_group_IT_number 72
_symmetry_cell_setting 'orthorhombic'
loop_
_space_group_symop_operation_xyz
x,y,z
-x,-y,z
x,-y,1/2-z
-x,y,1/2-z
-x,-y,-z
x,y,-z
-x,y,1/2+z
x,-y,1/2+z
1/2+x,1/2+y,1/2+z
1/2-x,1/2-y,1/2+z
1/2+x,1/2-y,-z
1/2-x,1/2+y,-z
1/2-x,1/2-y,1/2-z
1/2+x,1/2+y,1/2-z
1/2-x,1/2+y,z
1/2+x,1/2-y,z
loop_
_atom_site_type_symbol
_atom_site_label
_atom_site_fract_x
_atom_site_fract_y
_atom_site_fract_z
Si Si1 0.427810 0.758212 0.648855
Si Si2 0.000000 0.000000 0.750000
Si Si3 0.912012 0.406382 0.500000
Si Si4 0.313969 0.130002 0.238682
Si Si5 0.628675 0.389339 0.353468
Si Si6 0.395752 0.937369 0.500000
O O1 0.500000 0.787020 0.750000
O O2 0.455747 0.773842 0.500000
O O3 0.334610 0.795449 0.682015
O O4 0.423522 0.679057 0.668221
O O5 0.063607 0.047766 0.665618
O O6 0.866068 0.376620 0.626705
O O7 0.911221 0.485208 0.500000
O O8 0.016837 0.390327 0.500000
O O9 0.210666 0.113916 0.254850
O O10 0.342915 0.076426 0.132018
O O11 0.666583 0.393835 0.500000
#
# Coordination Sequence:
#
# PCOD8295420 Si02
#       6
#    16   4   8  16  16   8
#     4  11  24  46  71 106 144 190 243 297 363 427
#     4  12  26  52  76 106 142 194 234 312 370 422
#     4  11  24  42  67  96 148 184 235 293 364 428
#     4  12  24  43  71 103 141 189 237 301 355 431
#     4  11  26  48  72 104 141 186 247 298 363 430
#     4  11  24  42  63 106 138 188 237 287 362 440
#
# _framework density 21.931526999999999
#
# number of rings (size 3 to 8) (size 9 to 14) (size 15 to 20)
#    0.000    0.706    3.529    3.882    4.941    1.882 
#    4.235    0.000    0.000    0.000    0.000    0.000 
#    0.000    0.000    0.000    0.000    0.000    0.000 
#
# Total GULP energy -421519.619122 kJ/mol
# GULP energy per Si atom -12397.635857 kJ/mol
# Density = 2.188161 g / cm^3
# Si number density = 21.931527 Si / 1000 Ang^3
#
#
#
# Elastic Constant Matrix: (Units=GPa)
#
#
# Indices 1 2 3 4 5 6 
#
# 1 122.1847 34.5425 61.6209 0.0000 0.0000 0.0000
# 2 34.5425 115.1566 18.4461 0.0000 0.0000 0.0000
# 3 61.6209 18.4461 154.0262 0.0000 0.0000 0.0000
# 4 0.0000 0.0000 0.0000 41.4072 0.0000 0.0000
# 5 0.0000 0.0000 0.0000 0.0000 43.6614 0.0000
# 6 0.0000 0.0000 0.0000 0.0000 0.0000 31.4331
#
#
#
# Elastic Compliance Matrix: (Units=1/GPa)
#
#
# Indices 1 2 3 4 5 6 
#
# 1 0.010989 -0.002643 -0.004080 0.000000 0.000000 0.000000
# 2 -0.002643 0.009489 -0.000079 0.000000 0.000000 0.000000
# 3 -0.004080 -0.000079 0.008134 0.000000 0.000000 0.000000
# 4 0.000000 0.000000 0.000000 0.024150 0.000000 0.000000
# 5 0.000000 0.000000 0.000000 0.000000 0.022904 0.000000
# 6 0.000000 0.000000 0.000000 0.000000 0.000000 0.031814
#
#
# Mechanical properties :
#
#
# Convention : Reuss Voigt Hill
#
# Bulk Modulus (GPa) = 66.62741 68.95405 67.79073
# Shear Modulus (GPa) = 39.65537 41.75089 40.70313
#
# Velocity S-wave (km/s) = 4.25684 4.36787 4.31271
# Velocity P-wave (km/s) = 7.38963 7.54629 7.46837
#
# Compressibility (1/GPa) = 0.01500884
#
# Stress axis : x y z
#
# Youngs Moduli (GPa) = 90.99976 105.38266 122.93923
#
# Poissons Ratio (x) = 0.27850 0.50158
# Poissons Ratio (y) = 0.24049 0.00973
# Poissons Ratio (z) = 0.37127 0.00834
#
# Static dielectric constant tensor:
#      x y z
#    x 3.946010 0.000000 0.000000 
#    y 0.000000 3.999950 0.000000 
#    z 0.000000 0.000000 4.100560 
# 
# 
# High freq. dielectric constant tensor:
#      x y z
#    x 1.853400 0.000000 0.000000 
#    y 0.000000 1.881130 0.000000 
#    z 0.000000 0.000000 1.873010 
# 
# From -- ./inp_files/4445.got.cif
#   From: 2010.03.12/outbox.cif.g09.slc.cpg/sg72_3_cif.got.tgz:4445.got - 2010.04.16 14:54:00.
