data_PCOD8295845
_publ_section_title
;
Structure prediction by ZEFSAII (Michael W. Deem and Ramdas Pophale) SiO2 
 PCOD8295845
Probable space group: I B C A 
;
_chemical_formula_sum "Si O2"
_cell_formula_units_Z 96
_cell_length_a 14.448711
_cell_length_b 18.571909
_cell_length_c 17.176033
_cell_angle_alpha 90.000000
_cell_angle_beta 90.000000
_cell_angle_gamma 90.000000
_cell_volume 4609.019201
_symmetry_space_group_name_H-M "I B C A "
_symmetry_group_IT_number 73
_symmetry_cell_setting 'orthorhombic'
loop_
_space_group_symop_operation_xyz
x,y,z
-x,1/2-y,z
x,-y,1/2-z
1/2-x,y,-z
-x,-y,-z
x,1/2+y,-z
-x,y,1/2+z
1/2+x,-y,z
1/2+x,1/2+y,1/2+z
1/2-x,-y,1/2+z
1/2+x,1/2-y,-z
-x,1/2+y,1/2-z
1/2-x,1/2-y,1/2-z
1/2+x,y,1/2-z
1/2-x,1/2+y,z
x,1/2-y,1/2+z
loop_
_atom_site_type_symbol
_atom_site_label
_atom_site_fract_x
_atom_site_fract_y
_atom_site_fract_z
Si Si1 0.233926 0.981794 0.164539
Si Si2 0.513699 0.831255 0.694702
Si Si3 0.059877 0.046326 0.097729
Si Si4 0.837732 0.662159 0.211341
Si Si5 0.330358 0.322079 0.687665
Si Si6 0.892484 0.446717 0.922570
O O1 0.200054 0.899611 0.153963
O O2 0.275434 0.000000 0.250000
O O3 0.144752 0.033356 0.156037
O O4 0.313311 0.996193 0.101307
O O5 0.500000 0.750000 0.664215
O O6 0.501220 0.884833 0.622354
O O7 0.442402 0.852500 0.762962
O O8 0.614750 0.839778 0.732326
O O9 0.107219 0.062335 0.014980
O O10 0.993601 0.976398 0.100507
O O11 0.776333 0.662925 0.290883
O O12 0.837707 0.737969 0.164834
O O13 0.368682 0.370119 0.617007
#
# Coordination Sequence:
#
# PCOD8295845 Si02
#       6
#    16  16  16  16  16  16
#     4  12  21  36  64  91 118 162 208 252 303 362
#     4  10  20  36  58  85 116 155 200 252 296 358
#     4  11  24  39  58  88 128 160 203 251 308 375
#     4  10  20  34  57  93 112 149 206 251 295 350
#     4  10  20  36  59  85 121 150 205 252 296 361
#     4  11  24  39  58  90 123 165 197 254 313 368
#
# _framework density 20.828727000000001
#
# number of rings (size 3 to 8) (size 9 to 14) (size 15 to 20)
#    0.000    1.333    3.333    2.500    0.000    0.000 
#    0.000    5.833    0.000    6.000    0.000    0.000 
#    0.000    0.000    0.000    0.000    0.000    0.000 
#
# Total GULP energy -595198.587061 kJ/mol
# GULP energy per Si atom -12399.970564 kJ/mol
# Density = 2.078132 g / cm^3
# Si number density = 20.828727 Si / 1000 Ang^3
#
#
#
# Elastic Constant Matrix: (Units=GPa)
#
#
# Indices 1 2 3 4 5 6 
#
# 1 72.5060 25.3188 20.7845 0.0000 0.0000 0.0000
# 2 25.3188 147.0107 60.7371 0.0000 0.0000 0.0000
# 3 20.7845 60.7371 72.7076 0.0000 0.0000 0.0000
# 4 0.0000 0.0000 0.0000 28.7881 0.0000 0.0000
# 5 0.0000 0.0000 0.0000 0.0000 34.7970 0.0000
# 6 0.0000 0.0000 0.0000 0.0000 0.0000 35.1975
#
#
#
# Elastic Compliance Matrix: (Units=1/GPa)
#
#
# Indices 1 2 3 4 5 6 
#
# 1 0.015173 -0.001254 -0.003290 0.000000 0.000000 0.000000
# 2 -0.001254 0.010491 -0.008405 0.000000 0.000000 0.000000
# 3 -0.003290 -0.008405 0.021715 0.000000 0.000000 0.000000
# 4 0.000000 0.000000 0.000000 0.034737 0.000000 0.000000
# 5 0.000000 0.000000 0.000000 0.000000 0.028738 0.000000
# 6 0.000000 0.000000 0.000000 0.000000 0.000000 0.028411
#
#
# Mechanical properties :
#
#
# Convention : Reuss Voigt Hill
#
# Bulk Modulus (GPa) = 46.55225 56.21169 51.38197
# Shear Modulus (GPa) = 29.01526 32.11546 30.56536
#
# Velocity S-wave (km/s) = 3.73640 3.93094 3.83490
# Velocity P-wave (km/s) = 6.40412 6.90284 6.65815
#
# Compressibility (1/GPa) = 0.02148124
#
# Stress axis : x y z
#
# Youngs Moduli (GPa) = 65.90692 95.32236 46.05015
#
# Poissons Ratio (x) = 0.11953 0.15150
# Poissons Ratio (y) = 0.08264 0.38706
# Poissons Ratio (z) = 0.21683 0.80119
#
# Static dielectric constant tensor:
#      x y z
#    x 3.936430 0.000000 0.000000 
#    y 0.000000 4.000360 0.000000 
#    z 0.000000 0.000000 3.285230 
# 
# 
# High freq. dielectric constant tensor:
#      x y z
#    x 1.836810 0.000000 0.000000 
#    y 0.000000 1.828160 0.000000 
#    z 0.000000 0.000000 1.768100 
# 
# From -- ./inp_files/17068.got.cif
#   From: 2010.03.12/outbox.cif.g09.slc.cpg/sg73_9_cif.got.tgz:17068.got - 2010.04.16 15:25:48.
