data_PCOD8295780
_publ_section_title
;
Structure prediction by ZEFSAII (Michael W. Deem and Ramdas Pophale) SiO2 
 PCOD8295780
Probable space group: I B C A 
;
_chemical_formula_sum "Si O2"
_cell_formula_units_Z 104
_cell_length_a 18.317798
_cell_length_b 12.390442
_cell_length_c 23.729096
_cell_angle_alpha 90.000000
_cell_angle_beta 90.000000
_cell_angle_gamma 90.000000
_cell_volume 5385.688836
_symmetry_space_group_name_H-M "I B C A "
_symmetry_group_IT_number 73
_symmetry_cell_setting 'orthorhombic'
loop_
_space_group_symop_operation_xyz
x,y,z
-x,1/2-y,z
x,-y,1/2-z
1/2-x,y,-z
-x,-y,-z
x,1/2+y,-z
-x,y,1/2+z
1/2+x,-y,z
1/2+x,1/2+y,1/2+z
1/2-x,-y,1/2+z
1/2+x,1/2-y,-z
-x,1/2+y,1/2-z
1/2-x,1/2-y,1/2-z
1/2+x,y,1/2-z
1/2-x,1/2+y,z
x,1/2-y,1/2+z
loop_
_atom_site_type_symbol
_atom_site_label
_atom_site_fract_x
_atom_site_fract_y
_atom_site_fract_z
Si Si1 0.871723 0.500000 0.250000
Si Si2 0.178523 0.196503 0.899652
Si Si3 0.186605 0.429570 0.639125
Si Si4 0.748373 0.396243 0.438704
Si Si5 0.895966 0.986530 0.451475
Si Si6 0.057005 0.503419 0.922071
Si Si7 0.933350 0.674811 0.167098
O O1 0.818943 0.559361 0.293948
O O2 0.919758 0.590641 0.217981
O O3 0.254627 0.160163 0.872578
O O4 0.209124 0.283056 0.944967
O O5 0.131617 0.105096 0.931128
O O6 0.134528 0.247241 0.847376
O O7 0.210589 0.542560 0.611222
O O8 0.105103 0.409397 0.613371
O O9 0.750000 0.456016 0.500000
O O10 0.660624 0.396940 0.426789
O O11 0.901495 0.984458 0.519035
O O12 0.974980 0.952614 0.428062
O O13 0.049352 0.389053 0.890390
O O14 0.000000 0.750000 0.185869
#
# Coordination Sequence:
#
# PCOD8295780 Si02
#       7
#     8  16  16  16  16  16  16
#     4  10  22  44  64  82 126 162 212 278 306 362
#     4  11  22  35  64  91 123 160 210 252 319 396
#     4  10  22  39  60  88 118 163 202 268 310 368
#     4  11  20  36  56  91 127 162 202 253 316 386
#     4  10  21  34  58  89 125 163 199 257 310 383
#     4  10  19  39  57  85 129 159 207 256 308 375
#     4  11  21  42  64  93 119 170 220 255 322 392
#
# _framework density 19.310434999999998
#
# number of rings (size 3 to 8) (size 9 to 14) (size 15 to 20)
#    0.000    1.538    6.154    0.000    2.154    0.615 
#    0.000    4.615    0.000    0.000    0.000    0.000 
#    0.000    0.000    0.000    0.000    0.000    0.000 
#
# Total GULP energy -644248.982560 kJ/mol
# GULP energy per Si atom -12389.403511 kJ/mol
# Density = 1.926648 g / cm^3
# Si number density = 19.310435 Si / 1000 Ang^3
#
#
#
# Elastic Constant Matrix: (Units=GPa)
#
#
# Indices 1 2 3 4 5 6 
#
# 1 111.7996 33.9827 44.5102 0.0000 0.0000 0.0000
# 2 33.9827 67.2511 35.4016 0.0000 0.0000 0.0000
# 3 44.5102 35.4016 122.3546 0.0000 0.0000 0.0000
# 4 0.0000 0.0000 0.0000 28.7146 0.0000 0.0000
# 5 0.0000 0.0000 0.0000 0.0000 20.8105 0.0000
# 6 0.0000 0.0000 0.0000 0.0000 0.0000 36.7403
#
#
#
# Elastic Compliance Matrix: (Units=1/GPa)
#
#
# Indices 1 2 3 4 5 6 
#
# 1 0.011390 -0.004217 -0.002924 0.000000 0.000000 0.000000
# 2 -0.004217 0.019102 -0.003993 0.000000 0.000000 0.000000
# 3 -0.002924 -0.003993 0.010392 0.000000 0.000000 0.000000
# 4 0.000000 0.000000 0.000000 0.034826 0.000000 0.000000
# 5 0.000000 0.000000 0.000000 0.000000 0.048053 0.000000
# 6 0.000000 0.000000 0.000000 0.000000 0.000000 0.027218
#
#
# Mechanical properties :
#
#
# Convention : Reuss Voigt Hill
#
# Bulk Modulus (GPa) = 53.71160 58.79935 56.25548
# Shear Modulus (GPa) = 27.86244 29.75379 28.80811
#
# Velocity S-wave (km/s) = 3.80263 3.92958 3.86663
# Velocity P-wave (km/s) = 6.86697 7.14873 7.00927
#
# Compressibility (1/GPa) = 0.01861795
#
# Stress axis : x y z
#
# Youngs Moduli (GPa) = 87.79491 52.34959 96.22956
#
# Poissons Ratio (x) = 0.22074 0.28133
# Poissons Ratio (y) = 0.37020 0.38425
# Poissons Ratio (z) = 0.25667 0.20904
#
# Static dielectric constant tensor:
#      x y z
#    x 3.926260 0.000000 0.000000 
#    y 0.000000 3.366510 0.000000 
#    z 0.000000 0.000000 3.392590 
# 
# 
# High freq. dielectric constant tensor:
#      x y z
#    x 1.776330 0.000000 0.000000 
#    y 0.000000 1.727730 0.000000 
#    z 0.000000 0.000000 1.738080 
# 
# From -- ./inp_files/32396.got.cif
#   From: 2010.03.12/outbox.cif.g09.slc.cpg/sg73_17_cif.got.tgz:32396.got - 2010.04.16 15:25:48.
