data_PCOD8295843
_publ_section_title
;
Structure prediction by ZEFSAII (Michael W. Deem and Ramdas Pophale) SiO2 
 PCOD8295843
Probable space group: I B C A 
;
_chemical_formula_sum "Si O2"
_cell_formula_units_Z 80
_cell_length_a 33.195932
_cell_length_b 4.950440
_cell_length_c 24.347493
_cell_angle_alpha 90.000000
_cell_angle_beta 90.000000
_cell_angle_gamma 90.000000
_cell_volume 4001.132348
_symmetry_space_group_name_H-M "I B C A "
_symmetry_group_IT_number 73
_symmetry_cell_setting 'orthorhombic'
loop_
_space_group_symop_operation_xyz
x,y,z
-x,1/2-y,z
x,-y,1/2-z
1/2-x,y,-z
-x,-y,-z
x,1/2+y,-z
-x,y,1/2+z
1/2+x,-y,z
1/2+x,1/2+y,1/2+z
1/2-x,-y,1/2+z
1/2+x,1/2-y,-z
-x,1/2+y,1/2-z
1/2-x,1/2-y,1/2-z
1/2+x,y,1/2-z
1/2-x,1/2+y,z
x,1/2-y,1/2+z
loop_
_atom_site_type_symbol
_atom_site_label
_atom_site_fract_x
_atom_site_fract_y
_atom_site_fract_z
Si Si1 0.614133 0.007331 0.646605
Si Si2 0.850827 0.228875 0.465234
Si Si3 0.777213 0.251927 0.395228
Si Si4 0.842147 0.029305 0.811862
Si Si5 0.972762 0.502643 0.813692
O O1 0.624207 0.130646 0.587156
O O2 0.622458 0.247124 0.690310
O O3 0.566752 0.955116 0.649309
O O4 0.641501 0.744938 0.659884
O O5 0.861813 0.530528 0.484430
O O6 0.803208 0.249803 0.451152
O O7 0.738837 0.446724 0.392487
O O8 0.805706 0.335141 0.344939
O O9 0.826582 0.000000 0.750000
O O10 0.959873 0.500000 0.750000
O O11 0.000000 0.250000 0.830365
O O12 0.000000 0.750000 0.829012
#
# Coordination Sequence:
#
# PCOD8295843 Si02
#       5
#    16  16  16  16  16
#     4  11  22  39  60  86 120 154 199 246 287 351
#     4  11  23  40  61  82 107 149 198 245 296 340
#     4  11  23  38  56  84 115 144 189 242 292 347
#     4  11  22  37  59  85 118 161 197 232 289 359
#     4  10  20  34  57  89 121 153 187 230 290 351
#
# _framework density 19.994339
#
# number of rings (size 3 to 8) (size 9 to 14) (size 15 to 20)
#    0.000    1.200    0.000    9.000    0.000    4.800 
#    0.000    0.000    0.000    3.600    0.000    0.000 
#    0.000    0.000    0.000    0.000    0.000    0.000 
#
# Total GULP energy -495794.833399 kJ/mol
# GULP energy per Si atom -12394.870835 kJ/mol
# Density = 1.994883 g / cm^3
# Si number density = 19.994339 Si / 1000 Ang^3
#
#
#
# Elastic Constant Matrix: (Units=GPa)
#
#
# Indices 1 2 3 4 5 6 
#
# 1 101.8485 31.4751 33.6593 0.0000 0.0000 0.0000
# 2 31.4751 118.3515 29.5351 0.0000 0.0000 0.0000
# 3 33.6593 29.5351 78.9361 0.0000 0.0000 0.0000
# 4 0.0000 0.0000 0.0000 34.9352 0.0000 0.0000
# 5 0.0000 0.0000 0.0000 0.0000 26.4938 0.0000
# 6 0.0000 0.0000 0.0000 0.0000 0.0000 70.9229
#
#
#
# Elastic Compliance Matrix: (Units=1/GPa)
#
#
# Indices 1 2 3 4 5 6 
#
# 1 0.011880 -0.002090 -0.004284 0.000000 0.000000 0.000000
# 2 -0.002090 0.009687 -0.002733 0.000000 0.000000 0.000000
# 3 -0.004284 -0.002733 0.015518 0.000000 0.000000 0.000000
# 4 0.000000 0.000000 0.000000 0.028624 0.000000 0.000000
# 5 0.000000 0.000000 0.000000 0.000000 0.037745 0.000000
# 6 0.000000 0.000000 0.000000 0.000000 0.000000 0.014100
#
#
# Mechanical properties :
#
#
# Convention : Reuss Voigt Hill
#
# Bulk Modulus (GPa) = 52.99263 54.27501 53.63382
# Shear Modulus (GPa) = 35.19651 40.10149 37.64900
#
# Velocity S-wave (km/s) = 4.20017 4.48330 4.34404
# Velocity P-wave (km/s) = 7.07695 7.34875 7.21413
#
# Compressibility (1/GPa) = 0.01887055
#
# Stress axis : x y z
#
# Youngs Moduli (GPa) = 84.17340 103.22606 64.44213
#
# Poissons Ratio (x) = 0.21579 0.27605
# Poissons Ratio (y) = 0.17596 0.17614
# Poissons Ratio (z) = 0.36057 0.28215
#
# Static dielectric constant tensor:
#      x y z
#    x 3.551730 0.000000 0.000000 
#    y 0.000000 4.029070 0.000000 
#    z 0.000000 0.000000 3.468170 
# 
# 
# High freq. dielectric constant tensor:
#      x y z
#    x 1.770760 0.000000 0.000000 
#    y 0.000000 1.808160 0.000000 
#    z 0.000000 0.000000 1.766960 
# 
# From -- ./inp_files/28056.got.cif
#   From: 2010.03.12/outbox.cif.g09.slc.cpg/sg73_15_cif.got.tgz:28056.got - 2010.04.16 15:25:48.
