data_PCOD8295915
_publ_section_title
;
Structure prediction by ZEFSAII (Michael W. Deem and Ramdas Pophale) SiO2 
 PCOD8295915
Probable space group: I B C A 
;
_chemical_formula_sum "Si O2"
_cell_formula_units_Z 120
_cell_length_a 22.221558
_cell_length_b 9.185951
_cell_length_c 28.410136
_cell_angle_alpha 90.000000
_cell_angle_beta 90.000000
_cell_angle_gamma 90.000000
_cell_volume 5799.251482
_symmetry_space_group_name_H-M "I B C A "
_symmetry_group_IT_number 73
_symmetry_cell_setting 'orthorhombic'
loop_
_space_group_symop_operation_xyz
x,y,z
-x,1/2-y,z
x,-y,1/2-z
1/2-x,y,-z
-x,-y,-z
x,1/2+y,-z
-x,y,1/2+z
1/2+x,-y,z
1/2+x,1/2+y,1/2+z
1/2-x,-y,1/2+z
1/2+x,1/2-y,-z
-x,1/2+y,1/2-z
1/2-x,1/2-y,1/2-z
1/2+x,y,1/2-z
1/2-x,1/2+y,z
x,1/2-y,1/2+z
loop_
_atom_site_type_symbol
_atom_site_label
_atom_site_fract_x
_atom_site_fract_y
_atom_site_fract_z
Si Si1 0.102929 0.247281 0.588631
Si Si2 0.670731 0.401788 0.991804
Si Si3 0.102817 0.056700 0.372582
Si Si4 0.000000 0.750000 0.106002
Si Si5 0.292144 0.331244 0.852622
Si Si6 0.950061 0.493493 0.960198
Si Si7 0.205896 0.531277 0.804465
Si Si8 0.701925 0.834116 0.437492
O O1 0.148712 0.287239 0.546996
O O2 0.078441 0.397200 0.611657
O O3 0.140208 0.153017 0.627521
O O4 0.049280 0.145149 0.569458
O O5 0.715489 0.522025 0.968745
O O6 0.614655 0.482504 0.015837
O O7 0.706324 0.310862 0.031293
O O8 0.045104 0.157174 0.360547
O O9 0.135596 0.135310 0.416339
O O10 0.148499 0.045356 0.329030
O O11 0.038069 0.642127 0.073373
O O12 0.269433 0.470877 0.824077
O O13 0.291422 0.200680 0.815192
O O14 0.249045 0.303984 0.896673
O O15 0.000000 0.500000 0.000000
O O16 0.199179 0.500000 0.750000
#
# Coordination Sequence:
#
# PCOD8295915 Si02
#       8
#    16  16  16   8  16  16  16  16
#     4  10  22  39  51  81 121 163 204 250 295 351
#     4  11  20  36  50  78 116 166 212 244 284 326
#     4   9  21  39  58  86 117 148 197 252 310 363
#     4  12  22  36  60  82 112 160 202 258 310 344
#     4  10  23  39  61  89 123 156 197 244 311 370
#     4  12  23  36  54  78 116 166 221 260 281 334
#     4  10  21  41  69  93 118 150 191 253 319 393
#     4  10  20  37  52  81 122 159 206 246 283 343
#
# _framework density 20.692325
#
# number of rings (size 3 to 8) (size 9 to 14) (size 15 to 20)
#    0.000    1.600    2.667    3.600    1.867    2.133 
#    2.400    0.000    0.000    3.200    0.000    0.933 
#    0.000    0.000    0.000    0.000    0.000    0.000 
#
# Total GULP energy -743878.462963 kJ/mol
# GULP energy per Si atom -12397.974383 kJ/mol
# Density = 2.064523 g / cm^3
# Si number density = 20.692325 Si / 1000 Ang^3
#
#
#
# Elastic Constant Matrix: (Units=GPa)
#
#
# Indices 1 2 3 4 5 6 
#
# 1 57.9996 36.9522 19.7132 0.0000 0.0000 0.0000
# 2 36.9522 83.0725 39.3812 0.0000 0.0000 0.0000
# 3 19.7132 39.3812 92.1041 0.0000 0.0000 0.0000
# 4 0.0000 0.0000 0.0000 27.1775 0.0000 0.0000
# 5 0.0000 0.0000 0.0000 0.0000 18.9863 0.0000
# 6 0.0000 0.0000 0.0000 0.0000 0.0000 37.8575
#
#
#
# Elastic Compliance Matrix: (Units=1/GPa)
#
#
# Indices 1 2 3 4 5 6 
#
# 1 0.024098 -0.010378 -0.000721 0.000000 0.000000 0.000000
# 2 -0.010378 0.019567 -0.006145 0.000000 0.000000 0.000000
# 3 -0.000721 -0.006145 0.013639 0.000000 0.000000 0.000000
# 4 0.000000 0.000000 0.000000 0.036795 0.000000 0.000000
# 5 0.000000 0.000000 0.000000 0.000000 0.052670 0.000000
# 6 0.000000 0.000000 0.000000 0.000000 0.000000 0.026415
#
#
# Mechanical properties :
#
#
# Convention : Reuss Voigt Hill
#
# Bulk Modulus (GPa) = 43.82634 47.25217 45.53925
# Shear Modulus (GPa) = 23.22595 25.94623 24.58609
#
# Velocity S-wave (km/s) = 3.35392 3.54489 3.45073
# Velocity P-wave (km/s) = 6.01867 6.29605 6.15892
#
# Compressibility (1/GPa) = 0.02281733
#
# Stress axis : x y z
#
# Youngs Moduli (GPa) = 41.49696 51.10626 73.31905
#
# Poissons Ratio (x) = 0.53037 0.05283
# Poissons Ratio (y) = 0.43064 0.45056
# Poissons Ratio (z) = 0.02990 0.31406
#
# Static dielectric constant tensor:
#      x y z
#    x 3.649560 0.000000 0.000000 
#    y 0.000000 3.916070 0.000000 
#    z 0.000000 0.000000 3.533180 
# 
# 
# High freq. dielectric constant tensor:
#      x y z
#    x 1.806030 0.000000 0.000000 
#    y 0.000000 1.824810 0.000000 
#    z 0.000000 0.000000 1.774360 
# 
# From -- ./inp_files/32902.got.cif
#   From: 2010.03.12/outbox.cif.g09.slc.cpg/sg73_17_cif.got.tgz:32902.got - 2010.04.16 15:25:48.
