data_PCOD8295601
_publ_section_title
;
Structure prediction by ZEFSAII (Michael W. Deem and Ramdas Pophale) SiO2 
 PCOD8295601
Probable space group: I B C A 
;
_chemical_formula_sum "Si O2"
_cell_formula_units_Z 104
_cell_length_a 20.421535
_cell_length_b 10.349647
_cell_length_c 27.729041
_cell_angle_alpha 90.000000
_cell_angle_beta 90.000000
_cell_angle_gamma 90.000000
_cell_volume 5860.690273
_symmetry_space_group_name_H-M "I B C A "
_symmetry_group_IT_number 73
_symmetry_cell_setting 'orthorhombic'
loop_
_space_group_symop_operation_xyz
x,y,z
-x,1/2-y,z
x,-y,1/2-z
1/2-x,y,-z
-x,-y,-z
x,1/2+y,-z
-x,y,1/2+z
1/2+x,-y,z
1/2+x,1/2+y,1/2+z
1/2-x,-y,1/2+z
1/2+x,1/2-y,-z
-x,1/2+y,1/2-z
1/2-x,1/2-y,1/2-z
1/2+x,y,1/2-z
1/2-x,1/2+y,z
x,1/2-y,1/2+z
loop_
_atom_site_type_symbol
_atom_site_label
_atom_site_fract_x
_atom_site_fract_y
_atom_site_fract_z
Si Si1 0.000000 0.750000 0.269540
Si Si2 0.830905 0.350747 0.390311
Si Si3 0.070306 0.262390 0.322949
Si Si4 0.826631 0.897359 0.051075
Si Si5 0.171666 0.393470 0.556504
Si Si6 0.676352 0.641201 0.113964
Si Si7 0.906218 0.454915 0.697228
O O1 0.938341 0.720192 0.233671
O O2 0.975508 0.874356 0.300401
O O3 0.872814 0.331488 0.341876
O O4 0.851658 0.233485 0.424742
O O5 0.854007 0.482542 0.414876
O O6 0.754178 0.353397 0.378252
O O7 0.086661 0.412460 0.331701
O O8 0.000000 0.250000 0.349946
O O9 0.748847 0.896014 0.049820
O O10 0.848189 0.022941 0.080963
O O11 0.857934 0.898103 0.997492
O O12 0.149927 0.268216 0.586730
O O13 0.645748 0.631947 0.167643
O O14 0.880684 0.500000 0.750000
#
# Coordination Sequence:
#
# PCOD8295601 Si02
#       7
#     8  16  16  16  16  16  16
#     4   8  20  36  58  76  90 138 204 222 262 334
#     4  10  18  32  54  81 115 143 184 221 281 335
#     4   9  19  35  58  74 100 145 188 225 272 326
#     4   9  16  31  51  76 117 151 177 218 277 332
#     4   9  18  28  49  86 113 142 185 223 262 336
#     4  10  19  31  55  85 115 145 177 228 288 324
#     4  10  19  38  58  78 109 143 186 237 280 327
#
# _framework density 17.745349999999998
#
# number of rings (size 3 to 8) (size 9 to 14) (size 15 to 20)
#    0.462    2.154    1.538    0.923    0.000    4.923 
#    0.000    3.077    3.385    0.923    4.000    0.000 
#    0.000    0.000    0.000    0.000    0.000    0.000 
#
# Total GULP energy -644190.011440 kJ/mol
# GULP energy per Si atom -12388.269451 kJ/mol
# Density = 1.770496 g / cm^3
# Si number density = 17.745350 Si / 1000 Ang^3
#
#
#
# Elastic Constant Matrix: (Units=GPa)
#
#
# Indices 1 2 3 4 5 6 
#
# 1 48.5361 33.4525 37.0397 0.0000 0.0000 0.0000
# 2 33.4525 143.3772 63.0492 0.0000 0.0000 0.0000
# 3 37.0397 63.0492 97.9722 0.0000 0.0000 0.0000
# 4 0.0000 0.0000 0.0000 32.0382 0.0000 0.0000
# 5 0.0000 0.0000 0.0000 0.0000 13.1210 0.0000
# 6 0.0000 0.0000 0.0000 0.0000 0.0000 21.6650
#
#
#
# Elastic Compliance Matrix: (Units=1/GPa)
#
#
# Indices 1 2 3 4 5 6 
#
# 1 0.029732 -0.002781 -0.009451 0.000000 0.000000 0.000000
# 2 -0.002781 0.009988 -0.005376 0.000000 0.000000 0.000000
# 3 -0.009451 -0.005376 0.017240 0.000000 0.000000 0.000000
# 4 0.000000 0.000000 0.000000 0.031213 0.000000 0.000000
# 5 0.000000 0.000000 0.000000 0.000000 0.076214 0.000000
# 6 0.000000 0.000000 0.000000 0.000000 0.000000 0.046157
#
#
# Mechanical properties :
#
#
# Convention : Reuss Voigt Hill
#
# Bulk Modulus (GPa) = 45.99059 61.88536 53.93798
# Shear Modulus (GPa) = 19.76226 23.78777 21.77502
#
# Velocity S-wave (km/s) = 3.34077 3.66527 3.50677
# Velocity P-wave (km/s) = 6.39173 7.27063 6.84530
#
# Compressibility (1/GPa) = 0.02174358
#
# Stress axis : x y z
#
# Youngs Moduli (GPa) = 33.63329 100.12473 58.00566
#
# Poissons Ratio (x) = 0.27846 0.54821
# Poissons Ratio (y) = 0.09354 0.31184
# Poissons Ratio (z) = 0.31787 0.53827
#
# Static dielectric constant tensor:
#      x y z
#    x 2.894600 0.000000 0.000000 
#    y 0.000000 3.462350 0.000000 
#    z 0.000000 0.000000 3.294090 
# 
# 
# High freq. dielectric constant tensor:
#      x y z
#    x 1.636460 0.000000 0.000000 
#    y 0.000000 1.700530 0.000000 
#    z 0.000000 0.000000 1.681750 
# 
# From -- ./inp_files/34788.got.cif
#   From: 2010.03.12/outbox.cif.g09.slc.cpg/sg73_18_cif.got.tgz:34788.got - 2010.04.16 15:25:48.
