data_PCOD8295373
_publ_section_title
;
Structure prediction by ZEFSAII (Michael W. Deem and Ramdas Pophale) SiO2 
 PCOD8295373
Probable space group: I B A M
;
_chemical_formula_sum "Si O2"
_cell_formula_units_Z 104
_cell_length_a 8.655902
_cell_length_b 23.909669
_cell_length_c 23.748832
_cell_angle_alpha 90.000000
_cell_angle_beta 90.000000
_cell_angle_gamma 90.000000
_cell_volume 4915.052374
_symmetry_space_group_name_H-M "I B A M"
_symmetry_group_IT_number 72
_symmetry_cell_setting 'orthorhombic'
loop_
_space_group_symop_operation_xyz
x,y,z
-x,-y,z
x,-y,1/2-z
-x,y,1/2-z
-x,-y,-z
x,y,-z
-x,y,1/2+z
x,-y,1/2+z
1/2+x,1/2+y,1/2+z
1/2-x,1/2-y,1/2+z
1/2+x,1/2-y,-z
1/2-x,1/2+y,-z
1/2-x,1/2-y,1/2-z
1/2+x,1/2+y,1/2-z
1/2-x,1/2+y,z
1/2+x,1/2-y,z
loop_
_atom_site_type_symbol
_atom_site_label
_atom_site_fract_x
_atom_site_fract_y
_atom_site_fract_z
Si Si1 0.998937 0.736919 0.500000
Si Si2 0.429577 0.669716 0.808002
Si Si3 0.016597 0.564152 0.396875
Si Si4 0.332785 0.624449 0.385374
Si Si5 0.492157 0.634579 0.500000
Si Si6 0.851859 0.374639 0.000000
Si Si7 0.592415 0.136114 0.307314
Si Si8 0.605606 0.780578 0.377858
O O1 0.948678 0.800494 0.500000
O O2 0.096750 0.724909 0.555384
O O3 0.856288 0.693100 0.500000
O O4 0.500000 0.693404 0.750000
O O5 0.535739 0.621386 0.836891
O O6 0.269618 0.641458 0.791309
O O7 0.390398 0.719786 0.850473
O O8 0.194783 0.579704 0.383365
O O9 0.000000 0.500000 0.414110
O O10 0.941771 0.601289 0.446126
O O11 0.926714 0.576588 0.338774
O O12 0.412486 0.610801 0.444549
O O13 0.268552 0.687128 0.372412
O O14 0.669427 0.613289 0.500000
O O15 0.500000 0.138889 0.250000
O O16 0.533393 0.184079 0.350296
#
# Coordination Sequence:
#
# PCOD8295373 Si02
#       8
#     8  16  16  16   8   8  16  16
#     4  12  23  37  64  95 140 168 206 241 311 385
#     4  12  24  39  61  95 135 169 209 261 317 378
#     4  11  25  47  71  89 118 166 218 268 325 388
#     4  11  23  40  61  96 128 165 215 267 310 368
#     4  12  26  35  65  99 139 167 205 255 313 376
#     4  12  24  44  64  96 132 172 205 254 320 393
#     4  11  24  44  65  91 127 169 216 263 317 387
#     4  11  23  39  62  92 136 179 209 246 309 390
#
# _framework density 21.159489000000001
#
# number of rings (size 3 to 8) (size 9 to 14) (size 15 to 20)
#    0.000    0.615    4.615    5.308    2.154    2.154 
#    0.000    3.846    0.000    0.923    0.000    0.000 
#    0.000    0.000    0.000    0.000    0.000    0.000 
#
# Total GULP energy -644566.835956 kJ/mol
# GULP energy per Si atom -12395.516076 kJ/mol
# Density = 2.111133 g / cm^3
# Si number density = 21.159489 Si / 1000 Ang^3
#
#
#
# Elastic Constant Matrix: (Units=GPa)
#
#
# Indices 1 2 3 4 5 6 
#
# 1 144.5263 22.6996 54.4579 0.0000 0.0000 0.0000
# 2 22.6996 75.1825 28.0261 0.0000 0.0000 0.0000
# 3 54.4579 28.0261 155.5247 -0.0001 0.0000 0.0000
# 4 0.0000 0.0000 -0.0001 14.5973 0.0000 0.0000
# 5 0.0000 0.0000 0.0000 0.0000 37.5607 0.0000
# 6 0.0000 0.0000 0.0000 0.0000 0.0000 14.3925
#
#
#
# Elastic Compliance Matrix: (Units=1/GPa)
#
#
# Indices 1 2 3 4 5 6 
#
# 1 0.008124 -0.001493 -0.002576 0.000000 0.000000 0.000000
# 2 -0.001493 0.014533 -0.002096 0.000000 0.000000 0.000000
# 3 -0.002576 -0.002096 0.007710 0.000000 0.000000 0.000000
# 4 0.000000 0.000000 0.000000 0.068506 0.000000 0.000000
# 5 0.000000 0.000000 0.000000 0.000000 0.026624 0.000000
# 6 0.000000 0.000000 0.000000 0.000000 0.000000 0.069480
#
#
# Mechanical properties :
#
#
# Convention : Reuss Voigt Hill
#
# Bulk Modulus (GPa) = 55.44046 65.06675 60.25360
# Shear Modulus (GPa) = 23.43916 31.31344 27.37630
#
# Velocity S-wave (km/s) = 3.33188 3.85109 3.60086
# Velocity P-wave (km/s) = 6.40781 7.11280 6.76949
#
# Compressibility (1/GPa) = 0.01803737
#
# Stress axis : x y z
#
# Youngs Moduli (GPa) = 123.08979 68.80851 129.71009
#
# Poissons Ratio (x) = 0.10271 0.33410
# Poissons Ratio (y) = 0.18374 0.27190
# Poissons Ratio (z) = 0.31705 0.14424
#
# Static dielectric constant tensor:
#      x y z
#    x 3.978470 0.000000 0.000000 
#    y 0.000000 3.505160 0.000000 
#    z 0.000000 0.000000 5.150800 
# 
# 
# High freq. dielectric constant tensor:
#      x y z
#    x 1.844990 0.000000 0.000000 
#    y 0.000000 1.782640 0.000000 
#    z 0.000000 0.000000 1.851210 
# 
# From -- ./inp_files/42660.got.cif
#   From: 2010.03.12/outbox.cif.g09.slc.cpg/sg72_22_cif.got.tgz:42660.got - 2010.04.16 14:54:00.
