data_PCOD8295163
_publ_section_title
;
Structure prediction by ZEFSAII (Michael W. Deem and Ramdas Pophale) SiO2 
 PCOD8295163
Probable space group: I B A M
;
_chemical_formula_sum "Si O2"
_cell_formula_units_Z 52
_cell_length_a 9.215235
_cell_length_b 14.058502
_cell_length_c 16.392464
_cell_angle_alpha 90.000000
_cell_angle_beta 90.000000
_cell_angle_gamma 90.000000
_cell_volume 2123.683048
_symmetry_space_group_name_H-M "I B A M"
_symmetry_group_IT_number 72
_symmetry_cell_setting 'orthorhombic'
loop_
_space_group_symop_operation_xyz
x,y,z
-x,-y,z
x,-y,1/2-z
-x,y,1/2-z
-x,-y,-z
x,y,-z
-x,y,1/2+z
x,-y,1/2+z
1/2+x,1/2+y,1/2+z
1/2-x,1/2-y,1/2+z
1/2+x,1/2-y,-z
1/2-x,1/2+y,-z
1/2-x,1/2-y,1/2-z
1/2+x,1/2+y,1/2-z
1/2-x,1/2+y,z
1/2+x,1/2-y,z
loop_
_atom_site_type_symbol
_atom_site_label
_atom_site_fract_x
_atom_site_fract_y
_atom_site_fract_z
Si Si1 0.264188 0.926209 0.659575
Si Si2 0.602054 0.760805 0.908186
Si Si3 0.000000 0.000000 0.750000
Si Si4 0.831176 0.634906 0.831940
O O1 0.285044 0.850798 0.587354
O O2 0.352545 0.875719 0.734624
O O3 0.099075 0.936272 0.690304
O O4 0.333651 0.026908 0.633032
O O5 0.671608 0.677421 0.853102
O O6 0.449268 0.797174 0.872664
O O7 0.579069 0.723140 0.000000
#
# Coordination Sequence:
#
# PCOD8295163 Si02
#       4
#    16  16   4  16
#     4  10  23  44  71  93 133 183 234 282 328 401
#     4  12  25  41  68 104 141 181 218 279 352 410
#     4   8  20  40  68 100 120 166 238 290 324 372
#     4  10  24  44  67  97 136 179 233 279 329 402
#
# _framework density 24.485762999999999
#
# number of rings (size 3 to 8) (size 9 to 14) (size 15 to 20)
#    0.000    1.846    0.000    3.692    8.615    8.615 
#    0.000    0.769    0.000    0.000    0.000    0.000 
#    0.000    0.000    0.000    0.000    0.000    0.000 
#
# Total GULP energy -322144.775060 kJ/mol
# GULP energy per Si atom -12390.183656 kJ/mol
# Density = 2.443003 g / cm^3
# Si number density = 24.485763 Si / 1000 Ang^3
#
#
#
# Elastic Constant Matrix: (Units=GPa)
#
#
# Indices 1 2 3 4 5 6 
#
# 1 131.0620 19.7912 19.8930 0.0000 0.0000 0.0000
# 2 19.7912 108.7771 30.7949 0.0000 0.0000 0.0000
# 3 19.8930 30.7949 59.0702 0.0000 0.0000 0.0000
# 4 0.0000 0.0000 0.0000 15.2742 0.0000 0.0000
# 5 0.0000 0.0000 0.0000 0.0000 23.1484 0.0000
# 6 0.0000 0.0000 0.0000 0.0000 0.0000 49.6955
#
#
#
# Elastic Compliance Matrix: (Units=1/GPa)
#
#
# Indices 1 2 3 4 5 6 
#
# 1 0.008103 -0.000823 -0.002300 0.000000 0.000000 0.000000
# 2 -0.000823 0.010868 -0.005389 0.000000 0.000000 0.000000
# 3 -0.002300 -0.005389 0.020513 0.000000 0.000000 0.000000
# 4 0.000000 0.000000 0.000000 0.065470 0.000000 0.000000
# 5 0.000000 0.000000 0.000000 0.000000 0.043200 0.000000
# 6 0.000000 0.000000 0.000000 0.000000 0.000000 0.020123
#
#
# Mechanical properties :
#
#
# Convention : Reuss Voigt Hill
#
# Bulk Modulus (GPa) = 44.52160 48.87418 46.69789
# Shear Modulus (GPa) = 25.93531 32.85230 29.39380
#
# Velocity S-wave (km/s) = 3.25807 3.66688 3.46850
# Velocity P-wave (km/s) = 5.68994 6.15886 5.92904
#
# Compressibility (1/GPa) = 0.02246101
#
# Stress axis : x y z
#
# Youngs Moduli (GPa) = 123.40559 92.00925 48.75000
#
# Poissons Ratio (x) = 0.07575 0.11211
# Poissons Ratio (y) = 0.10160 0.26270
# Poissons Ratio (z) = 0.28380 0.49582
#
# Static dielectric constant tensor:
#      x y z
#    x 4.451330 0.000000 0.000000 
#    y 0.000000 4.578660 0.000000 
#    z 0.000000 0.000000 4.013150 
# 
# 
# High freq. dielectric constant tensor:
#      x y z
#    x 1.987950 0.000000 0.000000 
#    y 0.000000 1.984410 0.000000 
#    z 0.000000 0.000000 1.932900 
# 
# From -- ./inp_files/35177.got.cif
#   From: 2010.03.12/outbox.cif.g09.slc.cpg/sg72_18_cif.got.tgz:35177.got - 2010.04.16 14:54:00.
