data_PCOD8295332
_publ_section_title
;
Structure prediction by ZEFSAII (Michael W. Deem and Ramdas Pophale) SiO2 
 PCOD8295332
Probable space group: I B A M
;
_chemical_formula_sum "Si O2"
_cell_formula_units_Z 80
_cell_length_a 15.136094
_cell_length_b 9.344826
_cell_length_c 25.381846
_cell_angle_alpha 90.000000
_cell_angle_beta 90.000000
_cell_angle_gamma 90.000000
_cell_volume 3590.114007
_symmetry_space_group_name_H-M "I B A M"
_symmetry_group_IT_number 72
_symmetry_cell_setting 'orthorhombic'
loop_
_space_group_symop_operation_xyz
x,y,z
-x,-y,z
x,-y,1/2-z
-x,y,1/2-z
-x,-y,-z
x,y,-z
-x,y,1/2+z
x,-y,1/2+z
1/2+x,1/2+y,1/2+z
1/2-x,1/2-y,1/2+z
1/2+x,1/2-y,-z
1/2-x,1/2+y,-z
1/2-x,1/2-y,1/2-z
1/2+x,1/2+y,1/2-z
1/2-x,1/2+y,z
1/2+x,1/2-y,z
loop_
_atom_site_type_symbol
_atom_site_label
_atom_site_fract_x
_atom_site_fract_y
_atom_site_fract_z
Si Si1 0.076663 0.382129 0.165628
Si Si2 0.485316 0.832778 0.943948
Si Si3 0.316771 0.233327 0.940496
Si Si4 0.250296 0.012823 0.373396
Si Si5 0.087875 0.075856 0.195193
O O1 0.170565 0.462970 0.169088
O O2 0.070618 0.246709 0.205261
O O3 0.000000 0.500000 0.176331
O O4 0.073129 0.305077 0.107628
O O5 0.577947 0.752461 0.937541
O O6 0.500000 0.000000 0.947601
O O7 0.441182 0.781918 0.000000
O O8 0.278058 0.337601 0.897189
O O9 0.285208 0.076975 0.922933
O O10 0.283461 0.262817 0.000000
O O11 0.169233 0.938259 0.344269
O O12 0.112025 0.000000 0.250000
O O13 0.000000 0.000000 0.171716
#
# Coordination Sequence:
#
# PCOD8295332 Si02
#       5
#    16  16  16  16  16
#     4  11  22  42  72 103 136 183 228 283 347 420
#     4   9  17  32  59  95 137 178 221 269 324 396
#     4  11  22  38  64 101 142 187 231 276 335 410
#     4  12  23  43  69 101 141 184 230 287 347 412
#     4  11  27  49  71  96 136 179 230 306 362 409
#
# _framework density 22.283415000000002
#
# number of rings (size 3 to 8) (size 9 to 14) (size 15 to 20)
#    0.000    1.200    6.000    1.800    0.000    1.600 
#    0.000    2.000    0.000    4.200    0.000    0.000 
#    0.000    0.000    0.000    0.000    0.000    0.000 
#
# Total GULP energy -495763.728296 kJ/mol
# GULP energy per Si atom -12394.093207 kJ/mol
# Density = 2.223270 g / cm^3
# Si number density = 22.283415 Si / 1000 Ang^3
#
#
#
# Elastic Constant Matrix: (Units=GPa)
#
#
# Indices 1 2 3 4 5 6 
#
# 1 114.4319 32.3841 13.4297 0.0000 0.0000 0.0000
# 2 32.3841 116.4847 22.0235 0.0000 0.0000 0.0000
# 3 13.4297 22.0235 72.2384 0.0000 0.0000 0.0000
# 4 0.0000 0.0000 0.0000 32.7553 0.0000 0.0000
# 5 0.0000 0.0000 0.0000 0.0000 26.9789 0.0000
# 6 0.0000 0.0000 0.0000 0.0000 0.0000 31.5530
#
#
#
# Elastic Compliance Matrix: (Units=1/GPa)
#
#
# Indices 1 2 3 4 5 6 
#
# 1 0.009556 -0.002463 -0.001026 0.000000 0.000000 0.000000
# 2 -0.002463 0.009745 -0.002513 0.000000 0.000000 0.000000
# 3 -0.001026 -0.002513 0.014800 0.000000 0.000000 0.000000
# 4 0.000000 0.000000 0.000000 0.030529 0.000000 0.000000
# 5 0.000000 0.000000 0.000000 0.000000 0.037066 0.000000
# 6 0.000000 0.000000 0.000000 0.000000 0.000000 0.031693
#
#
# Mechanical properties :
#
#
# Convention : Reuss Voigt Hill
#
# Bulk Modulus (GPa) = 45.25374 48.75884 47.00629
# Shear Modulus (GPa) = 32.73155 33.94528 33.33841
#
# Velocity S-wave (km/s) = 3.83675 3.90724 3.87215
# Velocity P-wave (km/s) = 6.32296 6.50262 6.41342
#
# Compressibility (1/GPa) = 0.02209762
#
# Stress axis : x y z
#
# Youngs Moduli (GPa) = 104.64440 102.62051 67.56803
#
# Poissons Ratio (x) = 0.25273 0.06931
# Poissons Ratio (y) = 0.25772 0.16980
# Poissons Ratio (z) = 0.10734 0.25789
#
# Static dielectric constant tensor:
#      x y z
#    x 4.195510 0.000000 0.000000 
#    y 0.000000 3.878660 0.000000 
#    z 0.000000 0.000000 4.377210 
# 
# 
# High freq. dielectric constant tensor:
#      x y z
#    x 1.883480 0.000000 0.000000 
#    y 0.000000 1.872320 0.000000 
#    z 0.000000 0.000000 1.864360 
# 
# From -- ./inp_files/52009.got.cif
#   From: 2010.03.12/outbox.cif.g09.slc.cpg/sg72_27_cif.got.tgz:52009.got - 2010.04.16 14:54:00.
