data_PCOD8295233
_publ_section_title
;
Structure prediction by ZEFSAII (Michael W. Deem and Ramdas Pophale) SiO2 
 PCOD8295233
Probable space group: I B A M
;
_chemical_formula_sum "Si O2"
_cell_formula_units_Z 80
_cell_length_a 22.991814
_cell_length_b 29.269053
_cell_length_c 8.472518
_cell_angle_alpha 90.000000
_cell_angle_beta 90.000000
_cell_angle_gamma 90.000000
_cell_volume 5701.569317
_symmetry_space_group_name_H-M "I B A M"
_symmetry_group_IT_number 72
_symmetry_cell_setting 'orthorhombic'
loop_
_space_group_symop_operation_xyz
x,y,z
-x,-y,z
x,-y,1/2-z
-x,y,1/2-z
-x,-y,-z
x,y,-z
-x,y,1/2+z
x,-y,1/2+z
1/2+x,1/2+y,1/2+z
1/2-x,1/2-y,1/2+z
1/2+x,1/2-y,-z
1/2-x,1/2+y,-z
1/2-x,1/2-y,1/2-z
1/2+x,1/2+y,1/2-z
1/2-x,1/2+y,z
1/2+x,1/2-y,z
loop_
_atom_site_type_symbol
_atom_site_label
_atom_site_fract_x
_atom_site_fract_y
_atom_site_fract_z
Si Si1 0.770755 0.678111 0.320705
Si Si2 0.062658 0.549520 0.813669
Si Si3 0.435670 0.221946 0.186013
Si Si4 0.872722 0.633273 0.183119
Si Si5 0.830773 0.235680 0.315549
O O1 0.779746 0.662046 0.500000
O O2 0.803129 0.640954 0.210361
O O3 0.800910 0.727007 0.296452
O O4 0.701611 0.686654 0.284757
O O5 0.080283 0.500000 0.750000
O O6 0.111201 0.584708 0.756255
O O7 0.000000 0.565270 0.750000
O O8 0.059928 0.547902 0.000000
O O9 0.500000 0.226333 0.250000
O O10 0.409250 0.172875 0.232091
O O11 0.398442 0.263637 0.264468
O O12 0.435691 0.227255 0.000000
O O13 0.887795 0.633899 0.000000
O O14 0.824595 0.249307 0.500000
#
# Coordination Sequence:
#
# PCOD8295233 Si02
#       5
#    16  16  16  16  16
#     4   9  16  26  40  57  75  96 122 154 190 226
#     4  11  21  34  47  60  77  98 126 158 197 238
#     4  11  20  29  40  55  76 101 130 162 196 230
#     4  11  20  30  43  59  77  98 127 161 196 231
#     4   9  16  26  39  55  75  97 123 154 189 227
#
# _framework density 14.031224999999999
#
# number of rings (size 3 to 8) (size 9 to 14) (size 15 to 20)
#    0.000    1.800    0.000   10.200    0.000    2.400 
#    0.000    0.000    0.000    0.000    0.000    0.000 
#    0.000    0.000    0.000    0.000    0.000    1.000 
#
# Total GULP energy -495711.967449 kJ/mol
# GULP energy per Si atom -12392.799186 kJ/mol
# Density = 1.399929 g / cm^3
# Si number density = 14.031225 Si / 1000 Ang^3
#
#
#
# Elastic Constant Matrix: (Units=GPa)
#
#
# Indices 1 2 3 4 5 6 
#
# 1 87.2825 48.4800 29.3692 0.0000 0.0000 0.0000
# 2 48.4800 60.1874 27.2045 0.0000 0.0000 0.0000
# 3 29.3692 27.2045 88.0090 0.0000 0.0000 0.0000
# 4 0.0000 0.0000 0.0000 18.4940 0.0000 0.0000
# 5 0.0000 0.0000 0.0000 0.0000 23.1686 0.0000
# 6 0.0000 0.0000 0.0000 0.0000 0.0000 23.0389
#
#
#
# Elastic Compliance Matrix: (Units=1/GPa)
#
#
# Indices 1 2 3 4 5 6 
#
# 1 0.021053 -0.016021 -0.002073 0.000000 0.000000 0.000000
# 2 -0.016021 0.031505 -0.004392 0.000000 0.000000 0.000000
# 3 -0.002073 -0.004392 0.013412 0.000000 0.000000 0.000000
# 4 0.000000 0.000000 0.000000 0.054072 0.000000 0.000000
# 5 0.000000 0.000000 0.000000 0.000000 0.043162 0.000000
# 6 0.000000 0.000000 0.000000 0.000000 0.000000 0.043405
#
#
# Mechanical properties :
#
#
# Convention : Reuss Voigt Hill
#
# Bulk Modulus (GPa) = 47.62570 49.50959 48.56765
# Shear Modulus (GPa) = 19.33636 21.63532 20.48584
#
# Velocity S-wave (km/s) = 3.71630 3.93102 3.82516
# Velocity P-wave (km/s) = 7.24091 7.48103 7.36195
#
# Compressibility (1/GPa) = 0.02099707
#
# Stress axis : x y z
#
# Youngs Moduli (GPa) = 47.49833 31.74138 74.55998
#
# Poissons Ratio (x) = 0.50853 0.15459
# Poissons Ratio (y) = 0.76097 0.32747
# Poissons Ratio (z) = 0.09848 0.13941
#
# Static dielectric constant tensor:
#      x y z
#    x 3.162630 0.000000 0.000000 
#    y 0.000000 2.505250 0.000000 
#    z 0.000000 0.000000 2.916150 
# 
# 
# High freq. dielectric constant tensor:
#      x y z
#    x 1.526910 0.000000 0.000000 
#    y 0.000000 1.483670 0.000000 
#    z 0.000000 0.000000 1.561220 
# 
# From -- ./inp_files/6237.got.cif
#   From: 2010.03.12/outbox.cif.g09.slc.cpg/sg72_4_cif.got.tgz:6237.got - 2010.04.16 14:54:00.
