data_PCOD8295880
_publ_section_title
;
Structure prediction by ZEFSAII (Michael W. Deem and Ramdas Pophale) SiO2 
 PCOD8295880
Probable space group: I B C A 
;
_chemical_formula_sum "Si O2"
_cell_formula_units_Z 64
_cell_length_a 12.666067
_cell_length_b 9.367573
_cell_length_c 26.296123
_cell_angle_alpha 90.000000
_cell_angle_beta 90.000000
_cell_angle_gamma 90.000000
_cell_volume 3120.043073
_symmetry_space_group_name_H-M "I B C A "
_symmetry_group_IT_number 73
_symmetry_cell_setting 'orthorhombic'
loop_
_space_group_symop_operation_xyz
x,y,z
-x,1/2-y,z
x,-y,1/2-z
1/2-x,y,-z
-x,-y,-z
x,1/2+y,-z
-x,y,1/2+z
1/2+x,-y,z
1/2+x,1/2+y,1/2+z
1/2-x,-y,1/2+z
1/2+x,1/2-y,-z
-x,1/2+y,1/2-z
1/2-x,1/2-y,1/2-z
1/2+x,y,1/2-z
1/2-x,1/2+y,z
x,1/2-y,1/2+z
loop_
_atom_site_type_symbol
_atom_site_label
_atom_site_fract_x
_atom_site_fract_y
_atom_site_fract_z
Si Si1 0.247489 0.000000 0.250000
Si Si2 0.120330 0.749981 0.301308
Si Si3 0.820813 0.614887 0.547715
Si Si4 0.833474 0.329905 0.587993
Si Si5 0.500000 0.750000 0.005920
O O1 0.174483 0.100741 0.214726
O O2 0.319823 0.108110 0.282185
O O3 0.118334 0.742480 0.362228
O O4 0.000000 0.750000 0.280826
O O5 0.750000 0.564405 0.500000
O O6 0.813508 0.498744 0.593162
O O7 0.777202 0.758767 0.573056
O O8 0.941734 0.636156 0.530396
O O9 0.912620 0.323656 0.540540
#
# Coordination Sequence:
#
# PCOD8295880 Si02
#       5
#     8  16  16  16   8
#     4  10  24  42  68  92 124 156 200 258 320 374
#     4  11  22  43  66  94 123 160 202 255 314 374
#     4  10  21  36  56  83 122 163 202 247 295 351
#     4  11  21  37  59  86 119 158 202 249 294 358
#     4  10  20  36  56  86 118 164 200 244 294 352
#
# _framework density 20.512536999999998
#
# number of rings (size 3 to 8) (size 9 to 14) (size 15 to 20)
#    0.000    1.500    1.250    5.250    0.000    2.000 
#    4.500    0.000    5.500    0.000    0.000    0.000 
#    0.000    0.000    0.000    0.000    0.000    0.000 
#
# Total GULP energy -396690.254284 kJ/mol
# GULP energy per Si atom -12396.570446 kJ/mol
# Density = 2.046585 g / cm^3
# Si number density = 20.512537 Si / 1000 Ang^3
#
#
#
# Elastic Constant Matrix: (Units=GPa)
#
#
# Indices 1 2 3 4 5 6 
#
# 1 136.2989 66.3776 40.1327 0.0000 0.0000 0.0000
# 2 66.3776 157.3154 52.8445 0.0000 0.0000 0.0000
# 3 40.1327 52.8445 79.1844 0.0000 0.0000 0.0000
# 4 0.0000 0.0000 0.0000 32.1850 0.0000 0.0000
# 5 0.0000 0.0000 0.0000 0.0000 17.4259 0.0000
# 6 0.0000 0.0000 0.0000 0.0000 0.0000 25.7721
#
#
#
# Elastic Compliance Matrix: (Units=1/GPa)
#
#
# Indices 1 2 3 4 5 6 
#
# 1 0.009698 -0.003146 -0.002816 0.000000 0.000000 0.000000
# 2 -0.003146 0.009214 -0.004555 0.000000 0.000000 0.000000
# 3 -0.002816 -0.004555 0.017095 0.000000 0.000000 0.000000
# 4 0.000000 0.000000 0.000000 0.031070 0.000000 0.000000
# 5 0.000000 0.000000 0.000000 0.000000 0.057386 0.000000
# 6 0.000000 0.000000 0.000000 0.000000 0.000000 0.038802
#
#
# Mechanical properties :
#
#
# Convention : Reuss Voigt Hill
#
# Bulk Modulus (GPa) = 66.77893 76.83428 71.80661
# Shear Modulus (GPa) = 26.41455 29.30618 27.86037
#
# Velocity S-wave (km/s) = 3.59238 3.78391 3.68939
# Velocity P-wave (km/s) = 7.05924 7.52524 7.29596
#
# Compressibility (1/GPa) = 0.01497478
#
# Stress axis : x y z
#
# Youngs Moduli (GPa) = 103.11345 108.52929 58.49567
#
# Poissons Ratio (x) = 0.34145 0.16470
# Poissons Ratio (y) = 0.32442 0.26642
# Poissons Ratio (z) = 0.29032 0.49430
#
# Static dielectric constant tensor:
#      x y z
#    x 3.829650 0.000000 0.000000 
#    y 0.000000 3.741900 0.000000 
#    z 0.000000 0.000000 3.544810 
# 
# 
# High freq. dielectric constant tensor:
#      x y z
#    x 1.809260 0.000000 0.000000 
#    y 0.000000 1.813190 0.000000 
#    z 0.000000 0.000000 1.784320 
# 
# From -- ./inp_files/4001.got.cif
#   From: 2010.03.12/outbox.cif.g09.slc.cpg/sg73_3_cif.got.tgz:4001.got - 2010.04.16 15:25:48.
