data_PCOD8295270
_publ_section_title
;
Structure prediction by ZEFSAII (Michael W. Deem and Ramdas Pophale) SiO2 
 PCOD8295270
Probable space group: I B A M
;
_chemical_formula_sum "Si O2"
_cell_formula_units_Z 64
_cell_length_a 22.807234
_cell_length_b 20.116536
_cell_length_c 8.464781
_cell_angle_alpha 90.000000
_cell_angle_beta 90.000000
_cell_angle_gamma 90.000000
_cell_volume 3883.663056
_symmetry_space_group_name_H-M "I B A M"
_symmetry_group_IT_number 72
_symmetry_cell_setting 'orthorhombic'
loop_
_space_group_symop_operation_xyz
x,y,z
-x,-y,z
x,-y,1/2-z
-x,y,1/2-z
-x,-y,-z
x,y,-z
-x,y,1/2+z
x,-y,1/2+z
1/2+x,1/2+y,1/2+z
1/2-x,1/2-y,1/2+z
1/2+x,1/2-y,-z
1/2-x,1/2+y,-z
1/2-x,1/2-y,1/2-z
1/2+x,1/2+y,1/2-z
1/2-x,1/2+y,z
1/2+x,1/2-y,z
loop_
_atom_site_type_symbol
_atom_site_label
_atom_site_fract_x
_atom_site_fract_y
_atom_site_fract_z
Si Si1 0.064106 0.685415 0.682893
Si Si2 0.644707 0.929643 0.185531
Si Si3 0.235723 0.342725 0.815573
Si Si4 0.156574 0.231626 0.320659
O O1 0.061290 0.668093 0.500000
O O2 0.096038 0.625217 0.772013
O O3 0.100158 0.754626 0.710218
O O4 0.000000 0.695782 0.750000
O O5 0.708122 0.913766 0.267235
O O6 0.622116 0.000000 0.250000
O O7 0.652946 0.933140 0.000000
O O8 0.202920 0.290859 0.702336
O O9 0.306337 0.336382 0.783801
O O10 0.222489 0.327679 0.000000
O O11 0.133844 0.231521 0.500000
#
# Coordination Sequence:
#
# PCOD8295270 Si02
#       4
#    16  16  16  16
#     4  11  21  33  47  64  88 118 153 187 222 261
#     4  11  21  33  47  64  88 118 153 187 222 261
#     4   9  16  27  44  65  87 111 141 178 221 264
#     4   9  16  27  44  65  87 111 141 178 221 264
#
# _framework density 16.479286999999999
#
# number of rings (size 3 to 8) (size 9 to 14) (size 15 to 20)
#    0.000    2.000    0.000    9.000    0.000    3.500 
#    0.000    2.500    0.000    0.000    0.000    0.000 
#    0.000    1.000    0.000   10.500    0.000    4.500 
#
# Total GULP energy -396472.742577 kJ/mol
# GULP energy per Si atom -12389.773206 kJ/mol
# Density = 1.644178 g / cm^3
# Si number density = 16.479287 Si / 1000 Ang^3
#
#
#
# Elastic Constant Matrix: (Units=GPa)
#
#
# Indices 1 2 3 4 5 6 
#
# 1 117.5577 44.6408 33.4179 0.0000 0.0000 0.0000
# 2 44.6408 19.5298 14.5065 0.0000 0.0000 0.0000
# 3 33.4179 14.5065 85.1526 0.0000 0.0000 0.0000
# 4 0.0000 0.0000 0.0000 21.9090 0.0000 0.0000
# 5 0.0000 0.0000 0.0000 0.0000 26.9710 0.0000
# 6 0.0000 0.0000 0.0000 0.0000 0.0000 51.9334
#
#
#
# Elastic Compliance Matrix: (Units=1/GPa)
#
#
# Indices 1 2 3 4 5 6 
#
# 1 0.064442 -0.147134 -0.000225 0.000000 0.000000 0.000000
# 2 -0.147134 0.394556 -0.009474 0.000000 0.000000 0.000000
# 3 -0.000225 -0.009474 0.013446 0.000000 0.000000 0.000000
# 4 0.000000 0.000000 0.000000 0.045643 0.000000 0.000000
# 5 0.000000 0.000000 0.000000 0.000000 0.037077 0.000000
# 6 0.000000 0.000000 0.000000 0.000000 0.000000 0.019255
#
#
# Mechanical properties :
#
#
# Convention : Reuss Voigt Hill
#
# Bulk Modulus (GPa) = 6.29806 45.26339 25.78072
# Shear Modulus (GPa) = 5.31344 28.80768 17.06056
#
# Velocity S-wave (km/s) = 1.79759 4.18558 3.22106
# Velocity P-wave (km/s) = 2.85281 7.13339 5.43248
#
# Compressibility (1/GPa) = 0.15877910
#
# Stress axis : x y z
#
# Youngs Moduli (GPa) = 15.51779 2.53450 74.37298
#
# Poissons Ratio (x) = 0.37291 0.01670
# Poissons Ratio (y) = 2.28319 0.70462
# Poissons Ratio (z) = 0.00348 0.02401
#
# Static dielectric constant tensor:
#      x y z
#    x 3.632540 0.000000 0.000000 
#    y 0.000000 3.099910 0.000000 
#    z 0.000000 0.000000 3.210360 
# 
# 
# High freq. dielectric constant tensor:
#      x y z
#    x 1.622910 0.000000 0.000000 
#    y 0.000000 1.584740 0.000000 
#    z 0.000000 0.000000 1.656130 
# 
# From -- ./inp_files/4328.got.cif
#   From: 2010.03.12/outbox.cif.g09.slc.cpg/sg72_3_cif.got.tgz:4328.got - 2010.04.16 14:54:00.
