data_PCOD8295610
_publ_section_title
;
Structure prediction by ZEFSAII (Michael W. Deem and Ramdas Pophale) SiO2 
 PCOD8295610
Probable space group: I B C A 
;
_chemical_formula_sum "Si O2"
_cell_formula_units_Z 96
_cell_length_a 16.945372
_cell_length_b 21.270003
_cell_length_c 14.022377
_cell_angle_alpha 90.000000
_cell_angle_beta 90.000000
_cell_angle_gamma 90.000000
_cell_volume 5054.058886
_symmetry_space_group_name_H-M "I B C A "
_symmetry_group_IT_number 73
_symmetry_cell_setting 'orthorhombic'
loop_
_space_group_symop_operation_xyz
x,y,z
-x,1/2-y,z
x,-y,1/2-z
1/2-x,y,-z
-x,-y,-z
x,1/2+y,-z
-x,y,1/2+z
1/2+x,-y,z
1/2+x,1/2+y,1/2+z
1/2-x,-y,1/2+z
1/2+x,1/2-y,-z
-x,1/2+y,1/2-z
1/2-x,1/2-y,1/2-z
1/2+x,y,1/2-z
1/2-x,1/2+y,z
x,1/2-y,1/2+z
loop_
_atom_site_type_symbol
_atom_site_label
_atom_site_fract_x
_atom_site_fract_y
_atom_site_fract_z
Si Si1 0.831976 0.810088 0.325958
Si Si2 0.558290 0.695499 0.996987
Si Si3 0.082810 0.064812 0.287889
Si Si4 0.947152 0.560476 0.999632
Si Si5 0.350525 0.306408 0.195948
Si Si6 0.403680 0.563511 0.709388
O O1 0.868972 0.808555 0.430573
O O2 0.863597 0.749509 0.270069
O O3 0.738733 0.808784 0.340062
O O4 0.856924 0.872542 0.265571
O O5 0.500000 0.750000 0.028608
O O6 0.509796 0.629115 0.002969
O O7 0.591407 0.707438 0.891744
O O8 0.099898 0.061235 0.401300
O O9 0.127114 0.127576 0.251721
O O10 0.991894 0.068656 0.253166
O O11 0.121179 0.000000 0.250000
O O12 0.895788 0.555144 0.904545
O O13 0.000000 0.500000 0.000000
O O14 0.363044 0.500000 0.750000
#
# Coordination Sequence:
#
# PCOD8295610 Si02
#       6
#    16  16  16  16  16  16
#     4  10  23  39  56  81 118 152 184 230 287 342
#     4  10  23  35  60  85 108 150 189 234 274 333
#     4  10  20  33  57  84 109 144 187 236 274 336
#     4  10  18  33  50  81 112 137 175 229 288 312
#     4  10  23  39  56  81 118 152 184 230 287 342
#     4  10  20  33  57  84 109 144 187 236 274 336
#
# _framework density 18.994634999999999
#
# number of rings (size 3 to 8) (size 9 to 14) (size 15 to 20)
#    0.000    2.000    3.333    0.500    9.333    0.667 
#    0.000    0.000    0.000    0.000    0.000    2.333 
#    0.000    0.000    0.000    0.000    0.000    0.000 
#
# Total GULP energy -594639.172371 kJ/mol
# GULP energy per Si atom -12388.316091 kJ/mol
# Density = 1.895140 g / cm^3
# Si number density = 18.994635 Si / 1000 Ang^3
#
#
#
# Elastic Constant Matrix: (Units=GPa)
#
#
# Indices 1 2 3 4 5 6 
#
# 1 37.9549 29.3113 6.0640 0.0000 0.0000 0.0000
# 2 29.3113 195.8606 36.7346 0.0000 0.0000 0.0000
# 3 6.0640 36.7346 88.1361 0.0000 0.0000 0.0000
# 4 0.0000 0.0000 0.0000 29.9984 0.0000 0.0000
# 5 0.0000 0.0000 0.0000 0.0000 16.3786 0.0000
# 6 0.0000 0.0000 0.0000 0.0000 0.0000 26.5612
#
#
#
# Elastic Compliance Matrix: (Units=1/GPa)
#
#
# Indices 1 2 3 4 5 6 
#
# 1 0.029793 -0.004420 -0.000208 0.000000 0.000000 0.000000
# 2 -0.004420 0.006194 -0.002278 0.000000 0.000000 0.000000
# 3 -0.000208 -0.002278 0.012310 0.000000 0.000000 0.000000
# 4 0.000000 0.000000 0.000000 0.033335 0.000000 0.000000
# 5 0.000000 0.000000 0.000000 0.000000 0.061055 0.000000
# 6 0.000000 0.000000 0.000000 0.000000 0.000000 0.037649
#
#
# Mechanical properties :
#
#
# Convention : Reuss Voigt Hill
#
# Bulk Modulus (GPa) = 28.99632 51.79684 40.39658
# Shear Modulus (GPa) = 24.31403 31.24376 27.77889
#
# Velocity S-wave (km/s) = 3.58166 4.06010 3.82836
# Velocity P-wave (km/s) = 5.69237 7.02194 6.39182
#
# Compressibility (1/GPa) = 0.03448713
#
# Stress axis : x y z
#
# Youngs Moduli (GPa) = 33.56442 161.43903 81.23677
#
# Poissons Ratio (x) = 0.71352 0.01688
# Poissons Ratio (y) = 0.14835 0.18503
# Poissons Ratio (z) = 0.00697 0.36770
#
# Static dielectric constant tensor:
#      x y z
#    x 3.209580 0.000000 0.000000 
#    y 0.000000 4.175660 0.000000 
#    z 0.000000 0.000000 3.263380 
# 
# 
# High freq. dielectric constant tensor:
#      x y z
#    x 1.689630 0.000000 0.000000 
#    y 0.000000 1.774350 0.000000 
#    z 0.000000 0.000000 1.743520 
# 
# From -- ./inp_files/17005.got.cif
#   From: 2010.03.12/outbox.cif.g09.slc.cpg/sg73_9_cif.got.tgz:17005.got - 2010.04.16 15:25:48.
