data_PCOD8295528
_publ_section_title
;
Structure prediction by ZEFSAII (Michael W. Deem and Ramdas Pophale) SiO2 
 PCOD8295528
Probable space group: I B C A 
;
_chemical_formula_sum "Si O2"
_cell_formula_units_Z 104
_cell_length_a 17.729791
_cell_length_b 16.040900
_cell_length_c 20.489092
_cell_angle_alpha 90.000000
_cell_angle_beta 90.000000
_cell_angle_gamma 90.000000
_cell_volume 5827.134736
_symmetry_space_group_name_H-M "I B C A "
_symmetry_group_IT_number 73
_symmetry_cell_setting 'orthorhombic'
loop_
_space_group_symop_operation_xyz
x,y,z
-x,1/2-y,z
x,-y,1/2-z
1/2-x,y,-z
-x,-y,-z
x,1/2+y,-z
-x,y,1/2+z
1/2+x,-y,z
1/2+x,1/2+y,1/2+z
1/2-x,-y,1/2+z
1/2+x,1/2-y,-z
-x,1/2+y,1/2-z
1/2-x,1/2-y,1/2-z
1/2+x,y,1/2-z
1/2-x,1/2+y,z
x,1/2-y,1/2+z
loop_
_atom_site_type_symbol
_atom_site_label
_atom_site_fract_x
_atom_site_fract_y
_atom_site_fract_z
Si Si1 0.373143 0.761900 0.235987
Si Si2 0.727031 0.390517 0.926606
Si Si3 0.222267 0.937570 0.867248
Si Si4 0.694104 0.000000 0.250000
Si Si5 0.408732 0.891130 0.657929
Si Si6 0.273264 0.268958 0.151560
Si Si7 0.568418 0.070689 0.804428
O O1 0.420438 0.697090 0.192912
O O2 0.353606 0.730420 0.309785
O O3 0.294194 0.780886 0.202144
O O4 0.423604 0.844852 0.237619
O O5 0.755782 0.483305 0.910645
O O6 0.636195 0.384694 0.911697
O O7 0.768960 0.319266 0.885117
O O8 0.750000 0.370816 0.000000
O O9 0.261161 0.851410 0.895243
O O10 0.131656 0.936050 0.860899
O O11 0.252749 0.941967 0.793244
O O12 0.644752 0.943720 0.203996
O O13 0.490835 0.932925 0.653267
O O14 0.570442 0.000000 0.750000
#
# Coordination Sequence:
#
# PCOD8295528 Si02
#       7
#    16  16  16   8  16  16  16
#     4   9  17  29  49  78 106 130 162 206 265 318
#     4  10  22  37  52  72 101 142 188 220 244 296
#     4  10  19  32  54  77 106 139 173 210 258 312
#     4  10  16  30  50  76 106 134 162 206 256 314
#     4  10  19  32  49  75 109 134 164 213 265 303
#     4   9  17  31  53  76 101 134 172 216 255 302
#     4  11  19  28  48  82 112 136 158 205 271 326
#
# _framework density 17.847536000000002
#
# number of rings (size 3 to 8) (size 9 to 14) (size 15 to 20)
#    0.000    2.154    3.077    1.385    4.308    0.615 
#    0.000    0.769    0.000    0.000    0.000   19.385 
#    0.000    0.000    0.000    0.000    0.000    0.000 
#
# Total GULP energy -644240.005095 kJ/mol
# GULP energy per Si atom -12389.230867 kJ/mol
# Density = 1.780691 g / cm^3
# Si number density = 17.847536 Si / 1000 Ang^3
#
#
#
# Elastic Constant Matrix: (Units=GPa)
#
#
# Indices 1 2 3 4 5 6 
#
# 1 84.2483 12.5546 26.6441 0.0000 0.0000 0.0000
# 2 12.5546 111.5307 17.2959 0.0000 0.0000 0.0000
# 3 26.6441 17.2959 57.6786 0.0000 0.0000 0.0000
# 4 0.0000 0.0000 0.0000 12.7123 0.0000 0.0000
# 5 0.0000 0.0000 0.0000 0.0000 15.1443 0.0000
# 6 0.0000 0.0000 0.0000 0.0000 0.0000 23.9168
#
#
#
# Elastic Compliance Matrix: (Units=1/GPa)
#
#
# Indices 1 2 3 4 5 6 
#
# 1 0.013938 -0.000598 -0.006259 0.000000 0.000000 0.000000
# 2 -0.000598 0.009429 -0.002551 0.000000 0.000000 0.000000
# 3 -0.006259 -0.002551 0.020994 0.000000 0.000000 0.000000
# 4 0.000000 0.000000 0.000000 0.078664 0.000000 0.000000
# 5 0.000000 0.000000 0.000000 0.000000 0.066031 0.000000
# 6 0.000000 0.000000 0.000000 0.000000 0.000000 0.041812
#
#
# Mechanical properties :
#
#
# Convention : Reuss Voigt Hill
#
# Bulk Modulus (GPa) = 39.14820 40.71630 39.93225
# Shear Modulus (GPa) = 19.36479 23.48553 21.42516
#
# Velocity S-wave (km/s) = 3.29753 3.63147 3.46852
# Velocity P-wave (km/s) = 6.03992 6.35974 6.20189
#
# Compressibility (1/GPa) = 0.02554396
#
# Stress axis : x y z
#
# Youngs Moduli (GPa) = 71.74433 106.05452 47.63297
#
# Poissons Ratio (x) = 0.06345 0.29815
# Poissons Ratio (y) = 0.04293 0.12152
# Poissons Ratio (z) = 0.44907 0.27055
#
# Static dielectric constant tensor:
#      x y z
#    x 3.316470 0.000000 0.000000 
#    y 0.000000 3.540480 0.000000 
#    z 0.000000 0.000000 3.074270 
# 
# 
# High freq. dielectric constant tensor:
#      x y z
#    x 1.681300 0.000000 0.000000 
#    y 0.000000 1.719470 0.000000 
#    z 0.000000 0.000000 1.632360 
# 
# From -- ./inp_files/26538.got.cif
#   From: 2010.03.12/outbox.cif.g09.slc.cpg/sg73_14_cif.got.tgz:26538.got - 2010.04.16 15:25:48.
