data_PCOD8295325
_publ_section_title
;
Structure prediction by ZEFSAII (Michael W. Deem and Ramdas Pophale) SiO2 
 PCOD8295325
Probable space group: I B A M
;
_chemical_formula_sum "Si O2"
_cell_formula_units_Z 88
_cell_length_a 11.634538
_cell_length_b 23.738801
_cell_length_c 15.026703
_cell_angle_alpha 90.000000
_cell_angle_beta 90.000000
_cell_angle_gamma 90.000000
_cell_volume 4150.224836
_symmetry_space_group_name_H-M "I B A M"
_symmetry_group_IT_number 72
_symmetry_cell_setting 'orthorhombic'
loop_
_space_group_symop_operation_xyz
x,y,z
-x,-y,z
x,-y,1/2-z
-x,y,1/2-z
-x,-y,-z
x,y,-z
-x,y,1/2+z
x,-y,1/2+z
1/2+x,1/2+y,1/2+z
1/2-x,1/2-y,1/2+z
1/2+x,1/2-y,-z
1/2-x,1/2+y,-z
1/2-x,1/2-y,1/2-z
1/2+x,1/2+y,1/2-z
1/2-x,1/2+y,z
1/2+x,1/2-y,z
loop_
_atom_site_type_symbol
_atom_site_label
_atom_site_fract_x
_atom_site_fract_y
_atom_site_fract_z
Si Si1 0.618183 0.531865 0.099785
Si Si2 0.368010 0.877360 0.751726
Si Si3 0.218029 0.500000 0.250000
Si Si4 0.746395 0.802171 0.601131
Si Si5 0.281338 0.675807 0.900396
Si Si6 0.527399 0.349769 0.649777
O O1 0.500000 0.500000 0.093201
O O2 0.704198 0.496138 0.161158
O O3 0.595300 0.591507 0.146007
O O4 0.669761 0.539727 0.000000
O O5 0.500000 0.858737 0.750000
O O6 0.360847 0.944880 0.756799
O O7 0.310519 0.849656 0.837855
O O8 0.304296 0.857492 0.662892
O O9 0.708281 0.814070 0.500000
O O10 0.706195 0.740316 0.632204
O O11 0.885445 0.803714 0.609269
O O12 0.407975 0.648000 0.903366
O O13 0.229766 0.673334 0.000000
O O14 0.500000 0.332881 0.750000
#
# Coordination Sequence:
#
# PCOD8295325 Si02
#       6
#    16  16   8  16  16  16
#     4  11  22  37  64  98 133 170 217 276 338 399
#     4  12  27  45  68  94 133 180 232 277 332 398
#     4  12  24  44  64  94 130 179 227 274 332 392
#     4  11  25  44  68  99 135 177 221 273 339 407
#     4  11  25  43  69 103 137 173 221 280 338 404
#     4  12  22  40  69 101 136 173 217 276 341 407
#
# _framework density 21.203671
#
# number of rings (size 3 to 8) (size 9 to 14) (size 15 to 20)
#    0.000    0.545    3.636    4.909    2.545    2.909 
#    0.000    0.000    0.000    3.273    0.000    0.000 
#    0.000    0.000    0.000    0.000    0.000    0.000 
#
# Total GULP energy -545799.708530 kJ/mol
# GULP energy per Si atom -12404.538830 kJ/mol
# Density = 2.115541 g / cm^3
# Si number density = 21.203671 Si / 1000 Ang^3
#
#
#
# Elastic Constant Matrix: (Units=GPa)
#
#
# Indices 1 2 3 4 5 6 
#
# 1 120.2824 19.7892 35.0980 0.0000 0.0000 0.0000
# 2 19.7892 95.7764 40.7771 0.0002 0.0002 0.0000
# 3 35.0980 40.7771 115.1540 0.0002 0.0004 0.0000
# 4 0.0000 0.0002 0.0002 46.9175 0.0001 0.0000
# 5 0.0000 0.0002 0.0004 0.0001 -36.6526 -0.0001
# 6 0.0000 0.0000 0.0000 0.0000 -0.0001 30.8657
#
#
#
# Elastic Compliance Matrix: (Units=1/GPa)
#
#
# Indices 1 2 3 4 5 6 
#
# 1 0.009181 -0.000831 -0.002504 0.000000 0.000000 0.000000
# 2 -0.000831 0.012370 -0.004127 0.000000 0.000000 0.000000
# 3 -0.002504 -0.004127 0.010909 0.000000 0.000000 0.000000
# 4 0.000000 0.000000 0.000000 0.021314 0.000000 0.000000
# 5 0.000000 0.000000 0.000000 0.000000 -0.027283 0.000000
# 6 0.000000 0.000000 0.000000 0.000000 0.000000 0.032398
#
#
# Mechanical properties :
#
#
# Convention : Reuss Voigt Hill
#
# Bulk Modulus (GPa) = 57.02687 58.06016 57.54351
# Shear Modulus (GPa) = 62.76840 23.92936 43.34888
#
# Velocity S-wave (km/s) = 5.44673 3.36303 4.52641
# Velocity P-wave (km/s) = 8.15531 6.52085 7.38345
#
# Compressibility (1/GPa) = 0.01753559
#
# Stress axis : x y z
#
# Youngs Moduli (GPa) = 108.91876 80.84245 91.67030
#
# Poissons Ratio (x) = 0.06717 0.22955
# Poissons Ratio (y) = 0.09050 0.37832
# Poissons Ratio (z) = 0.27275 0.33364
#
# Static dielectric constant tensor:
#      x y z
#    x 3.897450 0.000000 0.000000 
#    y 0.000000 3.984990 0.000000 
#    z 0.000000 0.000000 4.019980 
# 
# 
# High freq. dielectric constant tensor:
#      x y z
#    x 1.820010 0.000000 0.000000 
#    y 0.000000 1.837570 0.000000 
#    z 0.000000 0.000000 1.844830 
# 
# From -- ./inp_files/20314.got.cif
#   From: 2010.03.12/outbox.cif.g09.slc.cpg/sg72_11_cif.got.tgz:20314.got - 2010.04.16 14:54:00.
