data_PCOD8295370
_publ_section_title
;
Structure prediction by ZEFSAII (Michael W. Deem and Ramdas Pophale) SiO2 
 PCOD8295370
Probable space group: I B A M
;
_chemical_formula_sum "Si O2"
_cell_formula_units_Z 52
_cell_length_a 4.838218
_cell_length_b 26.110482
_cell_length_c 18.777651
_cell_angle_alpha 90.000000
_cell_angle_beta 90.000000
_cell_angle_gamma 90.000000
_cell_volume 2372.146926
_symmetry_space_group_name_H-M "I B A M"
_symmetry_group_IT_number 72
_symmetry_cell_setting 'orthorhombic'
loop_
_space_group_symop_operation_xyz
x,y,z
-x,-y,z
x,-y,1/2-z
-x,y,1/2-z
-x,-y,-z
x,y,-z
-x,y,1/2+z
x,-y,1/2+z
1/2+x,1/2+y,1/2+z
1/2-x,1/2-y,1/2+z
1/2+x,1/2-y,-z
1/2-x,1/2+y,-z
1/2-x,1/2-y,1/2-z
1/2+x,1/2+y,1/2-z
1/2-x,1/2+y,z
1/2+x,1/2-y,z
loop_
_atom_site_type_symbol
_atom_site_label
_atom_site_fract_x
_atom_site_fract_y
_atom_site_fract_z
Si Si1 0.483849 0.218037 0.084487
Si Si2 0.500000 0.000000 0.750000
Si Si3 0.333399 0.891391 0.081113
Si Si4 0.661690 0.450992 0.871920
O O1 0.187813 0.237035 0.111386
O O2 0.556245 0.161926 0.114692
O O3 0.496011 0.213366 0.000000
O O4 0.293899 0.964217 0.704665
O O5 0.581665 0.932808 0.080025
O O6 0.075659 0.907480 0.131197
O O7 0.225109 0.885219 0.000000
O O8 0.500000 0.500000 0.905348
#
# Coordination Sequence:
#
# PCOD8295370 Si02
#       4
#    16   4  16  16
#     4   9  17  32  54  82 122 161 189 224 274 353
#     4  12  26  48  60  80 110 156 226 250 282 348
#     4  11  23  37  59  96 127 155 192 234 306 363
#     4  12  24  41  62  83 119 159 203 251 290 345
#
# _framework density 21.921068000000002
#
# number of rings (size 3 to 8) (size 9 to 14) (size 15 to 20)
#    0.000    1.231    3.077    3.231    0.000    8.615 
#    0.000    0.000    0.000    0.000    0.000   21.538 
#    0.000    0.000    0.000    0.000    0.000    0.000 
#
# Total GULP energy -322202.264287 kJ/mol
# GULP energy per Si atom -12392.394780 kJ/mol
# Density = 2.187117 g / cm^3
# Si number density = 21.921068 Si / 1000 Ang^3
#
#
#
# Elastic Constant Matrix: (Units=GPa)
#
#
# Indices 1 2 3 4 5 6 
#
# 1 119.1504 19.4558 18.5485 0.0000 0.0000 0.0000
# 2 19.4558 86.3047 31.4141 0.0000 0.0000 0.0000
# 3 18.5485 31.4141 38.6090 0.0000 -0.0001 0.0000
# 4 0.0000 0.0000 0.0000 1.6672 -0.0001 0.0000
# 5 0.0000 0.0000 -0.0001 -0.0001 15.9373 0.0000
# 6 0.0000 0.0000 0.0000 0.0000 0.0000 42.9408
#
#
#
# Elastic Compliance Matrix: (Units=1/GPa)
#
#
# Indices 1 2 3 4 5 6 
#
# 1 0.009097 -0.000654 -0.003839 0.000000 0.000000 0.000000
# 2 -0.000654 0.016509 -0.013119 0.000000 0.000000 0.000000
# 3 -0.003839 -0.013119 0.038419 -0.000001 0.000000 0.000000
# 4 0.000000 0.000000 -0.000001 0.599804 0.000002 0.000000
# 5 0.000000 0.000000 0.000000 0.000002 0.062746 0.000000
# 6 0.000000 0.000000 0.000000 0.000000 0.000000 0.023288
#
#
# Mechanical properties :
#
#
# Convention : Reuss Voigt Hill
#
# Bulk Modulus (GPa) = 34.71821 42.54456 38.63139
# Shear Modulus (GPa) = 6.29179 23.75209 15.02194
#
# Velocity S-wave (km/s) = 1.69600 3.29527 2.62061
# Velocity P-wave (km/s) = 4.43931 5.82483 5.17861
#
# Compressibility (1/GPa) = 0.02880333
#
# Stress axis : x y z
#
# Youngs Moduli (GPa) = 109.92582 60.57192 26.02884
#
# Poissons Ratio (x) = 0.03959 0.09992
# Poissons Ratio (y) = 0.07184 0.34147
# Poissons Ratio (z) = 0.42197 0.79463
#
# Static dielectric constant tensor:
#      x y z
#    x 4.331620 0.000000 0.000000 
#    y 0.000000 4.240960 0.000000 
#    z 0.000000 0.000000 3.308030 
# 
# 
# High freq. dielectric constant tensor:
#      x y z
#    x 1.892660 0.000000 0.000000 
#    y 0.000000 1.871410 0.000000 
#    z 0.000000 0.000000 1.784820 
# 
# From -- ./inp_files/26861.got.cif
#   From: 2010.03.12/outbox.cif.g09.slc.cpg/sg72_14_cif.got.tgz:26861.got - 2010.04.16 14:54:00.
