data_PCOD8295097
_publ_section_title
;
Structure prediction by ZEFSAII (Michael W. Deem and Ramdas Pophale) SiO2 
 PCOD8295097
Probable space group: I B A M
;
_chemical_formula_sum "Si O2"
_cell_formula_units_Z 112
_cell_length_a 31.554855
_cell_length_b 11.804455
_cell_length_c 14.334407
_cell_angle_alpha 90.000000
_cell_angle_beta 90.000000
_cell_angle_gamma 90.000000
_cell_volume 5339.392672
_symmetry_space_group_name_H-M "I B A M"
_symmetry_group_IT_number 72
_symmetry_cell_setting 'orthorhombic'
loop_
_space_group_symop_operation_xyz
x,y,z
-x,-y,z
x,-y,1/2-z
-x,y,1/2-z
-x,-y,-z
x,y,-z
-x,y,1/2+z
x,-y,1/2+z
1/2+x,1/2+y,1/2+z
1/2-x,1/2-y,1/2+z
1/2+x,1/2-y,-z
1/2-x,1/2+y,-z
1/2-x,1/2-y,1/2-z
1/2+x,1/2+y,1/2-z
1/2-x,1/2+y,z
1/2+x,1/2-y,z
loop_
_atom_site_type_symbol
_atom_site_label
_atom_site_fract_x
_atom_site_fract_y
_atom_site_fract_z
Si Si1 0.228102 0.169104 0.889601
Si Si2 0.443518 0.263697 0.604373
Si Si3 0.191851 0.279592 0.282273
Si Si4 0.038714 0.237422 0.391808
Si Si5 0.678523 0.440291 0.601768
Si Si6 0.585435 0.489792 0.357219
Si Si7 0.899988 0.631319 0.738627
O O1 0.206988 0.269280 0.826132
O O2 0.275452 0.152375 0.848529
O O3 0.202646 0.054540 0.871140
O O4 0.228041 0.202175 0.000000
O O5 0.439379 0.215825 0.500000
O O6 0.490766 0.244053 0.644442
O O7 0.434572 0.396766 0.602589
O O8 0.409491 0.197785 0.666155
O O9 0.187383 0.152387 0.320367
O O10 0.148443 0.348064 0.289169
O O11 0.041530 0.264671 0.500000
O O12 0.069809 0.324608 0.342489
O O13 0.051276 0.108500 0.371617
O O14 0.694541 0.397667 0.500000
O O15 0.628715 0.463122 0.590041
O O16 0.597361 0.500000 0.250000
O O17 0.909120 0.500000 0.750000
#
# Coordination Sequence:
#
# PCOD8295097 Si02
#       7
#    16  16  16  16  16  16  16
#     4  10  23  40  64  97 129 165 215 275 336 403
#     4  11  24  42  65  97 133 171 219 279 338 397
#     4  11  23  42  65  91 129 172 221 268 335 399
#     4  11  24  42  66  96 133 175 221 272 336 404
#     4  11  21  37  64  95 132 173 214 268 336 404
#     4  12  21  36  66 103 136 171 213 270 343 407
#     4  12  27  45  66  92 128 179 231 279 325 395
#
# _framework density 20.976168999999999
#
# number of rings (size 3 to 8) (size 9 to 14) (size 15 to 20)
#    0.000    0.857    2.857    4.714    0.000    8.000 
#    0.000    1.429    0.000    0.000    0.000    0.000 
#    0.000    0.000    0.000    0.000    0.000    0.000 
#
# Total GULP energy -694548.680225 kJ/mol
# GULP energy per Si atom -12402.655004 kJ/mol
# Density = 2.092843 g / cm^3
# Si number density = 20.976169 Si / 1000 Ang^3
#
#
#
# Elastic Constant Matrix: (Units=GPa)
#
#
# Indices 1 2 3 4 5 6 
#
# 1 75.9733 -5.2019 -0.2334 0.0000 0.0000 0.0000
# 2 -5.2019 69.7714 8.5546 0.0000 0.0000 0.0000
# 3 -0.2334 8.5546 101.5240 0.0000 0.0000 0.0000
# 4 0.0000 0.0000 0.0000 387.6400 0.0000 0.0000
# 5 0.0000 0.0000 0.0000 0.0000 27.3084 0.0000
# 6 0.0000 0.0000 0.0000 0.0000 0.0000 18.9158
#
#
#
# Elastic Compliance Matrix: (Units=1/GPa)
#
#
# Indices 1 2 3 4 5 6 
#
# 1 0.013230 0.000993 -0.000053 0.000000 0.000000 0.000000
# 2 0.000993 0.014557 -0.001224 0.000000 0.000000 0.000000
# 3 -0.000053 -0.001224 0.009953 0.000000 0.000000 0.000000
# 4 0.000000 0.000000 0.000000 0.002580 0.000000 0.000000
# 5 0.000000 0.000000 0.000000 0.000000 0.036619 0.000000
# 6 0.000000 0.000000 0.000000 0.000000 0.000000 0.052866
#
#
# Mechanical properties :
#
#
# Convention : Reuss Voigt Hill
#
# Bulk Modulus (GPa) = 26.90290 28.16748 27.53519
# Shear Modulus (GPa) = 35.02293 103.04947 69.03620
#
# Velocity S-wave (km/s) = 4.09057 7.01666 5.74310
# Velocity P-wave (km/s) = 5.92990 8.89394 7.55863
#
# Compressibility (1/GPa) = 0.03717072
#
# Stress axis : x y z
#
# Youngs Moduli (GPa) = 75.58382 68.69710 100.47296
#
# Poissons Ratio (x) = -0.06821 0.00535
# Poissons Ratio (y) = -0.07505 0.12301
# Poissons Ratio (z) = 0.00403 0.08411
#
# Static dielectric constant tensor:
#      x y z
#    x 4.013090 0.000000 0.000000 
#    y 0.000000 3.518620 0.000000 
#    z 0.000000 0.000000 3.900710 
# 
# 
# High freq. dielectric constant tensor:
#      x y z
#    x 1.835890 0.000000 0.000000 
#    y 0.000000 1.798500 0.000000 
#    z 0.000000 0.000000 1.842970 
# 
# From -- ./inp_files/26348.got.cif
#   From: 2010.03.12/outbox.cif.g09.slc.cpg/sg72_14_cif.got.tgz:26348.got - 2010.04.16 14:54:00.
