data_PCOD8295731
_publ_section_title
;
Structure prediction by ZEFSAII (Michael W. Deem and Ramdas Pophale) SiO2 
 PCOD8295731
Probable space group: I B C A 
;
_chemical_formula_sum "Si O2"
_cell_formula_units_Z 64
_cell_length_a 18.559733
_cell_length_b 14.835011
_cell_length_c 13.605749
_cell_angle_alpha 90.000000
_cell_angle_beta 90.000000
_cell_angle_gamma 90.000000
_cell_volume 3746.123162
_symmetry_space_group_name_H-M "I B C A "
_symmetry_group_IT_number 73
_symmetry_cell_setting 'orthorhombic'
loop_
_space_group_symop_operation_xyz
x,y,z
-x,1/2-y,z
x,-y,1/2-z
1/2-x,y,-z
-x,-y,-z
x,1/2+y,-z
-x,y,1/2+z
1/2+x,-y,z
1/2+x,1/2+y,1/2+z
1/2-x,-y,1/2+z
1/2+x,1/2-y,-z
-x,1/2+y,1/2-z
1/2-x,1/2-y,1/2-z
1/2+x,y,1/2-z
1/2-x,1/2+y,z
x,1/2-y,1/2+z
loop_
_atom_site_type_symbol
_atom_site_label
_atom_site_fract_x
_atom_site_fract_y
_atom_site_fract_z
Si Si1 0.330068 0.615904 0.537755
Si Si2 0.414914 0.249709 0.087406
Si Si3 0.680426 0.311366 0.247730
Si Si4 0.320806 0.090549 0.060032
O O1 0.250000 0.637415 0.500000
O O2 0.387353 0.659725 0.464531
O O3 0.342110 0.655135 0.645753
O O4 0.346526 0.509896 0.536936
O O5 0.500000 0.250000 0.087234
O O6 0.385338 0.246597 0.199883
O O7 0.383648 0.161668 0.029360
O O8 0.750000 0.250000 0.250000
O O9 0.696432 0.397374 0.176544
O O10 0.250000 0.117048 0.000000
#
# Coordination Sequence:
#
# PCOD8295731 Si02
#       4
#    16  16  16  16
#     4  11  19  36  61  83 111 154 185 237 277 332
#     4  10  22  36  55  87 115 149 185 234 284 338
#     4  10  19  35  58  79 114 143 193 226 278 330
#     4   9  20  35  59  86 110 144 195 225 283 335
#
# _framework density 17.084329
#
# number of rings (size 3 to 8) (size 9 to 14) (size 15 to 20)
#    1.500    0.500    2.500    3.000    0.000    2.000 
#    0.000    0.000    0.000    3.000    0.000    0.000 
#    0.000    0.000    0.000    0.000    0.000    0.000 
#
# Total GULP energy -396561.410066 kJ/mol
# GULP energy per Si atom -12392.544065 kJ/mol
# Density = 1.704544 g / cm^3
# Si number density = 17.084329 Si / 1000 Ang^3
#
#
#
# Elastic Constant Matrix: (Units=GPa)
#
#
# Indices 1 2 3 4 5 6 
#
# 1 146.0254 68.2263 38.6728 0.0000 0.0000 0.0000
# 2 68.2263 112.9355 41.1609 0.0000 0.0000 0.0000
# 3 38.6728 41.1609 97.6945 0.0000 0.0000 0.0000
# 4 0.0000 0.0000 0.0000 26.7841 0.0000 0.0000
# 5 0.0000 0.0000 0.0000 0.0000 24.1202 0.0000
# 6 0.0000 0.0000 0.0000 0.0000 0.0000 13.8668
#
#
#
# Elastic Compliance Matrix: (Units=1/GPa)
#
#
# Indices 1 2 3 4 5 6 
#
# 1 0.009756 -0.005300 -0.001629 0.000000 0.000000 0.000000
# 2 -0.005300 0.013340 -0.003523 0.000000 0.000000 0.000000
# 3 -0.001629 -0.003523 0.012365 0.000000 0.000000 0.000000
# 4 0.000000 0.000000 0.000000 0.037336 0.000000 0.000000
# 5 0.000000 0.000000 0.000000 0.000000 0.041459 0.000000
# 6 0.000000 0.000000 0.000000 0.000000 0.000000 0.072115
#
#
# Mechanical properties :
#
#
# Convention : Reuss Voigt Hill
#
# Bulk Modulus (GPa) = 68.68986 72.53060 70.61023
# Shear Modulus (GPa) = 23.57092 26.86058 25.21575
#
# Velocity S-wave (km/s) = 3.71843 3.96944 3.84599
# Velocity P-wave (km/s) = 7.66351 7.97216 7.81935
#
# Compressibility (1/GPa) = 0.01455819
#
# Stress axis : x y z
#
# Youngs Moduli (GPa) = 102.50350 74.96118 80.87400
#
# Poissons Ratio (x) = 0.39729 0.13173
# Poissons Ratio (y) = 0.54326 0.28488
# Poissons Ratio (z) = 0.16697 0.26405
#
# Static dielectric constant tensor:
#      x y z
#    x 2.905040 0.000000 0.000000 
#    y 0.000000 3.225270 0.000000 
#    z 0.000000 0.000000 3.454860 
# 
# 
# High freq. dielectric constant tensor:
#      x y z
#    x 1.638330 0.000000 0.000000 
#    y 0.000000 1.663030 0.000000 
#    z 0.000000 0.000000 1.659910 
# 
# From -- ./inp_files/11510.got.cif
#   From: 2010.03.12/outbox.cif.g09.slc.cpg/sg73_6_cif.got.tgz:11510.got - 2010.04.16 15:25:48.
