data_PCOD8295838
_publ_section_title
;
Structure prediction by ZEFSAII (Michael W. Deem and Ramdas Pophale) SiO2 
 PCOD8295838
Probable space group: I B C A 
;
_chemical_formula_sum "Si O2"
_cell_formula_units_Z 88
_cell_length_a 8.520509
_cell_length_b 23.173261
_cell_length_c 23.208431
_cell_angle_alpha 90.000000
_cell_angle_beta 90.000000
_cell_angle_gamma 90.000000
_cell_volume 4582.457795
_symmetry_space_group_name_H-M "I B C A "
_symmetry_group_IT_number 73
_symmetry_cell_setting 'orthorhombic'
loop_
_space_group_symop_operation_xyz
x,y,z
-x,1/2-y,z
x,-y,1/2-z
1/2-x,y,-z
-x,-y,-z
x,1/2+y,-z
-x,y,1/2+z
1/2+x,-y,z
1/2+x,1/2+y,1/2+z
1/2-x,-y,1/2+z
1/2+x,1/2-y,-z
-x,1/2+y,1/2-z
1/2-x,1/2-y,1/2-z
1/2+x,y,1/2-z
1/2-x,1/2+y,z
x,1/2-y,1/2+z
loop_
_atom_site_type_symbol
_atom_site_label
_atom_site_fract_x
_atom_site_fract_y
_atom_site_fract_z
Si Si1 0.881829 0.198176 0.450677
Si Si2 0.364322 0.060797 0.183920
Si Si3 0.230087 0.189708 0.823603
Si Si4 0.750000 0.508228 0.000000
Si Si5 0.495241 0.930556 0.438377
Si Si6 0.000000 0.250000 0.736089
Si Si7 0.612035 0.500000 0.750000
O O1 0.750000 0.194533 0.500000
O O2 0.803820 0.211088 0.388512
O O3 0.000000 0.250000 0.466143
O O4 0.977764 0.138202 0.447231
O O5 0.282627 0.121974 0.182373
O O6 0.449214 0.047444 0.124413
O O7 0.500594 0.053871 0.232156
O O8 0.221549 0.016812 0.195932
O O9 0.405187 0.207897 0.806380
O O10 0.110574 0.214340 0.777502
O O11 0.616209 0.464786 0.019145
O O12 0.824783 0.550629 0.048556
#
# Coordination Sequence:
#
# PCOD8295838 Si02
#       7
#    16  16  16   8  16   8   8
#     4  11  24  41  60  87 124 158 200 247 300 357
#     4  10  20  35  56  82 116 146 188 230 286 343
#     4  10  21  38  60  85 115 153 191 245 286 348
#     4  10  20  38  60  84 112 148 196 236 294 346
#     4  10  21  38  60  85 115 153 191 245 286 348
#     4  10  20  38  60  84 112 148 196 236 294 346
#     4  10  20  34  56  86 116 154 180 234 292 346
#
# _framework density 19.203668
#
# number of rings (size 3 to 8) (size 9 to 14) (size 15 to 20)
#    0.000    1.818    1.818    2.182    2.545    0.000 
#    0.000    0.000    0.000    0.000    0.000    0.000 
#    0.000    0.000    0.000    0.000    0.000    0.000 
#
# Total GULP energy -545365.501229 kJ/mol
# GULP energy per Si atom -12394.670482 kJ/mol
# Density = 1.915996 g / cm^3
# Si number density = 19.203668 Si / 1000 Ang^3
#
#
#
# Elastic Constant Matrix: (Units=GPa)
#
#
# Indices 1 2 3 4 5 6 
#
# 1 86.2318 28.5277 25.5938 0.0000 0.0000 0.0000
# 2 28.5277 68.5806 17.0109 0.0000 0.0000 0.0000
# 3 25.5938 17.0109 79.9651 0.0000 0.0000 0.0000
# 4 0.0000 0.0000 0.0000 29.3166 0.0000 0.0000
# 5 0.0000 0.0000 0.0000 0.0000 34.4977 0.0000
# 6 0.0000 0.0000 0.0000 0.0000 0.0000 35.2594
#
#
#
# Elastic Compliance Matrix: (Units=1/GPa)
#
#
# Indices 1 2 3 4 5 6 
#
# 1 0.014319 -0.005088 -0.003501 0.000000 0.000000 0.000000
# 2 -0.005088 0.017202 -0.002031 0.000000 0.000000 0.000000
# 3 -0.003501 -0.002031 0.014058 0.000000 0.000000 0.000000
# 4 0.000000 0.000000 0.000000 0.034110 0.000000 0.000000
# 5 0.000000 0.000000 0.000000 0.000000 0.028987 0.000000
# 6 0.000000 0.000000 0.000000 0.000000 0.000000 0.028361
#
#
# Mechanical properties :
#
#
# Convention : Reuss Voigt Hill
#
# Bulk Modulus (GPa) = 41.08530 41.89359 41.48944
# Shear Modulus (GPa) = 30.05003 30.72442 30.38722
#
# Velocity S-wave (km/s) = 3.96006 4.00424 3.98221
# Velocity P-wave (km/s) = 6.50771 6.57582 6.54186
#
# Compressibility (1/GPa) = 0.02433961
#
# Stress axis : x y z
#
# Youngs Moduli (GPa) = 69.83793 58.13426 71.13456
#
# Poissons Ratio (x) = 0.29579 0.24901
# Poissons Ratio (y) = 0.35533 0.14446
# Poissons Ratio (z) = 0.24447 0.11806
#
# Static dielectric constant tensor:
#      x y z
#    x 3.688180 0.000000 0.000000 
#    y 0.000000 3.684300 0.000000 
#    z 0.000000 0.000000 3.667320 
# 
# 
# High freq. dielectric constant tensor:
#      x y z
#    x 1.754560 0.000000 0.000000 
#    y 0.000000 1.748040 0.000000 
#    z 0.000000 0.000000 1.750740 
# 
# From -- ./inp_files/7089.got.cif
#   From: 2010.03.12/outbox.cif.g09.slc.cpg/sg73_4_cif.got.tgz:7089.got - 2010.04.16 15:25:48.
