data_PCOD8295416
_publ_section_title
;
Structure prediction by ZEFSAII (Michael W. Deem and Ramdas Pophale) SiO2 
 PCOD8295416
Probable space group: I B A M
;
_chemical_formula_sum "Si O2"
_cell_formula_units_Z 64
_cell_length_a 10.334792
_cell_length_b 8.646546
_cell_length_c 32.311889
_cell_angle_alpha 90.000000
_cell_angle_beta 90.000000
_cell_angle_gamma 90.000000
_cell_volume 2887.398622
_symmetry_space_group_name_H-M "I B A M"
_symmetry_group_IT_number 72
_symmetry_cell_setting 'orthorhombic'
loop_
_space_group_symop_operation_xyz
x,y,z
-x,-y,z
x,-y,1/2-z
-x,y,1/2-z
-x,-y,-z
x,y,-z
-x,y,1/2+z
x,-y,1/2+z
1/2+x,1/2+y,1/2+z
1/2-x,1/2-y,1/2+z
1/2+x,1/2-y,-z
1/2-x,1/2+y,-z
1/2-x,1/2-y,1/2-z
1/2+x,1/2+y,1/2-z
1/2-x,1/2+y,z
1/2+x,1/2-y,z
loop_
_atom_site_type_symbol
_atom_site_label
_atom_site_fract_x
_atom_site_fract_y
_atom_site_fract_z
Si Si1 0.879543 0.601357 0.674316
Si Si2 0.634875 0.562645 0.796058
Si Si3 0.364323 0.431694 0.952561
Si Si4 0.878213 0.599006 0.579626
O O1 0.751140 0.497889 0.675873
O O2 0.900635 0.652107 0.626928
O O3 0.000000 0.500000 0.690551
O O4 0.866692 0.751219 0.703460
O O5 0.500000 0.500000 0.814611
O O6 0.655139 0.500000 0.750000
O O7 0.500000 0.500000 0.936660
O O8 0.251175 0.498057 0.923921
O O9 0.367030 0.247502 0.949244
O O10 0.338689 0.479020 0.000000
O O11 0.000000 0.500000 0.563799
#
# Coordination Sequence:
#
# PCOD8295416 Si02
#       4
#    16  16  16  16
#     4  11  24  42  66  94 126 165 209 258 313 372
#     4  11  24  42  64  94 127 164 207 256 313 374
#     4  11  24  41  63  91 125 166 210 258 313 372
#     4  11  24  41  64  94 126 164 210 260 312 371
#
# _framework density 22.165279000000002
#
# number of rings (size 3 to 8) (size 9 to 14) (size 15 to 20)
#    0.000    1.000    0.000    6.000    0.000   14.500 
#    0.000    0.000    0.000    0.000    0.000    0.000 
#    0.000    0.000    0.000    0.000    0.000    0.000 
#
# Total GULP energy -397088.215156 kJ/mol
# GULP energy per Si atom -12409.006724 kJ/mol
# Density = 2.211483 g / cm^3
# Si number density = 22.165279 Si / 1000 Ang^3
#
#
#
# Elastic Constant Matrix: (Units=GPa)
#
#
# Indices 1 2 3 4 5 6 
#
# 1 181.1616 66.3524 17.0608 0.0000 0.0000 0.0000
# 2 66.3524 162.2922 26.1068 0.0000 0.0000 0.0000
# 3 17.0608 26.1068 62.2753 0.0000 0.0000 0.0000
# 4 0.0000 0.0000 0.0000 28.5633 0.0000 0.0000
# 5 0.0000 0.0000 0.0000 0.0000 161.1573 0.0000
# 6 0.0000 0.0000 0.0000 0.0000 0.0000 46.3078
#
#
#
# Elastic Compliance Matrix: (Units=1/GPa)
#
#
# Indices 1 2 3 4 5 6 
#
# 1 0.006522 -0.002551 -0.000717 0.000000 0.000000 0.000000
# 2 -0.002551 0.007605 -0.002489 0.000000 0.000000 0.000000
# 3 -0.000717 -0.002489 0.017298 0.000000 0.000000 0.000000
# 4 0.000000 0.000000 0.000000 0.035010 0.000000 0.000000
# 5 0.000000 0.000000 0.000000 0.000000 0.006205 0.000000
# 6 0.000000 0.000000 0.000000 0.000000 0.000000 0.021595
#
#
# Mechanical properties :
#
#
# Convention : Reuss Voigt Hill
#
# Bulk Modulus (GPa) = 50.22721 69.41876 59.82298
# Shear Modulus (GPa) = 44.48943 66.95295 55.72119
#
# Velocity S-wave (km/s) = 4.48500 5.50198 5.01932
# Velocity P-wave (km/s) = 7.03774 8.47048 7.78713
#
# Compressibility (1/GPa) = 0.01990953
#
# Stress axis : x y z
#
# Youngs Moduli (GPa) = 153.33122 131.48990 57.81081
#
# Poissons Ratio (x) = 0.33544 0.04147
# Poissons Ratio (y) = 0.39115 0.14391
# Poissons Ratio (z) = 0.10998 0.32732
#
# Static dielectric constant tensor:
#      x y z
#    x 3.956440 0.000000 0.000000 
#    y 0.000000 3.940630 0.000000 
#    z 0.000000 0.000000 3.651260 
# 
# 
# High freq. dielectric constant tensor:
#      x y z
#    x 1.891630 0.000000 0.000000 
#    y 0.000000 1.880420 0.000000 
#    z 0.000000 0.000000 1.865350 
# 
# From -- ./inp_files/51136.got.cif
#   From: 2010.03.12/outbox.cif.g09.slc.cpg/sg72_26_cif.got.tgz:51136.got - 2010.04.16 14:54:00.
