data_PCOD8295276
_publ_section_title
;
Structure prediction by ZEFSAII (Michael W. Deem and Ramdas Pophale) SiO2 
 PCOD8295276
Probable space group: I B A M
;
_chemical_formula_sum "Si O2"
_cell_formula_units_Z 96
_cell_length_a 23.506116
_cell_length_b 24.119151
_cell_length_c 8.774352
_cell_angle_alpha 90.000000
_cell_angle_beta 90.000000
_cell_angle_gamma 90.000000
_cell_volume 4974.597468
_symmetry_space_group_name_H-M "I B A M"
_symmetry_group_IT_number 72
_symmetry_cell_setting 'orthorhombic'
loop_
_space_group_symop_operation_xyz
x,y,z
-x,-y,z
x,-y,1/2-z
-x,y,1/2-z
-x,-y,-z
x,y,-z
-x,y,1/2+z
x,-y,1/2+z
1/2+x,1/2+y,1/2+z
1/2-x,1/2-y,1/2+z
1/2+x,1/2-y,-z
1/2-x,1/2+y,-z
1/2-x,1/2-y,1/2-z
1/2+x,1/2+y,1/2-z
1/2-x,1/2+y,z
1/2+x,1/2-y,z
loop_
_atom_site_type_symbol
_atom_site_label
_atom_site_fract_x
_atom_site_fract_y
_atom_site_fract_z
Si Si1 0.640075 0.651421 0.678061
Si Si2 0.939069 0.059300 0.818452
Si Si3 0.060321 0.374487 0.818839
Si Si4 0.240417 0.340255 0.173443
Si Si5 0.162609 0.445005 0.170434
Si Si6 0.633184 0.774958 0.679548
O O1 0.631295 0.638498 0.500000
O O2 0.607597 0.605255 0.775862
O O3 0.706507 0.654344 0.714683
O O4 0.616278 0.712317 0.723215
O O5 0.000000 0.077152 0.750000
O O6 0.920151 0.000000 0.750000
O O7 0.943754 0.054468 0.000000
O O8 0.104184 0.420968 0.758127
O O9 0.083254 0.314817 0.758208
O O10 0.000000 0.388441 0.750000
O O11 0.056680 0.374282 0.000000
O O12 0.211689 0.399990 0.178520
O O13 0.195948 0.294046 0.239528
O O14 0.259868 0.326390 0.000000
O O15 0.184803 0.500000 0.250000
O O16 0.148896 0.462234 0.000000
O O17 0.637986 0.783664 0.500000
#
# Coordination Sequence:
#
# PCOD8295276 Si02
#       6
#    16  16  16  16  16  16
#     4  11  21  34  56  86 112 140 177 217 261 320
#     4  11  23  42  63  83 109 141 175 217 265 316
#     4   9  18  34  52  73 101 137 175 217 264 310
#     4   9  18  35  54  75 106 145 182 224 271 313
#     4   9  19  34  52  72 101 137 175 218 266 312
#     4   8  17  34  54  75 107 144 180 222 269 314
#
# _framework density 19.298044000000001
#
# number of rings (size 3 to 8) (size 9 to 14) (size 15 to 20)
#    0.000    2.500    0.000    5.000    0.000    3.000 
#    0.000   10.000    0.000    0.000    0.000    0.000 
#    0.000    0.000    0.000    0.000    0.000    0.000 
#
# Total GULP energy -594979.520462 kJ/mol
# GULP energy per Si atom -12395.406676 kJ/mol
# Density = 1.925412 g / cm^3
# Si number density = 19.298044 Si / 1000 Ang^3
#
#
#
# Elastic Constant Matrix: (Units=GPa)
#
#
# Indices 1 2 3 4 5 6 
#
# 1 34.2133 0.0220 11.3712 0.0000 0.0000 0.0000
# 2 0.0220 85.6962 32.0900 0.0000 0.0000 0.0000
# 3 11.3712 32.0900 67.6492 0.0000 0.0000 0.0000
# 4 0.0000 0.0000 0.0000 23.8071 0.0000 0.0000
# 5 0.0000 0.0000 0.0000 0.0000 30.8623 0.0000
# 6 0.0000 0.0000 0.0000 0.0000 0.0000 17.3828
#
#
#
# Elastic Compliance Matrix: (Units=1/GPa)
#
#
# Indices 1 2 3 4 5 6 
#
# 1 0.031355 0.002390 -0.006404 0.000000 0.000000 0.000000
# 2 0.002390 0.014372 -0.007219 0.000000 0.000000 0.000000
# 3 -0.006404 -0.007219 0.019283 0.000000 0.000000 0.000000
# 4 0.000000 0.000000 0.000000 0.042004 0.000000 0.000000
# 5 0.000000 0.000000 0.000000 0.000000 0.032402 0.000000
# 6 0.000000 0.000000 0.000000 0.000000 0.000000 0.057528
#
#
# Mechanical properties :
#
#
# Convention : Reuss Voigt Hill
#
# Bulk Modulus (GPa) = 23.50525 30.50277 27.00401
# Shear Modulus (GPa) = 21.40477 24.01548 22.71013
#
# Velocity S-wave (km/s) = 3.33403 3.53151 3.43419
# Velocity P-wave (km/s) = 5.19881 5.69817 5.45421
#
# Compressibility (1/GPa) = 0.04254369
#
# Stress axis : x y z
#
# Youngs Moduli (GPa) = 31.89238 69.58055 51.85884
#
# Poissons Ratio (x) = -0.16631 0.33212
# Poissons Ratio (y) = -0.07623 0.37438
# Poissons Ratio (z) = 0.20425 0.50231
#
# Static dielectric constant tensor:
#      x y z
#    x 3.518880 0.000000 0.000000 
#    y 0.000000 3.732690 0.000000 
#    z 0.000000 0.000000 3.402770 
# 
# 
# High freq. dielectric constant tensor:
#      x y z
#    x 1.746280 0.000000 0.000000 
#    y 0.000000 1.760520 0.000000 
#    z 0.000000 0.000000 1.733380 
# 
# From -- ./inp_files/6963.got.cif
#   From: 2010.03.12/outbox.cif.g09.slc.cpg/sg72_4_cif.got.tgz:6963.got - 2010.04.16 14:54:00.
