data_PCOD8295075
_publ_section_title
;
Structure prediction by ZEFSAII (Michael W. Deem and Ramdas Pophale) SiO2 
 PCOD8295075
Probable space group: I B A M
;
_chemical_formula_sum "Si O2"
_cell_formula_units_Z 56
_cell_length_a 5.090795
_cell_length_b 32.333134
_cell_length_c 14.642333
_cell_angle_alpha 90.000000
_cell_angle_beta 90.000000
_cell_angle_gamma 90.000000
_cell_volume 2410.147880
_symmetry_space_group_name_H-M "I B A M"
_symmetry_group_IT_number 72
_symmetry_cell_setting 'orthorhombic'
loop_
_space_group_symop_operation_xyz
x,y,z
-x,-y,z
x,-y,1/2-z
-x,y,1/2-z
-x,-y,-z
x,y,-z
-x,y,1/2+z
x,-y,1/2+z
1/2+x,1/2+y,1/2+z
1/2-x,1/2-y,1/2+z
1/2+x,1/2-y,-z
1/2-x,1/2+y,-z
1/2-x,1/2-y,1/2-z
1/2+x,1/2+y,1/2-z
1/2-x,1/2+y,z
1/2+x,1/2-y,z
loop_
_atom_site_type_symbol
_atom_site_label
_atom_site_fract_x
_atom_site_fract_y
_atom_site_fract_z
Si Si1 0.409630 0.342875 0.649448
Si Si2 0.246664 0.518741 0.351097
Si Si3 0.905870 0.607984 0.896732
Si Si4 0.137340 0.222812 0.000000
O O1 0.500000 0.329028 0.750000
O O2 0.667219 0.359895 0.599247
O O3 0.310019 0.303928 0.591109
O O4 0.165500 0.375362 0.656132
O O5 0.500000 0.500000 0.403009
O O6 0.250782 0.500000 0.250000
O O7 0.219947 0.568115 0.346974
O O8 0.000000 0.500000 0.405608
O O9 0.992941 0.597696 0.000000
O O10 0.342128 0.260235 0.000000
#
# Coordination Sequence:
#
# PCOD8295075 Si02
#       4
#    16  16  16   8
#     4  12  27  46  76 114 143 196 249 291 378 454
#     4  10  23  38  60  96 140 188 248 297 372 402
#     4  12  24  45  72 102 152 195 250 314 365 443
#     4  12  26  50  80 110 156 182 232 316 374 446
#
# _framework density 23.235091000000001
#
# number of rings (size 3 to 8) (size 9 to 14) (size 15 to 20)
#    0.000    0.571    2.857    4.286   12.000    2.286 
#    0.000    0.000    0.000    0.000    0.000    0.000 
#    0.000    0.000    0.000    0.000    0.000    0.000 
#
# Total GULP energy -347103.755388 kJ/mol
# GULP energy per Si atom -12396.562692 kJ/mol
# Density = 2.318221 g / cm^3
# Si number density = 23.235091 Si / 1000 Ang^3
#
#
#
# Elastic Constant Matrix: (Units=GPa)
#
#
# Indices 1 2 3 4 5 6 
#
# 1 188.0035 41.0625 17.5768 0.0000 0.0000 0.0000
# 2 41.0625 117.8267 50.7750 0.0000 0.0000 0.0000
# 3 17.5768 50.7750 122.4590 0.0000 0.0000 0.0000
# 4 0.0000 0.0000 0.0000 27.8711 0.0000 0.0000
# 5 0.0000 0.0000 0.0000 0.0000 24.0942 0.0000
# 6 0.0000 0.0000 0.0000 0.0000 0.0000 49.0062
#
#
#
# Elastic Compliance Matrix: (Units=1/GPa)
#
#
# Indices 1 2 3 4 5 6 
#
# 1 0.005757 -0.002009 0.000007 0.000000 0.000000 0.000000
# 2 -0.002009 0.011035 -0.004287 0.000000 0.000000 0.000000
# 3 0.000007 -0.004287 0.009942 0.000000 0.000000 0.000000
# 4 0.000000 0.000000 0.000000 0.035879 0.000000 0.000000
# 5 0.000000 0.000000 0.000000 0.000000 0.041504 0.000000
# 6 0.000000 0.000000 0.000000 0.000000 0.000000 0.020406
#
#
# Mechanical properties :
#
#
# Convention : Reuss Voigt Hill
#
# Bulk Modulus (GPa) = 70.64371 71.90198 71.27284
# Shear Modulus (GPa) = 35.25581 41.45262 38.35422
#
# Velocity S-wave (km/s) = 3.89955 4.22839 4.06729
# Velocity P-wave (km/s) = 7.12356 7.40619 7.26625
#
# Compressibility (1/GPa) = 0.01415554
#
# Stress axis : x y z
#
# Youngs Moduli (GPa) = 173.69313 90.62381 100.57847
#
# Poissons Ratio (x) = 0.18209 -0.00068
# Poissons Ratio (y) = 0.34901 0.43117
# Poissons Ratio (z) = -0.00118 0.38849
#
# Static dielectric constant tensor:
#      x y z
#    x 2.785450 0.000000 0.000000 
#    y 0.000000 4.011190 0.000000 
#    z 0.000000 0.000000 3.896010 
# 
# 
# High freq. dielectric constant tensor:
#      x y z
#    x 1.949970 0.000000 0.000000 
#    y 0.000000 1.906310 0.000000 
#    z 0.000000 0.000000 1.913620 
# 
# From -- ./inp_files/17549.got.cif
#   From: 2010.03.12/outbox.cif.g09.slc.cpg/sg72_9_cif.got.tgz:17549.got - 2010.04.16 14:54:00.
