data_PCOD8295760
_publ_section_title
;
Structure prediction by ZEFSAII (Michael W. Deem and Ramdas Pophale) SiO2 
 PCOD8295760
Probable space group: I B C A 
;
_chemical_formula_sum "Si O2"
_cell_formula_units_Z 128
_cell_length_a 11.828641
_cell_length_b 24.446429
_cell_length_c 23.872194
_cell_angle_alpha 90.000000
_cell_angle_beta 90.000000
_cell_angle_gamma 90.000000
_cell_volume 6903.075367
_symmetry_space_group_name_H-M "I B C A "
_symmetry_group_IT_number 73
_symmetry_cell_setting 'orthorhombic'
loop_
_space_group_symop_operation_xyz
x,y,z
-x,1/2-y,z
x,-y,1/2-z
1/2-x,y,-z
-x,-y,-z
x,1/2+y,-z
-x,y,1/2+z
1/2+x,-y,z
1/2+x,1/2+y,1/2+z
1/2-x,-y,1/2+z
1/2+x,1/2-y,-z
-x,1/2+y,1/2-z
1/2-x,1/2-y,1/2-z
1/2+x,y,1/2-z
1/2-x,1/2+y,z
x,1/2-y,1/2+z
loop_
_atom_site_type_symbol
_atom_site_label
_atom_site_fract_x
_atom_site_fract_y
_atom_site_fract_z
Si Si1 0.254235 0.464177 0.433913
Si Si2 0.206830 0.083748 0.437499
Si Si3 0.053959 0.192902 0.840540
Si Si4 0.361482 0.834315 0.122313
Si Si5 0.452572 0.392667 0.564417
Si Si6 0.996708 0.314707 0.220611
Si Si7 0.192968 0.708352 0.861317
Si Si8 0.087316 0.870084 0.439051
O O1 0.250000 0.470214 0.500000
O O2 0.254100 0.526012 0.410388
O O3 0.140601 0.434838 0.411648
O O4 0.367822 0.429853 0.418025
O O5 0.250000 0.095907 0.500000
O O6 0.250104 0.131775 0.395440
O O7 0.072385 0.078094 0.442172
O O8 0.028057 0.155334 0.892398
O O9 0.185918 0.205434 0.832834
O O10 0.000000 0.250000 0.855626
O O11 0.001751 0.163881 0.784556
O O12 0.398663 0.842960 0.187139
O O13 0.341811 0.769162 0.119024
O O14 0.462633 0.854841 0.082298
O O15 0.411206 0.367374 0.505970
O O16 0.883854 0.323770 0.184560
O O17 0.000000 0.250000 0.226440
O O18 0.181270 0.673426 0.918245
#
# Coordination Sequence:
#
# PCOD8295760 Si02
#       8
#    16  16  16  16  16  16  16  16
#     4   9  21  35  57  79 109 153 189 237 279 336
#     4  11  22  36  56  87 116 144 190 248 283 330
#     4  11  22  35  56  87 119 148 187 243 282 330
#     4  10  20  36  57  84 113 153 191 227 289 344
#     4  11  22  37  54  88 116 147 197 228 290 344
#     4   8  19  36  57  81 109 153 193 228 273 340
#     4  10  20  37  57  84 117 153 190 223 286 357
#     4  10  19  37  56  80 115 154 188 224 283 362
#
# _framework density 18.542460999999999
#
# number of rings (size 3 to 8) (size 9 to 14) (size 15 to 20)
#    0.000    2.000    2.500    1.875    1.750    8.000 
#    2.250    0.000    0.000    0.750    0.000    0.000 
#    0.000    0.000    0.000    0.000    0.000    0.000 
#
# Total GULP energy -792975.318588 kJ/mol
# GULP energy per Si atom -12390.239353 kJ/mol
# Density = 1.850026 g / cm^3
# Si number density = 18.542461 Si / 1000 Ang^3
#
#
#
# Elastic Constant Matrix: (Units=GPa)
#
#
# Indices 1 2 3 4 5 6 
#
# 1 100.4317 29.1784 31.1108 0.0000 0.0000 0.0000
# 2 29.1784 95.1848 47.1128 0.0000 0.0000 0.0000
# 3 31.1108 47.1128 96.3746 0.0000 0.0000 0.0000
# 4 0.0000 0.0000 0.0000 4.2697 0.0000 0.0000
# 5 0.0000 0.0000 0.0000 0.0000 21.2625 0.0000
# 6 0.0000 0.0000 0.0000 0.0000 0.0000 28.6415
#
#
#
# Elastic Compliance Matrix: (Units=1/GPa)
#
#
# Indices 1 2 3 4 5 6 
#
# 1 0.011405 -0.002208 -0.002602 0.000000 0.000000 0.000000
# 2 -0.002208 0.014287 -0.006271 0.000000 0.000000 0.000000
# 3 -0.002602 -0.006271 0.014282 0.000000 0.000000 0.000000
# 4 0.000000 0.000000 0.000000 0.234209 0.000000 0.000000
# 5 0.000000 0.000000 0.000000 0.000000 0.047031 0.000000
# 6 0.000000 0.000000 0.000000 0.000000 0.000000 0.034914
#
#
# Mechanical properties :
#
#
# Convention : Reuss Voigt Hill
#
# Bulk Modulus (GPa) = 56.14734 56.31059 56.22897
# Shear Modulus (GPa) = 13.01311 23.14067 18.07689
#
# Velocity S-wave (km/s) = 2.65203 3.53651 3.12571
# Velocity P-wave (km/s) = 6.30268 6.86369 6.58916
#
# Compressibility (1/GPa) = 0.01781028
#
# Stress axis : x y z
#
# Youngs Moduli (GPa) = 87.68405 69.99455 70.01862
#
# Poissons Ratio (x) = 0.15455 0.18220
# Poissons Ratio (y) = 0.19361 0.43911
# Poissons Ratio (z) = 0.22816 0.43896
#
# Static dielectric constant tensor:
#      x y z
#    x 3.655200 0.000000 0.000000 
#    y 0.000000 3.451740 0.000000 
#    z 0.000000 0.000000 3.488610 
# 
# 
# High freq. dielectric constant tensor:
#      x y z
#    x 1.733390 0.000000 0.000000 
#    y 0.000000 1.703890 0.000000 
#    z 0.000000 0.000000 1.700390 
# 
# From -- ./inp_files/29144.got.cif
#   From: 2010.03.12/outbox.cif.g09.slc.cpg/sg73_15_cif.got.tgz:29144.got - 2010.04.16 15:25:48.
