data_PCOD8295196
_publ_section_title
;
Structure prediction by ZEFSAII (Michael W. Deem and Ramdas Pophale) SiO2 
 PCOD8295196
Probable space group: I B A M
;
_chemical_formula_sum "Si O2"
_cell_formula_units_Z 100
_cell_length_a 22.584554
_cell_length_b 9.442109
_cell_length_c 23.313977
_cell_angle_alpha 90.000000
_cell_angle_beta 90.000000
_cell_angle_gamma 90.000000
_cell_volume 4971.608156
_symmetry_space_group_name_H-M "I B A M"
_symmetry_group_IT_number 72
_symmetry_cell_setting 'orthorhombic'
loop_
_space_group_symop_operation_xyz
x,y,z
-x,-y,z
x,-y,1/2-z
-x,y,1/2-z
-x,-y,-z
x,y,-z
-x,y,1/2+z
x,-y,1/2+z
1/2+x,1/2+y,1/2+z
1/2-x,1/2-y,1/2+z
1/2+x,1/2-y,-z
1/2-x,1/2+y,-z
1/2-x,1/2-y,1/2-z
1/2+x,1/2+y,1/2-z
1/2-x,1/2+y,z
1/2+x,1/2-y,z
loop_
_atom_site_type_symbol
_atom_site_label
_atom_site_fract_x
_atom_site_fract_y
_atom_site_fract_z
Si Si1 0.711131 0.485986 0.500000
Si Si2 0.302344 0.346434 0.229842
Si Si3 0.423588 0.869126 0.909628
Si Si4 0.000000 0.000000 0.750000
Si Si5 0.554930 0.187851 0.434672
Si Si6 0.904015 0.834445 0.815318
Si Si7 0.856743 0.092744 0.114091
Si Si8 0.674437 0.805083 0.500000
O O1 0.679498 0.424160 0.555966
O O2 0.709721 0.656548 0.500000
O O3 0.779039 0.434464 0.500000
O O4 0.282377 0.500000 0.250000
O O5 0.250000 0.250000 0.250000
O O6 0.362515 0.303710 0.261431
O O7 0.314044 0.334268 0.161575
O O8 0.483726 0.799814 0.934660
O O9 0.416463 0.816011 0.844660
O O10 0.367231 0.815101 0.944764
O O11 0.425664 0.038036 0.908362
O O12 0.036375 0.899584 0.708475
O O13 0.577298 0.197212 0.500000
O O14 0.585224 0.311400 0.397553
O O15 0.876317 0.940879 0.862055
#
# Coordination Sequence:
#
# PCOD8295196 Si02
#       8
#     8  16  16   4  16  16  16   8
#     4  12  28  39  67  99 131 174 227 274 337 401
#     4  10  24  44  65  92 127 174 221 269 332 397
#     4  11  23  42  65  93 136 173 215 266 339 398
#     4  12  20  44  72 100 132 168 228 288 346 384
#     4  11  22  41  67  99 131 178 213 268 343 405
#     4  11  23  42  69  96 129 176 218 282 335 393
#     4  11  23  44  66  99 129 169 232 272 330 403
#     4  12  26  44  61  96 138 176 218 278 331 403
#
# _framework density 20.114215999999999
#
# number of rings (size 3 to 8) (size 9 to 14) (size 15 to 20)
#    0.000    0.960    6.400    1.440    4.480    1.280 
#    0.000    1.600    0.000    0.000    0.000    0.000 
#    0.000    0.000    0.000    0.000    0.000    0.000 
#
# Total GULP energy -620089.793580 kJ/mol
# GULP energy per Si atom -12401.795872 kJ/mol
# Density = 2.006844 g / cm^3
# Si number density = 20.114216 Si / 1000 Ang^3
#
#
#
# Elastic Constant Matrix: (Units=GPa)
#
#
# Indices 1 2 3 4 5 6 
#
# 1 126.3604 46.9759 48.9007 0.0000 0.0000 0.0000
# 2 46.9759 75.4428 40.6168 0.0000 0.0000 0.0000
# 3 48.9007 40.6168 139.2809 0.0000 0.0000 0.0000
# 4 0.0000 0.0000 0.0000 39.2278 0.0000 0.0000
# 5 0.0000 0.0000 0.0000 0.0000 15.7173 0.0000
# 6 0.0000 0.0000 0.0000 0.0000 0.0000 32.9302
#
#
#
# Elastic Compliance Matrix: (Units=1/GPa)
#
#
# Indices 1 2 3 4 5 6 
#
# 1 0.010827 -0.005569 -0.002177 0.000000 0.000000 0.000000
# 2 -0.005569 0.018589 -0.003465 0.000000 0.000000 0.000000
# 3 -0.002177 -0.003465 0.008955 0.000000 0.000000 0.000000
# 4 0.000000 0.000000 0.000000 0.025492 0.000000 0.000000
# 5 0.000000 0.000000 0.000000 0.000000 0.063624 0.000000
# 6 0.000000 0.000000 0.000000 0.000000 0.000000 0.030367
#
#
# Mechanical properties :
#
#
# Convention : Reuss Voigt Hill
#
# Bulk Modulus (GPa) = 62.71029 68.23011 65.47020
# Shear Modulus (GPa) = 26.94066 31.21444 29.07755
#
# Velocity S-wave (km/s) = 3.66373 3.94364 3.80626
# Velocity P-wave (km/s) = 7.01014 7.39806 7.20671
#
# Compressibility (1/GPa) = 0.01594635
#
# Stress axis : x y z
#
# Youngs Moduli (GPa) = 92.36245 53.79612 111.67352
#
# Poissons Ratio (x) = 0.29962 0.24312
# Poissons Ratio (y) = 0.51441 0.38699
# Poissons Ratio (z) = 0.20108 0.18642
#
# Static dielectric constant tensor:
#      x y z
#    x 3.656680 0.000000 0.000000 
#    y 0.000000 3.652540 0.000000 
#    z 0.000000 0.000000 3.833300 
# 
# 
# High freq. dielectric constant tensor:
#      x y z
#    x 1.791160 0.000000 0.000000 
#    y 0.000000 1.780740 0.000000 
#    z 0.000000 0.000000 1.795980 
# 
# From -- ./inp_files/49459.got.cif
#   From: 2010.03.12/outbox.cif.g09.slc.cpg/sg72_25_cif.got.tgz:49459.got - 2010.04.16 14:54:00.
