data_PCOD8295921
_publ_section_title
;
Structure prediction by ZEFSAII (Michael W. Deem and Ramdas Pophale) SiO2 
 PCOD8295921
Probable space group: I B C A 
;
_chemical_formula_sum "Si O2"
_cell_formula_units_Z 96
_cell_length_a 27.487162
_cell_length_b 9.953506
_cell_length_c 17.970017
_cell_angle_alpha 90.000000
_cell_angle_beta 90.000000
_cell_angle_gamma 90.000000
_cell_volume 4916.482216
_symmetry_space_group_name_H-M "I B C A "
_symmetry_group_IT_number 73
_symmetry_cell_setting 'orthorhombic'
loop_
_space_group_symop_operation_xyz
x,y,z
-x,1/2-y,z
x,-y,1/2-z
1/2-x,y,-z
-x,-y,-z
x,1/2+y,-z
-x,y,1/2+z
1/2+x,-y,z
1/2+x,1/2+y,1/2+z
1/2-x,-y,1/2+z
1/2+x,1/2-y,-z
-x,1/2+y,1/2-z
1/2-x,1/2-y,1/2-z
1/2+x,y,1/2-z
1/2-x,1/2+y,z
x,1/2-y,1/2+z
loop_
_atom_site_type_symbol
_atom_site_label
_atom_site_fract_x
_atom_site_fract_y
_atom_site_fract_z
Si Si1 0.711119 0.852402 0.214075
Si Si2 0.529618 0.874958 0.707477
Si Si3 0.028943 0.878488 0.967338
Si Si4 0.359556 0.876756 0.203683
Si Si5 0.641698 0.875924 0.530695
Si Si6 0.299938 0.111490 0.957577
O O1 0.750000 0.750000 0.250000
O O2 0.661422 0.769389 0.224162
O O3 0.717822 0.880295 0.127149
O O4 0.709723 0.000000 0.250000
O O5 0.500000 0.750000 0.738411
O O6 0.524467 0.891238 0.620305
O O7 0.585475 0.859724 0.730006
O O8 0.506049 0.000000 0.750000
O O9 0.085129 0.875660 0.993580
O O10 0.000000 0.750000 0.997320
O O11 0.000000 0.000000 0.000000
O O12 0.352823 0.916270 0.117223
O O13 0.334926 0.000000 0.250000
O O14 0.662943 0.727912 0.518693
O O15 0.672303 0.973783 0.477250
O O16 0.250000 0.125061 0.000000
#
# Coordination Sequence:
#
# PCOD8295921 Si02
#       6
#    16  16  16  16  16  16
#     4  11  26  41  63  88 118 157 203 250 302 366
#     4   9  19  36  58  85 121 159 200 248 302 356
#     4  10  20  37  61  87 121 158 199 252 303 361
#     4   9  20  39  61  86 119 158 200 254 305 359
#     4  10  22  39  60  90 119 159 205 250 308 367
#     4  11  25  40  63  87 124 161 202 254 306 360
#
# _framework density 19.526157000000001
#
# number of rings (size 3 to 8) (size 9 to 14) (size 15 to 20)
#    0.000    2.000    0.000    2.000    9.333    2.667 
#    0.000    3.333    0.000    0.000    0.000    0.000 
#    0.000    0.000    0.000    0.000    0.000    0.000 
#
# Total GULP energy -594989.127157 kJ/mol
# GULP energy per Si atom -12395.606816 kJ/mol
# Density = 1.948171 g / cm^3
# Si number density = 19.526157 Si / 1000 Ang^3
#
#
#
# Elastic Constant Matrix: (Units=GPa)
#
#
# Indices 1 2 3 4 5 6 
#
# 1 110.4596 56.5541 50.8528 0.0000 0.0000 0.0000
# 2 56.5541 157.6719 64.1777 0.0000 0.0000 0.0000
# 3 50.8528 64.1777 68.5327 0.0000 0.0000 0.0000
# 4 0.0000 0.0000 0.0000 37.8857 0.0000 0.0000
# 5 0.0000 0.0000 0.0000 0.0000 20.6630 0.0000
# 6 0.0000 0.0000 0.0000 0.0000 0.0000 36.5742
#
#
#
# Elastic Compliance Matrix: (Units=1/GPa)
#
#
# Indices 1 2 3 4 5 6 
#
# 1 0.013907 -0.001273 -0.009127 0.000000 0.000000 0.000000
# 2 -0.001273 0.010365 -0.008762 0.000000 0.000000 0.000000
# 3 -0.009127 -0.008762 0.029569 0.000000 0.000000 0.000000
# 4 0.000000 0.000000 0.000000 0.026395 0.000000 0.000000
# 5 0.000000 0.000000 0.000000 0.000000 0.048396 0.000000
# 6 0.000000 0.000000 0.000000 0.000000 0.000000 0.027342
#
#
# Mechanical properties :
#
#
# Convention : Reuss Voigt Hill
#
# Bulk Modulus (GPa) = 64.44457 75.53704 69.99080
# Shear Modulus (GPa) = 25.06644 30.02989 27.54816
#
# Velocity S-wave (km/s) = 3.58681 3.92590 3.76018
# Velocity P-wave (km/s) = 7.08728 7.70190 7.40097
#
# Compressibility (1/GPa) = 0.01551721
#
# Stress axis : x y z
#
# Youngs Moduli (GPa) = 71.90788 96.47518 33.81915
#
# Poissons Ratio (x) = 0.12283 0.30866
# Poissons Ratio (y) = 0.09155 0.29632
# Poissons Ratio (z) = 0.65629 0.84531
#
# Static dielectric constant tensor:
#      x y z
#    x 3.762490 0.000000 0.000000 
#    y 0.000000 3.911910 0.000000 
#    z 0.000000 0.000000 3.512760 
# 
# 
# High freq. dielectric constant tensor:
#      x y z
#    x 1.771050 0.000000 0.000000 
#    y 0.000000 1.774440 0.000000 
#    z 0.000000 0.000000 1.755820 
# 
# From -- ./inp_files/27512.got.cif
#   From: 2010.03.12/outbox.cif.g09.slc.cpg/sg73_14_cif.got.tgz:27512.got - 2010.04.16 15:25:48.
