data_PCOD8295809
_publ_section_title
;
Structure prediction by ZEFSAII (Michael W. Deem and Ramdas Pophale) SiO2 
 PCOD8295809
Probable space group: I B C A 
;
_chemical_formula_sum "Si O2"
_cell_formula_units_Z 96
_cell_length_a 17.319184
_cell_length_b 27.299198
_cell_length_c 8.596033
_cell_angle_alpha 90.000000
_cell_angle_beta 90.000000
_cell_angle_gamma 90.000000
_cell_volume 4064.202969
_symmetry_space_group_name_H-M "I B C A "
_symmetry_group_IT_number 73
_symmetry_cell_setting 'orthorhombic'
loop_
_space_group_symop_operation_xyz
x,y,z
-x,1/2-y,z
x,-y,1/2-z
1/2-x,y,-z
-x,-y,-z
x,1/2+y,-z
-x,y,1/2+z
1/2+x,-y,z
1/2+x,1/2+y,1/2+z
1/2-x,-y,1/2+z
1/2+x,1/2-y,-z
-x,1/2+y,1/2-z
1/2-x,1/2-y,1/2-z
1/2+x,y,1/2-z
1/2-x,1/2+y,z
x,1/2-y,1/2+z
loop_
_atom_site_type_symbol
_atom_site_label
_atom_site_fract_x
_atom_site_fract_y
_atom_site_fract_z
Si Si1 0.936392 0.179797 0.584463
Si Si2 0.500000 0.250000 0.663296
Si Si3 0.083436 0.377520 0.053427
Si Si4 0.207212 0.550004 0.335903
Si Si5 0.691838 0.695542 0.189080
Si Si6 0.679889 0.371735 0.734092
Si Si7 0.750000 0.280825 0.000000
O O1 0.850382 0.155476 0.608143
O O2 0.942546 0.215948 0.437696
O O3 0.948362 0.212962 0.737641
O O4 0.991676 0.131070 0.569282
O O5 0.124016 0.422624 0.145376
O O6 0.112194 0.326504 0.128366
O O7 0.105416 0.383979 0.871982
O O8 0.187857 0.500000 0.250000
O O9 0.250000 0.541675 0.500000
O O10 0.267328 0.580768 0.228088
O O11 0.766069 0.664118 0.130080
O O12 0.694184 0.690606 0.379008
O O13 0.695634 0.749777 0.118117
#
# Coordination Sequence:
#
# PCOD8295809 Si02
#       7
#    16   8  16  16  16  16   8
#     4  11  22  38  55  86 122 166 207 238 288 331
#     4  10  24  36  56  80 126 172 204 244 272 348
#     4  10  20  39  60  81 118 155 192 240 300 352
#     4   9  20  43  69  92 113 146 189 246 315 375
#     4  10  20  34  51  79 109 148 193 242 292 336
#     4  10  20  39  60  81 118 155 192 240 300 352
#     4  10  20  30  54  80 106 146 196 252 282 334
#
# _framework density 23.620868000000002
#
# number of rings (size 3 to 8) (size 9 to 14) (size 15 to 20)
#    0.000    2.000    3.333    1.000    0.000    9.333 
#    9.000    0.833    0.000    4.000    0.000    0.000 
#    0.000    0.000    0.000    0.000    0.000    0.000 
#
# Total GULP energy -594775.015595 kJ/mol
# GULP energy per Si atom -12391.146158 kJ/mol
# Density = 2.356711 g / cm^3
# Si number density = 23.620868 Si / 1000 Ang^3
#
#
#
# Elastic Constant Matrix: (Units=GPa)
#
#
# Indices 1 2 3 4 5 6 
#
# 1 66.4502 6.7161 -12.2362 0.0005 0.0007 -0.0005
# 2 6.7161 104.2593 17.4955 0.0001 0.0003 -0.0001
# 3 -12.2362 17.4955 87.7562 -0.0018 -0.0018 0.0011
# 4 0.0005 0.0001 -0.0018 21.6793 -0.0004 0.0007
# 5 0.0007 0.0003 -0.0018 -0.0004 24.2240 -0.0001
# 6 -0.0005 -0.0001 0.0011 0.0007 -0.0001 4.3771
#
#
#
# Elastic Compliance Matrix: (Units=1/GPa)
#
#
# Indices 1 2 3 4 5 6 
#
# 1 0.015646 -0.001422 0.002465 0.000000 0.000000 0.000001
# 2 -0.001422 0.010053 -0.002202 0.000000 0.000000 0.000001
# 3 0.002465 -0.002202 0.012178 0.000001 0.000001 -0.000003
# 4 0.000000 0.000000 0.000001 0.046127 0.000001 -0.000007
# 5 0.000000 0.000000 0.000001 0.000001 0.041281 0.000001
# 6 0.000001 0.000001 -0.000003 -0.000007 0.000001 0.228464
#
#
# Mechanical properties :
#
#
# Convention : Reuss Voigt Hill
#
# Bulk Modulus (GPa) = 28.12200 31.37962 29.75081
# Shear Modulus (GPa) = 13.58991 26.48875 20.03933
#
# Velocity S-wave (km/s) = 2.40122 3.35238 2.91585
# Velocity P-wave (km/s) = 4.42936 5.31960 4.89476
#
# Compressibility (1/GPa) = 0.03555935
#
# Stress axis : x y z
#
# Youngs Moduli (GPa) = 63.91221 99.47657 82.11536
#
# Poissons Ratio (x) = 0.14141 -0.20242
# Poissons Ratio (y) = 0.09085 0.18085
# Poissons Ratio (z) = -0.15755 0.21908
#
# Static dielectric constant tensor:
#      x y z
#    x 4.106660 0.000000 0.000000 
#    y 0.000000 3.992670 0.000000 
#    z 0.000000 0.000000 4.293860 
# 
# 
# High freq. dielectric constant tensor:
#      x y z
#    x 1.937390 0.000000 0.000000 
#    y 0.000000 1.889870 0.000000 
#    z 0.000000 0.000000 1.948930 
# 
# From -- ./inp_files/6510.got.cif
#   From: 2010.03.12/outbox.cif.g09.slc.cpg/sg73_4_cif.got.tgz:6510.got - 2010.04.16 15:25:48.
