data_PCOD8295537
_publ_section_title
;
Structure prediction by ZEFSAII (Michael W. Deem and Ramdas Pophale) SiO2 
 PCOD8295537
Probable space group: I B C A 
;
_chemical_formula_sum "Si O2"
_cell_formula_units_Z 88
_cell_length_a 23.802301
_cell_length_b 5.236339
_cell_length_c 30.641458
_cell_angle_alpha 90.000000
_cell_angle_beta 90.000000
_cell_angle_gamma 90.000000
_cell_volume 3819.056858
_symmetry_space_group_name_H-M "I B C A "
_symmetry_group_IT_number 73
_symmetry_cell_setting 'orthorhombic'
loop_
_space_group_symop_operation_xyz
x,y,z
-x,1/2-y,z
x,-y,1/2-z
1/2-x,y,-z
-x,-y,-z
x,1/2+y,-z
-x,y,1/2+z
1/2+x,-y,z
1/2+x,1/2+y,1/2+z
1/2-x,-y,1/2+z
1/2+x,1/2-y,-z
-x,1/2+y,1/2-z
1/2-x,1/2-y,1/2-z
1/2+x,y,1/2-z
1/2-x,1/2+y,z
x,1/2-y,1/2+z
loop_
_atom_site_type_symbol
_atom_site_label
_atom_site_fract_x
_atom_site_fract_y
_atom_site_fract_z
Si Si1 0.000000 0.750000 0.775327
Si Si2 0.436092 0.230222 0.121816
Si Si3 0.896816 0.716723 0.333887
Si Si4 0.773503 0.772896 0.548075
Si Si5 0.098717 0.725758 0.028018
Si Si6 0.274400 0.740804 0.200594
O O1 0.978591 0.500000 0.750000
O O2 0.947829 0.849434 0.802598
O O3 0.500000 0.250000 0.140170
O O4 0.397962 0.479676 0.132231
O O5 0.441393 0.201921 0.069693
O O6 0.405103 0.983985 0.141594
O O7 0.841482 0.722891 0.303632
O O8 0.750000 0.836599 0.500000
O O9 0.740162 0.541979 0.572428
O O10 0.838579 0.709198 0.546652
O O11 0.086377 0.491418 0.995948
O O12 0.250000 0.750000 0.250000
O O13 0.247029 0.496475 0.176516
#
# Coordination Sequence:
#
# PCOD8295537 Si02
#       6
#     8  16  16  16  16  16
#     4  12  26  40  78 114 126 182 250 292 330 416
#     4  12  26  48  69  99 146 195 230 310 374 415
#     4  12  25  49  71 102 151 187 236 288 364 433
#     4  10  16  32  57  84 120 158 207 289 354 386
#     4  12  23  39  67  99 127 181 245 299 353 416
#     4  10  23  42  70 101 140 186 222 284 346 419
#
# _framework density 23.042338000000001
#
# number of rings (size 3 to 8) (size 9 to 14) (size 15 to 20)
#    0.000    0.727    5.455    3.273    5.091    0.727 
#    0.000    5.455    0.000    0.000    0.000    0.000 
#    0.000    0.000    0.000    0.000    0.000    0.000 
#
# Total GULP energy -545462.723201 kJ/mol
# GULP energy per Si atom -12396.880073 kJ/mol
# Density = 2.298989 g / cm^3
# Si number density = 23.042338 Si / 1000 Ang^3
#
#
#
# Elastic Constant Matrix: (Units=GPa)
#
#
# Indices 1 2 3 4 5 6 
#
# 1 134.4159 32.0545 31.9271 0.0000 0.0000 0.0000
# 2 32.0545 206.4947 27.4232 0.0000 0.0000 0.0000
# 3 31.9271 27.4232 72.8935 0.0000 0.0000 0.0000
# 4 0.0000 0.0000 0.0000 72.4864 0.0000 0.0000
# 5 0.0000 0.0000 0.0000 0.0000 21.8086 0.0000
# 6 0.0000 0.0000 0.0000 0.0000 0.0000 24.3765
#
#
#
# Elastic Compliance Matrix: (Units=1/GPa)
#
#
# Indices 1 2 3 4 5 6 
#
# 1 0.008447 -0.000863 -0.003375 0.000000 0.000000 0.000000
# 2 -0.000863 0.005186 -0.001573 0.000000 0.000000 0.000000
# 3 -0.003375 -0.001573 0.015789 0.000000 0.000000 0.000000
# 4 0.000000 0.000000 0.000000 0.013796 0.000000 0.000000
# 5 0.000000 0.000000 0.000000 0.000000 0.045853 0.000000
# 6 0.000000 0.000000 0.000000 0.000000 0.000000 0.041023
#
#
# Mechanical properties :
#
#
# Convention : Reuss Voigt Hill
#
# Bulk Modulus (GPa) = 56.18192 66.29040 61.23616
# Shear Modulus (GPa) = 33.86418 45.22760 39.54589
#
# Velocity S-wave (km/s) = 3.83776 4.43516 4.14723
# Velocity P-wave (km/s) = 6.63874 7.42017 7.04031
#
# Compressibility (1/GPa) = 0.01779932
#
# Stress axis : x y z
#
# Youngs Moduli (GPa) = 118.38417 192.84207 63.33661
#
# Poissons Ratio (x) = 0.16643 0.21377
# Poissons Ratio (y) = 0.10217 0.09962
# Poissons Ratio (z) = 0.39956 0.30331
#
# Static dielectric constant tensor:
#      x y z
#    x 4.089980 0.000000 0.000000 
#    y 0.000000 5.658610 0.000000 
#    z 0.000000 0.000000 3.853770 
# 
# 
# High freq. dielectric constant tensor:
#      x y z
#    x 1.907360 0.000000 0.000000 
#    y 0.000000 1.946950 0.000000 
#    z 0.000000 0.000000 1.880940 
# 
# From -- ./inp_files/33263.got.cif
#   From: 2010.03.12/outbox.cif.g09.slc.cpg/sg73_17_cif.got.tgz:33263.got - 2010.04.16 15:25:48.
