data_PCOD8295902
_publ_section_title
;
Structure prediction by ZEFSAII (Michael W. Deem and Ramdas Pophale) SiO2 
 PCOD8295902
Probable space group: I B C A 
;
_chemical_formula_sum "Si O2"
_cell_formula_units_Z 96
_cell_length_a 16.235239
_cell_length_b 18.530491
_cell_length_c 15.087484
_cell_angle_alpha 90.000000
_cell_angle_beta 90.000000
_cell_angle_gamma 90.000000
_cell_volume 4539.023547
_symmetry_space_group_name_H-M "I B C A "
_symmetry_group_IT_number 73
_symmetry_cell_setting 'orthorhombic'
loop_
_space_group_symop_operation_xyz
x,y,z
-x,1/2-y,z
x,-y,1/2-z
1/2-x,y,-z
-x,-y,-z
x,1/2+y,-z
-x,y,1/2+z
1/2+x,-y,z
1/2+x,1/2+y,1/2+z
1/2-x,-y,1/2+z
1/2+x,1/2-y,-z
-x,1/2+y,1/2-z
1/2-x,1/2-y,1/2-z
1/2+x,y,1/2-z
1/2-x,1/2+y,z
x,1/2-y,1/2+z
loop_
_atom_site_type_symbol
_atom_site_label
_atom_site_fract_x
_atom_site_fract_y
_atom_site_fract_z
Si Si1 0.004979 0.166638 0.581438
Si Si2 0.306560 0.159058 0.420900
Si Si3 0.258793 0.708031 0.841518
Si Si4 0.284061 0.418056 0.235439
Si Si5 0.470549 0.917618 0.756757
Si Si6 0.557126 0.818543 0.892815
O O1 0.098479 0.143452 0.559721
O O2 0.000000 0.250000 0.611131
O O3 0.969629 0.118246 0.660034
O O4 0.952542 0.151451 0.492588
O O5 0.250000 0.129558 0.500000
O O6 0.295751 0.246072 0.410790
O O7 0.278883 0.116075 0.334005
O O8 0.250000 0.750000 0.750000
O O9 0.225650 0.626479 0.828059
O O10 0.351118 0.708246 0.877151
O O11 0.257103 0.500000 0.250000
O O12 0.378499 0.412902 0.202705
O O13 0.534823 0.879505 0.821747
O O14 0.499423 0.000000 0.750000
O O15 0.500000 0.750000 0.877327
#
# Coordination Sequence:
#
# PCOD8295902 Si02
#       6
#    16  16  16  16  16  16
#     4  11  23  39  63  92 121 156 204 257 309 367
#     4  11  21  38  62  87 117 154 199 247 300 360
#     4  10  20  36  61  87 115 154 198 245 299 361
#     4  10  22  40  59  83 117 159 201 243 299 361
#     4  11  23  40  61  87 124 164 204 253 310 373
#     4  11  22  39  62  91 124 158 202 255 308 366
#
# _framework density 21.149923999999999
#
# number of rings (size 3 to 8) (size 9 to 14) (size 15 to 20)
#    0.000    1.333    0.000    8.500    0.000    3.333 
#    0.000    4.167    0.000    0.000    0.000    0.000 
#    0.000    0.000    0.000    0.000    0.000    0.000 
#
# Total GULP energy -595291.655281 kJ/mol
# GULP energy per Si atom -12401.909485 kJ/mol
# Density = 2.110179 g / cm^3
# Si number density = 21.149924 Si / 1000 Ang^3
#
#
#
# Elastic Constant Matrix: (Units=GPa)
#
#
# Indices 1 2 3 4 5 6 
#
# 1 88.5080 11.1158 25.5289 0.0000 0.0000 0.0000
# 2 11.1158 121.0394 45.7409 0.0000 0.0000 0.0000
# 3 25.5289 45.7409 115.8183 0.0000 0.0000 0.0000
# 4 0.0000 0.0000 0.0000 12.2589 0.0000 0.0000
# 5 0.0000 0.0000 0.0000 0.0000 26.5663 0.0000
# 6 0.0000 0.0000 0.0000 0.0000 0.0000 29.7113
#
#
#
# Elastic Compliance Matrix: (Units=1/GPa)
#
#
# Indices 1 2 3 4 5 6 
#
# 1 0.012067 -0.000121 -0.002612 0.000000 0.000000 0.000000
# 2 -0.000121 0.009712 -0.003809 0.000000 0.000000 0.000000
# 3 -0.002612 -0.003809 0.010714 0.000000 0.000000 0.000000
# 4 0.000000 0.000000 0.000000 0.081573 0.000000 0.000000
# 5 0.000000 0.000000 0.000000 0.000000 0.037642 0.000000
# 6 0.000000 0.000000 0.000000 0.000000 0.000000 0.033657
#
#
# Mechanical properties :
#
#
# Convention : Reuss Voigt Hill
#
# Bulk Modulus (GPa) = 51.52171 54.45967 52.99069
# Shear Modulus (GPa) = 24.39977 29.90598 27.15288
#
# Velocity S-wave (km/s) = 3.40024 3.76440 3.58694
# Velocity P-wave (km/s) = 6.31099 6.68577 6.50108
#
# Compressibility (1/GPa) = 0.01940929
#
# Stress axis : x y z
#
# Youngs Moduli (GPa) = 82.87052 102.96175 93.33327
#
# Poissons Ratio (x) = 0.01247 0.24379
# Poissons Ratio (y) = 0.01004 0.35551
# Poissons Ratio (z) = 0.21646 0.39219
#
# Static dielectric constant tensor:
#      x y z
#    x 3.933020 0.000000 0.000000 
#    y 0.000000 3.980270 0.000000 
#    z 0.000000 0.000000 4.050240 
# 
# 
# High freq. dielectric constant tensor:
#      x y z
#    x 1.840620 0.000000 0.000000 
#    y 0.000000 1.820010 0.000000 
#    z 0.000000 0.000000 1.826210 
# 
# From -- ./inp_files/17061.got.cif
#   From: 2010.03.12/outbox.cif.g09.slc.cpg/sg73_9_cif.got.tgz:17061.got - 2010.04.16 15:25:48.
