data_PCOD8295719
_publ_section_title
;
Structure prediction by ZEFSAII (Michael W. Deem and Ramdas Pophale) SiO2 
 PCOD8295719
Probable space group: I B C A 
;
_chemical_formula_sum "Si O2"
_cell_formula_units_Z 112
_cell_length_a 19.005856
_cell_length_b 17.269645
_cell_length_c 17.000473
_cell_angle_alpha 90.000000
_cell_angle_beta 90.000000
_cell_angle_gamma 90.000000
_cell_volume 5579.969813
_symmetry_space_group_name_H-M "I B C A "
_symmetry_group_IT_number 73
_symmetry_cell_setting 'orthorhombic'
loop_
_space_group_symop_operation_xyz
x,y,z
-x,1/2-y,z
x,-y,1/2-z
1/2-x,y,-z
-x,-y,-z
x,1/2+y,-z
-x,y,1/2+z
1/2+x,-y,z
1/2+x,1/2+y,1/2+z
1/2-x,-y,1/2+z
1/2+x,1/2-y,-z
-x,1/2+y,1/2-z
1/2-x,1/2-y,1/2-z
1/2+x,y,1/2-z
1/2-x,1/2+y,z
x,1/2-y,1/2+z
loop_
_atom_site_type_symbol
_atom_site_label
_atom_site_fract_x
_atom_site_fract_y
_atom_site_fract_z
Si Si1 0.576550 0.412335 0.178303
Si Si2 0.936678 0.082287 0.722982
Si Si3 0.321844 0.662246 0.715189
Si Si4 0.020522 0.953233 0.922140
Si Si5 0.929010 0.711139 0.913476
Si Si6 0.829100 0.314318 0.303185
Si Si7 0.419241 0.764323 0.420910
O O1 0.504941 0.393656 0.225671
O O2 0.638335 0.411056 0.244807
O O3 0.570494 0.495106 0.135052
O O4 0.596577 0.349066 0.113046
O O5 0.875413 0.144665 0.735607
O O6 0.953988 0.075398 0.630027
O O7 0.906469 0.000000 0.750000
O O8 0.368427 0.705237 0.650025
O O9 0.244333 0.638694 0.682704
O O10 0.310170 0.726566 0.781646
O O11 0.059198 0.875196 0.948894
O O12 0.000000 0.000000 0.000000
O O13 0.000000 0.750000 0.875958
O O14 0.904190 0.764823 0.985856
O O15 0.873805 0.305983 0.383327
O O16 0.500000 0.750000 0.402495
#
# Coordination Sequence:
#
# PCOD8295719 Si02
#       7
#    16  16  16  16  16  16  16
#     4  10  20  38  59  87 115 157 194 251 299 355
#     4  10  20  35  59  86 113 157 197 244 296 354
#     4  10  22  37  59  87 117 156 204 250 307 362
#     4  11  22  36  59  90 127 146 203 257 298 357
#     4  11  22  35  58  91 117 161 201 250 307 360
#     4  10  21  38  58  86 118 154 204 254 298 369
#     4  10  19  34  62  85 116 152 203 245 304 354
#
# _framework density 20.071791999999999
#
# number of rings (size 3 to 8) (size 9 to 14) (size 15 to 20)
#    0.000    1.714    2.857    2.571    2.000    0.571 
#    2.571    0.000    0.000    2.571    0.000    0.000 
#    0.000    0.000    0.000    0.000    0.000    0.000 
#
# Total GULP energy -693948.294345 kJ/mol
# GULP energy per Si atom -12391.933828 kJ/mol
# Density = 2.002611 g / cm^3
# Si number density = 20.071792 Si / 1000 Ang^3
#
#
#
# Elastic Constant Matrix: (Units=GPa)
#
#
# Indices 1 2 3 4 5 6 
#
# 1 123.9126 24.8542 47.1020 0.0000 0.0000 0.0000
# 2 24.8542 71.6830 18.4507 0.0000 0.0000 0.0000
# 3 47.1020 18.4507 99.3875 0.0000 0.0000 0.0000
# 4 0.0000 0.0000 0.0000 39.6440 0.0000 0.0000
# 5 0.0000 0.0000 0.0000 0.0000 13.0191 0.0000
# 6 0.0000 0.0000 0.0000 0.0000 0.0000 18.3999
#
#
#
# Elastic Compliance Matrix: (Units=1/GPa)
#
#
# Indices 1 2 3 4 5 6 
#
# 1 0.010226 -0.002414 -0.004398 0.000000 0.000000 0.000000
# 2 -0.002414 0.015220 -0.001682 0.000000 0.000000 0.000000
# 3 -0.004398 -0.001682 0.012458 0.000000 0.000000 0.000000
# 4 0.000000 0.000000 0.000000 0.025225 0.000000 0.000000
# 5 0.000000 0.000000 0.000000 0.000000 0.076810 0.000000
# 6 0.000000 0.000000 0.000000 0.000000 0.000000 0.054348
#
#
# Mechanical properties :
#
#
# Convention : Reuss Voigt Hill
#
# Bulk Modulus (GPa) = 47.80727 52.86634 50.33681
# Shear Modulus (GPa) = 22.90984 27.85102 25.38043
#
# Velocity S-wave (km/s) = 3.38212 3.72905 3.55981
# Velocity P-wave (km/s) = 6.25472 6.70350 6.48299
#
# Compressibility (1/GPa) = 0.02091732
#
# Stress axis : x y z
#
# Youngs Moduli (GPa) = 97.78764 65.70305 80.26767
#
# Poissons Ratio (x) = 0.15858 0.35305
# Poissons Ratio (y) = 0.23602 0.13498
# Poissons Ratio (z) = 0.43011 0.11049
#
# Static dielectric constant tensor:
#      x y z
#    x 3.689740 0.000000 0.000000 
#    y 0.000000 3.756200 0.000000 
#    z 0.000000 0.000000 3.715850 
# 
# 
# High freq. dielectric constant tensor:
#      x y z
#    x 1.753640 0.000000 0.000000 
#    y 0.000000 1.784920 0.000000 
#    z 0.000000 0.000000 1.781580 
# 
# From -- ./inp_files/23284.got.cif
#   From: 2010.03.12/outbox.cif.g09.slc.cpg/sg73_12_cif.got.tgz:23284.got - 2010.04.16 15:25:48.
