data_PCOD8295857
_publ_section_title
;
Structure prediction by ZEFSAII (Michael W. Deem and Ramdas Pophale) SiO2 
 PCOD8295857
Probable space group: I B C A 
;
_chemical_formula_sum "Si O2"
_cell_formula_units_Z 120
_cell_length_a 28.951299
_cell_length_b 24.793121
_cell_length_c 9.038096
_cell_angle_alpha 90.000000
_cell_angle_beta 90.000000
_cell_angle_gamma 90.000000
_cell_volume 6487.482577
_symmetry_space_group_name_H-M "I B C A "
_symmetry_group_IT_number 73
_symmetry_cell_setting 'orthorhombic'
loop_
_space_group_symop_operation_xyz
x,y,z
-x,1/2-y,z
x,-y,1/2-z
1/2-x,y,-z
-x,-y,-z
x,1/2+y,-z
-x,y,1/2+z
1/2+x,-y,z
1/2+x,1/2+y,1/2+z
1/2-x,-y,1/2+z
1/2+x,1/2-y,-z
-x,1/2+y,1/2-z
1/2-x,1/2-y,1/2-z
1/2+x,y,1/2-z
1/2-x,1/2+y,z
x,1/2-y,1/2+z
loop_
_atom_site_type_symbol
_atom_site_label
_atom_site_fract_x
_atom_site_fract_y
_atom_site_fract_z
Si Si1 0.190131 0.706273 0.239521
Si Si2 0.043387 0.814469 0.822762
Si Si3 0.542843 0.339470 0.648885
Si Si4 0.608947 0.717615 0.666939
Si Si5 0.929143 0.472949 0.906966
Si Si6 0.750000 0.235066 0.000000
Si Si7 0.884240 0.136739 0.391881
Si Si8 0.031004 0.455942 0.869750
O O1 0.156305 0.754212 0.290241
O O2 0.223056 0.696593 0.382446
O O3 0.163232 0.651004 0.196653
O O4 0.217076 0.725720 0.094271
O O5 0.069117 0.760296 0.873528
O O6 0.073905 0.852389 0.719284
O O7 0.995762 0.804469 0.735424
O O8 0.032019 0.844623 0.975419
O O9 0.592352 0.312974 0.684431
O O10 0.545909 0.400535 0.708126
O O11 0.614103 0.676301 0.532185
O O12 0.919817 0.500000 0.750000
O O13 0.889826 0.426469 0.936017
O O14 0.979801 0.446905 0.939495
O O15 0.927852 0.523299 0.021776
O O16 0.021347 0.500000 0.750000
#
# Coordination Sequence:
#
# PCOD8295857 Si02
#       8
#    16  16  16  16  16   8  16  16
#     4  10  21  37  61  89 117 144 181 221 284 355
#     4  11  23  35  49  73 110 156 193 229 276 335
#     4  12  23  35  52  74 109 158 196 236 284 324
#     4  11  23  36  52  81 116 147 184 231 274 348
#     4  10  20  35  54  74 106 144 199 246 275 315
#     4  10  20  40  62  86 120 144 176 228 282 372
#     4  11  20  37  58  81 113 148 189 238 287 329
#     4  10  21  34  52  72 100 151 204 244 271 308
#
# _framework density 18.497160999999998
#
# number of rings (size 3 to 8) (size 9 to 14) (size 15 to 20)
#    0.000    1.333    2.667    4.400    5.600    1.067 
#    0.000    0.000    0.000    0.000    0.000    0.933 
#    0.000    0.000    0.000    0.000    0.000    0.000 
#
# Total GULP energy -743543.555492 kJ/mol
# GULP energy per Si atom -12392.392592 kJ/mol
# Density = 1.845506 g / cm^3
# Si number density = 18.497161 Si / 1000 Ang^3
#
#
#
# Elastic Constant Matrix: (Units=GPa)
#
#
# Indices 1 2 3 4 5 6 
#
# 1 81.3065 36.6577 37.7752 0.0000 0.0000 0.0000
# 2 36.6577 92.5985 20.7742 0.0000 0.0000 0.0000
# 3 37.7752 20.7742 98.8299 0.0000 0.0000 0.0000
# 4 0.0000 0.0000 0.0000 25.9225 0.0000 0.0000
# 5 0.0000 0.0000 0.0000 0.0000 32.7159 0.0000
# 6 0.0000 0.0000 0.0000 0.0000 0.0000 22.3494
#
#
#
# Elastic Compliance Matrix: (Units=1/GPa)
#
#
# Indices 1 2 3 4 5 6 
#
# 1 0.017385 -0.005658 -0.005456 0.000000 0.000000 0.000000
# 2 -0.005658 0.013175 -0.000607 0.000000 0.000000 0.000000
# 3 -0.005456 -0.000607 0.012331 0.000000 0.000000 0.000000
# 4 0.000000 0.000000 0.000000 0.038577 0.000000 0.000000
# 5 0.000000 0.000000 0.000000 0.000000 0.030566 0.000000
# 6 0.000000 0.000000 0.000000 0.000000 0.000000 0.044744
#
#
# Mechanical properties :
#
#
# Convention : Reuss Voigt Hill
#
# Bulk Modulus (GPa) = 51.41321 51.46101 51.43711
# Shear Modulus (GPa) = 26.78052 28.03275 27.40663
#
# Velocity S-wave (km/s) = 3.80915 3.89719 3.85342
# Velocity P-wave (km/s) = 6.87035 6.93774 6.90412
#
# Compressibility (1/GPa) = 0.01945025
#
# Stress axis : x y z
#
# Youngs Moduli (GPa) = 57.52110 75.89863 81.09526
#
# Poissons Ratio (x) = 0.42946 0.44242
# Poissons Ratio (y) = 0.32548 0.04920
# Poissons Ratio (z) = 0.31381 0.04605
#
# Static dielectric constant tensor:
#      x y z
#    x 3.325430 0.000000 0.000000 
#    y 0.000000 3.296130 0.000000 
#    z 0.000000 0.000000 3.377650 
# 
# 
# High freq. dielectric constant tensor:
#      x y z
#    x 1.680960 0.000000 0.000000 
#    y 0.000000 1.704280 0.000000 
#    z 0.000000 0.000000 1.737060 
# 
# From -- ./inp_files/8581.got.cif
#   From: 2010.03.12/outbox.cif.g09.slc.cpg/sg73_5_cif.got.tgz:8581.got - 2010.04.16 15:25:48.
