data_PCOD8295646
_publ_section_title
;
Structure prediction by ZEFSAII (Michael W. Deem and Ramdas Pophale) SiO2 
 PCOD8295646
Probable space group: I B C A 
;
_chemical_formula_sum "Si O2"
_cell_formula_units_Z 72
_cell_length_a 13.595957
_cell_length_b 21.665912
_cell_length_c 9.668552
_cell_angle_alpha 90.000000
_cell_angle_beta 90.000000
_cell_angle_gamma 90.000000
_cell_volume 2848.053837
_symmetry_space_group_name_H-M "I B C A "
_symmetry_group_IT_number 73
_symmetry_cell_setting 'orthorhombic'
loop_
_space_group_symop_operation_xyz
x,y,z
-x,1/2-y,z
x,-y,1/2-z
1/2-x,y,-z
-x,-y,-z
x,1/2+y,-z
-x,y,1/2+z
1/2+x,-y,z
1/2+x,1/2+y,1/2+z
1/2-x,-y,1/2+z
1/2+x,1/2-y,-z
-x,1/2+y,1/2-z
1/2-x,1/2-y,1/2-z
1/2+x,y,1/2-z
1/2-x,1/2+y,z
x,1/2-y,1/2+z
loop_
_atom_site_type_symbol
_atom_site_label
_atom_site_fract_x
_atom_site_fract_y
_atom_site_fract_z
Si Si1 0.448268 0.312553 0.311156
Si Si2 0.396503 0.981332 0.605291
Si Si3 0.756900 0.127083 0.707907
Si Si4 0.250000 0.078554 0.500000
Si Si5 0.048451 0.877722 0.578693
O O1 0.500000 0.250000 0.259497
O O2 0.329229 0.313038 0.305963
O O3 0.478701 0.369503 0.210364
O O4 0.485768 0.327844 0.464601
O O5 0.310821 0.933526 0.649650
O O6 0.464781 0.946894 0.488286
O O7 0.451756 0.000000 0.750000
O O8 0.347169 0.039343 0.531154
O O9 0.724290 0.120448 0.867482
O O10 0.661047 0.137379 0.615575
#
# Coordination Sequence:
#
# PCOD8295646 Si02
#       5
#    16  16  16   8  16
#     4  11  25  45  69  98 136 184 235 296 352 407
#     4   9  17  36  66  97 133 188 225 271 344 413
#     4  10  22  40  70  98 139 184 227 284 348 417
#     4  10  18  36  72 100 136 188 228 268 346 424
#     4  11  23  44  69  99 142 177 235 294 343 418
#
# _framework density 25.280421
#
# number of rings (size 3 to 8) (size 9 to 14) (size 15 to 20)
#    0.000    1.778    2.222    2.667    3.111    0.889 
#    0.000   12.222    9.778    0.000    0.000    0.000 
#    0.000    0.000    0.000    0.000    0.000    0.000 
#
# Total GULP energy -446378.082490 kJ/mol
# GULP energy per Si atom -12399.391180 kJ/mol
# Density = 2.522288 g / cm^3
# Si number density = 25.280421 Si / 1000 Ang^3
#
#
#
# Elastic Constant Matrix: (Units=GPa)
#
#
# Indices 1 2 3 4 5 6 
#
# 1 83.3941 21.9318 28.6784 0.0000 0.0000 0.0001
# 2 21.9318 97.7066 34.7323 -0.0005 0.0001 0.0005
# 3 28.6784 34.7323 163.3955 -0.0019 0.0005 0.0015
# 4 0.0000 -0.0005 -0.0019 34.5475 0.0003 0.0008
# 5 0.0000 0.0001 0.0005 0.0003 13.8204 -0.0003
# 6 0.0001 0.0005 0.0015 0.0008 -0.0003 2.1480
#
#
#
# Elastic Compliance Matrix: (Units=1/GPa)
#
#
# Indices 1 2 3 4 5 6 
#
# 1 0.013230 -0.002320 -0.001829 0.000000 0.000000 0.000001
# 2 -0.002320 0.011478 -0.002033 0.000000 0.000000 -0.000001
# 3 -0.001829 -0.002033 0.006873 0.000000 0.000000 -0.000004
# 4 0.000000 0.000000 0.000000 0.028946 -0.000001 -0.000011
# 5 0.000000 0.000000 0.000000 -0.000001 0.072357 0.000011
# 6 0.000001 -0.000001 -0.000004 -0.000011 0.000011 0.465552
#
#
# Mechanical properties :
#
#
# Convention : Reuss Voigt Hill
#
# Bulk Modulus (GPa) = 52.03231 57.24234 54.63733
# Shear Modulus (GPa) = 8.10105 27.38012 17.74058
#
# Velocity S-wave (km/s) = 1.79205 3.29455 2.65193
# Velocity P-wave (km/s) = 4.99086 6.09625 5.57103
#
# Compressibility (1/GPa) = 0.01921883
#
# Stress axis : x y z
#
# Youngs Moduli (GPa) = 75.58431 87.12348 145.49210
#
# Poissons Ratio (x) = 0.20209 0.26611
# Poissons Ratio (y) = 0.17532 0.29574
# Poissons Ratio (z) = 0.13825 0.17710
#
# Static dielectric constant tensor:
#      x y z
#    x 4.361700 0.000000 0.000000 
#    y 0.000000 4.251080 0.000000 
#    z 0.000000 0.000000 5.099610 
# 
# 
# High freq. dielectric constant tensor:
#      x y z
#    x 2.003650 0.000000 0.000000 
#    y 0.000000 1.977790 0.000000 
#    z 0.000000 0.000000 2.040870 
# 
# From -- ./inp_files/5477.got.cif
#   From: 2010.03.12/outbox.cif.g09.slc.cpg/sg73_3_cif.got.tgz:5477.got - 2010.04.16 15:25:48.
