data_PCOD8295271
_publ_section_title
;
Structure prediction by ZEFSAII (Michael W. Deem and Ramdas Pophale) SiO2 
 PCOD8295271
Probable space group: I B A M
;
_chemical_formula_sum "Si O2"
_cell_formula_units_Z 80
_cell_length_a 18.412770
_cell_length_b 27.063722
_cell_length_c 8.956404
_cell_angle_alpha 90.000000
_cell_angle_beta 90.000000
_cell_angle_gamma 90.000000
_cell_volume 4463.138121
_symmetry_space_group_name_H-M "I B A M"
_symmetry_group_IT_number 72
_symmetry_cell_setting 'orthorhombic'
loop_
_space_group_symop_operation_xyz
x,y,z
-x,-y,z
x,-y,1/2-z
-x,y,1/2-z
-x,-y,-z
x,y,-z
-x,y,1/2+z
x,-y,1/2+z
1/2+x,1/2+y,1/2+z
1/2-x,1/2-y,1/2+z
1/2+x,1/2-y,-z
1/2-x,1/2+y,-z
1/2-x,1/2-y,1/2-z
1/2+x,1/2+y,1/2-z
1/2-x,1/2+y,z
1/2+x,1/2-y,z
loop_
_atom_site_type_symbol
_atom_site_label
_atom_site_fract_x
_atom_site_fract_y
_atom_site_fract_z
Si Si1 0.075019 0.150554 0.322649
Si Si2 0.574551 0.052298 0.322518
Si Si3 0.704113 0.100911 0.827798
Si Si4 0.218734 0.202287 0.672357
Si Si5 0.852698 0.050857 0.174774
O O1 0.068960 0.152336 0.500000
O O2 0.138578 0.187621 0.267275
O O3 0.094600 0.094890 0.269949
O O4 0.000000 0.167979 0.250000
O O5 0.500000 0.071933 0.250000
O O6 0.566155 0.047133 0.500000
O O7 0.637324 0.090819 0.282071
O O8 0.595488 0.000000 0.250000
O O9 0.726634 0.157200 0.800069
O O10 0.769967 0.064514 0.784027
O O11 0.681584 0.092460 0.000000
O O12 0.212299 0.214781 0.500000
O O13 0.250000 0.250000 0.750000
O O14 0.876849 0.000000 0.250000
O O15 0.860725 0.044021 0.000000
#
# Coordination Sequence:
#
# PCOD8295271 Si02
#       5
#    16  16  16  16  16
#     4   9  19  35  52  74 103 134 165 202 245 291
#     4  11  21  33  50  73 102 136 171 208 251 304
#     4   9  18  34  52  72 100 132 167 212 256 297
#     4   9  19  36  57  78 102 130 166 211 257 302
#     4   9  18  31  48  71 101 134 168 203 242 288
#
# _framework density 17.924607000000002
#
# number of rings (size 3 to 8) (size 9 to 14) (size 15 to 20)
#    0.000    2.600    0.000    5.400    0.000    5.200 
#    0.000    7.000    0.000    2.400    0.000    0.000 
#    0.000    0.000    0.000    0.000    0.000    0.000 
#
# Total GULP energy -495949.935585 kJ/mol
# GULP energy per Si atom -12398.748390 kJ/mol
# Density = 1.788381 g / cm^3
# Si number density = 17.924607 Si / 1000 Ang^3
#
#
#
# Elastic Constant Matrix: (Units=GPa)
#
#
# Indices 1 2 3 4 5 6 
#
# 1 128.7085 55.6773 50.9578 0.0000 0.0000 0.0000
# 2 55.6773 103.3936 38.7004 0.0000 0.0000 0.0000
# 3 50.9578 38.7004 76.9478 0.0000 0.0000 0.0000
# 4 0.0000 0.0000 0.0000 33.0690 0.0000 0.0000
# 5 0.0000 0.0000 0.0000 0.0000 31.7719 0.0000
# 6 0.0000 0.0000 0.0000 0.0000 0.0000 18.6396
#
#
#
# Elastic Compliance Matrix: (Units=1/GPa)
#
#
# Indices 1 2 3 4 5 6 
#
# 1 0.011876 -0.004252 -0.005726 0.000000 0.000000 0.000000
# 2 -0.004252 0.013437 -0.003942 0.000000 0.000000 0.000000
# 3 -0.005726 -0.003942 0.018771 0.000000 0.000000 0.000000
# 4 0.000000 0.000000 0.000000 0.030240 0.000000 0.000000
# 5 0.000000 0.000000 0.000000 0.000000 0.031474 0.000000
# 6 0.000000 0.000000 0.000000 0.000000 0.000000 0.053649
#
#
# Mechanical properties :
#
#
# Convention : Reuss Voigt Hill
#
# Bulk Modulus (GPa) = 61.56564 66.63567 64.10065
# Shear Modulus (GPa) = 25.94679 27.61039 26.77859
#
# Velocity S-wave (km/s) = 3.80880 3.92900 3.86937
# Velocity P-wave (km/s) = 7.33240 7.60519 7.47004
#
# Compressibility (1/GPa) = 0.01624283
#
# Stress axis : x y z
#
# Youngs Moduli (GPa) = 84.20441 74.42136 53.27441
#
# Poissons Ratio (x) = 0.31642 0.30506
# Poissons Ratio (y) = 0.35802 0.21003
# Poissons Ratio (z) = 0.48217 0.29340
#
# Static dielectric constant tensor:
#      x y z
#    x 3.476920 0.000000 0.000000 
#    y 0.000000 4.567820 0.000000 
#    z 0.000000 0.000000 3.171100 
# 
# 
# High freq. dielectric constant tensor:
#      x y z
#    x 1.697810 0.000000 0.000000 
#    y 0.000000 1.680390 0.000000 
#    z 0.000000 0.000000 1.687390 
# 
# From -- ./inp_files/4780.got.cif
#   From: 2010.03.12/outbox.cif.g09.slc.cpg/sg72_3_cif.got.tgz:4780.got - 2010.04.16 14:54:00.
