data_PCOD8295713
_publ_section_title
;
Structure prediction by ZEFSAII (Michael W. Deem and Ramdas Pophale) SiO2 
 PCOD8295713
Probable space group: I B C A 
;
_chemical_formula_sum "Si O2"
_cell_formula_units_Z 88
_cell_length_a 10.255268
_cell_length_b 22.070921
_cell_length_c 21.146305
_cell_angle_alpha 90.000000
_cell_angle_beta 90.000000
_cell_angle_gamma 90.000000
_cell_volume 4786.322550
_symmetry_space_group_name_H-M "I B C A "
_symmetry_group_IT_number 73
_symmetry_cell_setting 'orthorhombic'
loop_
_space_group_symop_operation_xyz
x,y,z
-x,1/2-y,z
x,-y,1/2-z
1/2-x,y,-z
-x,-y,-z
x,1/2+y,-z
-x,y,1/2+z
1/2+x,-y,z
1/2+x,1/2+y,1/2+z
1/2-x,-y,1/2+z
1/2+x,1/2-y,-z
-x,1/2+y,1/2-z
1/2-x,1/2-y,1/2-z
1/2+x,y,1/2-z
1/2-x,1/2+y,z
x,1/2-y,1/2+z
loop_
_atom_site_type_symbol
_atom_site_label
_atom_site_fract_x
_atom_site_fract_y
_atom_site_fract_z
Si Si1 0.121061 0.714073 0.820317
Si Si2 0.117132 0.500000 0.750000
Si Si3 0.217826 0.086100 0.356033
Si Si4 0.479735 0.086268 0.851498
Si Si5 0.373240 0.006394 0.957660
Si Si6 0.629240 0.281068 0.671156
O O1 0.105424 0.643766 0.833227
O O2 0.126402 0.724503 0.746017
O O3 0.249709 0.740988 0.853780
O O4 0.000000 0.750000 0.850164
O O5 0.205343 0.543870 0.706198
O O6 0.021880 0.460669 0.706366
O O7 0.370095 0.100762 0.366938
O O8 0.157958 0.054336 0.418005
O O9 0.139882 0.148858 0.348849
O O10 0.401949 0.061319 0.911125
O O11 0.250000 0.024299 0.000000
O O12 0.500000 0.000000 0.000000
O O13 0.500000 0.250000 0.641895
#
# Coordination Sequence:
#
# PCOD8295713 Si02
#       6
#    16   8  16  16  16  16
#     4  10  19  34  57  85 123 162 194 233 299 367
#     4  10  22  32  54  96 124 154 202 240 318 354
#     4  11  21  38  61  86 127 159 195 258 298 367
#     4  11  21  37  62  86 125 160 199 256 294 372
#     4  11  24  43  63  89 115 160 212 252 305 349
#     4  10  21  34  55  89 126 160 194 238 295 368
#
# _framework density 18.385722999999999
#
# number of rings (size 3 to 8) (size 9 to 14) (size 15 to 20)
#    0.000    1.455    5.455    0.545    0.000    1.455 
#    3.273    0.000    0.000    6.545    0.000    0.000 
#    0.000    0.000    0.000    0.000    0.000    0.000 
#
# Total GULP energy -545545.032295 kJ/mol
# GULP energy per Si atom -12398.750734 kJ/mol
# Density = 1.834388 g / cm^3
# Si number density = 18.385723 Si / 1000 Ang^3
#
#
#
# Elastic Constant Matrix: (Units=GPa)
#
#
# Indices 1 2 3 4 5 6 
#
# 1 156.1193 63.5966 41.8260 0.0000 0.0000 0.0000
# 2 63.5966 125.0674 25.1023 0.0000 0.0000 0.0000
# 3 41.8260 25.1023 66.4389 0.0000 0.0000 0.0000
# 4 0.0000 0.0000 0.0000 23.1837 0.0000 0.0000
# 5 0.0000 0.0000 0.0000 0.0000 14.7008 0.0000
# 6 0.0000 0.0000 0.0000 0.0000 0.0000 36.3327
#
#
#
# Elastic Compliance Matrix: (Units=1/GPa)
#
#
# Indices 1 2 3 4 5 6 
#
# 1 0.009089 -0.003758 -0.004302 0.000000 0.000000 0.000000
# 2 -0.003758 0.010206 -0.001490 0.000000 0.000000 0.000000
# 3 -0.004302 -0.001490 0.018323 0.000000 0.000000 0.000000
# 4 0.000000 0.000000 0.000000 0.043134 0.000000 0.000000
# 5 0.000000 0.000000 0.000000 0.000000 0.068024 0.000000
# 6 0.000000 0.000000 0.000000 0.000000 0.000000 0.027523
#
#
# Mechanical properties :
#
#
# Convention : Reuss Voigt Hill
#
# Bulk Modulus (GPa) = 54.00447 67.63058 60.81753
# Shear Modulus (GPa) = 24.80522 29.31682 27.06102
#
# Velocity S-wave (km/s) = 3.67707 3.99750 3.84063
# Velocity P-wave (km/s) = 6.88946 7.62698 7.26758
#
# Compressibility (1/GPa) = 0.01851698
#
# Stress axis : x y z
#
# Youngs Moduli (GPa) = 110.02545 97.98341 54.57753
#
# Poissons Ratio (x) = 0.36824 0.23478
# Poissons Ratio (y) = 0.41350 0.08132
# Poissons Ratio (z) = 0.47331 0.14600
#
# Static dielectric constant tensor:
#      x y z
#    x 3.607680 0.000000 0.000000 
#    y 0.000000 3.484160 0.000000 
#    z 0.000000 0.000000 3.252510 
# 
# 
# High freq. dielectric constant tensor:
#      x y z
#    x 1.726690 0.000000 0.000000 
#    y 0.000000 1.719950 0.000000 
#    z 0.000000 0.000000 1.683520 
# 
# From -- ./inp_files/7064.got.cif
#   From: 2010.03.12/outbox.cif.g09.slc.cpg/sg73_4_cif.got.tgz:7064.got - 2010.04.16 15:25:48.
