data_PCOD8295452
_publ_section_title
;
Structure prediction by ZEFSAII (Michael W. Deem and Ramdas Pophale) SiO2 
 PCOD8295452
Probable space group: I B A M
;
_chemical_formula_sum "Si O2"
_cell_formula_units_Z 36
_cell_length_a 11.386318
_cell_length_b 9.518851
_cell_length_c 14.446674
_cell_angle_alpha 90.000000
_cell_angle_beta 90.000000
_cell_angle_gamma 90.000000
_cell_volume 1565.797914
_symmetry_space_group_name_H-M "I B A M"
_symmetry_group_IT_number 72
_symmetry_cell_setting 'orthorhombic'
loop_
_space_group_symop_operation_xyz
x,y,z
-x,-y,z
x,-y,1/2-z
-x,y,1/2-z
-x,-y,-z
x,y,-z
-x,y,1/2+z
x,-y,1/2+z
1/2+x,1/2+y,1/2+z
1/2-x,1/2-y,1/2+z
1/2+x,1/2-y,-z
1/2-x,1/2+y,-z
1/2-x,1/2-y,1/2-z
1/2+x,1/2+y,1/2-z
1/2-x,1/2+y,z
1/2+x,1/2-y,z
loop_
_atom_site_type_symbol
_atom_site_label
_atom_site_fract_x
_atom_site_fract_y
_atom_site_fract_z
Si Si1 0.500000 0.500000 0.250000
Si Si2 0.844239 0.840966 0.601569
Si Si3 0.129942 0.476596 0.358006
O O1 0.422020 0.402058 0.184610
O O2 0.903774 0.862482 0.500000
O O3 0.822633 0.677488 0.619395
O O4 0.716769 0.911424 0.596766
O O5 0.127875 0.500000 0.250000
O O6 0.000000 0.500000 0.400063
#
# Coordination Sequence:
#
# PCOD8295452 Si02
#       3
#     4  16  16
#     4  12  26  48  72 102 148 192 240 294 360 418
#     4  12  27  46  74 107 143 189 243 295 355 427
#     4  11  25  48  75 105 144 190 235 295 360 422
#
# _framework density 22.991474
#
# number of rings (size 3 to 8) (size 9 to 14) (size 15 to 20)
#    0.000    0.444    2.222    6.000    6.222    3.556 
#    0.000    0.000    0.000    0.000    0.000    0.000 
#    0.000    0.000    0.000    0.000    0.000    0.000 
#
# Total GULP energy -223239.703103 kJ/mol
# GULP energy per Si atom -12402.205728 kJ/mol
# Density = 2.293914 g / cm^3
# Si number density = 22.991474 Si / 1000 Ang^3
#
#
#
# Elastic Constant Matrix: (Units=GPa)
#
#
# Indices 1 2 3 4 5 6 
#
# 1 148.2743 95.1516 49.1186 0.0000 0.0000 0.0000
# 2 95.1516 209.5169 48.8317 0.0000 0.0000 0.0000
# 3 49.1186 48.8317 177.5209 0.0000 0.0000 0.0000
# 4 0.0000 0.0000 0.0000 125.6086 0.0000 0.0000
# 5 0.0000 0.0000 0.0000 0.0000 -30.1006 0.0000
# 6 0.0000 0.0000 0.0000 0.0000 0.0000 21.9522
#
#
#
# Elastic Compliance Matrix: (Units=1/GPa)
#
#
# Indices 1 2 3 4 5 6 
#
# 1 0.009931 -0.004135 -0.001610 0.000000 0.000000 0.000000
# 2 -0.004135 0.006821 -0.000732 0.000000 0.000000 0.000000
# 3 -0.001610 -0.000732 0.006280 0.000000 0.000000 0.000000
# 4 0.000000 0.000000 0.000000 0.007961 0.000000 0.000000
# 5 0.000000 0.000000 0.000000 0.000000 -0.033222 0.000000
# 6 0.000000 0.000000 0.000000 0.000000 0.000000 0.045554
#
#
# Mechanical properties :
#
#
# Convention : Reuss Voigt Hill
#
# Bulk Modulus (GPa) = 99.23141 102.39066 100.81104
# Shear Modulus (GPa) = 83.83593 46.30604 65.07099
#
# Velocity S-wave (km/s) = 6.04509 4.49269 5.32576
# Velocity P-wave (km/s) = 9.59051 8.45832 9.04215
#
# Compressibility (1/GPa) = 0.01007745
#
# Stress axis : x y z
#
# Youngs Moduli (GPa) = 100.69236 146.59705 159.23087
#
# Poissons Ratio (x) = 0.60616 0.25644
# Poissons Ratio (y) = 0.41635 0.11661
# Poissons Ratio (z) = 0.16216 0.10736
#
# Static dielectric constant tensor:
#      x y z
#    x 4.554840 0.000000 0.000000 
#    y 0.000000 4.202390 0.000000 
#    z 0.000000 0.000000 4.453190 
# 
# 
# High freq. dielectric constant tensor:
#      x y z
#    x 1.905720 0.000000 0.000000 
#    y 0.000000 1.919180 0.000000 
#    z 0.000000 0.000000 1.936850 
# 
# From -- ./inp_files/17820.got.cif
#   From: 2010.03.12/outbox.cif.g09.slc.cpg/sg72_9_cif.got.tgz:17820.got - 2010.04.16 14:54:00.
