data_PCOD8295048
_publ_section_title
;
Structure prediction by ZEFSAII (Michael W. Deem and Ramdas Pophale) SiO2 
 PCOD8295048
Probable space group: I B A M
;
_chemical_formula_sum "Si O2"
_cell_formula_units_Z 64
_cell_length_a 9.902829
_cell_length_b 8.643815
_cell_length_c 31.096476
_cell_angle_alpha 90.000000
_cell_angle_beta 90.000000
_cell_angle_gamma 90.000000
_cell_volume 2661.803051
_symmetry_space_group_name_H-M "I B A M"
_symmetry_group_IT_number 72
_symmetry_cell_setting 'orthorhombic'
loop_
_space_group_symop_operation_xyz
x,y,z
-x,-y,z
x,-y,1/2-z
-x,y,1/2-z
-x,-y,-z
x,y,-z
-x,y,1/2+z
x,-y,1/2+z
1/2+x,1/2+y,1/2+z
1/2-x,1/2-y,1/2+z
1/2+x,1/2-y,-z
1/2-x,1/2+y,-z
1/2-x,1/2-y,1/2-z
1/2+x,1/2+y,1/2-z
1/2-x,1/2+y,z
1/2+x,1/2-y,z
loop_
_atom_site_type_symbol
_atom_site_label
_atom_site_fract_x
_atom_site_fract_y
_atom_site_fract_z
Si Si1 0.374043 0.889622 0.048503
Si Si2 0.703611 0.384864 0.100993
Si Si3 0.554630 0.843397 0.298330
Si Si4 0.841967 0.845442 0.659202
O O1 0.398765 0.736230 0.077795
O O2 0.500000 0.000000 0.050691
O O3 0.251748 0.993519 0.065473
O O4 0.341709 0.835804 0.000000
O O5 0.820833 0.279884 0.121505
O O6 0.637645 0.483452 0.139604
O O7 0.500000 0.848084 0.250000
O O8 0.716429 0.836850 0.306198
O O9 0.483923 0.693601 0.318709
O O10 0.500000 0.000000 0.321299
#
# Coordination Sequence:
#
# PCOD8295048 Si02
#       4
#    16  16  16  16
#     4  10  22  43  69  99 138 180 229 286 352 420
#     4  10  23  39  68  98 136 178 226 287 343 417
#     4  11  24  45  69 101 143 184 234 293 353 421
#     4  11  23  43  69 103 137 187 235 288 352 419
#
# _framework density 24.043852999999999
#
# number of rings (size 3 to 8) (size 9 to 14) (size 15 to 20)
#    0.000    1.500    2.500    1.500    7.000    1.000 
#    4.500    1.250    0.000    7.500    0.000    0.000 
#    0.000    0.000    0.000    0.000    0.000    0.000 
#
# Total GULP energy -396455.717870 kJ/mol
# GULP energy per Si atom -12389.241183 kJ/mol
# Density = 2.398913 g / cm^3
# Si number density = 24.043853 Si / 1000 Ang^3
#
#
#
# Elastic Constant Matrix: (Units=GPa)
#
#
# Indices 1 2 3 4 5 6 
#
# 1 75.7817 28.0484 32.2469 0.0000 0.0000 0.0000
# 2 28.0484 157.8954 64.8835 0.0000 0.0000 0.0000
# 3 32.2469 64.8835 126.6568 0.0000 0.0000 0.0000
# 4 0.0000 0.0000 0.0000 48.0114 0.0000 0.0000
# 5 0.0000 0.0000 0.0000 0.0000 0.9896 0.0000
# 6 0.0000 0.0000 0.0000 0.0000 0.0000 25.3444
#
#
#
# Elastic Compliance Matrix: (Units=1/GPa)
#
#
# Indices 1 2 3 4 5 6 
#
# 1 0.015036 -0.001391 -0.003116 0.000000 0.000000 0.000000
# 2 -0.001391 0.008151 -0.003821 0.000000 0.000000 0.000000
# 3 -0.003116 -0.003821 0.010646 0.000000 0.000000 0.000000
# 4 0.000000 0.000000 0.000000 0.020828 0.000000 0.000000
# 5 0.000000 0.000000 0.000000 0.000000 1.010535 0.000000
# 6 0.000000 0.000000 0.000000 0.000000 0.000000 0.039456
#
#
# Mechanical properties :
#
#
# Convention : Reuss Voigt Hill
#
# Bulk Modulus (GPa) = 58.21554 67.85461 63.03508
# Shear Modulus (GPa) = 4.43642 30.54609 17.49125
#
# Velocity S-wave (km/s) = 1.35983 3.56818 2.70010
# Velocity P-wave (km/s) = 5.17014 6.72743 5.99953
#
# Compressibility (1/GPa) = 0.01717755
#
# Stress axis : x y z
#
# Youngs Moduli (GPa) = 66.50540 122.68996 93.92993
#
# Poissons Ratio (x) = 0.17062 0.29267
# Poissons Ratio (y) = 0.09249 0.35894
# Poissons Ratio (z) = 0.20722 0.46884
#
# Static dielectric constant tensor:
#      x y z
#    x 3.943040 0.000000 0.000000 
#    y 0.000000 4.922610 0.000000 
#    z 0.000000 0.000000 4.552380 
# 
# 
# High freq. dielectric constant tensor:
#      x y z
#    x 1.931960 0.000000 0.000000 
#    y 0.000000 1.979600 0.000000 
#    z 0.000000 0.000000 1.952020 
# 
# From -- ./inp_files/51123.got.cif
#   From: 2010.03.12/outbox.cif.g09.slc.cpg/sg72_26_cif.got.tgz:51123.got - 2010.04.16 14:54:00.
