data_PCOD8295240
_publ_section_title
;
Structure prediction by ZEFSAII (Michael W. Deem and Ramdas Pophale) SiO2 
 PCOD8295240
Probable space group: I B A M
;
_chemical_formula_sum "Si O2"
_cell_formula_units_Z 116
_cell_length_a 26.352423
_cell_length_b 26.612505
_cell_length_c 9.272054
_cell_angle_alpha 90.000000
_cell_angle_beta 90.000000
_cell_angle_gamma 90.000000
_cell_volume 6502.528455
_symmetry_space_group_name_H-M "I B A M"
_symmetry_group_IT_number 72
_symmetry_cell_setting 'orthorhombic'
loop_
_space_group_symop_operation_xyz
x,y,z
-x,-y,z
x,-y,1/2-z
-x,y,1/2-z
-x,-y,-z
x,y,-z
-x,y,1/2+z
x,-y,1/2+z
1/2+x,1/2+y,1/2+z
1/2-x,1/2-y,1/2+z
1/2+x,1/2-y,-z
1/2-x,1/2+y,-z
1/2-x,1/2-y,1/2-z
1/2+x,1/2+y,1/2-z
1/2-x,1/2+y,z
1/2+x,1/2-y,z
loop_
_atom_site_type_symbol
_atom_site_label
_atom_site_fract_x
_atom_site_fract_y
_atom_site_fract_z
Si Si1 0.452352 0.786919 0.666732
Si Si2 0.924679 0.918188 0.839953
Si Si3 0.158384 0.320526 0.669682
Si Si4 0.759637 0.371411 0.667812
Si Si5 0.422130 0.324277 0.168362
Si Si6 0.812496 0.948660 0.827071
Si Si7 0.500000 0.500000 0.750000
Si Si8 0.317976 0.712328 0.335184
O O1 0.500000 0.810998 0.750000
O O2 0.464105 0.792092 0.500000
O O3 0.401485 0.817899 0.705357
O O4 0.448242 0.728267 0.710391
O O5 0.947312 0.872208 0.746333
O O6 0.869897 0.935479 0.779575
O O7 0.917686 0.897374 0.000000
O O8 0.963670 0.964702 0.845167
O O9 0.168154 0.330204 0.500000
O O10 0.184312 0.365365 0.762258
O O11 0.184105 0.268613 0.727695
O O12 0.762645 0.388390 0.500000
O O13 0.727064 0.408984 0.763402
O O14 0.734532 0.316350 0.682854
O O15 0.364104 0.321013 0.228269
O O16 0.426360 0.335576 0.000000
O O17 0.797172 0.000000 0.750000
O O18 0.806745 0.952610 0.000000
O O19 0.334667 0.720825 0.500000
#
# Coordination Sequence:
#
# PCOD8295240 Si02
#       8
#    16  16  16  16  16  16   4  16
#     4   9  19  34  52  74 104 142 177 213 259 305
#     4  11  24  39  55  73  93 125 172 226 279 325
#     4   9  18  33  50  73 107 142 175 212 255 311
#     4  11  20  32  53  80 105 136 171 213 265 317
#     4   9  18  34  53  71  98 133 168 214 265 318
#     4  11  23  40  58  77 100 133 174 219 272 329
#     4  12  26  44  52  70  98 128 176 234 288 328
#     4   8  15  29  49  72 101 136 168 202 256 313
#
# _framework density 17.839213999999998
#
# number of rings (size 3 to 8) (size 9 to 14) (size 15 to 20)
#    0.000    2.207    2.069    3.103    0.966    2.759 
#    0.000    2.759    0.000    0.000    0.000    0.000 
#    0.000    0.552    0.000    5.793    0.000    3.172 
#
# Total GULP energy -718815.213158 kJ/mol
# GULP energy per Si atom -12393.365744 kJ/mol
# Density = 1.779861 g / cm^3
# Si number density = 17.839214 Si / 1000 Ang^3
#
#
#
# Elastic Constant Matrix: (Units=GPa)
#
#
# Indices 1 2 3 4 5 6 
#
# 1 110.4254 42.2833 48.5199 0.0000 0.0000 0.0000
# 2 42.2833 53.1140 29.7159 0.0000 0.0000 0.0000
# 3 48.5199 29.7159 70.4213 0.0000 0.0000 0.0000
# 4 0.0000 0.0000 0.0000 24.1222 0.0000 0.0000
# 5 0.0000 0.0000 0.0000 0.0000 20.6153 0.0000
# 6 0.0000 0.0000 0.0000 0.0000 0.0000 24.5224
#
#
#
# Elastic Compliance Matrix: (Units=1/GPa)
#
#
# Indices 1 2 3 4 5 6 
#
# 1 0.015320 -0.008235 -0.007081 0.000000 0.000000 0.000000
# 2 -0.008235 0.029072 -0.006594 0.000000 0.000000 0.000000
# 3 -0.007081 -0.006594 0.021861 0.000000 0.000000 0.000000
# 4 0.000000 0.000000 0.000000 0.041456 0.000000 0.000000
# 5 0.000000 0.000000 0.000000 0.000000 0.048508 0.000000
# 6 0.000000 0.000000 0.000000 0.000000 0.000000 0.040779
#
#
# Mechanical properties :
#
#
# Convention : Reuss Voigt Hill
#
# Bulk Modulus (GPa) = 44.57359 52.77767 48.67563
# Shear Modulus (GPa) = 20.13746 21.41474 20.77610
#
# Velocity S-wave (km/s) = 3.36345 3.46848 3.41637
# Velocity P-wave (km/s) = 6.33437 6.75943 6.55035
#
# Compressibility (1/GPa) = 0.02243481
#
# Stress axis : x y z
#
# Youngs Moduli (GPa) = 65.27276 34.39716 45.74284
#
# Poissons Ratio (x) = 0.28325 0.32389
# Poissons Ratio (y) = 0.53751 0.30163
# Poissons Ratio (z) = 0.46218 0.22681
#
# Static dielectric constant tensor:
#      x y z
#    x 3.253850 0.000000 0.000000 
#    y 0.000000 3.036790 0.000000 
#    z 0.000000 0.000000 3.116010 
# 
# 
# High freq. dielectric constant tensor:
#      x y z
#    x 1.687580 0.000000 0.000000 
#    y 0.000000 1.655630 0.000000 
#    z 0.000000 0.000000 1.681570 
# 
# From -- ./inp_files/8427.got.cif
#   From: 2010.03.12/outbox.cif.g09.slc.cpg/sg72_5_cif.got.tgz:8427.got - 2010.04.16 14:54:00.
