data_PCOD8295355
_publ_section_title
;
Structure prediction by ZEFSAII (Michael W. Deem and Ramdas Pophale) SiO2 
 PCOD8295355
Probable space group: I B A M
;
_chemical_formula_sum "Si O2"
_cell_formula_units_Z 72
_cell_length_a 26.350175
_cell_length_b 9.207172
_cell_length_c 14.517008
_cell_angle_alpha 90.000000
_cell_angle_beta 90.000000
_cell_angle_gamma 90.000000
_cell_volume 3521.979926
_symmetry_space_group_name_H-M "I B A M"
_symmetry_group_IT_number 72
_symmetry_cell_setting 'orthorhombic'
loop_
_space_group_symop_operation_xyz
x,y,z
-x,-y,z
x,-y,1/2-z
-x,y,1/2-z
-x,-y,-z
x,y,-z
-x,y,1/2+z
x,-y,1/2+z
1/2+x,1/2+y,1/2+z
1/2-x,1/2-y,1/2+z
1/2+x,1/2-y,-z
1/2-x,1/2+y,-z
1/2-x,1/2-y,1/2-z
1/2+x,1/2+y,1/2-z
1/2-x,1/2+y,z
1/2+x,1/2-y,z
loop_
_atom_site_type_symbol
_atom_site_label
_atom_site_fract_x
_atom_site_fract_y
_atom_site_fract_z
Si Si1 0.201095 0.375051 0.602779
Si Si2 0.558055 0.271611 0.241904
Si Si3 0.588720 0.516854 0.103793
Si Si4 0.299045 0.454395 0.854281
Si Si5 0.873533 0.500000 0.750000
O O1 0.178626 0.360709 0.500000
O O2 0.253514 0.462178 0.597044
O O3 0.211658 0.216846 0.643799
O O4 0.161175 0.462497 0.663347
O O5 0.500000 0.223375 0.250000
O O6 0.563239 0.383454 0.157530
O O7 0.576476 0.337171 0.339379
O O8 0.591744 0.133001 0.218460
O O9 0.649246 0.500628 0.095174
O O10 0.566261 0.525317 0.000000
O O11 0.304597 0.500000 0.750000
#
# Coordination Sequence:
#
# PCOD8295355 Si02
#       5
#    16  16  16  16   8
#     4  12  26  42  65  99 137 176 217 266 323 395
#     4  11  25  44  67  95 125 168 223 275 330 389
#     4  11  22  42  69  97 129 166 214 271 327 390
#     4  12  23  43  66  98 134 173 216 262 323 392
#     4  12  25  44  66  92 136 176 215 272 332 394
#
# _framework density 20.443045999999999
#
# number of rings (size 3 to 8) (size 9 to 14) (size 15 to 20)
#    0.000    0.444    5.556    4.333    3.111    2.667 
#    0.000    0.000    0.000    4.000    0.000    0.000 
#    0.000    0.000    0.000    0.000    0.000    0.000 
#
# Total GULP energy -446595.388549 kJ/mol
# GULP energy per Si atom -12405.427460 kJ/mol
# Density = 2.039652 g / cm^3
# Si number density = 20.443046 Si / 1000 Ang^3
#
#
#
# Elastic Constant Matrix: (Units=GPa)
#
#
# Indices 1 2 3 4 5 6 
#
# 1 123.6097 32.0833 23.7484 0.0000 0.0000 0.0000
# 2 32.0833 110.7809 49.4614 0.0000 0.0000 0.0000
# 3 23.7484 49.4614 165.0899 0.0000 0.0000 0.0000
# 4 0.0000 0.0000 0.0000 12.7530 0.0000 0.0000
# 5 0.0000 0.0000 0.0000 0.0000 13.9097 0.0000
# 6 0.0000 0.0000 0.0000 0.0000 0.0000 -12.1988
#
#
#
# Elastic Compliance Matrix: (Units=1/GPa)
#
#
# Indices 1 2 3 4 5 6 
#
# 1 0.008795 -0.002288 -0.000580 0.000000 0.000000 0.000000
# 2 -0.002288 0.011016 -0.002971 0.000000 0.000000 0.000000
# 3 -0.000580 -0.002971 0.007031 0.000000 0.000000 0.000000
# 4 0.000000 0.000000 0.000000 0.078413 0.000000 0.000000
# 5 0.000000 0.000000 0.000000 0.000000 0.071892 0.000000
# 6 0.000000 0.000000 0.000000 0.000000 0.000000 -0.081975
#
#
# Mechanical properties :
#
#
# Convention : Reuss Voigt Hill
#
# Bulk Modulus (GPa) = 65.94673 67.78519 66.86596
# Shear Modulus (GPa) = 44.68054 22.50528 33.59291
#
# Velocity S-wave (km/s) = 4.68012 3.32155 4.05809
# Velocity P-wave (km/s) = 7.84433 6.92389 7.39844
#
# Compressibility (1/GPa) = 0.01516375
#
# Stress axis : x y z
#
# Youngs Moduli (GPa) = 113.69704 90.77542 142.22952
#
# Poissons Ratio (x) = 0.20773 0.08244
# Poissons Ratio (y) = 0.26019 0.42261
# Poissons Ratio (z) = 0.06590 0.26972
#
# Static dielectric constant tensor:
#      x y z
#    x 3.909490 0.000000 0.000000 
#    y 0.000000 3.853270 0.000000 
#    z 0.000000 0.000000 3.849180 
# 
# 
# High freq. dielectric constant tensor:
#      x y z
#    x 1.808600 0.000000 0.000000 
#    y 0.000000 1.800770 0.000000 
#    z 0.000000 0.000000 1.806770 
# 
# From -- ./inp_files/18865.got.cif
#   From: 2010.03.12/outbox.cif.g09.slc.cpg/sg72_10_cif.got.tgz:18865.got - 2010.04.16 14:54:00.
