data_PCOD8295182
_publ_section_title
;
Structure prediction by ZEFSAII (Michael W. Deem and Ramdas Pophale) SiO2 
 PCOD8295182
Probable space group: I B A M
;
_chemical_formula_sum "Si O2"
_cell_formula_units_Z 64
_cell_length_a 14.709223
_cell_length_b 9.263858
_cell_length_c 21.241907
_cell_angle_alpha 90.000000
_cell_angle_beta 90.000000
_cell_angle_gamma 90.000000
_cell_volume 2894.510469
_symmetry_space_group_name_H-M "I B A M"
_symmetry_group_IT_number 72
_symmetry_cell_setting 'orthorhombic'
loop_
_space_group_symop_operation_xyz
x,y,z
-x,-y,z
x,-y,1/2-z
-x,y,1/2-z
-x,-y,-z
x,y,-z
-x,y,1/2+z
x,-y,1/2+z
1/2+x,1/2+y,1/2+z
1/2-x,1/2-y,1/2+z
1/2+x,1/2-y,-z
1/2-x,1/2+y,-z
1/2-x,1/2-y,1/2-z
1/2+x,1/2+y,1/2-z
1/2-x,1/2+y,z
1/2+x,1/2-y,z
loop_
_atom_site_type_symbol
_atom_site_label
_atom_site_fract_x
_atom_site_fract_y
_atom_site_fract_z
Si Si1 0.500000 0.500000 0.903949
Si Si2 0.806812 0.082717 0.569079
Si Si3 0.890441 0.500000 0.750000
Si Si4 0.740056 0.155435 0.844885
Si Si5 0.561064 0.285139 0.695609
O O1 0.588964 0.463076 0.943823
O O2 0.517984 0.650139 0.867161
O O3 0.767817 0.128360 0.500000
O O4 0.796358 0.198385 0.624406
O O5 0.750285 0.948130 0.595228
O O6 0.833013 0.396620 0.705206
O O7 0.948510 0.390387 0.795543
O O8 0.832209 0.174202 0.804277
O O9 0.500000 0.360058 0.750000
#
# Coordination Sequence:
#
# PCOD8295182 Si02
#       5
#     8  16   8  16  16
#     4  10  24  40  66  96 128 175 225 272 328 390
#     4  11  23  44  67  93 131 178 227 274 322 386
#     4  12  23  40  65  98 134 170 210 273 332 398
#     4  11  24  40  66  99 128 172 225 268 328 396
#     4  11  23  37  62  96 136 168 208 267 334 393
#
# _framework density 22.110817999999998
#
# number of rings (size 3 to 8) (size 9 to 14) (size 15 to 20)
#    0.000    1.000    2.500    4.125    7.000    0.000 
#    0.000    0.000    0.000    1.500    0.000    0.000 
#    0.000    0.000    0.000    0.000    0.000    0.000 
#
# Total GULP energy -396418.283793 kJ/mol
# GULP energy per Si atom -12388.071369 kJ/mol
# Density = 2.206049 g / cm^3
# Si number density = 22.110818 Si / 1000 Ang^3
#
#
#
# Elastic Constant Matrix: (Units=GPa)
#
#
# Indices 1 2 3 4 5 6 
#
# 1 83.8425 21.0719 38.0524 0.0000 0.0000 0.0000
# 2 21.0719 112.0555 38.3359 0.0000 0.0000 0.0000
# 3 38.0524 38.3359 112.7678 0.0000 0.0000 0.0000
# 4 0.0000 0.0000 0.0000 32.2780 0.0000 0.0000
# 5 0.0000 0.0000 0.0000 0.0000 11.9962 0.0000
# 6 0.0000 0.0000 0.0000 0.0000 0.0000 26.7452
#
#
#
# Elastic Compliance Matrix: (Units=1/GPa)
#
#
# Indices 1 2 3 4 5 6 
#
# 1 0.014218 -0.001168 -0.004401 0.000000 0.000000 0.000000
# 2 -0.001168 0.010195 -0.003072 0.000000 0.000000 0.000000
# 3 -0.004401 -0.003072 0.011397 0.000000 0.000000 0.000000
# 4 0.000000 0.000000 0.000000 0.030981 0.000000 0.000000
# 5 0.000000 0.000000 0.000000 0.000000 0.083360 0.000000
# 6 0.000000 0.000000 0.000000 0.000000 0.000000 0.037390
#
#
# Mechanical properties :
#
#
# Convention : Reuss Voigt Hill
#
# Bulk Modulus (GPa) = 53.96964 55.95400 54.96182
# Shear Modulus (GPa) = 23.69705 28.28425 25.99065
#
# Velocity S-wave (km/s) = 3.27730 3.58048 3.43224
# Velocity P-wave (km/s) = 6.22757 6.51569 6.37326
#
# Compressibility (1/GPa) = 0.01852894
#
# Stress axis : x y z
#
# Youngs Moduli (GPa) = 70.33360 98.09080 87.74318
#
# Poissons Ratio (x) = 0.11459 0.38612
# Poissons Ratio (y) = 0.08216 0.26951
# Poissons Ratio (z) = 0.30951 0.30129
#
# Static dielectric constant tensor:
#      x y z
#    x 4.361520 0.000000 0.000000 
#    y 0.000000 4.233150 0.000000 
#    z 0.000000 0.000000 3.746630 
# 
# 
# High freq. dielectric constant tensor:
#      x y z
#    x 1.880390 0.000000 0.000000 
#    y 0.000000 1.880710 0.000000 
#    z 0.000000 0.000000 1.859010 
# 
# From -- ./inp_files/38651.got.cif
#   From: 2010.03.12/outbox.cif.g09.slc.cpg/sg72_20_cif.got.tgz:38651.got - 2010.04.16 14:54:00.
