data_PCOD8295717
_publ_section_title
;
Structure prediction by ZEFSAII (Michael W. Deem and Ramdas Pophale) SiO2 
 PCOD8295717
Probable space group: I B C A 
;
_chemical_formula_sum "Si O2"
_cell_formula_units_Z 96
_cell_length_a 20.991271
_cell_length_b 18.697446
_cell_length_c 12.571628
_cell_angle_alpha 90.000000
_cell_angle_beta 90.000000
_cell_angle_gamma 90.000000
_cell_volume 4934.152233
_symmetry_space_group_name_H-M "I B C A "
_symmetry_group_IT_number 73
_symmetry_cell_setting 'orthorhombic'
loop_
_space_group_symop_operation_xyz
x,y,z
-x,1/2-y,z
x,-y,1/2-z
1/2-x,y,-z
-x,-y,-z
x,1/2+y,-z
-x,y,1/2+z
1/2+x,-y,z
1/2+x,1/2+y,1/2+z
1/2-x,-y,1/2+z
1/2+x,1/2-y,-z
-x,1/2+y,1/2-z
1/2-x,1/2-y,1/2-z
1/2+x,y,1/2-z
1/2-x,1/2+y,z
x,1/2-y,1/2+z
loop_
_atom_site_type_symbol
_atom_site_label
_atom_site_fract_x
_atom_site_fract_y
_atom_site_fract_z
Si Si1 0.003801 0.989632 0.363884
Si Si2 0.071400 0.133100 0.905367
Si Si3 0.289140 0.000000 0.750000
Si Si4 0.500000 0.250000 0.963890
Si Si5 0.864242 0.462530 0.044785
Si Si6 0.705491 0.418740 0.411263
Si Si7 0.082144 0.149433 0.665795
O O1 0.061993 0.989989 0.447086
O O2 0.964115 0.915942 0.364448
O O3 0.036833 0.000000 0.250000
O O4 0.958832 0.056301 0.382915
O O5 0.091482 0.164437 0.791371
O O6 0.023265 0.187012 0.960285
O O7 0.130528 0.115619 0.986744
O O8 0.331847 0.959012 0.661126
O O9 0.245159 0.940916 0.806757
O O10 0.443942 0.278580 0.888157
O O11 0.824449 0.511312 0.965460
O O12 0.750000 0.381119 0.500000
O O13 0.652264 0.362461 0.379967
#
# Coordination Sequence:
#
# PCOD8295717 Si02
#       7
#    16  16   8   8  16  16  16
#     4  10  19  34  61  92 118 149 193 266 316 349
#     4  11  22  35  60  91 123 163 195 249 322 366
#     4  10  22  34  54  94 124 156 204 258 304 362
#     4  12  24  38  58  94 128 162 200 254 316 374
#     4  11  18  35  58  88 124 152 203 252 311 363
#     4  10  21  36  60  88 122 164 198 249 306 364
#     4  11  22  40  61  90 127 153 207 256 311 369
#
# _framework density 19.456230000000001
#
# number of rings (size 3 to 8) (size 9 to 14) (size 15 to 20)
#    0.000    1.333    4.167    3.000    1.167    0.000 
#    0.000    0.000    0.000    7.000    0.000    0.000 
#    0.000    0.000    0.000    0.000    0.000    0.000 
#
# Total GULP energy -594881.118946 kJ/mol
# GULP energy per Si atom -12393.356645 kJ/mol
# Density = 1.941195 g / cm^3
# Si number density = 19.456230 Si / 1000 Ang^3
#
#
#
# Elastic Constant Matrix: (Units=GPa)
#
#
# Indices 1 2 3 4 5 6 
#
# 1 87.1537 2.5152 29.7026 0.0000 0.0000 0.0000
# 2 2.5152 36.4090 16.1689 0.0000 0.0000 0.0000
# 3 29.7026 16.1689 136.7986 0.0000 0.0000 0.0000
# 4 0.0000 0.0000 0.0000 7.1615 0.0000 0.0000
# 5 0.0000 0.0000 0.0000 0.0000 13.0863 0.0000
# 6 0.0000 0.0000 0.0000 0.0000 0.0000 28.0262
#
#
#
# Elastic Compliance Matrix: (Units=1/GPa)
#
#
# Indices 1 2 3 4 5 6 
#
# 1 0.012395 0.000358 -0.002734 0.000000 0.000000 0.000000
# 2 0.000358 0.028998 -0.003505 0.000000 0.000000 0.000000
# 3 -0.002734 -0.003505 0.008318 0.000000 0.000000 0.000000
# 4 0.000000 0.000000 0.000000 0.139635 0.000000 0.000000
# 5 0.000000 0.000000 0.000000 0.000000 0.076416 0.000000
# 6 0.000000 0.000000 0.000000 0.000000 0.000000 0.035681
#
#
# Mechanical properties :
#
#
# Convention : Reuss Voigt Hill
#
# Bulk Modulus (GPa) = 26.35133 39.68163 33.01648
# Shear Modulus (GPa) = 15.34430 23.78645 19.56538
#
# Velocity S-wave (km/s) = 2.81135 3.50031 3.17458
# Velocity P-wave (km/s) = 4.91035 6.06431 5.51758
#
# Compressibility (1/GPa) = 0.03794874
#
# Stress axis : x y z
#
# Youngs Moduli (GPa) = 80.67578 34.48567 120.22360
#
# Poissons Ratio (x) = -0.01233 0.32865
# Poissons Ratio (y) = -0.02886 0.42139
# Poissons Ratio (z) = 0.22054 0.12087
#
# Static dielectric constant tensor:
#      x y z
#    x 3.658340 0.000000 0.000000 
#    y 0.000000 3.201920 0.000000 
#    z 0.000000 0.000000 4.575800 
# 
# 
# High freq. dielectric constant tensor:
#      x y z
#    x 1.752380 0.000000 0.000000 
#    y 0.000000 1.711690 0.000000 
#    z 0.000000 0.000000 1.799250 
# 
# From -- ./inp_files/18881.got.cif
#   From: 2010.03.12/outbox.cif.g09.slc.cpg/sg73_10_cif.got.tgz:18881.got - 2010.04.16 15:25:48.
