data_PCOD8295728
_publ_section_title
;
Structure prediction by ZEFSAII (Michael W. Deem and Ramdas Pophale) SiO2 
 PCOD8295728
Probable space group: I B C A 
;
_chemical_formula_sum "Si O2"
_cell_formula_units_Z 120
_cell_length_a 22.987649
_cell_length_b 9.254142
_cell_length_c 28.024183
_cell_angle_alpha 90.000000
_cell_angle_beta 90.000000
_cell_angle_gamma 90.000000
_cell_volume 5961.611580
_symmetry_space_group_name_H-M "I B C A "
_symmetry_group_IT_number 73
_symmetry_cell_setting 'orthorhombic'
loop_
_space_group_symop_operation_xyz
x,y,z
-x,1/2-y,z
x,-y,1/2-z
1/2-x,y,-z
-x,-y,-z
x,1/2+y,-z
-x,y,1/2+z
1/2+x,-y,z
1/2+x,1/2+y,1/2+z
1/2-x,-y,1/2+z
1/2+x,1/2-y,-z
-x,1/2+y,1/2-z
1/2-x,1/2-y,1/2-z
1/2+x,y,1/2-z
1/2-x,1/2+y,z
x,1/2-y,1/2+z
loop_
_atom_site_type_symbol
_atom_site_label
_atom_site_fract_x
_atom_site_fract_y
_atom_site_fract_z
Si Si1 0.697967 0.166030 0.908146
Si Si2 0.582431 0.654708 0.035354
Si Si3 0.739112 0.500000 0.750000
Si Si4 0.048407 0.873066 0.787250
Si Si5 0.227686 0.444736 0.552599
Si Si6 0.821609 0.230265 0.199941
Si Si7 0.408094 0.522251 0.055102
Si Si8 0.004874 0.581182 0.384171
O O1 0.644884 0.126857 0.942184
O O2 0.738762 0.277229 0.937399
O O3 0.679056 0.230168 0.857497
O O4 0.737264 0.024167 0.905233
O O5 0.567468 0.824635 0.035131
O O6 0.540740 0.555151 0.067499
O O7 0.576784 0.604937 0.981058
O O8 0.699124 0.387936 0.780635
O O9 0.780014 0.599479 0.783161
O O10 0.111920 0.798187 0.784699
O O11 0.037425 0.967026 0.836043
O O12 0.000000 0.750000 0.777409
O O13 0.043833 0.000000 0.750000
O O14 0.250000 0.488149 0.500000
O O15 0.160279 0.475970 0.562528
O O16 0.442217 0.502418 0.105977
O O17 0.000000 0.750000 0.373977
#
# Coordination Sequence:
#
# PCOD8295728 Si02
#       8
#    16  16   8  16  16  16  16  16
#     4  11  22  36  59  86 121 167 202 253 318 385
#     4  10  19  35  56  83 113 157 199 244 301 366
#     4  10  24  42  72 100 128 166 212 280 342 412
#     4  11  24  43  69  93 127 169 218 277 334 395
#     4  11  22  35  55  86 125 161 206 249 307 376
#     4  11  22  45  67  98 131 166 218 273 341 407
#     4  10  21  34  58  85 118 158 206 251 304 374
#     4   9  19  39  61  82 113 159 204 251 313 377
#
# _framework density 20.128786000000002
#
# number of rings (size 3 to 8) (size 9 to 14) (size 15 to 20)
#    0.000    1.600    3.333    1.600    4.667    0.000 
#    0.000    1.333    0.000    0.000    0.000    0.000 
#    0.000    0.000    0.000    0.000    0.000    0.000 
#
# Total GULP energy -743359.170345 kJ/mol
# GULP energy per Si atom -12389.319506 kJ/mol
# Density = 2.008297 g / cm^3
# Si number density = 20.128786 Si / 1000 Ang^3
#
#
#
# Elastic Constant Matrix: (Units=GPa)
#
#
# Indices 1 2 3 4 5 6 
#
# 1 117.2385 59.1140 44.6687 0.0000 0.0000 0.0000
# 2 59.1140 69.6937 34.7216 0.0000 0.0000 0.0000
# 3 44.6687 34.7216 91.9533 0.0000 0.0000 0.0000
# 4 0.0000 0.0000 0.0000 27.7990 0.0000 0.0000
# 5 0.0000 0.0000 0.0000 0.0000 25.3305 0.0000
# 6 0.0000 0.0000 0.0000 0.0000 0.0000 12.4504
#
#
#
# Elastic Compliance Matrix: (Units=1/GPa)
#
#
# Indices 1 2 3 4 5 6 
#
# 1 0.015626 -0.011667 -0.003185 0.000000 0.000000 0.000000
# 2 -0.011667 0.026384 -0.004295 0.000000 0.000000 0.000000
# 3 -0.003185 -0.004295 0.014044 0.000000 0.000000 0.000000
# 4 0.000000 0.000000 0.000000 0.035973 0.000000 0.000000
# 5 0.000000 0.000000 0.000000 0.000000 0.039478 0.000000
# 6 0.000000 0.000000 0.000000 0.000000 0.000000 0.080319
#
#
# Mechanical properties :
#
#
# Convention : Reuss Voigt Hill
#
# Bulk Modulus (GPa) = 56.30737 61.76601 59.03669
# Shear Modulus (GPa) = 19.52832 22.47472 21.00152
#
# Velocity S-wave (km/s) = 3.11813 3.34510 3.23361
# Velocity P-wave (km/s) = 6.40296 6.75808 6.58292
#
# Compressibility (1/GPa) = 0.01775966
#
# Stress axis : x y z
#
# Youngs Moduli (GPa) = 63.99620 37.90143 71.20339
#
# Poissons Ratio (x) = 0.44219 0.22680
# Poissons Ratio (y) = 0.74664 0.30583
# Poissons Ratio (z) = 0.20384 0.16279
#
# Static dielectric constant tensor:
#      x y z
#    x 3.905500 0.000000 0.000000 
#    y 0.000000 3.633000 0.000000 
#    z 0.000000 0.000000 3.777690 
# 
# 
# High freq. dielectric constant tensor:
#      x y z
#    x 1.802620 0.000000 0.000000 
#    y 0.000000 1.768520 0.000000 
#    z 0.000000 0.000000 1.782300 
# 
# From -- ./inp_files/34811.got.cif
#   From: 2010.03.12/outbox.cif.g09.slc.cpg/sg73_18_cif.got.tgz:34811.got - 2010.04.16 15:25:48.
