data_PCOD8295855
_publ_section_title
;
Structure prediction by ZEFSAII (Michael W. Deem and Ramdas Pophale) SiO2 
 PCOD8295855
Probable space group: I B C A 
;
_chemical_formula_sum "Si O2"
_cell_formula_units_Z 104
_cell_length_a 21.184938
_cell_length_b 28.485420
_cell_length_c 9.284285
_cell_angle_alpha 90.000000
_cell_angle_beta 90.000000
_cell_angle_gamma 90.000000
_cell_volume 5602.711863
_symmetry_space_group_name_H-M "I B C A "
_symmetry_group_IT_number 73
_symmetry_cell_setting 'orthorhombic'
loop_
_space_group_symop_operation_xyz
x,y,z
-x,1/2-y,z
x,-y,1/2-z
1/2-x,y,-z
-x,-y,-z
x,1/2+y,-z
-x,y,1/2+z
1/2+x,-y,z
1/2+x,1/2+y,1/2+z
1/2-x,-y,1/2+z
1/2+x,1/2-y,-z
-x,1/2+y,1/2-z
1/2-x,1/2-y,1/2-z
1/2+x,y,1/2-z
1/2-x,1/2+y,z
x,1/2-y,1/2+z
loop_
_atom_site_type_symbol
_atom_site_label
_atom_site_fract_x
_atom_site_fract_y
_atom_site_fract_z
Si Si1 0.214017 0.000000 0.250000
Si Si2 0.458959 0.812790 0.557604
Si Si3 0.553331 0.896626 0.531485
Si Si4 0.750000 0.937827 0.000000
Si Si5 0.000000 0.250000 0.309120
Si Si6 0.029041 0.554944 0.761924
Si Si7 0.815324 0.410345 0.414356
Si Si8 0.859704 0.886413 0.876862
O O1 0.257254 0.969177 0.356104
O O2 0.174074 0.963834 0.148489
O O3 0.521773 0.845390 0.554122
O O4 0.455691 0.780731 0.414981
O O5 0.458756 0.783071 0.705374
O O6 0.393114 0.840381 0.561841
O O7 0.525029 0.918632 0.387994
O O8 0.536197 0.931450 0.660897
O O9 0.629346 0.895315 0.524073
O O10 0.811765 0.905290 0.996836
O O11 0.035417 0.500000 0.750000
O O12 0.088002 0.573430 0.854114
O O13 0.750000 0.404545 0.500000
O O14 0.821427 0.376708 0.273373
#
# Coordination Sequence:
#
# PCOD8295855 Si02
#       8
#     8  16  16   8   8  16  16  16
#     4  10  20  36  50  76 114 158 230 236 264 310
#     4  10  20  41  61  96 112 146 182 244 312 366
#     4  10  21  36  55  81 121 147 191 248 287 344
#     4  10  20  36  54  78 106 170 192 252 266 330
#     4  10  20  36  72  92 110 138 186 234 312 394
#     4  10  20  35  51  77 114 162 193 238 290 321
#     4  10  20  36  54  77 113 169 200 248 274 324
#     4   9  21  36  59  76 124 149 195 242 291 338
#
# _framework density 18.562439999999999
#
# number of rings (size 3 to 8) (size 9 to 14) (size 15 to 20)
#    0.000    2.154    0.769    3.231    9.692    0.000 
#   18.000    0.000    0.000    0.923    8.000    0.000 
#    0.000    0.000    0.000    0.000    0.000    0.000 
#
# Total GULP energy -644436.328670 kJ/mol
# GULP energy per Si atom -12393.006321 kJ/mol
# Density = 1.852019 g / cm^3
# Si number density = 18.562440 Si / 1000 Ang^3
#
#
#
# Elastic Constant Matrix: (Units=GPa)
#
#
# Indices 1 2 3 4 5 6 
#
# 1 80.9721 46.8177 60.9687 0.0000 0.0000 0.0000
# 2 46.8177 116.7284 56.7912 0.0000 0.0000 0.0000
# 3 60.9687 56.7912 98.2983 0.0000 0.0000 0.0000
# 4 0.0000 0.0000 0.0000 32.7641 0.0000 0.0000
# 5 0.0000 0.0000 0.0000 0.0000 59.6763 0.0000
# 6 0.0000 0.0000 0.0000 0.0000 0.0000 28.9963
#
#
#
# Elastic Compliance Matrix: (Units=1/GPa)
#
#
# Indices 1 2 3 4 5 6 
#
# 1 0.024064 -0.003325 -0.013005 0.000000 0.000000 0.000000
# 2 -0.003325 0.012376 -0.005088 0.000000 0.000000 0.000000
# 3 -0.013005 -0.005088 0.021179 0.000000 0.000000 0.000000
# 4 0.000000 0.000000 0.000000 0.030521 0.000000 0.000000
# 5 0.000000 0.000000 0.000000 0.000000 0.016757 0.000000
# 6 0.000000 0.000000 0.000000 0.000000 0.000000 0.034487
#
#
# Mechanical properties :
#
#
# Convention : Reuss Voigt Hill
#
# Bulk Modulus (GPa) = 67.64079 69.46156 68.55117
# Shear Modulus (GPa) = 26.71686 33.04875 29.88281
#
# Velocity S-wave (km/s) = 3.79792 4.22407 4.01665
# Velocity P-wave (km/s) = 7.46666 7.82892 7.64994
#
# Compressibility (1/GPa) = 0.01478398
#
# Stress axis : x y z
#
# Youngs Moduli (GPa) = 41.55503 80.80329 47.21673
#
# Poissons Ratio (x) = 0.26864 0.61406
# Poissons Ratio (y) = 0.13815 0.24024
# Poissons Ratio (z) = 0.54043 0.41112
#
# Static dielectric constant tensor:
#      x y z
#    x 3.330720 0.000000 0.000000 
#    y 0.000000 3.430050 0.000000 
#    z 0.000000 0.000000 3.688230 
# 
# 
# High freq. dielectric constant tensor:
#      x y z
#    x 1.699650 0.000000 0.000000 
#    y 0.000000 1.706390 0.000000 
#    z 0.000000 0.000000 1.733780 
# 
# From -- ./inp_files/7457.got.cif
#   From: 2010.03.12/outbox.cif.g09.slc.cpg/sg73_4_cif.got.tgz:7457.got - 2010.04.16 15:25:48.
