data_PCOD8295835
_publ_section_title
;
Structure prediction by ZEFSAII (Michael W. Deem and Ramdas Pophale) SiO2 
 PCOD8295835
Probable space group: I B C A 
;
_chemical_formula_sum "Si O2"
_cell_formula_units_Z 96
_cell_length_a 14.507028
_cell_length_b 19.873020
_cell_length_c 16.763622
_cell_angle_alpha 90.000000
_cell_angle_beta 90.000000
_cell_angle_gamma 90.000000
_cell_volume 4832.926366
_symmetry_space_group_name_H-M "I B C A "
_symmetry_group_IT_number 73
_symmetry_cell_setting 'orthorhombic'
loop_
_space_group_symop_operation_xyz
x,y,z
-x,1/2-y,z
x,-y,1/2-z
1/2-x,y,-z
-x,-y,-z
x,1/2+y,-z
-x,y,1/2+z
1/2+x,-y,z
1/2+x,1/2+y,1/2+z
1/2-x,-y,1/2+z
1/2+x,1/2-y,-z
-x,1/2+y,1/2-z
1/2-x,1/2-y,1/2-z
1/2+x,y,1/2-z
1/2-x,1/2+y,z
x,1/2-y,1/2+z
loop_
_atom_site_type_symbol
_atom_site_label
_atom_site_fract_x
_atom_site_fract_y
_atom_site_fract_z
Si Si1 0.685226 0.051041 0.422687
Si Si2 0.150985 0.182055 0.702280
Si Si3 0.506889 0.490992 0.384068
Si Si4 0.699835 0.934763 0.583554
Si Si5 0.987188 0.602647 0.232596
Si Si6 0.324396 0.829226 0.695021
O O1 0.750000 0.056913 0.500000
O O2 0.579755 0.027645 0.441328
O O3 0.683281 0.122683 0.380988
O O4 0.734521 0.990404 0.371342
O O5 0.185914 0.132773 0.632921
O O6 0.223746 0.183627 0.772776
O O7 0.135442 0.256890 0.666417
O O8 0.059271 0.160691 0.747549
O O9 0.600227 0.470335 0.429611
O O10 0.494960 0.451320 0.302246
O O11 0.505406 0.569400 0.354743
O O12 0.750000 0.916528 0.500000
O O13 0.886555 0.637001 0.235653
#
# Coordination Sequence:
#
# PCOD8295835 Si02
#       6
#    16  16  16  16  16  16
#     4  10  21  35  53  78 109 146 186 227 276 336
#     4  10  20  34  54  80 108 140 182 232 284 337
#     4   9  18  33  54  80 106 140 184 230 279 331
#     4  10  21  35  53  78 109 146 186 227 276 336
#     4   9  17  32  56  80 105 138 182 233 282 331
#     4  10  20  34  54  80 108 140 182 232 284 337
#
# _framework density 19.863741000000001
#
# number of rings (size 3 to 8) (size 9 to 14) (size 15 to 20)
#    0.000    2.333    0.000    2.500    0.000    6.667 
#    0.000    1.667    0.000    0.000    0.000    0.000 
#    0.000    0.000    0.000    0.000    0.000    0.000 
#
# Total GULP energy -594647.763386 kJ/mol
# GULP energy per Si atom -12388.495071 kJ/mol
# Density = 1.981853 g / cm^3
# Si number density = 19.863741 Si / 1000 Ang^3
#
#
#
# Elastic Constant Matrix: (Units=GPa)
#
#
# Indices 1 2 3 4 5 6 
#
# 1 110.7349 14.0046 14.8156 0.0000 0.0000 0.0000
# 2 14.0046 124.2520 28.6167 -0.0001 0.0000 0.0000
# 3 14.8156 28.6167 54.3447 -0.0001 0.0000 0.0000
# 4 0.0000 -0.0001 -0.0001 27.4629 0.0000 0.0000
# 5 0.0000 0.0000 0.0000 0.0000 32.1417 0.0000
# 6 0.0000 0.0000 0.0000 0.0000 0.0000 20.3706
#
#
#
# Elastic Compliance Matrix: (Units=1/GPa)
#
#
# Indices 1 2 3 4 5 6 
#
# 1 0.009403 -0.000534 -0.002282 0.000000 0.000000 0.000000
# 2 -0.000534 0.009189 -0.004693 0.000000 0.000000 0.000000
# 3 -0.002282 -0.004693 0.021495 0.000000 0.000000 0.000000
# 4 0.000000 0.000000 0.000000 0.036413 0.000000 0.000000
# 5 0.000000 0.000000 0.000000 0.000000 0.031112 0.000000
# 6 0.000000 0.000000 0.000000 0.000000 0.000000 0.049090
#
#
# Mechanical properties :
#
#
# Convention : Reuss Voigt Hill
#
# Bulk Modulus (GPa) = 39.89169 44.91171 42.40170
# Shear Modulus (GPa) = 27.76573 31.45470 29.61021
#
# Velocity S-wave (km/s) = 3.74279 3.98367 3.86510
# Velocity P-wave (km/s) = 6.22930 6.61955 6.42739
#
# Compressibility (1/GPa) = 0.02506788
#
# Stress axis : x y z
#
# Youngs Moduli (GPa) = 106.34341 108.82240 46.52328
#
# Poissons Ratio (x) = 0.05814 0.10618
# Poissons Ratio (y) = 0.05681 0.21834
# Poissons Ratio (z) = 0.24271 0.51073
#
# Static dielectric constant tensor:
#      x y z
#    x 3.995190 0.000000 0.000000 
#    y 0.000000 4.127390 0.000000 
#    z 0.000000 0.000000 3.189250 
# 
# 
# High freq. dielectric constant tensor:
#      x y z
#    x 1.798030 0.000000 0.000000 
#    y 0.000000 1.778840 0.000000 
#    z 0.000000 0.000000 1.738510 
# 
# From -- ./inp_files/25439.got.cif
#   From: 2010.03.12/outbox.cif.g09.slc.cpg/sg73_13_cif.got.tgz:25439.got - 2010.04.16 15:25:48.
