data_PCOD8295418
_publ_section_title
;
Structure prediction by ZEFSAII (Michael W. Deem and Ramdas Pophale) SiO2 
 PCOD8295418
Probable space group: I B A M
;
_chemical_formula_sum "Si O2"
_cell_formula_units_Z 64
_cell_length_a 9.916196
_cell_length_b 9.322967
_cell_length_c 27.507652
_cell_angle_alpha 90.000000
_cell_angle_beta 90.000000
_cell_angle_gamma 90.000000
_cell_volume 2543.037537
_symmetry_space_group_name_H-M "I B A M"
_symmetry_group_IT_number 72
_symmetry_cell_setting 'orthorhombic'
loop_
_space_group_symop_operation_xyz
x,y,z
-x,-y,z
x,-y,1/2-z
-x,y,1/2-z
-x,-y,-z
x,y,-z
-x,y,1/2+z
x,-y,1/2+z
1/2+x,1/2+y,1/2+z
1/2-x,1/2-y,1/2+z
1/2+x,1/2-y,-z
1/2-x,1/2+y,-z
1/2-x,1/2-y,1/2-z
1/2+x,1/2+y,1/2-z
1/2-x,1/2+y,z
1/2+x,1/2-y,z
loop_
_atom_site_type_symbol
_atom_site_label
_atom_site_fract_x
_atom_site_fract_y
_atom_site_fract_z
Si Si1 0.493010 0.667234 0.000000
Si Si2 0.809480 0.886934 0.084846
Si Si3 0.856210 0.565596 0.500000
Si Si4 0.546826 0.848216 0.694703
Si Si5 0.329756 0.342532 0.147766
O O1 0.500000 0.500000 0.000000
O O2 0.420153 0.698200 0.052167
O O3 0.629467 0.759480 0.000000
O O4 0.722889 0.984482 0.047636
O O5 0.715522 0.765705 0.106605
O O6 0.860621 0.999535 0.125844
O O7 0.000000 0.500000 0.500000
O O8 0.500000 0.841740 0.750000
O O9 0.473080 0.714757 0.668344
O O10 0.709636 0.841727 0.688567
O O11 0.500000 0.000000 0.671565
#
# Coordination Sequence:
#
# PCOD8295418 Si02
#       5
#     8  16   8  16  16
#     4  11  24  41  64  95 143 180 235 296 343 416
#     4  11  26  41  66 105 137 188 243 294 359 421
#     4  11  24  43  68  91 144 191 236 293 349 412
#     4  11  26  50  75 108 146 188 239 313 382 444
#     4  12  25  46  76 106 144 190 245 301 366 445
#
# _framework density 25.166754000000001
#
# number of rings (size 3 to 8) (size 9 to 14) (size 15 to 20)
#    0.000    0.750    2.500    3.750   10.500    4.000 
#    0.000    1.250    0.000    0.000    0.000    0.000 
#    0.000    0.000    0.000    0.000    0.000    0.000 
#
# Total GULP energy -396449.675336 kJ/mol
# GULP energy per Si atom -12389.052354 kJ/mol
# Density = 2.510947 g / cm^3
# Si number density = 25.166754 Si / 1000 Ang^3
#
#
#
# Elastic Constant Matrix: (Units=GPa)
#
#
# Indices 1 2 3 4 5 6 
#
# 1 77.9537 -1.6694 7.1101 0.0000 0.0000 0.0000
# 2 -1.6694 81.8389 13.8906 0.0000 0.0000 0.0000
# 3 7.1101 13.8906 106.5221 0.0000 0.0000 0.0000
# 4 0.0000 0.0000 0.0000 20.5761 0.0000 0.0000
# 5 0.0000 0.0000 0.0000 0.0000 12.8009 0.0000
# 6 0.0000 0.0000 0.0000 0.0000 0.0000 40.4205
#
#
#
# Elastic Compliance Matrix: (Units=1/GPa)
#
#
# Indices 1 2 3 4 5 6 
#
# 1 0.012921 0.000419 -0.000917 0.000000 0.000000 0.000000
# 2 0.000419 0.012509 -0.001659 0.000000 0.000000 0.000000
# 3 -0.000917 -0.001659 0.009665 0.000000 0.000000 0.000000
# 4 0.000000 0.000000 0.000000 0.048600 0.000000 0.000000
# 5 0.000000 0.000000 0.000000 0.000000 0.078119 0.000000
# 6 0.000000 0.000000 0.000000 0.000000 0.000000 0.024740
#
#
# Mechanical properties :
#
#
# Convention : Reuss Voigt Hill
#
# Bulk Modulus (GPa) = 32.48739 33.88638 33.18689
# Shear Modulus (GPa) = 24.85965 31.22508 28.04236
#
# Velocity S-wave (km/s) = 3.14633 3.52622 3.34168
# Velocity P-wave (km/s) = 5.11235 5.48388 5.30137
#
# Compressibility (1/GPa) = 0.03078117
#
# Stress axis : x y z
#
# Youngs Moduli (GPa) = 77.39491 79.94053 103.46290
#
# Poissons Ratio (x) = -0.03351 0.09489
# Poissons Ratio (y) = -0.03245 0.17167
# Poissons Ratio (z) = 0.07098 0.13264
#
# Static dielectric constant tensor:
#      x y z
#    x 4.460050 0.000000 0.000000 
#    y 0.000000 2.784770 0.000000 
#    z 0.000000 0.000000 4.287100 
# 
# 
# High freq. dielectric constant tensor:
#      x y z
#    x 2.009070 0.000000 0.000000 
#    y 0.000000 2.011840 0.000000 
#    z 0.000000 0.000000 2.002520 
# 
# From -- ./inp_files/51150.got.cif
#   From: 2010.03.12/outbox.cif.g09.slc.cpg/sg72_26_cif.got.tgz:51150.got - 2010.04.16 14:54:00.
