data_PCOD8295961
_publ_section_title
;
Structure prediction by ZEFSAII (Michael W. Deem and Ramdas Pophale) SiO2 
 PCOD8295961
Probable space group: I B C A 
;
_chemical_formula_sum "Si O2"
_cell_formula_units_Z 96
_cell_length_a 22.732985
_cell_length_b 13.873509
_cell_length_c 13.988096
_cell_angle_alpha 90.000000
_cell_angle_beta 90.000000
_cell_angle_gamma 90.000000
_cell_volume 4411.653450
_symmetry_space_group_name_H-M "I B C A "
_symmetry_group_IT_number 73
_symmetry_cell_setting 'orthorhombic'
loop_
_space_group_symop_operation_xyz
x,y,z
-x,1/2-y,z
x,-y,1/2-z
1/2-x,y,-z
-x,-y,-z
x,1/2+y,-z
-x,y,1/2+z
1/2+x,-y,z
1/2+x,1/2+y,1/2+z
1/2-x,-y,1/2+z
1/2+x,1/2-y,-z
-x,1/2+y,1/2-z
1/2-x,1/2-y,1/2-z
1/2+x,y,1/2-z
1/2-x,1/2+y,z
x,1/2-y,1/2+z
loop_
_atom_site_type_symbol
_atom_site_label
_atom_site_fract_x
_atom_site_fract_y
_atom_site_fract_z
Si Si1 0.788847 0.695685 0.173464
Si Si2 0.041569 0.499936 0.644473
Si Si3 0.340357 0.900085 0.662396
Si Si4 0.518552 0.143607 0.518530
Si Si5 0.720889 0.509159 0.147747
Si Si6 0.151267 0.645790 0.043702
O O1 0.750000 0.750000 0.250000
O O2 0.844750 0.654980 0.235369
O O3 0.746057 0.615767 0.122222
O O4 0.814919 0.767876 0.095244
O O5 0.012557 0.500000 0.750000
O O6 0.111523 0.484399 0.654170
O O7 0.014350 0.414252 0.580968
O O8 0.028612 0.601309 0.593466
O O9 0.344789 0.831105 0.569583
O O10 0.276108 0.942041 0.664498
O O11 0.500000 0.250000 0.491331
O O12 0.582393 0.139592 0.569466
O O13 0.686222 0.500000 0.250000
O O14 0.680135 0.460338 0.065770
#
# Coordination Sequence:
#
# PCOD8295961 Si02
#       6
#    16  16  16  16  16  16
#     4  11  22  40  66  97 136 172 223 269 329 407
#     4  10  22  45  70  93 136 176 224 282 340 402
#     4  10  22  41  65  94 131 173 220 268 338 396
#     4  10  25  44  68 103 134 175 236 281 333 403
#     4  10  20  38  62  91 131 171 212 268 331 392
#     4  11  23  44  63  97 140 169 226 280 322 405
#
# _framework density 21.760549000000001
#
# number of rings (size 3 to 8) (size 9 to 14) (size 15 to 20)
#    0.000    1.667    3.333    2.000    4.667    1.333 
#    9.000    1.667    0.000    0.000    0.000    0.000 
#    0.000    0.000    0.000    0.000    0.000    0.000 
#
# Total GULP energy -594771.890551 kJ/mol
# GULP energy per Si atom -12391.081053 kJ/mol
# Density = 2.171102 g / cm^3
# Si number density = 21.760549 Si / 1000 Ang^3
#
#
#
# Elastic Constant Matrix: (Units=GPa)
#
#
# Indices 1 2 3 4 5 6 
#
# 1 82.3864 39.9224 29.6061 0.0000 0.0000 0.0000
# 2 39.9224 124.0871 49.9212 0.0000 0.0000 0.0000
# 3 29.6061 49.9212 119.8940 0.0000 0.0000 0.0000
# 4 0.0000 0.0000 0.0000 28.6188 0.0000 0.0000
# 5 0.0000 0.0000 0.0000 0.0000 2.3330 0.0000
# 6 0.0000 0.0000 0.0000 0.0000 0.0000 26.3471
#
#
#
# Elastic Compliance Matrix: (Units=1/GPa)
#
#
# Indices 1 2 3 4 5 6 
#
# 1 0.014770 -0.003946 -0.002004 0.000000 0.000000 0.000000
# 2 -0.003946 0.010734 -0.003495 0.000000 0.000000 0.000000
# 3 -0.002004 -0.003495 0.010291 0.000000 0.000000 0.000000
# 4 0.000000 0.000000 0.000000 0.034942 0.000000 0.000000
# 5 0.000000 0.000000 0.000000 0.000000 0.428640 0.000000
# 6 0.000000 0.000000 0.000000 0.000000 0.000000 0.037955
#
#
# Mechanical properties :
#
#
# Convention : Reuss Voigt Hill
#
# Bulk Modulus (GPa) = 59.15393 62.80743 60.98068
# Shear Modulus (GPa) = 8.89904 25.25430 17.07667
#
# Velocity S-wave (km/s) = 2.02445 3.41039 2.80438
# Velocity P-wave (km/s) = 5.71905 6.66583 6.21051
#
# Compressibility (1/GPa) = 0.01690505
#
# Stress axis : x y z
#
# Youngs Moduli (GPa) = 67.70400 93.15807 97.17216
#
# Poissons Ratio (x) = 0.36756 0.19477
# Poissons Ratio (y) = 0.26713 0.33964
# Poissons Ratio (z) = 0.13571 0.32561
#
# Static dielectric constant tensor:
#      x y z
#    x 3.926160 0.000000 0.000000 
#    y 0.000000 11.103060 0.000000 
#    z 0.000000 0.000000 4.068350 
# 
# 
# High freq. dielectric constant tensor:
#      x y z
#    x 1.837530 0.000000 0.000000 
#    y 0.000000 1.852200 0.000000 
#    z 0.000000 0.000000 1.866870 
# 
# From -- ./inp_files/18630.got.cif
#   From: 2010.03.12/outbox.cif.g09.slc.cpg/sg73_10_cif.got.tgz:18630.got - 2010.04.16 15:25:48.
