data_PCOD8295759
_publ_section_title
;
Structure prediction by ZEFSAII (Michael W. Deem and Ramdas Pophale) SiO2 
 PCOD8295759
Probable space group: I B C A 
;
_chemical_formula_sum "Si O2"
_cell_formula_units_Z 120
_cell_length_a 11.470293
_cell_length_b 26.620025
_cell_length_c 19.271114
_cell_angle_alpha 90.000000
_cell_angle_beta 90.000000
_cell_angle_gamma 90.000000
_cell_volume 5884.232051
_symmetry_space_group_name_H-M "I B C A "
_symmetry_group_IT_number 73
_symmetry_cell_setting 'orthorhombic'
loop_
_space_group_symop_operation_xyz
x,y,z
-x,1/2-y,z
x,-y,1/2-z
1/2-x,y,-z
-x,-y,-z
x,1/2+y,-z
-x,y,1/2+z
1/2+x,-y,z
1/2+x,1/2+y,1/2+z
1/2-x,-y,1/2+z
1/2+x,1/2-y,-z
-x,1/2+y,1/2-z
1/2-x,1/2-y,1/2-z
1/2+x,y,1/2-z
1/2-x,1/2+y,z
x,1/2-y,1/2+z
loop_
_atom_site_type_symbol
_atom_site_label
_atom_site_fract_x
_atom_site_fract_y
_atom_site_fract_z
Si Si1 0.750000 0.580955 0.000000
Si Si2 0.120621 0.381185 0.871105
Si Si3 0.095987 0.549251 0.149302
Si Si4 0.668588 0.100203 0.779280
Si Si5 0.702746 0.899998 0.074006
Si Si6 0.114879 0.721765 0.689495
Si Si7 0.547776 0.442452 0.403075
Si Si8 0.748141 0.182267 0.313326
O O1 0.813619 0.614797 0.056321
O O2 0.646666 0.549318 0.037524
O O3 0.198493 0.403870 0.807833
O O4 0.100335 0.321470 0.867398
O O5 0.996992 0.408315 0.871103
O O6 0.135729 0.553285 0.229828
O O7 0.212153 0.557035 0.103583
O O8 0.036819 0.495716 0.135464
O O9 0.583920 0.099767 0.846130
O O10 0.655663 0.150670 0.732244
O O11 0.574927 0.924847 0.065193
O O12 0.700637 0.851146 0.123398
O O13 0.750000 0.881732 0.000000
O O14 0.203826 0.764099 0.660675
O O15 0.144378 0.694936 0.761585
O O16 0.000000 0.750000 0.707015
#
# Coordination Sequence:
#
# PCOD8295759 Si02
#       8
#     8  16  16  16  16  16  16  16
#     4  10  24  46  62  86 134 178 224 252 324 392
#     4  10  22  41  67  90 132 173 210 269 322 386
#     4  11  24  40  63  95 127 169 221 271 317 382
#     4   9  21  40  61  92 128 162 210 269 322 371
#     4  11  25  41  62  92 133 169 213 268 321 380
#     4  10  19  36  68  95 122 162 209 263 327 380
#     4  11  25  40  66  92 129 178 217 264 322 383
#     4   9  21  39  62  94 126 160 211 262 319 386
#
# _framework density 20.393484000000001
#
# number of rings (size 3 to 8) (size 9 to 14) (size 15 to 20)
#    0.000    1.867    0.000    2.800   12.133    1.067 
#    1.200    0.000    0.000    0.800    0.000    0.000 
#    0.000    0.000    0.000    0.000    0.000    0.000 
#
# Total GULP energy -743617.364647 kJ/mol
# GULP energy per Si atom -12393.622744 kJ/mol
# Density = 2.034707 g / cm^3
# Si number density = 20.393484 Si / 1000 Ang^3
#
#
#
# Elastic Constant Matrix: (Units=GPa)
#
#
# Indices 1 2 3 4 5 6 
#
# 1 122.7783 46.3176 45.5089 0.0000 0.0000 0.0000
# 2 46.3176 121.4278 47.7112 0.0000 0.0000 0.0000
# 3 45.5089 47.7112 106.9204 -0.0002 0.0000 0.0000
# 4 0.0000 0.0000 -0.0002 23.2559 0.0000 0.0000
# 5 0.0000 0.0000 0.0000 0.0000 24.0390 0.0000
# 6 0.0000 0.0000 0.0000 0.0000 0.0000 28.7679
#
#
#
# Elastic Compliance Matrix: (Units=1/GPa)
#
#
# Indices 1 2 3 4 5 6 
#
# 1 0.010346 -0.002687 -0.003205 0.000000 0.000000 0.000000
# 2 -0.002687 0.010684 -0.003624 0.000000 0.000000 0.000000
# 3 -0.003205 -0.003624 0.012334 0.000000 0.000000 0.000000
# 4 0.000000 0.000000 0.000000 0.043000 0.000000 0.000000
# 5 0.000000 0.000000 0.000000 0.000000 0.041599 0.000000
# 6 0.000000 0.000000 0.000000 0.000000 0.000000 0.034761
#
#
# Mechanical properties :
#
#
# Convention : Reuss Voigt Hill
#
# Bulk Modulus (GPa) = 69.76961 70.02244 69.89602
# Shear Modulus (GPa) = 28.32320 29.31846 28.82083
#
# Velocity S-wave (km/s) = 3.73075 3.79573 3.76338
# Velocity P-wave (km/s) = 7.26939 7.32259 7.29604
#
# Compressibility (1/GPa) = 0.01433289
#
# Stress axis : x y z
#
# Youngs Moduli (GPa) = 96.65224 93.59526 81.07817
#
# Poissons Ratio (x) = 0.25153 0.25982
# Poissons Ratio (y) = 0.25974 0.29381
# Poissons Ratio (z) = 0.30973 0.33917
#
# Static dielectric constant tensor:
#      x y z
#    x 3.781030 0.000000 0.000000 
#    y 0.000000 3.988790 0.000000 
#    z 0.000000 0.000000 3.775920 
# 
# 
# High freq. dielectric constant tensor:
#      x y z
#    x 1.801620 0.000000 0.000000 
#    y 0.000000 1.789830 0.000000 
#    z 0.000000 0.000000 1.794310 
# 
# From -- ./inp_files/23984.got.cif
#   From: 2010.03.12/outbox.cif.g09.slc.cpg/sg73_12_cif.got.tgz:23984.got - 2010.04.16 15:25:48.
