data_PCOD8295367
_publ_section_title
;
Structure prediction by ZEFSAII (Michael W. Deem and Ramdas Pophale) SiO2 
 PCOD8295367
Probable space group: I B A M
;
_chemical_formula_sum "Si O2"
_cell_formula_units_Z 68
_cell_length_a 20.036706
_cell_length_b 9.825253
_cell_length_c 14.749988
_cell_angle_alpha 90.000000
_cell_angle_beta 90.000000
_cell_angle_gamma 90.000000
_cell_volume 2903.766797
_symmetry_space_group_name_H-M "I B A M"
_symmetry_group_IT_number 72
_symmetry_cell_setting 'orthorhombic'
loop_
_space_group_symop_operation_xyz
x,y,z
-x,-y,z
x,-y,1/2-z
-x,y,1/2-z
-x,-y,-z
x,y,-z
-x,y,1/2+z
x,-y,1/2+z
1/2+x,1/2+y,1/2+z
1/2-x,1/2-y,1/2+z
1/2+x,1/2-y,-z
1/2-x,1/2+y,-z
1/2-x,1/2-y,1/2-z
1/2+x,1/2+y,1/2-z
1/2-x,1/2+y,z
1/2+x,1/2-y,z
loop_
_atom_site_type_symbol
_atom_site_label
_atom_site_fract_x
_atom_site_fract_y
_atom_site_fract_z
Si Si1 0.783912 0.131034 0.305903
Si Si2 0.147692 0.557216 0.851942
Si Si3 0.900407 0.280758 0.402398
Si Si4 0.000000 0.000000 0.250000
Si Si5 0.454241 0.294306 0.107862
O O1 0.750000 0.250000 0.250000
O O2 0.725465 0.086992 0.376778
O O3 0.851949 0.188726 0.344105
O O4 0.805695 0.000000 0.250000
O O5 0.141518 0.500000 0.750000
O O6 0.121524 0.436984 0.915031
O O7 0.105741 0.693447 0.867689
O O8 0.899075 0.210504 0.500000
O O9 0.975963 0.278586 0.366275
O O10 0.951061 0.081035 0.179566
O O11 0.449809 0.336016 0.000000
#
# Coordination Sequence:
#
# PCOD8295367 Si02
#       5
#    16  16  16   4  16
#     4  11  23  44  69  99 142 185 236 288 348 427
#     4  11  22  44  73 101 140 186 239 294 361 430
#     4  11  24  43  68 104 142 180 232 298 359 423
#     4  12  26  44  70  98 148 184 244 282 372 430
#     4  11  26  45  70 105 144 187 244 304 359 434
#
# _framework density 23.417859
#
# number of rings (size 3 to 8) (size 9 to 14) (size 15 to 20)
#    0.000    0.941    4.706    3.176    1.647    4.706 
#    0.000    0.000    0.000    0.000    0.000    0.000 
#    0.000    0.000    0.000    0.000    0.000    0.000 
#
# Total GULP energy -421255.065655 kJ/mol
# GULP energy per Si atom -12389.854872 kJ/mol
# Density = 2.336456 g / cm^3
# Si number density = 23.417859 Si / 1000 Ang^3
#
#
#
# Elastic Constant Matrix: (Units=GPa)
#
#
# Indices 1 2 3 4 5 6 
#
# 1 103.9258 23.0676 20.7824 0.0000 0.0000 0.0000
# 2 23.0676 133.6290 33.1143 0.0000 0.0000 0.0000
# 3 20.7824 33.1143 104.8698 0.0000 0.0000 0.0000
# 4 0.0000 0.0000 0.0000 25.9620 0.0000 0.0000
# 5 0.0000 0.0000 0.0000 0.0000 21.2187 0.0000
# 6 0.0000 0.0000 0.0000 0.0000 0.0000 48.7838
#
#
#
# Elastic Compliance Matrix: (Units=1/GPa)
#
#
# Indices 1 2 3 4 5 6 
#
# 1 0.010246 -0.001373 -0.001597 0.000000 0.000000 0.000000
# 2 -0.001373 0.008303 -0.002350 0.000000 0.000000 0.000000
# 3 -0.001597 -0.002350 0.010594 0.000000 0.000000 0.000000
# 4 0.000000 0.000000 0.000000 0.038518 0.000000 0.000000
# 5 0.000000 0.000000 0.000000 0.000000 0.047128 0.000000
# 6 0.000000 0.000000 0.000000 0.000000 0.000000 0.020499
#
#
# Mechanical properties :
#
#
# Convention : Reuss Voigt Hill
#
# Bulk Modulus (GPa) = 54.04288 55.15035 54.59662
# Shear Modulus (GPa) = 32.87419 36.89026 34.88223
#
# Velocity S-wave (km/s) = 3.75081 3.97332 3.86366
# Velocity P-wave (km/s) = 6.47193 6.68217 6.57789
#
# Compressibility (1/GPa) = 0.01850382
#
# Stress axis : x y z
#
# Youngs Moduli (GPa) = 97.59559 120.44315 94.39266
#
# Poissons Ratio (x) = 0.16537 0.15075
# Poissons Ratio (y) = 0.13400 0.22179
# Poissons Ratio (z) = 0.15586 0.28299
#
# Static dielectric constant tensor:
#      x y z
#    x 5.659120 0.000000 0.000000 
#    y 0.000000 4.606120 0.000000 
#    z 0.000000 0.000000 4.144810 
# 
# 
# High freq. dielectric constant tensor:
#      x y z
#    x 1.941200 0.000000 0.000000 
#    y 0.000000 1.936380 0.000000 
#    z 0.000000 0.000000 1.918710 
# 
# From -- ./inp_files/32306.got.cif
#   From: 2010.03.12/outbox.cif.g09.slc.cpg/sg72_17_cif.got.tgz:32306.got - 2010.04.16 14:54:00.
