data_PCOD8295534
_publ_section_title
;
Structure prediction by ZEFSAII (Michael W. Deem and Ramdas Pophale) SiO2 
 PCOD8295534
Probable space group: I B C A 
;
_chemical_formula_sum "Si O2"
_cell_formula_units_Z 96
_cell_length_a 29.419041
_cell_length_b 27.908222
_cell_length_c 5.264336
_cell_angle_alpha 90.000000
_cell_angle_beta 90.000000
_cell_angle_gamma 90.000000
_cell_volume 4322.194249
_symmetry_space_group_name_H-M "I B C A "
_symmetry_group_IT_number 73
_symmetry_cell_setting 'orthorhombic'
loop_
_space_group_symop_operation_xyz
x,y,z
-x,1/2-y,z
x,-y,1/2-z
1/2-x,y,-z
-x,-y,-z
x,1/2+y,-z
-x,y,1/2+z
1/2+x,-y,z
1/2+x,1/2+y,1/2+z
1/2-x,-y,1/2+z
1/2+x,1/2-y,-z
-x,1/2+y,1/2-z
1/2-x,1/2-y,1/2-z
1/2+x,y,1/2-z
1/2-x,1/2+y,z
x,1/2-y,1/2+z
loop_
_atom_site_type_symbol
_atom_site_label
_atom_site_fract_x
_atom_site_fract_y
_atom_site_fract_z
Si Si1 0.750000 0.577066 0.000000
Si Si2 0.375371 0.568540 0.937856
Si Si3 0.480548 0.946518 0.478116
Si Si4 0.879540 0.719781 0.101823
Si Si5 0.518466 0.803116 0.335315
Si Si6 0.341836 0.619800 0.422893
Si Si7 0.690622 0.500000 0.250000
O O1 0.788515 0.609533 0.131136
O O2 0.723645 0.543696 0.194842
O O3 0.361301 0.594802 0.675836
O O4 0.343341 0.520880 0.968992
O O5 0.427104 0.551876 0.926108
O O6 0.370029 0.602924 0.178352
O O7 0.506071 0.919965 0.242346
O O8 0.500000 0.000000 0.500000
O O9 0.871686 0.741911 0.379521
O O10 0.929484 0.697146 0.082612
O O11 0.844582 0.676916 0.054870
O O12 0.500000 0.750000 0.269887
O O13 0.489763 0.829143 0.561710
#
# Coordination Sequence:
#
# PCOD8295534 Si02
#       7
#     8  16  16  16  16  16   8
#     4  10  22  42  66 100 130 160 214 268 344 374
#     4  11  23  42  63  98 131 170 221 262 326 366
#     4  10  20  35  59  85 125 178 215 250 294 377
#     4  12  22  40  66  90 121 168 213 247 331 388
#     4  10  16  31  56  87 110 145 203 257 289 356
#     4  11  26  43  64  95 135 160 207 293 324 382
#     4  10  20  38  74  96 120 176 216 262 316 414
#
# _framework density 22.210939
#
# number of rings (size 3 to 8) (size 9 to 14) (size 15 to 20)
#    0.000    1.333    3.333    4.000    0.000    8.000 
#    0.000    5.833    0.000    0.000    0.000    0.000 
#    0.000    0.000    0.000    0.000    0.000    0.000 
#
# Total GULP energy -594917.851425 kJ/mol
# GULP energy per Si atom -12394.121905 kJ/mol
# Density = 2.216039 g / cm^3
# Si number density = 22.210939 Si / 1000 Ang^3
#
#
#
# Elastic Constant Matrix: (Units=GPa)
#
#
# Indices 1 2 3 4 5 6 
#
# 1 167.6757 46.3629 41.9791 0.0000 0.0000 0.0000
# 2 46.3629 61.9890 22.8010 0.0000 0.0000 0.0000
# 3 41.9791 22.8010 176.2605 0.0000 0.0000 0.0000
# 4 0.0000 0.0000 0.0000 18.4963 0.0000 0.0000
# 5 0.0000 0.0000 0.0000 0.0000 20.4282 0.0000
# 6 0.0000 0.0000 0.0000 0.0000 0.0000 19.2288
#
#
#
# Elastic Compliance Matrix: (Units=1/GPa)
#
#
# Indices 1 2 3 4 5 6 
#
# 1 0.007734 -0.005362 -0.001148 0.000000 0.000000 0.000000
# 2 -0.005362 0.020655 -0.001395 0.000000 0.000000 0.000000
# 3 -0.001148 -0.001395 0.006127 0.000000 0.000000 0.000000
# 4 0.000000 0.000000 0.000000 0.054065 0.000000 0.000000
# 5 0.000000 0.000000 0.000000 0.000000 0.048952 0.000000
# 6 0.000000 0.000000 0.000000 0.000000 0.000000 0.052005
#
#
# Mechanical properties :
#
#
# Convention : Reuss Voigt Hill
#
# Bulk Modulus (GPa) = 53.45840 69.80124 61.62982
# Shear Modulus (GPa) = 23.63118 31.28281 27.45699
#
# Velocity S-wave (km/s) = 3.26535 3.75699 3.51977
# Velocity P-wave (km/s) = 6.19173 7.09329 6.65778
#
# Compressibility (1/GPa) = 0.01870613
#
# Stress axis : x y z
#
# Youngs Moduli (GPa) = 129.29894 48.41357 163.20241
#
# Poissons Ratio (x) = 0.25960 0.18741
# Poissons Ratio (y) = 0.69331 0.22765
# Poissons Ratio (z) = 0.14848 0.06753
#
# Static dielectric constant tensor:
#      x y z
#    x 4.198840 0.000000 0.000000 
#    y 0.000000 3.876610 0.000000 
#    z 0.000000 0.000000 4.420350 
# 
# 
# High freq. dielectric constant tensor:
#      x y z
#    x 1.871750 0.000000 0.000000 
#    y 0.000000 1.858420 0.000000 
#    z 0.000000 0.000000 1.891450 
# 
# From -- ./inp_files/3237.got.cif
#   From: 2010.03.12/outbox.cif.g09.slc.cpg/sg73_2_cif.got.tgz:3237.got - 2010.04.16 15:25:48.
