data_PCOD8295104
_publ_section_title
;
Structure prediction by ZEFSAII (Michael W. Deem and Ramdas Pophale) SiO2 
 PCOD8295104
Probable space group: I B A M
;
_chemical_formula_sum "Si O2"
_cell_formula_units_Z 112
_cell_length_a 29.112988
_cell_length_b 10.579527
_cell_length_c 15.403599
_cell_angle_alpha 90.000000
_cell_angle_beta 90.000000
_cell_angle_gamma 90.000000
_cell_volume 4744.333794
_symmetry_space_group_name_H-M "I B A M"
_symmetry_group_IT_number 72
_symmetry_cell_setting 'orthorhombic'
loop_
_space_group_symop_operation_xyz
x,y,z
-x,-y,z
x,-y,1/2-z
-x,y,1/2-z
-x,-y,-z
x,y,-z
-x,y,1/2+z
x,-y,1/2+z
1/2+x,1/2+y,1/2+z
1/2-x,1/2-y,1/2+z
1/2+x,1/2-y,-z
1/2-x,1/2+y,-z
1/2-x,1/2-y,1/2-z
1/2+x,1/2+y,1/2-z
1/2-x,1/2+y,z
1/2+x,1/2-y,z
loop_
_atom_site_type_symbol
_atom_site_label
_atom_site_fract_x
_atom_site_fract_y
_atom_site_fract_z
Si Si1 0.394360 0.704057 0.902082
Si Si2 0.878187 0.926572 0.400281
Si Si3 0.546414 0.941082 0.157711
Si Si4 0.268987 0.950212 0.340208
Si Si5 0.140328 0.530125 0.595456
Si Si6 0.048995 0.173281 0.268864
Si Si7 0.717704 0.317939 0.597221
O O1 0.365040 0.574937 0.898138
O O2 0.360041 0.820224 0.885162
O O3 0.431614 0.709559 0.825676
O O4 0.416541 0.717494 0.000000
O O5 0.892805 0.889739 0.500000
O O6 0.918661 0.914739 0.328624
O O7 0.834040 0.846958 0.368415
O O8 0.539403 0.793248 0.170372
O O9 0.500000 0.000000 0.116453
O O10 0.557679 0.000000 0.250000
O O11 0.589810 0.969015 0.097652
O O12 0.258046 0.800594 0.352798
O O13 0.248265 0.000000 0.250000
O O14 0.324428 0.962026 0.339883
O O15 0.247125 0.052233 0.406242
O O16 0.159883 0.504702 0.500000
O O17 0.000000 0.106414 0.250000
O O18 0.712950 0.268159 0.500000
#
# Coordination Sequence:
#
# PCOD8295104 Si02
#       7
#    16  16  16  16  16  16  16
#     4  10  23  41  62  93 130 177 228 279 340 413
#     4  10  25  45  67  96 136 182 231 287 349 416
#     4  11  20  39  62  90 131 168 219 285 349 413
#     4  12  27  44  71 106 141 181 232 290 353 418
#     4  11  23  40  66  97 133 178 228 282 348 414
#     4  12  23  40  68  95 130 176 227 282 351 414
#     4  11  25  48  72 101 139 184 235 288 350 422
#
# _framework density 23.607108
#
# number of rings (size 3 to 8) (size 9 to 14) (size 15 to 20)
#    0.000    1.000    2.857    3.429    4.000    4.857 
#    0.000    1.429    0.000    0.429    0.000    0.000 
#    0.000    0.000    0.000    0.000    0.000    0.000 
#
# Total GULP energy -693976.341728 kJ/mol
# GULP energy per Si atom -12392.434674 kJ/mol
# Density = 2.355338 g / cm^3
# Si number density = 23.607108 Si / 1000 Ang^3
#
#
#
# Elastic Constant Matrix: (Units=GPa)
#
#
# Indices 1 2 3 4 5 6 
#
# 1 92.6709 30.1773 21.8104 0.0000 0.0000 0.0000
# 2 30.1773 148.4775 12.9412 0.0000 0.0000 0.0000
# 3 21.8104 12.9412 80.5071 0.0000 0.0000 0.0000
# 4 0.0000 0.0000 0.0000 28.9260 0.0000 0.0000
# 5 0.0000 0.0000 0.0000 0.0000 28.1487 0.0000
# 6 0.0000 0.0000 0.0000 0.0000 0.0000 196.5923
#
#
#
# Elastic Compliance Matrix: (Units=1/GPa)
#
#
# Indices 1 2 3 4 5 6 
#
# 1 0.012210 -0.002224 -0.002950 0.000000 0.000000 0.000000
# 2 -0.002224 0.007236 -0.000561 0.000000 0.000000 0.000000
# 3 -0.002950 -0.000561 0.013311 0.000000 0.000000 0.000000
# 4 0.000000 0.000000 0.000000 0.034571 0.000000 0.000000
# 5 0.000000 0.000000 0.000000 0.000000 0.035526 0.000000
# 6 0.000000 0.000000 0.000000 0.000000 0.000000 0.005087
#
#
# Mechanical properties :
#
#
# Convention : Reuss Voigt Hill
#
# Bulk Modulus (GPa) = 46.97935 50.16816 48.57375
# Shear Modulus (GPa) = 39.52414 67.84850 53.68632
#
# Velocity S-wave (km/s) = 4.09620 5.36685 4.77399
# Velocity P-wave (km/s) = 6.50503 7.72668 7.14202
#
# Compressibility (1/GPa) = 0.02128595
#
# Stress axis : x y z
#
# Youngs Moduli (GPa) = 81.90309 138.19827 75.12806
#
# Poissons Ratio (x) = 0.30741 0.22164
# Poissons Ratio (y) = 0.18219 0.04211
# Poissons Ratio (z) = 0.24163 0.07747
#
# Static dielectric constant tensor:
#      x y z
#    x 3.970710 0.000000 0.000000 
#    y 0.000000 4.501020 0.000000 
#    z 0.000000 0.000000 4.210460 
# 
# 
# High freq. dielectric constant tensor:
#      x y z
#    x 1.914790 0.000000 0.000000 
#    y 0.000000 1.953330 0.000000 
#    z 0.000000 0.000000 1.932030 
# 
# From -- ./inp_files/26416.got.cif
#   From: 2010.03.12/outbox.cif.g09.slc.cpg/sg72_14_cif.got.tgz:26416.got - 2010.04.16 14:54:00.
