data_PCOD8295508
_publ_section_title
;
Structure prediction by ZEFSAII (Michael W. Deem and Ramdas Pophale) SiO2 
 PCOD8295508
Probable space group: I B A M
;
_chemical_formula_sum "Si O2"
_cell_formula_units_Z 80
_cell_length_a 8.894400
_cell_length_b 24.762826
_cell_length_c 21.374349
_cell_angle_alpha 90.000000
_cell_angle_beta 90.000000
_cell_angle_gamma 90.000000
_cell_volume 4707.710618
_symmetry_space_group_name_H-M "I B A M"
_symmetry_group_IT_number 72
_symmetry_cell_setting 'orthorhombic'
loop_
_space_group_symop_operation_xyz
x,y,z
-x,-y,z
x,-y,1/2-z
-x,y,1/2-z
-x,-y,-z
x,y,-z
-x,y,1/2+z
x,-y,1/2+z
1/2+x,1/2+y,1/2+z
1/2-x,1/2-y,1/2+z
1/2+x,1/2-y,-z
1/2-x,1/2+y,-z
1/2-x,1/2-y,1/2-z
1/2+x,1/2+y,1/2-z
1/2-x,1/2+y,z
1/2+x,1/2-y,z
loop_
_atom_site_type_symbol
_atom_site_label
_atom_site_fract_x
_atom_site_fract_y
_atom_site_fract_z
Si Si1 0.500000 0.098989 0.250000
Si Si2 0.825129 0.618192 0.427931
Si Si3 0.077037 0.554417 0.378946
Si Si4 0.667643 0.493147 0.926484
Si Si5 0.000000 0.231359 0.750000
Si Si6 0.289364 0.816393 0.310107
O O1 0.557950 0.061051 0.194905
O O2 0.643790 0.133915 0.270836
O O3 0.796170 0.634273 0.500000
O O4 0.729763 0.565679 0.406212
O O5 0.781423 0.668733 0.383879
O O6 0.002104 0.604488 0.416453
O O7 0.250779 0.545077 0.395384
O O8 0.000000 0.500000 0.403862
O O9 0.500000 0.500000 0.901988
O O10 0.681979 0.499391 0.000000
O O11 0.119133 0.195257 0.788191
O O12 0.096963 0.266282 0.700313
#
# Coordination Sequence:
#
# PCOD8295508 Si02
#       6
#     8  16  16  16   8  16
#     4   9  17  28  45  68  90 116 153 188 221 263
#     4   9  17  30  47  67  91 120 154 184 217 266
#     4   9  16  27  44  64  92 127 156 183 214 254
#     4   9  17  28  43  66  96 127 155 183 217 257
#     4   9  18  34  51  66  86 110 145 186 236 285
#     4   9  18  32  50  68  86 114 146 186 231 276
#
# _framework density 16.993397999999999
#
# number of rings (size 3 to 8) (size 9 to 14) (size 15 to 20)
#    0.000    3.000    0.000    0.900    0.000    4.000 
#    0.000    1.000    0.000   10.800    0.000    0.000 
#    0.000    0.000    0.000    0.000    0.000    0.000 
#
# Total GULP energy -495759.299909 kJ/mol
# GULP energy per Si atom -12393.982498 kJ/mol
# Density = 1.695472 g / cm^3
# Si number density = 16.993398 Si / 1000 Ang^3
#
#
#
# Elastic Constant Matrix: (Units=GPa)
#
#
# Indices 1 2 3 4 5 6 
#
# 1 133.4305 44.0077 46.3991 0.0000 0.0000 0.0000
# 2 44.0077 59.3111 40.4604 0.0000 0.0000 0.0000
# 3 46.3991 40.4604 91.5401 0.0000 0.0000 0.0000
# 4 0.0000 0.0000 0.0000 26.6878 0.0000 0.0000
# 5 0.0000 0.0000 0.0000 0.0000 21.2938 0.0000
# 6 0.0000 0.0000 0.0000 0.0000 0.0000 21.3103
#
#
#
# Elastic Compliance Matrix: (Units=1/GPa)
#
#
# Indices 1 2 3 4 5 6 
#
# 1 0.010354 -0.005873 -0.002652 0.000000 0.000000 0.000000
# 2 -0.005873 0.027470 -0.009165 0.000000 0.000000 0.000000
# 3 -0.002652 -0.009165 0.016319 0.000000 0.000000 0.000000
# 4 0.000000 0.000000 0.000000 0.037470 0.000000 0.000000
# 5 0.000000 0.000000 0.000000 0.000000 0.046962 0.000000
# 6 0.000000 0.000000 0.000000 0.000000 0.000000 0.046926
#
#
# Mechanical properties :
#
#
# Convention : Reuss Voigt Hill
#
# Bulk Modulus (GPa) = 53.29628 60.66846 56.98237
# Shear Modulus (GPa) = 22.01331 24.08601 23.04966
#
# Velocity S-wave (km/s) = 3.60308 3.76889 3.68691
# Velocity P-wave (km/s) = 6.98144 7.39716 7.19231
#
# Compressibility (1/GPa) = 0.01876303
#
# Stress axis : x y z
#
# Youngs Moduli (GPa) = 96.58235 36.40355 61.27736
#
# Poissons Ratio (x) = 0.21380 0.16252
# Poissons Ratio (y) = 0.56724 0.56159
# Poissons Ratio (z) = 0.25615 0.33363
#
# Static dielectric constant tensor:
#      x y z
#    x 3.351930 0.000000 0.000000 
#    y 0.000000 3.050000 0.000000 
#    z 0.000000 0.000000 3.075390 
# 
# 
# High freq. dielectric constant tensor:
#      x y z
#    x 1.655020 0.000000 0.000000 
#    y 0.000000 1.633310 0.000000 
#    z 0.000000 0.000000 1.649110 
# 
# From -- ./inp_files/36209.got.cif
#   From: 2010.03.12/outbox.cif.g09.slc.cpg/sg72_19_cif.got.tgz:36209.got - 2010.04.16 14:54:00.
