data_PCOD8295231
_publ_section_title
;
Structure prediction by ZEFSAII (Michael W. Deem and Ramdas Pophale) SiO2 
 PCOD8295231
Probable space group: I B A M
;
_chemical_formula_sum "Si O2"
_cell_formula_units_Z 112
_cell_length_a 11.893954
_cell_length_b 26.101235
_cell_length_c 19.628904
_cell_angle_alpha 90.000000
_cell_angle_beta 90.000000
_cell_angle_gamma 90.000000
_cell_volume 6093.732170
_symmetry_space_group_name_H-M "I B A M"
_symmetry_group_IT_number 72
_symmetry_cell_setting 'orthorhombic'
loop_
_space_group_symop_operation_xyz
x,y,z
-x,-y,z
x,-y,1/2-z
-x,y,1/2-z
-x,-y,-z
x,y,-z
-x,y,1/2+z
x,-y,1/2+z
1/2+x,1/2+y,1/2+z
1/2-x,1/2-y,1/2+z
1/2+x,1/2-y,-z
1/2-x,1/2+y,-z
1/2-x,1/2-y,1/2-z
1/2+x,1/2+y,1/2-z
1/2-x,1/2+y,z
1/2+x,1/2-y,z
loop_
_atom_site_type_symbol
_atom_site_label
_atom_site_fract_x
_atom_site_fract_y
_atom_site_fract_z
Si Si1 0.554903 0.444163 0.574615
Si Si2 0.680924 0.709192 0.834174
Si Si3 0.887883 0.267436 0.423924
Si Si4 0.469629 0.340458 0.613808
Si Si5 0.123295 0.944304 0.223115
Si Si6 0.054205 0.690174 0.819672
Si Si7 0.768472 0.145578 0.288051
O O1 0.500000 0.500000 0.580443
O O2 0.616263 0.440789 0.500000
O O3 0.465282 0.396213 0.576397
O O4 0.634442 0.440642 0.640926
O O5 0.763921 0.732146 0.891186
O O6 0.599694 0.664279 0.862445
O O7 0.599686 0.753021 0.806540
O O8 0.752688 0.687088 0.771752
O O9 0.878481 0.289449 0.500000
O O10 0.936641 0.209474 0.430414
O O11 0.967834 0.306820 0.382629
O O12 0.384150 0.340088 0.676105
O O13 0.221672 0.910523 0.255990
O O14 0.000000 0.926338 0.250000
O O15 0.149464 0.000000 0.250000
O O16 0.158549 0.651270 0.836606
O O17 0.000000 0.669578 0.750000
#
# Coordination Sequence:
#
# PCOD8295231 Si02
#       7
#    16  16  16  16  16  16  16
#     4  11  21  34  53  82 119 153 181 224 288 357
#     4  11  20  34  57  80 108 144 191 234 282 337
#     4  11  24  39  53  78 118 155 190 235 284 339
#     4  11  21  36  55  84 114 148 190 232 285 342
#     4  11  19  35  58  85 115 146 188 239 297 348
#     4  11  22  36  56  80 108 146 197 237 274 332
#     4  12  19  35  59  84 109 146 188 242 282 338
#
# _framework density 18.379541
#
# number of rings (size 3 to 8) (size 9 to 14) (size 15 to 20)
#    0.000    0.857    7.143    3.000    0.000    2.857 
#    0.000    0.000    0.000    0.429    0.000    0.000 
#    0.000    1.143    0.000    0.000    0.000    0.000 
#
# Total GULP energy -693902.571766 kJ/mol
# GULP energy per Si atom -12391.117353 kJ/mol
# Density = 1.833771 g / cm^3
# Si number density = 18.379541 Si / 1000 Ang^3
#
#
#
# Elastic Constant Matrix: (Units=GPa)
#
#
# Indices 1 2 3 4 5 6 
#
# 1 73.9574 24.4747 24.3167 0.0000 0.0000 0.0000
# 2 24.4747 68.3529 20.6592 0.0000 0.0000 0.0000
# 3 24.3167 20.6592 111.3686 0.0001 0.0000 0.0000
# 4 0.0000 0.0000 0.0001 15.3996 0.0000 0.0000
# 5 0.0000 0.0000 0.0000 0.0000 17.3670 0.0000
# 6 0.0000 0.0000 0.0000 0.0000 0.0000 18.8847
#
#
#
# Elastic Compliance Matrix: (Units=1/GPa)
#
#
# Indices 1 2 3 4 5 6 
#
# 1 0.016007 -0.004953 -0.002576 0.000000 0.000000 0.000000
# 2 -0.004953 0.017032 -0.002078 0.000000 0.000000 0.000000
# 3 -0.002576 -0.002078 0.009927 0.000000 0.000000 0.000000
# 4 0.000000 0.000000 0.000000 0.064937 0.000000 0.000000
# 5 0.000000 0.000000 0.000000 0.000000 0.057581 0.000000
# 6 0.000000 0.000000 0.000000 0.000000 0.000000 0.052953
#
#
# Mechanical properties :
#
#
# Convention : Reuss Voigt Hill
#
# Bulk Modulus (GPa) = 42.10248 43.62003 42.86126
# Shear Modulus (GPa) = 20.36095 22.61214 21.48654
#
# Velocity S-wave (km/s) = 3.33198 3.51135 3.42284
# Velocity P-wave (km/s) = 6.14490 6.34223 6.24435
#
# Compressibility (1/GPa) = 0.02375157
#
# Stress axis : x y z
#
# Youngs Moduli (GPa) = 62.47077 58.71470 100.73350
#
# Poissons Ratio (x) = 0.29082 0.25952
# Poissons Ratio (y) = 0.30942 0.20932
# Poissons Ratio (z) = 0.16095 0.12201
#
# Static dielectric constant tensor:
#      x y z
#    x 3.226140 0.000000 0.000000 
#    y 0.000000 3.486220 0.000000 
#    z 0.000000 0.000000 3.502900 
# 
# 
# High freq. dielectric constant tensor:
#      x y z
#    x 1.681200 0.000000 0.000000 
#    y 0.000000 1.707350 0.000000 
#    z 0.000000 0.000000 1.712980 
# 
# From -- ./inp_files/37430.got.cif
#   From: 2010.03.12/outbox.cif.g09.slc.cpg/sg72_19_cif.got.tgz:37430.got - 2010.04.16 14:54:00.
