data_PCOD8295165
_publ_section_title
;
Structure prediction by ZEFSAII (Michael W. Deem and Ramdas Pophale) SiO2 
 PCOD8295165
Probable space group: I B A M
;
_chemical_formula_sum "Si O2"
_cell_formula_units_Z 104
_cell_length_a 20.277718
_cell_length_b 8.745394
_cell_length_c 28.359350
_cell_angle_alpha 90.000000
_cell_angle_beta 90.000000
_cell_angle_gamma 90.000000
_cell_volume 5029.151652
_symmetry_space_group_name_H-M "I B A M"
_symmetry_group_IT_number 72
_symmetry_cell_setting 'orthorhombic'
loop_
_space_group_symop_operation_xyz
x,y,z
-x,-y,z
x,-y,1/2-z
-x,y,1/2-z
-x,-y,-z
x,y,-z
-x,y,1/2+z
x,-y,1/2+z
1/2+x,1/2+y,1/2+z
1/2-x,1/2-y,1/2+z
1/2+x,1/2-y,-z
1/2-x,1/2+y,-z
1/2-x,1/2-y,1/2-z
1/2+x,1/2+y,1/2-z
1/2-x,1/2+y,z
1/2+x,1/2-y,z
loop_
_atom_site_type_symbol
_atom_site_label
_atom_site_fract_x
_atom_site_fract_y
_atom_site_fract_z
Si Si1 0.500000 0.500000 0.330408
Si Si2 0.184141 0.829836 0.268612
Si Si3 0.878386 0.187322 0.366433
Si Si4 0.198383 0.024495 0.945987
Si Si5 0.426553 0.025338 0.874645
Si Si6 0.333713 0.179392 0.053990
Si Si7 0.059562 0.717834 0.218412
O O1 0.551291 0.601974 0.360202
O O2 0.456886 0.611380 0.298326
O O3 0.250000 0.750000 0.250000
O O4 0.175571 0.840264 0.325187
O O5 0.123989 0.726906 0.250429
O O6 0.182620 0.000000 0.250000
O O7 0.849182 0.128636 0.415188
O O8 0.888525 0.367141 0.370708
O O9 0.274368 0.062941 0.936533
O O10 0.189974 0.848342 0.932487
O O11 0.179390 0.058675 0.000000
O O12 0.393698 0.137462 0.912314
O O13 0.426363 0.103681 0.823856
O O14 0.500000 0.000000 0.893220
O O15 0.357867 0.170913 0.000000
O O16 0.000000 0.651742 0.250000
#
# Coordination Sequence:
#
# PCOD8295165 Si02
#       7
#     8  16  16  16  16  16  16
#     4  12  21  46  69  92 124 180 229 274 327 396
#     4  12  28  43  64  98 135 177 224 281 340 396
#     4  12  26  43  69  99 135 179 227 280 337 399
#     4  10  23  45  74 103 134 177 225 281 346 408
#     4  12  26  42  67 102 135 179 225 279 335 401
#     4  10  23  45  72 101 135 176 223 279 345 410
#     4  12  23  46  69  92 133 179 234 275 330 404
#
# _framework density 20.67943
#
# number of rings (size 3 to 8) (size 9 to 14) (size 15 to 20)
#    0.000    0.615    4.615    2.077    4.308    3.692 
#    0.000    0.385    0.000    0.000    0.000    0.000 
#    0.000    0.000    0.000    0.000    0.000    0.000 
#
# Total GULP energy -645055.586799 kJ/mol
# GULP energy per Si atom -12404.915131 kJ/mol
# Density = 2.063236 g / cm^3
# Si number density = 20.679430 Si / 1000 Ang^3
#
#
#
# Elastic Constant Matrix: (Units=GPa)
#
#
# Indices 1 2 3 4 5 6 
#
# 1 120.4102 42.5448 64.0256 0.0000 0.0000 0.0000
# 2 42.5448 132.7587 65.3082 0.0000 0.0000 0.0000
# 3 64.0256 65.3082 122.1414 0.0000 0.0000 0.0000
# 4 0.0000 0.0000 0.0000 30.9425 0.0000 0.0000
# 5 0.0000 0.0000 0.0000 0.0000 39.9889 0.0000
# 6 0.0000 0.0000 0.0000 0.0000 0.0000 40.0246
#
#
#
# Elastic Compliance Matrix: (Units=1/GPa)
#
#
# Indices 1 2 3 4 5 6 
#
# 1 0.011609 -0.000986 -0.005558 0.000000 0.000000 0.000000
# 2 -0.000986 0.010305 -0.004993 0.000000 0.000000 0.000000
# 3 -0.005558 -0.004993 0.013770 0.000000 0.000000 0.000000
# 4 0.000000 0.000000 0.000000 0.032318 0.000000 0.000000
# 5 0.000000 0.000000 0.000000 0.000000 0.025007 0.000000
# 6 0.000000 0.000000 0.000000 0.000000 0.000000 0.024985
#
#
# Mechanical properties :
#
#
# Convention : Reuss Voigt Hill
#
# Bulk Modulus (GPa) = 79.30348 79.89638 79.59993
# Shear Modulus (GPa) = 34.41858 35.75332 35.08595
#
# Velocity S-wave (km/s) = 4.08412 4.16255 4.12352
# Velocity P-wave (km/s) = 7.78924 7.86270 7.82605
#
# Compressibility (1/GPa) = 0.01260979
#
# Stress axis : x y z
#
# Youngs Moduli (GPa) = 86.14258 97.04355 72.61983
#
# Poissons Ratio (x) = 0.09569 0.40362
# Poissons Ratio (y) = 0.08494 0.36259
# Poissons Ratio (z) = 0.47877 0.48453
#
# Static dielectric constant tensor:
#      x y z
#    x 3.946430 0.000000 0.000000 
#    y 0.000000 3.955810 0.000000 
#    z 0.000000 0.000000 3.787270 
# 
# 
# High freq. dielectric constant tensor:
#      x y z
#    x 1.811220 0.000000 0.000000 
#    y 0.000000 1.831750 0.000000 
#    z 0.000000 0.000000 1.810530 
# 
# From -- ./inp_files/49420.got.cif
#   From: 2010.03.12/outbox.cif.g09.slc.cpg/sg72_25_cif.got.tgz:49420.got - 2010.04.16 14:54:00.
