data_PCOD8295428
_publ_section_title
;
Structure prediction by ZEFSAII (Michael W. Deem and Ramdas Pophale) SiO2 
 PCOD8295428
Probable space group: I B A M
;
_chemical_formula_sum "Si O2"
_cell_formula_units_Z 72
_cell_length_a 8.708514
_cell_length_b 18.772749
_cell_length_c 20.600875
_cell_angle_alpha 90.000000
_cell_angle_beta 90.000000
_cell_angle_gamma 90.000000
_cell_volume 3367.887646
_symmetry_space_group_name_H-M "I B A M"
_symmetry_group_IT_number 72
_symmetry_cell_setting 'orthorhombic'
loop_
_space_group_symop_operation_xyz
x,y,z
-x,-y,z
x,-y,1/2-z
-x,y,1/2-z
-x,-y,-z
x,y,-z
-x,y,1/2+z
x,-y,1/2+z
1/2+x,1/2+y,1/2+z
1/2-x,1/2-y,1/2+z
1/2+x,1/2-y,-z
1/2-x,1/2+y,-z
1/2-x,1/2-y,1/2-z
1/2+x,1/2+y,1/2-z
1/2-x,1/2+y,z
1/2+x,1/2-y,z
loop_
_atom_site_type_symbol
_atom_site_label
_atom_site_fract_x
_atom_site_fract_y
_atom_site_fract_z
Si Si1 0.812793 0.819688 0.855544
Si Si2 0.530727 0.180035 0.175755
Si Si3 0.000000 0.891486 0.250000
Si Si4 0.845905 0.044812 0.571950
Si Si5 0.772427 0.459722 0.313921
O O1 0.630208 0.824306 0.860934
O O2 0.869337 0.738695 0.863115
O O3 0.869735 0.844919 0.784642
O O4 0.881521 0.872427 0.910242
O O5 0.500000 0.202527 0.250000
O O6 0.618616 0.105813 0.169712
O O7 0.905922 0.938377 0.301935
O O8 0.771659 0.041918 0.500000
O O9 0.726352 0.013397 0.624996
O O10 0.000000 0.000000 0.571794
O O11 0.836843 0.500000 0.250000
#
# Coordination Sequence:
#
# PCOD8295428 Si02
#       5
#    16  16   8  16  16
#     4  12  24  41  63  97 133 173 214 272 327 397
#     4  12  24  39  65 101 136 167 216 274 337 389
#     4  12  19  38  66  92 135 162 212 254 333 382
#     4  11  24  43  68  97 130 173 223 273 331 399
#     4  12  22  40  66 101 132 170 214 274 330 391
#
# _framework density 21.378384
#
# number of rings (size 3 to 8) (size 9 to 14) (size 15 to 20)
#    0.000    0.222    7.778    2.333    0.000    3.111 
#    0.000    4.444    0.000    0.000    0.000    0.000 
#    0.000    0.000    0.000    0.000    0.000    0.000 
#
# Total GULP energy -446418.761343 kJ/mol
# GULP energy per Si atom -12400.521148 kJ/mol
# Density = 2.132973 g / cm^3
# Si number density = 21.378384 Si / 1000 Ang^3
#
#
#
# Elastic Constant Matrix: (Units=GPa)
#
#
# Indices 1 2 3 4 5 6 
#
# 1 114.4130 57.7465 19.7265 0.0000 0.0000 0.0000
# 2 57.7465 169.0244 59.3132 0.0000 0.0000 0.0000
# 3 19.7265 59.3132 133.7826 0.0000 0.0000 0.0000
# 4 0.0000 0.0000 0.0000 10.2380 0.0000 0.0000
# 5 0.0000 0.0000 0.0000 0.0000 2.1078 0.0000
# 6 0.0000 0.0000 0.0000 0.0000 0.0000 37.9755
#
#
#
# Elastic Compliance Matrix: (Units=1/GPa)
#
#
# Indices 1 2 3 4 5 6 
#
# 1 0.010562 -0.003626 0.000050 0.000000 0.000000 0.000000
# 2 -0.003626 0.008251 -0.003124 0.000000 0.000000 0.000000
# 3 0.000050 -0.003124 0.008852 0.000000 0.000000 0.000000
# 4 0.000000 0.000000 0.000000 0.097675 0.000000 0.000000
# 5 0.000000 0.000000 0.000000 0.000000 0.474427 0.000000
# 6 0.000000 0.000000 0.000000 0.000000 0.000000 0.026333
#
#
# Mechanical properties :
#
#
# Convention : Reuss Voigt Hill
#
# Bulk Modulus (GPa) = 70.09391 76.75473 73.42432
# Shear Modulus (GPa) = 7.76091 28.75984 18.26038
#
# Velocity S-wave (km/s) = 1.90739 3.67178 2.92576
# Velocity P-wave (km/s) = 6.14079 7.34553 6.77001
#
# Compressibility (1/GPa) = 0.01426657
#
# Stress axis : x y z
#
# Youngs Moduli (GPa) = 94.68160 121.19425 112.96570
#
# Poissons Ratio (x) = 0.43945 -0.00568
# Poissons Ratio (y) = 0.34332 0.35285
# Poissons Ratio (z) = -0.00476 0.37856
#
# Static dielectric constant tensor:
#      x y z
#    x 3.762500 0.000000 0.000000 
#    y 0.000000 4.104130 0.000000 
#    z 0.000000 0.000000 3.776350 
# 
# 
# High freq. dielectric constant tensor:
#      x y z
#    x 1.836300 0.000000 0.000000 
#    y 0.000000 1.858900 0.000000 
#    z 0.000000 0.000000 1.795190 
# 
# From -- ./inp_files/35635.got.cif
#   From: 2010.03.12/outbox.cif.g09.slc.cpg/sg72_18_cif.got.tgz:35635.got - 2010.04.16 14:54:00.
