data_PCOD8295904
_publ_section_title
;
Structure prediction by ZEFSAII (Michael W. Deem and Ramdas Pophale) SiO2 
 PCOD8295904
Probable space group: I B C A 
;
_chemical_formula_sum "Si O2"
_cell_formula_units_Z 104
_cell_length_a 21.961791
_cell_length_b 8.636913
_cell_length_c 25.681094
_cell_angle_alpha 90.000000
_cell_angle_beta 90.000000
_cell_angle_gamma 90.000000
_cell_volume 4871.243280
_symmetry_space_group_name_H-M "I B C A "
_symmetry_group_IT_number 73
_symmetry_cell_setting 'orthorhombic'
loop_
_space_group_symop_operation_xyz
x,y,z
-x,1/2-y,z
x,-y,1/2-z
1/2-x,y,-z
-x,-y,-z
x,1/2+y,-z
-x,y,1/2+z
1/2+x,-y,z
1/2+x,1/2+y,1/2+z
1/2-x,-y,1/2+z
1/2+x,1/2-y,-z
-x,1/2+y,1/2-z
1/2-x,1/2-y,1/2-z
1/2+x,y,1/2-z
1/2-x,1/2+y,z
x,1/2-y,1/2+z
loop_
_atom_site_type_symbol
_atom_site_label
_atom_site_fract_x
_atom_site_fract_y
_atom_site_fract_z
Si Si1 0.081729 0.000000 0.750000
Si Si2 0.307333 0.490821 0.309128
Si Si3 0.500000 0.750000 0.578283
Si Si4 0.901690 0.984579 0.408694
Si Si5 0.500000 0.250000 0.695187
Si Si6 0.932364 0.978311 0.979109
Si Si7 0.321523 0.634354 0.671411
Si Si8 0.596734 0.833786 0.377618
O O1 0.122604 0.074125 0.705299
O O2 0.041582 0.142631 0.769191
O O3 0.332380 0.500000 0.250000
O O4 0.237842 0.543300 0.310925
O O5 0.310624 0.315146 0.325892
O O6 0.343940 0.597989 0.349390
O O7 0.533853 0.894139 0.607181
O O8 0.560426 0.692606 0.546111
O O9 0.841839 0.895612 0.388224
O O10 0.889671 0.011416 0.470448
O O11 0.901447 0.148879 0.380075
O O12 0.460807 0.131454 0.659234
O O13 0.911134 0.099403 0.935560
O O14 0.000000 0.000000 0.000000
#
# Coordination Sequence:
#
# PCOD8295904 Si02
#       8
#     8  16   8  16   8  16  16  16
#     4  12  28  44  70 104 152 188 230 302 358 432
#     4  12  27  48  77  98 136 186 250 296 352 424
#     4  10  20  36  62 100 142 190 225 279 344 428
#     4  11  22  41  67 102 142 179 237 286 356 427
#     4  12  26  44  66 106 150 188 233 289 370 428
#     4  10  21  39  66 101 142 189 229 287 356 437
#     4  12  26  47  72 102 136 186 241 297 358 420
#     4  12  25  44  70 103 143 191 232 293 357 429
#
# _framework density 21.349786999999999
#
# number of rings (size 3 to 8) (size 9 to 14) (size 15 to 20)
#    0.000    0.615    2.308    6.923    3.231    1.231 
#    0.000    0.769    0.000    3.692    0.000    0.000 
#    0.000    0.000    0.000    0.000    0.000    0.000 
#
# Total GULP energy -644370.600826 kJ/mol
# GULP energy per Si atom -12391.742324 kJ/mol
# Density = 2.130119 g / cm^3
# Si number density = 21.349787 Si / 1000 Ang^3
#
#
#
# Elastic Constant Matrix: (Units=GPa)
#
#
# Indices 1 2 3 4 5 6 
#
# 1 101.6378 60.7089 58.3777 0.0000 0.0000 0.0000
# 2 60.7089 168.5805 55.4648 0.0000 0.0000 0.0000
# 3 58.3777 55.4648 126.6074 0.0000 0.0000 0.0000
# 4 0.0000 0.0000 0.0000 19.5550 0.0000 0.0000
# 5 0.0000 0.0000 0.0000 0.0000 21.1760 0.0000
# 6 0.0000 0.0000 0.0000 0.0000 0.0000 -73.5822
#
#
#
# Elastic Compliance Matrix: (Units=1/GPa)
#
#
# Indices 1 2 3 4 5 6 
#
# 1 0.015114 -0.003680 -0.005357 0.000000 0.000000 0.000000
# 2 -0.003680 0.007827 -0.001732 0.000000 0.000000 0.000000
# 3 -0.005357 -0.001732 0.011127 0.000000 0.000000 0.000000
# 4 0.000000 0.000000 0.000000 0.051138 0.000000 0.000000
# 5 0.000000 0.000000 0.000000 0.000000 0.047223 0.000000
# 6 0.000000 0.000000 0.000000 0.000000 0.000000 -0.013590
#
#
# Mechanical properties :
#
#
# Convention : Reuss Voigt Hill
#
# Bulk Modulus (GPa) = 79.80716 82.88093 81.34405
# Shear Modulus (GPa) = 34.58933 8.24804 21.41868
#
# Velocity S-wave (km/s) = 4.02944 1.96766 3.17081
# Velocity P-wave (km/s) = 7.68833 6.63830 7.18253
#
# Compressibility (1/GPa) = 0.01253020
#
# Stress axis : x y z
#
# Youngs Moduli (GPa) = 66.16462 127.76144 89.87137
#
# Poissons Ratio (x) = 0.47021 0.48140
# Poissons Ratio (y) = 0.24351 0.15565
# Poissons Ratio (z) = 0.35441 0.22127
#
# Static dielectric constant tensor:
#      x y z
#    x 4.018430 0.000000 0.000000 
#    y 0.000000 4.100130 0.000000 
#    z 0.000000 0.000000 4.554360 
# 
# 
# High freq. dielectric constant tensor:
#      x y z
#    x 1.812310 0.000000 0.000000 
#    y 0.000000 1.863840 0.000000 
#    z 0.000000 0.000000 1.846760 
# 
# From -- ./inp_files/32697.got.cif
#   From: 2010.03.12/outbox.cif.g09.slc.cpg/sg73_17_cif.got.tgz:32697.got - 2010.04.16 15:25:48.
