data_PCOD8295485
_publ_section_title
;
Structure prediction by ZEFSAII (Michael W. Deem and Ramdas Pophale) SiO2 
 PCOD8295485
Probable space group: I B A M
;
_chemical_formula_sum "Si O2"
_cell_formula_units_Z 64
_cell_length_a 32.670937
_cell_length_b 9.188606
_cell_length_c 10.081933
_cell_angle_alpha 90.000000
_cell_angle_beta 90.000000
_cell_angle_gamma 90.000000
_cell_volume 3026.599994
_symmetry_space_group_name_H-M "I B A M"
_symmetry_group_IT_number 72
_symmetry_cell_setting 'orthorhombic'
loop_
_space_group_symop_operation_xyz
x,y,z
-x,-y,z
x,-y,1/2-z
-x,y,1/2-z
-x,-y,-z
x,y,-z
-x,y,1/2+z
x,-y,1/2+z
1/2+x,1/2+y,1/2+z
1/2-x,1/2-y,1/2+z
1/2+x,1/2-y,-z
1/2-x,1/2+y,-z
1/2-x,1/2-y,1/2-z
1/2+x,1/2+y,1/2-z
1/2-x,1/2+y,z
1/2+x,1/2-y,z
loop_
_atom_site_type_symbol
_atom_site_label
_atom_site_fract_x
_atom_site_fract_y
_atom_site_fract_z
Si Si1 0.543905 0.438266 0.000000
Si Si2 0.592838 0.500000 0.250000
Si Si3 0.344791 0.256609 0.755988
Si Si4 0.206505 0.778210 0.500000
Si Si5 0.206522 0.126040 0.500000
Si Si6 0.043482 0.588194 0.500000
Si Si7 0.597889 0.000000 0.250000
O O1 0.500000 0.500000 0.000000
O O2 0.564792 0.517731 0.876743
O O3 0.539838 0.263162 0.000000
O O4 0.620977 0.633075 0.290851
O O5 0.316770 0.219854 0.629582
O O6 0.317541 0.324419 0.870879
O O7 0.370741 0.119895 0.806107
O O8 0.250187 0.703234 0.500000
O O9 0.211417 0.952325 0.500000
O O10 0.068777 0.548092 0.630614
O O11 0.000000 0.500000 0.500000
#
# Coordination Sequence:
#
# PCOD8295485 Si02
#       7
#     8   8  16   8   8   8   8
#     4  12  28  45  72 104 137 181 231 281 343 410
#     4  12  23  48  73  98 136 178 234 288 331 398
#     4  12  25  45  71  98 133 179 228 279 337 401
#     4  12  26  45  68  99 141 174 227 282 339 406
#     4  12  26  44  68 101 135 181 221 282 343 404
#     4  12  28  48  66 104 145 178 225 283 345 412
#     4  12  27  46  73 100 138 184 226 284 343 410
#
# _framework density 21.14584
#
# number of rings (size 3 to 8) (size 9 to 14) (size 15 to 20)
#    0.000    0.000    5.000    4.500    7.000    2.000 
#    0.000    0.000    0.000    0.000    0.000    0.000 
#    0.000    0.000    0.000    0.000    0.000    0.000 
#
# Total GULP energy -396713.568113 kJ/mol
# GULP energy per Si atom -12397.299004 kJ/mol
# Density = 2.109771 g / cm^3
# Si number density = 21.145840 Si / 1000 Ang^3
#
#
#
# Elastic Constant Matrix: (Units=GPa)
#
#
# Indices 1 2 3 4 5 6 
#
# 1 155.9416 39.0756 56.8733 0.0000 0.0000 0.0000
# 2 39.0756 88.7977 3.6866 0.0000 0.0000 0.0000
# 3 56.8733 3.6866 146.7831 0.0000 0.0000 0.0000
# 4 0.0000 0.0000 0.0000 389.5857 0.0000 0.0000
# 5 0.0000 0.0000 0.0000 0.0000 72.2518 0.0000
# 6 0.0000 0.0000 0.0000 0.0000 0.0000 51.5639
#
#
#
# Elastic Compliance Matrix: (Units=1/GPa)
#
#
# Indices 1 2 3 4 5 6 
#
# 1 0.008480 -0.003599 -0.003195 0.000000 0.000000 0.000000
# 2 -0.003599 0.012801 0.001073 0.000000 0.000000 0.000000
# 3 -0.003195 0.001073 0.008024 0.000000 0.000000 0.000000
# 4 0.000000 0.000000 0.000000 0.002567 0.000000 0.000000
# 5 0.000000 0.000000 0.000000 0.000000 0.013840 0.000000
# 6 0.000000 0.000000 0.000000 0.000000 0.000000 0.019393
#
#
# Mechanical properties :
#
#
# Convention : Reuss Voigt Hill
#
# Bulk Modulus (GPa) = 55.98478 65.64372 60.81425
# Shear Modulus (GPa) = 60.60498 122.13939 91.37219
#
# Velocity S-wave (km/s) = 5.35936 7.60828 6.58060
# Velocity P-wave (km/s) = 8.05170 10.40634 9.30381
#
# Compressibility (1/GPa) = 0.01786200
#
# Stress axis : x y z
#
# Youngs Moduli (GPa) = 117.92741 78.12068 124.62820
#
# Poissons Ratio (x) = 0.28115 0.39822
# Poissons Ratio (y) = 0.42441 -0.13372
# Poissons Ratio (z) = 0.37681 -0.08382
#
# Static dielectric constant tensor:
#      x y z
#    x 3.771030 0.000000 0.000000 
#    y 0.000000 3.392570 0.000000 
#    z 0.000000 0.000000 3.936260 
# 
# 
# High freq. dielectric constant tensor:
#      x y z
#    x 1.856650 0.000000 0.000000 
#    y 0.000000 1.839670 0.000000 
#    z 0.000000 0.000000 1.845060 
# 
# From -- ./inp_files/16657.got.cif
#   From: 2010.03.12/outbox.cif.g09.slc.cpg/sg72_9_cif.got.tgz:16657.got - 2010.04.16 14:54:00.
