data_PCOD8295120
_publ_section_title
;
Structure prediction by ZEFSAII (Michael W. Deem and Ramdas Pophale) SiO2 
 PCOD8295120
Probable space group: I B A M
;
_chemical_formula_sum "Si O2"
_cell_formula_units_Z 64
_cell_length_a 9.945977
_cell_length_b 17.676126
_cell_length_c 17.853716
_cell_angle_alpha 90.000000
_cell_angle_beta 90.000000
_cell_angle_gamma 90.000000
_cell_volume 3138.796513
_symmetry_space_group_name_H-M "I B A M"
_symmetry_group_IT_number 72
_symmetry_cell_setting 'orthorhombic'
loop_
_space_group_symop_operation_xyz
x,y,z
-x,-y,z
x,-y,1/2-z
-x,y,1/2-z
-x,-y,-z
x,y,-z
-x,y,1/2+z
x,-y,1/2+z
1/2+x,1/2+y,1/2+z
1/2-x,1/2-y,1/2+z
1/2+x,1/2-y,-z
1/2-x,1/2+y,-z
1/2-x,1/2-y,1/2-z
1/2+x,1/2+y,1/2-z
1/2-x,1/2+y,z
1/2+x,1/2-y,z
loop_
_atom_site_type_symbol
_atom_site_label
_atom_site_fract_x
_atom_site_fract_y
_atom_site_fract_z
Si Si1 0.122708 0.543634 0.327354
Si Si2 0.645972 0.520357 0.411972
Si Si3 0.020080 0.289359 0.831503
Si Si4 0.263049 0.312751 0.411138
O O1 0.151518 0.500000 0.250000
O O2 0.253212 0.541762 0.379083
O O3 0.085434 0.629837 0.313536
O O4 0.000000 0.500000 0.369029
O O5 0.500000 0.500000 0.379078
O O6 0.646428 0.510781 0.500000
O O7 0.691749 0.603512 0.387086
O O8 0.122778 0.243278 0.882307
O O9 0.000000 0.249956 0.750000
O O10 0.879586 0.294096 0.874630
O O11 0.249777 0.304262 0.500000
#
# Coordination Sequence:
#
# PCOD8295120 Si02
#       4
#    16  16  16  16
#     4  11  21  42  67  94 124 163 214 267 314 382
#     4  10  23  42  63  91 127 168 217 268 318 376
#     4  12  24  43  67  94 131 171 214 265 328 385
#     4  11  25  43  63  95 133 171 217 266 322 390
#
# _framework density 20.389980999999999
#
# number of rings (size 3 to 8) (size 9 to 14) (size 15 to 20)
#    0.000    1.000    5.000    1.500    3.500    3.000 
#    0.000    0.000    0.000    0.000    0.000    0.000 
#    0.000    0.000    0.000    0.000    0.000    0.000 
#
# Total GULP energy -396857.131810 kJ/mol
# GULP energy per Si atom -12401.785369 kJ/mol
# Density = 2.034357 g / cm^3
# Si number density = 20.389981 Si / 1000 Ang^3
#
#
#
# Elastic Constant Matrix: (Units=GPa)
#
#
# Indices 1 2 3 4 5 6 
#
# 1 187.1764 51.5139 59.8248 0.0000 0.0000 0.0000
# 2 51.5139 61.1327 40.5678 0.0000 0.0000 0.0000
# 3 59.8248 40.5678 73.7172 0.0000 0.0000 0.0000
# 4 0.0000 0.0000 0.0000 22.1151 0.0000 0.0000
# 5 0.0000 0.0000 0.0000 0.0000 7.0313 0.0000
# 6 0.0000 0.0000 0.0000 0.0000 0.0000 37.5597
#
#
#
# Elastic Compliance Matrix: (Units=1/GPa)
#
#
# Indices 1 2 3 4 5 6 
#
# 1 0.007709 -0.003693 -0.004224 0.000000 0.000000 0.000000
# 2 -0.003693 0.027537 -0.012157 0.000000 0.000000 0.000000
# 3 -0.004224 -0.012157 0.023683 0.000000 0.000000 0.000000
# 4 0.000000 0.000000 0.000000 0.045218 0.000000 0.000000
# 5 0.000000 0.000000 0.000000 0.000000 0.142221 0.000000
# 6 0.000000 0.000000 0.000000 0.000000 0.000000 0.026624
#
#
# Mechanical properties :
#
#
# Convention : Reuss Voigt Hill
#
# Bulk Modulus (GPa) = 53.24334 69.53768 61.39051
# Shear Modulus (GPa) = 15.65425 24.68253 20.16839
#
# Velocity S-wave (km/s) = 2.77382 3.48303 3.14846
# Velocity P-wave (km/s) = 6.03556 7.09600 6.58715
#
# Compressibility (1/GPa) = 0.01878169
#
# Stress axis : x y z
#
# Youngs Moduli (GPa) = 129.71947 36.31425 42.22358
#
# Poissons Ratio (x) = 0.13411 0.17834
# Poissons Ratio (y) = 0.47907 0.51332
# Poissons Ratio (z) = 0.54791 0.44148
#
# Static dielectric constant tensor:
#      x y z
#    x 4.015740 0.000000 0.000000 
#    y 0.000000 3.760570 0.000000 
#    z 0.000000 0.000000 3.659050 
# 
# 
# High freq. dielectric constant tensor:
#      x y z
#    x 1.816760 0.000000 0.000000 
#    y 0.000000 1.795110 0.000000 
#    z 0.000000 0.000000 1.799280 
# 
# From -- ./inp_files/22801.got.cif
#   From: 2010.03.12/outbox.cif.g09.slc.cpg/sg72_12_cif.got.tgz:22801.got - 2010.04.16 14:54:00.
