data_PCOD8295351
_publ_section_title
;
Structure prediction by ZEFSAII (Michael W. Deem and Ramdas Pophale) SiO2 
 PCOD8295351
Probable space group: I B A M
;
_chemical_formula_sum "Si O2"
_cell_formula_units_Z 96
_cell_length_a 14.084365
_cell_length_b 17.965270
_cell_length_c 17.567364
_cell_angle_alpha 90.000000
_cell_angle_beta 90.000000
_cell_angle_gamma 90.000000
_cell_volume 4445.059924
_symmetry_space_group_name_H-M "I B A M"
_symmetry_group_IT_number 72
_symmetry_cell_setting 'orthorhombic'
loop_
_space_group_symop_operation_xyz
x,y,z
-x,-y,z
x,-y,1/2-z
-x,y,1/2-z
-x,-y,-z
x,y,-z
-x,y,1/2+z
x,-y,1/2+z
1/2+x,1/2+y,1/2+z
1/2-x,1/2-y,1/2+z
1/2+x,1/2-y,-z
1/2-x,1/2+y,-z
1/2-x,1/2-y,1/2-z
1/2+x,1/2+y,1/2-z
1/2-x,1/2+y,z
1/2+x,1/2-y,z
loop_
_atom_site_type_symbol
_atom_site_label
_atom_site_fract_x
_atom_site_fract_y
_atom_site_fract_z
Si Si1 0.148144 0.322354 0.125949
Si Si2 0.645632 0.311657 0.646853
Si Si3 0.644378 0.581952 0.283328
Si Si4 0.943946 0.168036 0.413205
Si Si5 0.984416 0.416997 0.916202
Si Si6 0.158230 0.349469 0.298479
O O1 0.258533 0.342881 0.106768
O O2 0.123524 0.236441 0.109465
O O3 0.084697 0.375246 0.073639
O O4 0.121859 0.344111 0.212461
O O5 0.613390 0.360008 0.718884
O O6 0.554928 0.307558 0.591879
O O7 0.685763 0.232955 0.675605
O O8 0.625691 0.500000 0.250000
O O9 0.580279 0.597983 0.358313
O O10 0.754202 0.593517 0.305667
O O11 0.924018 0.143866 0.500000
O O12 0.000000 0.500000 0.886741
O O13 0.923651 0.375778 0.853683
O O14 0.935333 0.416840 0.000000
#
# Coordination Sequence:
#
# PCOD8295351 Si02
#       6
#    16  16  16  16  16  16
#     4  11  22  42  68 100 133 177 230 279 332 416
#     4  11  23  43  69 100 134 175 235 283 334 408
#     4  11  25  46  72  99 132 184 232 290 341 400
#     4  12  25  42  69 104 139 181 226 282 352 415
#     4  11  26  42  63 101 144 179 213 275 356 417
#     4  11  22  41  71 101 132 173 236 278 333 408
#
# _framework density 21.597009
#
# number of rings (size 3 to 8) (size 9 to 14) (size 15 to 20)
#    0.000    0.833    5.000    2.500    4.667    4.000 
#    0.000    1.667    0.000    0.000    0.000    0.000 
#    0.000    0.000    0.000    0.000    0.000    0.000 
#
# Total GULP energy -595160.558103 kJ/mol
# GULP energy per Si atom -12399.178294 kJ/mol
# Density = 2.154785 g / cm^3
# Si number density = 21.597009 Si / 1000 Ang^3
#
#
#
# Elastic Constant Matrix: (Units=GPa)
#
#
# Indices 1 2 3 4 5 6 
#
# 1 111.7993 25.6217 54.1112 0.0000 0.0000 0.0000
# 2 25.6217 119.3182 40.7450 0.0000 0.0000 0.0000
# 3 54.1112 40.7450 114.3540 0.0000 0.0000 0.0000
# 4 0.0000 0.0000 0.0000 -3.8449 0.0000 0.0000
# 5 0.0000 0.0000 0.0000 0.0000 22.1761 0.0000
# 6 0.0000 0.0000 0.0000 0.0000 0.0000 22.4783
#
#
#
# Elastic Compliance Matrix: (Units=1/GPa)
#
#
# Indices 1 2 3 4 5 6 
#
# 1 0.011654 -0.000705 -0.005263 0.000000 0.000000 0.000000
# 2 -0.000705 0.009585 -0.003081 0.000000 0.000000 0.000000
# 3 -0.005263 -0.003081 0.012333 0.000000 0.000000 0.000000
# 4 0.000000 0.000000 0.000000 -0.260083 0.000000 0.000000
# 5 0.000000 0.000000 0.000000 0.000000 0.045094 0.000000
# 6 0.000000 0.000000 0.000000 0.000000 0.000000 0.044487
#
#
# Mechanical properties :
#
#
# Convention : Reuss Voigt Hill
#
# Bulk Modulus (GPa) = 64.63278 65.15859 64.89569
# Shear Modulus (GPa) = -43.98528 23.16149 -10.41190
#
# Velocity S-wave (km/s) = -4.51781 3.27836 -2.19806
# Velocity P-wave (km/s) = 1.66661 6.67577 4.86536
#
# Compressibility (1/GPa) = 0.01547202
#
# Stress axis : x y z
#
# Youngs Moduli (GPa) = 85.81073 104.33398 81.08245
#
# Poissons Ratio (x) = 0.07357 0.42674
# Poissons Ratio (y) = 0.06051 0.24984
# Poissons Ratio (z) = 0.45163 0.32149
#
# Static dielectric constant tensor:
#      x y z
#    x 3.913250 0.000000 0.000000 
#    y 0.000000 6.880290 0.000000 
#    z 0.000000 0.000000 3.808290 
# 
# 
# High freq. dielectric constant tensor:
#      x y z
#    x 1.857310 0.000000 0.000000 
#    y 0.000000 1.836150 0.000000 
#    z 0.000000 0.000000 1.844170 
# 
# From -- ./inp_files/21821.got.cif
#   From: 2010.03.12/outbox.cif.g09.slc.cpg/sg72_11_cif.got.tgz:21821.got - 2010.04.16 14:54:00.
