data_PCOD8295417
_publ_section_title
;
Structure prediction by ZEFSAII (Michael W. Deem and Ramdas Pophale) SiO2 
 PCOD8295417
Probable space group: I B A M
;
_chemical_formula_sum "Si O2"
_cell_formula_units_Z 56
_cell_length_a 4.848787
_cell_length_b 32.189131
_cell_length_c 14.622961
_cell_angle_alpha 90.000000
_cell_angle_beta 90.000000
_cell_angle_gamma 90.000000
_cell_volume 2282.326016
_symmetry_space_group_name_H-M "I B A M"
_symmetry_group_IT_number 72
_symmetry_cell_setting 'orthorhombic'
loop_
_space_group_symop_operation_xyz
x,y,z
-x,-y,z
x,-y,1/2-z
-x,y,1/2-z
-x,-y,-z
x,y,-z
-x,y,1/2+z
x,-y,1/2+z
1/2+x,1/2+y,1/2+z
1/2-x,1/2-y,1/2+z
1/2+x,1/2-y,-z
1/2-x,1/2+y,-z
1/2-x,1/2-y,1/2-z
1/2+x,1/2+y,1/2-z
1/2-x,1/2+y,z
1/2+x,1/2-y,z
loop_
_atom_site_type_symbol
_atom_site_label
_atom_site_fract_x
_atom_site_fract_y
_atom_site_fract_z
Si Si1 0.960372 0.045283 0.856289
Si Si2 0.847474 0.777949 0.500000
Si Si3 0.470773 0.901960 0.398984
Si Si4 0.227868 0.323959 0.810700
O O1 0.155708 0.082718 0.891045
O O2 0.000000 0.040638 0.750000
O O3 0.650101 0.057126 0.881399
O O4 0.000000 0.000000 0.902820
O O5 0.663734 0.736445 0.500000
O O6 0.798344 0.803352 0.407222
O O7 0.512760 0.883461 0.500000
O O8 0.564462 0.866902 0.328123
O O9 0.500000 0.331307 0.750000
O O10 0.000000 0.297811 0.750000
#
# Coordination Sequence:
#
# PCOD8295417 Si02
#       4
#    16   8  16  16
#     4  11  24  41  63  94 135 183 237 294 353 417
#     4  12  28  50  76 112 151 184 240 298 361 446
#     4  12  24  42  67  98 137 181 239 295 347 418
#     4  12  26  47  76 107 146 194 241 295 364 433
#
# _framework density 24.536372
#
# number of rings (size 3 to 8) (size 9 to 14) (size 15 to 20)
#    0.000    0.286    1.429    8.571    0.000    9.143 
#    0.000    0.000    0.000    0.000    0.000    0.000 
#    0.000    0.000    0.000    0.000    0.000    0.000 
#
# Total GULP energy -347124.157567 kJ/mol
# GULP energy per Si atom -12397.291342 kJ/mol
# Density = 2.448053 g / cm^3
# Si number density = 24.536372 Si / 1000 Ang^3
#
#
#
# Elastic Constant Matrix: (Units=GPa)
#
#
# Indices 1 2 3 4 5 6 
#
# 1 90.2968 6.8823 26.7429 0.0000 0.0000 0.0000
# 2 6.8823 76.2612 32.2095 0.0000 0.0000 0.0000
# 3 26.7429 32.2095 175.8821 -0.0001 0.0000 0.0000
# 4 0.0000 0.0000 -0.0001 27.0599 0.0000 0.0000
# 5 0.0000 0.0000 0.0000 0.0000 35.7381 0.0000
# 6 0.0000 0.0000 0.0000 0.0000 0.0000 41.4405
#
#
#
# Elastic Compliance Matrix: (Units=1/GPa)
#
#
# Indices 1 2 3 4 5 6 
#
# 1 0.011604 -0.000327 -0.001704 0.000000 0.000000 0.000000
# 2 -0.000327 0.014221 -0.002555 0.000000 0.000000 0.000000
# 3 -0.001704 -0.002555 0.006413 0.000000 0.000000 0.000000
# 4 0.000000 0.000000 0.000000 0.036955 0.000000 0.000000
# 5 0.000000 0.000000 0.000000 0.000000 0.027981 0.000000
# 6 0.000000 0.000000 0.000000 0.000000 0.000000 0.024131
#
#
# Mechanical properties :
#
#
# Convention : Reuss Voigt Hill
#
# Bulk Modulus (GPa) = 43.35494 52.67884 48.01689
# Shear Modulus (GPa) = 36.18808 39.28805 37.73807
#
# Velocity S-wave (km/s) = 3.84458 4.00586 3.92605
# Velocity P-wave (km/s) = 6.11684 6.55074 6.33750
#
# Compressibility (1/GPa) = 0.02306542
#
# Stress axis : x y z
#
# Youngs Moduli (GPa) = 86.17450 70.31696 155.94240
#
# Poissons Ratio (x) = 0.02302 0.26580
# Poissons Ratio (y) = 0.02821 0.39837
# Poissons Ratio (z) = 0.14688 0.17963
#
# Static dielectric constant tensor:
#      x y z
#    x 4.484180 0.000000 0.000000 
#    y 0.000000 4.297590 0.000000 
#    z 0.000000 0.000000 4.708310 
# 
# 
# High freq. dielectric constant tensor:
#      x y z
#    x 1.987940 0.000000 0.000000 
#    y 0.000000 1.960210 0.000000 
#    z 0.000000 0.000000 2.004800 
# 
# From -- ./inp_files/17561.got.cif
#   From: 2010.03.12/outbox.cif.g09.slc.cpg/sg72_9_cif.got.tgz:17561.got - 2010.04.16 14:54:00.
