data_PCOD8295734
_publ_section_title
;
Structure prediction by ZEFSAII (Michael W. Deem and Ramdas Pophale) SiO2 
 PCOD8295734
Probable space group: I B C A 
;
_chemical_formula_sum "Si O2"
_cell_formula_units_Z 112
_cell_length_a 11.300946
_cell_length_b 21.319537
_cell_length_c 22.968369
_cell_angle_alpha 90.000000
_cell_angle_beta 90.000000
_cell_angle_gamma 90.000000
_cell_volume 5533.790650
_symmetry_space_group_name_H-M "I B C A "
_symmetry_group_IT_number 73
_symmetry_cell_setting 'orthorhombic'
loop_
_space_group_symop_operation_xyz
x,y,z
-x,1/2-y,z
x,-y,1/2-z
1/2-x,y,-z
-x,-y,-z
x,1/2+y,-z
-x,y,1/2+z
1/2+x,-y,z
1/2+x,1/2+y,1/2+z
1/2-x,-y,1/2+z
1/2+x,1/2-y,-z
-x,1/2+y,1/2-z
1/2-x,1/2-y,1/2-z
1/2+x,y,1/2-z
1/2-x,1/2+y,z
x,1/2-y,1/2+z
loop_
_atom_site_type_symbol
_atom_site_label
_atom_site_fract_x
_atom_site_fract_y
_atom_site_fract_z
Si Si1 0.202611 0.666842 0.232181
Si Si2 0.500000 0.750000 0.816411
Si Si3 0.328501 0.443054 0.899022
Si Si4 0.372490 0.277593 0.357718
Si Si5 0.250000 0.029399 0.000000
Si Si6 0.592636 0.591213 0.593563
Si Si7 0.209216 0.826082 0.138686
Si Si8 0.757749 0.466697 0.191321
O O1 0.081937 0.705449 0.222939
O O2 0.311838 0.705164 0.204183
O O3 0.230536 0.658755 0.299392
O O4 0.188127 0.597719 0.204464
O O5 0.423524 0.798286 0.856653
O O6 0.451931 0.408275 0.906690
O O7 0.221077 0.391376 0.896921
O O8 0.331002 0.485457 0.840783
O O9 0.317266 0.486726 0.954404
O O10 0.500000 0.250000 0.343673
O O11 0.370356 0.337141 0.399209
O O12 0.291579 0.226692 0.391251
O O13 0.349425 0.070512 0.967397
O O14 0.633974 0.547462 0.647415
O O15 0.806565 0.500000 0.250000
#
# Coordination Sequence:
#
# PCOD8295734 Si02
#       8
#    16   8  16  16   8  16  16  16
#     4  10  22  33  56  86 130 176 207 248 309 381
#     4  10  22  36  54  88 130 176 204 256 310 380
#     4  11  22  40  64  91 123 166 215 265 325 392
#     4  10  19  35  59  89 123 157 211 251 307 382
#     4  10  24  44  64  90 120 158 220 270 334 374
#     4  10  22  40  66  87 119 168 211 267 316 391
#     4  11  22  35  59  89 125 164 214 255 314 378
#     4  10  21  39  54  95 132 164 207 254 316 386
#
# _framework density 20.239291000000001
#
# number of rings (size 3 to 8) (size 9 to 14) (size 15 to 20)
#    0.000    1.714    2.857    2.143    4.000    2.857 
#    0.000    3.571    0.000    0.000    7.429    0.000 
#    0.000    0.000    0.000    0.000    0.000    0.000 
#
# Total GULP energy -694239.317538 kJ/mol
# GULP energy per Si atom -12397.130670 kJ/mol
# Density = 2.019323 g / cm^3
# Si number density = 20.239291 Si / 1000 Ang^3
#
#
#
# Elastic Constant Matrix: (Units=GPa)
#
#
# Indices 1 2 3 4 5 6 
#
# 1 114.8508 47.9351 31.5953 0.0000 0.0000 0.0000
# 2 47.9351 130.7968 42.4767 0.0000 0.0000 0.0000
# 3 31.5953 42.4767 92.2957 0.0000 0.0000 0.0000
# 4 0.0000 0.0000 0.0000 26.6454 0.0000 0.0000
# 5 0.0000 0.0000 0.0000 0.0000 15.0265 0.0000
# 6 0.0000 0.0000 0.0000 0.0000 0.0000 30.9504
#
#
#
# Elastic Compliance Matrix: (Units=1/GPa)
#
#
# Indices 1 2 3 4 5 6 
#
# 1 0.010637 -0.003193 -0.002172 0.000000 0.000000 0.000000
# 2 -0.003193 0.009947 -0.003485 0.000000 0.000000 0.000000
# 3 -0.002172 -0.003485 0.013182 0.000000 0.000000 0.000000
# 4 0.000000 0.000000 0.000000 0.037530 0.000000 0.000000
# 5 0.000000 0.000000 0.000000 0.000000 0.066549 0.000000
# 6 0.000000 0.000000 0.000000 0.000000 0.000000 0.032310
#
#
# Mechanical properties :
#
#
# Convention : Reuss Voigt Hill
#
# Bulk Modulus (GPa) = 62.23982 64.66193 63.45087
# Shear Modulus (GPa) = 25.87851 28.92021 27.39936
#
# Velocity S-wave (km/s) = 3.57967 3.78420 3.68335
# Velocity P-wave (km/s) = 6.92128 7.14924 7.03618
#
# Compressibility (1/GPa) = 0.01606688
#
# Stress axis : x y z
#
# Youngs Moduli (GPa) = 94.01072 100.52874 75.86046
#
# Poissons Ratio (x) = 0.32099 0.16476
# Poissons Ratio (y) = 0.30018 0.26437
# Poissons Ratio (z) = 0.20418 0.35034
#
# Static dielectric constant tensor:
#      x y z
#    x 3.561230 0.000000 0.000000 
#    y 0.000000 4.115780 0.000000 
#    z 0.000000 0.000000 3.573900 
# 
# 
# High freq. dielectric constant tensor:
#      x y z
#    x 1.780240 0.000000 0.000000 
#    y 0.000000 1.818350 0.000000 
#    z 0.000000 0.000000 1.759730 
# 
# From -- ./inp_files/29048.got.cif
#   From: 2010.03.12/outbox.cif.g09.slc.cpg/sg73_15_cif.got.tgz:29048.got - 2010.04.16 15:25:48.
