data_PCOD8295782
_publ_section_title
;
Structure prediction by ZEFSAII (Michael W. Deem and Ramdas Pophale) SiO2 
 PCOD8295782
Probable space group: I B C A 
;
_chemical_formula_sum "Si O2"
_cell_formula_units_Z 96
_cell_length_a 14.253846
_cell_length_b 22.395125
_cell_length_c 13.692915
_cell_angle_alpha 90.000000
_cell_angle_beta 90.000000
_cell_angle_gamma 90.000000
_cell_volume 4371.006632
_symmetry_space_group_name_H-M "I B C A "
_symmetry_group_IT_number 73
_symmetry_cell_setting 'orthorhombic'
loop_
_space_group_symop_operation_xyz
x,y,z
-x,1/2-y,z
x,-y,1/2-z
1/2-x,y,-z
-x,-y,-z
x,1/2+y,-z
-x,y,1/2+z
1/2+x,-y,z
1/2+x,1/2+y,1/2+z
1/2-x,-y,1/2+z
1/2+x,1/2-y,-z
-x,1/2+y,1/2-z
1/2-x,1/2-y,1/2-z
1/2+x,y,1/2-z
1/2-x,1/2+y,z
x,1/2-y,1/2+z
loop_
_atom_site_type_symbol
_atom_site_label
_atom_site_fract_x
_atom_site_fract_y
_atom_site_fract_z
Si Si1 0.478362 0.818430 0.972280
Si Si2 0.728058 0.577694 0.738391
Si Si3 0.893820 0.888605 0.367067
Si Si4 0.869260 0.480002 0.902442
Si Si5 0.839250 0.377440 0.047461
Si Si6 0.032379 0.909302 0.196508
O O1 0.500000 0.750000 0.951874
O O2 0.458129 0.849770 0.869274
O O3 0.397755 0.835069 0.052736
O O4 0.569994 0.841442 0.024690
O O5 0.800683 0.617530 0.801008
O O6 0.783037 0.525499 0.677046
O O7 0.680223 0.622749 0.661952
O O8 0.634586 0.557742 0.797741
O O9 0.987744 0.890133 0.300727
O O10 0.884412 0.950782 0.427459
O O11 0.964177 0.456991 0.852893
O O12 0.846769 0.444324 0.000746
O O13 0.750000 0.344290 0.000000
#
# Coordination Sequence:
#
# PCOD8295782 Si02
#       6
#    16  16  16  16  16  16
#     4  11  25  46  65  89 131 178 231 287 325 381
#     4  10  19  39  63  96 132 170 206 269 332 408
#     4  11  23  42  62 100 132 167 225 272 336 415
#     4   9  21  38  62  98 135 166 211 264 331 421
#     4   9  19  42  67  92 125 177 217 261 335 404
#     4  10  21  40  65  93 130 172 219 271 341 404
#
# _framework density 21.962904000000002
#
# number of rings (size 3 to 8) (size 9 to 14) (size 15 to 20)
#    0.000    2.000    1.667    3.000    0.000    6.667 
#   18.000    0.833    0.000    0.000    0.000    0.000 
#    0.000    0.000    0.000    0.000    0.000    0.000 
#
# Total GULP energy -594762.386826 kJ/mol
# GULP energy per Si atom -12390.883059 kJ/mol
# Density = 2.191292 g / cm^3
# Si number density = 21.962904 Si / 1000 Ang^3
#
#
#
# Elastic Constant Matrix: (Units=GPa)
#
#
# Indices 1 2 3 4 5 6 
#
# 1 137.7568 18.7455 29.4416 0.0000 0.0000 0.0000
# 2 18.7455 103.0884 40.8309 0.0001 0.0001 0.0000
# 3 29.4416 40.8309 64.9549 0.0001 0.0001 0.0000
# 4 0.0000 0.0001 0.0001 26.2077 0.0001 0.0000
# 5 0.0000 0.0001 0.0001 0.0001 16.0621 0.0000
# 6 0.0000 0.0000 0.0000 0.0000 0.0000 3.8546
#
#
#
# Elastic Compliance Matrix: (Units=1/GPa)
#
#
# Indices 1 2 3 4 5 6 
#
# 1 0.008038 -0.000025 -0.003628 0.000000 0.000000 0.000000
# 2 -0.000025 0.012916 -0.008108 0.000000 0.000000 0.000000
# 3 -0.003628 -0.008108 0.022136 0.000000 0.000000 0.000000
# 4 0.000000 0.000000 0.000000 0.038157 0.000000 0.000000
# 5 0.000000 0.000000 0.000000 0.000000 0.062258 -0.000001
# 6 0.000000 0.000000 0.000000 0.000000 -0.000001 0.259433
#
#
# Mechanical properties :
#
#
# Convention : Reuss Voigt Hill
#
# Bulk Modulus (GPa) = 51.09977 53.75956 52.42966
# Shear Modulus (GPa) = 11.54780 23.67703 17.61242
#
# Velocity S-wave (km/s) = 2.29549 3.28692 2.83489
# Velocity P-wave (km/s) = 5.50841 6.23985 5.88551
#
# Compressibility (1/GPa) = 0.01956956
#
# Stress axis : x y z
#
# Youngs Moduli (GPa) = 124.41128 77.42150 45.17457
#
# Poissons Ratio (x) = 0.00192 0.16388
# Poissons Ratio (y) = 0.00308 0.36628
# Poissons Ratio (z) = 0.45133 0.62774
#
# Static dielectric constant tensor:
#      x y z
#    x 4.499320 0.000000 0.000000 
#    y 0.000000 3.958950 0.000000 
#    z 0.000000 0.000000 4.645460 
# 
# 
# High freq. dielectric constant tensor:
#      x y z
#    x 1.889380 0.000000 0.000000 
#    y 0.000000 1.801690 0.000000 
#    z 0.000000 0.000000 1.877140 
# 
# From -- ./inp_files/17036.got.cif
#   From: 2010.03.12/outbox.cif.g09.slc.cpg/sg73_9_cif.got.tgz:17036.got - 2010.04.16 15:25:48.
