data_PCOD8295107
_publ_section_title
;
Structure prediction by ZEFSAII (Michael W. Deem and Ramdas Pophale) SiO2 
 PCOD8295107
Probable space group: I B A M
;
_chemical_formula_sum "Si O2"
_cell_formula_units_Z 64
_cell_length_a 7.746619
_cell_length_b 22.904296
_cell_length_c 16.231066
_cell_angle_alpha 90.000000
_cell_angle_beta 90.000000
_cell_angle_gamma 90.000000
_cell_volume 2879.891911
_symmetry_space_group_name_H-M "I B A M"
_symmetry_group_IT_number 72
_symmetry_cell_setting 'orthorhombic'
loop_
_space_group_symop_operation_xyz
x,y,z
-x,-y,z
x,-y,1/2-z
-x,y,1/2-z
-x,-y,-z
x,y,-z
-x,y,1/2+z
x,-y,1/2+z
1/2+x,1/2+y,1/2+z
1/2-x,1/2-y,1/2+z
1/2+x,1/2-y,-z
1/2-x,1/2+y,-z
1/2-x,1/2-y,1/2-z
1/2+x,1/2+y,1/2-z
1/2-x,1/2+y,z
1/2+x,1/2-y,z
loop_
_atom_site_type_symbol
_atom_site_label
_atom_site_fract_x
_atom_site_fract_y
_atom_site_fract_z
Si Si1 0.831426 0.627116 0.801057
Si Si2 0.370675 0.668029 0.850963
Si Si3 0.981909 0.719271 0.405738
Si Si4 0.917133 0.060124 0.905383
O O1 0.680291 0.652860 0.742875
O O2 0.752726 0.572204 0.850148
O O3 0.000000 0.606779 0.750000
O O4 0.876983 0.676686 0.866394
O O5 0.205353 0.690828 0.900721
O O6 0.513208 0.719532 0.855662
O O7 0.441847 0.610928 0.896132
O O8 0.034510 0.729913 0.500000
O O9 0.858664 0.054570 0.000000
O O10 0.000000 0.000000 0.873704
#
# Coordination Sequence:
#
# PCOD8295107 Si02
#       4
#    16  16  16  16
#     4  10  23  41  64  93 128 165 207 260 316 374
#     4  11  23  39  61  93 128 165 209 261 319 378
#     4  11  21  37  62  93 130 168 211 261 317 376
#     4  11  24  44  68  92 123 166 214 260 310 372
#
# _framework density 22.223057000000001
#
# number of rings (size 3 to 8) (size 9 to 14) (size 15 to 20)
#    0.000    1.250    0.000    6.000    0.000    6.000 
#    0.000    8.750    0.000   13.500    0.000    0.000 
#    0.000    0.000    0.000    0.000    0.000    0.000 
#
# Total GULP energy -396950.842835 kJ/mol
# GULP energy per Si atom -12404.713839 kJ/mol
# Density = 2.217248 g / cm^3
# Si number density = 22.223057 Si / 1000 Ang^3
#
#
#
# Elastic Constant Matrix: (Units=GPa)
#
#
# Indices 1 2 3 4 5 6 
#
# 1 115.1850 63.8194 32.6843 0.0000 0.0000 0.0000
# 2 63.8194 169.4947 43.4991 0.0000 0.0000 0.0000
# 3 32.6843 43.4991 111.6026 0.0000 0.0000 -0.0001
# 4 0.0000 0.0000 0.0000 28.9208 0.0000 0.0000
# 5 0.0000 0.0000 0.0000 0.0000 34.1347 0.0000
# 6 0.0000 0.0000 -0.0001 0.0000 0.0000 34.0150
#
#
#
# Elastic Compliance Matrix: (Units=1/GPa)
#
#
# Indices 1 2 3 4 5 6 
#
# 1 0.011298 -0.003783 -0.001834 0.000000 0.000000 0.000000
# 2 -0.003783 0.007823 -0.001941 0.000000 0.000000 0.000000
# 3 -0.001834 -0.001941 0.010254 0.000000 0.000000 0.000000
# 4 0.000000 0.000000 0.000000 0.034577 0.000000 0.000000
# 5 0.000000 0.000000 0.000000 0.000000 0.029296 0.000000
# 6 0.000000 0.000000 0.000000 0.000000 0.000000 0.029399
#
#
# Mechanical properties :
#
#
# Convention : Reuss Voigt Hill
#
# Bulk Modulus (GPa) = 70.13697 75.14310 72.64003
# Shear Modulus (GPa) = 35.08364 36.49940 35.79152
#
# Velocity S-wave (km/s) = 3.97760 4.05706 4.01753
# Velocity P-wave (km/s) = 7.26113 7.47214 7.36739
#
# Compressibility (1/GPa) = 0.01425782
#
# Stress axis : x y z
#
# Youngs Moduli (GPa) = 88.50810 127.83508 97.52226
#
# Poissons Ratio (x) = 0.48365 0.17888
# Poissons Ratio (y) = 0.33486 0.18929
# Poissons Ratio (z) = 0.16234 0.24812
#
# Static dielectric constant tensor:
#      x y z
#    x 4.078910 0.000000 0.000000 
#    y 0.000000 3.900830 0.000000 
#    z 0.000000 0.000000 4.038260 
# 
# 
# High freq. dielectric constant tensor:
#      x y z
#    x 1.887770 0.000000 0.000000 
#    y 0.000000 1.861700 0.000000 
#    z 0.000000 0.000000 1.890060 
# 
# From -- ./inp_files/18684.got.cif
#   From: 2010.03.12/outbox.cif.g09.slc.cpg/sg72_10_cif.got.tgz:18684.got - 2010.04.16 14:54:00.
