data_PCOD8295172
_publ_section_title
;
Structure prediction by ZEFSAII (Michael W. Deem and Ramdas Pophale) SiO2 
 PCOD8295172
Probable space group: I B A M
;
_chemical_formula_sum "Si O2"
_cell_formula_units_Z 72
_cell_length_a 14.796378
_cell_length_b 23.663687
_cell_length_c 9.047981
_cell_angle_alpha 90.000000
_cell_angle_beta 90.000000
_cell_angle_gamma 90.000000
_cell_volume 3168.031636
_symmetry_space_group_name_H-M "I B A M"
_symmetry_group_IT_number 72
_symmetry_cell_setting 'orthorhombic'
loop_
_space_group_symop_operation_xyz
x,y,z
-x,-y,z
x,-y,1/2-z
-x,y,1/2-z
-x,-y,-z
x,y,-z
-x,y,1/2+z
x,-y,1/2+z
1/2+x,1/2+y,1/2+z
1/2-x,1/2-y,1/2+z
1/2+x,1/2-y,-z
1/2-x,1/2+y,-z
1/2-x,1/2-y,1/2-z
1/2+x,1/2+y,1/2-z
1/2-x,1/2+y,z
1/2+x,1/2-y,z
loop_
_atom_site_type_symbol
_atom_site_label
_atom_site_fract_x
_atom_site_fract_y
_atom_site_fract_z
Si Si1 0.655690 0.574109 0.000000
Si Si2 0.361021 0.819712 0.000000
Si Si3 0.449535 0.244837 0.000000
Si Si4 0.500000 0.323977 0.750000
Si Si5 0.045707 0.097256 0.000000
Si Si6 0.241918 0.374468 0.750064
Si Si7 0.255091 0.791069 0.500000
Si Si8 0.733769 0.455948 0.000000
O O1 0.673580 0.611461 0.855254
O O2 0.548549 0.561730 0.000000
O O3 0.731142 0.523844 0.000000
O O4 0.344703 0.857352 0.851913
O O5 0.460397 0.793511 0.000000
O O6 0.284904 0.771169 0.000000
O O7 0.440348 0.283468 0.145484
O O8 0.363604 0.204514 0.000000
O O9 0.440520 0.363337 0.643139
O O10 0.126101 0.053410 0.000000
O O11 0.276930 0.323582 0.646747
O O12 0.219002 0.429028 0.645788
#
# Coordination Sequence:
#
# PCOD8295172 Si02
#       8
#     8   8   8   8   8  16   8   8
#     4  11  23  40  61  88 123 166 213 261 317 370
#     4  11  24  39  63  92 127 162 211 255 314 373
#     4  11  24  40  63  86 132 168 211 242 313 370
#     4  10  24  34  57  88 122 174 199 256 292 364
#     4  11  23  34  59  82 132 162 217 244 308 362
#     4  10  24  39  59  88 120 162 204 261 308 361
#     4  11  24  39  63  92 127 162 211 255 314 373
#     4  11  23  40  61  88 123 166 213 261 317 370
#
# _framework density 22.727046000000001
#
# number of rings (size 3 to 8) (size 9 to 14) (size 15 to 20)
#    0.000    1.333    0.000    4.333   18.667    0.000 
#    0.000    3.333    0.000    0.000    0.000   54.444 
#    0.000    0.000    0.000    0.000    0.000    0.000 
#
# Total GULP energy -446249.647975 kJ/mol
# GULP energy per Si atom -12395.823555 kJ/mol
# Density = 2.267532 g / cm^3
# Si number density = 22.727046 Si / 1000 Ang^3
#
#
#
# Elastic Constant Matrix: (Units=GPa)
#
#
# Indices 1 2 3 4 5 6 
#
# 1 91.1948 33.9698 25.6361 0.0001 0.0002 0.0000
# 2 33.9698 99.4347 52.1602 0.0003 -0.0001 0.0000
# 3 25.6361 52.1602 182.0803 0.0020 -0.0022 -0.0008
# 4 0.0001 0.0003 0.0020 24.5482 -0.0008 -0.0002
# 5 0.0002 -0.0001 -0.0022 -0.0008 20.7652 -0.0002
# 6 0.0000 0.0000 -0.0008 -0.0002 -0.0002 20.6505
#
#
#
# Elastic Compliance Matrix: (Units=1/GPa)
#
#
# Indices 1 2 3 4 5 6 
#
# 1 0.012627 -0.003979 -0.000638 0.000000 0.000000 0.000000
# 2 -0.003979 0.013089 -0.003189 0.000000 0.000000 0.000000
# 3 -0.000638 -0.003189 0.006496 0.000000 0.000001 0.000000
# 4 0.000000 0.000000 0.000000 0.040736 0.000002 0.000000
# 5 0.000000 0.000000 0.000001 0.000002 0.048158 0.000000
# 6 0.000000 0.000000 0.000000 0.000000 0.000000 0.048425
#
#
# Mechanical properties :
#
#
# Convention : Reuss Voigt Hill
#
# Bulk Modulus (GPa) = 60.24472 66.24910 63.24691
# Shear Modulus (GPa) = 26.22240 30.58902 28.40571
#
# Velocity S-wave (km/s) = 3.40044 3.67267 3.53918
# Velocity P-wave (km/s) = 6.47942 6.87007 6.67760
#
# Compressibility (1/GPa) = 0.01659896
#
# Stress axis : x y z
#
# Youngs Moduli (GPa) = 79.19479 76.39824 153.95109
#
# Poissons Ratio (x) = 0.30400 0.09821
# Poissons Ratio (y) = 0.31513 0.49102
# Poissons Ratio (z) = 0.05052 0.24367
#
# Static dielectric constant tensor:
#      x y z
#    x 3.564640 0.000000 0.000000 
#    y 0.000000 4.021760 0.000000 
#    z 0.000000 0.000000 4.612090 
# 
# 
# High freq. dielectric constant tensor:
#      x y z
#    x 1.855610 0.000000 0.000000 
#    y 0.000000 1.884410 0.000000 
#    z 0.000000 0.000000 1.930810 
# 
# From -- ./inp_files/3742.got.cif
#   From: 2010.03.12/outbox.cif.g09.slc.cpg/sg72_2_cif.got.tgz:3742.got - 2010.04.16 14:54:00.
