data_PCOD8295232
_publ_section_title
;
Structure prediction by ZEFSAII (Michael W. Deem and Ramdas Pophale) SiO2 
 PCOD8295232
Probable space group: I B A M
;
_chemical_formula_sum "Si O2"
_cell_formula_units_Z 116
_cell_length_a 22.541262
_cell_length_b 18.722985
_cell_length_c 14.378936
_cell_angle_alpha 90.000000
_cell_angle_beta 90.000000
_cell_angle_gamma 90.000000
_cell_volume 6068.481984
_symmetry_space_group_name_H-M "I B A M"
_symmetry_group_IT_number 72
_symmetry_cell_setting 'orthorhombic'
loop_
_space_group_symop_operation_xyz
x,y,z
-x,-y,z
x,-y,1/2-z
-x,y,1/2-z
-x,-y,-z
x,y,-z
-x,y,1/2+z
x,-y,1/2+z
1/2+x,1/2+y,1/2+z
1/2-x,1/2-y,1/2+z
1/2+x,1/2-y,-z
1/2-x,1/2+y,-z
1/2-x,1/2-y,1/2-z
1/2+x,1/2+y,1/2-z
1/2-x,1/2+y,z
1/2+x,1/2-y,z
loop_
_atom_site_type_symbol
_atom_site_label
_atom_site_fract_x
_atom_site_fract_y
_atom_site_fract_z
Si Si1 0.067226 0.728784 0.773839
Si Si2 0.353208 0.779901 0.101482
Si Si3 0.257921 0.119404 0.650902
Si Si4 0.291684 0.970095 0.603696
Si Si5 0.250692 0.322727 0.649228
Si Si6 0.000000 0.500000 0.250000
Si Si7 0.079720 0.410816 0.388975
Si Si8 0.654283 0.293533 0.601348
O O1 0.095811 0.704360 0.676513
O O2 0.074684 0.670471 0.855427
O O3 0.103631 0.795198 0.818542
O O4 0.000000 0.749967 0.750000
O O5 0.311824 0.849818 0.089990
O O6 0.314665 0.710538 0.128382
O O7 0.382814 0.767304 0.000000
O O8 0.260534 0.169521 0.741676
O O9 0.193377 0.133836 0.606617
O O10 0.268503 0.035123 0.669110
O O11 0.292469 0.002057 0.500000
O O12 0.248137 0.902283 0.606293
O O13 0.356161 0.943043 0.634294
O O14 0.197601 0.275359 0.608142
O O15 0.035841 0.451942 0.321422
O O16 0.064761 0.416595 0.500000
O O17 0.623798 0.291381 0.500000
#
# Coordination Sequence:
#
# PCOD8295232 Si02
#       8
#    16  16  16  16  16   4  16  16
#     4  12  24  41  58  83 113 158 214 244 284 350
#     4  11  22  38  57  84 117 152 191 246 301 350
#     4  11  20  35  57  88 118 149 188 241 305 363
#     4  11  22  34  54  87 116 147 189 234 296 370
#     4  11  19  35  59  81 115 154 183 232 305 370
#     4  12  26  44  56  78 112 160 222 246 282 334
#     4  11  25  42  59  81 118 161 202 251 296 346
#     4  11  20  37  60  83 115 152 191 242 298 355
#
# _framework density 19.115159999999999
#
# number of rings (size 3 to 8) (size 9 to 14) (size 15 to 20)
#    0.000    0.828    4.828    5.172    3.862    1.103 
#    0.000    0.000    0.000    0.000    0.000    1.931 
#    0.000    3.310    0.000    0.000    0.000    0.000 
#
# Total GULP energy -718912.904487 kJ/mol
# GULP energy per Si atom -12395.050077 kJ/mol
# Density = 1.907165 g / cm^3
# Si number density = 19.115160 Si / 1000 Ang^3
#
#
#
# Elastic Constant Matrix: (Units=GPa)
#
#
# Indices 1 2 3 4 5 6 
#
# 1 99.8289 33.1580 35.9638 0.0000 0.0000 0.0000
# 2 33.1580 84.5685 8.7942 0.0000 0.0000 0.0000
# 3 35.9638 8.7942 122.4798 0.0000 0.0000 0.0000
# 4 0.0000 0.0000 0.0000 27.6812 0.0000 0.0000
# 5 0.0000 0.0000 0.0000 0.0000 24.1164 0.0000
# 6 0.0000 0.0000 0.0000 0.0000 0.0000 18.0080
#
#
#
# Elastic Compliance Matrix: (Units=1/GPa)
#
#
# Indices 1 2 3 4 5 6 
#
# 1 0.012799 -0.004662 -0.003423 0.000000 0.000000 0.000000
# 2 -0.004662 0.013612 0.000392 0.000000 0.000000 0.000000
# 3 -0.003423 0.000392 0.009142 0.000000 0.000000 0.000000
# 4 0.000000 0.000000 0.000000 0.036126 0.000000 0.000000
# 5 0.000000 0.000000 0.000000 0.000000 0.041466 0.000000
# 6 0.000000 0.000000 0.000000 0.000000 0.000000 0.055531
#
#
# Mechanical properties :
#
#
# Convention : Reuss Voigt Hill
#
# Bulk Modulus (GPa) = 49.59190 51.41212 50.50201
# Shear Modulus (GPa) = 26.20758 29.22520 27.71639
#
# Velocity S-wave (km/s) = 3.70677 3.91436 3.81198
# Velocity P-wave (km/s) = 6.65735 6.88360 6.77142
#
# Compressibility (1/GPa) = 0.02016458
#
# Stress axis : x y z
#
# Youngs Moduli (GPa) = 78.13104 73.46447 109.38873
#
# Poissons Ratio (x) = 0.34251 0.37448
# Poissons Ratio (y) = 0.36427 -0.04284
# Poissons Ratio (z) = 0.26748 -0.02877
#
# Static dielectric constant tensor:
#      x y z
#    x 3.462060 0.000000 0.000000 
#    y 0.000000 3.398660 0.000000 
#    z 0.000000 0.000000 3.824850 
# 
# 
# High freq. dielectric constant tensor:
#      x y z
#    x 1.709830 0.000000 0.000000 
#    y 0.000000 1.721730 0.000000 
#    z 0.000000 0.000000 1.772860 
# 
# From -- ./inp_files/25416.got.cif
#   From: 2010.03.12/outbox.cif.g09.slc.cpg/sg72_13_cif.got.tgz:25416.got - 2010.04.16 14:54:00.
