data_PCOD8295938
_publ_section_title
;
Structure prediction by ZEFSAII (Michael W. Deem and Ramdas Pophale) SiO2 
 PCOD8295938
Probable space group: I B C A 
;
_chemical_formula_sum "Si O2"
_cell_formula_units_Z 120
_cell_length_a 19.961011
_cell_length_b 12.085544
_cell_length_c 24.494531
_cell_angle_alpha 90.000000
_cell_angle_beta 90.000000
_cell_angle_gamma 90.000000
_cell_volume 5909.052740
_symmetry_space_group_name_H-M "I B C A "
_symmetry_group_IT_number 73
_symmetry_cell_setting 'orthorhombic'
loop_
_space_group_symop_operation_xyz
x,y,z
-x,1/2-y,z
x,-y,1/2-z
1/2-x,y,-z
-x,-y,-z
x,1/2+y,-z
-x,y,1/2+z
1/2+x,-y,z
1/2+x,1/2+y,1/2+z
1/2-x,-y,1/2+z
1/2+x,1/2-y,-z
-x,1/2+y,1/2-z
1/2-x,1/2-y,1/2-z
1/2+x,y,1/2-z
1/2-x,1/2+y,z
x,1/2-y,1/2+z
loop_
_atom_site_type_symbol
_atom_site_label
_atom_site_fract_x
_atom_site_fract_y
_atom_site_fract_z
Si Si1 0.728130 0.239049 0.826786
Si Si2 0.823598 0.892091 0.604978
Si Si3 0.358686 0.266951 0.927211
Si Si4 0.664732 0.126300 0.729067
Si Si5 0.250000 0.169508 0.500000
Si Si6 0.422714 0.551225 0.059981
Si Si7 0.923754 0.294645 0.864754
Si Si8 0.573353 0.994030 0.564461
O O1 0.776620 0.133142 0.842130
O O2 0.686501 0.278570 0.878364
O O3 0.674511 0.204175 0.781446
O O4 0.770527 0.347923 0.809069
O O5 0.774716 0.900179 0.552345
O O6 0.879148 0.796356 0.605186
O O7 0.867330 0.004346 0.602934
O O8 0.313298 0.258141 0.981475
O O9 0.419772 0.184113 0.938500
O O10 0.385244 0.389247 0.913730
O O11 0.598614 0.168635 0.696599
O O12 0.658960 0.000000 0.750000
O O13 0.495985 0.520102 0.078993
O O14 0.410258 0.503548 0.999515
O O15 0.906625 0.398596 0.902568
O O16 0.000000 0.250000 0.863199
#
# Coordination Sequence:
#
# PCOD8295938 Si02
#       8
#    16  16  16  16   8  16  16  16
#     4   9  22  39  63  89 126 156 208 266 321 386
#     4  10  20  39  60  92 122 165 208 254 316 383
#     4  11  22  39  57  92 125 164 209 260 320 376
#     4  10  21  41  65  92 118 165 210 267 329 377
#     4  10  20  38  54  88 126 160 210 250 304 392
#     4  11  23  36  61  87 130 170 209 253 315 383
#     4  11  22  41  67  88 125 167 221 264 320 388
#     4  11  23  38  60  90 126 172 206 261 304 391
#
# _framework density 20.307824
#
# number of rings (size 3 to 8) (size 9 to 14) (size 15 to 20)
#    0.000    1.600    2.667    2.000    1.867    0.533 
#    7.200    2.667    0.000    0.000    0.000    0.000 
#    0.000    0.000    0.000    0.000    0.000    0.000 
#
# Total GULP energy -743424.191092 kJ/mol
# GULP energy per Si atom -12390.403185 kJ/mol
# Density = 2.026160 g / cm^3
# Si number density = 20.307824 Si / 1000 Ang^3
#
#
#
# Elastic Constant Matrix: (Units=GPa)
#
#
# Indices 1 2 3 4 5 6 
#
# 1 66.9097 34.3356 28.0441 0.0000 0.0000 0.0000
# 2 34.3356 94.2352 8.3145 0.0000 0.0000 0.0000
# 3 28.0441 8.3145 57.5461 0.0000 0.0000 0.0000
# 4 0.0000 0.0000 0.0000 26.4194 0.0000 0.0000
# 5 0.0000 0.0000 0.0000 0.0000 27.9415 0.0000
# 6 0.0000 0.0000 0.0000 0.0000 0.0000 -82.7362
#
#
#
# Elastic Compliance Matrix: (Units=1/GPa)
#
#
# Indices 1 2 3 4 5 6 
#
# 1 0.023049 -0.007503 -0.010149 0.000000 0.000000 0.000000
# 2 -0.007503 0.013191 0.001750 0.000000 0.000000 0.000000
# 3 -0.010149 0.001750 0.022070 0.000000 0.000000 0.000000
# 4 0.000000 0.000000 0.000000 0.037851 0.000000 0.000000
# 5 0.000000 0.000000 0.000000 0.000000 0.035789 0.000000
# 6 0.000000 0.000000 0.000000 0.000000 0.000000 -0.012087
#
#
# Mechanical properties :
#
#
# Convention : Reuss Voigt Hill
#
# Bulk Modulus (GPa) = 37.72363 40.00881 38.86622
# Shear Modulus (GPa) = 31.15223 4.19140 17.67182
#
# Velocity S-wave (km/s) = 3.92088 1.43820 2.95311
# Velocity P-wave (km/s) = 6.25412 4.74361 5.55049
#
# Compressibility (1/GPa) = 0.02650859
#
# Stress axis : x y z
#
# Youngs Moduli (GPa) = 43.38524 75.80903 45.30993
#
# Poissons Ratio (x) = 0.56878 0.45983
# Poissons Ratio (y) = 0.32551 -0.07931
# Poissons Ratio (z) = 0.44030 -0.13270
#
# Static dielectric constant tensor:
#      x y z
#    x 3.811320 0.000000 0.000000 
#    y 0.000000 3.522310 0.000000 
#    z 0.000000 0.000000 3.757080 
# 
# 
# High freq. dielectric constant tensor:
#      x y z
#    x 1.801170 0.000000 0.000000 
#    y 0.000000 1.785010 0.000000 
#    z 0.000000 0.000000 1.785770 
# 
# From -- ./inp_files/30188.got.cif
#   From: 2010.03.12/outbox.cif.g09.slc.cpg/sg73_16_cif.got.tgz:30188.got - 2010.04.16 15:25:48.
