data_PCOD8295470
_publ_section_title
;
Structure prediction by ZEFSAII (Michael W. Deem and Ramdas Pophale) SiO2 
 PCOD8295470
Probable space group: I B A M
;
_chemical_formula_sum "Si O2"
_cell_formula_units_Z 56
_cell_length_a 12.391238
_cell_length_b 12.315724
_cell_length_c 13.466547
_cell_angle_alpha 90.000000
_cell_angle_beta 90.000000
_cell_angle_gamma 90.000000
_cell_volume 2055.090243
_symmetry_space_group_name_H-M "I B A M"
_symmetry_group_IT_number 72
_symmetry_cell_setting 'orthorhombic'
loop_
_space_group_symop_operation_xyz
x,y,z
-x,-y,z
x,-y,1/2-z
-x,y,1/2-z
-x,-y,-z
x,y,-z
-x,y,1/2+z
x,-y,1/2+z
1/2+x,1/2+y,1/2+z
1/2-x,1/2-y,1/2+z
1/2+x,1/2-y,-z
1/2-x,1/2+y,-z
1/2-x,1/2-y,1/2-z
1/2+x,1/2+y,1/2-z
1/2-x,1/2+y,z
1/2+x,1/2-y,z
loop_
_atom_site_type_symbol
_atom_site_label
_atom_site_fract_x
_atom_site_fract_y
_atom_site_fract_z
Si Si1 0.116163 0.942628 0.610146
Si Si2 0.881869 0.170612 0.188576
Si Si3 0.000000 0.364511 0.250000
Si Si4 0.681936 0.924362 0.386978
O O1 0.091203 0.898484 0.500000
O O2 0.062882 0.067417 0.626383
O O3 0.245257 0.967329 0.621455
O O4 0.093473 0.853450 0.694623
O O5 0.932786 0.288952 0.171845
O O6 0.755546 0.175140 0.157483
O O7 0.923601 0.439670 0.318960
O O8 0.648961 0.898113 0.500000
#
# Coordination Sequence:
#
# PCOD8295470 Si02
#       4
#    16  16   8  16
#     4   8  17  37  60  78 113 160 195 235 291 355
#     4   9  19  37  58  84 120 153 197 249 298 356
#     4  12  22  33  61  94 118 152 198 260 304 349
#     4   9  20  39  57  81 121 160 196 244 302 362
#
# _framework density 27.249409
#
# number of rings (size 3 to 8) (size 9 to 14) (size 15 to 20)
#    1.714    1.143    0.000    0.857    0.000    5.714 
#    0.000    5.714    0.000    8.571    0.000    0.000 
#    0.000    0.000    0.000    0.000    0.000    0.000 
#
# Total GULP energy -346977.785905 kJ/mol
# GULP energy per Si atom -12392.063782 kJ/mol
# Density = 2.718739 g / cm^3
# Si number density = 27.249409 Si / 1000 Ang^3
#
#
#
# Elastic Constant Matrix: (Units=GPa)
#
#
# Indices 1 2 3 4 5 6 
#
# 1 117.2762 20.8165 51.9120 0.0000 0.0000 0.0000
# 2 20.8165 57.2395 31.8772 0.0000 0.0000 0.0000
# 3 51.9120 31.8772 197.1378 0.0000 0.0000 0.0000
# 4 0.0000 0.0000 0.0000 13.7482 0.0000 0.0000
# 5 0.0000 0.0000 0.0000 0.0000 52.8686 0.0000
# 6 0.0000 0.0000 0.0000 0.0000 0.0000 33.2963
#
#
#
# Elastic Compliance Matrix: (Units=1/GPa)
#
#
# Indices 1 2 3 4 5 6 
#
# 1 0.009936 -0.002370 -0.002233 0.000000 0.000000 0.000000
# 2 -0.002370 0.019765 -0.002572 0.000000 0.000000 0.000000
# 3 -0.002233 -0.002572 0.006077 0.000000 0.000000 0.000000
# 4 0.000000 0.000000 0.000000 0.072737 0.000000 0.000000
# 5 0.000000 0.000000 0.000000 0.000000 0.018915 0.000000
# 6 0.000000 0.000000 0.000000 0.000000 0.000000 0.030033
#
#
# Mechanical properties :
#
#
# Convention : Reuss Voigt Hill
#
# Bulk Modulus (GPa) = 46.66934 64.54056 55.60495
# Shear Modulus (GPa) = 27.94008 37.78581 32.86295
#
# Velocity S-wave (km/s) = 3.20558 3.72784 3.47653
# Velocity P-wave (km/s) = 5.55562 6.50120 6.04692
#
# Compressibility (1/GPa) = 0.02142735
#
# Stress axis : x y z
#
# Youngs Moduli (GPa) = 100.64355 50.59547 164.56693
#
# Poissons Ratio (x) = 0.11990 0.36752
# Poissons Ratio (y) = 0.23850 0.42325
# Poissons Ratio (z) = 0.22476 0.13013
#
# Static dielectric constant tensor:
#      x y z
#    x 5.461370 0.000000 0.000000 
#    y 0.000000 4.251040 0.000000 
#    z 0.000000 0.000000 4.610640 
# 
# 
# High freq. dielectric constant tensor:
#      x y z
#    x 2.147540 0.000000 0.000000 
#    y 0.000000 2.056920 0.000000 
#    z 0.000000 0.000000 2.076450 
# 
# From -- ./inp_files/19604.got.cif
#   From: 2010.03.12/outbox.cif.g09.slc.cpg/sg72_10_cif.got.tgz:19604.got - 2010.04.16 14:54:00.
