data_PCOD8295015
_publ_section_title
;
Structure prediction by ZEFSAII (Michael W. Deem and Ramdas Pophale) SiO2 
 PCOD8295015
Probable space group: I B A M
;
_chemical_formula_sum "Si O2"
_cell_formula_units_Z 96
_cell_length_a 25.118402
_cell_length_b 9.885933
_cell_length_c 19.567651
_cell_angle_alpha 90.000000
_cell_angle_beta 90.000000
_cell_angle_gamma 90.000000
_cell_volume 4859.016383
_symmetry_space_group_name_H-M "I B A M"
_symmetry_group_IT_number 72
_symmetry_cell_setting 'orthorhombic'
loop_
_space_group_symop_operation_xyz
x,y,z
-x,-y,z
x,-y,1/2-z
-x,y,1/2-z
-x,-y,-z
x,y,-z
-x,y,1/2+z
x,-y,1/2+z
1/2+x,1/2+y,1/2+z
1/2-x,1/2-y,1/2+z
1/2+x,1/2-y,-z
1/2-x,1/2+y,-z
1/2-x,1/2-y,1/2-z
1/2+x,1/2+y,1/2-z
1/2-x,1/2+y,z
1/2+x,1/2-y,z
loop_
_atom_site_type_symbol
_atom_site_label
_atom_site_fract_x
_atom_site_fract_y
_atom_site_fract_z
Si Si1 0.843226 0.140906 0.421380
Si Si2 0.534420 0.626711 0.421102
Si Si3 0.798481 0.933332 0.320583
Si Si4 0.176907 0.389309 0.832399
Si Si5 0.985742 0.655482 0.674182
Si Si6 0.636623 0.172192 0.685799
O O1 0.826283 0.135290 0.500000
O O2 0.903665 0.092187 0.410253
O O3 0.836133 0.294757 0.396361
O O4 0.803490 0.043220 0.380424
O O5 0.500000 0.500000 0.394263
O O6 0.521640 0.657059 0.500000
O O7 0.519920 0.759748 0.379234
O O8 0.738594 0.880583 0.311795
O O9 0.834655 0.806357 0.340407
O O10 0.818335 0.000000 0.250000
O O11 0.162660 0.543013 0.851802
O O12 0.141651 0.341899 0.767759
O O13 0.923841 0.681490 0.661981
O O14 0.000000 0.500000 0.662643
O O15 0.000000 0.703958 0.750000
#
# Coordination Sequence:
#
# PCOD8295015 Si02
#       6
#    16  16  16  16  16  16
#     4  11  24  41  61  88 127 165 201 252 314 371
#     4  10  22  42  62  84 119 163 203 244 303 371
#     4  12  22  38  65  93 119 159 210 256 306 367
#     4  11  21  39  62  88 121 160 201 251 313 367
#     4  11  22  37  57  88 123 153 196 256 302 351
#     4  11  21  36  61  92 116 152 206 260 299 364
#
# _framework density 19.757083999999999
#
# number of rings (size 3 to 8) (size 9 to 14) (size 15 to 20)
#    0.000    1.000    3.333    6.500    0.000    1.333 
#    0.000    1.667    0.000    0.000    0.000    0.000 
#    0.000    0.000    0.000    0.000    0.000    0.000 
#
# Total GULP energy -595535.911443 kJ/mol
# GULP energy per Si atom -12406.998155 kJ/mol
# Density = 1.971212 g / cm^3
# Si number density = 19.757084 Si / 1000 Ang^3
#
#
#
# Elastic Constant Matrix: (Units=GPa)
#
#
# Indices 1 2 3 4 5 6 
#
# 1 61.9148 6.4648 4.8441 0.0000 0.0000 0.0000
# 2 6.4648 98.8548 42.0882 0.0000 0.0000 0.0000
# 3 4.8441 42.0882 95.5142 0.0000 0.0000 0.0000
# 4 0.0000 0.0000 0.0000 30.1938 0.0000 0.0000
# 5 0.0000 0.0000 0.0000 0.0000 23.4757 0.0000
# 6 0.0000 0.0000 0.0000 0.0000 0.0000 35.5346
#
#
#
# Elastic Compliance Matrix: (Units=1/GPa)
#
#
# Indices 1 2 3 4 5 6 
#
# 1 0.016277 -0.000878 -0.000439 0.000000 0.000000 0.000000
# 2 -0.000878 0.012499 -0.005463 0.000000 0.000000 0.000000
# 3 -0.000439 -0.005463 0.012899 0.000000 0.000000 0.000000
# 4 0.000000 0.000000 0.000000 0.033119 0.000000 0.000000
# 5 0.000000 0.000000 0.000000 0.000000 0.042597 0.000000
# 6 0.000000 0.000000 0.000000 0.000000 0.000000 0.028142
#
#
# Mechanical properties :
#
#
# Convention : Reuss Voigt Hill
#
# Bulk Modulus (GPa) = 35.56657 40.34204 37.95431
# Shear Modulus (GPa) = 29.67967 31.36660 30.52314
#
# Velocity S-wave (km/s) = 3.88007 3.98881 3.93481
# Velocity P-wave (km/s) = 6.17367 6.45581 6.31632
#
# Compressibility (1/GPa) = 0.02811629
#
# Stress axis : x y z
#
# Youngs Moduli (GPa) = 61.43568 80.00464 77.52368
#
# Poissons Ratio (x) = 0.07022 0.03402
# Poissons Ratio (y) = 0.05392 0.42353
# Poissons Ratio (z) = 0.02696 0.43709
#
# Static dielectric constant tensor:
#      x y z
#    x 3.672180 0.000000 0.000000 
#    y 0.000000 3.612540 0.000000 
#    z 0.000000 0.000000 3.386310 
# 
# 
# High freq. dielectric constant tensor:
#      x y z
#    x 1.782950 0.000000 0.000000 
#    y 0.000000 1.782550 0.000000 
#    z 0.000000 0.000000 1.747240 
# 
# From -- ./inp_files/40680.got.cif
#   From: 2010.03.12/outbox.cif.g09.slc.cpg/sg72_21_cif.got.tgz:40680.got - 2010.04.16 14:54:00.
