data_PCOD8295930
_publ_section_title
;
Structure prediction by ZEFSAII (Michael W. Deem and Ramdas Pophale) SiO2 
 PCOD8295930
Probable space group: I B C A 
;
_chemical_formula_sum "Si O2"
_cell_formula_units_Z 72
_cell_length_a 20.752239
_cell_length_b 9.386581
_cell_length_c 18.572382
_cell_angle_alpha 90.000000
_cell_angle_beta 90.000000
_cell_angle_gamma 90.000000
_cell_volume 3617.762064
_symmetry_space_group_name_H-M "I B C A "
_symmetry_group_IT_number 73
_symmetry_cell_setting 'orthorhombic'
loop_
_space_group_symop_operation_xyz
x,y,z
-x,1/2-y,z
x,-y,1/2-z
1/2-x,y,-z
-x,-y,-z
x,1/2+y,-z
-x,y,1/2+z
1/2+x,-y,z
1/2+x,1/2+y,1/2+z
1/2-x,-y,1/2+z
1/2+x,1/2-y,-z
-x,1/2+y,1/2-z
1/2-x,1/2-y,1/2-z
1/2+x,y,1/2-z
1/2-x,1/2+y,z
x,1/2-y,1/2+z
loop_
_atom_site_type_symbol
_atom_site_label
_atom_site_fract_x
_atom_site_fract_y
_atom_site_fract_z
Si Si1 0.438557 0.447768 0.544503
Si Si2 0.555305 0.853725 0.795048
Si Si3 0.744803 0.500000 0.250000
Si Si4 0.164723 0.749361 0.292797
Si Si5 0.422892 0.753999 0.075694
O O1 0.500000 0.500000 0.500000
O O2 0.456482 0.375677 0.620195
O O3 0.400997 0.338326 0.493192
O O4 0.396614 0.587193 0.560200
O O5 0.500000 0.750000 0.765560
O O6 0.623996 0.775314 0.781020
O O7 0.552027 0.000000 0.750000
O O8 0.787620 0.616243 0.291647
O O9 0.702022 0.402410 0.305039
O O10 0.114216 0.794517 0.353733
O O11 0.500000 0.750000 0.089077
#
# Coordination Sequence:
#
# PCOD8295930 Si02
#       5
#    16  16   8  16  16
#     4  10  21  36  57  92 135 165 187 243 320 388
#     4  12  24  38  63  99 132 157 207 253 314 386
#     4  10  24  40  64  86 118 166 222 262 314 338
#     4  11  22  42  63  88 121 165 214 265 301 375
#     4  10  20  37  62  90 126 159 197 249 324 378
#
# _framework density 19.901806000000001
#
# number of rings (size 3 to 8) (size 9 to 14) (size 15 to 20)
#    0.000    1.333    3.333    2.667    4.667    1.778 
#    0.000    0.000    0.000   22.667    0.000    0.000 
#    0.000    0.000    0.000    0.000    0.000    0.000 
#
# Total GULP energy -445981.877670 kJ/mol
# GULP energy per Si atom -12388.385491 kJ/mol
# Density = 1.985651 g / cm^3
# Si number density = 19.901806 Si / 1000 Ang^3
#
#
#
# Elastic Constant Matrix: (Units=GPa)
#
#
# Indices 1 2 3 4 5 6 
#
# 1 88.7972 45.6634 42.7744 0.0000 0.0000 0.0000
# 2 45.6634 125.5135 35.5233 0.0000 0.0000 0.0000
# 3 42.7744 35.5233 134.4147 0.0000 0.0000 0.0000
# 4 0.0000 0.0000 0.0000 30.4942 0.0000 0.0000
# 5 0.0000 0.0000 0.0000 0.0000 9.7552 0.0000
# 6 0.0000 0.0000 0.0000 0.0000 0.0000 25.4294
#
#
#
# Elastic Compliance Matrix: (Units=1/GPa)
#
#
# Indices 1 2 3 4 5 6 
#
# 1 0.015380 -0.004551 -0.003692 0.000000 0.000000 0.000000
# 2 -0.004551 0.009958 -0.001184 0.000000 0.000000 0.000000
# 3 -0.003692 -0.001184 0.008927 0.000000 0.000000 0.000000
# 4 0.000000 0.000000 0.000000 0.032793 0.000000 0.000000
# 5 0.000000 0.000000 0.000000 0.000000 0.102510 0.000000
# 6 0.000000 0.000000 0.000000 0.000000 0.000000 0.039325
#
#
# Mechanical properties :
#
#
# Convention : Reuss Voigt Hill
#
# Bulk Modulus (GPa) = 64.87859 66.29417 65.58638
# Shear Modulus (GPa) = 21.47008 28.12003 24.79506
#
# Velocity S-wave (km/s) = 3.28807 3.76299 3.53352
# Velocity P-wave (km/s) = 6.86188 7.22932 7.04799
#
# Compressibility (1/GPa) = 0.01541341
#
# Stress axis : x y z
#
# Youngs Moduli (GPa) = 65.01913 100.42359 112.01652
#
# Poissons Ratio (x) = 0.45699 0.41353
# Poissons Ratio (y) = 0.29588 0.13258
# Poissons Ratio (z) = 0.24003 0.11885
#
# Static dielectric constant tensor:
#      x y z
#    x 3.554520 0.000000 0.000000 
#    y 0.000000 4.412740 0.000000 
#    z 0.000000 0.000000 3.822260 
# 
# 
# High freq. dielectric constant tensor:
#      x y z
#    x 1.749260 0.000000 0.000000 
#    y 0.000000 1.802880 0.000000 
#    z 0.000000 0.000000 1.764950 
# 
# From -- ./inp_files/5465.got.cif
#   From: 2010.03.12/outbox.cif.g09.slc.cpg/sg73_3_cif.got.tgz:5465.got - 2010.04.16 15:25:48.
