data_PCOD8295478
_publ_section_title
;
Structure prediction by ZEFSAII (Michael W. Deem and Ramdas Pophale) SiO2 
 PCOD8295478
Probable space group: I B A M
;
_chemical_formula_sum "Si O2"
_cell_formula_units_Z 104
_cell_length_a 8.985945
_cell_length_b 27.572566
_cell_length_c 20.435837
_cell_angle_alpha 90.000000
_cell_angle_beta 90.000000
_cell_angle_gamma 90.000000
_cell_volume 5063.296631
_symmetry_space_group_name_H-M "I B A M"
_symmetry_group_IT_number 72
_symmetry_cell_setting 'orthorhombic'
loop_
_space_group_symop_operation_xyz
x,y,z
-x,-y,z
x,-y,1/2-z
-x,y,1/2-z
-x,-y,-z
x,y,-z
-x,y,1/2+z
x,-y,1/2+z
1/2+x,1/2+y,1/2+z
1/2-x,1/2-y,1/2+z
1/2+x,1/2-y,-z
1/2-x,1/2+y,-z
1/2-x,1/2-y,1/2-z
1/2+x,1/2+y,1/2-z
1/2-x,1/2+y,z
1/2+x,1/2-y,z
loop_
_atom_site_type_symbol
_atom_site_label
_atom_site_fract_x
_atom_site_fract_y
_atom_site_fract_z
Si Si1 0.675925 0.697159 0.244884
Si Si2 0.266226 0.063293 0.000000
Si Si3 0.495052 0.055598 0.110747
Si Si4 0.975289 0.122413 0.000000
Si Si5 0.151582 0.194511 0.398676
Si Si6 0.522203 0.212860 0.926890
Si Si7 0.418127 0.145335 0.185354
Si Si8 0.769164 0.547863 0.000000
O O1 0.500000 0.701480 0.250000
O O2 0.750000 0.750000 0.250000
O O3 0.705457 0.676078 0.172310
O O4 0.744851 0.659167 0.298481
O O5 0.356858 0.070091 0.933929
O O6 0.144906 0.105685 0.000000
O O7 0.217224 0.007497 0.000000
O O8 0.468866 0.089223 0.174964
O O9 0.500000 0.000000 0.134948
O O10 0.640934 0.063598 0.065526
O O11 0.934467 0.152135 0.935522
O O12 0.886426 0.073280 0.000000
O O13 0.299509 0.212749 0.435257
O O14 0.032750 0.237953 0.392769
O O15 0.466481 0.169141 0.882560
O O16 0.454245 0.207858 0.000000
O O17 0.500000 0.166071 0.250000
#
# Coordination Sequence:
#
# PCOD8295478 Si02
#       8
#    16   8  16   8  16  16  16   8
#     4  12  25  44  63  88 132 181 228 269 322 404
#     4   9  21  39  65  95 126 163 208 264 347 399
#     4   9  21  42  67  96 124 159 214 276 330 392
#     4  12  23  36  62  96 130 164 211 266 334 398
#     4  12  25  40  60  90 130 174 221 275 327 390
#     4  12  24  42  59  92 129 175 222 276 331 387
#     4  12  25  41  67  93 126 177 220 261 339 402
#     4   9  19  41  65  93 130 163 206 276 331 403
#
# _framework density 20.539978000000001
#
# number of rings (size 3 to 8) (size 9 to 14) (size 15 to 20)
#    0.000    0.923    4.615    3.462    4.308    0.308 
#    0.000    0.000    0.000    0.000    0.000    1.077 
#    0.000    0.000    0.000    0.000    0.000    0.000 
#
# Total GULP energy -644438.621062 kJ/mol
# GULP energy per Si atom -12393.050405 kJ/mol
# Density = 2.049323 g / cm^3
# Si number density = 20.539978 Si / 1000 Ang^3
#
#
#
# Elastic Constant Matrix: (Units=GPa)
#
#
# Indices 1 2 3 4 5 6 
#
# 1 105.1713 35.6587 17.6725 -0.0001 0.0000 0.0000
# 2 35.6587 85.7732 33.3543 0.0000 0.0000 0.0000
# 3 17.6725 33.3543 102.3488 -0.0007 -0.0001 0.0000
# 4 -0.0001 0.0000 -0.0007 45.6260 -0.0002 0.0000
# 5 0.0000 0.0000 -0.0001 -0.0002 28.7818 0.0000
# 6 0.0000 0.0000 0.0000 0.0000 0.0000 40.7168
#
#
#
# Elastic Compliance Matrix: (Units=1/GPa)
#
#
# Indices 1 2 3 4 5 6 
#
# 1 0.011088 -0.004426 -0.000472 0.000000 0.000000 0.000000
# 2 -0.004426 0.015117 -0.004162 0.000000 0.000000 0.000000
# 3 -0.000472 -0.004162 0.011208 0.000000 0.000000 0.000000
# 4 0.000000 0.000000 0.000000 0.021917 0.000000 0.000000
# 5 0.000000 0.000000 0.000000 0.000000 0.034744 0.000000
# 6 0.000000 0.000000 0.000000 0.000000 0.000000 0.024560
#
#
# Mechanical properties :
#
#
# Convention : Reuss Voigt Hill
#
# Bulk Modulus (GPa) = 51.83264 51.85160 51.84212
# Shear Modulus (GPa) = 34.91917 36.79878 35.85897
#
# Velocity S-wave (km/s) = 4.12765 4.23728 4.18283
# Velocity P-wave (km/s) = 6.92867 7.01701 6.97298
#
# Compressibility (1/GPa) = 0.01929286
#
# Stress axis : x y z
#
# Youngs Moduli (GPa) = 90.18473 66.14926 89.21813
#
# Poissons Ratio (x) = 0.29279 0.04213
# Poissons Ratio (y) = 0.39917 0.37135
# Poissons Ratio (z) = 0.04258 0.27533
#
# Static dielectric constant tensor:
#      x y z
#    x 3.757000 0.000000 0.000000 
#    y 0.000000 3.719810 0.000000 
#    z 0.000000 0.000000 3.793970 
# 
# 
# High freq. dielectric constant tensor:
#      x y z
#    x 1.804530 0.000000 0.000000 
#    y 0.000000 1.793300 0.000000 
#    z 0.000000 0.000000 1.808660 
# 
# From -- ./inp_files/36178.got.cif
#   From: 2010.03.12/outbox.cif.g09.slc.cpg/sg72_19_cif.got.tgz:36178.got - 2010.04.16 14:54:00.
