data_PCOD8295861
_publ_section_title
;
Structure prediction by ZEFSAII (Michael W. Deem and Ramdas Pophale) SiO2 
 PCOD8295861
Probable space group: I B C A 
;
_chemical_formula_sum "Si O2"
_cell_formula_units_Z 128
_cell_length_a 26.481721
_cell_length_b 10.778296
_cell_length_c 23.813668
_cell_angle_alpha 90.000000
_cell_angle_beta 90.000000
_cell_angle_gamma 90.000000
_cell_volume 6797.083523
_symmetry_space_group_name_H-M "I B C A "
_symmetry_group_IT_number 73
_symmetry_cell_setting 'orthorhombic'
loop_
_space_group_symop_operation_xyz
x,y,z
-x,1/2-y,z
x,-y,1/2-z
1/2-x,y,-z
-x,-y,-z
x,1/2+y,-z
-x,y,1/2+z
1/2+x,-y,z
1/2+x,1/2+y,1/2+z
1/2-x,-y,1/2+z
1/2+x,1/2-y,-z
-x,1/2+y,1/2-z
1/2-x,1/2-y,1/2-z
1/2+x,y,1/2-z
1/2-x,1/2+y,z
x,1/2-y,1/2+z
loop_
_atom_site_type_symbol
_atom_site_label
_atom_site_fract_x
_atom_site_fract_y
_atom_site_fract_z
Si Si1 0.947815 0.310577 0.217585
Si Si2 0.553777 0.991043 0.117373
Si Si3 0.276022 0.760386 0.810427
Si Si4 0.217796 0.490552 0.184154
Si Si5 0.967863 0.624280 0.493358
Si Si6 0.448670 0.393957 0.613369
Si Si7 0.603082 0.066213 0.808972
Si Si8 0.391744 0.820990 0.824015
O O1 0.961622 0.405806 0.169181
O O2 0.906447 0.211468 0.196823
O O3 0.921718 0.376905 0.270645
O O4 0.000000 0.250000 0.237804
O O5 0.563526 0.902448 0.063597
O O6 0.510023 0.097981 0.111155
O O7 0.605390 0.068539 0.129667
O O8 0.250000 0.750000 0.750000
O O9 0.268648 0.626949 0.842014
O O10 0.335749 0.783571 0.806156
O O11 0.251307 0.878508 0.842656
O O12 0.229396 0.500000 0.250000
O O13 0.160243 0.457819 0.173278
O O14 0.931964 0.634218 0.548603
O O15 0.000000 0.750000 0.485705
O O16 0.000000 0.500000 0.500000
O O17 0.430347 0.525342 0.637554
O O18 0.422940 0.297635 0.655222
O O19 0.588840 0.000000 0.750000
#
# Coordination Sequence:
#
# PCOD8295861 Si02
#       8
#    16  16  16  16  16  16  16  16
#     4  12  22  32  50  78 124 157 189 234 291 358
#     4  11  24  36  53  85 121 159 199 245 292 345
#     4  10  20  35  55  79 115 151 188 239 292 361
#     4   9  18  34  54  75 107 147 189 232 287 347
#     4  10  22  40  60  80 115 162 213 257 289 337
#     4  11  20  38  59  79 113 162 205 239 292 351
#     4  11  20  35  55  79 113 154 196 234 289 372
#     4  12  23  36  55  87 121 156 197 236 303 377
#
# _framework density 18.831606000000001
#
# number of rings (size 3 to 8) (size 9 to 14) (size 15 to 20)
#    0.000    1.250    3.750    4.875    1.750    4.000 
#    0.000    0.000    0.000    0.000    0.000    0.875 
#    0.000    0.000    0.000    0.000    0.000    0.000 
#
# Total GULP energy -792905.730536 kJ/mol
# GULP energy per Si atom -12389.152040 kJ/mol
# Density = 1.878874 g / cm^3
# Si number density = 18.831606 Si / 1000 Ang^3
#
#
#
# Elastic Constant Matrix: (Units=GPa)
#
#
# Indices 1 2 3 4 5 6 
#
# 1 82.5876 43.3268 31.9615 0.0000 0.0000 0.0000
# 2 43.3268 107.1636 22.2983 0.0000 0.0000 0.0000
# 3 31.9615 22.2983 98.7115 0.0000 0.0000 0.0000
# 4 0.0000 0.0000 0.0000 22.8254 0.0000 0.0000
# 5 0.0000 0.0000 0.0000 0.0000 9.9734 0.0000
# 6 0.0000 0.0000 0.0000 0.0000 0.0000 30.8143
#
#
#
# Elastic Compliance Matrix: (Units=1/GPa)
#
#
# Indices 1 2 3 4 5 6 
#
# 1 0.016814 -0.005945 -0.004101 0.000000 0.000000 0.000000
# 2 -0.005945 0.011894 -0.000762 0.000000 0.000000 0.000000
# 3 -0.004101 -0.000762 0.011631 0.000000 0.000000 0.000000
# 4 0.000000 0.000000 0.000000 0.043811 0.000000 0.000000
# 5 0.000000 0.000000 0.000000 0.000000 0.100267 0.000000
# 6 0.000000 0.000000 0.000000 0.000000 0.000000 0.032452
#
#
# Mechanical properties :
#
#
# Convention : Reuss Voigt Hill
#
# Bulk Modulus (GPa) = 53.41151 53.73730 53.57441
# Shear Modulus (GPa) = 20.43110 25.44771 22.93941
#
# Velocity S-wave (km/s) = 3.29741 3.68003 3.49396
# Velocity P-wave (km/s) = 6.55145 6.83041 6.69238
#
# Compressibility (1/GPa) = 0.01872255
#
# Stress axis : x y z
#
# Youngs Moduli (GPa) = 59.47324 84.07935 85.98006
#
# Poissons Ratio (x) = 0.49983 0.35264
# Poissons Ratio (y) = 0.35355 0.06550
# Poissons Ratio (z) = 0.24392 0.06406
#
# Static dielectric constant tensor:
#      x y z
#    x 3.284410 0.000000 0.000000 
#    y 0.000000 4.140150 0.000000 
#    z 0.000000 0.000000 3.662400 
# 
# 
# High freq. dielectric constant tensor:
#      x y z
#    x 1.701050 0.000000 0.000000 
#    y 0.000000 1.759980 0.000000 
#    z 0.000000 0.000000 1.694310 
# 
# From -- ./inp_files/30395.got.cif
#   From: 2010.03.12/outbox.cif.g09.slc.cpg/sg73_16_cif.got.tgz:30395.got - 2010.04.16 15:25:48.
