data_PCOD8295052
_publ_section_title
;
Structure prediction by ZEFSAII (Michael W. Deem and Ramdas Pophale) SiO2 
 PCOD8295052
Probable space group: I B A M
;
_chemical_formula_sum "Si O2"
_cell_formula_units_Z 52
_cell_length_a 5.056279
_cell_length_b 20.161239
_cell_length_c 18.633291
_cell_angle_alpha 90.000000
_cell_angle_beta 90.000000
_cell_angle_gamma 90.000000
_cell_volume 1899.493511
_symmetry_space_group_name_H-M "I B A M"
_symmetry_group_IT_number 72
_symmetry_cell_setting 'orthorhombic'
loop_
_space_group_symop_operation_xyz
x,y,z
-x,-y,z
x,-y,1/2-z
-x,y,1/2-z
-x,-y,-z
x,y,-z
-x,y,1/2+z
x,-y,1/2+z
1/2+x,1/2+y,1/2+z
1/2-x,1/2-y,1/2+z
1/2+x,1/2-y,-z
1/2-x,1/2+y,-z
1/2-x,1/2-y,1/2-z
1/2+x,1/2+y,1/2-z
1/2-x,1/2+y,z
1/2+x,1/2-y,z
loop_
_atom_site_type_symbol
_atom_site_label
_atom_site_fract_x
_atom_site_fract_y
_atom_site_fract_z
Si Si1 0.718123 0.890130 0.149783
Si Si2 0.500000 0.000000 0.750000
Si Si3 0.364916 0.206038 0.419075
Si Si4 0.243477 0.953740 0.500000
Si Si5 0.500000 0.702156 0.750000
O O1 0.440054 0.849146 0.141103
O O2 0.795352 0.908190 0.069291
O O3 0.956410 0.846136 0.181703
O O4 0.679633 0.954369 0.199234
O O5 0.396348 0.177059 0.500000
O O6 0.071763 0.233490 0.406647
O O7 0.500000 0.000000 0.500000
O O8 0.000000 0.000000 0.500000
O O9 0.750000 0.750000 0.750000
#
# Coordination Sequence:
#
# PCOD8295052 Si02
#       5
#    16   4  16   8   8
#     4  12  27  53  81 120 164 220 278 350 419 512
#     4  12  30  48  88 118 174 228 284 344 436 516
#     4  10  22  43  75 112 147 195 257 330 404 477
#     4  12  30  52  82 118 162 218 286 345 418 505
#     4  12  29  51  82 121 167 220 272 346 434 518
#
# _framework density 27.375720000000001
#
# number of rings (size 3 to 8) (size 9 to 14) (size 15 to 20)
#    0.000    0.615    3.077    2.769    4.308    7.385 
#    0.000    0.000    0.000    0.000    0.000    0.000 
#    0.000    0.000    0.000    0.000    0.000    0.000 
#
# Total GULP energy -322290.972065 kJ/mol
# GULP energy per Si atom -12395.806618 kJ/mol
# Density = 2.731341 g / cm^3
# Si number density = 27.375720 Si / 1000 Ang^3
#
#
#
# Elastic Constant Matrix: (Units=GPa)
#
#
# Indices 1 2 3 4 5 6 
#
# 1 133.5692 49.4321 52.1488 0.0000 0.0000 0.0000
# 2 49.4321 155.9080 105.6587 0.0000 0.0000 0.0000
# 3 52.1488 105.6587 207.4204 0.0000 0.0000 0.0000
# 4 0.0000 0.0000 0.0000 82.7632 0.0000 0.0000
# 5 0.0000 0.0000 0.0000 0.0000 37.9565 0.0000
# 6 0.0000 0.0000 0.0000 0.0000 0.0000 39.2679
#
#
#
# Elastic Compliance Matrix: (Units=1/GPa)
#
#
# Indices 1 2 3 4 5 6 
#
# 1 0.008670 -0.001942 -0.001191 0.000000 0.000000 0.000000
# 2 -0.001942 0.010231 -0.004723 0.000000 0.000000 0.000000
# 3 -0.001191 -0.004723 0.007526 0.000000 0.000000 0.000000
# 4 0.000000 0.000000 0.000000 0.012083 0.000000 0.000000
# 5 0.000000 0.000000 0.000000 0.000000 0.026346 0.000000
# 6 0.000000 0.000000 0.000000 0.000000 0.000000 0.025466
#
#
# Mechanical properties :
#
#
# Convention : Reuss Voigt Hill
#
# Bulk Modulus (GPa) = 93.32112 101.26409 97.29261
# Shear Modulus (GPa) = 45.61801 51.30805 48.46303
#
# Velocity S-wave (km/s) = 4.08654 4.33392 4.21205
# Velocity P-wave (km/s) = 7.51196 7.88128 7.69883
#
# Compressibility (1/GPa) = 0.01071569
#
# Stress axis : x y z
#
# Youngs Moduli (GPa) = 115.33564 97.74486 132.86573
#
# Poissons Ratio (x) = 0.18984 0.15818
# Poissons Ratio (y) = 0.22400 0.62755
# Poissons Ratio (z) = 0.13731 0.46167
#
# Static dielectric constant tensor:
#      x y z
#    x 4.758080 0.000000 0.000000 
#    y 0.000000 5.315970 0.000000 
#    z 0.000000 0.000000 5.814780 
# 
# 
# High freq. dielectric constant tensor:
#      x y z
#    x 2.104040 0.000000 0.000000 
#    y 0.000000 2.114120 0.000000 
#    z 0.000000 0.000000 2.136590 
# 
# From -- ./inp_files/34614.got.cif
#   From: 2010.03.12/outbox.cif.g09.slc.cpg/sg72_18_cif.got.tgz:34614.got - 2010.04.16 14:54:00.
