data_PCOD8295337
_publ_section_title
;
Structure prediction by ZEFSAII (Michael W. Deem and Ramdas Pophale) SiO2 
 PCOD8295337
Probable space group: I B A M
;
_chemical_formula_sum "Si O2"
_cell_formula_units_Z 116
_cell_length_a 23.449566
_cell_length_b 16.388833
_cell_length_c 14.787059
_cell_angle_alpha 90.000000
_cell_angle_beta 90.000000
_cell_angle_gamma 90.000000
_cell_volume 5682.829743
_symmetry_space_group_name_H-M "I B A M"
_symmetry_group_IT_number 72
_symmetry_cell_setting 'orthorhombic'
loop_
_space_group_symop_operation_xyz
x,y,z
-x,-y,z
x,-y,1/2-z
-x,y,1/2-z
-x,-y,-z
x,y,-z
-x,y,1/2+z
x,-y,1/2+z
1/2+x,1/2+y,1/2+z
1/2-x,1/2-y,1/2+z
1/2+x,1/2-y,-z
1/2-x,1/2+y,-z
1/2-x,1/2-y,1/2-z
1/2+x,1/2+y,1/2-z
1/2-x,1/2+y,z
1/2+x,1/2-y,z
loop_
_atom_site_type_symbol
_atom_site_label
_atom_site_fract_x
_atom_site_fract_y
_atom_site_fract_z
Si Si1 0.379789 0.634265 0.652497
Si Si2 0.790527 0.309173 0.398566
Si Si3 0.318661 0.788775 0.597157
Si Si4 0.208962 0.416424 0.271063
Si Si5 0.880142 0.816187 0.144455
Si Si6 0.488797 0.384925 0.602812
Si Si7 0.000000 0.000000 0.750000
Si Si8 0.686529 0.469486 0.898998
O O1 0.355917 0.707043 0.591060
O O2 0.368138 0.666758 0.751689
O O3 0.446772 0.629485 0.632509
O O4 0.347836 0.549198 0.635675
O O5 0.786574 0.346535 0.500000
O O6 0.747197 0.234222 0.386012
O O7 0.773423 0.377970 0.325831
O O8 0.852616 0.270360 0.382253
O O9 0.325369 0.832568 0.500000
O O10 0.332873 0.854756 0.675000
O O11 0.174430 0.500000 0.250000
O O12 0.264014 0.443876 0.329127
O O13 0.856175 0.893353 0.089091
O O14 0.947287 0.807112 0.115902
O O15 0.487229 0.418388 0.500000
O O16 0.461688 0.447667 0.678670
O O17 0.710755 0.487992 0.000000
#
# Coordination Sequence:
#
# PCOD8295337 Si02
#       8
#    16  16  16  16  16  16   4  16
#     4  12  24  42  62  89 128 167 213 261 313 371
#     4  11  23  41  63  89 120 162 212 262 320 377
#     4  11  22  39  61  85 118 159 205 254 311 376
#     4  12  24  39  59  87 121 162 203 256 311 373
#     4  12  22  41  62  88 124 168 210 265 315 371
#     4  12  25  41  59  86 122 165 217 266 313 366
#     4  12  22  40  52  82 120 172 208 260 296 352
#     4  12  24  37  57  90 128 170 211 248 303 370
#
# _framework density 20.412365999999999
#
# number of rings (size 3 to 8) (size 9 to 14) (size 15 to 20)
#    0.000    0.276    4.138    7.241    0.000    2.207 
#    0.000    0.000    0.000    0.000    0.000    1.931 
#    0.000    3.310    0.000    0.000    0.000    0.000 
#
# Total GULP energy -718662.596136 kJ/mol
# GULP energy per Si atom -12390.734416 kJ/mol
# Density = 2.036591 g / cm^3
# Si number density = 20.412366 Si / 1000 Ang^3
#
#
#
# Elastic Constant Matrix: (Units=GPa)
#
#
# Indices 1 2 3 4 5 6 
#
# 1 85.1535 36.4312 17.8457 0.0000 0.0000 0.0000
# 2 36.4312 98.8737 43.8601 0.0000 0.0000 0.0000
# 3 17.8457 43.8601 175.1015 0.0000 0.0000 0.0000
# 4 0.0000 0.0000 0.0000 0.7898 0.0000 0.0000
# 5 0.0000 0.0000 0.0000 0.0000 19.2146 0.0000
# 6 0.0000 0.0000 0.0000 0.0000 0.0000 22.3201
#
#
#
# Elastic Compliance Matrix: (Units=1/GPa)
#
#
# Indices 1 2 3 4 5 6 
#
# 1 0.013945 -0.005071 -0.000151 0.000000 0.000000 0.000000
# 2 -0.005071 0.013222 -0.002795 0.000000 0.000000 0.000000
# 3 -0.000151 -0.002795 0.006426 0.000000 0.000000 0.000000
# 4 0.000000 0.000000 0.000000 1.266170 0.000000 0.000000
# 5 0.000000 0.000000 0.000000 0.000000 0.052044 0.000000
# 6 0.000000 0.000000 0.000000 0.000000 0.000000 0.044803
#
#
# Mechanical properties :
#
#
# Convention : Reuss Voigt Hill
#
# Bulk Modulus (GPa) = 56.95058 61.71141 59.33100
# Shear Modulus (GPa) = 3.52486 25.86435 14.69460
#
# Velocity S-wave (km/s) = 1.31551 3.56349 2.68598
# Velocity P-wave (km/s) = 5.50164 6.87235 6.22484
#
# Compressibility (1/GPa) = 0.01755908
#
# Stress axis : x y z
#
# Youngs Moduli (GPa) = 71.71171 75.62943 155.60571
#
# Poissons Ratio (x) = 0.38353 0.02349
# Poissons Ratio (y) = 0.36366 0.43494
# Poissons Ratio (z) = 0.01083 0.21140
#
# Static dielectric constant tensor:
#      x y z
#    x 3.514010 0.000000 0.000000 
#    y 0.000000 3.709400 0.000000 
#    z 0.000000 0.000000 4.278020 
# 
# 
# High freq. dielectric constant tensor:
#      x y z
#    x 1.760630 0.000000 0.000000 
#    y 0.000000 1.772680 0.000000 
#    z 0.000000 0.000000 1.837540 
# 
# From -- ./inp_files/25379.got.cif
#   From: 2010.03.12/outbox.cif.g09.slc.cpg/sg72_13_cif.got.tgz:25379.got - 2010.04.16 14:54:00.
