data_PCOD8295412
_publ_section_title
;
Structure prediction by ZEFSAII (Michael W. Deem and Ramdas Pophale) SiO2 
 PCOD8295412
Probable space group: I B A M
;
_chemical_formula_sum "Si O2"
_cell_formula_units_Z 64
_cell_length_a 13.642285
_cell_length_b 26.523120
_cell_length_c 9.607253
_cell_angle_alpha 90.000000
_cell_angle_beta 90.000000
_cell_angle_gamma 90.000000
_cell_volume 3476.249633
_symmetry_space_group_name_H-M "I B A M"
_symmetry_group_IT_number 72
_symmetry_cell_setting 'orthorhombic'
loop_
_space_group_symop_operation_xyz
x,y,z
-x,-y,z
x,-y,1/2-z
-x,y,1/2-z
-x,-y,-z
x,y,-z
-x,y,1/2+z
x,-y,1/2+z
1/2+x,1/2+y,1/2+z
1/2-x,1/2-y,1/2+z
1/2+x,1/2-y,-z
1/2-x,1/2+y,-z
1/2-x,1/2-y,1/2-z
1/2+x,1/2+y,1/2-z
1/2-x,1/2+y,z
1/2+x,1/2-y,z
loop_
_atom_site_type_symbol
_atom_site_label
_atom_site_fract_x
_atom_site_fract_y
_atom_site_fract_z
Si Si1 0.219980 0.713354 0.500000
Si Si2 0.500000 0.296285 0.750000
Si Si3 0.007544 0.725980 0.000000
Si Si4 0.099131 0.952852 0.164644
Si Si5 0.199496 0.326101 0.500000
Si Si6 0.192283 0.147554 0.259145
O O1 0.246933 0.771935 0.500000
O O2 0.262072 0.687109 0.635229
O O3 0.102889 0.706543 0.500000
O O4 0.536725 0.260642 0.628417
O O5 0.410381 0.331068 0.700497
O O6 0.081566 0.678537 0.000000
O O7 0.174741 0.906536 0.170241
O O8 0.000000 0.939423 0.250000
O O9 0.145998 0.000000 0.250000
O O10 0.078825 0.964940 0.000000
O O11 0.232136 0.358466 0.633032
#
# Coordination Sequence:
#
# PCOD8295412 Si02
#       6
#     8   8   8  16   8  16
#     4  12  22  40  55  85 119 163 207 247 290 357
#     4  12  20  34  57  82 120 164 191 242 284 354
#     4  12  24  36  56  80 122 160 208 244 286 332
#     4  11  24  40  63  91 122 155 197 249 301 362
#     4  12  24  36  57  87 117 165 201 247 288 355
#     4  12  23  37  60  87 122 162 204 234 301 363
#
# _framework density 18.410647000000001
#
# number of rings (size 3 to 8) (size 9 to 14) (size 15 to 20)
#    0.000    0.250    7.500    3.750    3.500    0.000 
#    0.000    0.000    0.000    0.000    0.000    5.250 
#    0.000    0.000    0.000    0.000    0.000    0.000 
#
# Total GULP energy -396764.655784 kJ/mol
# GULP energy per Si atom -12398.895493 kJ/mol
# Density = 1.836874 g / cm^3
# Si number density = 18.410647 Si / 1000 Ang^3
#
#
#
# Elastic Constant Matrix: (Units=GPa)
#
#
# Indices 1 2 3 4 5 6 
#
# 1 100.7498 23.0911 11.5304 -0.0007 0.0004 0.0001
# 2 23.0911 77.1614 24.8444 -0.0010 0.0004 0.0001
# 3 11.5304 24.8444 128.6126 -0.0122 0.0024 0.0015
# 4 -0.0007 -0.0010 -0.0122 30.7636 0.0000 -0.0001
# 5 0.0004 0.0004 0.0024 0.0000 19.2183 0.0002
# 6 0.0001 0.0001 0.0015 -0.0001 0.0002 25.5363
#
#
#
# Elastic Compliance Matrix: (Units=1/GPa)
#
#
# Indices 1 2 3 4 5 6 
#
# 1 0.010672 -0.003077 -0.000362 0.000000 0.000000 0.000000
# 2 -0.003077 0.014707 -0.002565 -0.000001 0.000000 0.000000
# 3 -0.000362 -0.002565 0.008303 0.000003 -0.000001 0.000000
# 4 0.000000 -0.000001 0.000003 0.032506 0.000000 0.000000
# 5 0.000000 0.000000 -0.000001 0.000000 0.052034 0.000000
# 6 0.000000 0.000000 0.000000 0.000000 0.000000 0.039160
#
#
# Mechanical properties :
#
#
# Convention : Reuss Voigt Hill
#
# Bulk Modulus (GPa) = 46.14009 47.27285 46.70647
# Shear Modulus (GPa) = 28.31013 31.57416 29.94214
#
# Velocity S-wave (km/s) = 3.92561 4.14574 4.03718
# Velocity P-wave (km/s) = 6.75746 6.97488 6.86703
#
# Compressibility (1/GPa) = 0.02167313
#
# Stress axis : x y z
#
# Youngs Moduli (GPa) = 93.70057 67.99678 120.43448
#
# Poissons Ratio (x) = 0.20923 0.04364
# Poissons Ratio (y) = 0.28832 0.30892
# Poissons Ratio (z) = 0.03396 0.17441
#
# Static dielectric constant tensor:
#      x y z
#    x 3.365550 0.000000 0.000000 
#    y 0.000000 3.342810 0.000030 
#    z 0.000000 0.000030 5.512800 
# 
# 
# High freq. dielectric constant tensor:
#      x y z
#    x 1.698050 0.000000 0.000000 
#    y 0.000000 1.690610 0.000000 
#    z 0.000000 0.000000 1.736030 
# 
# From -- ./inp_files/2690.got.cif
#   From: 2010.03.12/outbox.cif.g09.slc.cpg/sg72_2_cif.got.tgz:2690.got - 2010.04.16 14:54:00.
