data_PCOD8295100
_publ_section_title
;
Structure prediction by ZEFSAII (Michael W. Deem and Ramdas Pophale) SiO2 
 PCOD8295100
Probable space group: I B A M
;
_chemical_formula_sum "Si O2"
_cell_formula_units_Z 48
_cell_length_a 25.433297
_cell_length_b 5.157905
_cell_length_c 15.860714
_cell_angle_alpha 90.000000
_cell_angle_beta 90.000000
_cell_angle_gamma 90.000000
_cell_volume 2080.648586
_symmetry_space_group_name_H-M "I B A M"
_symmetry_group_IT_number 72
_symmetry_cell_setting 'orthorhombic'
loop_
_space_group_symop_operation_xyz
x,y,z
-x,-y,z
x,-y,1/2-z
-x,y,1/2-z
-x,-y,-z
x,y,-z
-x,y,1/2+z
x,-y,1/2+z
1/2+x,1/2+y,1/2+z
1/2-x,1/2-y,1/2+z
1/2+x,1/2-y,-z
1/2-x,1/2+y,-z
1/2-x,1/2-y,1/2-z
1/2+x,1/2+y,1/2-z
1/2-x,1/2+y,z
1/2+x,1/2-y,z
loop_
_atom_site_type_symbol
_atom_site_label
_atom_site_fract_x
_atom_site_fract_y
_atom_site_fract_z
Si Si1 0.381968 0.946845 0.404591
Si Si2 0.061485 0.040776 0.846162
Si Si3 0.271651 0.812853 0.343678
O O1 0.364160 0.006195 0.500000
O O2 0.411614 0.673431 0.404322
O O3 0.330987 0.918981 0.344856
O O4 0.420584 0.171397 0.371865
O O5 0.078501 0.000000 0.750000
O O6 0.000000 0.000000 0.858847
O O7 0.250000 0.750000 0.250000
O O8 0.264765 0.533739 0.389419
#
# Coordination Sequence:
#
# PCOD8295100 Si02
#       3
#    16  16  16
#     4  12  26  43  71 106 142 182 234 297 357 417
#     4  11  26  46  72 102 138 187 237 287 350 434
#     4  10  23  40  65  98 132 185 227 282 340 417
#
# _framework density 23.069728999999999
#
# number of rings (size 3 to 8) (size 9 to 14) (size 15 to 20)
#    0.000    1.000    0.000    5.000   14.000    8.000 
#    0.000    0.000    0.000    0.000    0.000    0.000 
#    0.000    0.000    0.000    0.000    0.000    0.000 
#
# Total GULP energy -297440.607270 kJ/mol
# GULP energy per Si atom -12393.358636 kJ/mol
# Density = 2.301722 g / cm^3
# Si number density = 23.069729 Si / 1000 Ang^3
#
#
#
# Elastic Constant Matrix: (Units=GPa)
#
#
# Indices 1 2 3 4 5 6 
#
# 1 136.9771 64.1942 46.7867 0.0000 0.0000 0.0000
# 2 64.1942 194.7067 13.3031 0.0000 0.0000 0.0000
# 3 46.7867 13.3031 99.6517 0.0000 0.0000 0.0000
# 4 0.0000 0.0000 0.0000 23.5144 0.0000 0.0000
# 5 0.0000 0.0000 0.0000 0.0000 9.6811 0.0000
# 6 0.0000 0.0000 0.0000 0.0000 0.0000 51.0659
#
#
#
# Elastic Compliance Matrix: (Units=1/GPa)
#
#
# Indices 1 2 3 4 5 6 
#
# 1 0.010245 -0.003077 -0.004399 0.000000 0.000000 0.000000
# 2 -0.003077 0.006107 0.000629 0.000000 0.000000 0.000000
# 3 -0.004399 0.000629 0.012016 0.000000 0.000000 0.000000
# 4 0.000000 0.000000 0.000000 0.042527 0.000000 0.000000
# 5 0.000000 0.000000 0.000000 0.000000 0.103294 0.000000
# 6 0.000000 0.000000 0.000000 0.000000 0.000000 0.019583
#
#
# Mechanical properties :
#
#
# Convention : Reuss Voigt Hill
#
# Bulk Modulus (GPa) = 68.14379 75.54481 71.84430
# Shear Modulus (GPa) = 23.54507 37.32241 30.43374
#
# Velocity S-wave (km/s) = 3.19816 4.02656 3.63603
# Velocity P-wave (km/s) = 6.57571 7.37801 6.98838
#
# Compressibility (1/GPa) = 0.01467485
#
# Stress axis : x y z
#
# Youngs Moduli (GPa) = 97.60543 163.73339 83.21927
#
# Poissons Ratio (x) = 0.50385 0.36611
# Poissons Ratio (y) = 0.30036 -0.05238
# Poissons Ratio (z) = 0.42941 -0.10306
#
# Static dielectric constant tensor:
#      x y z
#    x 4.170350 0.000000 0.000000 
#    y 0.000000 -2.806300 0.000000 
#    z 0.000000 0.000000 3.713680 
# 
# 
# High freq. dielectric constant tensor:
#      x y z
#    x 1.914600 0.000000 0.000000 
#    y 0.000000 1.949720 0.000000 
#    z 0.000000 0.000000 1.890920 
# 
# From -- ./inp_files/17341.got.cif
#   From: 2010.03.12/outbox.cif.g09.slc.cpg/sg72_9_cif.got.tgz:17341.got - 2010.04.16 14:54:00.
