data_PCOD8296465
_publ_section_title
;
Structure prediction by ZEFSAII (Michael W. Deem and Ramdas Pophale) SiO2 
 PCOD8296465
Probable space group: I B C A 
;
_chemical_formula_sum "Si O2"
_cell_formula_units_Z 72
_cell_length_a 10.462703
_cell_length_b 16.034077
_cell_length_c 17.890249
_cell_angle_alpha 90.000000
_cell_angle_beta 90.000000
_cell_angle_gamma 90.000000
_cell_volume 3001.264335
_symmetry_space_group_name_H-M "I B C A "
_symmetry_group_IT_number 73
_symmetry_cell_setting 'orthorhombic'
loop_
_space_group_symop_operation_xyz
x,y,z
-x,1/2-y,z
x,-y,1/2-z
1/2-x,y,-z
-x,-y,-z
x,1/2+y,-z
-x,y,1/2+z
1/2+x,-y,z
1/2+x,1/2+y,1/2+z
1/2-x,-y,1/2+z
1/2+x,1/2-y,-z
-x,1/2+y,1/2-z
1/2-x,1/2-y,1/2-z
1/2+x,y,1/2-z
1/2-x,1/2+y,z
x,1/2-y,1/2+z
loop_
_atom_site_type_symbol
_atom_site_label
_atom_site_fract_x
_atom_site_fract_y
_atom_site_fract_z
Si Si1 0.364908 0.059149 0.894103
Si Si2 0.750000 0.560575 0.000000
Si Si3 0.745831 0.151739 0.734644
Si Si4 0.985854 0.589192 0.177416
Si Si5 0.995980 0.655017 0.016471
O O1 0.299918 0.132457 0.847505
O O2 0.264398 0.990090 0.922319
O O3 0.475652 0.009443 0.846008
O O4 0.402308 0.100037 0.972522
O O5 0.634735 0.621363 0.015380
O O6 0.750000 0.250000 0.750000
O O7 0.843677 0.109200 0.792153
O O8 0.601007 0.111709 0.736394
O O9 0.014899 0.645272 0.104997
O O10 0.000000 0.750000 0.992428
#
# Coordination Sequence:
#
# PCOD8296465 Si02
#       5
#    16   8  16  16  16
#     4  11  24  44  72 100 139 184 232 282 346 421
#     4  10  22  42  70 100 136 180 228 284 348 410
#     4  12  26  45  70 102 140 185 233 290 349 410
#     4  11  26  47  70 101 141 185 231 285 348 419
#     4  11  24  43  70 106 138 175 230 291 344 406
#
# _framework density 23.989891
#
# number of rings (size 3 to 8) (size 9 to 14) (size 15 to 20)
#    0.000    0.889    0.000    8.000    0.000   15.111 
#    0.000    0.000    0.000    0.000    0.000    0.000 
#    0.000    0.000    0.000    0.000    0.000    0.000 
#
# Total GULP energy -446062.074157 kJ/mol
# GULP energy per Si atom -12390.613171 kJ/mol
# Density = 2.393529 g / cm^3
# Si number density = 23.989891 Si / 1000 Ang^3
#
#
#
# Elastic Constant Matrix: (Units=GPa)
#
#
# Indices 1 2 3 4 5 6 
#
# 1 140.9967 61.9171 66.2331 0.0000 0.0000 0.0000
# 2 61.9171 161.8107 65.0117 0.0000 0.0000 0.0000
# 3 66.2331 65.0117 108.1939 0.0000 0.0000 0.0000
# 4 0.0000 0.0000 0.0000 44.9929 0.0000 0.0000
# 5 0.0000 0.0000 0.0000 0.0000 40.7216 0.0000
# 6 0.0000 0.0000 0.0000 0.0000 0.0000 41.4905
#
#
#
# Elastic Compliance Matrix: (Units=1/GPa)
#
#
# Indices 1 2 3 4 5 6 
#
# 1 0.010366 -0.001868 -0.005224 0.000000 0.000000 0.000000
# 2 -0.001868 0.008483 -0.003954 0.000000 0.000000 0.000000
# 3 -0.005224 -0.003954 0.014816 0.000000 0.000000 0.000000
# 4 0.000000 0.000000 0.000000 0.022226 0.000000 0.000000
# 5 0.000000 0.000000 0.000000 0.000000 0.024557 0.000000
# 6 0.000000 0.000000 0.000000 0.000000 0.000000 0.024102
#
#
# Mechanical properties :
#
#
# Convention : Reuss Voigt Hill
#
# Bulk Modulus (GPa) = 86.39321 88.59167 87.49244
# Shear Modulus (GPa) = 38.31406 39.96364 39.13885
#
# Velocity S-wave (km/s) = 4.00070 4.08591 4.04353
# Velocity P-wave (km/s) = 7.57834 7.69860 7.63871
#
# Compressibility (1/GPa) = 0.01157498
#
# Stress axis : x y z
#
# Youngs Moduli (GPa) = 96.46500 117.87596 67.49335
#
# Poissons Ratio (x) = 0.22020 0.35256
# Poissons Ratio (y) = 0.18020 0.26687
# Poissons Ratio (z) = 0.50389 0.46608
#
# Static dielectric constant tensor:
#      x y z
#    x 4.523030 0.000000 0.000000 
#    y 0.000000 4.473660 0.000000 
#    z 0.000000 0.000000 3.830220 
# 
# 
# High freq. dielectric constant tensor:
#      x y z
#    x 1.957530 0.000000 0.000000 
#    y 0.000000 1.952570 0.000000 
#    z 0.000000 0.000000 1.958360 
# 
# From -- ./inp_files/25246.got.cif
#   From: 2010.03.12/outbox.cif.g09.slc.cpg/sg73_13_cif.got.tgz:25246.got - 2010.04.16 15:25:48.
