data_PCOD8296650
_publ_section_title
;
Structure prediction by ZEFSAII (Michael W. Deem and Ramdas Pophale) SiO2 
 PCOD8296650
Probable space group: I B C A 
;
_chemical_formula_sum "Si O2"
_cell_formula_units_Z 104
_cell_length_a 18.536291
_cell_length_b 9.114367
_cell_length_c 29.888576
_cell_angle_alpha 90.000000
_cell_angle_beta 90.000000
_cell_angle_gamma 90.000000
_cell_volume 5049.572068
_symmetry_space_group_name_H-M "I B C A "
_symmetry_group_IT_number 73
_symmetry_cell_setting 'orthorhombic'
loop_
_space_group_symop_operation_xyz
x,y,z
-x,1/2-y,z
x,-y,1/2-z
1/2-x,y,-z
-x,-y,-z
x,1/2+y,-z
-x,y,1/2+z
1/2+x,-y,z
1/2+x,1/2+y,1/2+z
1/2-x,-y,1/2+z
1/2+x,1/2-y,-z
-x,1/2+y,1/2-z
1/2-x,1/2-y,1/2-z
1/2+x,y,1/2-z
1/2-x,1/2+y,z
x,1/2-y,1/2+z
loop_
_atom_site_type_symbol
_atom_site_label
_atom_site_fract_x
_atom_site_fract_y
_atom_site_fract_z
Si Si1 0.317975 0.853104 0.054142
Si Si2 0.981677 0.593082 0.957595
Si Si3 0.693029 0.981325 0.800078
Si Si4 0.195892 0.277991 0.648701
Si Si5 0.250000 0.107647 0.000000
Si Si6 0.458100 0.900302 0.635130
Si Si7 0.530318 0.908067 0.792734
O O1 0.399698 0.906605 0.059952
O O2 0.284791 0.793502 0.100626
O O3 0.311961 0.718303 0.018582
O O4 0.276408 0.001133 0.039703
O O5 0.000000 0.750000 0.976389
O O6 0.033230 0.549634 0.916347
O O7 0.000000 0.500000 0.000000
O O8 0.741760 0.883455 0.832769
O O9 0.616109 0.901232 0.798738
O O10 0.725796 0.000000 0.750000
O O11 0.682415 0.145571 0.817528
O O12 0.125638 0.379878 0.645675
O O13 0.500000 0.750000 0.644389
O O14 0.491225 0.029727 0.663851
O O15 0.500000 0.750000 0.783148
O O16 0.507053 0.000000 0.750000
#
# Coordination Sequence:
#
# PCOD8296650 Si02
#       7
#    16  16  16  16   8  16  16
#     4  11  21  41  63  91 129 172 219 276 339 401
#     4  11  22  40  66  94 127 175 226 280 339 401
#     4  11  26  44  67 103 138 178 230 281 345 417
#     4  12  24  44  69  96 139 180 227 283 346 413
#     4  10  24  38  60  94 128 168 220 272 342 412
#     4  11  22  44  68  93 134 182 221 285 346 403
#     4  11  25  44  71 103 136 176 230 284 342 408
#
# _framework density 20.595804000000001
#
# number of rings (size 3 to 8) (size 9 to 14) (size 15 to 20)
#    0.000    0.923    4.615    2.769    4.308    1.231 
#    0.000    1.538    0.000    0.000    0.000    0.000 
#    0.000    0.000    0.000    0.000    0.000    0.000 
#
# Total GULP energy -644778.275634 kJ/mol
# GULP energy per Si atom -12399.582224 kJ/mol
# Density = 2.054893 g / cm^3
# Si number density = 20.595804 Si / 1000 Ang^3
#
#
#
# Elastic Constant Matrix: (Units=GPa)
#
#
# Indices 1 2 3 4 5 6 
#
# 1 104.6575 51.4669 48.9616 0.0000 0.0000 0.0000
# 2 51.4669 114.2047 71.3806 0.0000 0.0000 0.0000
# 3 48.9616 71.3806 156.7137 0.0000 0.0000 0.0000
# 4 0.0000 0.0000 0.0000 90.1977 0.0000 0.0000
# 5 0.0000 0.0000 0.0000 0.0000 42.6286 0.0000
# 6 0.0000 0.0000 0.0000 0.0000 0.0000 29.2229
#
#
#
# Elastic Compliance Matrix: (Units=1/GPa)
#
#
# Indices 1 2 3 4 5 6 
#
# 1 0.012667 -0.004522 -0.001898 0.000000 0.000000 0.000000
# 2 -0.004522 0.013856 -0.004898 0.000000 0.000000 0.000000
# 3 -0.001898 -0.004898 0.009205 0.000000 0.000000 0.000000
# 4 0.000000 0.000000 0.000000 0.011087 0.000000 0.000000
# 5 0.000000 0.000000 0.000000 0.000000 0.023458 0.000000
# 6 0.000000 0.000000 0.000000 0.000000 0.000000 0.034220
#
#
# Mechanical properties :
#
#
# Convention : Reuss Voigt Hill
#
# Bulk Modulus (GPa) = 76.38693 79.91046 78.14870
# Shear Modulus (GPa) = 38.02519 45.99429 42.00974
#
# Velocity S-wave (km/s) = 4.30147 4.73079 4.52123
# Velocity P-wave (km/s) = 7.86380 8.29000 8.07971
#
# Compressibility (1/GPa) = 0.01309124
#
# Stress axis : x y z
#
# Youngs Moduli (GPa) = 78.94778 72.17281 108.63716
#
# Poissons Ratio (x) = 0.32638 0.20615
# Poissons Ratio (y) = 0.35702 0.53212
# Poissons Ratio (z) = 0.14981 0.35351
#
# Static dielectric constant tensor:
#      x y z
#    x 3.736080 0.000000 0.000000 
#    y 0.000000 4.072000 0.000000 
#    z 0.000000 0.000000 3.528880 
# 
# 
# High freq. dielectric constant tensor:
#      x y z
#    x 1.803900 0.000000 0.000000 
#    y 0.000000 1.810160 0.000000 
#    z 0.000000 0.000000 1.821230 
# 
# From -- ./inp_files/32661.got.cif
#   From: 2010.03.12/outbox.cif.g09.slc.cpg/sg73_17_cif.got.tgz:32661.got - 2010.04.16 15:25:48.
