data_PCOD8296407
_publ_section_title
;
Structure prediction by ZEFSAII (Michael W. Deem and Ramdas Pophale) SiO2 
 PCOD8296407
Probable space group: I B C A 
;
_chemical_formula_sum "Si O2"
_cell_formula_units_Z 88
_cell_length_a 22.658095
_cell_length_b 33.173434
_cell_length_c 5.077255
_cell_angle_alpha 90.000000
_cell_angle_beta 90.000000
_cell_angle_gamma 90.000000
_cell_volume 3816.302570
_symmetry_space_group_name_H-M "I B C A "
_symmetry_group_IT_number 73
_symmetry_cell_setting 'orthorhombic'
loop_
_space_group_symop_operation_xyz
x,y,z
-x,1/2-y,z
x,-y,1/2-z
1/2-x,y,-z
-x,-y,-z
x,1/2+y,-z
-x,y,1/2+z
1/2+x,-y,z
1/2+x,1/2+y,1/2+z
1/2-x,-y,1/2+z
1/2+x,1/2-y,-z
-x,1/2+y,1/2-z
1/2-x,1/2-y,1/2-z
1/2+x,y,1/2-z
1/2-x,1/2+y,z
x,1/2-y,1/2+z
loop_
_atom_site_type_symbol
_atom_site_label
_atom_site_fract_x
_atom_site_fract_y
_atom_site_fract_z
Si Si1 0.750000 0.892488 0.500000
Si Si2 0.134224 0.392511 0.207783
Si Si3 0.963397 0.857465 0.622741
Si Si4 0.963016 0.453625 0.743063
Si Si5 0.409684 0.276454 0.233860
Si Si6 0.310804 0.332674 0.385263
O O1 0.697832 0.915580 0.656364
O O2 0.791474 0.866303 0.683271
O O3 0.101619 0.375087 0.942848
O O4 0.093114 0.426982 0.330182
O O5 0.145778 0.353986 0.398494
O O6 0.959339 0.809219 0.658756
O O7 0.992108 0.873031 0.893674
O O8 0.943281 0.500000 0.750000
O O9 0.983638 0.444068 0.444515
O O10 0.416941 0.259616 0.528440
O O11 0.345133 0.297255 0.233300
O O12 0.250000 0.313931 0.500000
#
# Coordination Sequence:
#
# PCOD8296407 Si02
#       6
#     8  16  16  16  16  16
#     4  10  22  40  70  94 132 176 222 290 334 392
#     4  11  22  41  70  99 136 174 231 276 334 404
#     4  12  25  41  66  93 125 171 221 273 330 402
#     4  10  23  42  70 107 145 180 217 274 335 390
#     4  12  26  43  63  91 131 171 219 281 348 408
#     4  10  23  42  64  96 132 177 231 286 338 401
#
# _framework density 23.058969999999999
#
# number of rings (size 3 to 8) (size 9 to 14) (size 15 to 20)
#    0.000    1.091    1.818    4.364    5.091    2.909 
#    0.000    0.000    6.000    0.000    0.000    0.000 
#    0.000    0.000    0.000    0.000    0.000    0.000 
#
# Total GULP energy -545209.731098 kJ/mol
# GULP energy per Si atom -12391.130252 kJ/mol
# Density = 2.300649 g / cm^3
# Si number density = 23.058970 Si / 1000 Ang^3
#
#
#
# Elastic Constant Matrix: (Units=GPa)
#
#
# Indices 1 2 3 4 5 6 
#
# 1 131.4525 45.7483 30.1410 0.0000 0.0000 0.0000
# 2 45.7483 67.7457 28.0110 0.0000 0.0000 0.0000
# 3 30.1410 28.0110 95.6498 0.0000 0.0000 0.0000
# 4 0.0000 0.0000 0.0000 28.4224 0.0000 0.0000
# 5 0.0000 0.0000 0.0000 0.0000 39.4714 0.0000
# 6 0.0000 0.0000 0.0000 0.0000 0.0000 29.2918
#
#
#
# Elastic Compliance Matrix: (Units=1/GPa)
#
#
# Indices 1 2 3 4 5 6 
#
# 1 0.010095 -0.006260 -0.001348 0.000000 0.000000 0.000000
# 2 -0.006260 0.020676 -0.004082 0.000000 0.000000 0.000000
# 3 -0.001348 -0.004082 0.012075 0.000000 0.000000 0.000000
# 4 0.000000 0.000000 0.000000 0.035184 0.000000 0.000000
# 5 0.000000 0.000000 0.000000 0.000000 0.025335 0.000000
# 6 0.000000 0.000000 0.000000 0.000000 0.000000 0.034139
#
#
# Mechanical properties :
#
#
# Convention : Reuss Voigt Hill
#
# Bulk Modulus (GPa) = 51.37158 55.84983 53.61070
# Shear Modulus (GPa) = 29.87345 32.16695 31.02020
#
# Velocity S-wave (km/s) = 3.60324 3.73900 3.67175
# Velocity P-wave (km/s) = 6.29586 6.55082 6.42460
#
# Compressibility (1/GPa) = 0.01946602
#
# Stress axis : x y z
#
# Youngs Moduli (GPa) = 99.06002 48.36477 82.81499
#
# Poissons Ratio (x) = 0.30275 0.11163
# Poissons Ratio (y) = 0.62009 0.33809
# Poissons Ratio (z) = 0.13353 0.19745
#
# Static dielectric constant tensor:
#      x y z
#    x 4.578430 0.000000 0.000000 
#    y 0.000000 4.055970 0.000000 
#    z 0.000000 0.000000 4.130960 
# 
# 
# High freq. dielectric constant tensor:
#      x y z
#    x 1.928270 0.000000 0.000000 
#    y 0.000000 1.882780 0.000000 
#    z 0.000000 0.000000 1.922900 
# 
# From -- ./inp_files/2247.got.cif
#   From: 2010.03.12/outbox.cif.g09.slc.cpg/sg73_2_cif.got.tgz:2247.got - 2010.04.16 15:25:48.
