data_PCOD8296217
_publ_section_title
;
Structure prediction by ZEFSAII (Michael W. Deem and Ramdas Pophale) SiO2 
 PCOD8296217
Probable space group: I B C A 
;
_chemical_formula_sum "Si O2"
_cell_formula_units_Z 104
_cell_length_a 16.523902
_cell_length_b 10.342646
_cell_length_c 29.357009
_cell_angle_alpha 90.000000
_cell_angle_beta 90.000000
_cell_angle_gamma 90.000000
_cell_volume 5017.138347
_symmetry_space_group_name_H-M "I B C A "
_symmetry_group_IT_number 73
_symmetry_cell_setting 'orthorhombic'
loop_
_space_group_symop_operation_xyz
x,y,z
-x,1/2-y,z
x,-y,1/2-z
1/2-x,y,-z
-x,-y,-z
x,1/2+y,-z
-x,y,1/2+z
1/2+x,-y,z
1/2+x,1/2+y,1/2+z
1/2-x,-y,1/2+z
1/2+x,1/2-y,-z
-x,1/2+y,1/2-z
1/2-x,1/2-y,1/2-z
1/2+x,y,1/2-z
1/2-x,1/2+y,z
x,1/2-y,1/2+z
loop_
_atom_site_type_symbol
_atom_site_label
_atom_site_fract_x
_atom_site_fract_y
_atom_site_fract_z
Si Si1 0.411338 0.772669 0.397126
Si Si2 0.593093 0.710185 0.995464
Si Si3 0.185919 0.891856 0.836284
Si Si4 0.156703 0.470790 0.068038
Si Si5 0.935230 0.138294 0.236609
Si Si6 0.750000 0.883571 0.000000
Si Si7 0.192799 0.681803 0.185514
O O1 0.500000 0.750000 0.377194
O O2 0.395565 0.681931 0.441406
O O3 0.351610 0.744203 0.355985
O O4 0.402536 0.921824 0.411421
O O5 0.500000 0.750000 0.004444
O O6 0.604770 0.586450 0.026706
O O7 0.666739 0.805994 0.009595
O O8 0.181011 0.871621 0.891218
O O9 0.096299 0.880952 0.814957
O O10 0.232353 0.778813 0.808859
O O11 0.221938 0.036134 0.826964
O O12 0.238041 0.530264 0.045590
O O13 0.860963 0.175625 0.269511
O O14 0.000000 0.250000 0.238990
O O15 0.974609 0.000000 0.250000
#
# Coordination Sequence:
#
# PCOD8296217 Si02
#       7
#    16  16  16  16  16   8  16
#     4   9  20  37  57  83 116 158 204 249 313 367
#     4  10  22  38  57  85 122 161 213 266 318 379
#     4  10  23  38  61  90 125 156 206 254 312 373
#     4  10  22  37  56  86 123 159 209 262 310 379
#     4  10  22  41  65  90 124 158 201 253 311 374
#     4  10  22  36  62  84 120 170 212 258 324 382
#     4  10  21  40  61  90 119 160 199 256 303 377
#
# _framework density 20.728947000000002
#
# number of rings (size 3 to 8) (size 9 to 14) (size 15 to 20)
#    0.000    2.154    0.000    1.385    8.615    7.385 
#    0.000    0.000    0.000    0.000    0.000    0.000 
#    0.000    0.000    0.000    0.000    0.000    0.000 
#
# Total GULP energy -644241.497190 kJ/mol
# GULP energy per Si atom -12389.259561 kJ/mol
# Density = 2.068177 g / cm^3
# Si number density = 20.728947 Si / 1000 Ang^3
#
#
#
# Elastic Constant Matrix: (Units=GPa)
#
#
# Indices 1 2 3 4 5 6 
#
# 1 80.2491 37.8977 17.9609 0.0000 0.0000 0.0000
# 2 37.8977 81.4797 24.4646 0.0000 0.0000 0.0000
# 3 17.9609 24.4646 92.6986 0.0000 0.0000 0.0000
# 4 0.0000 0.0000 0.0000 29.2940 0.0000 0.0000
# 5 0.0000 0.0000 0.0000 0.0000 20.6409 0.0000
# 6 0.0000 0.0000 0.0000 0.0000 0.0000 24.8050
#
#
#
# Elastic Compliance Matrix: (Units=1/GPa)
#
#
# Indices 1 2 3 4 5 6 
#
# 1 0.016099 -0.007115 -0.001241 0.000000 0.000000 0.000000
# 2 -0.007115 0.016474 -0.002969 0.000000 0.000000 0.000000
# 3 -0.001241 -0.002969 0.011812 0.000000 0.000000 0.000000
# 4 0.000000 0.000000 0.000000 0.034137 0.000000 0.000000
# 5 0.000000 0.000000 0.000000 0.000000 0.048448 0.000000
# 6 0.000000 0.000000 0.000000 0.000000 0.000000 0.040314
#
#
# Mechanical properties :
#
#
# Convention : Reuss Voigt Hill
#
# Bulk Modulus (GPa) = 46.01252 46.11931 46.06592
# Shear Modulus (GPa) = 25.35756 26.55493 25.95624
#
# Velocity S-wave (km/s) = 3.50135 3.58307 3.54245
# Velocity P-wave (km/s) = 6.21220 6.27813 6.24525
#
# Compressibility (1/GPa) = 0.02173321
#
# Stress axis : x y z
#
# Youngs Moduli (GPa) = 62.11461 60.70192 84.66124
#
# Poissons Ratio (x) = 0.43191 0.10511
# Poissons Ratio (y) = 0.44196 0.25137
# Poissons Ratio (z) = 0.07711 0.18023
#
# Static dielectric constant tensor:
#      x y z
#    x 3.643000 0.000000 0.000000 
#    y 0.000000 3.734540 0.000000 
#    z 0.000000 0.000000 4.121420 
# 
# 
# High freq. dielectric constant tensor:
#      x y z
#    x 1.796780 0.000000 0.000000 
#    y 0.000000 1.799070 0.000000 
#    z 0.000000 0.000000 1.827740 
# 
# From -- ./inp_files/34556.got.cif
#   From: 2010.03.12/outbox.cif.g09.slc.cpg/sg73_18_cif.got.tgz:34556.got - 2010.04.16 15:25:48.
