data_PCOD8296158
_publ_section_title
;
Structure prediction by ZEFSAII (Michael W. Deem and Ramdas Pophale) SiO2 
 PCOD8296158
Probable space group: I B C A 
;
_chemical_formula_sum "Si O2"
_cell_formula_units_Z 88
_cell_length_a 22.542574
_cell_length_b 16.818307
_cell_length_c 10.611626
_cell_angle_alpha 90.000000
_cell_angle_beta 90.000000
_cell_angle_gamma 90.000000
_cell_volume 4023.163800
_symmetry_space_group_name_H-M "I B C A "
_symmetry_group_IT_number 73
_symmetry_cell_setting 'orthorhombic'
loop_
_space_group_symop_operation_xyz
x,y,z
-x,1/2-y,z
x,-y,1/2-z
1/2-x,y,-z
-x,-y,-z
x,1/2+y,-z
-x,y,1/2+z
1/2+x,-y,z
1/2+x,1/2+y,1/2+z
1/2-x,-y,1/2+z
1/2+x,1/2-y,-z
-x,1/2+y,1/2-z
1/2-x,1/2-y,1/2-z
1/2+x,y,1/2-z
1/2-x,1/2+y,z
x,1/2-y,1/2+z
loop_
_atom_site_type_symbol
_atom_site_label
_atom_site_fract_x
_atom_site_fract_y
_atom_site_fract_z
Si Si1 0.546878 0.410347 0.892720
Si Si2 0.212879 0.770970 0.374925
Si Si3 0.339412 0.589186 0.249337
Si Si4 0.880409 0.668454 0.009979
Si Si5 0.573570 0.511057 0.113004
Si Si6 0.500000 0.750000 0.521076
O O1 0.591158 0.419869 0.777319
O O2 0.495815 0.473482 0.866545
O O3 0.522171 0.321090 0.890933
O O4 0.579497 0.432057 0.026140
O O5 0.250000 0.763826 0.500000
O O6 0.250000 0.750000 0.250000
O O7 0.192944 0.862524 0.361232
O O8 0.154566 0.716652 0.400416
O O9 0.310960 0.500000 0.250000
O O10 0.336452 0.645140 0.374452
O O11 0.895531 0.583588 0.954309
O O12 0.941122 0.716275 0.053690
O O13 0.603788 0.500000 0.250000
#
# Coordination Sequence:
#
# PCOD8296158 Si02
#       6
#    16  16  16  16  16   8
#     4  10  21  38  61  99 142 192 226 290 357 423
#     4  12  27  52  77 101 141 189 243 302 355 426
#     4  12  24  46  73 101 143 183 237 297 367 415
#     4  11  24  44  71 105 140 189 234 297 353 439
#     4  10  22  37  61  98 146 186 234 284 357 433
#     4  10  22  38  64 106 142 184 242 272 360 436
#
# _framework density 21.873332999999999
#
# number of rings (size 3 to 8) (size 9 to 14) (size 15 to 20)
#    0.000    1.091    5.455    0.545    5.091    3.636 
#    3.273    0.000    0.000    0.000    0.000    0.000 
#    0.000    0.000    0.000    0.000    0.000    0.000 
#
# Total GULP energy -545140.853996 kJ/mol
# GULP energy per Si atom -12389.564864 kJ/mol
# Density = 2.182355 g / cm^3
# Si number density = 21.873333 Si / 1000 Ang^3
#
#
#
# Elastic Constant Matrix: (Units=GPa)
#
#
# Indices 1 2 3 4 5 6 
#
# 1 71.8560 31.1858 23.9953 0.0000 0.0000 0.0000
# 2 31.1858 135.1589 33.9036 0.0000 0.0000 0.0000
# 3 23.9953 33.9036 104.4690 0.0000 0.0000 0.0000
# 4 0.0000 0.0000 0.0000 33.7060 0.0000 0.0000
# 5 0.0000 0.0000 0.0000 0.0000 30.3860 0.0000
# 6 0.0000 0.0000 0.0000 0.0000 0.0000 17.3904
#
#
#
# Elastic Compliance Matrix: (Units=1/GPa)
#
#
# Indices 1 2 3 4 5 6 
#
# 1 0.016146 -0.003043 -0.002721 0.000000 0.000000 0.000000
# 2 -0.003043 0.008628 -0.002101 0.000000 0.000000 0.000000
# 3 -0.002721 -0.002101 0.010879 0.000000 0.000000 0.000000
# 4 0.000000 0.000000 0.000000 0.029668 0.000000 0.000000
# 5 0.000000 0.000000 0.000000 0.000000 0.032910 0.000000
# 6 0.000000 0.000000 0.000000 0.000000 0.000000 0.057503
#
#
# Mechanical properties :
#
#
# Convention : Reuss Voigt Hill
#
# Bulk Modulus (GPa) = 50.19353 54.40592 52.29972
# Shear Modulus (GPa) = 28.07330 31.12308 29.59819
#
# Velocity S-wave (km/s) = 3.58641 3.77620 3.68253
# Velocity P-wave (km/s) = 6.33616 6.62873 6.48410
#
# Compressibility (1/GPa) = 0.01992289
#
# Stress axis : x y z
#
# Youngs Moduli (GPa) = 61.93483 115.90379 91.91948
#
# Poissons Ratio (x) = 0.35268 0.25012
# Poissons Ratio (y) = 0.18846 0.19313
# Poissons Ratio (z) = 0.16853 0.24353
#
# Static dielectric constant tensor:
#      x y z
#    x 4.031970 0.000000 0.000000 
#    y 0.000000 4.195710 0.000000 
#    z 0.000000 0.000000 4.310620 
# 
# 
# High freq. dielectric constant tensor:
#      x y z
#    x 1.842220 0.000000 0.000000 
#    y 0.000000 1.875400 0.000000 
#    z 0.000000 0.000000 1.849030 
# 
# From -- ./inp_files/14208.got.cif
#   From: 2010.03.12/outbox.cif.g09.slc.cpg/sg73_8_cif.got.tgz:14208.got - 2010.04.16 15:25:48.
