data_PCOD8296743
_publ_section_title
;
Structure prediction by ZEFSAII (Michael W. Deem and Ramdas Pophale) SiO2 
 PCOD8296743
Probable space group: I B C A 
;
_chemical_formula_sum "Si O2"
_cell_formula_units_Z 72
_cell_length_a 8.157162
_cell_length_b 28.872147
_cell_length_c 13.163614
_cell_angle_alpha 90.000000
_cell_angle_beta 90.000000
_cell_angle_gamma 90.000000
_cell_volume 3100.225660
_symmetry_space_group_name_H-M "I B C A "
_symmetry_group_IT_number 73
_symmetry_cell_setting 'orthorhombic'
loop_
_space_group_symop_operation_xyz
x,y,z
-x,1/2-y,z
x,-y,1/2-z
1/2-x,y,-z
-x,-y,-z
x,1/2+y,-z
-x,y,1/2+z
1/2+x,-y,z
1/2+x,1/2+y,1/2+z
1/2-x,-y,1/2+z
1/2+x,1/2-y,-z
-x,1/2+y,1/2-z
1/2-x,1/2-y,1/2-z
1/2+x,y,1/2-z
1/2-x,1/2+y,z
x,1/2-y,1/2+z
loop_
_atom_site_type_symbol
_atom_site_label
_atom_site_fract_x
_atom_site_fract_y
_atom_site_fract_z
Si Si1 0.835198 0.647649 0.813569
Si Si2 0.300234 0.837907 0.612804
Si Si3 0.513742 0.500000 0.250000
Si Si4 0.763214 0.053475 0.882660
Si Si5 0.690901 0.263230 0.605243
O O1 0.828886 0.638418 0.691390
O O2 0.729595 0.609166 0.873004
O O3 0.739773 0.697241 0.815014
O O4 0.016441 0.646694 0.859074
O O5 0.250000 0.855133 0.500000
O O6 0.299496 0.782385 0.619206
O O7 0.609811 0.536833 0.182967
O O8 0.419221 0.529933 0.332868
O O9 0.750000 0.038550 0.000000
O O10 0.500000 0.250000 0.610395
O O11 0.750000 0.286337 0.500000
#
# Coordination Sequence:
#
# PCOD8296743 Si02
#       5
#    16  16   8  16  16
#     4  12  24  42  67  98 130 173 226 273 323 387
#     4  11  25  43  64  95 137 181 221 269 321 380
#     4  10  24  46  68 100 132 166 212 264 340 406
#     4  11  24  44  72  99 131 169 213 271 330 395
#     4  11  22  39  63  93 134 182 225 271 324 381
#
# _framework density 23.224115000000001
#
# number of rings (size 3 to 8) (size 9 to 14) (size 15 to 20)
#    0.000    0.889    0.000    8.000    0.000    3.556 
#    0.000    5.556    0.000    1.333    0.000    0.000 
#    0.000    0.000    0.000    0.000    0.000    0.000 
#
# Total GULP energy -446321.113900 kJ/mol
# GULP energy per Si atom -12397.808719 kJ/mol
# Density = 2.317126 g / cm^3
# Si number density = 23.224115 Si / 1000 Ang^3
#
#
#
# Elastic Constant Matrix: (Units=GPa)
#
#
# Indices 1 2 3 4 5 6 
#
# 1 103.2647 1.1404 54.3193 0.0003 0.0000 0.0000
# 2 1.1404 42.2960 16.1581 0.0005 0.0001 0.0000
# 3 54.3193 16.1581 191.9803 0.0014 0.0001 0.0002
# 4 0.0003 0.0005 0.0014 27.2490 0.0001 0.0001
# 5 0.0000 0.0001 0.0001 0.0001 71.7455 0.0001
# 6 0.0000 0.0000 0.0002 0.0001 0.0001 7.2082
#
#
#
# Elastic Compliance Matrix: (Units=1/GPa)
#
#
# Indices 1 2 3 4 5 6 
#
# 1 0.011415 0.000957 -0.003310 0.000000 0.000000 0.000000
# 2 0.000957 0.024509 -0.002333 0.000000 0.000000 0.000000
# 3 -0.003310 -0.002333 0.006342 0.000000 0.000000 0.000000
# 4 0.000000 0.000000 0.000000 0.036699 0.000000 0.000000
# 5 0.000000 0.000000 0.000000 0.000000 0.013938 0.000000
# 6 0.000000 0.000000 0.000000 0.000000 0.000000 0.138731
#
#
# Mechanical properties :
#
#
# Convention : Reuss Voigt Hill
#
# Bulk Modulus (GPa) = 30.40330 53.41961 41.91146
# Shear Modulus (GPa) = 19.84365 38.96875 29.40620
#
# Velocity S-wave (km/s) = 2.92625 4.10071 3.56222
# Velocity P-wave (km/s) = 4.95348 6.74336 5.91650
#
# Compressibility (1/GPa) = 0.03289116
#
# Stress axis : x y z
#
# Youngs Moduli (GPa) = 87.60783 40.80213 157.68261
#
# Poissons Ratio (x) = -0.03904 0.52196
# Poissons Ratio (y) = -0.08382 0.36795
# Poissons Ratio (z) = 0.29000 0.09521
#
# Static dielectric constant tensor:
#      x y z
#    x 3.893040 0.000000 0.000000 
#    y 0.000000 4.051570 0.000000 
#    z 0.000000 0.000000 4.668960 
# 
# 
# High freq. dielectric constant tensor:
#      x y z
#    x 1.914910 0.000000 0.000000 
#    y 0.000000 1.908510 0.000000 
#    z 0.000000 0.000000 1.944670 
# 
# From -- ./inp_files/15516.got.cif
#   From: 2010.03.12/outbox.cif.g09.slc.cpg/sg73_8_cif.got.tgz:15516.got - 2010.04.16 15:25:48.
