data_PCOD8296793
_publ_section_title
;
Structure prediction by ZEFSAII (Michael W. Deem and Ramdas Pophale) SiO2 
 PCOD8296793
Probable space group: I B C A 
;
_chemical_formula_sum "Si O2"
_cell_formula_units_Z 112
_cell_length_a 14.352636
_cell_length_b 15.363142
_cell_length_c 24.101392
_cell_angle_alpha 90.000000
_cell_angle_beta 90.000000
_cell_angle_gamma 90.000000
_cell_volume 5314.395135
_symmetry_space_group_name_H-M "I B C A "
_symmetry_group_IT_number 73
_symmetry_cell_setting 'orthorhombic'
loop_
_space_group_symop_operation_xyz
x,y,z
-x,1/2-y,z
x,-y,1/2-z
1/2-x,y,-z
-x,-y,-z
x,1/2+y,-z
-x,y,1/2+z
1/2+x,-y,z
1/2+x,1/2+y,1/2+z
1/2-x,-y,1/2+z
1/2+x,1/2-y,-z
-x,1/2+y,1/2-z
1/2-x,1/2-y,1/2-z
1/2+x,y,1/2-z
1/2-x,1/2+y,z
x,1/2-y,1/2+z
loop_
_atom_site_type_symbol
_atom_site_label
_atom_site_fract_x
_atom_site_fract_y
_atom_site_fract_z
Si Si1 0.355110 0.602328 0.538927
Si Si2 0.687026 0.095439 0.115346
Si Si3 0.526387 0.340477 0.552199
Si Si4 0.850975 0.096018 0.635246
Si Si5 0.355238 0.084343 0.991080
Si Si6 0.038534 0.840474 0.858276
Si Si7 0.216228 0.266162 0.188519
O O1 0.247559 0.613089 0.558448
O O2 0.403336 0.676430 0.500619
O O3 0.364766 0.518353 0.500073
O O4 0.411571 0.598426 0.596510
O O5 0.578365 0.102927 0.099206
O O6 0.710856 0.168282 0.160252
O O7 0.700452 0.997858 0.141043
O O8 0.500000 0.250000 0.580323
O O9 0.427795 0.379479 0.534924
O O10 0.881004 0.110243 0.571304
O O11 0.783284 0.173344 0.656037
O O12 0.950826 0.105134 0.667556
O O13 0.250000 0.117971 0.000000
O O14 0.114521 0.812599 0.811625
O O15 0.000000 0.750000 0.884646
O O16 0.250000 0.250000 0.250000
#
# Coordination Sequence:
#
# PCOD8296793 Si02
#       7
#    16  16  16  16  16  16  16
#     4  11  19  37  59  92 136 177 219 258 324 411
#     4  11  24  41  66 101 133 180 230 281 345 418
#     4  12  25  34  55  94 142 182 220 267 324 414
#     4  11  21  42  69  99 136 179 227 273 339 430
#     4  12  23  36  59  93 141 186 213 259 330 410
#     4   9  19  37  67  97 125 179 221 268 342 417
#     4  10  25  46  72  96 129 174 241 307 348 396
#
# _framework density 21.074833999999999
#
# number of rings (size 3 to 8) (size 9 to 14) (size 15 to 20)
#    0.000    1.143    4.286    2.143    6.000    0.571 
#    0.000    2.143    0.000    8.571    0.000    0.000 
#    0.000    0.000    0.000    0.000    0.000    0.000 
#
# Total GULP energy -693770.773352 kJ/mol
# GULP energy per Si atom -12388.763810 kJ/mol
# Density = 2.102687 g / cm^3
# Si number density = 21.074834 Si / 1000 Ang^3
#
#
#
# Elastic Constant Matrix: (Units=GPa)
#
#
# Indices 1 2 3 4 5 6 
#
# 1 140.8903 49.9347 33.4302 0.0000 0.0000 0.0000
# 2 49.9347 103.8106 42.5864 0.0000 0.0000 0.0000
# 3 33.4302 42.5864 77.5457 0.0000 0.0000 0.0000
# 4 0.0000 0.0000 0.0000 27.0555 0.0000 0.0000
# 5 0.0000 0.0000 0.0000 0.0000 16.7777 0.0000
# 6 0.0000 0.0000 0.0000 0.0000 0.0000 32.6003
#
#
#
# Elastic Compliance Matrix: (Units=1/GPa)
#
#
# Indices 1 2 3 4 5 6 
#
# 1 0.008766 -0.003442 -0.001889 0.000000 0.000000 0.000000
# 2 -0.003442 0.013785 -0.006087 0.000000 0.000000 0.000000
# 3 -0.001889 -0.006087 0.017053 0.000000 0.000000 0.000000
# 4 0.000000 0.000000 0.000000 0.036961 0.000000 0.000000
# 5 0.000000 0.000000 0.000000 0.000000 0.059603 0.000000
# 6 0.000000 0.000000 0.000000 0.000000 0.000000 0.030675
#
#
# Mechanical properties :
#
#
# Convention : Reuss Voigt Hill
#
# Bulk Modulus (GPa) = 59.63378 63.79434 61.71406
# Shear Modulus (GPa) = 25.60597 28.37306 26.98952
#
# Velocity S-wave (km/s) = 3.48947 3.67318 3.58250
# Velocity P-wave (km/s) = 6.67779 6.95167 6.81611
#
# Compressibility (1/GPa) = 0.01676902
#
# Stress axis : x y z
#
# Youngs Moduli (GPa) = 114.08130 72.54021 58.64151
#
# Poissons Ratio (x) = 0.24965 0.11077
# Poissons Ratio (y) = 0.39262 0.35695
# Poissons Ratio (z) = 0.21549 0.44155
#
# Static dielectric constant tensor:
#      x y z
#    x 4.266090 0.000000 0.000000 
#    y 0.000000 4.053880 0.000000 
#    z 0.000000 0.000000 3.321160 
# 
# 
# High freq. dielectric constant tensor:
#      x y z
#    x 1.845170 0.000000 0.000000 
#    y 0.000000 1.826460 0.000000 
#    z 0.000000 0.000000 1.772630 
# 
# From -- ./inp_files/29553.got.cif
#   From: 2010.03.12/outbox.cif.g09.slc.cpg/sg73_15_cif.got.tgz:29553.got - 2010.04.16 15:25:48.
