data_PCOD8296148
_publ_section_title
;
Structure prediction by ZEFSAII (Michael W. Deem and Ramdas Pophale) SiO2 
 PCOD8296148
Probable space group: I B C A 
;
_chemical_formula_sum "Si O2"
_cell_formula_units_Z 72
_cell_length_a 25.486712
_cell_length_b 5.091839
_cell_length_c 25.121450
_cell_angle_alpha 90.000000
_cell_angle_beta 90.000000
_cell_angle_gamma 90.000000
_cell_volume 3260.116934
_symmetry_space_group_name_H-M "I B C A "
_symmetry_group_IT_number 73
_symmetry_cell_setting 'orthorhombic'
loop_
_space_group_symop_operation_xyz
x,y,z
-x,1/2-y,z
x,-y,1/2-z
1/2-x,y,-z
-x,-y,-z
x,1/2+y,-z
-x,y,1/2+z
1/2+x,-y,z
1/2+x,1/2+y,1/2+z
1/2-x,-y,1/2+z
1/2+x,1/2-y,-z
-x,1/2+y,1/2-z
1/2-x,1/2-y,1/2-z
1/2+x,y,1/2-z
1/2-x,1/2+y,z
x,1/2-y,1/2+z
loop_
_atom_site_type_symbol
_atom_site_label
_atom_site_fract_x
_atom_site_fract_y
_atom_site_fract_z
Si Si1 0.105851 0.529991 0.032738
Si Si2 0.714717 0.486034 0.419653
Si Si3 0.963247 0.500520 0.634735
Si Si4 0.783628 0.427692 0.804108
Si Si5 0.463954 0.500000 0.750000
O O1 0.168784 0.522449 0.037876
O O2 0.081231 0.493327 0.090474
O O3 0.087062 0.801111 0.006825
O O4 0.760087 0.700615 0.428147
O O5 0.688537 0.513374 0.360469
O O6 0.933318 0.508810 0.693041
O O7 0.000000 0.750000 0.626782
O O8 0.000000 0.250000 0.628890
O O9 0.817138 0.500000 0.750000
O O10 0.732816 0.622773 0.802040
O O11 0.500000 0.250000 0.752787
#
# Coordination Sequence:
#
# PCOD8296148 Si02
#       5
#    16  16  16  16   8
#     4  12  26  40  58  88 121 156 206 247 286 355
#     4  10  21  38  58  80 113 156 199 245 293 338
#     4  10  21  40  65  91 121 154 191 241 302 354
#     4   8  14  27  49  74 101 134 176 228 283 336
#     4   8  16  34  62  90 116 148 188 236 290 358
#
# _framework density 22.085099
#
# number of rings (size 3 to 8) (size 9 to 14) (size 15 to 20)
#    0.000    2.222    0.000    2.667    0.000    5.333 
#    2.000    0.000    0.000    0.000    0.000    0.000 
#    0.000    0.000    0.000    0.000    0.000    0.000 
#
# Total GULP energy -445976.756703 kJ/mol
# GULP energy per Si atom -12388.243242 kJ/mol
# Density = 2.203483 g / cm^3
# Si number density = 22.085099 Si / 1000 Ang^3
#
#
#
# Elastic Constant Matrix: (Units=GPa)
#
#
# Indices 1 2 3 4 5 6 
#
# 1 39.5557 10.1688 39.4230 0.0000 0.0000 0.0000
# 2 10.1688 124.9791 20.7635 0.0000 0.0000 0.0000
# 3 39.4230 20.7635 146.0300 0.0000 0.0000 0.0000
# 4 0.0000 0.0000 0.0000 32.1043 0.0000 0.0000
# 5 0.0000 0.0000 0.0000 0.0000 38.6822 0.0000
# 6 0.0000 0.0000 0.0000 0.0000 0.0000 12.8791
#
#
#
# Elastic Compliance Matrix: (Units=1/GPa)
#
#
# Indices 1 2 3 4 5 6 
#
# 1 0.034792 -0.001301 -0.009208 0.000000 0.000000 0.000000
# 2 -0.001301 0.008244 -0.000821 0.000000 0.000000 0.000000
# 3 -0.009208 -0.000821 0.009450 0.000000 0.000000 0.000000
# 4 0.000000 0.000000 0.000000 0.031149 0.000000 0.000000
# 5 0.000000 0.000000 0.000000 0.000000 0.025852 0.000000
# 6 0.000000 0.000000 0.000000 0.000000 0.000000 0.077645
#
#
# Mechanical properties :
#
#
# Convention : Reuss Voigt Hill
#
# Bulk Modulus (GPa) = 33.52694 50.14169 41.83432
# Shear Modulus (GPa) = 22.75493 32.74708 27.75101
#
# Velocity S-wave (km/s) = 3.21336 3.85485 3.54863
# Velocity P-wave (km/s) = 5.38343 6.52429 5.98112
#
# Compressibility (1/GPa) = 0.02982676
#
# Stress axis : x y z
#
# Youngs Moduli (GPa) = 28.74222 121.30652 105.81605
#
# Poissons Ratio (x) = 0.15783 0.97431
# Poissons Ratio (y) = 0.03740 0.08686
# Poissons Ratio (z) = 0.26465 0.09958
#
# Static dielectric constant tensor:
#      x y z
#    x 3.191270 0.000000 0.000000 
#    y 0.000000 4.073580 0.000000 
#    z 0.000000 0.000000 4.831610 
# 
# 
# High freq. dielectric constant tensor:
#      x y z
#    x 1.796490 0.000000 0.000000 
#    y 0.000000 1.890340 0.000000 
#    z 0.000000 0.000000 1.909090 
# 
# From -- ./inp_files/2141.got.cif
#   From: 2010.03.12/outbox.cif.g09.slc.cpg/sg73_2_cif.got.tgz:2141.got - 2010.04.16 15:25:48.
