data_PCOD8296347
_publ_section_title
;
Structure prediction by ZEFSAII (Michael W. Deem and Ramdas Pophale) SiO2 
 PCOD8296347
Probable space group: I B C A 
;
_chemical_formula_sum "Si O2"
_cell_formula_units_Z 88
_cell_length_a 8.699665
_cell_length_b 22.571145
_cell_length_c 20.849227
_cell_angle_alpha 90.000000
_cell_angle_beta 90.000000
_cell_angle_gamma 90.000000
_cell_volume 4093.983406
_symmetry_space_group_name_H-M "I B C A "
_symmetry_group_IT_number 73
_symmetry_cell_setting 'orthorhombic'
loop_
_space_group_symop_operation_xyz
x,y,z
-x,1/2-y,z
x,-y,1/2-z
1/2-x,y,-z
-x,-y,-z
x,1/2+y,-z
-x,y,1/2+z
1/2+x,-y,z
1/2+x,1/2+y,1/2+z
1/2-x,-y,1/2+z
1/2+x,1/2-y,-z
-x,1/2+y,1/2-z
1/2-x,1/2-y,1/2-z
1/2+x,y,1/2-z
1/2-x,1/2+y,z
x,1/2-y,1/2+z
loop_
_atom_site_type_symbol
_atom_site_label
_atom_site_fract_x
_atom_site_fract_y
_atom_site_fract_z
Si Si1 0.209660 0.637983 0.695539
Si Si2 0.714261 0.543854 0.568691
Si Si3 0.152271 0.129001 0.832823
Si Si4 0.750000 0.823634 0.500000
Si Si5 0.171271 0.252876 0.877300
Si Si6 0.368359 0.424023 0.915732
O O1 0.247001 0.625879 0.768830
O O2 0.261357 0.704173 0.672446
O O3 0.311029 0.592372 0.655052
O O4 0.028499 0.630469 0.681794
O O5 0.750000 0.574633 0.500000
O O6 0.820062 0.571512 0.624062
O O7 0.538079 0.550256 0.588058
O O8 0.752496 0.474599 0.560374
O O9 0.225904 0.184771 0.872676
O O10 0.669574 0.780209 0.448923
O O11 0.868730 0.866801 0.463091
O O12 0.000000 0.250000 0.850936
#
# Coordination Sequence:
#
# PCOD8296347 Si02
#       6
#    16  16  16   8  16  16
#     4  10  22  43  66  94 132 173 220 263 323 376
#     4  12  26  40  68  96 132 169 217 269 323 390
#     4  11  23  41  66  98 131 172 217 267 319 385
#     4  10  22  38  64  92 134 172 212 266 318 388
#     4   9  21  37  62  92 131 171 212 264 315 382
#     4  11  24  43  65  95 130 172 216 266 324 381
#
# _framework density 21.494958
#
# number of rings (size 3 to 8) (size 9 to 14) (size 15 to 20)
#    0.000    1.455    0.909    3.273    8.909    0.727 
#    0.000   10.000    0.000    0.000    0.000    0.000 
#    0.000    0.000    0.000    0.000    0.000    0.000 
#
# Total GULP energy -545356.265951 kJ/mol
# GULP energy per Si atom -12394.460590 kJ/mol
# Density = 2.144603 g / cm^3
# Si number density = 21.494958 Si / 1000 Ang^3
#
#
#
# Elastic Constant Matrix: (Units=GPa)
#
#
# Indices 1 2 3 4 5 6 
#
# 1 116.9035 43.9122 36.6960 0.0000 0.0000 0.0000
# 2 43.9122 101.9341 67.3894 0.0000 0.0000 0.0000
# 3 36.6960 67.3894 157.4517 0.0000 0.0000 0.0000
# 4 0.0000 0.0000 0.0000 29.9892 0.0000 0.0000
# 5 0.0000 0.0000 0.0000 0.0000 29.8418 0.0000
# 6 0.0000 0.0000 0.0000 0.0000 0.0000 26.2684
#
#
#
# Elastic Compliance Matrix: (Units=1/GPa)
#
#
# Indices 1 2 3 4 5 6 
#
# 1 0.010260 -0.003959 -0.000697 0.000000 0.000000 0.000000
# 2 -0.003959 0.015209 -0.005587 0.000000 0.000000 0.000000
# 3 -0.000697 -0.005587 0.008905 0.000000 0.000000 0.000000
# 4 0.000000 0.000000 0.000000 0.033345 0.000000 0.000000
# 5 0.000000 0.000000 0.000000 0.000000 0.033510 0.000000
# 6 0.000000 0.000000 0.000000 0.000000 0.000000 0.038069
#
#
# Mechanical properties :
#
#
# Convention : Reuss Voigt Hill
#
# Bulk Modulus (GPa) = 72.00239 74.69828 73.35033
# Shear Modulus (GPa) = 30.41115 32.43930 31.42522
#
# Velocity S-wave (km/s) = 3.76547 3.88900 3.82773
# Velocity P-wave (km/s) = 7.24397 7.41571 7.33034
#
# Compressibility (1/GPa) = 0.01388843
#
# Stress axis : x y z
#
# Youngs Moduli (GPa) = 97.46605 65.74859 112.30037
#
# Poissons Ratio (x) = 0.26032 0.07823
# Poissons Ratio (y) = 0.38590 0.62741
# Poissons Ratio (z) = 0.06789 0.36733
#
# Static dielectric constant tensor:
#      x y z
#    x 3.591990 0.000000 0.000000 
#    y 0.000000 4.236010 0.000000 
#    z 0.000000 0.000000 3.891590 
# 
# 
# High freq. dielectric constant tensor:
#      x y z
#    x 1.828600 0.000000 0.000000 
#    y 0.000000 1.852910 0.000000 
#    z 0.000000 0.000000 1.852430 
# 
# From -- ./inp_files/7062.got.cif
#   From: 2010.03.12/outbox.cif.g09.slc.cpg/sg73_4_cif.got.tgz:7062.got - 2010.04.16 15:25:48.
