data_PCOD8296871
_publ_section_title
;
Structure prediction by ZEFSAII (Michael W. Deem and Ramdas Pophale) SiO2 
 PCOD8296871
Probable space group: I B C A 
;
_chemical_formula_sum "Si O2"
_cell_formula_units_Z 88
_cell_length_a 13.556519
_cell_length_b 18.652328
_cell_length_c 16.095699
_cell_angle_alpha 90.000000
_cell_angle_beta 90.000000
_cell_angle_gamma 90.000000
_cell_volume 4069.968733
_symmetry_space_group_name_H-M "I B C A "
_symmetry_group_IT_number 73
_symmetry_cell_setting 'orthorhombic'
loop_
_space_group_symop_operation_xyz
x,y,z
-x,1/2-y,z
x,-y,1/2-z
1/2-x,y,-z
-x,-y,-z
x,1/2+y,-z
-x,y,1/2+z
1/2+x,-y,z
1/2+x,1/2+y,1/2+z
1/2-x,-y,1/2+z
1/2+x,1/2-y,-z
-x,1/2+y,1/2-z
1/2-x,1/2-y,1/2-z
1/2+x,y,1/2-z
1/2-x,1/2+y,z
x,1/2-y,1/2+z
loop_
_atom_site_type_symbol
_atom_site_label
_atom_site_fract_x
_atom_site_fract_y
_atom_site_fract_z
Si Si1 0.599144 0.595342 0.389743
Si Si2 0.244989 0.801070 0.669269
Si Si3 0.250000 0.983759 0.500000
Si Si4 0.750000 0.279306 0.500000
Si Si5 0.320805 0.922723 0.766739
Si Si6 0.110367 0.605662 0.561611
Si Si7 0.367294 0.000000 0.250000
O O1 0.632591 0.669912 0.346124
O O2 0.698823 0.567017 0.432883
O O3 0.507879 0.604179 0.453161
O O4 0.565239 0.537021 0.320127
O O5 0.250000 0.750000 0.750000
O O6 0.277258 0.765247 0.582423
O O7 0.318375 0.868714 0.687751
O O8 0.162651 0.031200 0.460921
O O9 0.846632 0.328234 0.489409
O O10 0.372937 0.879840 0.840763
O O11 0.374134 0.000000 0.750000
O O12 0.205651 0.939700 0.791140
#
# Coordination Sequence:
#
# PCOD8296871 Si02
#       7
#    16  16   8   8  16  16   8
#     4  11  23  38  69  99 138 182 239 287 354 430
#     4  11  22  43  70  91 135 194 224 281 366 417
#     4  11  21  44  64 100 144 180 220 298 368 418
#     4  11  25  42  70  92 150 184 230 298 348 420
#     4   9  18  39  66  98 129 172 229 285 358 408
#     4  11  22  38  68 101 134 181 235 292 350 424
#     4   8  18  36  62  94 130 172 214 284 354 404
#
# _framework density 21.621787999999999
#
# number of rings (size 3 to 8) (size 9 to 14) (size 15 to 20)
#    0.545    1.091    3.636    1.091    1.273    0.727 
#    0.000    0.000   12.000    0.000    0.000    0.000 
#    0.000    0.000    0.000    0.000    0.000    0.000 
#
# Total GULP energy -545112.664084 kJ/mol
# GULP energy per Si atom -12388.924184 kJ/mol
# Density = 2.157258 g / cm^3
# Si number density = 21.621788 Si / 1000 Ang^3
#
#
#
# Elastic Constant Matrix: (Units=GPa)
#
#
# Indices 1 2 3 4 5 6 
#
# 1 97.2901 51.4252 34.6800 0.0000 0.0000 0.0000
# 2 51.4252 130.4754 68.1259 0.0000 0.0000 0.0000
# 3 34.6800 68.1259 127.9145 -0.0001 0.0000 0.0000
# 4 0.0000 0.0000 -0.0001 48.5120 0.0000 0.0000
# 5 0.0000 0.0000 0.0000 0.0000 31.0149 0.0000
# 6 0.0000 0.0000 0.0000 0.0000 0.0000 16.4619
#
#
#
# Elastic Compliance Matrix: (Units=1/GPa)
#
#
# Indices 1 2 3 4 5 6 
#
# 1 0.013096 -0.004582 -0.001110 0.000000 0.000000 0.000000
# 2 -0.004582 0.012220 -0.005266 0.000000 0.000000 0.000000
# 3 -0.001110 -0.005266 0.010923 0.000000 0.000000 0.000000
# 4 0.000000 0.000000 0.000000 0.020613 0.000000 0.000000
# 5 0.000000 0.000000 0.000000 0.000000 0.032243 0.000000
# 6 0.000000 0.000000 0.000000 0.000000 0.000000 0.060746
#
#
# Mechanical properties :
#
#
# Convention : Reuss Voigt Hill
#
# Bulk Modulus (GPa) = 69.81793 73.79358 71.80576
# Shear Modulus (GPa) = 28.32346 32.62769 30.47557
#
# Velocity S-wave (km/s) = 3.62325 3.88882 3.75838
# Velocity P-wave (km/s) = 7.06148 7.37342 7.21914
#
# Compressibility (1/GPa) = 0.01432297
#
# Stress axis : x y z
#
# Youngs Moduli (GPa) = 76.35772 81.83518 91.54766
#
# Poissons Ratio (x) = 0.37497 0.10165
# Poissons Ratio (y) = 0.34987 0.48207
# Poissons Ratio (z) = 0.08478 0.43093
#
# Static dielectric constant tensor:
#      x y z
#    x 3.486840 0.000000 0.000000 
#    y 0.000000 4.094310 0.000000 
#    z 0.000000 0.000000 3.924020 
# 
# 
# High freq. dielectric constant tensor:
#      x y z
#    x 1.813780 0.000000 0.000000 
#    y 0.000000 1.855510 0.000000 
#    z 0.000000 0.000000 1.846950 
# 
# From -- ./inp_files/17000.got.cif
#   From: 2010.03.12/outbox.cif.g09.slc.cpg/sg73_9_cif.got.tgz:17000.got - 2010.04.16 15:25:48.
