data_PCOD8296652
_publ_section_title
;
Structure prediction by ZEFSAII (Michael W. Deem and Ramdas Pophale) SiO2 
 PCOD8296652
Probable space group: I B C A 
;
_chemical_formula_sum "Si O2"
_cell_formula_units_Z 88
_cell_length_a 14.217406
_cell_length_b 13.359563
_cell_length_c 23.788204
_cell_angle_alpha 90.000000
_cell_angle_beta 90.000000
_cell_angle_gamma 90.000000
_cell_volume 4518.291769
_symmetry_space_group_name_H-M "I B C A "
_symmetry_group_IT_number 73
_symmetry_cell_setting 'orthorhombic'
loop_
_space_group_symop_operation_xyz
x,y,z
-x,1/2-y,z
x,-y,1/2-z
1/2-x,y,-z
-x,-y,-z
x,1/2+y,-z
-x,y,1/2+z
1/2+x,-y,z
1/2+x,1/2+y,1/2+z
1/2-x,-y,1/2+z
1/2+x,1/2-y,-z
-x,1/2+y,1/2-z
1/2-x,1/2-y,1/2-z
1/2+x,y,1/2-z
1/2-x,1/2+y,z
x,1/2-y,1/2+z
loop_
_atom_site_type_symbol
_atom_site_label
_atom_site_fract_x
_atom_site_fract_y
_atom_site_fract_z
Si Si1 0.833952 0.878812 0.113429
Si Si2 0.586179 0.075256 0.007964
Si Si3 0.500000 0.750000 0.670519
Si Si4 0.750000 0.944292 0.000000
Si Si5 0.202408 0.261377 0.690620
Si Si6 0.124576 0.602820 0.383346
Si Si7 0.000000 0.750000 0.581345
O O1 0.799770 0.877546 0.048206
O O2 0.750465 0.850174 0.155660
O O3 0.921754 0.803117 0.119993
O O4 0.870919 0.986807 0.133076
O O5 0.554758 0.168504 0.044478
O O6 0.672686 0.011274 0.034018
O O7 0.631222 0.116036 0.950083
O O8 0.500000 0.000000 0.000000
O O9 0.592411 0.716613 0.705504
O O10 0.475570 0.652006 0.633205
O O11 0.250000 0.250000 0.750000
O O12 0.207311 0.162445 0.650369
#
# Coordination Sequence:
#
# PCOD8296652 Si02
#       7
#    16  16   8   8  16  16   8
#     4  11  25  40  65 102 138 176 221 286 338 408
#     4  11  22  39  61  97 137 173 223 272 333 419
#     4   8  21  41  74  88 126 178 218 278 340 408
#     4  10  24  38  62  94 138 174 218 264 352 412
#     4  10  24  44  71  95 128 176 238 280 336 405
#     4   9  21  43  63  97 130 173 222 273 338 410
#     4  12  25  37  64  98 140 178 222 284 330 416
#
# _framework density 19.476388
#
# number of rings (size 3 to 8) (size 9 to 14) (size 15 to 20)
#    1.091    0.727    3.636    0.545   10.182    1.455 
#    0.000    0.000    4.000    0.000    0.000    0.000 
#    0.000    0.000    0.000    0.000    0.000    0.000 
#
# Total GULP energy -545083.861175 kJ/mol
# GULP energy per Si atom -12388.269572 kJ/mol
# Density = 1.943206 g / cm^3
# Si number density = 19.476388 Si / 1000 Ang^3
#
#
#
# Elastic Constant Matrix: (Units=GPa)
#
#
# Indices 1 2 3 4 5 6 
#
# 1 130.1937 47.2255 32.0503 0.0000 0.0000 0.0000
# 2 47.2255 111.0541 28.4675 0.0000 0.0000 0.0000
# 3 32.0503 28.4675 83.5322 0.0000 0.0000 0.0000
# 4 0.0000 0.0000 0.0000 14.6305 0.0000 0.0000
# 5 0.0000 0.0000 0.0000 0.0000 28.2921 0.0000
# 6 0.0000 0.0000 0.0000 0.0000 0.0000 51.2379
#
#
#
# Elastic Compliance Matrix: (Units=1/GPa)
#
#
# Indices 1 2 3 4 5 6 
#
# 1 0.009533 -0.003415 -0.002494 0.000000 0.000000 0.000000
# 2 -0.003415 0.011090 -0.002469 0.000000 0.000000 0.000000
# 3 -0.002494 -0.002469 0.013770 0.000000 0.000000 0.000000
# 4 0.000000 0.000000 0.000000 0.068350 0.000000 0.000000
# 5 0.000000 0.000000 0.000000 0.000000 0.035346 0.000000
# 6 0.000000 0.000000 0.000000 0.000000 0.000000 0.019517
#
#
# Mechanical properties :
#
#
# Convention : Reuss Voigt Hill
#
# Bulk Modulus (GPa) = 56.69901 60.02961 58.36431
# Shear Modulus (GPa) = 27.74065 33.30121 30.52093
#
# Velocity S-wave (km/s) = 3.77811 4.13949 3.96292
# Velocity P-wave (km/s) = 6.94313 7.33047 7.13943
#
# Compressibility (1/GPa) = 0.01763699
#
# Stress axis : x y z
#
# Youngs Moduli (GPa) = 104.89332 90.17405 72.62231
#
# Poissons Ratio (x) = 0.30792 0.18113
# Poissons Ratio (y) = 0.35818 0.17931
# Poissons Ratio (z) = 0.26162 0.22265
#
# Static dielectric constant tensor:
#      x y z
#    x 3.865100 0.000000 0.000000 
#    y 0.000000 3.441910 0.000000 
#    z 0.000000 0.000000 3.218570 
# 
# 
# High freq. dielectric constant tensor:
#      x y z
#    x 1.772480 0.000000 0.000000 
#    y 0.000000 1.759850 0.000000 
#    z 0.000000 0.000000 1.723050 
# 
# From -- ./inp_files/29475.got.cif
#   From: 2010.03.12/outbox.cif.g09.slc.cpg/sg73_15_cif.got.tgz:29475.got - 2010.04.16 15:25:48.
