data_PCOD8296037
_publ_section_title
;
Structure prediction by ZEFSAII (Michael W. Deem and Ramdas Pophale) SiO2 
 PCOD8296037
Probable space group: I B C A 
;
_chemical_formula_sum "Si O2"
_cell_formula_units_Z 96
_cell_length_a 24.064992
_cell_length_b 13.070462
_cell_length_c 15.018839
_cell_angle_alpha 90.000000
_cell_angle_beta 90.000000
_cell_angle_gamma 90.000000
_cell_volume 4724.034082
_symmetry_space_group_name_H-M "I B C A "
_symmetry_group_IT_number 73
_symmetry_cell_setting 'orthorhombic'
loop_
_space_group_symop_operation_xyz
x,y,z
-x,1/2-y,z
x,-y,1/2-z
1/2-x,y,-z
-x,-y,-z
x,1/2+y,-z
-x,y,1/2+z
1/2+x,-y,z
1/2+x,1/2+y,1/2+z
1/2-x,-y,1/2+z
1/2+x,1/2-y,-z
-x,1/2+y,1/2-z
1/2-x,1/2-y,1/2-z
1/2+x,y,1/2-z
1/2-x,1/2+y,z
x,1/2-y,1/2+z
loop_
_atom_site_type_symbol
_atom_site_label
_atom_site_fract_x
_atom_site_fract_y
_atom_site_fract_z
Si Si1 0.631084 0.183438 0.597640
Si Si2 0.899869 0.972641 0.345307
Si Si3 0.099536 0.844361 0.234158
Si Si4 0.306380 0.500000 0.250000
Si Si5 0.494023 0.500000 0.250000
Si Si6 0.862729 0.755936 0.404698
Si Si7 0.746158 0.132727 0.399093
O O1 0.597599 0.243009 0.674063
O O2 0.617343 0.236394 0.504484
O O3 0.695662 0.184826 0.625759
O O4 0.609859 0.067343 0.588554
O O5 0.869483 0.875507 0.386389
O O6 0.871383 0.000000 0.250000
O O7 0.966447 0.958148 0.330182
O O8 0.154117 0.910950 0.210411
O O9 0.099934 0.810975 0.337475
O O10 0.043992 0.907904 0.214363
O O11 0.268317 0.458981 0.330965
O O12 0.798631 0.723794 0.393097
O O13 0.750000 0.087727 0.500000
#
# Coordination Sequence:
#
# PCOD8296037 Si02
#       7
#    16  16  16   8   8  16  16
#     4  11  23  38  64  93 125 164 207 249 304 370
#     4  10  22  41  64  89 117 167 204 255 306 361
#     4  10  20  41  59  89 120 164 206 257 310 357
#     4   9  20  33  62  86 120 165 208 245 296 372
#     4   9  22  41  68  82 122 161 202 263 318 354
#     4  10  22  41  62  90 131 161 203 254 304 368
#     4   9  21  38  57  92 129 167 199 248 305 359
#
# _framework density 20.321615000000001
#
# number of rings (size 3 to 8) (size 9 to 14) (size 15 to 20)
#    0.500    1.667    1.667    0.000    1.167   12.000 
#    0.000   10.000    0.000    0.000    0.000    0.000 
#    0.000    0.000    0.000    0.000    0.000    0.000 
#
# Total GULP energy -595154.333825 kJ/mol
# GULP energy per Si atom -12399.048621 kJ/mol
# Density = 2.027536 g / cm^3
# Si number density = 20.321615 Si / 1000 Ang^3
#
#
#
# Elastic Constant Matrix: (Units=GPa)
#
#
# Indices 1 2 3 4 5 6 
#
# 1 96.2020 48.7304 52.0253 0.0000 0.0000 0.0000
# 2 48.7304 145.6115 64.4778 0.0000 0.0000 0.0000
# 3 52.0253 64.4778 119.8589 0.0000 0.0000 0.0000
# 4 0.0000 0.0000 0.0000 42.8016 0.0000 0.0000
# 5 0.0000 0.0000 0.0000 0.0000 11.5105 0.0000
# 6 0.0000 0.0000 0.0000 0.0000 0.0000 29.8904
#
#
#
# Elastic Compliance Matrix: (Units=1/GPa)
#
#
# Indices 1 2 3 4 5 6 
#
# 1 0.014339 -0.002681 -0.004781 0.000000 0.000000 0.000000
# 2 -0.002681 0.009516 -0.003955 0.000000 0.000000 0.000000
# 3 -0.004781 -0.003955 0.012546 0.000000 0.000000 0.000000
# 4 0.000000 0.000000 0.000000 0.023364 0.000000 0.000000
# 5 0.000000 0.000000 0.000000 0.000000 0.086877 0.000000
# 6 0.000000 0.000000 0.000000 0.000000 0.000000 0.033456
#
#
# Mechanical properties :
#
#
# Convention : Reuss Voigt Hill
#
# Bulk Modulus (GPa) = 73.71856 76.90439 75.31148
# Shear Modulus (GPa) = 24.10148 29.93643 27.01895
#
# Velocity S-wave (km/s) = 3.44757 3.84230 3.65028
# Velocity P-wave (km/s) = 7.22512 7.59014 7.40988
#
# Compressibility (1/GPa) = 0.01356510
#
# Stress axis : x y z
#
# Youngs Moduli (GPa) = 69.74110 105.08106 79.70440
#
# Poissons Ratio (x) = 0.28176 0.38109
# Poissons Ratio (y) = 0.18700 0.31527
# Poissons Ratio (z) = 0.33346 0.41565
#
# Static dielectric constant tensor:
#      x y z
#    x 3.614370 0.000000 0.000000 
#    y 0.000000 3.600620 0.000000 
#    z 0.000000 0.000000 3.629680 
# 
# 
# High freq. dielectric constant tensor:
#      x y z
#    x 1.785640 0.000000 0.000000 
#    y 0.000000 1.797020 0.000000 
#    z 0.000000 0.000000 1.784720 
# 
# From -- ./inp_files/23881.got.cif
#   From: 2010.03.12/outbox.cif.g09.slc.cpg/sg73_12_cif.got.tgz:23881.got - 2010.04.16 15:25:48.
