data_PCOD8296115
_publ_section_title
;
Structure prediction by ZEFSAII (Michael W. Deem and Ramdas Pophale) SiO2 
 PCOD8296115
Probable space group: I B C A 
;
_chemical_formula_sum "Si O2"
_cell_formula_units_Z 96
_cell_length_a 19.468836
_cell_length_b 9.317804
_cell_length_c 25.155921
_cell_angle_alpha 90.000000
_cell_angle_beta 90.000000
_cell_angle_gamma 90.000000
_cell_volume 4563.455078
_symmetry_space_group_name_H-M "I B C A "
_symmetry_group_IT_number 73
_symmetry_cell_setting 'orthorhombic'
loop_
_space_group_symop_operation_xyz
x,y,z
-x,1/2-y,z
x,-y,1/2-z
1/2-x,y,-z
-x,-y,-z
x,1/2+y,-z
-x,y,1/2+z
1/2+x,-y,z
1/2+x,1/2+y,1/2+z
1/2-x,-y,1/2+z
1/2+x,1/2-y,-z
-x,1/2+y,1/2-z
1/2-x,1/2-y,1/2-z
1/2+x,y,1/2-z
1/2-x,1/2+y,z
x,1/2-y,1/2+z
loop_
_atom_site_type_symbol
_atom_site_label
_atom_site_fract_x
_atom_site_fract_y
_atom_site_fract_z
Si Si1 0.387838 0.977959 0.003243
Si Si2 0.228815 0.284976 0.852818
Si Si3 0.949966 0.542779 0.612281
Si Si4 0.164417 0.998612 0.809896
Si Si5 0.909667 0.136478 0.895052
Si Si6 0.694582 0.729996 0.541586
O O1 0.324553 0.896889 0.032261
O O2 0.442909 0.003630 0.049888
O O3 0.415450 0.867642 0.959090
O O4 0.368523 0.120912 0.969426
O O5 0.196366 0.153998 0.820927
O O6 0.276834 0.378393 0.814758
O O7 0.168007 0.391715 0.874654
O O8 0.273436 0.216206 0.900184
O O9 0.899232 0.453876 0.651075
O O10 0.927925 0.704667 0.622381
O O11 0.031208 0.527391 0.627777
O O12 0.135979 0.000000 0.750000
O O13 0.750000 0.676653 0.500000
#
# Coordination Sequence:
#
# PCOD8296115 Si02
#       6
#    16  16  16  16  16  16
#     4  12  20  36  56  88 123 161 196 232 287 367
#     4  11  22  39  61  90 121 156 200 255 302 362
#     4  10  21  39  57  86 120 161 199 242 293 364
#     4  11  23  41  65  87 114 154 206 260 307 348
#     4  10  21  36  59  85 121 161 194 232 301 365
#     4  12  22  32  58  89 126 157 193 237 297 358
#
# _framework density 21.036691000000001
#
# number of rings (size 3 to 8) (size 9 to 14) (size 15 to 20)
#    0.000    1.000    5.000    3.500    0.000    0.000 
#    0.000    0.833    0.000    8.000    0.000    0.000 
#    0.000    0.000    0.000    0.000    0.000    0.000 
#
# Total GULP energy -594806.388103 kJ/mol
# GULP energy per Si atom -12391.799752 kJ/mol
# Density = 2.098881 g / cm^3
# Si number density = 21.036691 Si / 1000 Ang^3
#
#
#
# Elastic Constant Matrix: (Units=GPa)
#
#
# Indices 1 2 3 4 5 6 
#
# 1 64.1916 17.7254 23.3971 0.0000 0.0000 0.0000
# 2 17.7254 51.9030 11.8406 0.0000 0.0000 0.0000
# 3 23.3971 11.8406 102.4830 0.0000 0.0000 0.0000
# 4 0.0000 0.0000 0.0000 43.0522 0.0000 0.0000
# 5 0.0000 0.0000 0.0000 0.0000 13.4310 0.0000
# 6 0.0000 0.0000 0.0000 0.0000 0.0000 30.1272
#
#
#
# Elastic Compliance Matrix: (Units=1/GPa)
#
#
# Indices 1 2 3 4 5 6 
#
# 1 0.018388 -0.005466 -0.003566 0.000000 0.000000 0.000000
# 2 -0.005466 0.021413 -0.001226 0.000000 0.000000 0.000000
# 3 -0.003566 -0.001226 0.010714 0.000000 0.000000 0.000000
# 4 0.000000 0.000000 0.000000 0.023228 0.000000 0.000000
# 5 0.000000 0.000000 0.000000 0.000000 0.074455 0.000000
# 6 0.000000 0.000000 0.000000 0.000000 0.000000 0.033193
#
#
# Mechanical properties :
#
#
# Convention : Reuss Voigt Hill
#
# Bulk Modulus (GPa) = 33.33630 36.05599 34.69614
# Shear Modulus (GPa) = 23.59544 28.36303 25.97923
#
# Velocity S-wave (km/s) = 3.35271 3.67586 3.51800
# Velocity P-wave (km/s) = 5.55596 5.93234 5.74723
#
# Compressibility (1/GPa) = 0.02999733
#
# Stress axis : x y z
#
# Youngs Moduli (GPa) = 54.38451 46.70043 93.33924
#
# Poissons Ratio (x) = 0.25526 0.33289
# Poissons Ratio (y) = 0.29726 0.11445
# Poissons Ratio (z) = 0.19396 0.05726
#
# Static dielectric constant tensor:
#      x y z
#    x 4.236050 0.000000 0.000000 
#    y 0.000000 3.643140 0.000000 
#    z 0.000000 0.000000 3.619210 
# 
# 
# High freq. dielectric constant tensor:
#      x y z
#    x 1.828520 0.000000 0.000000 
#    y 0.000000 1.809950 0.000000 
#    z 0.000000 0.000000 1.798680 
# 
# From -- ./inp_files/26898.got.cif
#   From: 2010.03.12/outbox.cif.g09.slc.cpg/sg73_14_cif.got.tgz:26898.got - 2010.04.16 15:25:48.
