data_PCOD8296464
_publ_section_title
;
Structure prediction by ZEFSAII (Michael W. Deem and Ramdas Pophale) SiO2 
 PCOD8296464
Probable space group: I B C A 
;
_chemical_formula_sum "Si O2"
_cell_formula_units_Z 112
_cell_length_a 31.411410
_cell_length_b 14.998110
_cell_length_c 10.856992
_cell_angle_alpha 90.000000
_cell_angle_beta 90.000000
_cell_angle_gamma 90.000000
_cell_volume 5114.856853
_symmetry_space_group_name_H-M "I B C A "
_symmetry_group_IT_number 73
_symmetry_cell_setting 'orthorhombic'
loop_
_space_group_symop_operation_xyz
x,y,z
-x,1/2-y,z
x,-y,1/2-z
1/2-x,y,-z
-x,-y,-z
x,1/2+y,-z
-x,y,1/2+z
1/2+x,-y,z
1/2+x,1/2+y,1/2+z
1/2-x,-y,1/2+z
1/2+x,1/2-y,-z
-x,1/2+y,1/2-z
1/2-x,1/2-y,1/2-z
1/2+x,y,1/2-z
1/2-x,1/2+y,z
x,1/2-y,1/2+z
loop_
_atom_site_type_symbol
_atom_site_label
_atom_site_fract_x
_atom_site_fract_y
_atom_site_fract_z
Si Si1 0.325897 0.726366 0.403040
Si Si2 0.893710 0.570381 0.453534
Si Si3 0.543214 0.000000 0.250000
Si Si4 0.811486 0.094661 0.690856
Si Si5 0.393788 0.617854 0.550435
Si Si6 0.035736 0.822503 0.127913
Si Si7 0.250000 0.841373 0.500000
Si Si8 0.401883 0.820921 0.312911
O O1 0.305809 0.658030 0.307113
O O2 0.356613 0.684359 0.507548
O O3 0.287955 0.776487 0.467039
O O4 0.352542 0.796371 0.323543
O O5 0.928418 0.547385 0.352164
O O6 0.852889 0.619580 0.392739
O O7 0.877290 0.479462 0.514628
O O8 0.915864 0.630654 0.559488
O O9 0.517265 0.086202 0.194607
O O10 0.767873 0.096916 0.610723
O O11 0.819821 0.000000 0.750000
O O12 0.439271 0.643607 0.491581
O O13 0.403952 0.616125 0.694940
O O14 0.069746 0.768079 0.211751
O O15 0.000000 0.750000 0.092384
#
# Coordination Sequence:
#
# PCOD8296464 Si02
#       8
#    16  16   8  16  16  16   8  16
#     4  11  23  41  67  90 129 175 220 276 338 410
#     4  11  20  43  68  97 131 175 229 275 334 409
#     4  10  22  44  74 100 136 184 230 272 344 424
#     4  12  23  44  64  91 132 174 219 278 345 411
#     4  10  22  42  68  96 131 178 227 276 340 406
#     4  10  24  44  69 103 138 183 223 283 343 409
#     4  12  26  42  60 102 128 166 228 280 342 412
#     4  11  23  39  69  99 132 174 229 278 333 405
#
# _framework density 21.896995
#
# number of rings (size 3 to 8) (size 9 to 14) (size 15 to 20)
#    0.000    1.143    3.571    3.429    6.000    1.143 
#    5.143    1.429    0.000    0.000    0.000    0.000 
#    0.000    0.000    0.000    0.000    0.000    0.000 
#
# Total GULP energy -694078.428859 kJ/mol
# GULP energy per Si atom -12394.257658 kJ/mol
# Density = 2.184716 g / cm^3
# Si number density = 21.896995 Si / 1000 Ang^3
#
#
#
# Elastic Constant Matrix: (Units=GPa)
#
#
# Indices 1 2 3 4 5 6 
#
# 1 74.3163 20.6497 9.0272 0.0000 0.0000 0.0000
# 2 20.6497 88.2729 20.6379 0.0000 0.0000 0.0000
# 3 9.0272 20.6379 104.9909 0.0000 0.0000 0.0000
# 4 0.0000 0.0000 0.0000 27.2833 0.0000 0.0000
# 5 0.0000 0.0000 0.0000 0.0000 11.8953 0.0000
# 6 0.0000 0.0000 0.0000 0.0000 0.0000 32.7678
#
#
#
# Elastic Compliance Matrix: (Units=1/GPa)
#
#
# Indices 1 2 3 4 5 6 
#
# 1 0.014428 -0.003234 -0.000605 0.000000 0.000000 0.000000
# 2 -0.003234 0.012599 -0.002199 0.000000 0.000000 0.000000
# 3 -0.000605 -0.002199 0.010009 0.000000 0.000000 0.000000
# 4 0.000000 0.000000 0.000000 0.036652 0.000000 0.000000
# 5 0.000000 0.000000 0.000000 0.000000 0.084067 0.000000
# 6 0.000000 0.000000 0.000000 0.000000 0.000000 0.030518
#
#
# Mechanical properties :
#
#
# Convention : Reuss Voigt Hill
#
# Bulk Modulus (GPa) = 40.06166 40.91218 40.48692
# Shear Modulus (GPa) = 23.96159 28.87365 26.41762
#
# Velocity S-wave (km/s) = 3.31159 3.63521 3.47717
# Velocity P-wave (km/s) = 5.74085 6.02861 5.88649
#
# Compressibility (1/GPa) = 0.02496152
#
# Stress axis : x y z
#
# Youngs Moduli (GPa) = 69.30970 79.37149 99.91207
#
# Poissons Ratio (x) = 0.25667 0.06044
# Poissons Ratio (y) = 0.22413 0.21966
# Poissons Ratio (z) = 0.04192 0.17450
#
# Static dielectric constant tensor:
#      x y z
#    x 3.877420 0.000000 0.000000 
#    y 0.000000 4.500650 0.000000 
#    z 0.000000 0.000000 4.188830 
# 
# 
# High freq. dielectric constant tensor:
#      x y z
#    x 1.837800 0.000000 0.000000 
#    y 0.000000 1.873630 0.000000 
#    z 0.000000 0.000000 1.866570 
# 
# From -- ./inp_files/14860.got.cif
#   From: 2010.03.12/outbox.cif.g09.slc.cpg/sg73_8_cif.got.tgz:14860.got - 2010.04.16 15:25:48.
