data_PCOD8296841
_publ_section_title
;
Structure prediction by ZEFSAII (Michael W. Deem and Ramdas Pophale) SiO2 
 PCOD8296841
Probable space group: I B C A 
;
_chemical_formula_sum "Si O2"
_cell_formula_units_Z 80
_cell_length_a 17.611930
_cell_length_b 20.883255
_cell_length_c 11.033387
_cell_angle_alpha 90.000000
_cell_angle_beta 90.000000
_cell_angle_gamma 90.000000
_cell_volume 4058.018230
_symmetry_space_group_name_H-M "I B C A "
_symmetry_group_IT_number 73
_symmetry_cell_setting 'orthorhombic'
loop_
_space_group_symop_operation_xyz
x,y,z
-x,1/2-y,z
x,-y,1/2-z
1/2-x,y,-z
-x,-y,-z
x,1/2+y,-z
-x,y,1/2+z
1/2+x,-y,z
1/2+x,1/2+y,1/2+z
1/2-x,-y,1/2+z
1/2+x,1/2-y,-z
-x,1/2+y,1/2-z
1/2-x,1/2-y,1/2-z
1/2+x,y,1/2-z
1/2-x,1/2+y,z
x,1/2-y,1/2+z
loop_
_atom_site_type_symbol
_atom_site_label
_atom_site_fract_x
_atom_site_fract_y
_atom_site_fract_z
Si Si1 0.502908 0.540702 0.375160
Si Si2 0.250000 0.525096 0.000000
Si Si3 0.851320 0.123293 0.385567
Si Si4 0.750000 0.779164 0.000000
Si Si5 0.706661 0.337475 0.354916
Si Si6 0.842036 0.911969 0.588983
O O1 0.519005 0.500000 0.250000
O O2 0.500000 0.500000 0.500000
O O3 0.565212 0.594992 0.400987
O O4 0.425841 0.581330 0.356302
O O5 0.290552 0.566050 0.895291
O O6 0.185494 0.483972 0.934556
O O7 0.825782 0.177741 0.481383
O O8 0.849504 0.158529 0.256727
O O9 0.770900 0.735607 0.884247
O O10 0.784175 0.376198 0.319988
O O11 0.662072 0.370600 0.465753
#
# Coordination Sequence:
#
# PCOD8296841 Si02
#       6
#    16   8  16   8  16  16
#     4  12  25  38  56  93 133 161 194 249 316 380
#     4   9  19  32  56  88 115 161 196 240 302 371
#     4  11  21  35  62  85 122 158 204 250 310 361
#     4   9  21  40  60  88 113 153 222 256 292 351
#     4   9  20  39  63  84 114 162 211 254 296 353
#     4   9  20  36  56  85 127 153 197 247 304 367
#
# _framework density 19.714055999999999
#
# number of rings (size 3 to 8) (size 9 to 14) (size 15 to 20)
#    0.000    2.400    2.000    1.800    5.600    0.000 
#    0.000    4.000    0.000    4.800    0.000    0.000 
#    0.000    0.000    0.000    0.000    0.000    0.000 
#
# Total GULP energy -495539.418079 kJ/mol
# GULP energy per Si atom -12388.485452 kJ/mol
# Density = 1.966919 g / cm^3
# Si number density = 19.714056 Si / 1000 Ang^3
#
#
#
# Elastic Constant Matrix: (Units=GPa)
#
#
# Indices 1 2 3 4 5 6 
#
# 1 121.7048 56.5682 31.5955 0.0000 0.0000 0.0000
# 2 56.5682 124.0683 30.8308 0.0000 0.0000 0.0000
# 3 31.5955 30.8308 71.5584 0.0000 0.0000 0.0000
# 4 0.0000 0.0000 0.0000 5.9309 0.0000 0.0000
# 5 0.0000 0.0000 0.0000 0.0000 25.3583 0.0000
# 6 0.0000 0.0000 0.0000 0.0000 0.0000 28.7901
#
#
#
# Elastic Compliance Matrix: (Units=1/GPa)
#
#
# Indices 1 2 3 4 5 6 
#
# 1 0.010977 -0.004256 -0.003013 0.000000 0.000000 0.000000
# 2 -0.004256 0.010677 -0.002721 0.000000 0.000000 0.000000
# 3 -0.003013 -0.002721 0.016477 0.000000 0.000000 0.000000
# 4 0.000000 0.000000 0.000000 0.168609 0.000000 0.000000
# 5 0.000000 0.000000 0.000000 0.000000 0.039435 0.000000
# 6 0.000000 0.000000 0.000000 0.000000 0.000000 0.034734
#
#
# Mechanical properties :
#
#
# Convention : Reuss Voigt Hill
#
# Bulk Modulus (GPa) = 55.09321 61.70230 58.39775
# Shear Modulus (GPa) = 16.28987 25.23832 20.76410
#
# Velocity S-wave (km/s) = 2.87768 3.58190 3.24892
# Velocity P-wave (km/s) = 6.24885 6.96227 6.61519
#
# Compressibility (1/GPa) = 0.01815106
#
# Stress axis : x y z
#
# Youngs Moduli (GPa) = 91.09897 93.66115 60.68992
#
# Poissons Ratio (x) = 0.39864 0.18286
# Poissons Ratio (y) = 0.38774 0.16513
# Poissons Ratio (z) = 0.27448 0.25483
#
# Static dielectric constant tensor:
#      x y z
#    x 3.538530 0.000000 0.000000 
#    y 0.000000 3.704650 0.000000 
#    z 0.000000 0.000000 3.594210 
# 
# 
# High freq. dielectric constant tensor:
#      x y z
#    x 1.753580 0.000000 0.000000 
#    y 0.000000 1.773040 0.000000 
#    z 0.000000 0.000000 1.761010 
# 
# From -- ./inp_files/11823.got.cif
#   From: 2010.03.12/outbox.cif.g09.slc.cpg/sg73_6_cif.got.tgz:11823.got - 2010.04.16 15:25:48.
