data_PCOD8296057
_publ_section_title
;
Structure prediction by ZEFSAII (Michael W. Deem and Ramdas Pophale) SiO2 
 PCOD8296057
Probable space group: I B C A 
;
_chemical_formula_sum "Si O2"
_cell_formula_units_Z 96
_cell_length_a 24.314572
_cell_length_b 7.315845
_cell_length_c 21.604926
_cell_angle_alpha 90.000000
_cell_angle_beta 90.000000
_cell_angle_gamma 90.000000
_cell_volume 3843.119669
_symmetry_space_group_name_H-M "I B C A "
_symmetry_group_IT_number 73
_symmetry_cell_setting 'orthorhombic'
loop_
_space_group_symop_operation_xyz
x,y,z
-x,1/2-y,z
x,-y,1/2-z
1/2-x,y,-z
-x,-y,-z
x,1/2+y,-z
-x,y,1/2+z
1/2+x,-y,z
1/2+x,1/2+y,1/2+z
1/2-x,-y,1/2+z
1/2+x,1/2-y,-z
-x,1/2+y,1/2-z
1/2-x,1/2-y,1/2-z
1/2+x,y,1/2-z
1/2-x,1/2+y,z
x,1/2-y,1/2+z
loop_
_atom_site_type_symbol
_atom_site_label
_atom_site_fract_x
_atom_site_fract_y
_atom_site_fract_z
Si Si1 0.058226 0.460040 0.680622
Si Si2 0.237873 0.734341 0.822096
Si Si3 0.312455 0.711105 0.510694
Si Si4 0.339893 0.513709 0.394179
Si Si5 0.435818 0.464996 0.820232
Si Si6 0.670572 0.048405 0.615875
O O1 0.076652 0.500000 0.750000
O O2 0.102387 0.557407 0.637318
O O3 0.061704 0.247844 0.665758
O O4 0.997434 0.544067 0.668955
O O5 0.250000 0.750000 0.750000
O O6 0.208901 0.539282 0.844080
O O7 0.296510 0.733664 0.860000
O O8 0.195171 0.889840 0.840145
O O9 0.250000 0.768109 0.500000
O O10 0.336771 0.694194 0.440731
O O11 0.343581 0.845306 0.557542
O O12 0.316709 0.507999 0.544007
O O13 0.416728 0.500000 0.750000
O O14 0.393901 0.562470 0.867485
#
# Coordination Sequence:
#
# PCOD8296057 Si02
#       6
#    16  16  16  16  16  16
#     4  10  22  42  68  93 126 163 213 272 322 379
#     4  11  22  37  58  91 131 160 202 262 322 380
#     4  11  22  41  62  86 129 174 215 256 312 381
#     4  11  24  42  61  94 123 171 217 258 318 380
#     4  10  20  42  67  92 129 167 208 261 333 383
#     4  11  23  39  61  93 125 171 209 258 318 384
#
# _framework density 24.979704999999999
#
# number of rings (size 3 to 8) (size 9 to 14) (size 15 to 20)
#    0.000    1.333    5.000    2.000    2.333    1.333 
#    3.000    0.833    0.000    0.000    0.000    0.000 
#    0.000    0.000    0.000    0.000    0.000    0.000 
#
# Total GULP energy -595175.291263 kJ/mol
# GULP energy per Si atom -12399.485235 kJ/mol
# Density = 2.492285 g / cm^3
# Si number density = 24.979705 Si / 1000 Ang^3
#
#
#
# Elastic Constant Matrix: (Units=GPa)
#
#
# Indices 1 2 3 4 5 6 
#
# 1 176.0540 21.2464 96.1160 0.0000 0.0000 0.0000
# 2 21.2464 87.2021 26.5855 0.0000 0.0000 0.0000
# 3 96.1160 26.5855 209.1977 0.0000 0.0000 0.0000
# 4 0.0000 0.0000 0.0000 38.2873 0.0000 0.0000
# 5 0.0000 0.0000 0.0000 0.0000 40.2146 0.0000
# 6 0.0000 0.0000 0.0000 0.0000 0.0000 23.4778
#
#
#
# Elastic Compliance Matrix: (Units=1/GPa)
#
#
# Indices 1 2 3 4 5 6 
#
# 1 0.007638 -0.000823 -0.003405 0.000000 0.000000 0.000000
# 2 -0.000823 0.012018 -0.001149 0.000000 0.000000 0.000000
# 3 -0.003405 -0.001149 0.006491 0.000000 0.000000 0.000000
# 4 0.000000 0.000000 0.000000 0.026118 0.000000 0.000000
# 5 0.000000 0.000000 0.000000 0.000000 0.024867 0.000000
# 6 0.000000 0.000000 0.000000 0.000000 0.000000 0.042593
#
#
# Mechanical properties :
#
#
# Convention : Reuss Voigt Hill
#
# Bulk Modulus (GPa) = 64.96355 84.48330 74.72342
# Shear Modulus (GPa) = 36.87023 42.29634 39.58329
#
# Velocity S-wave (km/s) = 3.84605 4.11935 3.98504
# Velocity P-wave (km/s) = 6.76652 7.51795 7.15211
#
# Compressibility (1/GPa) = 0.01539325
#
# Stress axis : x y z
#
# Youngs Moduli (GPa) = 130.92032 83.20508 154.07009
#
# Poissons Ratio (x) = 0.06848 0.52458
# Poissons Ratio (y) = 0.10775 0.17706
# Poissons Ratio (z) = 0.44576 0.09562
#
# Static dielectric constant tensor:
#      x y z
#    x 4.582320 0.000000 0.000000 
#    y 0.000000 5.521350 0.000000 
#    z 0.000000 0.000000 4.815740 
# 
# 
# High freq. dielectric constant tensor:
#      x y z
#    x 1.972550 0.000000 0.000000 
#    y 0.000000 2.057240 0.000000 
#    z 0.000000 0.000000 2.010270 
# 
# From -- ./inp_files/30280.got.cif
#   From: 2010.03.12/outbox.cif.g09.slc.cpg/sg73_16_cif.got.tgz:30280.got - 2010.04.16 15:25:48.
