data_PCOD8296047
_publ_section_title
;
Structure prediction by ZEFSAII (Michael W. Deem and Ramdas Pophale) SiO2 
 PCOD8296047
Probable space group: I B C A 
;
_chemical_formula_sum "Si O2"
_cell_formula_units_Z 120
_cell_length_a 25.481154
_cell_length_b 25.525974
_cell_length_c 8.893096
_cell_angle_alpha 90.000000
_cell_angle_beta 90.000000
_cell_angle_gamma 90.000000
_cell_volume 5784.347765
_symmetry_space_group_name_H-M "I B C A "
_symmetry_group_IT_number 73
_symmetry_cell_setting 'orthorhombic'
loop_
_space_group_symop_operation_xyz
x,y,z
-x,1/2-y,z
x,-y,1/2-z
1/2-x,y,-z
-x,-y,-z
x,1/2+y,-z
-x,y,1/2+z
1/2+x,-y,z
1/2+x,1/2+y,1/2+z
1/2-x,-y,1/2+z
1/2+x,1/2-y,-z
-x,1/2+y,1/2-z
1/2-x,1/2-y,1/2-z
1/2+x,y,1/2-z
1/2-x,1/2+y,z
x,1/2-y,1/2+z
loop_
_atom_site_type_symbol
_atom_site_label
_atom_site_fract_x
_atom_site_fract_y
_atom_site_fract_z
Si Si1 0.468148 0.051775 0.026308
Si Si2 0.042309 0.708927 0.778830
Si Si3 0.860419 0.324300 0.680484
Si Si4 0.470969 0.382027 0.804613
Si Si5 0.314703 0.931118 0.187921
Si Si6 0.887682 0.237265 0.462275
Si Si7 0.279401 0.000000 0.750000
Si Si8 0.646508 0.976561 0.987572
O O1 0.460701 0.067058 0.201053
O O2 0.410712 0.041298 0.956254
O O3 0.500475 0.099311 0.955288
O O4 0.500000 0.000000 0.000000
O O5 0.069873 0.730674 0.631457
O O6 0.000000 0.750000 0.841593
O O7 0.013096 0.656434 0.727405
O O8 0.083600 0.699979 0.915519
O O9 0.917416 0.351071 0.663189
O O10 0.816546 0.369130 0.652293
O O11 0.852288 0.279507 0.554007
O O12 0.854044 0.298931 0.847690
O O13 0.333169 0.937440 0.359511
O O14 0.256250 0.955120 0.170746
O O15 0.353515 0.963594 0.076584
O O16 0.314953 0.971125 0.628160
#
# Coordination Sequence:
#
# PCOD8296047 Si02
#       8
#    16  16  16  16  16  16   8  16
#     4  12  26  38  53  84 135 171 200 239 293 366
#     4  11  20  32  54  75 117 160 218 259 283 345
#     4  11  21  37  58  87 126 164 206 252 310 367
#     4  12  23  35  55  81 121 177 209 237 302 359
#     4  10  20  41  67  87 123 155 201 261 330 363
#     4  10  21  34  53  83 120 161 211 259 298 354
#     4  10  22  42  72 100 110 148 210 276 304 362
#     4  10  22  41  64  94 123 159 206 253 301 374
#
# _framework density 20.745640999999999
#
# number of rings (size 3 to 8) (size 9 to 14) (size 15 to 20)
#    0.000    1.333    4.000    4.800    3.733    0.000 
#    0.000    0.000    0.000    0.000    0.000   11.200 
#    0.000    0.000    0.000    0.000    0.000    0.000 
#
# Total GULP energy -743796.595989 kJ/mol
# GULP energy per Si atom -12396.609933 kJ/mol
# Density = 2.069842 g / cm^3
# Si number density = 20.745641 Si / 1000 Ang^3
#
#
#
# Elastic Constant Matrix: (Units=GPa)
#
#
# Indices 1 2 3 4 5 6 
#
# 1 72.5358 20.8709 21.5163 0.0000 0.0000 0.0000
# 2 20.8709 96.9575 18.9964 0.0000 0.0000 0.0000
# 3 21.5163 18.9964 78.5478 0.0000 0.0000 0.0000
# 4 0.0000 0.0000 0.0000 31.9228 0.0000 0.0000
# 5 0.0000 0.0000 0.0000 0.0000 21.2316 0.0000
# 6 0.0000 0.0000 0.0000 0.0000 0.0000 28.1179
#
#
#
# Elastic Compliance Matrix: (Units=1/GPa)
#
#
# Indices 1 2 3 4 5 6 
#
# 1 0.015629 -0.002651 -0.003640 0.000000 0.000000 0.000000
# 2 -0.002651 0.011276 -0.002001 0.000000 0.000000 0.000000
# 3 -0.003640 -0.002001 0.014212 0.000000 0.000000 0.000000
# 4 0.000000 0.000000 0.000000 0.031326 0.000000 0.000000
# 5 0.000000 0.000000 0.000000 0.000000 0.047100 0.000000
# 6 0.000000 0.000000 0.000000 0.000000 0.000000 0.035565
#
#
# Mechanical properties :
#
#
# Convention : Reuss Voigt Hill
#
# Bulk Modulus (GPa) = 40.76078 41.20090 40.98084
# Shear Modulus (GPa) = 27.79802 28.69831 28.24817
#
# Velocity S-wave (km/s) = 3.66450 3.72337 3.69405
# Velocity P-wave (km/s) = 6.13150 6.19578 6.16372
#
# Compressibility (1/GPa) = 0.02453339
#
# Stress axis : x y z
#
# Youngs Moduli (GPa) = 63.98438 88.68004 70.36252
#
# Poissons Ratio (x) = 0.23510 0.25612
# Poissons Ratio (y) = 0.16963 0.14079
# Poissons Ratio (z) = 0.23290 0.17745
#
# Static dielectric constant tensor:
#      x y z
#    x 3.466970 0.000000 0.000000 
#    y 0.000000 12.070110 0.000000 
#    z 0.000000 0.000000 3.902990 
# 
# 
# High freq. dielectric constant tensor:
#      x y z
#    x 1.776690 0.000000 0.000000 
#    y 0.000000 1.809250 0.000000 
#    z 0.000000 0.000000 1.815450 
# 
# From -- ./inp_files/8106.got.cif
#   From: 2010.03.12/outbox.cif.g09.slc.cpg/sg73_5_cif.got.tgz:8106.got - 2010.04.16 15:25:48.
