data_PCOD8296027
_publ_section_title
;
Structure prediction by ZEFSAII (Michael W. Deem and Ramdas Pophale) SiO2 
 PCOD8296027
Probable space group: I B C A 
;
_chemical_formula_sum "Si O2"
_cell_formula_units_Z 88
_cell_length_a 28.252839
_cell_length_b 9.212125
_cell_length_c 15.128041
_cell_angle_alpha 90.000000
_cell_angle_beta 90.000000
_cell_angle_gamma 90.000000
_cell_volume 3937.355330
_symmetry_space_group_name_H-M "I B C A "
_symmetry_group_IT_number 73
_symmetry_cell_setting 'orthorhombic'
loop_
_space_group_symop_operation_xyz
x,y,z
-x,1/2-y,z
x,-y,1/2-z
1/2-x,y,-z
-x,-y,-z
x,1/2+y,-z
-x,y,1/2+z
1/2+x,-y,z
1/2+x,1/2+y,1/2+z
1/2-x,-y,1/2+z
1/2+x,1/2-y,-z
-x,1/2+y,1/2-z
1/2-x,1/2-y,1/2-z
1/2+x,y,1/2-z
1/2-x,1/2+y,z
x,1/2-y,1/2+z
loop_
_atom_site_type_symbol
_atom_site_label
_atom_site_fract_x
_atom_site_fract_y
_atom_site_fract_z
Si Si1 0.000000 0.250000 0.979247
Si Si2 0.800782 0.303833 0.079394
Si Si3 0.472016 0.981620 0.113801
Si Si4 0.206147 0.134662 0.409525
Si Si5 0.605304 0.500000 0.250000
Si Si6 0.945315 0.500000 0.250000
Si Si7 0.859401 0.204394 0.752998
O O1 0.030527 0.363538 0.036101
O O2 0.034192 0.148135 0.919800
O O3 0.785698 0.469404 0.058837
O O4 0.755816 0.211520 0.113907
O O5 0.841860 0.303679 0.152208
O O6 0.818833 0.226610 0.988663
O O7 0.427652 0.938672 0.172629
O O8 0.521997 0.970955 0.164854
O O9 0.175263 0.123858 0.320565
O O10 0.638741 0.371302 0.216929
O O11 0.911936 0.639150 0.237327
#
# Coordination Sequence:
#
# PCOD8296027 Si02
#       7
#     8  16  16  16   8   8  16
#     4  10  20  40  68  98 112 164 230 266 320 388
#     4  11  24  45  70  98 133 175 217 269 331 396
#     4  10  22  44  66  90 130 174 218 262 330 394
#     4  11  24  45  70  98 133 175 217 269 331 396
#     4  11  26  42  63  94 132 180 217 266 328 389
#     4  11  22  46  63  88 136 172 211 272 328 397
#     4  12  25  43  65 102 133 177 219 276 328 385
#
# _framework density 22.350026
#
# number of rings (size 3 to 8) (size 9 to 14) (size 15 to 20)
#    0.000    1.091    1.818    4.909    5.091    2.909 
#   19.636    0.000    0.000    0.000    0.000    0.000 
#    0.000    0.000    0.000    0.000    0.000    0.000 
#
# Total GULP energy -545539.942179 kJ/mol
# GULP energy per Si atom -12398.635050 kJ/mol
# Density = 2.229916 g / cm^3
# Si number density = 22.350026 Si / 1000 Ang^3
#
#
#
# Elastic Constant Matrix: (Units=GPa)
#
#
# Indices 1 2 3 4 5 6 
#
# 1 60.6964 17.8874 24.5271 0.0000 0.0000 0.0000
# 2 17.8874 166.5260 9.5153 0.0000 0.0000 0.0000
# 3 24.5271 9.5153 92.1114 0.0000 0.0000 0.0000
# 4 0.0000 0.0000 0.0000 36.2642 0.0000 0.0000
# 5 0.0000 0.0000 0.0000 0.0000 -1.6815 0.0000
# 6 0.0000 0.0000 0.0000 0.0000 0.0000 24.7360
#
#
#
# Elastic Compliance Matrix: (Units=1/GPa)
#
#
# Indices 1 2 3 4 5 6 
#
# 1 0.018960 -0.001759 -0.004867 0.000000 0.000000 0.000000
# 2 -0.001759 0.006204 -0.000173 0.000000 0.000000 0.000000
# 3 -0.004867 -0.000173 0.012170 0.000000 0.000000 0.000000
# 4 0.000000 0.000000 0.000000 0.027575 0.000000 0.000000
# 5 0.000000 0.000000 0.000000 0.000000 -0.594699 0.000000
# 6 0.000000 0.000000 0.000000 0.000000 0.000000 0.040427
#
#
# Mechanical properties :
#
#
# Convention : Reuss Voigt Hill
#
# Bulk Modulus (GPa) = 42.12637 47.02148 44.57392
# Shear Modulus (GPa) = -10.68712 29.69066 9.50177
#
# Velocity S-wave (km/s) = -2.18908 3.64873 2.06412
# Velocity P-wave (km/s) = 3.53553 6.23180 5.06632
#
# Compressibility (1/GPa) = 0.02373810
#
# Stress axis : x y z
#
# Youngs Moduli (GPa) = 52.74135 161.19086 82.16769
#
# Poissons Ratio (x) = 0.28346 0.39992
# Poissons Ratio (y) = 0.09275 0.01418
# Poissons Ratio (z) = 0.25670 0.02782
#
# Static dielectric constant tensor:
#      x y z
#    x 3.657220 0.000000 0.000000 
#    y 0.000000 4.326820 0.000000 
#    z 0.000000 0.000000 4.077860 
# 
# 
# High freq. dielectric constant tensor:
#      x y z
#    x 1.854970 0.000000 0.000000 
#    y 0.000000 1.908920 0.000000 
#    z 0.000000 0.000000 1.887030 
# 
# From -- ./inp_files/24133.got.cif
#   From: 2010.03.12/outbox.cif.g09.slc.cpg/sg73_13_cif.got.tgz:24133.got - 2010.04.16 15:25:48.
