data_PCOD8296500
_publ_section_title
;
Structure prediction by ZEFSAII (Michael W. Deem and Ramdas Pophale) SiO2 
 PCOD8296500
Probable space group: I B C A 
;
_chemical_formula_sum "Si O2"
_cell_formula_units_Z 104
_cell_length_a 8.994902
_cell_length_b 27.621243
_cell_length_c 19.173655
_cell_angle_alpha 90.000000
_cell_angle_beta 90.000000
_cell_angle_gamma 90.000000
_cell_volume 4763.701754
_symmetry_space_group_name_H-M "I B C A "
_symmetry_group_IT_number 73
_symmetry_cell_setting 'orthorhombic'
loop_
_space_group_symop_operation_xyz
x,y,z
-x,1/2-y,z
x,-y,1/2-z
1/2-x,y,-z
-x,-y,-z
x,1/2+y,-z
-x,y,1/2+z
1/2+x,-y,z
1/2+x,1/2+y,1/2+z
1/2-x,-y,1/2+z
1/2+x,1/2-y,-z
-x,1/2+y,1/2-z
1/2-x,1/2-y,1/2-z
1/2+x,y,1/2-z
1/2-x,1/2+y,z
x,1/2-y,1/2+z
loop_
_atom_site_type_symbol
_atom_site_label
_atom_site_fract_x
_atom_site_fract_y
_atom_site_fract_z
Si Si1 0.747298 0.043518 0.168356
Si Si2 0.374320 0.481442 0.449974
Si Si3 0.181466 0.133818 0.573078
Si Si4 0.331123 0.811832 0.313786
Si Si5 0.343697 0.368082 0.432365
Si Si6 0.512106 0.500000 0.750000
Si Si7 0.673103 0.199088 0.173648
O O1 0.790448 0.093433 0.132204
O O2 0.625176 0.045497 0.231529
O O3 0.903690 0.018409 0.187996
O O4 0.643436 0.009918 0.120986
O O5 0.250000 0.498788 0.500000
O O6 0.500000 0.500000 0.500000
O O7 0.369900 0.425258 0.430683
O O8 0.250000 0.115818 0.500000
O O9 0.271131 0.180393 0.599134
O O10 0.011637 0.152008 0.565347
O O11 0.246010 0.848090 0.365849
O O12 0.506930 0.820385 0.314502
O O13 0.272303 0.822574 0.236221
O O14 0.303402 0.756243 0.332924
O O15 0.250000 0.351952 0.500000
#
# Coordination Sequence:
#
# PCOD8296500 Si02
#       7
#    16  16  16  16  16   8  16
#     4  11  23  41  61  89 128 165 212 265 323 394
#     4  11  22  39  63  89 123 169 215 265 323 391
#     4  12  25  41  63  93 125 168 216 267 328 392
#     4  10  22  44  67  96 128 170 216 267 333 396
#     4  11  24  40  64  96 130 169 217 270 329 398
#     4  10  24  40  60  88 124 170 212 268 330 384
#     4  10  23  42  69  95 129 169 216 270 328 401
#
# _framework density 21.831761
#
# number of rings (size 3 to 8) (size 9 to 14) (size 15 to 20)
#    0.000    1.231    0.000    6.000    0.000   11.077 
#    0.000    0.000    0.000    0.000    0.000    0.000 
#    0.000    0.000    0.000    0.000    0.000    0.000 
#
# Total GULP energy -644208.326730 kJ/mol
# GULP energy per Si atom -12388.621668 kJ/mol
# Density = 2.178207 g / cm^3
# Si number density = 21.831761 Si / 1000 Ang^3
#
#
#
# Elastic Constant Matrix: (Units=GPa)
#
#
# Indices 1 2 3 4 5 6 
#
# 1 186.7665 48.1286 56.9915 0.0000 0.0000 0.0000
# 2 48.1286 70.1893 47.3852 0.0000 0.0000 0.0000
# 3 56.9915 47.3852 91.1236 -0.0001 0.0000 0.0001
# 4 0.0000 0.0000 -0.0001 107.3513 0.0001 0.0000
# 5 0.0000 0.0000 0.0000 0.0001 54.3559 0.0000
# 6 0.0000 0.0000 0.0001 0.0000 0.0000 34.7546
#
#
#
# Elastic Compliance Matrix: (Units=1/GPa)
#
#
# Indices 1 2 3 4 5 6 
#
# 1 0.006963 -0.002827 -0.002885 0.000000 0.000000 0.000000
# 2 -0.002827 0.023102 -0.010245 0.000000 0.000000 0.000000
# 3 -0.002885 -0.010245 0.018106 0.000000 0.000000 0.000000
# 4 0.000000 0.000000 0.000000 0.009315 0.000000 0.000000
# 5 0.000000 0.000000 0.000000 0.000000 0.018397 0.000000
# 6 0.000000 0.000000 0.000000 0.000000 0.000000 0.028773
#
#
# Mechanical properties :
#
#
# Convention : Reuss Voigt Hill
#
# Bulk Modulus (GPa) = 61.51165 72.56555 67.03860
# Shear Modulus (GPa) = 35.21360 52.33063 43.77211
#
# Velocity S-wave (km/s) = 4.02052 4.90122 4.48255
# Velocity P-wave (km/s) = 7.05615 8.08332 7.58713
#
# Compressibility (1/GPa) = 0.01625708
#
# Stress axis : x y z
#
# Youngs Moduli (GPa) = 143.61442 43.28568 55.23005
#
# Poissons Ratio (x) = 0.12237 0.15933
# Poissons Ratio (y) = 0.40599 0.56585
# Poissons Ratio (z) = 0.41431 0.44348
#
# Static dielectric constant tensor:
#      x y z
#    x 4.303550 0.000000 0.000000 
#    y 0.000000 3.782350 0.000000 
#    z 0.000000 0.000000 4.149800 
# 
# 
# High freq. dielectric constant tensor:
#      x y z
#    x 1.889190 0.000000 0.000000 
#    y 0.000000 1.840820 0.000000 
#    z 0.000000 0.000000 1.870940 
# 
# From -- ./inp_files/25062.got.cif
#   From: 2010.03.12/outbox.cif.g09.slc.cpg/sg73_13_cif.got.tgz:25062.got - 2010.04.16 15:25:48.
