data_PCOD8296514
_publ_section_title
;
Structure prediction by ZEFSAII (Michael W. Deem and Ramdas Pophale) SiO2 
 PCOD8296514
Probable space group: I B C A 
;
_chemical_formula_sum "Si O2"
_cell_formula_units_Z 88
_cell_length_a 10.576794
_cell_length_b 15.777459
_cell_length_c 24.347719
_cell_angle_alpha 90.000000
_cell_angle_beta 90.000000
_cell_angle_gamma 90.000000
_cell_volume 4063.023994
_symmetry_space_group_name_H-M "I B C A "
_symmetry_group_IT_number 73
_symmetry_cell_setting 'orthorhombic'
loop_
_space_group_symop_operation_xyz
x,y,z
-x,1/2-y,z
x,-y,1/2-z
1/2-x,y,-z
-x,-y,-z
x,1/2+y,-z
-x,y,1/2+z
1/2+x,-y,z
1/2+x,1/2+y,1/2+z
1/2-x,-y,1/2+z
1/2+x,1/2-y,-z
-x,1/2+y,1/2-z
1/2-x,1/2-y,1/2-z
1/2+x,y,1/2-z
1/2-x,1/2+y,z
x,1/2-y,1/2+z
loop_
_atom_site_type_symbol
_atom_site_label
_atom_site_fract_x
_atom_site_fract_y
_atom_site_fract_z
Si Si1 0.164506 0.859726 0.553131
Si Si2 0.803310 0.707744 0.902590
Si Si3 0.075023 0.537295 0.808284
Si Si4 0.867780 0.226547 0.712199
Si Si5 0.000000 0.250000 0.506913
Si Si6 0.811390 0.475097 0.627088
O O1 0.250000 0.874044 0.500000
O O2 0.193391 0.777747 0.592130
O O3 0.026556 0.834259 0.529805
O O4 0.169239 0.944742 0.587954
O O5 0.869181 0.718644 0.843529
O O6 0.771096 0.608263 0.907386
O O7 0.883633 0.727993 0.955644
O O8 0.035047 0.500000 0.750000
O O9 0.136731 0.628857 0.802492
O O10 0.191053 0.484005 0.833055
O O11 0.946855 0.538226 0.843665
O O12 0.750000 0.250000 0.750000
O O13 0.000000 0.250000 0.742987
#
# Coordination Sequence:
#
# PCOD8296514 Si02
#       6
#    16  16  16  16   8  16
#     4  10  25  43  70 104 137 185 244 293 359 430
#     4  11  22  47  69  98 142 187 228 295 366 413
#     4  12  27  46  69 106 143 186 236 289 361 428
#     4  12  25  47  75 101 140 192 237 290 358 426
#     4  10  22  44  72  96 142 186 240 296 352 440
#     4  12  26  45  73 103 145 184 238 300 351 434
#
# _framework density 21.658745
#
# number of rings (size 3 to 8) (size 9 to 14) (size 15 to 20)
#    0.000    0.727    4.545    1.636    7.636    2.909 
#    1.636    0.000    0.000    0.000    0.000    0.000 
#    0.000    0.000    0.000    0.000    0.000    0.000 
#
# Total GULP energy -545134.219198 kJ/mol
# GULP energy per Si atom -12389.414073 kJ/mol
# Density = 2.160945 g / cm^3
# Si number density = 21.658745 Si / 1000 Ang^3
#
#
#
# Elastic Constant Matrix: (Units=GPa)
#
#
# Indices 1 2 3 4 5 6 
#
# 1 112.3802 34.7885 42.1450 0.0000 0.0000 0.0000
# 2 34.7885 181.4348 62.0533 0.0000 0.0000 0.0000
# 3 42.1450 62.0533 102.4840 0.0000 0.0000 0.0000
# 4 0.0000 0.0000 0.0000 3.1301 0.0000 0.0000
# 5 0.0000 0.0000 0.0000 0.0000 20.8173 0.0000
# 6 0.0000 0.0000 0.0000 0.0000 0.0000 30.2376
#
#
#
# Elastic Compliance Matrix: (Units=1/GPa)
#
#
# Indices 1 2 3 4 5 6 
#
# 1 0.010587 -0.000682 -0.003941 0.000000 0.000000 0.000000
# 2 -0.000682 0.006995 -0.003955 0.000000 0.000000 0.000000
# 3 -0.003941 -0.003955 0.013773 0.000000 0.000000 0.000000
# 4 0.000000 0.000000 0.000000 0.319477 0.000000 0.000000
# 5 0.000000 0.000000 0.000000 0.000000 0.048037 0.000000
# 6 0.000000 0.000000 0.000000 0.000000 0.000000 0.033071
#
#
# Mechanical properties :
#
#
# Convention : Reuss Voigt Hill
#
# Bulk Modulus (GPa) = 70.42518 74.91917 72.67218
# Shear Modulus (GPa) = 11.01734 27.99113 19.50424
#
# Velocity S-wave (km/s) = 2.25784 3.59886 3.00413
# Velocity P-wave (km/s) = 6.27563 7.20658 6.75716
#
# Compressibility (1/GPa) = 0.01419947
#
# Stress axis : x y z
#
# Youngs Moduli (GPa) = 94.45133 142.95785 72.60630
#
# Poissons Ratio (x) = 0.09753 0.28613
# Poissons Ratio (y) = 0.06444 0.28715
# Poissons Ratio (z) = 0.37222 0.56539
#
# Static dielectric constant tensor:
#      x y z
#    x 3.988900 0.000000 0.000000 
#    y 0.000000 4.113740 0.000000 
#    z 0.000000 0.000000 2.995100 
# 
# 
# High freq. dielectric constant tensor:
#      x y z
#    x 1.852790 0.000000 0.000000 
#    y 0.000000 1.868820 0.000000 
#    z 0.000000 0.000000 1.852540 
# 
# From -- ./inp_files/28841.got.cif
#   From: 2010.03.12/outbox.cif.g09.slc.cpg/sg73_15_cif.got.tgz:28841.got - 2010.04.16 15:25:48.
