data_PCOD8296232
_publ_section_title
;
Structure prediction by ZEFSAII (Michael W. Deem and Ramdas Pophale) SiO2 
 PCOD8296232
Probable space group: I B C A 
;
_chemical_formula_sum "Si O2"
_cell_formula_units_Z 80
_cell_length_a 15.083262
_cell_length_b 18.664091
_cell_length_c 13.982253
_cell_angle_alpha 90.000000
_cell_angle_beta 90.000000
_cell_angle_gamma 90.000000
_cell_volume 3936.219190
_symmetry_space_group_name_H-M "I B C A "
_symmetry_group_IT_number 73
_symmetry_cell_setting 'orthorhombic'
loop_
_space_group_symop_operation_xyz
x,y,z
-x,1/2-y,z
x,-y,1/2-z
1/2-x,y,-z
-x,-y,-z
x,1/2+y,-z
-x,y,1/2+z
1/2+x,-y,z
1/2+x,1/2+y,1/2+z
1/2-x,-y,1/2+z
1/2+x,1/2-y,-z
-x,1/2+y,1/2-z
1/2-x,1/2-y,1/2-z
1/2+x,y,1/2-z
1/2-x,1/2+y,z
x,1/2-y,1/2+z
loop_
_atom_site_type_symbol
_atom_site_label
_atom_site_fract_x
_atom_site_fract_y
_atom_site_fract_z
Si Si1 0.181090 0.162348 0.418467
Si Si2 0.279752 0.422793 0.767009
Si Si3 0.012007 0.608840 0.020968
Si Si4 0.817248 0.172534 0.417702
Si Si5 0.535910 0.973404 0.651055
O O1 0.250000 0.140070 0.500000
O O2 0.205770 0.120452 0.323266
O O3 0.083291 0.139532 0.450157
O O4 0.193897 0.244917 0.389769
O O5 0.234669 0.500000 0.750000
O O6 0.304095 0.379312 0.671906
O O7 0.369162 0.438523 0.826003
O O8 0.083838 0.669886 0.038997
O O9 0.044827 0.541305 0.082337
O O10 0.016611 0.587581 0.908049
O O11 0.750000 0.147994 0.500000
O O12 0.489320 0.000000 0.750000
#
# Coordination Sequence:
#
# PCOD8296232 Si02
#       5
#    16  16  16  16  16
#     4  11  24  42  68  98 135 181 220 270 338 396
#     4  11  22  44  67  97 137 171 225 282 330 395
#     4  11  22  41  70  95 132 174 220 274 330 390
#     4  11  25  44  65  98 137 177 227 274 326 407
#     4  10  21  40  65  99 132 160 222 279 322 386
#
# _framework density 20.324071
#
# number of rings (size 3 to 8) (size 9 to 14) (size 15 to 20)
#    0.000    1.200    6.000    1.200    0.000    6.400 
#    0.000    0.000    0.000    0.000    0.000    0.000 
#    0.000    0.000    0.000    0.000    0.000    0.000 
#
# Total GULP energy -495787.523065 kJ/mol
# GULP energy per Si atom -12394.688077 kJ/mol
# Density = 2.027781 g / cm^3
# Si number density = 20.324071 Si / 1000 Ang^3
#
#
#
# Elastic Constant Matrix: (Units=GPa)
#
#
# Indices 1 2 3 4 5 6 
#
# 1 130.2315 40.5261 59.2289 0.0000 0.0000 0.0000
# 2 40.5261 96.4898 53.1214 0.0000 0.0000 0.0000
# 3 59.2289 53.1214 127.2585 0.0000 0.0000 0.0000
# 4 0.0000 0.0000 0.0000 21.0146 0.0000 0.0000
# 5 0.0000 0.0000 0.0000 0.0000 32.7394 0.0000
# 6 0.0000 0.0000 0.0000 0.0000 0.0000 48.3338
#
#
#
# Elastic Compliance Matrix: (Units=1/GPa)
#
#
# Indices 1 2 3 4 5 6 
#
# 1 0.010070 -0.002141 -0.003793 0.000000 0.000000 0.000000
# 2 -0.002141 0.013911 -0.004810 0.000000 0.000000 0.000000
# 3 -0.003793 -0.004810 0.011631 0.000000 0.000000 0.000000
# 4 0.000000 0.000000 0.000000 0.047586 0.000000 0.000000
# 5 0.000000 0.000000 0.000000 0.000000 0.030544 0.000000
# 6 0.000000 0.000000 0.000000 0.000000 0.000000 0.020689
#
#
# Mechanical properties :
#
#
# Convention : Reuss Voigt Hill
#
# Bulk Modulus (GPa) = 70.80420 73.30364 72.05392
# Shear Modulus (GPa) = 31.12747 33.82445 32.47596
#
# Velocity S-wave (km/s) = 3.91776 4.08395 4.00172
# Velocity P-wave (km/s) = 7.44166 7.64094 7.54196
#
# Compressibility (1/GPa) = 0.01412346
#
# Stress axis : x y z
#
# Youngs Moduli (GPa) = 99.30493 71.88308 85.97429
#
# Poissons Ratio (x) = 0.15392 0.32610
# Poissons Ratio (y) = 0.21264 0.41358
# Poissons Ratio (z) = 0.37666 0.34579
#
# Static dielectric constant tensor:
#      x y z
#    x 3.620340 0.000000 0.000000 
#    y 0.000000 3.794700 0.000000 
#    z 0.000000 0.000000 3.954190 
# 
# 
# High freq. dielectric constant tensor:
#      x y z
#    x 1.790890 0.000000 0.000000 
#    y 0.000000 1.802250 0.000000 
#    z 0.000000 0.000000 1.802980 
# 
# From -- ./inp_files/16861.got.cif
#   From: 2010.03.12/outbox.cif.g09.slc.cpg/sg73_9_cif.got.tgz:16861.got - 2010.04.16 15:25:48.
