data_PCOD8296520
_publ_section_title
;
Structure prediction by ZEFSAII (Michael W. Deem and Ramdas Pophale) SiO2 
 PCOD8296520
Probable space group: I B C A 
;
_chemical_formula_sum "Si O2"
_cell_formula_units_Z 120
_cell_length_a 9.198730
_cell_length_b 22.296382
_cell_length_c 26.480716
_cell_angle_alpha 90.000000
_cell_angle_beta 90.000000
_cell_angle_gamma 90.000000
_cell_volume 5431.152429
_symmetry_space_group_name_H-M "I B C A "
_symmetry_group_IT_number 73
_symmetry_cell_setting 'orthorhombic'
loop_
_space_group_symop_operation_xyz
x,y,z
-x,1/2-y,z
x,-y,1/2-z
1/2-x,y,-z
-x,-y,-z
x,1/2+y,-z
-x,y,1/2+z
1/2+x,-y,z
1/2+x,1/2+y,1/2+z
1/2-x,-y,1/2+z
1/2+x,1/2-y,-z
-x,1/2+y,1/2-z
1/2-x,1/2-y,1/2-z
1/2+x,y,1/2-z
1/2-x,1/2+y,z
x,1/2-y,1/2+z
loop_
_atom_site_type_symbol
_atom_site_label
_atom_site_fract_x
_atom_site_fract_y
_atom_site_fract_z
Si Si1 0.281737 0.314128 0.224478
Si Si2 0.019385 0.138413 0.192581
Si Si3 0.552297 0.430793 0.097882
Si Si4 0.587693 0.891053 0.012516
Si Si5 0.677081 0.807335 0.547905
Si Si6 0.500000 0.750000 0.124831
Si Si7 0.626995 0.541713 0.615366
Si Si8 0.574837 0.688624 0.881801
O O1 0.250000 0.250000 0.250000
O O2 0.143973 0.355632 0.212484
O O3 0.376415 0.357476 0.259401
O O4 0.361286 0.297268 0.172895
O O5 0.050992 0.194570 0.157099
O O6 0.048030 0.078793 0.160206
O O7 0.424963 0.473159 0.119070
O O8 0.700248 0.457968 0.120414
O O9 0.543526 0.364201 0.121676
O O10 0.542467 0.428427 0.036917
O O11 0.463701 0.843194 0.028168
O O12 0.587473 0.934738 0.059973
O O13 0.750000 0.863568 0.000000
O O14 0.750000 0.775551 0.500000
O O15 0.637567 0.757506 0.588641
O O16 0.806087 0.840907 0.578985
O O17 0.500000 0.750000 0.902505
#
# Coordination Sequence:
#
# PCOD8296520 Si02
#       8
#    16  16  16  16  16   8  16  16
#     4  12  24  45  76 106 140 189 245 309 369 446
#     4  12  25  45  74 106 143 189 247 313 376 435
#     4  11  27  45  75 106 147 197 241 299 365 444
#     4  10  22  45  70 105 140 194 248 296 353 448
#     4  12  25  41  68 101 153 195 238 299 375 433
#     4  12  24  42  68 104 150 192 240 302 366 428
#     4  11  26  46  74 103 146 188 248 304 365 440
#     4  12  27  45  73 108 146 191 251 308 374 448
#
# _framework density 22.094757999999999
#
# number of rings (size 3 to 8) (size 9 to 14) (size 15 to 20)
#    0.000    0.533    5.333    1.200   10.267    0.533 
#    0.000    0.667    0.000    0.000    0.000    0.000 
#    0.000    0.000    0.000    0.000    0.000    0.000 
#
# Total GULP energy -743494.894492 kJ/mol
# GULP energy per Si atom -12391.581575 kJ/mol
# Density = 2.204447 g / cm^3
# Si number density = 22.094758 Si / 1000 Ang^3
#
#
#
# Elastic Constant Matrix: (Units=GPa)
#
#
# Indices 1 2 3 4 5 6 
#
# 1 143.3712 64.0312 47.2699 0.0000 0.0000 0.0000
# 2 64.0312 106.9212 33.8411 0.0000 0.0000 0.0000
# 3 47.2699 33.8411 120.4831 0.0000 0.0000 0.0000
# 4 0.0000 0.0000 0.0000 36.1258 0.0000 0.0000
# 5 0.0000 0.0000 0.0000 0.0000 53.0263 0.0000
# 6 0.0000 0.0000 0.0000 0.0000 0.0000 25.4860
#
#
#
# Elastic Compliance Matrix: (Units=1/GPa)
#
#
# Indices 1 2 3 4 5 6 
#
# 1 0.010164 -0.005296 -0.002500 0.000000 0.000000 0.000000
# 2 -0.005296 0.013024 -0.001581 0.000000 0.000000 0.000000
# 3 -0.002500 -0.001581 0.009725 0.000000 0.000000 0.000000
# 4 0.000000 0.000000 0.000000 0.027681 0.000000 0.000000
# 5 0.000000 0.000000 0.000000 0.000000 0.018859 0.000000
# 6 0.000000 0.000000 0.000000 0.000000 0.000000 0.039237
#
#
# Mechanical properties :
#
#
# Convention : Reuss Voigt Hill
#
# Bulk Modulus (GPa) = 70.62015 73.45108 72.03562
# Shear Modulus (GPa) = 35.17067 37.96983 36.57025
#
# Velocity S-wave (km/s) = 3.99408 4.14998 4.07277
# Velocity P-wave (km/s) = 7.30082 7.50193 7.40206
#
# Compressibility (1/GPa) = 0.01416026
#
# Stress axis : x y z
#
# Youngs Moduli (GPa) = 98.38244 76.77932 102.82910
#
# Poissons Ratio (x) = 0.40660 0.25712
# Poissons Ratio (y) = 0.52100 0.16253
# Poissons Ratio (z) = 0.24600 0.12135
#
# Static dielectric constant tensor:
#      x y z
#    x 4.450870 0.000000 0.000000 
#    y 0.000000 3.652540 0.000000 
#    z 0.000000 0.000000 4.310980 
# 
# 
# High freq. dielectric constant tensor:
#      x y z
#    x 1.890230 0.000000 0.000000 
#    y 0.000000 1.837540 0.000000 
#    z 0.000000 0.000000 1.885060 
# 
# From -- ./inp_files/31404.got.cif
#   From: 2010.03.12/outbox.cif.g09.slc.cpg/sg73_16_cif.got.tgz:31404.got - 2010.04.16 15:25:48.
