data_PCOD8296137
_publ_section_title
;
Structure prediction by ZEFSAII (Michael W. Deem and Ramdas Pophale) SiO2 
 PCOD8296137
Probable space group: I B C A 
;
_chemical_formula_sum "Si O2"
_cell_formula_units_Z 104
_cell_length_a 25.602496
_cell_length_b 19.629580
_cell_length_c 9.685344
_cell_angle_alpha 90.000000
_cell_angle_beta 90.000000
_cell_angle_gamma 90.000000
_cell_volume 4867.526950
_symmetry_space_group_name_H-M "I B C A "
_symmetry_group_IT_number 73
_symmetry_cell_setting 'orthorhombic'
loop_
_space_group_symop_operation_xyz
x,y,z
-x,1/2-y,z
x,-y,1/2-z
1/2-x,y,-z
-x,-y,-z
x,1/2+y,-z
-x,y,1/2+z
1/2+x,-y,z
1/2+x,1/2+y,1/2+z
1/2-x,-y,1/2+z
1/2+x,1/2-y,-z
-x,1/2+y,1/2-z
1/2-x,1/2-y,1/2-z
1/2+x,y,1/2-z
1/2-x,1/2+y,z
x,1/2-y,1/2+z
loop_
_atom_site_type_symbol
_atom_site_label
_atom_site_fract_x
_atom_site_fract_y
_atom_site_fract_z
Si Si1 0.387368 0.258944 0.547903
Si Si2 0.158223 0.953237 0.117799
Si Si3 0.942619 0.370378 0.384232
Si Si4 0.731498 0.639981 0.736210
Si Si5 0.750000 0.465284 0.000000
Si Si6 0.477083 0.826016 0.600498
Si Si7 0.321665 0.723005 0.693921
O O1 0.419924 0.205520 0.636739
O O2 0.423104 0.319433 0.486491
O O3 0.342772 0.287083 0.649599
O O4 0.366153 0.214712 0.419083
O O5 0.099926 0.928819 0.074615
O O6 0.187396 0.884415 0.159651
O O7 0.150765 0.000000 0.250000
O O8 0.195738 0.990421 0.003819
O O9 0.968914 0.375998 0.232373
O O10 0.984192 0.370518 0.506796
O O11 0.751145 0.580800 0.635429
O O12 0.706906 0.705243 0.659539
O O13 0.780794 0.662360 0.827757
O O14 0.500000 0.750000 0.635035
#
# Coordination Sequence:
#
# PCOD8296137 Si02
#       7
#    16  16  16  16   8  16  16
#     4  11  20  35  57  94 132 161 203 251 334 384
#     4  10  22  41  64  85 123 176 217 264 308 374
#     4  11  22  39  62  90 123 166 218 260 319 380
#     4  10  21  38  57  94 130 165 212 255 321 381
#     4  10  22  40  62  86 132 176 218 258 308 376
#     4  10  21  37  62  93 129 163 207 273 333 394
#     4  11  22  34  63  97 134 166 198 268 322 389
#
# _framework density 21.366087
#
# number of rings (size 3 to 8) (size 9 to 14) (size 15 to 20)
#    0.000    1.538    3.077    2.308    4.308    3.077 
#    0.000    0.769    0.000    0.000    0.000    0.000 
#    0.000    0.000    0.000    0.000    0.000    0.000 
#
# Total GULP energy -644429.073232 kJ/mol
# GULP energy per Si atom -12392.866793 kJ/mol
# Density = 2.131746 g / cm^3
# Si number density = 21.366087 Si / 1000 Ang^3
#
#
#
# Elastic Constant Matrix: (Units=GPa)
#
#
# Indices 1 2 3 4 5 6 
#
# 1 137.5229 40.4863 61.8276 0.0000 0.0000 0.0000
# 2 40.4863 65.3471 30.7440 0.0000 0.0000 0.0000
# 3 61.8276 30.7440 96.3470 0.0000 0.0000 0.0000
# 4 0.0000 0.0000 0.0000 12.7352 0.0000 0.0000
# 5 0.0000 0.0000 0.0000 0.0000 38.9237 0.0000
# 6 0.0000 0.0000 0.0000 0.0000 0.0000 34.9878
#
#
#
# Elastic Compliance Matrix: (Units=1/GPa)
#
#
# Indices 1 2 3 4 5 6 
#
# 1 0.011100 -0.004149 -0.005799 0.000000 0.000000 0.000000
# 2 -0.004149 0.019557 -0.003578 0.000000 0.000000 0.000000
# 3 -0.005799 -0.003578 0.015242 0.000000 0.000000 0.000000
# 4 0.000000 0.000000 0.000000 0.078523 0.000000 0.000000
# 5 0.000000 0.000000 0.000000 0.000000 0.025691 0.000000
# 6 0.000000 0.000000 0.000000 0.000000 0.000000 0.028581
#
#
# Mechanical properties :
#
#
# Convention : Reuss Voigt Hill
#
# Bulk Modulus (GPa) = 53.05920 62.81475 57.93698
# Shear Modulus (GPa) = 23.58163 28.40660 25.99411
#
# Velocity S-wave (km/s) = 3.32579 3.65021 3.49177
# Velocity P-wave (km/s) = 6.29565 6.87230 6.59028
#
# Compressibility (1/GPa) = 0.01884687
#
# Stress axis : x y z
#
# Youngs Moduli (GPa) = 90.08878 51.13341 65.60629
#
# Poissons Ratio (x) = 0.21214 0.38047
# Poissons Ratio (y) = 0.37376 0.23475
# Poissons Ratio (z) = 0.52245 0.18296
#
# Static dielectric constant tensor:
#      x y z
#    x 4.162170 0.000000 0.000000 
#    y 0.000000 3.612620 0.000000 
#    z 0.000000 0.000000 3.773830 
# 
# 
# High freq. dielectric constant tensor:
#      x y z
#    x 1.850910 0.000000 0.000000 
#    y 0.000000 1.806710 0.000000 
#    z 0.000000 0.000000 1.832810 
# 
# From -- ./inp_files/8489.got.cif
#   From: 2010.03.12/outbox.cif.g09.slc.cpg/sg73_5_cif.got.tgz:8489.got - 2010.04.16 15:25:48.
