data_PCOD8296248
_publ_section_title
;
Structure prediction by ZEFSAII (Michael W. Deem and Ramdas Pophale) SiO2 
 PCOD8296248
Probable space group: I B C A 
;
_chemical_formula_sum "Si O2"
_cell_formula_units_Z 120
_cell_length_a 11.344711
_cell_length_b 20.193704
_cell_length_c 24.049706
_cell_angle_alpha 90.000000
_cell_angle_beta 90.000000
_cell_angle_gamma 90.000000
_cell_volume 5509.588895
_symmetry_space_group_name_H-M "I B C A "
_symmetry_group_IT_number 73
_symmetry_cell_setting 'orthorhombic'
loop_
_space_group_symop_operation_xyz
x,y,z
-x,1/2-y,z
x,-y,1/2-z
1/2-x,y,-z
-x,-y,-z
x,1/2+y,-z
-x,y,1/2+z
1/2+x,-y,z
1/2+x,1/2+y,1/2+z
1/2-x,-y,1/2+z
1/2+x,1/2-y,-z
-x,1/2+y,1/2-z
1/2-x,1/2-y,1/2-z
1/2+x,y,1/2-z
1/2-x,1/2+y,z
x,1/2-y,1/2+z
loop_
_atom_site_type_symbol
_atom_site_label
_atom_site_fract_x
_atom_site_fract_y
_atom_site_fract_z
Si Si1 0.274224 0.946744 0.437302
Si Si2 0.333386 0.671049 0.134339
Si Si3 0.942704 0.894964 0.325891
Si Si4 0.269694 0.276680 0.062691
Si Si5 0.000000 0.750000 0.631115
Si Si6 0.977224 0.536399 0.640294
Si Si7 0.876937 0.354905 0.795790
Si Si8 0.713494 0.416545 0.603961
O O1 0.250000 0.925028 0.500000
O O2 0.225786 0.885338 0.402875
O O3 0.410327 0.964373 0.420198
O O4 0.201894 0.014226 0.428406
O O5 0.471151 0.657567 0.144483
O O6 0.327365 0.741706 0.102495
O O7 0.256023 0.673032 0.192076
O O8 0.911284 0.859712 0.268321
O O9 0.819075 0.912086 0.353125
O O10 0.010898 0.965723 0.331095
O O11 0.394426 0.257885 0.088083
O O12 0.264296 0.356227 0.061907
O O13 0.250000 0.251092 0.000000
O O14 0.973668 0.688842 0.671688
O O15 0.884524 0.569999 0.682212
O O16 0.090376 0.584828 0.637043
#
# Coordination Sequence:
#
# PCOD8296248 Si02
#       8
#    16  16  16  16   8  16  16  16
#     4  10  21  41  65  90 126 173 212 266 330 381
#     4  10  23  42  62  96 129 165 224 265 312 408
#     4  11  24  41  66  94 130 172 211 278 331 381
#     4  11  24  43  66  93 131 175 213 268 335 389
#     4  10  22  42  66  92 128 170 228 266 316 404
#     4  10  21  42  62  94 132 161 223 269 316 402
#     4  10  22  40  65  90 125 175 210 266 328 378
#     4  11  23  41  64  97 130 163 219 275 322 397
#
# _framework density 21.78021
#
# number of rings (size 3 to 8) (size 9 to 14) (size 15 to 20)
#    0.000    1.600    2.667    1.200    1.867    3.200 
#    2.400    2.667    0.000    0.000    0.000    0.000 
#    0.000    0.000    0.000    0.000    0.000    0.000 
#
# Total GULP energy -743317.735465 kJ/mol
# GULP energy per Si atom -12388.628924 kJ/mol
# Density = 2.173064 g / cm^3
# Si number density = 21.780210 Si / 1000 Ang^3
#
#
#
# Elastic Constant Matrix: (Units=GPa)
#
#
# Indices 1 2 3 4 5 6 
#
# 1 86.6818 7.2509 34.0277 0.0000 0.0000 0.0000
# 2 7.2509 74.8903 20.3033 0.0000 0.0000 0.0000
# 3 34.0277 20.3033 110.0371 0.0000 0.0000 0.0000
# 4 0.0000 0.0000 0.0000 14.1418 0.0000 0.0000
# 5 0.0000 0.0000 0.0000 0.0000 15.8604 0.0000
# 6 0.0000 0.0000 0.0000 0.0000 0.0000 30.2128
#
#
#
# Elastic Compliance Matrix: (Units=1/GPa)
#
#
# Indices 1 2 3 4 5 6 
#
# 1 0.013133 -0.000179 -0.004028 0.000000 0.000000 0.000000
# 2 -0.000179 0.014058 -0.002538 0.000000 0.000000 0.000000
# 3 -0.004028 -0.002538 0.010802 0.000000 0.000000 0.000000
# 4 0.000000 0.000000 0.000000 0.070713 0.000000 0.000000
# 5 0.000000 0.000000 0.000000 0.000000 0.063050 0.000000
# 6 0.000000 0.000000 0.000000 0.000000 0.000000 0.033099
#
#
# Mechanical properties :
#
#
# Convention : Reuss Voigt Hill
#
# Bulk Modulus (GPa) = 40.81461 43.86368 42.33914
# Shear Modulus (GPa) = 22.07379 26.04482 24.05930
#
# Velocity S-wave (km/s) = 3.18697 3.46179 3.32722
# Velocity P-wave (km/s) = 5.68528 6.01345 5.85167
#
# Compressibility (1/GPa) = 0.02450103
#
# Stress axis : x y z
#
# Youngs Moduli (GPa) = 76.14581 71.13170 92.57675
#
# Poissons Ratio (x) = 0.01277 0.37290
# Poissons Ratio (y) = 0.01367 0.23500
# Poissons Ratio (z) = 0.30672 0.18057
#
# Static dielectric constant tensor:
#      x y z
#    x 4.019910 0.000000 0.000000 
#    y 0.000000 4.412280 0.000000 
#    z 0.000000 0.000000 3.754100 
# 
# 
# High freq. dielectric constant tensor:
#      x y z
#    x 1.854370 0.000000 0.000000 
#    y 0.000000 1.873510 0.000000 
#    z 0.000000 0.000000 1.834700 
# 
# From -- ./inp_files/29072.got.cif
#   From: 2010.03.12/outbox.cif.g09.slc.cpg/sg73_15_cif.got.tgz:29072.got - 2010.04.16 15:25:48.
