data_PCOD8296955
_publ_section_title
;
Structure prediction by ZEFSAII (Michael W. Deem and Ramdas Pophale) SiO2 
 PCOD8296955
Probable space group: I B C A 
;
_chemical_formula_sum "Si O2"
_cell_formula_units_Z 80
_cell_length_a 13.135154
_cell_length_b 20.857262
_cell_length_c 13.892859
_cell_angle_alpha 90.000000
_cell_angle_beta 90.000000
_cell_angle_gamma 90.000000
_cell_volume 3806.134170
_symmetry_space_group_name_H-M "I B C A "
_symmetry_group_IT_number 73
_symmetry_cell_setting 'orthorhombic'
loop_
_space_group_symop_operation_xyz
x,y,z
-x,1/2-y,z
x,-y,1/2-z
1/2-x,y,-z
-x,-y,-z
x,1/2+y,-z
-x,y,1/2+z
1/2+x,-y,z
1/2+x,1/2+y,1/2+z
1/2-x,-y,1/2+z
1/2+x,1/2-y,-z
-x,1/2+y,1/2-z
1/2-x,1/2-y,1/2-z
1/2+x,y,1/2-z
1/2-x,1/2+y,z
x,1/2-y,1/2+z
loop_
_atom_site_type_symbol
_atom_site_label
_atom_site_fract_x
_atom_site_fract_y
_atom_site_fract_z
Si Si1 0.676514 0.500000 0.750000
Si Si2 0.153719 0.577217 0.162482
Si Si3 0.025285 0.152636 0.692676
Si Si4 0.750000 0.346069 0.000000
Si Si5 0.004717 0.981329 0.391019
Si Si6 0.338840 0.234370 0.826013
O O1 0.743135 0.436833 0.776544
O O2 0.603462 0.514328 0.841351
O O3 0.080498 0.628442 0.211703
O O4 0.097817 0.508804 0.156538
O O5 0.174299 0.606191 0.056619
O O6 0.996036 0.095092 0.620935
O O7 0.104208 0.200711 0.640235
O O8 0.921806 0.188308 0.725269
O O9 0.802591 0.300199 0.077440
O O10 0.000000 0.000000 0.500000
O O11 0.250000 0.250000 0.750000
#
# Coordination Sequence:
#
# PCOD8296955 Si02
#       6
#     8  16  16   8  16  16
#     4  12  22  42  72 102 146 184 220 286 372 420
#     4  12  23  44  73 104 143 185 230 298 365 425
#     4  11  23  47  68  99 145 181 239 289 352 423
#     4  12  26  48  74 106 142 186 250 294 354 434
#     4  12  25  43  69 108 141 186 232 297 365 429
#     4  11  25  47  72  98 139 195 236 296 352 412
#
# _framework density 21.018701
#
# number of rings (size 3 to 8) (size 9 to 14) (size 15 to 20)
#    0.000    0.400    6.000    3.600    0.000    0.000 
#   14.400    0.000    0.000    0.000    0.000    0.000 
#    0.000    0.000    0.000    0.000    0.000    0.000 
#
# Total GULP energy -495872.593072 kJ/mol
# GULP energy per Si atom -12396.814827 kJ/mol
# Density = 2.097086 g / cm^3
# Si number density = 21.018701 Si / 1000 Ang^3
#
#
#
# Elastic Constant Matrix: (Units=GPa)
#
#
# Indices 1 2 3 4 5 6 
#
# 1 151.4772 73.9913 75.8356 -0.0001 0.0000 0.0000
# 2 73.9913 136.0328 51.6412 0.0004 0.0001 0.0000
# 3 75.8356 51.6412 143.6489 0.0001 0.0002 0.0000
# 4 -0.0001 0.0004 0.0001 39.6391 0.0000 -0.0001
# 5 0.0000 0.0001 0.0002 0.0000 30.2917 0.0000
# 6 0.0000 0.0000 0.0000 -0.0001 0.0000 48.6158
#
#
#
# Elastic Compliance Matrix: (Units=1/GPa)
#
#
# Indices 1 2 3 4 5 6 
#
# 1 0.010770 -0.004284 -0.004145 0.000000 0.000000 0.000000
# 2 -0.004284 0.010217 -0.001411 0.000000 0.000000 0.000000
# 3 -0.004145 -0.001411 0.009657 0.000000 0.000000 0.000000
# 4 0.000000 0.000000 0.000000 0.025228 0.000000 0.000000
# 5 0.000000 0.000000 0.000000 0.000000 0.033012 0.000000
# 6 0.000000 0.000000 0.000000 0.000000 0.000000 0.020569
#
#
# Mechanical properties :
#
#
# Convention : Reuss Voigt Hill
#
# Bulk Modulus (GPa) = 91.22186 92.67723 91.94955
# Shear Modulus (GPa) = 37.65359 39.02205 38.33782
#
# Velocity S-wave (km/s) = 4.23712 4.31343 4.27545
# Velocity P-wave (km/s) = 8.21171 8.30639 8.25918
#
# Compressibility (1/GPa) = 0.01096229
#
# Stress axis : x y z
#
# Youngs Moduli (GPa) = 92.85315 97.87423 103.54910
#
# Poissons Ratio (x) = 0.41931 0.42926
# Poissons Ratio (y) = 0.39780 0.14614
# Poissons Ratio (z) = 0.38492 0.13813
#
# Static dielectric constant tensor:
#      x y z
#    x 4.245790 0.000000 0.000000 
#    y 0.000000 4.216540 0.000000 
#    z 0.000000 0.000000 3.757090 
# 
# 
# High freq. dielectric constant tensor:
#      x y z
#    x 1.845300 0.000000 0.000000 
#    y 0.000000 1.835950 0.000000 
#    z 0.000000 0.000000 1.808560 
# 
# From -- ./inp_files/16884.got.cif
#   From: 2010.03.12/outbox.cif.g09.slc.cpg/sg73_9_cif.got.tgz:16884.got - 2010.04.16 15:25:48.
