data_PCOD8296695
_publ_section_title
;
Structure prediction by ZEFSAII (Michael W. Deem and Ramdas Pophale) SiO2 
 PCOD8296695
Probable space group: I B C A 
;
_chemical_formula_sum "Si O2"
_cell_formula_units_Z 120
_cell_length_a 15.544758
_cell_length_b 20.983684
_cell_length_c 18.713355
_cell_angle_alpha 90.000000
_cell_angle_beta 90.000000
_cell_angle_gamma 90.000000
_cell_volume 6104.039836
_symmetry_space_group_name_H-M "I B C A "
_symmetry_group_IT_number 73
_symmetry_cell_setting 'orthorhombic'
loop_
_space_group_symop_operation_xyz
x,y,z
-x,1/2-y,z
x,-y,1/2-z
1/2-x,y,-z
-x,-y,-z
x,1/2+y,-z
-x,y,1/2+z
1/2+x,-y,z
1/2+x,1/2+y,1/2+z
1/2-x,-y,1/2+z
1/2+x,1/2-y,-z
-x,1/2+y,1/2-z
1/2-x,1/2-y,1/2-z
1/2+x,y,1/2-z
1/2-x,1/2+y,z
x,1/2-y,1/2+z
loop_
_atom_site_type_symbol
_atom_site_label
_atom_site_fract_x
_atom_site_fract_y
_atom_site_fract_z
Si Si1 0.344915 0.605282 0.311438
Si Si2 0.916122 0.925957 0.335016
Si Si3 0.684767 0.646285 0.280463
Si Si4 0.250615 0.974213 0.081077
Si Si5 0.039692 0.816974 0.374093
Si Si6 0.038643 0.500000 0.750000
Si Si7 0.086862 0.226784 0.282054
Si Si8 0.219532 0.121752 0.079119
O O1 0.270341 0.629685 0.260527
O O2 0.320244 0.568871 0.382051
O O3 0.404864 0.561978 0.262938
O O4 0.386286 0.671500 0.337054
O O5 0.885649 0.900560 0.256078
O O6 0.841685 0.959099 0.381758
O O7 0.962798 0.869283 0.378986
O O8 0.981683 0.983364 0.319423
O O9 0.657115 0.719043 0.268350
O O10 0.705083 0.640774 0.364833
O O11 0.214912 0.045607 0.088111
O O12 0.250000 0.951987 0.000000
O O13 0.065148 0.806383 0.292724
O O14 0.126798 0.843422 0.411799
O O15 0.000000 0.750000 0.405965
O O16 0.000000 0.250000 0.319043
O O17 0.250000 0.140734 0.000000
#
# Coordination Sequence:
#
# PCOD8296695 Si02
#       8
#    16  16  16  16  16   8  16  16
#     4  11  21  34  62  90 118 158 204 261 301 365
#     4  11  21  37  66  92 121 161 210 263 308 372
#     4  11  20  37  62  91 115 161 211 254 306 363
#     4  10  24  43  60  89 126 169 208 251 316 372
#     4  11  21  41  66  91 125 166 207 255 326 368
#     4  12  20  34  56  96 122 148 206 266 312 354
#     4  11  20  36  60  91 122 154 198 262 316 360
#     4  11  24  43  63  90 130 171 208 253 313 381
#
# _framework density 19.659110999999999
#
# number of rings (size 3 to 8) (size 9 to 14) (size 15 to 20)
#    0.000    1.067    5.333    2.800    0.000    2.133 
#    0.000   12.000    0.000    0.000    0.000    0.000 
#    0.000    0.000    0.000    0.000    0.000    0.000 
#
# Total GULP energy -743348.793507 kJ/mol
# GULP energy per Si atom -12389.146558 kJ/mol
# Density = 1.961437 g / cm^3
# Si number density = 19.659111 Si / 1000 Ang^3
#
#
#
# Elastic Constant Matrix: (Units=GPa)
#
#
# Indices 1 2 3 4 5 6 
#
# 1 115.3528 61.0880 43.1138 0.0000 0.0000 0.0000
# 2 61.0880 125.8901 34.3700 0.0000 0.0000 0.0000
# 3 43.1138 34.3700 83.8829 0.0000 0.0000 0.0000
# 4 0.0000 0.0000 0.0000 22.9356 0.0000 0.0000
# 5 0.0000 0.0000 0.0000 0.0000 22.0407 0.0000
# 6 0.0000 0.0000 0.0000 0.0000 0.0000 55.2381
#
#
#
# Elastic Compliance Matrix: (Units=1/GPa)
#
#
# Indices 1 2 3 4 5 6 
#
# 1 0.013101 -0.005088 -0.004649 0.000000 0.000000 0.000000
# 2 -0.005088 0.010920 -0.001859 0.000000 0.000000 0.000000
# 3 -0.004649 -0.001859 0.015073 0.000000 0.000000 0.000000
# 4 0.000000 0.000000 0.000000 0.043600 0.000000 0.000000
# 5 0.000000 0.000000 0.000000 0.000000 0.045371 0.000000
# 6 0.000000 0.000000 0.000000 0.000000 0.000000 0.018103
#
#
# Mechanical properties :
#
#
# Convention : Reuss Voigt Hill
#
# Bulk Modulus (GPa) = 62.88755 66.91882 64.90319
# Shear Modulus (GPa) = 28.62688 32.47980 30.55334
#
# Velocity S-wave (km/s) = 3.82011 4.06907 3.94656
# Velocity P-wave (km/s) = 7.17747 7.49600 7.33846
#
# Compressibility (1/GPa) = 0.01590140
#
# Stress axis : x y z
#
# Youngs Moduli (GPa) = 76.32922 91.57497 66.34572
#
# Poissons Ratio (x) = 0.46594 0.30843
# Poissons Ratio (y) = 0.38837 0.12335
# Poissons Ratio (z) = 0.35485 0.17025
#
# Static dielectric constant tensor:
#      x y z
#    x 4.471340 0.000000 0.000000 
#    y 0.000000 4.857960 0.000000 
#    z 0.000000 0.000000 3.336740 
# 
# 
# High freq. dielectric constant tensor:
#      x y z
#    x 1.784150 0.000000 0.000000 
#    y 0.000000 1.788220 0.000000 
#    z 0.000000 0.000000 1.725740 
# 
# From -- ./inp_files/26242.got.cif
#   From: 2010.03.12/outbox.cif.g09.slc.cpg/sg73_14_cif.got.tgz:26242.got - 2010.04.16 15:25:48.
