data_PCOD8296364
_publ_section_title
;
Structure prediction by ZEFSAII (Michael W. Deem and Ramdas Pophale) SiO2 
 PCOD8296364
Probable space group: I B C A 
;
_chemical_formula_sum "Si O2"
_cell_formula_units_Z 72
_cell_length_a 5.086734
_cell_length_b 23.068863
_cell_length_c 26.301616
_cell_angle_alpha 90.000000
_cell_angle_beta 90.000000
_cell_angle_gamma 90.000000
_cell_volume 3086.367595
_symmetry_space_group_name_H-M "I B C A "
_symmetry_group_IT_number 73
_symmetry_cell_setting 'orthorhombic'
loop_
_space_group_symop_operation_xyz
x,y,z
-x,1/2-y,z
x,-y,1/2-z
1/2-x,y,-z
-x,-y,-z
x,1/2+y,-z
-x,y,1/2+z
1/2+x,-y,z
1/2+x,1/2+y,1/2+z
1/2-x,-y,1/2+z
1/2+x,1/2-y,-z
-x,1/2+y,1/2-z
1/2-x,1/2-y,1/2-z
1/2+x,y,1/2-z
1/2-x,1/2+y,z
x,1/2-y,1/2+z
loop_
_atom_site_type_symbol
_atom_site_label
_atom_site_fract_x
_atom_site_fract_y
_atom_site_fract_z
Si Si1 0.745363 0.783037 0.814363
Si Si2 0.640754 0.964242 0.891119
Si Si3 0.000000 0.750000 0.088059
Si Si4 0.279887 0.415468 0.717613
Si Si5 0.008245 0.364417 0.967091
O O1 0.500000 0.750000 0.788572
O O2 0.730275 0.776610 0.875969
O O3 0.730608 0.848819 0.797767
O O4 0.000000 0.750000 0.794135
O O5 0.639356 0.952715 0.831054
O O6 0.564609 0.906696 0.921099
O O7 0.430765 0.013885 0.906027
O O8 0.108716 0.802596 0.054046
O O9 0.492076 0.430787 0.761064
O O10 0.250000 0.390417 0.000000
O O11 0.750000 0.354495 0.000000
#
# Coordination Sequence:
#
# PCOD8296364 Si02
#       5
#    16  16   8  16  16
#     4  10  22  39  66  96 143 181 229 272 347 418
#     4  12  27  49  74  99 142 187 233 299 351 414
#     4  10  24  44  72 102 142 186 224 292 352 426
#     4  12  26  44  69 103 139 182 238 291 348 413
#     4  12  27  45  73 106 139 181 235 287 355 426
#
# _framework density 23.328392999999998
#
# number of rings (size 3 to 8) (size 9 to 14) (size 15 to 20)
#    0.667    0.000    2.222    4.667    3.111    9.778 
#    0.000    0.000    0.000    0.000    0.000    0.000 
#    0.000    0.000    0.000    0.000    0.000    0.000 
#
# Total GULP energy -446375.669780 kJ/mol
# GULP energy per Si atom -12399.324161 kJ/mol
# Density = 2.327530 g / cm^3
# Si number density = 23.328393 Si / 1000 Ang^3
#
#
#
# Elastic Constant Matrix: (Units=GPa)
#
#
# Indices 1 2 3 4 5 6 
#
# 1 144.8691 16.3787 29.3422 0.0000 0.0000 0.0000
# 2 16.3787 93.1057 32.5266 0.0000 0.0000 0.0000
# 3 29.3422 32.5266 116.9581 0.0000 0.0000 0.0000
# 4 0.0000 0.0000 0.0000 21.8115 0.0000 0.0000
# 5 0.0000 0.0000 0.0000 0.0000 35.7985 0.0000
# 6 0.0000 0.0000 0.0000 0.0000 0.0000 25.5218
#
#
#
# Elastic Compliance Matrix: (Units=1/GPa)
#
#
# Indices 1 2 3 4 5 6 
#
# 1 0.007315 -0.000715 -0.001636 0.000000 0.000000 0.000000
# 2 -0.000715 0.011966 -0.003148 0.000000 0.000000 0.000000
# 3 -0.001636 -0.003148 0.009836 0.000000 0.000000 0.000000
# 4 0.000000 0.000000 0.000000 0.045847 0.000000 0.000000
# 5 0.000000 0.000000 0.000000 0.000000 0.027934 0.000000
# 6 0.000000 0.000000 0.000000 0.000000 0.000000 0.039182
#
#
# Mechanical properties :
#
#
# Convention : Reuss Voigt Hill
#
# Bulk Modulus (GPa) = 55.19491 56.82532 56.01012
# Shear Modulus (GPa) = 31.42280 35.07205 33.24742
#
# Velocity S-wave (km/s) = 3.67410 3.88158 3.77927
# Velocity P-wave (km/s) = 6.45833 6.67088 6.56547
#
# Compressibility (1/GPa) = 0.01811761
#
# Stress axis : x y z
#
# Youngs Moduli (GPa) = 136.70425 83.56868 101.66554
#
# Poissons Ratio (x) = 0.05977 0.16635
# Poissons Ratio (y) = 0.09777 0.32009
# Poissons Ratio (z) = 0.22369 0.26311
#
# Static dielectric constant tensor:
#      x y z
#    x 4.168810 0.000000 0.000000 
#    y 0.000000 4.119800 0.000000 
#    z 0.000000 0.000000 4.314280 
# 
# 
# High freq. dielectric constant tensor:
#      x y z
#    x 1.922050 0.000000 0.000000 
#    y 0.000000 1.927770 0.000000 
#    z 0.000000 0.000000 1.939160 
# 
# From -- ./inp_files/30861.got.cif
#   From: 2010.03.12/outbox.cif.g09.slc.cpg/sg73_16_cif.got.tgz:30861.got - 2010.04.16 15:25:48.
