data_PCOD8296958
_publ_section_title
;
Structure prediction by ZEFSAII (Michael W. Deem and Ramdas Pophale) SiO2 
 PCOD8296958
Probable space group: I B C A 
;
_chemical_formula_sum "Si O2"
_cell_formula_units_Z 48
_cell_length_a 9.492284
_cell_length_b 17.843750
_cell_length_c 11.934032
_cell_angle_alpha 90.000000
_cell_angle_beta 90.000000
_cell_angle_gamma 90.000000
_cell_volume 2021.361787
_symmetry_space_group_name_H-M "I B C A "
_symmetry_group_IT_number 73
_symmetry_cell_setting 'orthorhombic'
loop_
_space_group_symop_operation_xyz
x,y,z
-x,1/2-y,z
x,-y,1/2-z
1/2-x,y,-z
-x,-y,-z
x,1/2+y,-z
-x,y,1/2+z
1/2+x,-y,z
1/2+x,1/2+y,1/2+z
1/2-x,-y,1/2+z
1/2+x,1/2-y,-z
-x,1/2+y,1/2-z
1/2-x,1/2-y,1/2-z
1/2+x,y,1/2-z
1/2-x,1/2+y,z
x,1/2-y,1/2+z
loop_
_atom_site_type_symbol
_atom_site_label
_atom_site_fract_x
_atom_site_fract_y
_atom_site_fract_z
Si Si1 0.982246 0.165992 0.218461
Si Si2 0.877572 0.961451 0.928159
Si Si3 0.797645 0.882046 0.626704
O O1 0.062536 0.106890 0.141091
O O2 0.053482 0.158552 0.342399
O O3 0.000000 0.250000 0.172446
O O4 0.817155 0.146082 0.217691
O O5 0.812812 0.029016 0.854104
O O6 0.750000 0.927294 0.000000
O O7 0.000000 0.000000 0.000000
O O8 0.750000 0.861613 0.500000
#
# Coordination Sequence:
#
# PCOD8296958 Si02
#       3
#    16  16  16
#     4  12  27  46  74 113 153 199 257 325 386 446
#     4  11  23  47  77 109 147 204 259 307 381 470
#     4  11  26  48  72 108 152 203 258 305 388 464
#
# _framework density 23.746369000000001
#
# number of rings (size 3 to 8) (size 9 to 14) (size 15 to 20)
#    0.000    0.667    6.667    2.000    4.667    5.333 
#    0.000    0.000    0.000    0.000    0.000    0.000 
#    0.000    0.000    0.000    0.000    0.000    0.000 
#
# Total GULP energy -297482.958805 kJ/mol
# GULP energy per Si atom -12395.123284 kJ/mol
# Density = 2.369232 g / cm^3
# Si number density = 23.746369 Si / 1000 Ang^3
#
#
#
# Elastic Constant Matrix: (Units=GPa)
#
#
# Indices 1 2 3 4 5 6 
#
# 1 115.4404 30.2640 48.9073 0.0000 0.0000 0.0000
# 2 30.2640 168.9438 39.3340 0.0000 0.0000 0.0000
# 3 48.9073 39.3340 95.2739 0.0001 0.0001 0.0000
# 4 0.0000 0.0000 0.0001 23.9972 0.0001 0.0000
# 5 0.0000 0.0000 0.0001 0.0001 48.4834 0.0000
# 6 0.0000 0.0000 0.0000 0.0000 0.0000 38.4609
#
#
#
# Elastic Compliance Matrix: (Units=1/GPa)
#
#
# Indices 1 2 3 4 5 6 
#
# 1 0.011152 -0.000736 -0.005421 0.000000 0.000000 0.000000
# 2 -0.000736 0.006597 -0.002346 0.000000 0.000000 0.000000
# 3 -0.005421 -0.002346 0.014247 0.000000 0.000000 0.000000
# 4 0.000000 0.000000 0.000000 0.041672 0.000000 0.000000
# 5 0.000000 0.000000 0.000000 0.000000 0.020626 0.000000
# 6 0.000000 0.000000 0.000000 0.000000 0.000000 0.026000
#
#
# Mechanical properties :
#
#
# Convention : Reuss Voigt Hill
#
# Bulk Modulus (GPa) = 66.70558 68.51876 67.61217
# Shear Modulus (GPa) = 35.13794 39.59850 37.36822
#
# Velocity S-wave (km/s) = 3.85088 4.08801 3.97122
# Velocity P-wave (km/s) = 6.92273 7.15538 7.04002
#
# Compressibility (1/GPa) = 0.01499125
#
# Stress axis : x y z
#
# Youngs Moduli (GPa) = 89.67025 151.58159 70.18830
#
# Poissons Ratio (x) = 0.11150 0.38049
# Poissons Ratio (y) = 0.06596 0.16466
# Poissons Ratio (z) = 0.48610 0.35561
#
# Static dielectric constant tensor:
#      x y z
#    x 5.272720 0.000000 0.000000 
#    y 0.000000 4.400300 0.000000 
#    z 0.000000 0.000000 4.690120 
# 
# 
# High freq. dielectric constant tensor:
#      x y z
#    x 1.967300 0.000000 0.000000 
#    y 0.000000 1.937340 0.000000 
#    z 0.000000 0.000000 1.922340 
# 
# From -- ./inp_files/4296.got.cif
#   From: 2010.03.12/outbox.cif.g09.slc.cpg/sg73_3_cif.got.tgz:4296.got - 2010.04.16 15:25:48.
