data_PCOD8296343
_publ_section_title
;
Structure prediction by ZEFSAII (Michael W. Deem and Ramdas Pophale) SiO2 
 PCOD8296343
Probable space group: I B C A 
;
_chemical_formula_sum "Si O2"
_cell_formula_units_Z 56
_cell_length_a 24.397797
_cell_length_b 8.743144
_cell_length_c 12.534568
_cell_angle_alpha 90.000000
_cell_angle_beta 90.000000
_cell_angle_gamma 90.000000
_cell_volume 2673.791975
_symmetry_space_group_name_H-M "I B C A "
_symmetry_group_IT_number 73
_symmetry_cell_setting 'orthorhombic'
loop_
_space_group_symop_operation_xyz
x,y,z
-x,1/2-y,z
x,-y,1/2-z
1/2-x,y,-z
-x,-y,-z
x,1/2+y,-z
-x,y,1/2+z
1/2+x,-y,z
1/2+x,1/2+y,1/2+z
1/2-x,-y,1/2+z
1/2+x,1/2-y,-z
-x,1/2+y,1/2-z
1/2-x,1/2-y,1/2-z
1/2+x,y,1/2-z
1/2-x,1/2+y,z
x,1/2-y,1/2+z
loop_
_atom_site_type_symbol
_atom_site_label
_atom_site_fract_x
_atom_site_fract_y
_atom_site_fract_z
Si Si1 0.452574 0.040231 0.868187
Si Si2 0.750000 0.774399 0.000000
Si Si3 0.928602 0.377282 0.574361
Si Si4 0.811229 0.022798 0.129105
O O1 0.518327 0.051764 0.868072
O O2 0.424718 0.196553 0.907158
O O3 0.431768 0.000000 0.750000
O O4 0.432635 0.905704 0.946928
O O5 0.718059 0.673823 0.085886
O O6 0.794870 0.876032 0.060047
O O7 0.876478 0.460497 0.624129
O O8 0.791983 0.000000 0.250000
#
# Coordination Sequence:
#
# PCOD8296343 Si02
#       4
#    16   8  16  16
#     4  10  22  39  59  89 126 156 191 241 287 346
#     4  10  24  40  60  90 116 148 204 248 290 354
#     4  10  22  38  61  89 118 157 201 234 288 358
#     4  11  22  41  63  86 118 156 194 246 298 342
#
# _framework density 20.944037999999999
#
# number of rings (size 3 to 8) (size 9 to 14) (size 15 to 20)
#    0.000    1.714    0.000    3.429    0.000   13.714 
#    0.000    7.143    0.000    0.000    0.000    0.000 
#    0.000    0.000    0.000    0.000    0.000    0.000 
#
# Total GULP energy -347370.693381 kJ/mol
# GULP energy per Si atom -12406.096192 kJ/mol
# Density = 2.089637 g / cm^3
# Si number density = 20.944038 Si / 1000 Ang^3
#
#
#
# Elastic Constant Matrix: (Units=GPa)
#
#
# Indices 1 2 3 4 5 6 
#
# 1 98.6359 49.9135 31.7950 0.0000 0.0000 0.0000
# 2 49.9135 149.7051 90.0590 0.0000 0.0000 0.0000
# 3 31.7950 90.0590 179.6495 0.0000 0.0000 0.0000
# 4 0.0000 0.0000 0.0000 26.2329 0.0000 0.0000
# 5 0.0000 0.0000 0.0000 0.0000 20.0368 0.0000
# 6 0.0000 0.0000 0.0000 0.0000 0.0000 15.1672
#
#
#
# Elastic Compliance Matrix: (Units=1/GPa)
#
#
# Indices 1 2 3 4 5 6 
#
# 1 0.012200 -0.003964 -0.000172 0.000000 0.000000 0.000000
# 2 -0.003964 0.010852 -0.004739 0.000000 0.000000 0.000000
# 3 -0.000172 -0.004739 0.007972 0.000000 0.000000 0.000000
# 4 0.000000 0.000000 0.000000 0.038120 0.000000 0.000000
# 5 0.000000 0.000000 0.000000 0.000000 0.049908 0.000000
# 6 0.000000 0.000000 0.000000 0.000000 0.000000 0.065932
#
#
# Mechanical properties :
#
#
# Convention : Reuss Voigt Hill
#
# Bulk Modulus (GPa) = 75.33056 85.72505 80.52780
# Shear Modulus (GPa) = 24.13615 29.36893 26.75254
#
# Velocity S-wave (km/s) = 3.39840 3.74874 3.57786
# Velocity P-wave (km/s) = 7.17248 7.73025 7.45658
#
# Compressibility (1/GPa) = 0.01327483
#
# Stress axis : x y z
#
# Youngs Moduli (GPa) = 81.96916 92.14779 125.43402
#
# Poissons Ratio (x) = 0.36528 0.02157
# Poissons Ratio (y) = 0.32493 0.59439
# Poissons Ratio (z) = 0.01409 0.43665
#
# Static dielectric constant tensor:
#      x y z
#    x 3.706830 0.000000 0.000000 
#    y 0.000000 3.783940 0.000000 
#    z 0.000000 0.000000 3.779410 
# 
# 
# High freq. dielectric constant tensor:
#      x y z
#    x 1.816400 0.000000 0.000000 
#    y 0.000000 1.826520 0.000000 
#    z 0.000000 0.000000 1.825770 
# 
# From -- ./inp_files/3845.got.cif
#   From: 2010.03.12/outbox.cif.g09.slc.cpg/sg73_2_cif.got.tgz:3845.got - 2010.04.16 15:25:48.
