data_PCOD8296413
_publ_section_title
;
Structure prediction by ZEFSAII (Michael W. Deem and Ramdas Pophale) SiO2 
 PCOD8296413
Probable space group: I B C A 
;
_chemical_formula_sum "Si O2"
_cell_formula_units_Z 88
_cell_length_a 28.466777
_cell_length_b 5.059612
_cell_length_c 26.611599
_cell_angle_alpha 90.000000
_cell_angle_beta 90.000000
_cell_angle_gamma 90.000000
_cell_volume 3832.891131
_symmetry_space_group_name_H-M "I B C A "
_symmetry_group_IT_number 73
_symmetry_cell_setting 'orthorhombic'
loop_
_space_group_symop_operation_xyz
x,y,z
-x,1/2-y,z
x,-y,1/2-z
1/2-x,y,-z
-x,-y,-z
x,1/2+y,-z
-x,y,1/2+z
1/2+x,-y,z
1/2+x,1/2+y,1/2+z
1/2-x,-y,1/2+z
1/2+x,1/2-y,-z
-x,1/2+y,1/2-z
1/2-x,1/2-y,1/2-z
1/2+x,y,1/2-z
1/2-x,1/2+y,z
x,1/2-y,1/2+z
loop_
_atom_site_type_symbol
_atom_site_label
_atom_site_fract_x
_atom_site_fract_y
_atom_site_fract_z
Si Si1 0.220760 0.032379 0.865904
Si Si2 0.873451 0.523326 0.692776
Si Si3 0.067346 0.433555 0.466528
Si Si4 0.175210 0.594678 0.031460
Si Si5 0.934057 0.976998 0.807827
Si Si6 0.500000 0.250000 0.118474
O O1 0.259358 0.816659 0.850110
O O2 0.172306 0.966977 0.839240
O O3 0.211451 0.022197 0.925204
O O4 0.857513 0.500000 0.750000
O O5 0.892737 0.814182 0.681303
O O6 0.914279 0.313115 0.680178
O O7 0.054813 0.710554 0.492482
O O8 0.121563 0.428331 0.449520
O O9 0.037941 0.399166 0.415890
O O10 0.184500 0.894126 0.014231
O O11 0.976970 0.028702 0.845566
O O12 0.951743 0.000000 0.750000
#
# Coordination Sequence:
#
# PCOD8296413 Si02
#       6
#    16  16  16  16  16   8
#     4  12  25  39  65 100 124 154 210 263 313 380
#     4  10  23  46  66  88 128 170 206 255 319 380
#     4  10  23  41  62  92 126 167 216 257 310 383
#     4  10  22  41  61  84 124 168 202 247 309 372
#     4  10  24  42  65  93 126 171 216 254 310 383
#     4  12  24  40  68  96 132 168 212 278 322 354
#
# _framework density 22.959167999999998
#
# number of rings (size 3 to 8) (size 9 to 14) (size 15 to 20)
#    0.000    1.455    0.000    3.818    0.000   13.091 
#    0.000    0.000    0.000    0.000    0.000    0.000 
#    0.000    0.000    0.000    0.000    0.000    0.000 
#
# Total GULP energy -545923.242035 kJ/mol
# GULP energy per Si atom -12407.346410 kJ/mol
# Density = 2.290691 g / cm^3
# Si number density = 22.959168 Si / 1000 Ang^3
#
#
#
# Elastic Constant Matrix: (Units=GPa)
#
#
# Indices 1 2 3 4 5 6 
#
# 1 64.9989 23.1606 44.0669 0.0000 0.0000 0.0000
# 2 23.1606 91.6962 16.5058 0.0000 0.0000 0.0000
# 3 44.0669 16.5058 80.8280 0.0000 0.0000 0.0000
# 4 0.0000 0.0000 0.0000 20.6766 0.0000 0.0000
# 5 0.0000 0.0000 0.0000 0.0000 19.9705 0.0000
# 6 0.0000 0.0000 0.0000 0.0000 0.0000 24.5790
#
#
#
# Elastic Compliance Matrix: (Units=1/GPa)
#
#
# Indices 1 2 3 4 5 6 
#
# 1 0.025838 -0.004143 -0.013241 0.000000 0.000000 0.000000
# 2 -0.004143 0.011986 -0.000189 0.000000 0.000000 0.000000
# 3 -0.013241 -0.000189 0.019629 0.000000 0.000000 0.000000
# 4 0.000000 0.000000 0.000000 0.048364 0.000000 0.000000
# 5 0.000000 0.000000 0.000000 0.000000 0.050074 0.000000
# 6 0.000000 0.000000 0.000000 0.000000 0.000000 0.040685
#
#
# Mechanical properties :
#
#
# Convention : Reuss Voigt Hill
#
# Bulk Modulus (GPa) = 44.82655 44.99886 44.91271
# Shear Modulus (GPa) = 20.90683 23.29788 22.10235
#
# Velocity S-wave (km/s) = 3.02090 3.18897 3.10608
# Velocity P-wave (km/s) = 5.63335 5.76207 5.69808
#
# Compressibility (1/GPa) = 0.02230821
#
# Stress axis : x y z
#
# Youngs Moduli (GPa) = 38.70325 83.43087 50.94445
#
# Poissons Ratio (x) = 0.34563 0.67453
# Poissons Ratio (y) = 0.16034 0.00963
# Poissons Ratio (z) = 0.51245 0.01577
#
# Static dielectric constant tensor:
#      x y z
#    x 4.104850 0.000000 0.000000 
#    y 0.000000 4.170160 0.000000 
#    z 0.000000 0.000000 4.086730 
# 
# 
# High freq. dielectric constant tensor:
#      x y z
#    x 1.912680 0.000000 0.000000 
#    y 0.000000 1.916430 0.000000 
#    z 0.000000 0.000000 1.905920 
# 
# From -- ./inp_files/3098.got.cif
#   From: 2010.03.12/outbox.cif.g09.slc.cpg/sg73_2_cif.got.tgz:3098.got - 2010.04.16 15:25:48.
