data_PCOD8296316
_publ_section_title
;
Structure prediction by ZEFSAII (Michael W. Deem and Ramdas Pophale) SiO2 
 PCOD8296316
Probable space group: I B C A 
;
_chemical_formula_sum "Si O2"
_cell_formula_units_Z 112
_cell_length_a 26.990990
_cell_length_b 12.448793
_cell_length_c 17.695334
_cell_angle_alpha 90.000000
_cell_angle_beta 90.000000
_cell_angle_gamma 90.000000
_cell_volume 5945.725078
_symmetry_space_group_name_H-M "I B C A "
_symmetry_group_IT_number 73
_symmetry_cell_setting 'orthorhombic'
loop_
_space_group_symop_operation_xyz
x,y,z
-x,1/2-y,z
x,-y,1/2-z
1/2-x,y,-z
-x,-y,-z
x,1/2+y,-z
-x,y,1/2+z
1/2+x,-y,z
1/2+x,1/2+y,1/2+z
1/2-x,-y,1/2+z
1/2+x,1/2-y,-z
-x,1/2+y,1/2-z
1/2-x,1/2-y,1/2-z
1/2+x,y,1/2-z
1/2-x,1/2+y,z
x,1/2-y,1/2+z
loop_
_atom_site_type_symbol
_atom_site_label
_atom_site_fract_x
_atom_site_fract_y
_atom_site_fract_z
Si Si1 0.551614 0.294006 0.358802
Si Si2 0.402657 0.511228 0.839527
Si Si3 0.802358 0.982953 0.586013
Si Si4 0.344733 0.704991 0.131496
Si Si5 0.366229 0.890040 0.786700
Si Si6 0.946017 0.768494 0.180594
Si Si7 0.690768 0.070853 0.918965
O O1 0.500000 0.250000 0.394749
O O2 0.560838 0.420433 0.374950
O O3 0.597823 0.225970 0.392324
O O4 0.549096 0.282998 0.269500
O O5 0.396781 0.500000 0.750000
O O6 0.424025 0.627199 0.860597
O O7 0.348772 0.502847 0.876410
O O8 0.822703 0.914105 0.655249
O O9 0.743439 0.984359 0.596068
O O10 0.819500 0.927007 0.508595
O O11 0.823315 0.104024 0.586267
O O12 0.343229 0.686466 0.221990
O O13 0.311013 0.807672 0.112300
O O14 0.410700 0.833973 0.832981
O O15 0.387358 0.000000 0.750000
O O16 0.000000 0.750000 0.144277
#
# Coordination Sequence:
#
# PCOD8296316 Si02
#       7
#    16  16  16  16  16  16  16
#     4   8  15  30  53  76 102 137 171 210 259 307
#     4   9  18  31  50  78 106 134 172 215 260 307
#     4  10  22  36  55  76 100 141 179 212 259 315
#     4   9  19  36  54  78 106 132 175 220 255 304
#     4   9  19  35  54  78 104 137 179 217 256 304
#     4   9  17  28  49  80 107 132 167 216 262 304
#     4  10  22  37  53  77 106 139 174 212 267 316
#
# _framework density 18.837064000000002
#
# number of rings (size 3 to 8) (size 9 to 14) (size 15 to 20)
#    0.000    2.857    0.000    0.857    0.000   12.000 
#    0.000    0.000    0.000   12.000    0.000    0.000 
#    0.000    0.000    0.000    0.000    0.000    0.000 
#
# Total GULP energy -694245.116661 kJ/mol
# GULP energy per Si atom -12397.234226 kJ/mol
# Density = 1.879419 g / cm^3
# Si number density = 18.837064 Si / 1000 Ang^3
#
#
#
# Elastic Constant Matrix: (Units=GPa)
#
#
# Indices 1 2 3 4 5 6 
#
# 1 135.7165 82.8251 41.2808 0.0000 0.0000 0.0000
# 2 82.8251 145.3973 44.3857 0.0000 0.0000 0.0000
# 3 41.2808 44.3857 52.8071 0.0000 0.0000 0.0000
# 4 0.0000 0.0000 0.0000 18.8942 0.0000 0.0000
# 5 0.0000 0.0000 0.0000 0.0000 7.8303 0.0000
# 6 0.0000 0.0000 0.0000 0.0000 0.0000 30.0599
#
#
#
# Elastic Compliance Matrix: (Units=1/GPa)
#
#
# Indices 1 2 3 4 5 6 
#
# 1 0.012193 -0.005429 -0.004968 0.000000 0.000000 0.000000
# 2 -0.005429 0.011669 -0.005564 0.000000 0.000000 0.000000
# 3 -0.004968 -0.005564 0.027497 0.000000 0.000000 0.000000
# 4 0.000000 0.000000 0.000000 0.052926 0.000000 0.000000
# 5 0.000000 0.000000 0.000000 0.000000 0.127708 0.000000
# 6 0.000000 0.000000 0.000000 0.000000 0.000000 0.033267
#
#
# Mechanical properties :
#
#
# Convention : Reuss Voigt Hill
#
# Bulk Modulus (GPa) = 51.44947 74.54490 62.99718
# Shear Modulus (GPa) = 16.46573 22.38553 19.42563
#
# Velocity S-wave (km/s) = 2.95975 3.45102 3.21478
# Velocity P-wave (km/s) = 6.24919 7.45244 6.87718
#
# Compressibility (1/GPa) = 0.01943655
#
# Stress axis : x y z
#
# Youngs Moduli (GPa) = 82.01721 85.69908 36.36716
#
# Poissons Ratio (x) = 0.46524 0.18068
# Poissons Ratio (y) = 0.44525 0.20235
# Poissons Ratio (z) = 0.40748 0.47683
#
# Static dielectric constant tensor:
#      x y z
#    x 3.612700 0.000000 0.000000 
#    y 0.000000 3.622570 0.000000 
#    z 0.000000 0.000000 3.183270 
# 
# 
# High freq. dielectric constant tensor:
#      x y z
#    x 1.733470 0.000000 0.000000 
#    y 0.000000 1.738930 0.000000 
#    z 0.000000 0.000000 1.698160 
# 
# From -- ./inp_files/27304.got.cif
#   From: 2010.03.12/outbox.cif.g09.slc.cpg/sg73_14_cif.got.tgz:27304.got - 2010.04.16 15:25:48.
