data_PCOD8296103
_publ_section_title
;
Structure prediction by ZEFSAII (Michael W. Deem and Ramdas Pophale) SiO2 
 PCOD8296103
Probable space group: I B C A 
;
_chemical_formula_sum "Si O2"
_cell_formula_units_Z 56
_cell_length_a 33.534842
_cell_length_b 16.177462
_cell_length_c 5.054838
_cell_angle_alpha 90.000000
_cell_angle_beta 90.000000
_cell_angle_gamma 90.000000
_cell_volume 2742.293249
_symmetry_space_group_name_H-M "I B C A "
_symmetry_group_IT_number 73
_symmetry_cell_setting 'orthorhombic'
loop_
_space_group_symop_operation_xyz
x,y,z
-x,1/2-y,z
x,-y,1/2-z
1/2-x,y,-z
-x,-y,-z
x,1/2+y,-z
-x,y,1/2+z
1/2+x,-y,z
1/2+x,1/2+y,1/2+z
1/2-x,-y,1/2+z
1/2+x,1/2-y,-z
-x,1/2+y,1/2-z
1/2-x,1/2-y,1/2-z
1/2+x,y,1/2-z
1/2-x,1/2+y,z
x,1/2-y,1/2+z
loop_
_atom_site_type_symbol
_atom_site_label
_atom_site_fract_x
_atom_site_fract_y
_atom_site_fract_z
Si Si1 0.250000 0.444461 0.500000
Si Si2 0.811340 0.195097 0.628327
Si Si3 0.097334 0.301758 0.602592
Si Si4 0.976798 0.402296 0.239627
O O1 0.236980 0.500000 0.250000
O O2 0.213008 0.388461 0.589076
O O3 0.800474 0.262424 0.405706
O O4 0.857369 0.167218 0.627668
O O5 0.089283 0.274137 0.302338
O O6 0.068299 0.376143 0.679608
O O7 0.977136 0.500000 0.250000
O O8 0.993187 0.366939 0.516075
#
# Coordination Sequence:
#
# PCOD8296103 Si02
#       4
#     8  16  16  16
#     4  12  24  38  60  92 118 144 190 236 278 334
#     4  10  21  40  61  82 115 155 188 227 287 345
#     4  10  21  36  57  83 107 141 189 231 269 321
#     4  10  21  36  53  77 111 148 181 221 279 332
#
# _framework density 20.420864999999999
#
# number of rings (size 3 to 8) (size 9 to 14) (size 15 to 20)
#    0.000    1.714    0.000    4.286    0.000    4.571 
#    0.000    4.286    0.000    0.000    0.000    0.000 
#    0.000    0.000    0.000    0.000    0.000    0.000 
#
# Total GULP energy -347281.047814 kJ/mol
# GULP energy per Si atom -12402.894565 kJ/mol
# Density = 2.037439 g / cm^3
# Si number density = 20.420865 Si / 1000 Ang^3
#
#
#
# Elastic Constant Matrix: (Units=GPa)
#
#
# Indices 1 2 3 4 5 6 
#
# 1 121.4124 56.8703 46.1331 -0.0060 0.0003 -0.0002
# 2 56.8703 61.2358 33.1983 -0.0042 -0.0113 0.0026
# 3 46.1331 33.1983 116.3042 -0.0286 -0.0108 -0.0050
# 4 -0.0060 -0.0042 -0.0286 29.8717 -0.0055 -0.0027
# 5 0.0003 -0.0113 -0.0108 -0.0055 31.3533 0.0098
# 6 -0.0002 0.0026 -0.0050 -0.0027 0.0098 27.3676
#
#
#
# Elastic Compliance Matrix: (Units=1/GPa)
#
#
# Indices 1 2 3 4 5 6 
#
# 1 0.015102 -0.012751 -0.002351 -0.000001 -0.000006 0.000001
# 2 -0.012751 0.030086 -0.003530 -0.000002 0.000010 -0.000004
# 3 -0.002351 -0.003530 0.010538 0.000009 0.000002 0.000002
# 4 -0.000001 -0.000002 0.000009 0.033476 0.000006 0.000003
# 5 -0.000006 0.000010 0.000002 0.000006 0.031895 -0.000011
# 6 0.000001 -0.000004 0.000002 0.000003 -0.000011 0.036540
#
#
# Mechanical properties :
#
#
# Convention : Reuss Voigt Hill
#
# Bulk Modulus (GPa) = 54.16292 63.48396 58.82344
# Shear Modulus (GPa) = 24.86870 28.56858 26.71864
#
# Velocity S-wave (km/s) = 3.49350 3.74437 3.62110
# Velocity P-wave (km/s) = 6.54627 7.06038 6.80818
#
# Compressibility (1/GPa) = 0.01846281
#
# Stress axis : x y z
#
# Youngs Moduli (GPa) = 66.21473 33.23763 94.89284
#
# Poissons Ratio (x) = 0.42382 0.22307
# Poissons Ratio (y) = 0.84433 0.33498
# Poissons Ratio (z) = 0.15565 0.11733
#
# Static dielectric constant tensor:
#      x y z
#    x 3.811070 0.000000 0.000000 
#    y 0.000000 3.375420 0.000000 
#    z 0.000000 0.000000 4.197040 
# 
# 
# High freq. dielectric constant tensor:
#      x y z
#    x 1.807660 0.000000 0.000000 
#    y 0.000000 1.775120 0.000000 
#    z 0.000000 0.000000 1.823620 
# 
# From -- ./inp_files/683.got.cif
#   From: 2010.03.12/outbox.cif.g09.slc.cpg/sg73_1_cif.got.tgz:683.got - 2010.04.16 15:25:48.
