data_PCOD8296926
_publ_section_title
;
Structure prediction by ZEFSAII (Michael W. Deem and Ramdas Pophale) SiO2 
 PCOD8296926
Probable space group: I B C A 
;
_chemical_formula_sum "Si O2"
_cell_formula_units_Z 88
_cell_length_a 14.268698
_cell_length_b 11.458340
_cell_length_c 24.211963
_cell_angle_alpha 90.000000
_cell_angle_beta 90.000000
_cell_angle_gamma 90.000000
_cell_volume 3958.549249
_symmetry_space_group_name_H-M "I B C A "
_symmetry_group_IT_number 73
_symmetry_cell_setting 'orthorhombic'
loop_
_space_group_symop_operation_xyz
x,y,z
-x,1/2-y,z
x,-y,1/2-z
1/2-x,y,-z
-x,-y,-z
x,1/2+y,-z
-x,y,1/2+z
1/2+x,-y,z
1/2+x,1/2+y,1/2+z
1/2-x,-y,1/2+z
1/2+x,1/2-y,-z
-x,1/2+y,1/2-z
1/2-x,1/2-y,1/2-z
1/2+x,y,1/2-z
1/2-x,1/2+y,z
x,1/2-y,1/2+z
loop_
_atom_site_type_symbol
_atom_site_label
_atom_site_fract_x
_atom_site_fract_y
_atom_site_fract_z
Si Si1 0.404764 0.399465 0.934353
Si Si2 0.149580 0.925870 0.299065
Si Si3 0.110777 0.367535 0.580785
Si Si4 0.100637 0.695181 0.254004
Si Si5 0.352240 0.516134 0.827207
Si Si6 0.250000 0.013105 0.000000
O O1 0.379790 0.271378 0.911878
O O2 0.515054 0.403099 0.951698
O O3 0.378720 0.500836 0.890764
O O4 0.337066 0.429469 0.985029
O O5 0.095405 0.919775 0.357534
O O6 0.171966 0.796394 0.274808
O O7 0.096928 0.000000 0.250000
O O8 0.242962 0.997288 0.313501
O O9 0.205660 0.409182 0.549697
O O10 0.119707 0.647188 0.192219
O O11 0.096062 0.585763 0.294565
O O12 0.000000 0.750000 0.256990
#
# Coordination Sequence:
#
# PCOD8296926 Si02
#       6
#    16  16  16  16  16   8
#     4  11  24  46  70 102 136 179 230 291 356 412
#     4  12  24  41  67 100 143 183 231 272 347 416
#     4  11  25  45  71 102 139 180 228 293 352 413
#     4  11  24  40  64  98 139 187 229 277 338 414
#     4  11  23  42  64  96 138 184 231 277 341 416
#     4  12  24  48  76 100 128 180 240 296 348 412
#
# _framework density 22.230367000000001
#
# number of rings (size 3 to 8) (size 9 to 14) (size 15 to 20)
#    0.000    0.727    5.455    2.727    5.091    0.000 
#    0.000    0.000    4.000    0.000    0.000    0.000 
#    0.000    0.000    0.000    0.000    0.000    0.000 
#
# Total GULP energy -545248.072171 kJ/mol
# GULP energy per Si atom -12392.001640 kJ/mol
# Density = 2.217977 g / cm^3
# Si number density = 22.230367 Si / 1000 Ang^3
#
#
#
# Elastic Constant Matrix: (Units=GPa)
#
#
# Indices 1 2 3 4 5 6 
#
# 1 102.1628 42.0259 31.2195 0.0000 0.0000 0.0000
# 2 42.0259 95.1561 40.0975 0.0000 0.0000 0.0000
# 3 31.2195 40.0975 90.6191 0.0000 0.0000 0.0000
# 4 0.0000 0.0000 0.0000 34.5575 0.0000 0.0000
# 5 0.0000 0.0000 0.0000 0.0000 -345.7851 0.0000
# 6 0.0000 0.0000 0.0000 0.0000 0.0000 48.6085
#
#
#
# Elastic Compliance Matrix: (Units=1/GPa)
#
#
# Indices 1 2 3 4 5 6 
#
# 1 0.012326 -0.004492 -0.002259 0.000000 0.000000 0.000000
# 2 -0.004492 0.014555 -0.004893 0.000000 0.000000 0.000000
# 3 -0.002259 -0.004893 0.013978 0.000000 0.000000 0.000000
# 4 0.000000 0.000000 0.000000 0.028937 0.000000 0.000000
# 5 0.000000 0.000000 0.000000 0.000000 -0.002892 0.000000
# 6 0.000000 0.000000 0.000000 0.000000 0.000000 0.020573
#
#
# Mechanical properties :
#
#
# Convention : Reuss Voigt Hill
#
# Bulk Modulus (GPa) = 56.90827 57.18041 57.04434
# Shear Modulus (GPa) = 42.87350 -40.88415 0.99468
#
# Velocity S-wave (km/s) = 4.39635 -4.29314 0.66964
# Velocity P-wave (km/s) = 7.17115 1.09675 5.12973
#
# Compressibility (1/GPa) = 0.01757214
#
# Stress axis : x y z
#
# Youngs Moduli (GPa) = 81.12605 68.70631 71.53923
#
# Poissons Ratio (x) = 0.30864 0.16160
# Poissons Ratio (y) = 0.36443 0.35001
# Poissons Ratio (z) = 0.18326 0.33615
#
# Static dielectric constant tensor:
#      x y z
#    x 3.997230 0.000000 0.000000 
#    y 0.000000 4.463150 0.000000 
#    z 0.000000 0.000000 4.024890 
# 
# 
# High freq. dielectric constant tensor:
#      x y z
#    x 1.884430 0.000000 0.000000 
#    y 0.000000 1.873580 0.000000 
#    z 0.000000 0.000000 1.861110 
# 
# From -- ./inp_files/28831.got.cif
#   From: 2010.03.12/outbox.cif.g09.slc.cpg/sg73_15_cif.got.tgz:28831.got - 2010.04.16 15:25:48.
