data_PCOD8296280
_publ_section_title
;
Structure prediction by ZEFSAII (Michael W. Deem and Ramdas Pophale) SiO2 
 PCOD8296280
Probable space group: I B C A 
;
_chemical_formula_sum "Si O2"
_cell_formula_units_Z 112
_cell_length_a 22.641249
_cell_length_b 17.705325
_cell_length_c 13.910427
_cell_angle_alpha 90.000000
_cell_angle_beta 90.000000
_cell_angle_gamma 90.000000
_cell_volume 5576.282219
_symmetry_space_group_name_H-M "I B C A "
_symmetry_group_IT_number 73
_symmetry_cell_setting 'orthorhombic'
loop_
_space_group_symop_operation_xyz
x,y,z
-x,1/2-y,z
x,-y,1/2-z
1/2-x,y,-z
-x,-y,-z
x,1/2+y,-z
-x,y,1/2+z
1/2+x,-y,z
1/2+x,1/2+y,1/2+z
1/2-x,-y,1/2+z
1/2+x,1/2-y,-z
-x,1/2+y,1/2-z
1/2-x,1/2-y,1/2-z
1/2+x,y,1/2-z
1/2-x,1/2+y,z
x,1/2-y,1/2+z
loop_
_atom_site_type_symbol
_atom_site_label
_atom_site_fract_x
_atom_site_fract_y
_atom_site_fract_z
Si Si1 0.927184 0.000000 0.250000
Si Si2 0.000000 0.750000 0.669919
Si Si3 0.655365 0.453570 0.099578
Si Si4 0.216689 0.456215 0.652266
Si Si5 0.684935 0.587627 0.990312
Si Si6 0.881228 0.638370 0.418684
Si Si7 0.509198 0.133455 0.837823
Si Si8 0.412426 0.292569 0.003521
O O1 0.886211 0.058287 0.308775
O O2 0.966592 0.049320 0.177721
O O3 0.016205 0.819959 0.738890
O O4 0.055512 0.733230 0.600965
O O5 0.721352 0.421086 0.115661
O O6 0.662835 0.545170 0.086998
O O7 0.622401 0.411984 0.013607
O O8 0.226719 0.500000 0.750000
O O9 0.188443 0.517932 0.582547
O O10 0.171741 0.384878 0.654715
O O11 0.750000 0.625500 0.000000
O O12 0.637061 0.649051 0.960473
O O13 0.877631 0.725602 0.449809
O O14 0.941281 0.622662 0.363072
O O15 0.540898 0.173316 0.928022
#
# Coordination Sequence:
#
# PCOD8296280 Si02
#       8
#     8   8  16  16  16  16  16  16
#     4  12  24  38  68  96 128 166 224 268 308 400
#     4  12  24  44  64  88 134 178 208 270 338 382
#     4  10  21  43  64  90 128 170 210 261 325 375
#     4  10  22  40  66  96 127 165 213 268 319 381
#     4   9  21  39  63  90 126 167 207 261 321 375
#     4  11  23  41  63  93 128 169 213 264 322 386
#     4  12  26  42  63  98 129 169 221 268 322 394
#     4  12  23  44  65  90 133 174 213 266 332 388
#
# _framework density 20.085066000000001
#
# number of rings (size 3 to 8) (size 9 to 14) (size 15 to 20)
#    0.000    1.143    5.000    2.143    3.000    2.857 
#    0.000    0.000    0.000    4.286    0.000    0.000 
#    0.000    0.000    0.000    0.000    0.000    0.000 
#
# Total GULP energy -694192.142346 kJ/mol
# GULP energy per Si atom -12396.288256 kJ/mol
# Density = 2.003935 g / cm^3
# Si number density = 20.085066 Si / 1000 Ang^3
#
#
#
# Elastic Constant Matrix: (Units=GPa)
#
#
# Indices 1 2 3 4 5 6 
#
# 1 125.8418 56.7292 34.2917 0.0000 0.0000 0.0000
# 2 56.7292 72.6289 20.9749 0.0000 0.0000 0.0000
# 3 34.2917 20.9749 89.5235 0.0000 0.0000 0.0000
# 4 0.0000 0.0000 0.0000 25.8873 0.0000 0.0000
# 5 0.0000 0.0000 0.0000 0.0000 27.4024 0.0000
# 6 0.0000 0.0000 0.0000 0.0000 0.0000 37.0310
#
#
#
# Elastic Compliance Matrix: (Units=1/GPa)
#
#
# Indices 1 2 3 4 5 6 
#
# 1 0.012872 -0.009256 -0.002762 0.000000 0.000000 0.000000
# 2 -0.009256 0.021424 -0.001474 0.000000 0.000000 0.000000
# 3 -0.002762 -0.001474 0.012573 0.000000 0.000000 0.000000
# 4 0.000000 0.000000 0.000000 0.038629 0.000000 0.000000
# 5 0.000000 0.000000 0.000000 0.000000 0.036493 0.000000
# 6 0.000000 0.000000 0.000000 0.000000 0.000000 0.027004
#
#
# Mechanical properties :
#
#
# Convention : Reuss Voigt Hill
#
# Bulk Modulus (GPa) = 50.28834 56.88732 53.58783
# Shear Modulus (GPa) = 27.38095 29.79739 28.58917
#
# Velocity S-wave (km/s) = 3.69623 3.85588 3.77690
# Velocity P-wave (km/s) = 6.58089 6.94323 6.76449
#
# Compressibility (1/GPa) = 0.01988532
#
# Stress axis : x y z
#
# Youngs Moduli (GPa) = 77.68913 46.67599 79.53246
#
# Poissons Ratio (x) = 0.43205 0.21965
# Poissons Ratio (y) = 0.71912 0.11723
# Poissons Ratio (z) = 0.21456 0.06880
#
# Static dielectric constant tensor:
#      x y z
#    x 3.884990 0.000000 0.000000 
#    y 0.000000 3.674890 0.000000 
#    z 0.000000 0.000000 5.188960 
# 
# 
# High freq. dielectric constant tensor:
#      x y z
#    x 1.797690 0.000000 0.000000 
#    y 0.000000 1.768220 0.000000 
#    z 0.000000 0.000000 1.788900 
# 
# From -- ./inp_files/19452.got.cif
#   From: 2010.03.12/outbox.cif.g09.slc.cpg/sg73_10_cif.got.tgz:19452.got - 2010.04.16 15:25:48.
