data_PCOD8296623
_publ_section_title
;
Structure prediction by ZEFSAII (Michael W. Deem and Ramdas Pophale) SiO2 
 PCOD8296623
Probable space group: I B C A 
;
_chemical_formula_sum "Si O2"
_cell_formula_units_Z 120
_cell_length_a 26.911871
_cell_length_b 7.912314
_cell_length_c 24.242220
_cell_angle_alpha 90.000000
_cell_angle_beta 90.000000
_cell_angle_gamma 90.000000
_cell_volume 5162.021326
_symmetry_space_group_name_H-M "I B C A "
_symmetry_group_IT_number 73
_symmetry_cell_setting 'orthorhombic'
loop_
_space_group_symop_operation_xyz
x,y,z
-x,1/2-y,z
x,-y,1/2-z
1/2-x,y,-z
-x,-y,-z
x,1/2+y,-z
-x,y,1/2+z
1/2+x,-y,z
1/2+x,1/2+y,1/2+z
1/2-x,-y,1/2+z
1/2+x,1/2-y,-z
-x,1/2+y,1/2-z
1/2-x,1/2-y,1/2-z
1/2+x,y,1/2-z
1/2-x,1/2+y,z
x,1/2-y,1/2+z
loop_
_atom_site_type_symbol
_atom_site_label
_atom_site_fract_x
_atom_site_fract_y
_atom_site_fract_z
Si Si1 0.761354 0.733710 0.936775
Si Si2 0.500000 0.250000 0.054358
Si Si3 0.106812 0.202945 0.487622
Si Si4 0.328135 0.957965 0.904341
Si Si5 0.396214 0.448931 0.312159
Si Si6 0.501303 0.055224 0.863369
Si Si7 0.150456 0.989475 0.922650
Si Si8 0.603671 0.061106 0.810768
O O1 0.708035 0.707394 0.906887
O O2 0.791057 0.553744 0.930039
O O3 0.794661 0.875576 0.908668
O O4 0.750000 0.773926 0.000000
O O5 0.452475 0.283567 0.016168
O O6 0.511144 0.420440 0.088414
O O7 0.129266 0.044888 0.451978
O O8 0.120130 0.174034 0.552256
O O9 0.135472 0.360216 0.462540
O O10 0.355340 0.946617 0.845843
O O11 0.391474 0.500000 0.250000
O O12 0.450750 0.496405 0.333450
O O13 0.382849 0.254780 0.318199
O O14 0.500000 0.250000 0.885218
O O15 0.544945 0.031268 0.818568
O O16 0.134592 0.030571 0.859679
O O17 0.619874 0.000000 0.750000
#
# Coordination Sequence:
#
# PCOD8296623 Si02
#       8
#    16   8  16  16  16  16  16  16
#     4  12  25  45  76 107 138 185 249 313 382 456
#     4  12  24  46  76 110 156 206 244 296 392 472
#     4  12  27  45  74 108 153 195 244 302 387 458
#     4  12  25  46  71 109 143 187 250 318 378 452
#     4  11  25  45  72 107 148 193 257 315 377 446
#     4  10  23  44  74 111 150 202 262 311 367 458
#     4  12  26  47  72 110 148 192 248 313 376 454
#     4  11  25  46  73 106 151 202 253 309 369 452
#
# _framework density 23.246708999999999
#
# number of rings (size 3 to 8) (size 9 to 14) (size 15 to 20)
#    0.000    0.533    5.333    2.400    3.733    0.533 
#    3.600    1.333    0.000    0.000    0.000    0.000 
#    0.000    0.000    0.000    0.000    0.000    0.000 
#
# Total GULP energy -744008.230090 kJ/mol
# GULP energy per Si atom -12400.137168 kJ/mol
# Density = 2.319380 g / cm^3
# Si number density = 23.246709 Si / 1000 Ang^3
#
#
#
# Elastic Constant Matrix: (Units=GPa)
#
#
# Indices 1 2 3 4 5 6 
#
# 1 155.8391 9.9511 57.6704 0.0000 0.0000 0.0000
# 2 9.9511 37.3803 18.6333 0.0000 0.0000 0.0000
# 3 57.6704 18.6333 133.0454 0.0000 0.0000 0.0000
# 4 0.0000 0.0000 0.0000 26.0069 0.0000 0.0000
# 5 0.0000 0.0000 0.0000 0.0000 44.1496 0.0000
# 6 0.0000 0.0000 0.0000 0.0000 0.0000 29.9421
#
#
#
# Elastic Compliance Matrix: (Units=1/GPa)
#
#
# Indices 1 2 3 4 5 6 
#
# 1 0.007649 -0.000412 -0.003258 0.000000 0.000000 0.000000
# 2 -0.000412 0.028782 -0.003852 0.000000 0.000000 0.000000
# 3 -0.003258 -0.003852 0.009468 0.000000 0.000000 0.000000
# 4 0.000000 0.000000 0.000000 0.038451 0.000000 0.000000
# 5 0.000000 0.000000 0.000000 0.000000 0.022650 0.000000
# 6 0.000000 0.000000 0.000000 0.000000 0.000000 0.033398
#
#
# Mechanical properties :
#
#
# Convention : Reuss Voigt Hill
#
# Bulk Modulus (GPa) = 32.41058 55.41940 43.91499
# Shear Modulus (GPa) = 30.17000 36.02037 33.09518
#
# Velocity S-wave (km/s) = 3.60643 3.94062 3.77722
# Velocity P-wave (km/s) = 5.59590 6.67803 6.16077
#
# Compressibility (1/GPa) = 0.03085413
#
# Stress axis : x y z
#
# Youngs Moduli (GPa) = 130.73997 34.74380 105.62048
#
# Poissons Ratio (x) = 0.01432 0.34408
# Poissons Ratio (y) = 0.05390 0.40688
# Poissons Ratio (z) = 0.42591 0.13384
#
# Static dielectric constant tensor:
#      x y z
#    x 4.629880 0.000000 0.000000 
#    y 0.000000 4.466440 0.000000 
#    z 0.000000 0.000000 3.211970 
# 
# 
# High freq. dielectric constant tensor:
#      x y z
#    x 1.932390 0.000000 0.000000 
#    y 0.000000 1.939740 0.000000 
#    z 0.000000 0.000000 1.894050 
# 
# From -- ./inp_files/30514.got.cif
#   From: 2010.03.12/outbox.cif.g09.slc.cpg/sg73_16_cif.got.tgz:30514.got - 2010.04.16 15:25:48.
