data_PCOD8296416
_publ_section_title
;
Structure prediction by ZEFSAII (Michael W. Deem and Ramdas Pophale) SiO2 
 PCOD8296416
Probable space group: I B C A 
;
_chemical_formula_sum "Si O2"
_cell_formula_units_Z 96
_cell_length_a 11.344439
_cell_length_b 21.963485
_cell_length_c 18.731295
_cell_angle_alpha 90.000000
_cell_angle_beta 90.000000
_cell_angle_gamma 90.000000
_cell_volume 4667.153445
_symmetry_space_group_name_H-M "I B C A "
_symmetry_group_IT_number 73
_symmetry_cell_setting 'orthorhombic'
loop_
_space_group_symop_operation_xyz
x,y,z
-x,1/2-y,z
x,-y,1/2-z
1/2-x,y,-z
-x,-y,-z
x,1/2+y,-z
-x,y,1/2+z
1/2+x,-y,z
1/2+x,1/2+y,1/2+z
1/2-x,-y,1/2+z
1/2+x,1/2-y,-z
-x,1/2+y,1/2-z
1/2-x,1/2-y,1/2-z
1/2+x,y,1/2-z
1/2-x,1/2+y,z
x,1/2-y,1/2+z
loop_
_atom_site_type_symbol
_atom_site_label
_atom_site_fract_x
_atom_site_fract_y
_atom_site_fract_z
Si Si1 0.126297 0.735876 0.044839
Si Si2 0.397872 0.053024 0.659894
Si Si3 0.119979 0.865035 0.659758
Si Si4 0.736989 0.652269 0.915771
Si Si5 0.863412 0.419979 0.181705
Si Si6 0.054741 0.182826 0.688605
O O1 0.101543 0.676870 0.091417
O O2 0.144003 0.793072 0.099122
O O3 0.000000 0.750000 0.002742
O O4 0.250000 0.728524 0.000000
O O5 0.527838 0.080153 0.658301
O O6 0.310581 0.086611 0.606001
O O7 0.339472 0.063806 0.736482
O O8 0.406063 0.981378 0.641048
O O9 0.244008 0.896898 0.647496
O O10 0.114372 0.827365 0.733917
O O11 0.854001 0.672533 0.875012
O O12 0.750000 0.649267 0.000000
O O13 0.955923 0.366536 0.172947
O O14 0.000000 0.250000 0.685279
#
# Coordination Sequence:
#
# PCOD8296416 Si02
#       6
#    16  16  16  16  16  16
#     4  11  24  42  67  98 138 185 223 273 343 406
#     4  10  22  41  62  95 128 171 220 270 338 393
#     4  11  22  40  69  96 131 171 223 283 335 397
#     4  11  24  42  66  90 138 180 218 270 339 402
#     4  10  23  38  69  96 128 169 221 282 334 399
#     4  11  24  41  68 103 132 168 228 282 338 394
#
# _framework density 20.569282999999999
#
# number of rings (size 3 to 8) (size 9 to 14) (size 15 to 20)
#    0.000    1.333    3.333    1.500    4.667    8.000 
#    0.000    1.667    0.000    0.000    0.000    0.000 
#    0.000    0.000    0.000    0.000    0.000    0.000 
#
# Total GULP energy -594809.983818 kJ/mol
# GULP energy per Si atom -12391.874663 kJ/mol
# Density = 2.052247 g / cm^3
# Si number density = 20.569283 Si / 1000 Ang^3
#
#
#
# Elastic Constant Matrix: (Units=GPa)
#
#
# Indices 1 2 3 4 5 6 
#
# 1 128.0196 43.6678 42.7718 0.0000 0.0000 0.0000
# 2 43.6678 156.2070 33.2140 0.0000 0.0000 0.0000
# 3 42.7718 33.2140 76.8827 0.0001 0.0000 0.0000
# 4 0.0000 0.0000 0.0001 39.9420 0.0000 0.0000
# 5 0.0000 0.0000 0.0000 0.0000 10.2552 0.0000
# 6 0.0000 0.0000 0.0000 0.0000 0.0000 30.2455
#
#
#
# Elastic Compliance Matrix: (Units=1/GPa)
#
#
# Indices 1 2 3 4 5 6 
#
# 1 0.010025 -0.001780 -0.004808 0.000000 0.000000 0.000000
# 2 -0.001780 0.007365 -0.002192 0.000000 0.000000 0.000000
# 3 -0.004808 -0.002192 0.016628 0.000000 0.000000 0.000000
# 4 0.000000 0.000000 0.000000 0.025036 0.000000 0.000000
# 5 0.000000 0.000000 0.000000 0.000000 0.097512 0.000000
# 6 0.000000 0.000000 0.000000 0.000000 0.000000 0.033063
#
#
# Mechanical properties :
#
#
# Convention : Reuss Voigt Hill
#
# Bulk Modulus (GPa) = 60.75636 66.71293 63.73464
# Shear Modulus (GPa) = 23.51001 32.18559 27.84780
#
# Velocity S-wave (km/s) = 3.38445 3.95997 3.68347
# Velocity P-wave (km/s) = 6.69882 7.30836 7.01022
#
# Compressibility (1/GPa) = 0.01645918
#
# Stress axis : x y z
#
# Youngs Moduli (GPa) = 99.75158 135.77008 60.13788
#
# Poissons Ratio (x) = 0.24169 0.28915
# Poissons Ratio (y) = 0.17757 0.13180
# Poissons Ratio (z) = 0.47961 0.29755
#
# Static dielectric constant tensor:
#      x y z
#    x 3.892890 0.000000 0.000000 
#    y 0.000000 4.302240 0.000000 
#    z 0.000000 0.000000 3.542570 
# 
# 
# High freq. dielectric constant tensor:
#      x y z
#    x 1.821510 0.000000 0.000000 
#    y 0.000000 1.820170 0.000000 
#    z 0.000000 0.000000 1.780070 
# 
# From -- ./inp_files/25464.got.cif
#   From: 2010.03.12/outbox.cif.g09.slc.cpg/sg73_13_cif.got.tgz:25464.got - 2010.04.16 15:25:48.
