data_PCOD8296620
_publ_section_title
;
Structure prediction by ZEFSAII (Michael W. Deem and Ramdas Pophale) SiO2 
 PCOD8296620
Probable space group: I B C A 
;
_chemical_formula_sum "Si O2"
_cell_formula_units_Z 88
_cell_length_a 10.679858
_cell_length_b 13.471153
_cell_length_c 24.649704
_cell_angle_alpha 90.000000
_cell_angle_beta 90.000000
_cell_angle_gamma 90.000000
_cell_volume 3546.352942
_symmetry_space_group_name_H-M "I B C A "
_symmetry_group_IT_number 73
_symmetry_cell_setting 'orthorhombic'
loop_
_space_group_symop_operation_xyz
x,y,z
-x,1/2-y,z
x,-y,1/2-z
1/2-x,y,-z
-x,-y,-z
x,1/2+y,-z
-x,y,1/2+z
1/2+x,-y,z
1/2+x,1/2+y,1/2+z
1/2-x,-y,1/2+z
1/2+x,1/2-y,-z
-x,1/2+y,1/2-z
1/2-x,1/2-y,1/2-z
1/2+x,y,1/2-z
1/2-x,1/2+y,z
x,1/2-y,1/2+z
loop_
_atom_site_type_symbol
_atom_site_label
_atom_site_fract_x
_atom_site_fract_y
_atom_site_fract_z
Si Si1 0.761263 0.323273 0.184413
Si Si2 0.000000 0.750000 0.497801
Si Si3 0.368063 0.626239 0.657186
Si Si4 0.891921 0.394333 0.088060
Si Si5 0.500000 0.750000 0.833809
Si Si6 0.727644 0.000000 0.750000
Si Si7 0.366162 0.879867 0.916614
O O1 0.848206 0.226976 0.191497
O O2 0.766103 0.363714 0.121481
O O3 0.618296 0.291921 0.199782
O O4 0.808724 0.406691 0.227745
O O5 0.914545 0.676328 0.462721
O O6 0.896670 0.811434 0.531644
O O7 0.506459 0.622437 0.634834
O O8 0.351906 0.532931 0.697384
O O9 0.276306 0.627808 0.604594
O O10 0.891124 0.506438 0.066714
O O11 0.456545 0.845154 0.868585
#
# Coordination Sequence:
#
# PCOD8296620 Si02
#       7
#    16   8  16  16   8   8  16
#     4  11  23  46  71 105 148 189 244 308 365 445
#     4  11  24  46  73 106 142 203 244 314 393 426
#     4  11  24  45  69 105 151 185 249 314 363 445
#     4  12  23  46  73 106 147 192 246 313 369 455
#     4   9  22  46  69 100 146 187 234 306 369 434
#     4  12  24  44  74 104 142 212 238 298 386 438
#     4  10  23  44  71 102 145 187 245 304 368 454
#
# _framework density 24.814225
#
# number of rings (size 3 to 8) (size 9 to 14) (size 15 to 20)
#    0.000    1.091    3.636    2.182    0.000    1.455 
#   13.091    0.000    0.000    0.000    0.000    0.000 
#    0.000    0.000    0.000    0.000    0.000    0.000 
#
# Total GULP energy -545414.490694 kJ/mol
# GULP energy per Si atom -12395.783879 kJ/mol
# Density = 2.475775 g / cm^3
# Si number density = 24.814225 Si / 1000 Ang^3
#
#
#
# Elastic Constant Matrix: (Units=GPa)
#
#
# Indices 1 2 3 4 5 6 
#
# 1 74.2101 23.4389 23.8497 0.0000 0.0000 0.0000
# 2 23.4389 180.6062 55.0587 0.0000 0.0000 0.0000
# 3 23.8497 55.0587 121.7590 0.0000 0.0000 0.0000
# 4 0.0000 0.0000 0.0000 50.5180 0.0000 0.0000
# 5 0.0000 0.0000 0.0000 0.0000 -18.6994 0.0000
# 6 0.0000 0.0000 0.0000 0.0000 0.0000 21.0738
#
#
#
# Elastic Compliance Matrix: (Units=1/GPa)
#
#
# Indices 1 2 3 4 5 6 
#
# 1 0.014596 -0.001186 -0.002323 0.000000 0.000000 0.000000
# 2 -0.001186 0.006519 -0.002715 0.000000 0.000000 0.000000
# 3 -0.002323 -0.002715 0.009896 0.000000 0.000000 0.000000
# 4 0.000000 0.000000 0.000000 0.019795 0.000000 0.000000
# 5 0.000000 0.000000 0.000000 0.000000 -0.053478 0.000000
# 6 0.000000 0.000000 0.000000 0.000000 0.000000 0.047452
#
#
# Mechanical properties :
#
#
# Convention : Reuss Voigt Hill
#
# Bulk Modulus (GPa) = 53.87264 64.58556 59.22910
# Shear Modulus (GPa) = 78.84417 28.86034 53.85226
#
# Velocity S-wave (km/s) = 5.64294 3.41406 4.66361
# Velocity P-wave (km/s) = 8.01340 6.45176 7.27460
#
# Compressibility (1/GPa) = 0.01856230
#
# Stress axis : x y z
#
# Youngs Moduli (GPa) = 68.51008 153.40620 101.05328
#
# Poissons Ratio (x) = 0.18197 0.23472
# Poissons Ratio (y) = 0.08127 0.27439
# Poissons Ratio (z) = 0.15913 0.41655
#
# Static dielectric constant tensor:
#      x y z
#    x 4.359010 0.000000 0.000000 
#    y 0.000000 4.829550 0.000000 
#    z 0.000000 0.000000 4.312660 
# 
# 
# High freq. dielectric constant tensor:
#      x y z
#    x 1.963950 0.000000 0.000000 
#    y 0.000000 2.015100 0.000000 
#    z 0.000000 0.000000 1.981250 
# 
# From -- ./inp_files/28863.got.cif
#   From: 2010.03.12/outbox.cif.g09.slc.cpg/sg73_15_cif.got.tgz:28863.got - 2010.04.16 15:25:48.
