data_PCOD8296586
_publ_section_title
;
Structure prediction by ZEFSAII (Michael W. Deem and Ramdas Pophale) SiO2 
 PCOD8296586
Probable space group: I B C A 
;
_chemical_formula_sum "Si O2"
_cell_formula_units_Z 56
_cell_length_a 34.719117
_cell_length_b 5.098026
_cell_length_c 13.294507
_cell_angle_alpha 90.000000
_cell_angle_beta 90.000000
_cell_angle_gamma 90.000000
_cell_volume 2353.113928
_symmetry_space_group_name_H-M "I B C A "
_symmetry_group_IT_number 73
_symmetry_cell_setting 'orthorhombic'
loop_
_space_group_symop_operation_xyz
x,y,z
-x,1/2-y,z
x,-y,1/2-z
1/2-x,y,-z
-x,-y,-z
x,1/2+y,-z
-x,y,1/2+z
1/2+x,-y,z
1/2+x,1/2+y,1/2+z
1/2-x,-y,1/2+z
1/2+x,1/2-y,-z
-x,1/2+y,1/2-z
1/2-x,1/2-y,1/2-z
1/2+x,y,1/2-z
1/2-x,1/2+y,z
x,1/2-y,1/2+z
loop_
_atom_site_type_symbol
_atom_site_label
_atom_site_fract_x
_atom_site_fract_y
_atom_site_fract_z
Si Si1 0.924061 0.647896 0.932578
Si Si2 0.707695 0.357970 0.957410
Si Si3 0.500000 0.250000 0.815570
Si Si4 0.319592 0.500000 0.250000
Si Si5 0.869523 0.000000 0.250000
O O1 0.894304 0.600865 0.843220
O O2 0.966511 0.635474 0.885612
O O3 0.917950 0.432955 0.019132
O O4 0.708805 0.421906 0.840300
O O5 0.750000 0.285271 0.000000
O O6 0.685579 0.584231 0.021152
O O7 0.514786 0.500000 0.750000
O O8 0.344456 0.750020 0.283934
#
# Coordination Sequence:
#
# PCOD8296586 Si02
#       5
#    16  16   8   8   8
#     4  12  26  46  72 103 141 190 242 296 355 417
#     4  10  23  42  69 101 134 172 226 285 347 419
#     4  12  24  44  76 104 146 184 244 304 358 412
#     4  12  26  44  70 100 140 186 230 284 370 418
#     4  12  28  46  68 102 144 190 234 294 348 446
#
# _framework density 23.798255000000001
#
# number of rings (size 3 to 8) (size 9 to 14) (size 15 to 20)
#    0.000    0.571    1.429    6.000    2.000   11.429 
#    0.000    0.000    0.000    0.000    0.000    0.000 
#    0.000    0.000    0.000    0.000    0.000    0.000 
#
# Total GULP energy -347171.477822 kJ/mol
# GULP energy per Si atom -12398.981351 kJ/mol
# Density = 2.374409 g / cm^3
# Si number density = 23.798255 Si / 1000 Ang^3
#
#
#
# Elastic Constant Matrix: (Units=GPa)
#
#
# Indices 1 2 3 4 5 6 
#
# 1 78.0452 16.4145 36.4669 0.0000 0.0000 0.0000
# 2 16.4145 164.7827 21.6226 0.0000 0.0000 0.0000
# 3 36.4669 21.6226 122.0021 0.0000 0.0000 0.0000
# 4 0.0000 0.0000 0.0000 52.0329 0.0000 0.0000
# 5 0.0000 0.0000 0.0000 0.0000 -8.2819 0.0000
# 6 0.0000 0.0000 0.0000 0.0000 0.0000 26.2904
#
#
#
# Elastic Compliance Matrix: (Units=1/GPa)
#
#
# Indices 1 2 3 4 5 6 
#
# 1 0.015031 -0.000929 -0.004328 0.000000 0.000000 0.000000
# 2 -0.000929 0.006271 -0.000834 0.000000 0.000000 0.000000
# 3 -0.004328 -0.000834 0.009638 0.000000 0.000000 0.000000
# 4 0.000000 0.000000 0.000000 0.019219 0.000000 0.000000
# 5 0.000000 0.000000 0.000000 0.000000 -0.120745 0.000000
# 6 0.000000 0.000000 0.000000 0.000000 0.000000 0.038037
#
#
# Mechanical properties :
#
#
# Convention : Reuss Voigt Hill
#
# Bulk Modulus (GPa) = 53.31213 57.09312 55.20263
# Shear Modulus (GPa) = -354.21030 33.36333 -160.42349
#
# Velocity S-wave (km/s) = -12.21318 3.74829 -8.21925
# Velocity P-wave (km/s) = 13.28278 6.54029 8.17486
#
# Compressibility (1/GPa) = 0.01875746
#
# Stress axis : x y z
#
# Youngs Moduli (GPa) = 66.52977 159.47566 103.75603
#
# Poissons Ratio (x) = 0.14821 0.44906
# Poissons Ratio (y) = 0.06183 0.08649
# Poissons Ratio (z) = 0.28795 0.13293
#
# Static dielectric constant tensor:
#      x y z
#    x 4.633960 0.000000 0.000000 
#    y 0.000000 5.042050 0.000000 
#    z 0.000000 0.000000 4.349220 
# 
# 
# High freq. dielectric constant tensor:
#      x y z
#    x 1.923740 0.000000 0.000000 
#    y 0.000000 1.983030 0.000000 
#    z 0.000000 0.000000 1.956350 
# 
# From -- ./inp_files/19934.got.cif
#   From: 2010.03.12/outbox.cif.g09.slc.cpg/sg73_10_cif.got.tgz:19934.got - 2010.04.16 15:25:48.
