data_PCOD8296848
_publ_section_title
;
Structure prediction by ZEFSAII (Michael W. Deem and Ramdas Pophale) SiO2 
 PCOD8296848
Probable space group: I B C A 
;
_chemical_formula_sum "Si O2"
_cell_formula_units_Z 96
_cell_length_a 15.849767
_cell_length_b 26.282160
_cell_length_c 10.006394
_cell_angle_alpha 90.000000
_cell_angle_beta 90.000000
_cell_angle_gamma 90.000000
_cell_volume 4168.324646
_symmetry_space_group_name_H-M "I B C A "
_symmetry_group_IT_number 73
_symmetry_cell_setting 'orthorhombic'
loop_
_space_group_symop_operation_xyz
x,y,z
-x,1/2-y,z
x,-y,1/2-z
1/2-x,y,-z
-x,-y,-z
x,1/2+y,-z
-x,y,1/2+z
1/2+x,-y,z
1/2+x,1/2+y,1/2+z
1/2-x,-y,1/2+z
1/2+x,1/2-y,-z
-x,1/2+y,1/2-z
1/2-x,1/2-y,1/2-z
1/2+x,y,1/2-z
1/2-x,1/2+y,z
x,1/2-y,1/2+z
loop_
_atom_site_type_symbol
_atom_site_label
_atom_site_fract_x
_atom_site_fract_y
_atom_site_fract_z
Si Si1 0.111453 0.139813 0.852310
Si Si2 0.911848 0.717400 0.404069
Si Si3 0.105263 0.527252 0.117267
Si Si4 0.667268 0.681910 0.080418
Si Si5 0.404419 0.033940 0.631181
Si Si6 0.077250 0.144758 0.337591
O O1 0.103654 0.181776 0.968107
O O2 0.143729 0.084375 0.902041
O O3 0.168461 0.156786 0.727024
O O4 0.018013 0.133129 0.794684
O O5 0.835803 0.757544 0.402975
O O6 0.891539 0.685065 0.271369
O O7 0.000000 0.750000 0.399422
O O8 0.138783 0.500000 0.250000
O O9 0.004808 0.532161 0.116128
O O10 0.137371 0.489725 0.001175
O O11 0.750000 0.664736 0.000000
O O12 0.586150 0.666460 0.988716
O O13 0.372784 0.091165 0.661824
O O14 0.370226 0.000000 0.750000
#
# Coordination Sequence:
#
# PCOD8296848 Si02
#       6
#    16  16  16  16  16  16
#     4  11  21  38  64  93 127 172 220 267 329 398
#     4  12  23  38  62  92 124 170 223 274 322 395
#     4   9  17  30  53  88 125 158 200 262 323 375
#     4  12  27  42  62  94 134 173 216 278 334 389
#     4   9  17  30  53  88 123 155 204 267 318 370
#     4  11  21  38  64  91 126 170 220 271 329 393
#
# _framework density 23.030835
#
# number of rings (size 3 to 8) (size 9 to 14) (size 15 to 20)
#    0.000    1.333    3.333    3.000    0.000    8.000 
#    0.000    0.000    0.000    3.000    0.000    1.167 
#    0.000    0.000    0.000    0.000    0.000    0.000 
#
# Total GULP energy -594842.102268 kJ/mol
# GULP energy per Si atom -12392.543797 kJ/mol
# Density = 2.297842 g / cm^3
# Si number density = 23.030835 Si / 1000 Ang^3
#
#
#
# Elastic Constant Matrix: (Units=GPa)
#
#
# Indices 1 2 3 4 5 6 
#
# 1 28.3633 12.8578 5.7759 -0.0038 -0.0009 -0.0002
# 2 12.8578 212.4027 92.7587 0.0010 0.0003 0.0009
# 3 5.7759 92.7587 173.9156 0.0093 0.0005 0.0022
# 4 -0.0038 0.0010 0.0093 51.0174 0.0015 -0.0012
# 5 -0.0009 0.0003 0.0005 0.0015 19.0575 -0.0002
# 6 -0.0002 0.0009 0.0022 -0.0012 -0.0002 8.1231
#
#
#
# Elastic Compliance Matrix: (Units=1/GPa)
#
#
# Indices 1 2 3 4 5 6 
#
# 1 0.036252 -0.002175 -0.000044 0.000003 0.000002 0.000001
# 2 -0.002175 0.006268 -0.003271 0.000000 0.000000 0.000000
# 3 -0.000044 -0.003271 0.007496 -0.000001 0.000000 -0.000002
# 4 0.000003 0.000000 -0.000001 0.019601 -0.000002 0.000003
# 5 0.000002 0.000000 0.000000 -0.000002 0.052473 0.000001
# 6 0.000001 0.000000 -0.000002 0.000003 0.000001 0.123105
#
#
# Mechanical properties :
#
#
# Convention : Reuss Voigt Hill
#
# Bulk Modulus (GPa) = 25.61739 70.82960 48.22349
# Shear Modulus (GPa) = 18.57443 35.85888 27.21666
#
# Velocity S-wave (km/s) = 2.84298 3.95016 3.44139
# Velocity P-wave (km/s) = 4.68230 7.18512 6.06424
#
# Compressibility (1/GPa) = 0.03903599
#
# Stress axis : x y z
#
# Youngs Moduli (GPa) = 27.58472 159.53617 133.40586
#
# Poissons Ratio (x) = 0.34706 0.00583
# Poissons Ratio (y) = 0.06001 0.43636
# Poissons Ratio (z) = 0.00121 0.52183
#
# Static dielectric constant tensor:
#      x y z
#    x 3.521420 -0.000220 0.000010 
#    y -0.000220 5.104080 0.000660 
#    z 0.000010 0.000660 4.172700 
# 
# 
# High freq. dielectric constant tensor:
#      x y z
#    x 1.851470 0.000000 0.000000 
#    y 0.000000 1.935510 0.000000 
#    z 0.000000 0.000000 1.918350 
# 
# From -- ./inp_files/6439.got.cif
#   From: 2010.03.12/outbox.cif.g09.slc.cpg/sg73_4_cif.got.tgz:6439.got - 2010.04.16 15:25:48.
