data_PCOD8296073
_publ_section_title
;
Structure prediction by ZEFSAII (Michael W. Deem and Ramdas Pophale) SiO2 
 PCOD8296073
Probable space group: I B C A 
;
_chemical_formula_sum "Si O2"
_cell_formula_units_Z 80
_cell_length_a 8.969585
_cell_length_b 15.816877
_cell_length_c 24.833056
_cell_angle_alpha 90.000000
_cell_angle_beta 90.000000
_cell_angle_gamma 90.000000
_cell_volume 3523.086085
_symmetry_space_group_name_H-M "I B C A "
_symmetry_group_IT_number 73
_symmetry_cell_setting 'orthorhombic'
loop_
_space_group_symop_operation_xyz
x,y,z
-x,1/2-y,z
x,-y,1/2-z
1/2-x,y,-z
-x,-y,-z
x,1/2+y,-z
-x,y,1/2+z
1/2+x,-y,z
1/2+x,1/2+y,1/2+z
1/2-x,-y,1/2+z
1/2+x,1/2-y,-z
-x,1/2+y,1/2-z
1/2-x,1/2-y,1/2-z
1/2+x,y,1/2-z
1/2-x,1/2+y,z
x,1/2-y,1/2+z
loop_
_atom_site_type_symbol
_atom_site_label
_atom_site_fract_x
_atom_site_fract_y
_atom_site_fract_z
Si Si1 0.309339 0.577206 0.441686
Si Si2 0.698134 0.815428 0.707833
Si Si3 0.016644 0.913435 0.221657
Si Si4 0.121388 0.435891 0.393387
Si Si5 0.824760 0.246852 0.392936
O O1 0.250000 0.550275 0.500000
O O2 0.217201 0.521195 0.398549
O O3 0.478617 0.550175 0.431263
O O4 0.297086 0.679272 0.436624
O O5 0.750000 0.750000 0.750000
O O6 0.543345 0.852193 0.730428
O O7 0.696399 0.766067 0.651289
O O8 0.822358 0.887385 0.700134
O O9 0.908417 0.920955 0.170187
O O10 0.043861 0.000000 0.250000
O O11 0.203816 0.349030 0.414142
O O12 0.000000 0.250000 0.371822
#
# Coordination Sequence:
#
# PCOD8296073 Si02
#       5
#    16  16  16  16  16
#     4  11  24  44  71  99 127 171 229 281 334 398
#     4  12  21  40  63  92 129 177 215 254 327 392
#     4  12  25  37  64  98 135 175 215 265 323 400
#     4  11  24  45  69  95 140 174 217 281 337 389
#     4  10  20  43  66  90 135 183 210 266 339 394
#
# _framework density 22.707364999999999
#
# number of rings (size 3 to 8) (size 9 to 14) (size 15 to 20)
#    0.000    0.800    6.000    3.000    2.800    0.800 
#    0.000    3.000    0.000    0.000    0.000    0.000 
#    0.000    0.000    0.000    0.000    0.000    0.000 
#
# Total GULP energy -495568.826342 kJ/mol
# GULP energy per Si atom -12389.220659 kJ/mol
# Density = 2.265568 g / cm^3
# Si number density = 22.707365 Si / 1000 Ang^3
#
#
#
# Elastic Constant Matrix: (Units=GPa)
#
#
# Indices 1 2 3 4 5 6 
#
# 1 66.3213 33.6399 24.6938 0.0000 0.0000 0.0000
# 2 33.6399 128.7475 13.4609 0.0000 0.0000 0.0000
# 3 24.6938 13.4609 77.2832 0.0000 0.0000 0.0000
# 4 0.0000 0.0000 0.0000 28.3193 0.0000 0.0000
# 5 0.0000 0.0000 0.0000 0.0000 33.7388 0.0000
# 6 0.0000 0.0000 0.0000 0.0000 0.0000 25.6969
#
#
#
# Elastic Compliance Matrix: (Units=1/GPa)
#
#
# Indices 1 2 3 4 5 6 
#
# 1 0.019372 -0.004496 -0.005407 0.000000 0.000000 0.000000
# 2 -0.004496 0.008955 -0.000123 0.000000 0.000000 0.000000
# 3 -0.005407 -0.000123 0.014688 0.000000 0.000000 0.000000
# 4 0.000000 0.000000 0.000000 0.035312 0.000000 0.000000
# 5 0.000000 0.000000 0.000000 0.000000 0.029639 0.000000
# 6 0.000000 0.000000 0.000000 0.000000 0.000000 0.038915
#
#
# Mechanical properties :
#
#
# Convention : Reuss Voigt Hill
#
# Bulk Modulus (GPa) = 43.54805 46.21568 44.88186
# Shear Modulus (GPa) = 28.63890 30.92148 29.78019
#
# Velocity S-wave (km/s) = 3.55521 3.69418 3.62536
# Velocity P-wave (km/s) = 6.00602 6.21231 6.11004
#
# Compressibility (1/GPa) = 0.02296314
#
# Stress axis : x y z
#
# Youngs Moduli (GPa) = 51.62136 111.67166 68.08093
#
# Poissons Ratio (x) = 0.50211 0.36809
# Poissons Ratio (y) = 0.23211 0.00838
# Poissons Ratio (z) = 0.27910 0.01374
#
# Static dielectric constant tensor:
#      x y z
#    x 3.693820 0.000000 0.000000 
#    y 0.000000 4.458660 0.000000 
#    z 0.000000 0.000000 3.738020 
# 
# 
# High freq. dielectric constant tensor:
#      x y z
#    x 1.870780 0.000000 0.000000 
#    y 0.000000 1.922820 0.000000 
#    z 0.000000 0.000000 1.875610 
# 
# From -- ./inp_files/31115.got.cif
#   From: 2010.03.12/outbox.cif.g09.slc.cpg/sg73_16_cif.got.tgz:31115.got - 2010.04.16 15:25:48.
