data_PCOD8296113
_publ_section_title
;
Structure prediction by ZEFSAII (Michael W. Deem and Ramdas Pophale) SiO2 
 PCOD8296113
Probable space group: I B C A 
;
_chemical_formula_sum "Si O2"
_cell_formula_units_Z 128
_cell_length_a 22.703365
_cell_length_b 11.907954
_cell_length_c 24.589718
_cell_angle_alpha 90.000000
_cell_angle_beta 90.000000
_cell_angle_gamma 90.000000
_cell_volume 6647.845656
_symmetry_space_group_name_H-M "I B C A "
_symmetry_group_IT_number 73
_symmetry_cell_setting 'orthorhombic'
loop_
_space_group_symop_operation_xyz
x,y,z
-x,1/2-y,z
x,-y,1/2-z
1/2-x,y,-z
-x,-y,-z
x,1/2+y,-z
-x,y,1/2+z
1/2+x,-y,z
1/2+x,1/2+y,1/2+z
1/2-x,-y,1/2+z
1/2+x,1/2-y,-z
-x,1/2+y,1/2-z
1/2-x,1/2-y,1/2-z
1/2+x,y,1/2-z
1/2-x,1/2+y,z
x,1/2-y,1/2+z
loop_
_atom_site_type_symbol
_atom_site_label
_atom_site_fract_x
_atom_site_fract_y
_atom_site_fract_z
Si Si1 0.008683 0.620553 0.218824
Si Si2 0.806439 0.552216 0.107488
Si Si3 0.821944 0.397236 0.640880
Si Si4 0.310527 0.686559 0.069899
Si Si5 0.323193 0.733020 0.949577
Si Si6 0.620041 0.611238 0.354863
Si Si7 0.313779 0.695077 0.755856
Si Si8 0.122277 0.600376 0.712121
O O1 0.025726 0.500000 0.250000
O O2 0.945316 0.591067 0.193636
O O3 0.000000 0.750000 0.246587
O O4 0.057189 0.638369 0.172099
O O5 0.737392 0.546236 0.119111
O O6 0.832874 0.431180 0.093790
O O7 0.818541 0.632364 0.055913
O O8 0.837800 0.607117 0.159094
O O9 0.833434 0.278942 0.612096
O O10 0.875493 0.481378 0.626658
O O11 0.822221 0.387962 0.705924
O O12 0.240131 0.680912 0.065276
O O13 0.340626 0.706028 0.011392
O O14 0.372857 0.686694 0.908667
O O15 0.675260 0.631306 0.313071
O O16 0.250000 0.750000 0.750000
O O17 0.365051 0.788565 0.752704
O O18 0.143049 0.500000 0.750000
#
# Coordination Sequence:
#
# PCOD8296113 Si02
#       8
#    16  16  16  16  16  16  16  16
#     4  11  23  43  63  87 123 168 216 253 300 369
#     4  11  20  38  56  86 124 158 200 246 310 375
#     4  11  23  34  56  91 124 157 196 249 314 365
#     4  10  22  36  57  86 124 157 201 252 310 376
#     4  10  21  36  58  86 116 164 205 247 307 373
#     4  12  23  40  60  90 120 162 205 250 305 369
#     4  12  21  34  56  89 129 156 195 243 306 380
#     4  11  23  36  59  87 124 165 201 246 307 367
#
# _framework density 19.254359000000001
#
# number of rings (size 3 to 8) (size 9 to 14) (size 15 to 20)
#    0.000    1.000    5.000    2.625    3.500    1.000 
#    0.000    0.000    0.000    0.750    3.250    0.000 
#    0.000    0.000    0.000    0.000    0.000    0.000 
#
# Total GULP energy -792960.872469 kJ/mol
# GULP energy per Si atom -12390.013632 kJ/mol
# Density = 1.921054 g / cm^3
# Si number density = 19.254359 Si / 1000 Ang^3
#
#
#
# Elastic Constant Matrix: (Units=GPa)
#
#
# Indices 1 2 3 4 5 6 
#
# 1 69.5381 10.1557 12.6802 0.0000 0.0000 0.0000
# 2 10.1557 122.1680 33.2761 0.0000 0.0000 0.0000
# 3 12.6802 33.2761 85.1004 0.0000 0.0000 0.0000
# 4 0.0000 0.0000 0.0000 23.9007 0.0000 0.0000
# 5 0.0000 0.0000 0.0000 0.0000 18.3350 0.0000
# 6 0.0000 0.0000 0.0000 0.0000 0.0000 20.3752
#
#
#
# Elastic Compliance Matrix: (Units=1/GPa)
#
#
# Indices 1 2 3 4 5 6 
#
# 1 0.014837 -0.000706 -0.001934 0.000000 0.000000 0.000000
# 2 -0.000706 0.009195 -0.003490 0.000000 0.000000 0.000000
# 3 -0.001934 -0.003490 0.013404 0.000000 0.000000 0.000000
# 4 0.000000 0.000000 0.000000 0.041840 0.000000 0.000000
# 5 0.000000 0.000000 0.000000 0.000000 0.054541 0.000000
# 6 0.000000 0.000000 0.000000 0.000000 0.000000 0.049079
#
#
# Mechanical properties :
#
#
# Convention : Reuss Voigt Hill
#
# Bulk Modulus (GPa) = 39.72493 43.22561 41.47527
# Shear Modulus (GPa) = 24.56427 27.23515 25.89971
#
# Velocity S-wave (km/s) = 3.57568 3.76505 3.67159
# Velocity P-wave (km/s) = 6.14196 6.43423 6.28980
#
# Compressibility (1/GPa) = 0.02517311
#
# Stress axis : x y z
#
# Youngs Moduli (GPa) = 67.40126 108.75694 74.60587
#
# Poissons Ratio (x) = 0.07683 0.14432
# Poissons Ratio (y) = 0.04761 0.26038
# Poissons Ratio (z) = 0.13038 0.37957
#
# Static dielectric constant tensor:
#      x y z
#    x 3.309530 0.000000 0.000000 
#    y 0.000000 4.080290 0.000000 
#    z 0.000000 0.000000 3.252560 
# 
# 
# High freq. dielectric constant tensor:
#      x y z
#    x 1.712080 0.000000 0.000000 
#    y 0.000000 1.781190 0.000000 
#    z 0.000000 0.000000 1.729580 
# 
# From -- ./inp_files/30562.got.cif
#   From: 2010.03.12/outbox.cif.g09.slc.cpg/sg73_16_cif.got.tgz:30562.got - 2010.04.16 15:25:48.
