data_PCOD8296922
_publ_section_title
;
Structure prediction by ZEFSAII (Michael W. Deem and Ramdas Pophale) SiO2 
 PCOD8296922
Probable space group: I B C A 
;
_chemical_formula_sum "Si O2"
_cell_formula_units_Z 72
_cell_length_a 20.982106
_cell_length_b 11.847919
_cell_length_c 14.069467
_cell_angle_alpha 90.000000
_cell_angle_beta 90.000000
_cell_angle_gamma 90.000000
_cell_volume 3497.589192
_symmetry_space_group_name_H-M "I B C A "
_symmetry_group_IT_number 73
_symmetry_cell_setting 'orthorhombic'
loop_
_space_group_symop_operation_xyz
x,y,z
-x,1/2-y,z
x,-y,1/2-z
1/2-x,y,-z
-x,-y,-z
x,1/2+y,-z
-x,y,1/2+z
1/2+x,-y,z
1/2+x,1/2+y,1/2+z
1/2-x,-y,1/2+z
1/2+x,1/2-y,-z
-x,1/2+y,1/2-z
1/2-x,1/2-y,1/2-z
1/2+x,y,1/2-z
1/2-x,1/2+y,z
x,1/2-y,1/2+z
loop_
_atom_site_type_symbol
_atom_site_label
_atom_site_fract_x
_atom_site_fract_y
_atom_site_fract_z
Si Si1 0.186822 0.118436 0.210187
Si Si2 0.020796 0.365745 0.091835
Si Si3 0.325147 0.669567 0.834888
Si Si4 0.106025 0.689531 0.969571
Si Si5 0.919976 0.000000 0.250000
O O1 0.258645 0.102961 0.171293
O O2 0.184687 0.203747 0.298835
O O3 0.143222 0.163287 0.126373
O O4 0.161268 0.000000 0.250000
O O5 0.082494 0.322187 0.030553
O O6 0.035660 0.470012 0.160255
O O7 0.000000 0.250000 0.150458
O O8 0.957821 0.392478 0.026071
O O9 0.377464 0.608873 0.770131
O O10 0.347611 0.667908 0.943356
#
# Coordination Sequence:
#
# PCOD8296922 Si02
#       5
#    16  16  16  16   8
#     4  11  23  42  64  98 133 173 225 269 335 391
#     4   8  21  41  61  98 128 166 222 262 330 393
#     4  11  23  41  67  92 133 178 218 281 325 393
#     4   9  21  43  60 100 129 169 224 266 331 399
#     4  12  20  42  68  94 138 170 218 282 324 392
#
# _framework density 20.585608000000001
#
# number of rings (size 3 to 8) (size 9 to 14) (size 15 to 20)
#    1.333    0.444    3.333    0.667    1.556    2.667 
#   12.000    2.222    0.000    0.000    0.000    0.000 
#    0.000    0.000    0.000    0.000    0.000    0.000 
#
# Total GULP energy -446014.440539 kJ/mol
# GULP energy per Si atom -12389.290015 kJ/mol
# Density = 2.053875 g / cm^3
# Si number density = 20.585608 Si / 1000 Ang^3
#
#
#
# Elastic Constant Matrix: (Units=GPa)
#
#
# Indices 1 2 3 4 5 6 
#
# 1 106.8353 17.0055 45.6687 0.0000 0.0000 0.0000
# 2 17.0055 54.2532 11.2641 0.0000 0.0000 0.0000
# 3 45.6687 11.2641 89.9622 0.0000 0.0000 0.0000
# 4 0.0000 0.0000 0.0000 7.5330 0.0000 0.0000
# 5 0.0000 0.0000 0.0000 0.0000 40.7332 0.0000
# 6 0.0000 0.0000 0.0000 0.0000 0.0000 24.7695
#
#
#
# Elastic Compliance Matrix: (Units=1/GPa)
#
#
# Indices 1 2 3 4 5 6 
#
# 1 0.012309 -0.002629 -0.005919 0.000000 0.000000 0.000000
# 2 -0.002629 0.019486 -0.001105 0.000000 0.000000 0.000000
# 3 -0.005919 -0.001105 0.014259 0.000000 0.000000 0.000000
# 4 0.000000 0.000000 0.000000 0.132749 0.000000 0.000000
# 5 0.000000 0.000000 0.000000 0.000000 0.024550 0.000000
# 6 0.000000 0.000000 0.000000 0.000000 0.000000 0.040372
#
#
# Mechanical properties :
#
#
# Convention : Reuss Voigt Hill
#
# Bulk Modulus (GPa) = 37.38823 44.32525 40.85674
# Shear Modulus (GPa) = 18.38585 26.41462 22.40024
#
# Velocity S-wave (km/s) = 2.99179 3.58601 3.30229
# Velocity P-wave (km/s) = 5.48964 6.22293 5.86775
#
# Compressibility (1/GPa) = 0.02674638
#
# Stress axis : x y z
#
# Youngs Moduli (GPa) = 81.24094 51.31978 70.13071
#
# Poissons Ratio (x) = 0.13493 0.41513
# Poissons Ratio (y) = 0.21360 0.07750
# Poissons Ratio (z) = 0.48090 0.05671
#
# Static dielectric constant tensor:
#      x y z
#    x 4.013960 0.000000 0.000000 
#    y 0.000000 3.522790 0.000000 
#    z 0.000000 0.000000 3.339200 
# 
# 
# High freq. dielectric constant tensor:
#      x y z
#    x 1.821540 0.000000 0.000000 
#    y 0.000000 1.791750 0.000000 
#    z 0.000000 0.000000 1.783490 
# 
# From -- ./inp_files/12564.got.cif
#   From: 2010.03.12/outbox.cif.g09.slc.cpg/sg73_7_cif.got.tgz:12564.got - 2010.04.16 15:25:48.
