data_PCOD8296838
_publ_section_title
;
Structure prediction by ZEFSAII (Michael W. Deem and Ramdas Pophale) SiO2 
 PCOD8296838
Probable space group: I B C A 
;
_chemical_formula_sum "Si O2"
_cell_formula_units_Z 120
_cell_length_a 14.192836
_cell_length_b 29.994957
_cell_length_c 13.812429
_cell_angle_alpha 90.000000
_cell_angle_beta 90.000000
_cell_angle_gamma 90.000000
_cell_volume 5880.137569
_symmetry_space_group_name_H-M "I B C A "
_symmetry_group_IT_number 73
_symmetry_cell_setting 'orthorhombic'
loop_
_space_group_symop_operation_xyz
x,y,z
-x,1/2-y,z
x,-y,1/2-z
1/2-x,y,-z
-x,-y,-z
x,1/2+y,-z
-x,y,1/2+z
1/2+x,-y,z
1/2+x,1/2+y,1/2+z
1/2-x,-y,1/2+z
1/2+x,1/2-y,-z
-x,1/2+y,1/2-z
1/2-x,1/2-y,1/2-z
1/2+x,y,1/2-z
1/2-x,1/2+y,z
x,1/2-y,1/2+z
loop_
_atom_site_type_symbol
_atom_site_label
_atom_site_fract_x
_atom_site_fract_y
_atom_site_fract_z
Si Si1 0.773838 0.198814 0.732924
Si Si2 0.471873 0.300680 0.337685
Si Si3 0.617560 0.500000 0.750000
Si Si4 0.197298 0.140755 0.408782
Si Si5 0.962086 0.065601 0.170989
Si Si6 0.235117 0.545439 0.388509
Si Si7 0.587024 0.145441 0.690990
Si Si8 0.994611 0.130978 0.003644
O O1 0.750000 0.250000 0.750000
O O2 0.858859 0.194309 0.656562
O O3 0.812823 0.180191 0.833547
O O4 0.688276 0.168518 0.698597
O O5 0.500000 0.250000 0.344095
O O6 0.510662 0.320711 0.236684
O O7 0.515824 0.324704 0.431318
O O8 0.550310 0.538885 0.712187
O O9 0.686262 0.482496 0.666844
O O10 0.250000 0.162245 0.500000
O O11 0.255286 0.098427 0.368047
O O12 0.097004 0.121961 0.439881
O O13 0.873039 0.033889 0.142515
O O14 0.922129 0.099270 0.251629
O O15 0.006452 0.089584 0.076408
O O16 0.250000 0.533738 0.500000
O O17 0.576554 0.136225 0.576057
#
# Coordination Sequence:
#
# PCOD8296838 Si02
#       8
#    16  16   8  16  16  16  16  16
#     4  12  24  40  67  97 135 179 226 283 339 391
#     4  11  24  40  60  96 134 170 229 282 330 399
#     4  12  28  44  68 110 142 170 226 306 350 406
#     4  11  20  42  68  90 123 180 230 261 325 412
#     4  11  24  45  72 101 134 184 229 280 357 420
#     4  11  23  46  72  99 137 183 233 275 344 436
#     4  11  23  44  67  95 132 182 223 283 340 403
#     4  11  23  41  68  92 131 179 225 278 342 407
#
# _framework density 20.407685000000001
#
# number of rings (size 3 to 8) (size 9 to 14) (size 15 to 20)
#    0.000    0.800    6.667    2.000    1.867    2.667 
#    2.400    0.000    0.000    0.000    0.000    0.000 
#    0.000    0.000    0.000    0.000    0.000    0.000 
#
# Total GULP energy -743899.821253 kJ/mol
# GULP energy per Si atom -12398.330354 kJ/mol
# Density = 2.036124 g / cm^3
# Si number density = 20.407685 Si / 1000 Ang^3
#
#
#
# Elastic Constant Matrix: (Units=GPa)
#
#
# Indices 1 2 3 4 5 6 
#
# 1 135.7674 49.5460 51.8436 -0.0004 0.0004 0.0002
# 2 49.5460 91.4823 55.8539 -0.0007 0.0000 0.0009
# 3 51.8436 55.8539 116.2558 -0.0059 0.0009 0.0071
# 4 -0.0004 -0.0007 -0.0059 -1.7326 0.0006 0.0037
# 5 0.0004 0.0000 0.0009 0.0006 31.9098 -0.0006
# 6 0.0002 0.0009 0.0071 0.0037 -0.0006 56.5666
#
#
#
# Elastic Compliance Matrix: (Units=1/GPa)
#
#
# Indices 1 2 3 4 5 6 
#
# 1 0.009684 -0.003691 -0.002545 0.000008 0.000000 0.000000
# 2 -0.003691 0.016875 -0.006462 0.000016 0.000000 0.000001
# 3 -0.002545 -0.006462 0.012841 -0.000041 0.000000 -0.000002
# 4 0.000008 0.000016 -0.000041 -0.577167 0.000012 0.000038
# 5 0.000000 0.000000 0.000000 0.000012 0.031338 0.000000
# 6 0.000000 0.000001 -0.000002 0.000038 0.000000 0.017678
#
#
# Mechanical properties :
#
#
# Convention : Reuss Voigt Hill
#
# Bulk Modulus (GPa) = 71.40317 73.11029 72.25673
# Shear Modulus (GPa) = -10.90072 29.76624 9.43276
#
# Velocity S-wave (km/s) = -2.31367 3.82328 2.15225
# Velocity P-wave (km/s) = 5.28459 7.44262 6.45444
#
# Compressibility (1/GPa) = 0.01400498
#
# Stress axis : x y z
#
# Youngs Moduli (GPa) = 103.25812 59.25901 77.87415
#
# Poissons Ratio (x) = 0.21872 0.19823
# Poissons Ratio (y) = 0.38111 0.50319
# Poissons Ratio (z) = 0.26284 0.38290
#
# Static dielectric constant tensor:
#      x y z
#    x 3.996530 0.000010 0.000000 
#    y 0.000010 3.804540 -0.000020 
#    z 0.000000 -0.000020 3.515800 
# 
# 
# High freq. dielectric constant tensor:
#      x y z
#    x 1.812420 0.000000 0.000000 
#    y 0.000000 1.786990 0.000000 
#    z 0.000000 0.000000 1.799150 
# 
# From -- ./inp_files/17482.got.cif
#   From: 2010.03.12/outbox.cif.g09.slc.cpg/sg73_9_cif.got.tgz:17482.got - 2010.04.16 15:25:48.
