data_PCOD8296267
_publ_section_title
;
Structure prediction by ZEFSAII (Michael W. Deem and Ramdas Pophale) SiO2 
 PCOD8296267
Probable space group: I B C A 
;
_chemical_formula_sum "Si O2"
_cell_formula_units_Z 64
_cell_length_a 30.661330
_cell_length_b 11.293732
_cell_length_c 9.296336
_cell_angle_alpha 90.000000
_cell_angle_beta 90.000000
_cell_angle_gamma 90.000000
_cell_volume 3219.143074
_symmetry_space_group_name_H-M "I B C A "
_symmetry_group_IT_number 73
_symmetry_cell_setting 'orthorhombic'
loop_
_space_group_symop_operation_xyz
x,y,z
-x,1/2-y,z
x,-y,1/2-z
1/2-x,y,-z
-x,-y,-z
x,1/2+y,-z
-x,y,1/2+z
1/2+x,-y,z
1/2+x,1/2+y,1/2+z
1/2-x,-y,1/2+z
1/2+x,1/2-y,-z
-x,1/2+y,1/2-z
1/2-x,1/2-y,1/2-z
1/2+x,y,1/2-z
1/2-x,1/2+y,z
x,1/2-y,1/2+z
loop_
_atom_site_type_symbol
_atom_site_label
_atom_site_fract_x
_atom_site_fract_y
_atom_site_fract_z
Si Si1 0.554441 0.362669 0.750638
Si Si2 0.000000 0.250000 0.499705
Si Si3 0.352374 0.247102 0.721345
Si Si4 0.798347 0.177205 0.037864
Si Si5 0.674107 0.000000 0.750000
O O1 0.565115 0.500000 0.750000
O O2 0.529240 0.331627 0.603684
O O3 0.599148 0.291486 0.755692
O O4 0.528449 0.333196 0.896377
O O5 0.330731 0.169071 0.596890
O O6 0.354724 0.389802 0.689822
O O7 0.320321 0.225663 0.857047
O O8 0.750000 0.220912 0.000000
O O9 0.796163 0.049120 0.117990
#
# Coordination Sequence:
#
# PCOD8296267 Si02
#       5
#    16   8  16  16   8
#     4  11  23  44  67  98 128 171 214 263 332 385
#     4  10  24  44  66  98 132 164 214 270 318 400
#     4  10  22  42  64  94 129 169 213 268 323 383
#     4  10  21  42  63  93 130 171 218 267 320 379
#     4   8  24  40  58  98 126 172 208 272 316 380
#
# _framework density 19.881067999999999
#
# number of rings (size 3 to 8) (size 9 to 14) (size 15 to 20)
#    1.500    0.500    0.000    3.000    0.000    5.000 
#   11.250    0.000    0.000    0.000    0.000    0.000 
#    0.000    0.000    0.000    0.000    0.000    0.000 
#
# Total GULP energy -396474.228216 kJ/mol
# GULP energy per Si atom -12389.819632 kJ/mol
# Density = 1.983582 g / cm^3
# Si number density = 19.881068 Si / 1000 Ang^3
#
#
#
# Elastic Constant Matrix: (Units=GPa)
#
#
# Indices 1 2 3 4 5 6 
#
# 1 144.5180 57.9817 76.5255 0.0000 0.0000 0.0000
# 2 57.9817 79.2530 36.6703 0.0000 0.0000 0.0000
# 3 76.5255 36.6703 141.3328 0.0000 0.0000 0.0000
# 4 0.0000 0.0000 0.0000 30.1513 0.0000 0.0000
# 5 0.0000 0.0000 0.0000 0.0000 27.7282 0.0000
# 6 0.0000 0.0000 0.0000 0.0000 0.0000 -22.3135
#
#
#
# Elastic Compliance Matrix: (Units=1/GPa)
#
#
# Indices 1 2 3 4 5 6 
#
# 1 0.012160 -0.006648 -0.004859 0.000000 0.000000 0.000000
# 2 -0.006648 0.017974 -0.001064 0.000000 0.000000 0.000000
# 3 -0.004859 -0.001064 0.009983 0.000000 0.000000 0.000000
# 4 0.000000 0.000000 0.000000 0.033166 0.000000 0.000000
# 5 0.000000 0.000000 0.000000 0.000000 0.036064 0.000000
# 6 0.000000 0.000000 0.000000 0.000000 0.000000 -0.044816
#
#
# Mechanical properties :
#
#
# Convention : Reuss Voigt Hill
#
# Bulk Modulus (GPa) = 66.78157 78.60653 72.69405
# Shear Modulus (GPa) = 52.81870 20.04163 36.43016
#
# Velocity S-wave (km/s) = 5.15994 3.17847 4.28530
# Velocity P-wave (km/s) = 8.31646 7.28659 7.81850
#
# Compressibility (1/GPa) = 0.01497419
#
# Stress axis : x y z
#
# Youngs Moduli (GPa) = 82.23906 55.63705 100.17488
#
# Poissons Ratio (x) = 0.36986 0.48676
# Poissons Ratio (y) = 0.54670 0.10658
# Poissons Ratio (z) = 0.39961 0.05920
#
# Static dielectric constant tensor:
#      x y z
#    x 3.455160 0.000000 0.000000 
#    y 0.000000 3.349110 0.000000 
#    z 0.000000 0.000000 3.818430 
# 
# 
# High freq. dielectric constant tensor:
#      x y z
#    x 1.772800 0.000000 0.000000 
#    y 0.000000 1.760280 0.000000 
#    z 0.000000 0.000000 1.792940 
# 
# From -- ./inp_files/8243.got.cif
#   From: 2010.03.12/outbox.cif.g09.slc.cpg/sg73_5_cif.got.tgz:8243.got - 2010.04.16 15:25:48.
