data_PCOD8296225
_publ_section_title
;
Structure prediction by ZEFSAII (Michael W. Deem and Ramdas Pophale) SiO2 
 PCOD8296225
Probable space group: I B C A 
;
_chemical_formula_sum "Si O2"
_cell_formula_units_Z 128
_cell_length_a 17.617162
_cell_length_b 23.371286
_cell_length_c 12.669858
_cell_angle_alpha 90.000000
_cell_angle_beta 90.000000
_cell_angle_gamma 90.000000
_cell_volume 5216.633253
_symmetry_space_group_name_H-M "I B C A "
_symmetry_group_IT_number 73
_symmetry_cell_setting 'orthorhombic'
loop_
_space_group_symop_operation_xyz
x,y,z
-x,1/2-y,z
x,-y,1/2-z
1/2-x,y,-z
-x,-y,-z
x,1/2+y,-z
-x,y,1/2+z
1/2+x,-y,z
1/2+x,1/2+y,1/2+z
1/2-x,-y,1/2+z
1/2+x,1/2-y,-z
-x,1/2+y,1/2-z
1/2-x,1/2-y,1/2-z
1/2+x,y,1/2-z
1/2-x,1/2+y,z
x,1/2-y,1/2+z
loop_
_atom_site_type_symbol
_atom_site_label
_atom_site_fract_x
_atom_site_fract_y
_atom_site_fract_z
Si Si1 0.825471 0.089742 0.563367
Si Si2 0.718353 0.115206 0.206787
Si Si3 0.336161 0.534699 0.462030
Si Si4 0.900850 0.689534 0.556118
Si Si5 0.016233 0.837676 0.746945
Si Si6 0.117071 0.060032 0.687964
Si Si7 0.605640 0.766097 0.164235
Si Si8 0.269204 0.759968 0.878034
O O1 0.750000 0.077661 0.500000
O O2 0.812307 0.121527 0.674187
O O3 0.875423 0.128840 0.488534
O O4 0.863583 0.027598 0.578679
O O5 0.659611 0.076014 0.139684
O O6 0.803079 0.089463 0.216990
O O7 0.717680 0.174056 0.143504
O O8 0.250000 0.535867 0.500000
O O9 0.389072 0.552543 0.561125
O O10 0.976769 0.675708 0.621993
O O11 0.913040 0.732306 0.460024
O O12 0.842515 0.719248 0.640903
O O13 0.044973 0.901151 0.776329
O O14 0.068015 0.793463 0.809672
O O15 0.928939 0.822835 0.777443
O O16 0.112070 0.000000 0.750000
O O17 0.696845 0.764665 0.189999
O O18 0.250000 0.750291 0.000000
#
# Coordination Sequence:
#
# PCOD8296225 Si02
#       8
#    16  16  16  16  16  16  16  16
#     4  11  21  36  57  97 140 183 229 290 361 419
#     4  11  20  34  62  96 143 187 236 297 360 428
#     4   9  19  33  56  93 140 184 231 291 351 419
#     4  11  25  42  68  99 140 183 234 300 357 425
#     4  11  24  43  68  97 138 186 236 286 353 437
#     4  11  20  36  66 100 136 190 244 290 351 431
#     4  10  24  43  65  95 134 186 234 286 358 430
#     4  10  21  40  64 102 141 176 236 304 365 420
#
# _framework density 24.536898000000001
#
# number of rings (size 3 to 8) (size 9 to 14) (size 15 to 20)
#    0.000    1.500    1.250    6.375    3.500    2.500 
#    0.000    1.250    0.000    4.500    0.000    2.625 
#    0.000    0.000    0.000    0.000    0.000    0.000 
#
# Total GULP energy -793480.589181 kJ/mol
# GULP energy per Si atom -12398.134206 kJ/mol
# Density = 2.448105 g / cm^3
# Si number density = 24.536898 Si / 1000 Ang^3
#
#
#
# Elastic Constant Matrix: (Units=GPa)
#
#
# Indices 1 2 3 4 5 6 
#
# 1 87.7023 39.7072 31.5225 0.0000 0.0000 0.0000
# 2 39.7072 147.4783 28.1942 0.0000 0.0000 0.0000
# 3 31.5225 28.1942 84.0505 0.0000 0.0000 0.0000
# 4 0.0000 0.0000 0.0000 56.2491 0.0000 0.0000
# 5 0.0000 0.0000 0.0000 0.0000 24.4580 0.0000
# 6 0.0000 0.0000 0.0000 0.0000 0.0000 37.6201
#
#
#
# Elastic Compliance Matrix: (Units=1/GPa)
#
#
# Indices 1 2 3 4 5 6 
#
# 1 0.014341 -0.003027 -0.004363 0.000000 0.000000 0.000000
# 2 -0.003027 0.007884 -0.001509 0.000000 0.000000 0.000000
# 3 -0.004363 -0.001509 0.014040 0.000000 0.000000 0.000000
# 4 0.000000 0.000000 0.000000 0.017778 0.000000 0.000000
# 5 0.000000 0.000000 0.000000 0.000000 0.040886 0.000000
# 6 0.000000 0.000000 0.000000 0.000000 0.000000 0.026582
#
#
# Mechanical properties :
#
#
# Convention : Reuss Voigt Hill
#
# Bulk Modulus (GPa) = 54.15262 57.56433 55.85848
# Shear Modulus (GPa) = 34.37231 38.31926 36.34578
#
# Velocity S-wave (km/s) = 3.74684 3.95612 3.85290
# Velocity P-wave (km/s) = 6.39032 6.66176 6.52745
#
# Compressibility (1/GPa) = 0.01846633
#
# Stress axis : x y z
#
# Youngs Moduli (GPa) = 69.73064 126.83545 71.22370
#
# Poissons Ratio (x) = 0.38394 0.31075
# Poissons Ratio (y) = 0.21108 0.10751
# Poissons Ratio (z) = 0.30424 0.19145
#
# Static dielectric constant tensor:
#      x y z
#    x 4.768720 0.000000 0.000000 
#    y 0.000000 4.638360 0.000000 
#    z 0.000000 0.000000 4.633670 
# 
# 
# High freq. dielectric constant tensor:
#      x y z
#    x 1.942030 0.000000 0.000000 
#    y 0.000000 1.988530 0.000000 
#    z 0.000000 0.000000 2.005870 
# 
# From -- ./inp_files/13925.got.cif
#   From: 2010.03.12/outbox.cif.g09.slc.cpg/sg73_7_cif.got.tgz:13925.got - 2010.04.16 15:25:48.
