data_PCOD8296046
_publ_section_title
;
Structure prediction by ZEFSAII (Michael W. Deem and Ramdas Pophale) SiO2 
 PCOD8296046
Probable space group: I B C A 
;
_chemical_formula_sum "Si O2"
_cell_formula_units_Z 120
_cell_length_a 16.643609
_cell_length_b 28.268047
_cell_length_c 11.125615
_cell_angle_alpha 90.000000
_cell_angle_beta 90.000000
_cell_angle_gamma 90.000000
_cell_volume 5234.405173
_symmetry_space_group_name_H-M "I B C A "
_symmetry_group_IT_number 73
_symmetry_cell_setting 'orthorhombic'
loop_
_space_group_symop_operation_xyz
x,y,z
-x,1/2-y,z
x,-y,1/2-z
1/2-x,y,-z
-x,-y,-z
x,1/2+y,-z
-x,y,1/2+z
1/2+x,-y,z
1/2+x,1/2+y,1/2+z
1/2-x,-y,1/2+z
1/2+x,1/2-y,-z
-x,1/2+y,1/2-z
1/2-x,1/2-y,1/2-z
1/2+x,y,1/2-z
1/2-x,1/2+y,z
x,1/2-y,1/2+z
loop_
_atom_site_type_symbol
_atom_site_label
_atom_site_fract_x
_atom_site_fract_y
_atom_site_fract_z
Si Si1 0.115335 0.166649 0.901529
Si Si2 0.750000 0.861754 0.500000
Si Si3 0.409938 0.736555 0.110133
Si Si4 0.398466 0.414901 0.034623
Si Si5 0.189192 0.004230 0.115309
Si Si6 0.283475 0.700821 0.703967
Si Si7 0.546851 0.340435 0.720800
Si Si8 0.934443 0.412800 0.068407
O O1 0.194569 0.167967 0.818147
O O2 0.040030 0.179202 0.816797
O O3 0.127300 0.206340 0.002228
O O4 0.106345 0.114185 0.956063
O O5 0.823561 0.895629 0.454764
O O6 0.773740 0.829480 0.615781
O O7 0.500000 0.750000 0.075793
O O8 0.361946 0.785331 0.125094
O O9 0.402836 0.705246 0.233453
O O10 0.366998 0.458486 0.111759
O O11 0.415369 0.367952 0.110573
O O12 0.478104 0.433979 0.967642
O O13 0.128888 0.048577 0.112015
O O14 0.230758 0.000000 0.250000
O O15 0.250000 0.006497 0.000000
O O16 0.250000 0.750000 0.750000
O O17 0.540398 0.376128 0.830841
#
# Coordination Sequence:
#
# PCOD8296046 Si02
#       8
#    16   8  16  16  16  16  16  16
#     4  10  23  39  65 100 133 181 238 293 358 423
#     4  12  26  42  70  96 144 182 236 298 362 438
#     4  11  23  37  63  96 135 181 245 294 354 415
#     4  11  23  44  73 101 141 186 234 292 372 430
#     4  12  26  51  76 113 149 189 239 303 375 457
#     4  12  25  43  62  96 139 191 239 295 356 423
#     4  10  20  41  66  95 133 181 230 302 342 423
#     4  10  23  45  73 104 139 186 240 293 365 439
#
# _framework density 22.925239999999999
#
# number of rings (size 3 to 8) (size 9 to 14) (size 15 to 20)
#    0.000    1.067    3.333    2.800    5.600    1.067 
#    9.600    0.000    0.000    0.000    0.000    0.000 
#    0.000    0.000    0.000    0.000    0.000    0.000 
#
# Total GULP energy -743543.786337 kJ/mol
# GULP energy per Si atom -12392.396439 kJ/mol
# Density = 2.287306 g / cm^3
# Si number density = 22.925240 Si / 1000 Ang^3
#
#
#
# Elastic Constant Matrix: (Units=GPa)
#
#
# Indices 1 2 3 4 5 6 
#
# 1 71.8892 18.4209 33.4118 0.0001 0.0000 0.0000
# 2 18.4209 69.3777 16.2867 0.0002 -0.0001 0.0000
# 3 33.4118 16.2867 104.1557 0.0009 -0.0005 0.0000
# 4 0.0001 0.0002 0.0009 18.6499 -0.0001 0.0001
# 5 0.0000 -0.0001 -0.0005 -0.0001 30.5133 -0.0002
# 6 0.0000 0.0000 0.0000 0.0001 -0.0002 36.8155
#
#
#
# Elastic Compliance Matrix: (Units=1/GPa)
#
#
# Indices 1 2 3 4 5 6 
#
# 1 0.017075 -0.003372 -0.004950 0.000000 0.000000 0.000000
# 2 -0.003372 0.015629 -0.001362 0.000000 0.000000 0.000000
# 3 -0.004950 -0.001362 0.011402 -0.000001 0.000000 0.000000
# 4 0.000000 0.000000 -0.000001 0.053619 0.000000 0.000000
# 5 0.000000 0.000000 0.000000 0.000000 0.032773 0.000000
# 6 0.000000 0.000000 0.000000 0.000000 0.000000 0.027162
#
#
# Mechanical properties :
#
#
# Convention : Reuss Voigt Hill
#
# Bulk Modulus (GPa) = 40.42431 42.40683 41.41557
# Shear Modulus (GPa) = 26.98700 29.01596 28.00148
#
# Velocity S-wave (km/s) = 3.43472 3.56150 3.49868
# Velocity P-wave (km/s) = 5.77937 5.95402 5.86735
#
# Compressibility (1/GPa) = 0.02473759
#
# Stress axis : x y z
#
# Youngs Moduli (GPa) = 58.56540 63.98412 87.70395
#
# Poissons Ratio (x) = 0.21573 0.43415
# Poissons Ratio (y) = 0.19746 0.11948
# Poissons Ratio (z) = 0.28991 0.08717
#
# Static dielectric constant tensor:
#      x y z
#    x 4.333870 0.000000 0.000000 
#    y 0.000000 4.279140 0.000000 
#    z 0.000000 0.000000 4.282840 
# 
# 
# High freq. dielectric constant tensor:
#      x y z
#    x 1.903580 0.000000 0.000000 
#    y 0.000000 1.905490 0.000000 
#    z 0.000000 0.000000 1.907560 
# 
# From -- ./inp_files/12326.got.cif
#   From: 2010.03.12/outbox.cif.g09.slc.cpg/sg73_7_cif.got.tgz:12326.got - 2010.04.16 15:25:48.
