data_PCOD8296004
_publ_section_title
;
Structure prediction by ZEFSAII (Michael W. Deem and Ramdas Pophale) SiO2 
 PCOD8296004
Probable space group: I B C A 
;
_chemical_formula_sum "Si O2"
_cell_formula_units_Z 104
_cell_length_a 18.454153
_cell_length_b 8.963406
_cell_length_c 30.338322
_cell_angle_alpha 90.000000
_cell_angle_beta 90.000000
_cell_angle_gamma 90.000000
_cell_volume 5018.324513
_symmetry_space_group_name_H-M "I B C A "
_symmetry_group_IT_number 73
_symmetry_cell_setting 'orthorhombic'
loop_
_space_group_symop_operation_xyz
x,y,z
-x,1/2-y,z
x,-y,1/2-z
1/2-x,y,-z
-x,-y,-z
x,1/2+y,-z
-x,y,1/2+z
1/2+x,-y,z
1/2+x,1/2+y,1/2+z
1/2-x,-y,1/2+z
1/2+x,1/2-y,-z
-x,1/2+y,1/2-z
1/2-x,1/2-y,1/2-z
1/2+x,y,1/2-z
1/2-x,1/2+y,z
x,1/2-y,1/2+z
loop_
_atom_site_type_symbol
_atom_site_label
_atom_site_fract_x
_atom_site_fract_y
_atom_site_fract_z
Si Si1 0.314600 0.971923 0.150559
Si Si2 0.288658 0.235580 0.703293
Si Si3 0.051592 0.107304 0.290341
Si Si4 0.750000 0.304127 0.500000
Si Si5 0.983679 0.922471 0.366705
Si Si6 0.315025 0.550553 0.944972
Si Si7 0.519709 0.421883 0.045654
O O1 0.267781 0.834992 0.168782
O O2 0.398858 0.935571 0.144060
O O3 0.308328 0.101894 0.186064
O O4 0.281392 0.014360 0.102830
O O5 0.250000 0.250000 0.750000
O O6 0.363175 0.144558 0.707924
O O7 0.000000 0.250000 0.285242
O O8 0.034701 0.000000 0.250000
O O9 0.032020 0.019528 0.334220
O O10 0.690219 0.412461 0.478881
O O11 0.778311 0.202077 0.460880
O O12 0.000000 0.750000 0.362254
O O13 0.012613 0.981036 0.414266
O O14 0.397672 0.585087 0.942095
O O15 0.500000 0.250000 0.044754
O O16 0.500000 0.500000 0.000000
#
# Coordination Sequence:
#
# PCOD8296004 Si02
#       7
#    16  16  16   8  16  16  16
#     4  11  25  45  68 100 140 177 236 285 350 420
#     4  12  27  46  70 102 138 181 231 291 355 424
#     4  12  26  46  72 102 137 184 229 289 356 420
#     4  10  20  40  62  94 130 172 228 268 334 400
#     4  11  26  45  70 102 140 188 239 290 354 422
#     4  10  22  40  65  95 132 179 221 279 339 401
#     4  11  23  42  68 102 140 182 231 289 348 415
#
# _framework density 20.724049000000001
#
# number of rings (size 3 to 8) (size 9 to 14) (size 15 to 20)
#    0.000    0.923    1.538    4.615    8.615    1.231 
#    5.538    0.000    0.000    0.000    0.000    0.000 
#    0.000    0.000    0.000    0.000    0.000    0.000 
#
# Total GULP energy -644698.000394 kJ/mol
# GULP energy per Si atom -12398.038469 kJ/mol
# Density = 2.067688 g / cm^3
# Si number density = 20.724049 Si / 1000 Ang^3
#
#
#
# Elastic Constant Matrix: (Units=GPa)
#
#
# Indices 1 2 3 4 5 6 
#
# 1 87.1383 49.0739 63.8846 0.0000 0.0000 0.0000
# 2 49.0739 147.9484 57.1505 0.0000 0.0000 0.0000
# 3 63.8846 57.1505 148.1906 0.0000 0.0000 0.0000
# 4 0.0000 0.0000 0.0000 47.5653 0.0000 0.0000
# 5 0.0000 0.0000 0.0000 0.0000 34.1850 0.0000
# 6 0.0000 0.0000 0.0000 0.0000 0.0000 38.6150
#
#
#
# Elastic Compliance Matrix: (Units=1/GPa)
#
#
# Indices 1 2 3 4 5 6 
#
# 1 0.018230 -0.003538 -0.006494 0.000000 0.000000 0.000000
# 2 -0.003538 0.008629 -0.001803 0.000000 0.000000 0.000000
# 3 -0.006494 -0.001803 0.010243 0.000000 0.000000 0.000000
# 4 0.000000 0.000000 0.000000 0.021024 0.000000 0.000000
# 5 0.000000 0.000000 0.000000 0.000000 0.029253 0.000000
# 6 0.000000 0.000000 0.000000 0.000000 0.000000 0.025897
#
#
# Mechanical properties :
#
#
# Convention : Reuss Voigt Hill
#
# Bulk Modulus (GPa) = 74.45040 80.38838 77.41939
# Shear Modulus (GPa) = 35.35518 38.28427 36.81972
#
# Velocity S-wave (km/s) = 4.13485 4.30273 4.21962
# Velocity P-wave (km/s) = 7.66803 7.97237 7.82168
#
# Compressibility (1/GPa) = 0.01343176
#
# Stress axis : x y z
#
# Youngs Moduli (GPa) = 54.85519 115.88850 97.62830
#
# Poissons Ratio (x) = 0.41002 0.63403
# Poissons Ratio (y) = 0.19408 0.17598
# Poissons Ratio (z) = 0.35625 0.20890
#
# Static dielectric constant tensor:
#      x y z
#    x 4.948390 0.000000 0.000000 
#    y 0.000000 3.952570 0.000000 
#    z 0.000000 0.000000 4.179400 
# 
# 
# High freq. dielectric constant tensor:
#      x y z
#    x 1.813510 0.000000 0.000000 
#    y 0.000000 1.830890 0.000000 
#    z 0.000000 0.000000 1.832960 
# 
# From -- ./inp_files/32668.got.cif
#   From: 2010.03.12/outbox.cif.g09.slc.cpg/sg73_17_cif.got.tgz:32668.got - 2010.04.16 15:25:48.
