data_PCOD8296278
_publ_section_title
;
Structure prediction by ZEFSAII (Michael W. Deem and Ramdas Pophale) SiO2 
 PCOD8296278
Probable space group: I B C A 
;
_chemical_formula_sum "Si O2"
_cell_formula_units_Z 120
_cell_length_a 11.538832
_cell_length_b 27.380722
_cell_length_c 18.176435
_cell_angle_alpha 90.000000
_cell_angle_beta 90.000000
_cell_angle_gamma 90.000000
_cell_volume 5742.691069
_symmetry_space_group_name_H-M "I B C A "
_symmetry_group_IT_number 73
_symmetry_cell_setting 'orthorhombic'
loop_
_space_group_symop_operation_xyz
x,y,z
-x,1/2-y,z
x,-y,1/2-z
1/2-x,y,-z
-x,-y,-z
x,1/2+y,-z
-x,y,1/2+z
1/2+x,-y,z
1/2+x,1/2+y,1/2+z
1/2-x,-y,1/2+z
1/2+x,1/2-y,-z
-x,1/2+y,1/2-z
1/2-x,1/2-y,1/2-z
1/2+x,y,1/2-z
1/2-x,1/2+y,z
x,1/2-y,1/2+z
loop_
_atom_site_type_symbol
_atom_site_label
_atom_site_fract_x
_atom_site_fract_y
_atom_site_fract_z
Si Si1 0.000000 0.250000 0.091011
Si Si2 0.986166 0.410086 0.591727
Si Si3 0.067363 0.855822 0.160233
Si Si4 0.243717 0.936408 0.831316
Si Si5 0.318529 0.100611 0.174751
Si Si6 0.386007 0.170416 0.505939
Si Si7 0.298216 0.973595 0.577627
Si Si8 0.884374 0.331405 0.183454
O O1 0.916183 0.217622 0.041643
O O2 0.912312 0.282022 0.140043
O O3 0.873667 0.435897 0.622900
O O4 0.954874 0.377004 0.521933
O O5 0.072986 0.452429 0.566098
O O6 0.038569 0.376848 0.656561
O O7 0.175617 0.891396 0.147316
O O8 0.086432 0.821739 0.231183
O O9 0.953321 0.888022 0.171700
O O10 0.067437 0.820974 0.088848
O O11 0.215664 0.933509 0.744482
O O12 0.306195 0.985983 0.857762
O O13 0.285634 0.070586 0.102046
O O14 0.249916 0.152543 0.175348
O O15 0.250000 0.161323 0.500000
O O16 0.250000 0.994551 0.500000
#
# Coordination Sequence:
#
# PCOD8296278 Si02
#       8
#     8  16  16  16  16  16  16  16
#     4  10  24  42  66  96 130 168 206 270 332 396
#     4  10  21  43  63  87 135 173 209 270 335 381
#     4  11  22  39  67  93 124 172 217 264 327 391
#     4  11  23  39  64  92 125 173 220 270 318 375
#     4  10  22  43  63  93 128 171 221 268 318 378
#     4  11  23  41  65  96 131 166 214 267 336 402
#     4  11  25  39  61  96 132 173 223 267 320 378
#     4   9  21  42  66  90 124 170 209 263 330 388
#
# _framework density 20.896125999999999
#
# number of rings (size 3 to 8) (size 9 to 14) (size 15 to 20)
#    0.000    1.600    2.667    1.200    3.733    2.133 
#    0.000    2.667    0.000    0.000    0.000    0.000 
#    0.000    0.000    0.000    0.000    0.000    0.000 
#
# Total GULP energy -744101.821903 kJ/mol
# GULP energy per Si atom -12401.697032 kJ/mol
# Density = 2.084857 g / cm^3
# Si number density = 20.896126 Si / 1000 Ang^3
#
#
#
# Elastic Constant Matrix: (Units=GPa)
#
#
# Indices 1 2 3 4 5 6 
#
# 1 109.3041 34.3052 41.6863 0.0000 0.0000 0.0000
# 2 34.3052 87.5651 46.4430 -0.0001 0.0000 0.0000
# 3 41.6863 46.4430 143.0336 0.0001 0.0000 0.0000
# 4 0.0000 -0.0001 0.0001 15.5170 -0.0001 -0.0001
# 5 0.0000 0.0000 0.0000 -0.0001 26.7212 0.0000
# 6 0.0000 0.0000 0.0000 -0.0001 0.0000 16.2027
#
#
#
# Elastic Compliance Matrix: (Units=1/GPa)
#
#
# Indices 1 2 3 4 5 6 
#
# 1 0.010964 -0.003142 -0.002175 0.000000 0.000000 0.000000
# 2 -0.003142 0.014696 -0.003856 0.000000 0.000000 0.000000
# 3 -0.002175 -0.003856 0.008877 0.000000 0.000000 0.000000
# 4 0.000000 0.000000 0.000000 0.064446 0.000000 0.000000
# 5 0.000000 0.000000 0.000000 0.000000 0.037423 0.000000
# 6 0.000000 0.000000 0.000000 0.000000 0.000000 0.061718
#
#
# Mechanical properties :
#
#
# Convention : Reuss Voigt Hill
#
# Bulk Modulus (GPa) = 61.76105 64.97463 63.36784
# Shear Modulus (GPa) = 22.53581 26.18606 24.36094
#
# Velocity S-wave (km/s) = 3.28757 3.54383 3.41810
# Velocity P-wave (km/s) = 6.63560 6.92146 6.78004
#
# Compressibility (1/GPa) = 0.01619143
#
# Stress axis : x y z
#
# Youngs Moduli (GPa) = 91.20354 68.04498 112.64453
#
# Poissons Ratio (x) = 0.21378 0.24505
# Poissons Ratio (y) = 0.28654 0.43438
# Poissons Ratio (z) = 0.19841 0.26239
#
# Static dielectric constant tensor:
#      x y z
#    x 3.840000 0.000000 0.000000 
#    y 0.000000 3.485900 0.000000 
#    z 0.000000 0.000000 3.957670 
# 
# 
# High freq. dielectric constant tensor:
#      x y z
#    x 1.825380 0.000000 0.000000 
#    y 0.000000 1.796330 0.000000 
#    z 0.000000 0.000000 1.833340 
# 
# From -- ./inp_files/14373.got.cif
#   From: 2010.03.12/outbox.cif.g09.slc.cpg/sg73_8_cif.got.tgz:14373.got - 2010.04.16 15:25:48.
