data_PCOD8296566
_publ_section_title
;
Structure prediction by ZEFSAII (Michael W. Deem and Ramdas Pophale) SiO2 
 PCOD8296566
Probable space group: I B C A 
;
_chemical_formula_sum "Si O2"
_cell_formula_units_Z 88
_cell_length_a 16.863253
_cell_length_b 10.588180
_cell_length_c 22.636372
_cell_angle_alpha 90.000000
_cell_angle_beta 90.000000
_cell_angle_gamma 90.000000
_cell_volume 4041.750437
_symmetry_space_group_name_H-M "I B C A "
_symmetry_group_IT_number 73
_symmetry_cell_setting 'orthorhombic'
loop_
_space_group_symop_operation_xyz
x,y,z
-x,1/2-y,z
x,-y,1/2-z
1/2-x,y,-z
-x,-y,-z
x,1/2+y,-z
-x,y,1/2+z
1/2+x,-y,z
1/2+x,1/2+y,1/2+z
1/2-x,-y,1/2+z
1/2+x,1/2-y,-z
-x,1/2+y,1/2-z
1/2-x,1/2-y,1/2-z
1/2+x,y,1/2-z
1/2-x,1/2+y,z
x,1/2-y,1/2+z
loop_
_atom_site_type_symbol
_atom_site_label
_atom_site_fract_x
_atom_site_fract_y
_atom_site_fract_z
Si Si1 0.911356 0.525503 0.336826
Si Si2 0.464413 0.000000 0.250000
Si Si3 0.916871 0.518752 0.471389
Si Si4 0.403562 0.254771 0.551366
Si Si5 0.694404 0.797552 0.336450
Si Si6 0.856539 0.281034 0.711799
O O1 0.931346 0.559355 0.404037
O O2 0.831112 0.444010 0.333532
O O3 0.904509 0.654081 0.300512
O O4 0.980060 0.444768 0.303367
O O5 0.415059 0.898494 0.213105
O O6 0.875082 0.633494 0.507180
O O7 0.873883 0.381407 0.474701
O O8 0.000000 0.500000 0.500000
O O9 0.500000 0.250000 0.562292
O O10 0.353702 0.274640 0.611630
O O11 0.790516 0.798196 0.340460
O O12 0.679410 0.720223 0.277063
#
# Coordination Sequence:
#
# PCOD8296566 Si02
#       6
#    16   8  16  16  16  16
#     4  11  23  44  65  97 138 167 228 288 331 406
#     4  12  26  36  66  98 126 174 226 278 340 398
#     4   9  20  37  64  96 129 172 215 284 339 395
#     4   9  19  37  65  97 128 174 223 278 337 405
#     4  10  23  41  65  88 136 174 218 268 343 400
#     4  11  25  40  62  94 131 178 219 272 343 399
#
# _framework density 21.772746000000001
#
# number of rings (size 3 to 8) (size 9 to 14) (size 15 to 20)
#    0.000    1.818    1.818    0.545   12.727    4.364 
#    0.000    0.909    0.000    6.545    0.000    0.000 
#    0.000    0.000    0.000    0.000    0.000    0.000 
#
# Total GULP energy -545096.641979 kJ/mol
# GULP energy per Si atom -12388.560045 kJ/mol
# Density = 2.172319 g / cm^3
# Si number density = 21.772746 Si / 1000 Ang^3
#
#
#
# Elastic Constant Matrix: (Units=GPa)
#
#
# Indices 1 2 3 4 5 6 
#
# 1 91.0864 27.9535 49.5741 0.0000 0.0000 0.0000
# 2 27.9535 114.4673 48.8047 0.0000 0.0000 0.0000
# 3 49.5741 48.8047 143.5746 0.0000 0.0000 0.0000
# 4 0.0000 0.0000 0.0000 43.0933 0.0000 0.0000
# 5 0.0000 0.0000 0.0000 0.0000 33.3113 0.0000
# 6 0.0000 0.0000 0.0000 0.0000 0.0000 24.7149
#
#
#
# Elastic Compliance Matrix: (Units=1/GPa)
#
#
# Indices 1 2 3 4 5 6 
#
# 1 0.013753 -0.001560 -0.004219 0.000000 0.000000 0.000000
# 2 -0.001560 0.010394 -0.002994 0.000000 0.000000 0.000000
# 3 -0.004219 -0.002994 0.009440 0.000000 0.000000 0.000000
# 4 0.000000 0.000000 0.000000 0.023205 0.000000 0.000000
# 5 0.000000 0.000000 0.000000 0.000000 0.030020 0.000000
# 6 0.000000 0.000000 0.000000 0.000000 0.000000 0.040461
#
#
# Mechanical properties :
#
#
# Convention : Reuss Voigt Hill
#
# Bulk Modulus (GPa) = 62.34174 66.86589 64.60382
# Shear Modulus (GPa) = 33.29643 35.07696 34.18670
#
# Velocity S-wave (km/s) = 3.91483 4.01814 3.96682
# Velocity P-wave (km/s) = 7.00925 7.23220 7.12160
#
# Compressibility (1/GPa) = 0.01604062
#
# Stress axis : x y z
#
# Youngs Moduli (GPa) = 72.70992 96.21102 105.93771
#
# Poissons Ratio (x) = 0.15009 0.44690
# Poissons Ratio (y) = 0.11343 0.31723
# Poissons Ratio (z) = 0.30673 0.28810
#
# Static dielectric constant tensor:
#      x y z
#    x 3.877300 0.000000 0.000000 
#    y 0.000000 4.638270 0.000000 
#    z 0.000000 0.000000 10.340180 
# 
# 
# High freq. dielectric constant tensor:
#      x y z
#    x 1.835090 0.000000 0.000000 
#    y 0.000000 1.856740 0.000000 
#    z 0.000000 0.000000 1.855930 
# 
# From -- ./inp_files/29400.got.cif
#   From: 2010.03.12/outbox.cif.g09.slc.cpg/sg73_15_cif.got.tgz:29400.got - 2010.04.16 15:25:48.
