data_PCOD8296957
_publ_section_title
;
Structure prediction by ZEFSAII (Michael W. Deem and Ramdas Pophale) SiO2 
 PCOD8296957
Probable space group: I B C A 
;
_chemical_formula_sum "Si O2"
_cell_formula_units_Z 64
_cell_length_a 10.307979
_cell_length_b 21.769026
_cell_length_c 12.011177
_cell_angle_alpha 90.000000
_cell_angle_beta 90.000000
_cell_angle_gamma 90.000000
_cell_volume 2695.244013
_symmetry_space_group_name_H-M "I B C A "
_symmetry_group_IT_number 73
_symmetry_cell_setting 'orthorhombic'
loop_
_space_group_symop_operation_xyz
x,y,z
-x,1/2-y,z
x,-y,1/2-z
1/2-x,y,-z
-x,-y,-z
x,1/2+y,-z
-x,y,1/2+z
1/2+x,-y,z
1/2+x,1/2+y,1/2+z
1/2-x,-y,1/2+z
1/2+x,1/2-y,-z
-x,1/2+y,1/2-z
1/2-x,1/2-y,1/2-z
1/2+x,y,1/2-z
1/2-x,1/2+y,z
x,1/2-y,1/2+z
loop_
_atom_site_type_symbol
_atom_site_label
_atom_site_fract_x
_atom_site_fract_y
_atom_site_fract_z
Si Si1 0.763385 0.114898 0.773004
Si Si2 0.910933 0.408154 0.488536
Si Si3 0.655998 0.969751 0.901096
Si Si4 0.514245 0.822210 0.670389
O O1 0.788894 0.104935 0.906086
O O2 0.728563 0.049764 0.713469
O O3 0.641197 0.160445 0.757452
O O4 0.887135 0.146633 0.719664
O O5 0.875604 0.457587 0.587207
O O6 0.964952 0.346488 0.544626
O O7 0.019429 0.435032 0.406595
O O8 0.750000 0.948026 0.000000
O O9 0.500000 0.750000 0.667449
#
# Coordination Sequence:
#
# PCOD8296957 Si02
#       4
#    16  16  16  16
#     4  12  25  51  76 113 151 200 255 309 387 450
#     4  11  26  48  74 112 148 199 249 308 386 452
#     4  11  23  47  76 107 152 195 242 313 386 450
#     4  12  27  49  75 109 153 205 258 312 368 453
#
# _framework density 23.745531
#
# number of rings (size 3 to 8) (size 9 to 14) (size 15 to 20)
#    0.000    0.500    5.000    3.000    0.000    5.000 
#    9.000    0.000    0.000    0.000    0.000    0.000 
#    0.000    0.000    0.000    0.000    0.000    0.000 
#
# Total GULP energy -396802.552199 kJ/mol
# GULP energy per Si atom -12400.079756 kJ/mol
# Density = 2.369149 g / cm^3
# Si number density = 23.745531 Si / 1000 Ang^3
#
#
#
# Elastic Constant Matrix: (Units=GPa)
#
#
# Indices 1 2 3 4 5 6 
#
# 1 171.9260 82.7841 37.9337 0.0001 0.0000 0.0000
# 2 82.7841 167.2586 59.6702 -0.0002 0.0001 0.0000
# 3 37.9337 59.6702 144.6907 -0.0002 0.0003 0.0001
# 4 0.0001 -0.0002 -0.0002 19.5005 0.0001 0.0001
# 5 0.0000 0.0001 0.0003 0.0001 50.0503 0.0000
# 6 0.0000 0.0000 0.0001 0.0001 0.0000 32.1021
#
#
#
# Elastic Compliance Matrix: (Units=1/GPa)
#
#
# Indices 1 2 3 4 5 6 
#
# 1 0.007670 -0.003610 -0.000522 0.000000 0.000000 0.000000
# 2 -0.003610 0.008709 -0.002645 0.000000 0.000000 0.000000
# 3 -0.000522 -0.002645 0.008139 0.000000 0.000000 0.000000
# 4 0.000000 0.000000 0.000000 0.051281 0.000000 0.000000
# 5 0.000000 0.000000 0.000000 0.000000 0.019980 0.000000
# 6 0.000000 0.000000 0.000000 0.000000 0.000000 0.031151
#
#
# Mechanical properties :
#
#
# Convention : Reuss Voigt Hill
#
# Bulk Modulus (GPa) = 91.21075 93.85013 92.53044
# Shear Modulus (GPa) = 34.68887 40.56307 37.62597
#
# Velocity S-wave (km/s) = 3.82626 4.13757 3.98496
# Velocity P-wave (km/s) = 7.61679 7.90159 7.76050
#
# Compressibility (1/GPa) = 0.01096362
#
# Stress axis : x y z
#
# Youngs Moduli (GPa) = 130.38051 114.82133 122.86421
#
# Poissons Ratio (x) = 0.41450 0.06415
# Poissons Ratio (y) = 0.47066 0.32501
# Poissons Ratio (z) = 0.06807 0.30373
#
# Static dielectric constant tensor:
#      x y z
#    x 4.762560 0.000000 0.000000 
#    y 0.000000 4.045770 0.000000 
#    z 0.000000 0.000000 4.211770 
# 
# 
# High freq. dielectric constant tensor:
#      x y z
#    x 1.987260 0.000000 0.000000 
#    y 0.000000 1.921180 0.000000 
#    z 0.000000 0.000000 1.946720 
# 
# From -- ./inp_files/9446.got.cif
#   From: 2010.03.12/outbox.cif.g09.slc.cpg/sg73_5_cif.got.tgz:9446.got - 2010.04.16 15:25:48.
