data_PCOD8296985
_publ_section_title
;
Structure prediction by ZEFSAII (Michael W. Deem and Ramdas Pophale) SiO2 
 PCOD8296985
Probable space group: I B C A 
;
_chemical_formula_sum "Si O2"
_cell_formula_units_Z 96
_cell_length_a 19.634088
_cell_length_b 25.090610
_cell_length_c 9.003616
_cell_angle_alpha 90.000000
_cell_angle_beta 90.000000
_cell_angle_gamma 90.000000
_cell_volume 4435.462557
_symmetry_space_group_name_H-M "I B C A "
_symmetry_group_IT_number 73
_symmetry_cell_setting 'orthorhombic'
loop_
_space_group_symop_operation_xyz
x,y,z
-x,1/2-y,z
x,-y,1/2-z
1/2-x,y,-z
-x,-y,-z
x,1/2+y,-z
-x,y,1/2+z
1/2+x,-y,z
1/2+x,1/2+y,1/2+z
1/2-x,-y,1/2+z
1/2+x,1/2-y,-z
-x,1/2+y,1/2-z
1/2-x,1/2-y,1/2-z
1/2+x,y,1/2-z
1/2-x,1/2+y,z
x,1/2-y,1/2+z
loop_
_atom_site_type_symbol
_atom_site_label
_atom_site_fract_x
_atom_site_fract_y
_atom_site_fract_z
Si Si1 0.497510 0.377885 0.213856
Si Si2 0.193423 0.462049 0.611437
Si Si3 0.620630 0.812745 0.687377
Si Si4 0.955809 0.050943 0.539322
Si Si5 0.878936 0.705366 0.154760
Si Si6 0.758419 0.655714 0.331542
O O1 0.557843 0.353364 0.312436
O O2 0.469389 0.431468 0.291551
O O3 0.437047 0.336173 0.195964
O O4 0.526354 0.396825 0.056513
O O5 0.185645 0.500000 0.750000
O O6 0.250000 0.485013 0.500000
O O7 0.123532 0.462087 0.518672
O O8 0.213011 0.403869 0.669650
O O9 0.598679 0.763951 0.793395
O O10 0.634995 0.793487 0.520442
O O11 0.686209 0.843382 0.749704
O O12 0.000000 0.000000 0.500000
O O13 0.809526 0.693357 0.242359
O O14 0.750000 0.677067 0.500000
#
# Coordination Sequence:
#
# PCOD8296985 Si02
#       6
#    16  16  16  16  16  16
#     4  12  25  46  71 104 144 187 237 295 363 425
#     4  11  25  45  72 105 144 190 241 297 352 426
#     4  12  27  43  73 103 141 193 236 300 360 430
#     4  12  26  47  74 105 145 190 238 297 360 428
#     4  12  26  45  70 104 143 189 246 295 360 431
#     4  11  24  46  71 100 146 187 240 298 358 426
#
# _framework density 21.643740000000001
#
# number of rings (size 3 to 8) (size 9 to 14) (size 15 to 20)
#    0.000    0.333    3.333    6.000    2.333    5.333 
#    0.000    0.000    0.000    0.000    0.000    0.000 
#    0.000    0.000    0.000    0.000    0.000    0.000 
#
# Total GULP energy -595568.894067 kJ/mol
# GULP energy per Si atom -12407.685293 kJ/mol
# Density = 2.159448 g / cm^3
# Si number density = 21.643740 Si / 1000 Ang^3
#
#
#
# Elastic Constant Matrix: (Units=GPa)
#
#
# Indices 1 2 3 4 5 6 
#
# 1 165.8156 46.1812 47.2465 0.0000 0.0000 0.0000
# 2 46.1812 93.4182 24.6476 0.0000 0.0000 0.0000
# 3 47.2465 24.6476 120.0641 0.0000 0.0000 0.0000
# 4 0.0000 0.0000 0.0000 41.7828 0.0000 0.0000
# 5 0.0000 0.0000 0.0000 0.0000 36.3782 0.0000
# 6 0.0000 0.0000 0.0000 0.0000 0.0000 38.2098
#
#
#
# Elastic Compliance Matrix: (Units=1/GPa)
#
#
# Indices 1 2 3 4 5 6 
#
# 1 0.007567 -0.003124 -0.002336 0.000000 0.000000 0.000000
# 2 -0.003124 0.012607 -0.001359 0.000000 0.000000 0.000000
# 3 -0.002336 -0.001359 0.009527 0.000000 0.000000 0.000000
# 4 0.000000 0.000000 0.000000 0.023933 0.000000 0.000000
# 5 0.000000 0.000000 0.000000 0.000000 0.027489 0.000000
# 6 0.000000 0.000000 0.000000 0.000000 0.000000 0.026171
#
#
# Mechanical properties :
#
#
# Convention : Reuss Voigt Hill
#
# Bulk Modulus (GPa) = 62.25492 68.38317 65.31904
# Shear Modulus (GPa) = 39.59229 40.68900 40.14064
#
# Velocity S-wave (km/s) = 4.28164 4.34053 4.31119
# Velocity P-wave (km/s) = 7.29857 7.53550 7.41798
#
# Compressibility (1/GPa) = 0.01606299
#
# Stress axis : x y z
#
# Youngs Moduli (GPa) = 132.16052 79.31808 104.96340
#
# Poissons Ratio (x) = 0.24780 0.24521
# Poissons Ratio (y) = 0.41289 0.14262
# Poissons Ratio (z) = 0.30875 0.10777
#
# Static dielectric constant tensor:
#      x y z
#    x 4.069400 0.000000 0.000000 
#    y 0.000000 3.819890 0.000000 
#    z 0.000000 0.000000 4.038160 
# 
# 
# High freq. dielectric constant tensor:
#      x y z
#    x 1.868510 0.000000 0.000000 
#    y 0.000000 1.855280 0.000000 
#    z 0.000000 0.000000 1.861000 
# 
# From -- ./inp_files/6417.got.cif
#   From: 2010.03.12/outbox.cif.g09.slc.cpg/sg73_4_cif.got.tgz:6417.got - 2010.04.16 15:25:48.
