data_PCOD8296230
_publ_section_title
;
Structure prediction by ZEFSAII (Michael W. Deem and Ramdas Pophale) SiO2 
 PCOD8296230
Probable space group: I B C A 
;
_chemical_formula_sum "Si O2"
_cell_formula_units_Z 88
_cell_length_a 13.245358
_cell_length_b 23.751818
_cell_length_c 13.316380
_cell_angle_alpha 90.000000
_cell_angle_beta 90.000000
_cell_angle_gamma 90.000000
_cell_volume 4189.350893
_symmetry_space_group_name_H-M "I B C A "
_symmetry_group_IT_number 73
_symmetry_cell_setting 'orthorhombic'
loop_
_space_group_symop_operation_xyz
x,y,z
-x,1/2-y,z
x,-y,1/2-z
1/2-x,y,-z
-x,-y,-z
x,1/2+y,-z
-x,y,1/2+z
1/2+x,-y,z
1/2+x,1/2+y,1/2+z
1/2-x,-y,1/2+z
1/2+x,1/2-y,-z
-x,1/2+y,1/2-z
1/2-x,1/2-y,1/2-z
1/2+x,y,1/2-z
1/2-x,1/2+y,z
x,1/2-y,1/2+z
loop_
_atom_site_type_symbol
_atom_site_label
_atom_site_fract_x
_atom_site_fract_y
_atom_site_fract_z
Si Si1 0.897834 0.345048 0.566484
Si Si2 0.583887 0.096000 0.720793
Si Si3 0.068674 0.000000 0.250000
Si Si4 0.560331 0.303211 0.074784
Si Si5 0.758022 0.034014 0.611858
Si Si6 0.250000 0.745298 0.500000
Si Si7 0.250000 0.071797 0.500000
O O1 0.908301 0.378090 0.669402
O O2 0.819437 0.292462 0.574795
O O3 0.848908 0.388927 0.486027
O O4 0.006433 0.322995 0.529091
O O5 0.551625 0.146667 0.651166
O O6 0.689145 0.067637 0.689016
O O7 0.499959 0.048776 0.704386
O O8 0.131131 0.969257 0.339130
O O9 0.500000 0.250000 0.119850
O O10 0.676869 0.286376 0.062021
O O11 0.750000 0.062926 0.500000
O O12 0.728200 0.967903 0.597414
#
# Coordination Sequence:
#
# PCOD8296230 Si02
#       7
#    16  16   8  16  16   8   8
#     4  10  21  40  65  94 128 171 219 277 329 396
#     4  12  26  40  70 101 131 178 226 270 339 398
#     4  12  24  42  64 104 140 172 226 272 330 408
#     4  10  24  43  63  94 127 171 222 272 337 388
#     4  10  25  41  63  95 134 178 215 270 329 396
#     4   9  22  43  66  90 132 171 216 279 332 388
#     4   9  18  39  64  84 134 171 210 263 330 382
#
# _framework density 21.005641000000001
#
# number of rings (size 3 to 8) (size 9 to 14) (size 15 to 20)
#    0.545    1.091    0.000    3.818    3.818    6.545 
#    0.000    0.000    0.000    0.000    0.000    0.000 
#    0.000    0.000    0.000    0.000    0.000    0.000 
#
# Total GULP energy -545183.875822 kJ/mol
# GULP energy per Si atom -12390.542632 kJ/mol
# Density = 2.095783 g / cm^3
# Si number density = 21.005641 Si / 1000 Ang^3
#
#
#
# Elastic Constant Matrix: (Units=GPa)
#
#
# Indices 1 2 3 4 5 6 
#
# 1 106.8754 59.1489 38.3730 -0.0001 0.0000 0.0000
# 2 59.1489 142.8600 51.1731 0.0004 0.0000 0.0000
# 3 38.3730 51.1731 98.5575 0.0004 0.0000 0.0000
# 4 -0.0001 0.0004 0.0004 35.9158 0.0000 0.0000
# 5 0.0000 0.0000 0.0000 0.0000 18.4630 0.0000
# 6 0.0000 0.0000 0.0000 0.0000 0.0000 15.2355
#
#
#
# Elastic Compliance Matrix: (Units=1/GPa)
#
#
# Indices 1 2 3 4 5 6 
#
# 1 0.012706 -0.004286 -0.002722 0.000000 0.000000 0.000000
# 2 -0.004286 0.010045 -0.003547 0.000000 0.000000 0.000000
# 3 -0.002722 -0.003547 0.013048 0.000000 0.000000 0.000000
# 4 0.000000 0.000000 0.000000 0.027843 0.000000 0.000000
# 5 0.000000 0.000000 0.000000 0.000000 0.054162 0.000000
# 6 0.000000 0.000000 0.000000 0.000000 0.000000 0.065636
#
#
# Mechanical properties :
#
#
# Convention : Reuss Voigt Hill
#
# Bulk Modulus (GPa) = 68.07496 71.74255 69.90875
# Shear Modulus (GPa) = 23.87263 27.22939 25.55101
#
# Velocity S-wave (km/s) = 3.37484 3.60431 3.49146
# Velocity P-wave (km/s) = 6.90394 7.17980 7.04322
#
# Compressibility (1/GPa) = 0.01468969
#
# Stress axis : x y z
#
# Youngs Moduli (GPa) = 78.70442 99.55429 76.64221
#
# Poissons Ratio (x) = 0.42666 0.20860
# Poissons Ratio (y) = 0.33730 0.27184
# Poissons Ratio (z) = 0.21421 0.35310
#
# Static dielectric constant tensor:
#      x y z
#    x 3.898200 0.000000 0.000000 
#    y 0.000000 4.053600 0.000000 
#    z 0.000000 0.000000 3.909790 
# 
# 
# High freq. dielectric constant tensor:
#      x y z
#    x 1.826420 0.000000 0.000000 
#    y 0.000000 1.843750 0.000000 
#    z 0.000000 0.000000 1.797910 
# 
# From -- ./inp_files/16166.got.cif
#   From: 2010.03.12/outbox.cif.g09.slc.cpg/sg73_9_cif.got.tgz:16166.got - 2010.04.16 15:25:48.
