data_PCOD8296698
_publ_section_title
;
Structure prediction by ZEFSAII (Michael W. Deem and Ramdas Pophale) SiO2 
 PCOD8296698
Probable space group: I B C A 
;
_chemical_formula_sum "Si O2"
_cell_formula_units_Z 112
_cell_length_a 12.432008
_cell_length_b 18.694944
_cell_length_c 21.182206
_cell_angle_alpha 90.000000
_cell_angle_beta 90.000000
_cell_angle_gamma 90.000000
_cell_volume 4923.077095
_symmetry_space_group_name_H-M "I B C A "
_symmetry_group_IT_number 73
_symmetry_cell_setting 'orthorhombic'
loop_
_space_group_symop_operation_xyz
x,y,z
-x,1/2-y,z
x,-y,1/2-z
1/2-x,y,-z
-x,-y,-z
x,1/2+y,-z
-x,y,1/2+z
1/2+x,-y,z
1/2+x,1/2+y,1/2+z
1/2-x,-y,1/2+z
1/2+x,1/2-y,-z
-x,1/2+y,1/2-z
1/2-x,1/2-y,1/2-z
1/2+x,y,1/2-z
1/2-x,1/2+y,z
x,1/2-y,1/2+z
loop_
_atom_site_type_symbol
_atom_site_label
_atom_site_fract_x
_atom_site_fract_y
_atom_site_fract_z
Si Si1 0.724210 0.514436 0.643194
Si Si2 0.388796 0.886349 0.136197
Si Si3 0.754185 0.719300 0.071690
Si Si4 0.948720 0.075113 0.735833
Si Si5 0.060254 0.948156 0.455396
Si Si6 0.541395 0.323908 0.647151
Si Si7 0.656747 0.130237 0.567801
O O1 0.790272 0.440699 0.653357
O O2 0.666032 0.551433 0.704097
O O3 0.629902 0.503037 0.592008
O O4 0.809023 0.569415 0.615814
O O5 0.344928 0.808943 0.114332
O O6 0.468581 0.877018 0.195660
O O7 0.464876 0.908064 0.079134
O O8 0.856587 0.687344 0.104694
O O9 0.756586 0.805484 0.070559
O O10 0.750000 0.689740 0.000000
O O11 0.926788 0.117364 0.800414
O O12 0.009561 0.000000 0.750000
O O13 0.140475 0.895931 0.494997
O O14 0.000000 0.000000 0.500000
O O15 0.500000 0.250000 0.679947
O O16 0.456997 0.347389 0.594960
#
# Coordination Sequence:
#
# PCOD8296698 Si02
#       7
#    16  16  16  16  16  16  16
#     4  11  24  40  65  97 128 172 224 275 335 399
#     4  11  25  40  66  99 128 178 225 274 335 406
#     4  11  24  41  67  99 134 171 220 274 340 410
#     4  11  25  44  62  92 133 170 227 284 334 388
#     4  11  23  39  67  98 135 169 211 278 339 403
#     4  10  24  43  66  93 130 177 224 273 335 403
#     4  11  23  43  65  96 135 173 213 271 338 402
#
# _framework density 22.75
#
# number of rings (size 3 to 8) (size 9 to 14) (size 15 to 20)
#    0.000    1.143    1.429    3.857    6.000    5.143 
#    0.000    7.857    0.000    0.000    0.000    0.000 
#    0.000    0.000    0.000    0.000    0.000    0.000 
#
# Total GULP energy -693990.856784 kJ/mol
# GULP energy per Si atom -12392.693871 kJ/mol
# Density = 2.269822 g / cm^3
# Si number density = 22.750000 Si / 1000 Ang^3
#
#
#
# Elastic Constant Matrix: (Units=GPa)
#
#
# Indices 1 2 3 4 5 6 
#
# 1 84.2298 18.5670 24.1744 0.0000 0.0000 0.0000
# 2 18.5670 79.3898 35.3339 0.0000 0.0000 0.0000
# 3 24.1744 35.3339 120.4925 0.0000 0.0000 0.0000
# 4 0.0000 0.0000 0.0000 40.4542 0.0000 0.0000
# 5 0.0000 0.0000 0.0000 0.0000 23.1752 0.0000
# 6 0.0000 0.0000 0.0000 0.0000 0.0000 -17.9932
#
#
#
# Elastic Compliance Matrix: (Units=1/GPa)
#
#
# Indices 1 2 3 4 5 6 
#
# 1 0.012908 -0.002146 -0.001960 0.000000 0.000000 0.000000
# 2 -0.002146 0.014844 -0.003922 0.000000 0.000000 0.000000
# 3 -0.001960 -0.003922 0.009843 0.000000 0.000000 0.000000
# 4 0.000000 0.000000 0.000000 0.024719 0.000000 0.000000
# 5 0.000000 0.000000 0.000000 0.000000 0.043150 0.000000
# 6 0.000000 0.000000 0.000000 0.000000 0.000000 -0.055577
#
#
# Mechanical properties :
#
#
# Convention : Reuss Voigt Hill
#
# Bulk Modulus (GPa) = 46.43239 48.91807 47.67523
# Shear Modulus (GPa) = 68.37759 22.86304 45.62031
#
# Velocity S-wave (km/s) = 5.48829 3.17356 4.48290
# Velocity P-wave (km/s) = 7.78562 5.91420 6.91353
#
# Compressibility (1/GPa) = 0.02153669
#
# Stress axis : x y z
#
# Youngs Moduli (GPa) = 77.47110 67.36862 101.59754
#
# Poissons Ratio (x) = 0.14460 0.19917
# Poissons Ratio (y) = 0.16628 0.39849
# Poissons Ratio (z) = 0.15187 0.26424
#
# Static dielectric constant tensor:
#      x y z
#    x 3.807910 0.000000 0.000000 
#    y 0.000000 5.174950 0.000000 
#    z 0.000000 0.000000 5.051090 
# 
# 
# High freq. dielectric constant tensor:
#      x y z
#    x 1.916060 0.000000 0.000000 
#    y 0.000000 1.891340 0.000000 
#    z 0.000000 0.000000 1.904880 
# 
# From -- ./inp_files/29043.got.cif
#   From: 2010.03.12/outbox.cif.g09.slc.cpg/sg73_15_cif.got.tgz:29043.got - 2010.04.16 15:25:48.
