data_PCOD8296980
_publ_section_title
;
Structure prediction by ZEFSAII (Michael W. Deem and Ramdas Pophale) SiO2 
 PCOD8296980
Probable space group: I B C A 
;
_chemical_formula_sum "Si O2"
_cell_formula_units_Z 80
_cell_length_a 12.246720
_cell_length_b 21.476829
_cell_length_c 13.701875
_cell_angle_alpha 90.000000
_cell_angle_beta 90.000000
_cell_angle_gamma 90.000000
_cell_volume 3603.876908
_symmetry_space_group_name_H-M "I B C A "
_symmetry_group_IT_number 73
_symmetry_cell_setting 'orthorhombic'
loop_
_space_group_symop_operation_xyz
x,y,z
-x,1/2-y,z
x,-y,1/2-z
1/2-x,y,-z
-x,-y,-z
x,1/2+y,-z
-x,y,1/2+z
1/2+x,-y,z
1/2+x,1/2+y,1/2+z
1/2-x,-y,1/2+z
1/2+x,1/2-y,-z
-x,1/2+y,1/2-z
1/2-x,1/2-y,1/2-z
1/2+x,y,1/2-z
1/2-x,1/2+y,z
x,1/2-y,1/2+z
loop_
_atom_site_type_symbol
_atom_site_label
_atom_site_fract_x
_atom_site_fract_y
_atom_site_fract_z
Si Si1 0.535214 0.895387 0.252638
Si Si2 0.250000 0.054486 0.000000
Si Si3 0.500000 0.750000 0.537502
Si Si4 0.610781 0.346380 0.094387
Si Si5 0.685395 0.213155 0.330258
Si Si6 0.064333 0.998149 0.399513
O O1 0.430971 0.856556 0.293941
O O2 0.625719 0.846666 0.216538
O O3 0.508197 0.943890 0.166343
O O4 0.569731 0.934845 0.347812
O O5 0.143264 0.089683 0.957904
O O6 0.305978 0.014412 0.914597
O O7 0.518483 0.689466 0.469423
O O8 0.396478 0.742076 0.609668
O O9 0.723954 0.308983 0.093512
O O10 0.750000 0.250000 0.250000
O O11 0.000000 0.000000 0.500000
#
# Coordination Sequence:
#
# PCOD8296980 Si02
#       6
#    16   8   8  16  16  16
#     4  11  25  45  72 108 141 188 247 297 362 438
#     4  12  22  46  70  96 146 196 226 300 364 420
#     4  12  24  44  72 104 140 194 242 294 372 434
#     4  12  23  44  73  99 144 188 240 301 362 432
#     4  12  25  45  68 104 148 189 240 304 365 434
#     4  11  24  45  72 105 142 189 241 300 366 431
#
# _framework density 22.198315000000001
#
# number of rings (size 3 to 8) (size 9 to 14) (size 15 to 20)
#    0.000    0.400    6.000    2.400    0.000    1.600 
#    3.600    0.000    0.000    0.000    0.000    0.000 
#    0.000    0.000    0.000    0.000    0.000    0.000 
#
# Total GULP energy -495711.701258 kJ/mol
# GULP energy per Si atom -12392.792531 kJ/mol
# Density = 2.214779 g / cm^3
# Si number density = 22.198315 Si / 1000 Ang^3
#
#
#
# Elastic Constant Matrix: (Units=GPa)
#
#
# Indices 1 2 3 4 5 6 
#
# 1 121.4136 53.2918 60.7473 -0.0001 0.0000 0.0000
# 2 53.2918 82.4924 49.0909 0.0006 0.0000 -0.0001
# 3 60.7473 49.0909 145.6532 0.0002 0.0000 0.0000
# 4 -0.0001 0.0006 0.0002 45.7728 0.0000 0.0000
# 5 0.0000 0.0000 0.0000 0.0000 49.4449 0.0000
# 6 0.0000 -0.0001 0.0000 0.0000 0.0000 32.3340
#
#
#
# Elastic Compliance Matrix: (Units=1/GPa)
#
#
# Indices 1 2 3 4 5 6 
#
# 1 0.012540 -0.006240 -0.003127 0.000000 0.000000 0.000000
# 2 -0.006240 0.018269 -0.003555 0.000000 0.000000 0.000000
# 3 -0.003127 -0.003555 0.009368 0.000000 0.000000 0.000000
# 4 0.000000 0.000000 0.000000 0.021847 0.000000 0.000000
# 5 0.000000 0.000000 0.000000 0.000000 0.020225 0.000000
# 6 0.000000 0.000000 0.000000 0.000000 0.000000 0.030927
#
#
# Mechanical properties :
#
#
# Convention : Reuss Voigt Hill
#
# Bulk Modulus (GPa) = 69.76855 75.09102 72.42978
# Shear Modulus (GPa) = 34.77134 37.93896 36.35515
#
# Velocity S-wave (km/s) = 3.96206 4.13860 4.05129
# Velocity P-wave (km/s) = 7.24075 7.53247 7.38805
#
# Compressibility (1/GPa) = 0.01433311
#
# Stress axis : x y z
#
# Youngs Moduli (GPa) = 79.74656 54.73718 106.74884
#
# Poissons Ratio (x) = 0.34157 0.33377
# Poissons Ratio (y) = 0.49764 0.37947
# Poissons Ratio (z) = 0.24934 0.19458
#
# Static dielectric constant tensor:
#      x y z
#    x 4.093610 0.000000 0.000000 
#    y 0.000000 4.130260 0.000000 
#    z 0.000000 0.000000 4.384660 
# 
# 
# High freq. dielectric constant tensor:
#      x y z
#    x 1.868960 0.000000 0.000000 
#    y 0.000000 1.875520 0.000000 
#    z 0.000000 0.000000 1.893620 
# 
# From -- ./inp_files/16070.got.cif
#   From: 2010.03.12/outbox.cif.g09.slc.cpg/sg73_9_cif.got.tgz:16070.got - 2010.04.16 15:25:48.
