data_PCOD8296996
_publ_section_title
;
Structure prediction by ZEFSAII (Michael W. Deem and Ramdas Pophale) SiO2 
 PCOD8296996
Probable space group: I B C A 
;
_chemical_formula_sum "Si O2"
_cell_formula_units_Z 64
_cell_length_a 12.967416
_cell_length_b 15.495861
_cell_length_c 13.695640
_cell_angle_alpha 90.000000
_cell_angle_beta 90.000000
_cell_angle_gamma 90.000000
_cell_volume 2752.019375
_symmetry_space_group_name_H-M "I B C A "
_symmetry_group_IT_number 73
_symmetry_cell_setting 'orthorhombic'
loop_
_space_group_symop_operation_xyz
x,y,z
-x,1/2-y,z
x,-y,1/2-z
1/2-x,y,-z
-x,-y,-z
x,1/2+y,-z
-x,y,1/2+z
1/2+x,-y,z
1/2+x,1/2+y,1/2+z
1/2-x,-y,1/2+z
1/2+x,1/2-y,-z
-x,1/2+y,1/2-z
1/2-x,1/2-y,1/2-z
1/2+x,y,1/2-z
1/2-x,1/2+y,z
x,1/2-y,1/2+z
loop_
_atom_site_type_symbol
_atom_site_label
_atom_site_fract_x
_atom_site_fract_y
_atom_site_fract_z
Si Si1 0.338014 0.321420 0.264502
Si Si2 0.500000 0.750000 0.378674
Si Si3 0.772484 0.000000 0.250000
Si Si4 0.060668 0.629677 0.960492
Si Si5 0.646239 0.538863 0.047159
O O1 0.250000 0.250000 0.250000
O O2 0.428172 0.309204 0.187143
O O3 0.296794 0.415809 0.242647
O O4 0.387412 0.317843 0.372271
O O5 0.426954 0.811253 0.444060
O O6 0.843012 0.003009 0.345982
O O7 0.938398 0.614139 0.944162
O O8 0.115298 0.537567 0.972935
O O9 0.750000 0.579592 0.000000
#
# Coordination Sequence:
#
# PCOD8296996 Si02
#       5
#    16   8   8  16  16
#     4  12  29  51  76 116 155 205 265 330 400 481
#     4  12  28  46  74 108 154 210 250 338 394 474
#     4  12  26  46  82 104 150 204 260 314 406 460
#     4  11  27  48  73 111 155 197 267 320 403 470
#     4  11  24  48  76 108 149 204 256 332 385 481
#
# _framework density 23.255651
#
# number of rings (size 3 to 8) (size 9 to 14) (size 15 to 20)
#    0.000    0.500    2.500    3.750   14.000    0.000 
#    0.000    0.000    0.000    0.000    0.000    0.000 
#    0.000    0.000    0.000    0.000    0.000    0.000 
#
# Total GULP energy -397004.447350 kJ/mol
# GULP energy per Si atom -12406.388980 kJ/mol
# Density = 2.320272 g / cm^3
# Si number density = 23.255651 Si / 1000 Ang^3
#
#
#
# Elastic Constant Matrix: (Units=GPa)
#
#
# Indices 1 2 3 4 5 6 
#
# 1 126.2620 45.9906 63.3797 0.0000 0.0000 0.0000
# 2 45.9906 130.0195 43.3462 0.0000 0.0000 0.0000
# 3 63.3797 43.3462 163.9846 0.0000 0.0000 0.0000
# 4 0.0000 0.0000 0.0000 41.0936 0.0000 0.0000
# 5 0.0000 0.0000 0.0000 0.0000 39.2261 0.0000
# 6 0.0000 0.0000 0.0000 0.0000 0.0000 44.5034
#
#
#
# Elastic Compliance Matrix: (Units=1/GPa)
#
#
# Indices 1 2 3 4 5 6 
#
# 1 0.010576 -0.002608 -0.003398 0.000000 0.000000 0.000000
# 2 -0.002608 0.009078 -0.001391 0.000000 0.000000 0.000000
# 3 -0.003398 -0.001391 0.007779 0.000000 0.000000 0.000000
# 4 0.000000 0.000000 0.000000 0.024335 0.000000 0.000000
# 5 0.000000 0.000000 0.000000 0.000000 0.025493 0.000000
# 6 0.000000 0.000000 0.000000 0.000000 0.000000 0.022470
#
#
# Mechanical properties :
#
#
# Convention : Reuss Voigt Hill
#
# Bulk Modulus (GPa) = 79.13026 80.63324 79.88175
# Shear Modulus (GPa) = 42.10935 42.80125 42.45530
#
# Velocity S-wave (km/s) = 4.25987 4.29472 4.27733
# Velocity P-wave (km/s) = 7.63514 7.70329 7.66929
#
# Compressibility (1/GPa) = 0.01263739
#
# Stress axis : x y z
#
# Youngs Moduli (GPa) = 94.55587 110.16183 128.54587
#
# Poissons Ratio (x) = 0.28730 0.43682
# Poissons Ratio (y) = 0.24660 0.17887
# Poissons Ratio (z) = 0.32131 0.15329
#
# Static dielectric constant tensor:
#      x y z
#    x 4.356990 0.000000 0.000000 
#    y 0.000000 4.085520 0.000000 
#    z 0.000000 0.000000 4.435400 
# 
# 
# High freq. dielectric constant tensor:
#      x y z
#    x 1.923740 0.000000 0.000000 
#    y 0.000000 1.922870 0.000000 
#    z 0.000000 0.000000 1.939350 
# 
# From -- ./inp_files/15901.got.cif
#   From: 2010.03.12/outbox.cif.g09.slc.cpg/sg73_8_cif.got.tgz:15901.got - 2010.04.16 15:25:48.
