data_PCOD8296260
_publ_section_title
;
Structure prediction by ZEFSAII (Michael W. Deem and Ramdas Pophale) SiO2 
 PCOD8296260
Probable space group: I B C A 
;
_chemical_formula_sum "Si O2"
_cell_formula_units_Z 88
_cell_length_a 21.885012
_cell_length_b 13.541539
_cell_length_c 14.580226
_cell_angle_alpha 90.000000
_cell_angle_beta 90.000000
_cell_angle_gamma 90.000000
_cell_volume 4320.948297
_symmetry_space_group_name_H-M "I B C A "
_symmetry_group_IT_number 73
_symmetry_cell_setting 'orthorhombic'
loop_
_space_group_symop_operation_xyz
x,y,z
-x,1/2-y,z
x,-y,1/2-z
1/2-x,y,-z
-x,-y,-z
x,1/2+y,-z
-x,y,1/2+z
1/2+x,-y,z
1/2+x,1/2+y,1/2+z
1/2-x,-y,1/2+z
1/2+x,1/2-y,-z
-x,1/2+y,1/2-z
1/2-x,1/2-y,1/2-z
1/2+x,y,1/2-z
1/2-x,1/2+y,z
x,1/2-y,1/2+z
loop_
_atom_site_type_symbol
_atom_site_label
_atom_site_fract_x
_atom_site_fract_y
_atom_site_fract_z
Si Si1 0.122862 0.348070 0.338977
Si Si2 0.228956 0.398634 0.207576
Si Si3 0.631837 0.449802 0.437669
Si Si4 0.530105 0.856199 0.673471
Si Si5 0.561132 0.000000 0.250000
Si Si6 0.144648 0.864279 0.131934
O O1 0.186837 0.346066 0.283461
O O2 0.119398 0.435255 0.413910
O O3 0.067032 0.361655 0.268899
O O4 0.117084 0.243782 0.391884
O O5 0.252978 0.500000 0.250000
O O6 0.190829 0.413935 0.115876
O O7 0.289657 0.341020 0.178010
O O8 0.574088 0.381695 0.411503
O O9 0.647471 0.435357 0.544046
O O10 0.500000 0.750000 0.656877
O O11 0.479275 0.941842 0.675303
O O12 0.601371 0.915711 0.295422
#
# Coordination Sequence:
#
# PCOD8296260 Si02
#       6
#    16  16  16  16   8  16
#     4  10  21  41  67  87 125 176 201 250 321 376
#     4   9  19  41  66  90 126 163 202 253 313 378
#     4  10  23  41  64  91 127 161 207 261 313 364
#     4  11  21  43  64  87 122 170 211 247 313 376
#     4  12  24  38  62  90 128 162 204 262 296 382
#     4  12  23  39  63 100 125 158 212 263 311 365
#
# _framework density 20.365901000000001
#
# number of rings (size 3 to 8) (size 9 to 14) (size 15 to 20)
#    0.000    1.455    4.545    2.182    0.000    2.182 
#    3.273    3.636    0.000    0.000    0.000    0.000 
#    0.000    0.000    0.000    0.000    0.000    0.000 
#
# Total GULP energy -545508.559951 kJ/mol
# GULP energy per Si atom -12397.921817 kJ/mol
# Density = 2.031955 g / cm^3
# Si number density = 20.365901 Si / 1000 Ang^3
#
#
#
# Elastic Constant Matrix: (Units=GPa)
#
#
# Indices 1 2 3 4 5 6 
#
# 1 103.2857 40.5997 17.4451 0.0000 0.0000 0.0000
# 2 40.5997 139.9169 22.8745 0.0000 0.0000 0.0000
# 3 17.4451 22.8745 71.6535 0.0000 0.0000 0.0000
# 4 0.0000 0.0000 0.0000 27.0955 0.0000 0.0000
# 5 0.0000 0.0000 0.0000 0.0000 14.4606 0.0000
# 6 0.0000 0.0000 0.0000 0.0000 0.0000 31.7073
#
#
#
# Elastic Compliance Matrix: (Units=1/GPa)
#
#
# Indices 1 2 3 4 5 6 
#
# 1 0.011138 -0.002942 -0.001772 0.000000 0.000000 0.000000
# 2 -0.002942 0.008318 -0.001939 0.000000 0.000000 0.000000
# 3 -0.001772 -0.001939 0.015007 0.000000 0.000000 0.000000
# 4 0.000000 0.000000 0.000000 0.036906 0.000000 0.000000
# 5 0.000000 0.000000 0.000000 0.000000 0.069154 0.000000
# 6 0.000000 0.000000 0.000000 0.000000 0.000000 0.031538
#
#
# Mechanical properties :
#
#
# Convention : Reuss Voigt Hill
#
# Bulk Modulus (GPa) = 47.27011 52.96606 50.11809
# Shear Modulus (GPa) = 25.98491 30.24847 28.11669
#
# Velocity S-wave (km/s) = 3.57585 3.85808 3.71964
# Velocity P-wave (km/s) = 6.34900 6.77569 6.56581
#
# Compressibility (1/GPa) = 0.02115502
#
# Stress axis : x y z
#
# Youngs Moduli (GPa) = 89.78505 120.22398 66.63735
#
# Poissons Ratio (x) = 0.35371 0.11811
# Poissons Ratio (y) = 0.26415 0.12921
# Poissons Ratio (z) = 0.15914 0.23312
#
# Static dielectric constant tensor:
#      x y z
#    x 3.801000 0.000000 0.000000 
#    y 0.000000 3.682100 0.000000 
#    z 0.000000 0.000000 3.147060 
# 
# 
# High freq. dielectric constant tensor:
#      x y z
#    x 1.808820 0.000000 0.000000 
#    y 0.000000 1.806510 0.000000 
#    z 0.000000 0.000000 1.767420 
# 
# From -- ./inp_files/17177.got.cif
#   From: 2010.03.12/outbox.cif.g09.slc.cpg/sg73_9_cif.got.tgz:17177.got - 2010.04.16 15:25:48.
