data_PCOD8296796
_publ_section_title
;
Structure prediction by ZEFSAII (Michael W. Deem and Ramdas Pophale) SiO2 
 PCOD8296796
Probable space group: I B C A 
;
_chemical_formula_sum "Si O2"
_cell_formula_units_Z 64
_cell_length_a 24.434324
_cell_length_b 21.417487
_cell_length_c 4.973709
_cell_angle_alpha 90.000000
_cell_angle_beta 90.000000
_cell_angle_gamma 90.000000
_cell_volume 2602.850429
_symmetry_space_group_name_H-M "I B C A "
_symmetry_group_IT_number 73
_symmetry_cell_setting 'orthorhombic'
loop_
_space_group_symop_operation_xyz
x,y,z
-x,1/2-y,z
x,-y,1/2-z
1/2-x,y,-z
-x,-y,-z
x,1/2+y,-z
-x,y,1/2+z
1/2+x,-y,z
1/2+x,1/2+y,1/2+z
1/2-x,-y,1/2+z
1/2+x,1/2-y,-z
-x,1/2+y,1/2-z
1/2-x,1/2-y,1/2-z
1/2+x,y,1/2-z
1/2-x,1/2+y,z
x,1/2-y,1/2+z
loop_
_atom_site_type_symbol
_atom_site_label
_atom_site_fract_x
_atom_site_fract_y
_atom_site_fract_z
Si Si1 0.190266 0.792292 0.566673
Si Si2 0.377288 0.905011 0.598381
Si Si3 0.951453 0.000000 0.250000
Si Si4 0.288295 0.000000 0.750000
Si Si5 0.528405 0.119815 0.023824
O O1 0.250000 0.821936 0.500000
O O2 0.182854 0.734690 0.363823
O O3 0.144108 0.845203 0.560703
O O4 0.325779 0.939451 0.724478
O O5 0.411890 0.876627 0.849877
O O6 0.411779 0.950636 0.405738
O O7 0.985203 0.954950 0.464468
O O8 0.250000 0.012606 0.500000
O O9 0.482636 0.149943 0.229125
#
# Coordination Sequence:
#
# PCOD8296796 Si02
#       5
#    16  16   8   8  16
#     4  10  25  47  71  96 127 179 237 283 328 395
#     4  12  26  42  70 101 141 176 227 274 349 406
#     4  12  23  41  64 106 142 180 215 275 346 408
#     4  12  27  41  62 100 144 176 207 271 356 416
#     4  12  25  41  66 101 142 180 223 272 333 415
#
# _framework density 24.588429999999999
#
# number of rings (size 3 to 8) (size 9 to 14) (size 15 to 20)
#    0.000    0.500    5.000    2.250    3.500    3.000 
#    0.000    0.000    0.000    4.500    0.000    0.000 
#    0.000    0.000    0.000    0.000    0.000    0.000 
#
# Total GULP energy -396525.274615 kJ/mol
# GULP energy per Si atom -12391.414832 kJ/mol
# Density = 2.453247 g / cm^3
# Si number density = 24.588430 Si / 1000 Ang^3
#
#
#
# Elastic Constant Matrix: (Units=GPa)
#
#
# Indices 1 2 3 4 5 6 
#
# 1 136.8377 37.9800 46.2827 0.0000 0.0000 0.0000
# 2 37.9800 44.8198 7.4030 0.0000 0.0000 0.0000
# 3 46.2827 7.4030 138.0363 0.0000 0.0000 0.0000
# 4 0.0000 0.0000 0.0000 20.1652 0.0000 0.0000
# 5 0.0000 0.0000 0.0000 0.0000 -25.4299 0.0000
# 6 0.0000 0.0000 0.0000 0.0000 0.0000 38.2570
#
#
#
# Elastic Compliance Matrix: (Units=1/GPa)
#
#
# Indices 1 2 3 4 5 6 
#
# 1 0.010758 -0.008597 -0.003146 0.000000 0.000000 0.000000
# 2 -0.008597 0.029380 0.001307 0.000000 0.000000 0.000000
# 3 -0.003146 0.001307 0.008229 0.000000 0.000000 0.000000
# 4 0.000000 0.000000 0.000000 0.049590 0.000000 0.000000
# 5 0.000000 0.000000 0.000000 0.000000 -0.039324 0.000000
# 6 0.000000 0.000000 0.000000 0.000000 0.000000 0.026139
#
#
# Mechanical properties :
#
#
# Convention : Reuss Voigt Hill
#
# Bulk Modulus (GPa) = 36.36927 55.89170 46.13048
# Shear Modulus (GPa) = 43.55000 21.80034 32.67517
#
# Velocity S-wave (km/s) = 4.21308 2.98083 3.64934
# Velocity P-wave (km/s) = 6.20403 5.88450 6.04638
#
# Compressibility (1/GPa) = 0.02749574
#
# Stress axis : x y z
#
# Youngs Moduli (GPa) = 92.95347 34.03621 121.51775
#
# Poissons Ratio (x) = 0.29260 0.38230
# Poissons Ratio (y) = 0.79909 -0.15879
# Poissons Ratio (z) = 0.29244 -0.04448
#
# Static dielectric constant tensor:
#      x y z
#    x 4.751360 0.000000 0.000000 
#    y 0.000000 3.933440 0.000000 
#    z 0.000000 0.000000 4.803950 
# 
# 
# High freq. dielectric constant tensor:
#      x y z
#    x 1.998590 0.000000 0.000000 
#    y 0.000000 1.935140 0.000000 
#    z 0.000000 0.000000 2.008990 
# 
# From -- ./inp_files/1571.got.cif
#   From: 2010.03.12/outbox.cif.g09.slc.cpg/sg73_1_cif.got.tgz:1571.got - 2010.04.16 15:25:48.
