data_PCOD8296914
_publ_section_title
;
Structure prediction by ZEFSAII (Michael W. Deem and Ramdas Pophale) SiO2 
 PCOD8296914
Probable space group: I B C A 
;
_chemical_formula_sum "Si O2"
_cell_formula_units_Z 104
_cell_length_a 17.931298
_cell_length_b 11.901074
_cell_length_c 27.018039
_cell_angle_alpha 90.000000
_cell_angle_beta 90.000000
_cell_angle_gamma 90.000000
_cell_volume 5765.695573
_symmetry_space_group_name_H-M "I B C A "
_symmetry_group_IT_number 73
_symmetry_cell_setting 'orthorhombic'
loop_
_space_group_symop_operation_xyz
x,y,z
-x,1/2-y,z
x,-y,1/2-z
1/2-x,y,-z
-x,-y,-z
x,1/2+y,-z
-x,y,1/2+z
1/2+x,-y,z
1/2+x,1/2+y,1/2+z
1/2-x,-y,1/2+z
1/2+x,1/2-y,-z
-x,1/2+y,1/2-z
1/2-x,1/2-y,1/2-z
1/2+x,y,1/2-z
1/2-x,1/2+y,z
x,1/2-y,1/2+z
loop_
_atom_site_type_symbol
_atom_site_label
_atom_site_fract_x
_atom_site_fract_y
_atom_site_fract_z
Si Si1 0.910601 0.233084 0.399856
Si Si2 0.449160 0.497916 0.574290
Si Si3 0.326012 0.880335 0.225353
Si Si4 0.054762 0.349191 0.990437
Si Si5 0.572910 0.000000 0.250000
Si Si6 0.474942 0.124245 0.329458
Si Si7 0.664959 0.310437 0.698501
O O1 0.893480 0.099555 0.405877
O O2 0.886648 0.293504 0.451648
O O3 0.860985 0.283707 0.356734
O O4 0.000000 0.250000 0.390018
O O5 0.408290 0.591266 0.538814
O O6 0.513515 0.443821 0.541499
O O7 0.489484 0.556452 0.620490
O O8 0.387690 0.886922 0.182895
O O9 0.355579 0.795387 0.267341
O O10 0.253064 0.831782 0.198603
O O11 0.309204 0.000000 0.250000
O O12 0.000000 0.250000 0.009309
O O13 0.521527 0.075016 0.284412
O O14 0.624088 0.078387 0.216620
O O15 0.500000 0.250000 0.338981
#
# Coordination Sequence:
#
# PCOD8296914 Si02
#       7
#    16  16  16  16   8  16  16
#     4   9  18  31  55  80 104 144 186 225 274 333
#     4   9  17  30  50  79 111 136 174 231 282 325
#     4  11  23  39  54  76 115 154 186 229 278 337
#     4   8  15  30  50  78 110 138 172 226 284 330
#     4  12  22  36  56  78 116 144 190 236 268 334
#     4  12  23  33  54  85 109 145 188 236 280 329
#     4  11  23  38  54  79 113 154 186 222 285 341
#
# _framework density 18.03772
#
# number of rings (size 3 to 8) (size 9 to 14) (size 15 to 20)
#    0.000    2.154    3.077    3.231    2.154    0.000 
#    0.000    0.000    0.000    0.923    0.000    6.462 
#    0.000    0.000    0.000    0.000    0.000    0.000 
#
# Total GULP energy -644490.372358 kJ/mol
# GULP energy per Si atom -12394.045622 kJ/mol
# Density = 1.799667 g / cm^3
# Si number density = 18.037720 Si / 1000 Ang^3
#
#
#
# Elastic Constant Matrix: (Units=GPa)
#
#
# Indices 1 2 3 4 5 6 
#
# 1 52.1300 16.8987 22.7311 0.0000 0.0000 0.0000
# 2 16.8987 125.0173 55.4904 0.0000 0.0000 0.0000
# 3 22.7311 55.4904 98.4603 0.0000 0.0000 0.0000
# 4 0.0000 0.0000 0.0000 40.7948 0.0000 0.0000
# 5 0.0000 0.0000 0.0000 0.0000 7.5997 0.0000
# 6 0.0000 0.0000 0.0000 0.0000 0.0000 17.9903
#
#
#
# Elastic Compliance Matrix: (Units=1/GPa)
#
#
# Indices 1 2 3 4 5 6 
#
# 1 0.021411 -0.000934 -0.004417 0.000000 0.000000 0.000000
# 2 -0.000934 0.010708 -0.005819 0.000000 0.000000 0.000000
# 3 -0.004417 -0.005819 0.014456 0.000000 0.000000 0.000000
# 4 0.000000 0.000000 0.000000 0.024513 0.000000 0.000000
# 5 0.000000 0.000000 0.000000 0.000000 0.131583 0.000000
# 6 0.000000 0.000000 0.000000 0.000000 0.000000 0.055585
#
#
# Mechanical properties :
#
#
# Convention : Reuss Voigt Hill
#
# Bulk Modulus (GPa) = 41.26198 51.76088 46.51143
# Shear Modulus (GPa) = 17.32049 25.30946 21.31497
#
# Velocity S-wave (km/s) = 3.10213 3.74992 3.44130
# Velocity P-wave (km/s) = 5.97963 6.89256 6.45226
#
# Compressibility (1/GPa) = 0.02423539
#
# Stress axis : x y z
#
# Youngs Moduli (GPa) = 46.70388 93.38750 69.17657
#
# Poissons Ratio (x) = 0.08719 0.30555
# Poissons Ratio (y) = 0.04361 0.40256
# Poissons Ratio (z) = 0.20629 0.54345
#
# Static dielectric constant tensor:
#      x y z
#    x 2.924040 0.000000 0.000000 
#    y 0.000000 3.824170 0.000000 
#    z 0.000000 0.000000 3.600730 
# 
# 
# High freq. dielectric constant tensor:
#      x y z
#    x 1.643520 0.000000 0.000000 
#    y 0.000000 1.728650 0.000000 
#    z 0.000000 0.000000 1.706960 
# 
# From -- ./inp_files/32400.got.cif
#   From: 2010.03.12/outbox.cif.g09.slc.cpg/sg73_17_cif.got.tgz:32400.got - 2010.04.16 15:25:48.
