data_PCOD8296904
_publ_section_title
;
Structure prediction by ZEFSAII (Michael W. Deem and Ramdas Pophale) SiO2 
 PCOD8296904
Probable space group: I B C A 
;
_chemical_formula_sum "Si O2"
_cell_formula_units_Z 88
_cell_length_a 14.865150
_cell_length_b 20.189060
_cell_length_c 13.902403
_cell_angle_alpha 90.000000
_cell_angle_beta 90.000000
_cell_angle_gamma 90.000000
_cell_volume 4172.297506
_symmetry_space_group_name_H-M "I B C A "
_symmetry_group_IT_number 73
_symmetry_cell_setting 'orthorhombic'
loop_
_space_group_symop_operation_xyz
x,y,z
-x,1/2-y,z
x,-y,1/2-z
1/2-x,y,-z
-x,-y,-z
x,1/2+y,-z
-x,y,1/2+z
1/2+x,-y,z
1/2+x,1/2+y,1/2+z
1/2-x,-y,1/2+z
1/2+x,1/2-y,-z
-x,1/2+y,1/2-z
1/2-x,1/2-y,1/2-z
1/2+x,y,1/2-z
1/2-x,1/2+y,z
x,1/2-y,1/2+z
loop_
_atom_site_type_symbol
_atom_site_label
_atom_site_fract_x
_atom_site_fract_y
_atom_site_fract_z
Si Si1 0.500000 0.750000 0.605645
Si Si2 0.697904 0.353598 0.262188
Si Si3 0.116518 0.215740 0.274619
Si Si4 0.018701 0.849094 0.052590
Si Si5 0.330720 0.581539 0.927793
Si Si6 0.844442 0.570969 0.951778
O O1 0.573036 0.709731 0.668882
O O2 0.452935 0.697356 0.536387
O O3 0.797351 0.330095 0.290176
O O4 0.641719 0.293079 0.215445
O O5 0.706001 0.408421 0.179736
O O6 0.648159 0.385941 0.353747
O O7 0.041782 0.191108 0.350308
O O8 0.914881 0.870531 0.050884
O O9 0.081318 0.912382 0.032991
O O10 0.360474 0.505825 0.931378
O O11 0.250000 0.599264 0.000000
O O12 0.750000 0.585737 0.000000
#
# Coordination Sequence:
#
# PCOD8296904 Si02
#       6
#     8  16  16  16  16  16
#     4  12  22  38  62  96 140 166 214 276 328 394
#     4  11  22  44  66  99 133 175 224 270 343 391
#     4  11  24  39  68  99 133 175 218 279 335 402
#     4  12  24  42  67 100 135 176 223 275 338 400
#     4  11  25  44  68  97 135 180 227 271 327 402
#     4  11  23  45  69  95 136 176 221 282 330 396
#
# _framework density 21.091497
#
# number of rings (size 3 to 8) (size 9 to 14) (size 15 to 20)
#    0.000    0.727    3.636    4.909    0.000    0.000 
#    0.000    0.000    0.000    0.000    0.000    0.000 
#    0.000    0.000    0.000    0.000    0.000    0.000 
#
# Total GULP energy -545521.755764 kJ/mol
# GULP energy per Si atom -12398.221722 kJ/mol
# Density = 2.104349 g / cm^3
# Si number density = 21.091497 Si / 1000 Ang^3
#
#
#
# Elastic Constant Matrix: (Units=GPa)
#
#
# Indices 1 2 3 4 5 6 
#
# 1 117.6137 46.5042 38.0824 0.0000 0.0000 0.0000
# 2 46.5042 103.7246 60.4186 0.0000 0.0000 0.0000
# 3 38.0824 60.4186 123.3158 0.0001 0.0000 0.0000
# 4 0.0000 0.0000 0.0001 27.0456 0.0000 0.0000
# 5 0.0000 0.0000 0.0000 0.0000 26.5043 0.0000
# 6 0.0000 0.0000 0.0000 0.0000 0.0000 28.0782
#
#
#
# Elastic Compliance Matrix: (Units=1/GPa)
#
#
# Indices 1 2 3 4 5 6 
#
# 1 0.010483 -0.003938 -0.001308 0.000000 0.000000 0.000000
# 2 -0.003938 0.014971 -0.006119 0.000000 0.000000 0.000000
# 3 -0.001308 -0.006119 0.011511 0.000000 0.000000 0.000000
# 4 0.000000 0.000000 0.000000 0.036975 0.000000 0.000000
# 5 0.000000 0.000000 0.000000 0.000000 0.037730 0.000000
# 6 0.000000 0.000000 0.000000 0.000000 0.000000 0.035615
#
#
# Mechanical properties :
#
#
# Convention : Reuss Voigt Hill
#
# Bulk Modulus (GPa) = 70.24819 70.51828 70.38323
# Shear Modulus (GPa) = 28.61094 29.63555 29.12324
#
# Velocity S-wave (km/s) = 3.68709 3.75253 3.71995
# Velocity P-wave (km/s) = 7.17669 7.23065 7.20372
#
# Compressibility (1/GPa) = 0.01423524
#
# Stress axis : x y z
#
# Youngs Moduli (GPa) = 95.39225 66.79742 86.87334
#
# Poissons Ratio (x) = 0.26306 0.11362
# Poissons Ratio (y) = 0.37567 0.53155
# Poissons Ratio (z) = 0.12476 0.40871
#
# Static dielectric constant tensor:
#      x y z
#    x 3.773720 0.000000 0.000000 
#    y 0.000000 3.812700 0.000000 
#    z 0.000000 0.000000 3.820810 
# 
# 
# High freq. dielectric constant tensor:
#      x y z
#    x 1.833710 0.000000 0.000000 
#    y 0.000000 1.829410 0.000000 
#    z 0.000000 0.000000 1.835060 
# 
# From -- ./inp_files/16922.got.cif
#   From: 2010.03.12/outbox.cif.g09.slc.cpg/sg73_9_cif.got.tgz:16922.got - 2010.04.16 15:25:48.
