data_PCOD8296088
_publ_section_title
;
Structure prediction by ZEFSAII (Michael W. Deem and Ramdas Pophale) SiO2 
 PCOD8296088
Probable space group: I B C A 
;
_chemical_formula_sum "Si O2"
_cell_formula_units_Z 120
_cell_length_a 24.829613
_cell_length_b 28.752946
_cell_length_c 8.572954
_cell_angle_alpha 90.000000
_cell_angle_beta 90.000000
_cell_angle_gamma 90.000000
_cell_volume 6120.442085
_symmetry_space_group_name_H-M "I B C A "
_symmetry_group_IT_number 73
_symmetry_cell_setting 'orthorhombic'
loop_
_space_group_symop_operation_xyz
x,y,z
-x,1/2-y,z
x,-y,1/2-z
1/2-x,y,-z
-x,-y,-z
x,1/2+y,-z
-x,y,1/2+z
1/2+x,-y,z
1/2+x,1/2+y,1/2+z
1/2-x,-y,1/2+z
1/2+x,1/2-y,-z
-x,1/2+y,1/2-z
1/2-x,1/2-y,1/2-z
1/2+x,y,1/2-z
1/2-x,1/2+y,z
x,1/2-y,1/2+z
loop_
_atom_site_type_symbol
_atom_site_label
_atom_site_fract_x
_atom_site_fract_y
_atom_site_fract_z
Si Si1 0.666471 0.954192 0.181594
Si Si2 0.250000 0.249592 0.500000
Si Si3 0.641440 0.547790 0.316636
Si Si4 0.078635 0.642274 0.233924
Si Si5 0.498353 0.614986 0.020684
Si Si6 0.949730 0.947953 0.724384
Si Si7 0.260234 0.405428 0.816824
Si Si8 0.189541 0.808737 0.750899
O O1 0.614370 0.949901 0.291366
O O2 0.705472 0.911375 0.218830
O O3 0.696616 0.000000 0.250000
O O4 0.652038 0.956393 0.000427
O O5 0.207126 0.218505 0.594117
O O6 0.210398 0.280576 0.397021
O O7 0.615570 0.500000 0.250000
O O8 0.600837 0.589732 0.280712
O O9 0.697223 0.554464 0.223926
O O10 0.043869 0.646047 0.393036
O O11 0.124907 0.681986 0.239056
O O12 0.038005 0.649180 0.087231
O O13 0.460007 0.588995 0.140305
O O14 0.526184 0.572469 0.932167
O O15 0.973404 0.000000 0.750000
O O16 0.282274 0.357862 0.750282
O O17 0.250000 0.404130 0.000000
#
# Coordination Sequence:
#
# PCOD8296088 Si02
#       8
#    16   8  16  16  16  16  16  16
#     4  11  23  36  53  82 120 165 214 254 299 348
#     4  10  22  44  70 102 128 144 180 232 302 386
#     4  11  23  37  55  81 122 168 212 259 299 350
#     4  10  23  39  62  86 121 161 210 248 305 342
#     4  10  21  38  54  81 112 156 206 260 291 345
#     4  10  21  32  51  73 111 156 212 254 299 325
#     4  11  23  38  59  86 121 159 201 241 304 369
#     4  10  23  41  68  96 124 154 187 236 304 376
#
# _framework density 19.606428000000001
#
# number of rings (size 3 to 8) (size 9 to 14) (size 15 to 20)
#    0.000    1.600    2.000    2.000   11.200    2.133 
#    0.000    4.000    0.000    2.400    0.000    0.000 
#    0.000    0.000    0.000    0.000    0.000    0.000 
#
# Total GULP energy -743849.251827 kJ/mol
# GULP energy per Si atom -12397.487530 kJ/mol
# Density = 1.956180 g / cm^3
# Si number density = 19.606428 Si / 1000 Ang^3
#
#
#
# Elastic Constant Matrix: (Units=GPa)
#
#
# Indices 1 2 3 4 5 6 
#
# 1 115.3293 47.1888 43.9775 0.0000 0.0000 0.0000
# 2 47.1888 67.2515 33.0703 0.0000 0.0000 0.0000
# 3 43.9775 33.0703 87.6850 0.0000 0.0000 0.0000
# 4 0.0000 0.0000 0.0000 25.1421 0.0000 0.0000
# 5 0.0000 0.0000 0.0000 0.0000 25.3561 0.0000
# 6 0.0000 0.0000 0.0000 0.0000 0.0000 27.9884
#
#
#
# Elastic Compliance Matrix: (Units=1/GPa)
#
#
# Indices 1 2 3 4 5 6 
#
# 1 0.013127 -0.007334 -0.003818 0.000000 0.000000 0.000000
# 2 -0.007334 0.022352 -0.004752 0.000000 0.000000 0.000000
# 3 -0.003818 -0.004752 0.015112 0.000000 0.000000 0.000000
# 4 0.000000 0.000000 0.000000 0.039774 0.000000 0.000000
# 5 0.000000 0.000000 0.000000 0.000000 0.039438 0.000000
# 6 0.000000 0.000000 0.000000 0.000000 0.000000 0.035729
#
#
# Mechanical properties :
#
#
# Convention : Reuss Voigt Hill
#
# Bulk Modulus (GPa) = 53.23746 57.63766 55.43756
# Shear Modulus (GPa) = 24.55784 25.43261 24.99523
#
# Velocity S-wave (km/s) = 3.54296 3.60551 3.57438
# Velocity P-wave (km/s) = 6.62939 6.84062 6.73583
#
# Compressibility (1/GPa) = 0.01878377
#
# Stress axis : x y z
#
# Youngs Moduli (GPa) = 76.17636 44.73831 66.17457
#
# Poissons Ratio (x) = 0.32810 0.25266
# Poissons Ratio (y) = 0.55866 0.31446
# Poissons Ratio (z) = 0.29084 0.21259
#
# Static dielectric constant tensor:
#      x y z
#    x 3.798060 0.000000 0.000000 
#    y 0.000000 3.426400 0.000000 
#    z 0.000000 0.000000 3.699460 
# 
# 
# High freq. dielectric constant tensor:
#      x y z
#    x 1.773650 0.000000 0.000000 
#    y 0.000000 1.733650 0.000000 
#    z 0.000000 0.000000 1.777450 
# 
# From -- ./inp_files/7465.got.cif
#   From: 2010.03.12/outbox.cif.g09.slc.cpg/sg73_4_cif.got.tgz:7465.got - 2010.04.16 15:25:48.
