data_PCOD8296857
_publ_section_title
;
Structure prediction by ZEFSAII (Michael W. Deem and Ramdas Pophale) SiO2 
 PCOD8296857
Probable space group: I B C A 
;
_chemical_formula_sum "Si O2"
_cell_formula_units_Z 72
_cell_length_a 13.328625
_cell_length_b 16.775059
_cell_length_c 14.902264
_cell_angle_alpha 90.000000
_cell_angle_beta 90.000000
_cell_angle_gamma 90.000000
_cell_volume 3331.974419
_symmetry_space_group_name_H-M "I B C A "
_symmetry_group_IT_number 73
_symmetry_cell_setting 'orthorhombic'
loop_
_space_group_symop_operation_xyz
x,y,z
-x,1/2-y,z
x,-y,1/2-z
1/2-x,y,-z
-x,-y,-z
x,1/2+y,-z
-x,y,1/2+z
1/2+x,-y,z
1/2+x,1/2+y,1/2+z
1/2-x,-y,1/2+z
1/2+x,1/2-y,-z
-x,1/2+y,1/2-z
1/2-x,1/2-y,1/2-z
1/2+x,y,1/2-z
1/2-x,1/2+y,z
x,1/2-y,1/2+z
loop_
_atom_site_type_symbol
_atom_site_label
_atom_site_fract_x
_atom_site_fract_y
_atom_site_fract_z
Si Si1 0.750000 0.288929 0.500000
Si Si2 0.478423 0.160247 0.871122
Si Si3 0.962848 0.659965 0.057400
Si Si4 0.081005 0.911082 0.713385
Si Si5 0.268839 0.813150 0.672408
O O1 0.842792 0.341610 0.462104
O O2 0.714921 0.231758 0.420870
O O3 0.500000 0.250000 0.898411
O O4 0.567623 0.138372 0.804297
O O5 0.375543 0.142187 0.817043
O O6 0.484124 0.119581 0.969770
O O7 0.000000 0.750000 0.081862
O O8 0.990992 0.603189 0.141738
O O9 0.183630 0.880612 0.667900
O O10 0.087075 0.000000 0.750000
O O11 0.250000 0.750000 0.750000
#
# Coordination Sequence:
#
# PCOD8296857 Si02
#       5
#     8  16  16  16  16
#     4  12  20  36  70 104 124 168 244 296 324 398
#     4  11  21  40  65  97 126 176 232 290 334 397
#     4  11  21  40  68 102 130 175 234 288 340 401
#     4  12  26  41  62  98 146 181 215 281 362 423
#     4  12  21  37  67  94 126 174 236 282 334 411
#
# _framework density 21.608809000000001
#
# number of rings (size 3 to 8) (size 9 to 14) (size 15 to 20)
#    0.000    0.444    8.889    2.000    0.000    1.778 
#    0.000    0.000    0.000    4.000    0.000    0.000 
#    0.000    0.000    0.000    0.000    0.000    0.000 
#
# Total GULP energy -446148.734224 kJ/mol
# GULP energy per Si atom -12393.020395 kJ/mol
# Density = 2.155963 g / cm^3
# Si number density = 21.608809 Si / 1000 Ang^3
#
#
#
# Elastic Constant Matrix: (Units=GPa)
#
#
# Indices 1 2 3 4 5 6 
#
# 1 140.2368 49.0014 23.0197 0.0001 0.0000 0.0000
# 2 49.0014 58.4894 41.2787 -0.0001 0.0000 0.0000
# 3 23.0197 41.2787 125.2492 -0.0001 0.0000 0.0000
# 4 0.0001 -0.0001 -0.0001 24.1857 0.0000 0.0000
# 5 0.0000 0.0000 0.0000 0.0000 37.2859 0.0000
# 6 0.0000 0.0000 0.0000 0.0000 0.0000 14.2053
#
#
#
# Elastic Compliance Matrix: (Units=1/GPa)
#
#
# Indices 1 2 3 4 5 6 
#
# 1 0.010226 -0.009435 0.001230 0.000000 0.000000 0.000000
# 2 -0.009435 0.030985 -0.008478 0.000000 0.000000 0.000000
# 3 0.001230 -0.008478 0.010552 0.000000 0.000000 0.000000
# 4 0.000000 0.000000 0.000000 0.041347 0.000000 0.000000
# 5 0.000000 0.000000 0.000000 0.000000 0.026820 0.000000
# 6 0.000000 0.000000 0.000000 0.000000 0.000000 0.070396
#
#
# Mechanical properties :
#
#
# Convention : Reuss Voigt Hill
#
# Bulk Modulus (GPa) = 54.35586 61.17501 57.76544
# Shear Modulus (GPa) = 21.75592 29.18043 25.46818
#
# Velocity S-wave (km/s) = 3.17647 3.67876 3.43680
# Velocity P-wave (km/s) = 6.21791 6.81293 6.52221
#
# Compressibility (1/GPa) = 0.01839728
#
# Stress axis : x y z
#
# Youngs Moduli (GPa) = 97.79316 32.27398 94.76895
#
# Poissons Ratio (x) = 0.30451 -0.11658
# Poissons Ratio (y) = 0.92268 0.80342
# Poissons Ratio (z) = -0.12030 0.27361
#
# Static dielectric constant tensor:
#      x y z
#    x 3.663470 0.000000 0.000000 
#    y 0.000000 2.617770 0.000000 
#    z 0.000000 0.000000 4.178340 
# 
# 
# High freq. dielectric constant tensor:
#      x y z
#    x 1.864200 0.000000 0.000000 
#    y 0.000000 1.784660 0.000000 
#    z 0.000000 0.000000 1.878580 
# 
# From -- ./inp_files/16789.got.cif
#   From: 2010.03.12/outbox.cif.g09.slc.cpg/sg73_9_cif.got.tgz:16789.got - 2010.04.16 15:25:48.
