data_PCOD8296318
_publ_section_title
;
Structure prediction by ZEFSAII (Michael W. Deem and Ramdas Pophale) SiO2 
 PCOD8296318
Probable space group: I B C A 
;
_chemical_formula_sum "Si O2"
_cell_formula_units_Z 96
_cell_length_a 24.555420
_cell_length_b 16.804180
_cell_length_c 10.453968
_cell_angle_alpha 90.000000
_cell_angle_beta 90.000000
_cell_angle_gamma 90.000000
_cell_volume 4313.659471
_symmetry_space_group_name_H-M "I B C A "
_symmetry_group_IT_number 73
_symmetry_cell_setting 'orthorhombic'
loop_
_space_group_symop_operation_xyz
x,y,z
-x,1/2-y,z
x,-y,1/2-z
1/2-x,y,-z
-x,-y,-z
x,1/2+y,-z
-x,y,1/2+z
1/2+x,-y,z
1/2+x,1/2+y,1/2+z
1/2-x,-y,1/2+z
1/2+x,1/2-y,-z
-x,1/2+y,1/2-z
1/2-x,1/2-y,1/2-z
1/2+x,y,1/2-z
1/2-x,1/2+y,z
x,1/2-y,1/2+z
loop_
_atom_site_type_symbol
_atom_site_label
_atom_site_fract_x
_atom_site_fract_y
_atom_site_fract_z
Si Si1 0.500000 0.750000 0.988932
Si Si2 0.098275 0.476968 0.484580
Si Si3 0.947852 0.000000 0.750000
Si Si4 0.887417 0.792953 0.055972
Si Si5 0.033128 0.604969 0.347003
Si Si6 0.354701 0.810281 0.181853
Si Si7 0.790239 0.542710 0.880359
O O1 0.498742 0.829907 0.071771
O O2 0.555360 0.750404 0.906352
O O3 0.094016 0.500360 0.632467
O O4 0.097287 0.383372 0.468395
O O5 0.047435 0.522078 0.419154
O O6 0.154065 0.503474 0.422031
O O7 0.987262 0.078404 0.755488
O O8 0.846080 0.775011 0.174548
O O9 0.861342 0.755909 0.927230
O O10 0.089746 0.639274 0.293753
O O11 0.302716 0.864530 0.147956
O O12 0.768056 0.500000 0.750000
O O13 0.750000 0.533808 0.000000
#
# Coordination Sequence:
#
# PCOD8296318 Si02
#       7
#     8  16   8  16  16  16  16
#     4  10  22  36  56  94 146 202 248 274 346 418
#     4  11  24  41  69 102 141 187 242 300 359 431
#     4  12  22  34  66 102 138 186 246 282 336 430
#     4  11  22  42  64  97 146 191 233 288 352 430
#     4  10  22  38  58  95 143 193 232 291 339 409
#     4  10  24  44  68  97 143 184 233 293 361 424
#     4  11  25  51  79 102 130 181 239 313 384 447
#
# _framework density 22.254887
#
# number of rings (size 3 to 8) (size 9 to 14) (size 15 to 20)
#    0.000    1.333    3.333    1.500    5.833    6.667 
#    0.000    1.667    0.000    0.000    0.000    0.000 
#    0.000    0.000    0.000    0.000    0.000    0.000 
#
# Total GULP energy -594664.629348 kJ/mol
# GULP energy per Si atom -12388.846445 kJ/mol
# Density = 2.220423 g / cm^3
# Si number density = 22.254887 Si / 1000 Ang^3
#
#
#
# Elastic Constant Matrix: (Units=GPa)
#
#
# Indices 1 2 3 4 5 6 
#
# 1 53.0569 20.1550 38.7593 0.0000 0.0000 0.0000
# 2 20.1550 129.8809 61.5454 0.0000 0.0000 0.0000
# 3 38.7593 61.5454 179.6996 0.0000 0.0000 0.0000
# 4 0.0000 0.0000 0.0000 2.8445 0.0000 0.0000
# 5 0.0000 0.0000 0.0000 0.0000 39.1241 0.0000
# 6 0.0000 0.0000 0.0000 0.0000 0.0000 17.2114
#
#
#
# Elastic Compliance Matrix: (Units=1/GPa)
#
#
# Indices 1 2 3 4 5 6 
#
# 1 0.022593 -0.001429 -0.004384 0.000000 0.000000 0.000000
# 2 -0.001429 0.009281 -0.002871 0.000000 0.000000 0.000000
# 3 -0.004384 -0.002871 0.007494 0.000000 0.000000 0.000000
# 4 0.000000 0.000000 0.000000 0.351561 0.000000 0.000000
# 5 0.000000 0.000000 0.000000 0.000000 0.025560 0.000000
# 6 0.000000 0.000000 0.000000 0.000000 0.000000 0.058101
#
#
# Mechanical properties :
#
#
# Convention : Reuss Voigt Hill
#
# Bulk Modulus (GPa) = 45.45116 67.06186 56.25651
# Shear Modulus (GPa) = 10.01423 27.98117 18.99770
#
# Velocity S-wave (km/s) = 2.12357 3.54970 2.92488
# Velocity P-wave (km/s) = 5.14588 6.85561 6.06133
#
# Compressibility (1/GPa) = 0.02200164
#
# Stress axis : x y z
#
# Youngs Moduli (GPa) = 44.26179 107.74312 133.44862
#
# Poissons Ratio (x) = 0.15393 0.58500
# Poissons Ratio (y) = 0.06324 0.38308
# Poissons Ratio (z) = 0.19403 0.30929
#
# Static dielectric constant tensor:
#      x y z
#    x 3.770720 0.000000 0.000000 
#    y 0.000000 4.593580 0.000000 
#    z 0.000000 0.000000 4.274530 
# 
# 
# High freq. dielectric constant tensor:
#      x y z
#    x 1.843480 0.000000 0.000000 
#    y 0.000000 1.884410 0.000000 
#    z 0.000000 0.000000 1.887390 
# 
# From -- ./inp_files/13665.got.cif
#   From: 2010.03.12/outbox.cif.g09.slc.cpg/sg73_7_cif.got.tgz:13665.got - 2010.04.16 15:25:48.
