data_PCOD8296317
_publ_section_title
;
Structure prediction by ZEFSAII (Michael W. Deem and Ramdas Pophale) SiO2 
 PCOD8296317
Probable space group: I B C A 
;
_chemical_formula_sum "Si O2"
_cell_formula_units_Z 104
_cell_length_a 24.545764
_cell_length_b 19.866501
_cell_length_c 10.031688
_cell_angle_alpha 90.000000
_cell_angle_beta 90.000000
_cell_angle_gamma 90.000000
_cell_volume 4891.836738
_symmetry_space_group_name_H-M "I B C A "
_symmetry_group_IT_number 73
_symmetry_cell_setting 'orthorhombic'
loop_
_space_group_symop_operation_xyz
x,y,z
-x,1/2-y,z
x,-y,1/2-z
1/2-x,y,-z
-x,-y,-z
x,1/2+y,-z
-x,y,1/2+z
1/2+x,-y,z
1/2+x,1/2+y,1/2+z
1/2-x,-y,1/2+z
1/2+x,1/2-y,-z
-x,1/2+y,1/2-z
1/2-x,1/2-y,1/2-z
1/2+x,y,1/2-z
1/2-x,1/2+y,z
x,1/2-y,1/2+z
loop_
_atom_site_type_symbol
_atom_site_label
_atom_site_fract_x
_atom_site_fract_y
_atom_site_fract_z
Si Si1 0.289451 0.000000 0.250000
Si Si2 0.138445 0.283831 0.399215
Si Si3 0.614707 0.137708 0.114319
Si Si4 0.250000 0.779369 0.000000
Si Si5 0.136255 0.897147 0.411478
Si Si6 0.675146 0.362493 0.343416
Si Si7 0.750000 0.554340 0.500000
Si Si8 0.952255 0.012157 0.897956
O O1 0.324111 0.931971 0.238726
O O2 0.250722 0.995850 0.376324
O O3 0.100704 0.217137 0.389782
O O4 0.199367 0.265568 0.450613
O O5 0.110242 0.334623 0.506022
O O6 0.138974 0.314056 0.249816
O O7 0.643319 0.119326 0.255227
O O8 0.562118 0.091171 0.093695
O O9 0.653071 0.121692 0.989993
O O10 0.267100 0.825634 0.127929
O O11 0.195329 0.902440 0.482347
O O12 0.099866 0.964417 0.429669
O O13 0.974951 0.000000 0.750000
O O14 0.000000 0.000000 0.000000
#
# Coordination Sequence:
#
# PCOD8296317 Si02
#       8
#     8  16  16   8  16  16   8  16
#     4  12  26  36  54  92 126 186 220 270 322 374
#     4  11  22  39  62  93 129 179 224 275 322 396
#     4  10  23  41  67  91 131 171 217 272 337 396
#     4  10  22  36  56  82 133 187 226 262 323 385
#     4  11  24  43  65  98 135 178 217 270 338 395
#     4  11  23  36  56  90 132 175 228 271 311 393
#     4  12  26  38  62  92 145 173 224 272 329 397
#     4  10  24  47  74  97 127 171 221 281 340 401
#
# _framework density 21.259907999999999
#
# number of rings (size 3 to 8) (size 9 to 14) (size 15 to 20)
#    0.000    1.231    1.538    4.154    9.692    1.231 
#    1.385    0.769    0.000    3.692    0.000    0.000 
#    0.000    0.000    0.000    0.000    0.000    0.000 
#
# Total GULP energy -644418.962715 kJ/mol
# GULP energy per Si atom -12392.672360 kJ/mol
# Density = 2.121152 g / cm^3
# Si number density = 21.259908 Si / 1000 Ang^3
#
#
#
# Elastic Constant Matrix: (Units=GPa)
#
#
# Indices 1 2 3 4 5 6 
#
# 1 65.5774 42.4272 46.0287 0.0000 0.0000 0.0000
# 2 42.4272 157.4519 68.6007 0.0000 0.0000 0.0000
# 3 46.0287 68.6007 163.7786 0.0000 0.0000 0.0000
# 4 0.0000 0.0000 0.0000 42.2683 0.0000 0.0000
# 5 0.0000 0.0000 0.0000 0.0000 32.9964 0.0000
# 6 0.0000 0.0000 0.0000 0.0000 0.0000 17.0236
#
#
#
# Elastic Compliance Matrix: (Units=1/GPa)
#
#
# Indices 1 2 3 4 5 6 
#
# 1 0.020628 -0.003709 -0.004243 0.000000 0.000000 0.000000
# 2 -0.003709 0.008436 -0.002491 0.000000 0.000000 0.000000
# 3 -0.004243 -0.002491 0.008342 0.000000 0.000000 0.000000
# 4 0.000000 0.000000 0.000000 0.023658 0.000000 0.000000
# 5 0.000000 0.000000 0.000000 0.000000 0.030306 0.000000
# 6 0.000000 0.000000 0.000000 0.000000 0.000000 0.058742
#
#
# Mechanical properties :
#
#
# Convention : Reuss Voigt Hill
#
# Bulk Modulus (GPa) = 60.54188 77.88011 69.21100
# Shear Modulus (GPa) = 28.32771 33.77443 31.05107
#
# Velocity S-wave (km/s) = 3.65423 3.99010 3.82585
# Velocity P-wave (km/s) = 6.80760 7.61182 7.22091
#
# Compressibility (1/GPa) = 0.01651749
#
# Stress axis : x y z
#
# Youngs Moduli (GPa) = 48.47876 118.53923 119.87842
#
# Poissons Ratio (x) = 0.43972 0.50870
# Poissons Ratio (y) = 0.17983 0.29862
# Poissons Ratio (z) = 0.20572 0.29528
#
# Static dielectric constant tensor:
#      x y z
#    x 3.210820 0.000000 0.000000 
#    y 0.000000 4.319540 0.000000 
#    z 0.000000 0.000000 4.316320 
# 
# 
# High freq. dielectric constant tensor:
#      x y z
#    x 1.762090 0.000000 0.000000 
#    y 0.000000 1.858030 0.000000 
#    z 0.000000 0.000000 1.864230 
# 
# From -- ./inp_files/7924.got.cif
#   From: 2010.03.12/outbox.cif.g09.slc.cpg/sg73_4_cif.got.tgz:7924.got - 2010.04.16 15:25:48.
