data_PCOD8296252
_publ_section_title
;
Structure prediction by ZEFSAII (Michael W. Deem and Ramdas Pophale) SiO2 
 PCOD8296252
Probable space group: I B C A 
;
_chemical_formula_sum "Si O2"
_cell_formula_units_Z 112
_cell_length_a 14.257715
_cell_length_b 23.189454
_cell_length_c 14.750058
_cell_angle_alpha 90.000000
_cell_angle_beta 90.000000
_cell_angle_gamma 90.000000
_cell_volume 4876.791412
_symmetry_space_group_name_H-M "I B C A "
_symmetry_group_IT_number 73
_symmetry_cell_setting 'orthorhombic'
loop_
_space_group_symop_operation_xyz
x,y,z
-x,1/2-y,z
x,-y,1/2-z
1/2-x,y,-z
-x,-y,-z
x,1/2+y,-z
-x,y,1/2+z
1/2+x,-y,z
1/2+x,1/2+y,1/2+z
1/2-x,-y,1/2+z
1/2+x,1/2-y,-z
-x,1/2+y,1/2-z
1/2-x,1/2-y,1/2-z
1/2+x,y,1/2-z
1/2-x,1/2+y,z
x,1/2-y,1/2+z
loop_
_atom_site_type_symbol
_atom_site_label
_atom_site_fract_x
_atom_site_fract_y
_atom_site_fract_z
Si Si1 0.523878 0.910855 0.094922
Si Si2 0.263613 0.092134 0.899315
Si Si3 0.500664 0.126343 0.105526
Si Si4 0.927707 0.296849 0.643041
Si Si5 0.592923 0.517785 0.348587
Si Si6 0.840438 0.301811 0.453272
Si Si7 0.337386 0.196796 0.176843
O O1 0.629952 0.925927 0.127941
O O2 0.474731 0.860202 0.152792
O O3 0.455770 0.966308 0.095701
O O4 0.538017 0.889708 0.993130
O O5 0.190460 0.038582 0.893681
O O6 0.236196 0.144916 0.833854
O O7 0.250000 0.116882 0.000000
O O8 0.484686 0.068691 0.164365
O O9 0.441482 0.179146 0.145259
O O10 0.608093 0.147290 0.102316
O O11 0.902231 0.280690 0.539221
O O12 0.840781 0.290873 0.714469
O O13 0.000000 0.250000 0.678405
O O14 0.623944 0.500000 0.250000
O O15 0.750000 0.330611 0.500000
O O16 0.809463 0.251200 0.385289
#
# Coordination Sequence:
#
# PCOD8296252 Si02
#       7
#    16  16  16  16  16  16  16
#     4  11  22  44  69  96 131 180 231 278 352 418
#     4  11  23  42  73  98 128 188 229 282 353 426
#     4  10  21  41  66  92 130 183 222 276 352 407
#     4  11  25  43  69 101 137 184 229 287 347 414
#     4  11  24  43  66 100 135 173 231 293 343 417
#     4  11  24  41  66 102 140 180 228 289 343 414
#     4  11  22  43  68  96 137 178 232 279 336 423
#
# _framework density 22.965920000000001
#
# number of rings (size 3 to 8) (size 9 to 14) (size 15 to 20)
#    0.000    1.143    2.857    5.571    2.000    1.143 
#   10.286    0.000    0.000    0.000    0.000    0.000 
#    0.000    0.000    0.000    0.000    0.000    0.000 
#
# Total GULP energy -694184.669577 kJ/mol
# GULP energy per Si atom -12396.154814 kJ/mol
# Density = 2.291365 g / cm^3
# Si number density = 22.965920 Si / 1000 Ang^3
#
#
#
# Elastic Constant Matrix: (Units=GPa)
#
#
# Indices 1 2 3 4 5 6 
#
# 1 119.8006 44.0678 3.0393 0.0000 -0.0001 -0.0001
# 2 44.0678 104.6907 15.3115 0.0002 -0.0002 -0.0002
# 3 3.0393 15.3115 77.4139 0.0003 -0.0002 -0.0001
# 4 0.0000 0.0002 0.0003 29.3804 -0.0001 -0.0001
# 5 -0.0001 -0.0002 -0.0002 -0.0001 34.2609 0.0000
# 6 -0.0001 -0.0002 -0.0001 -0.0001 0.0000 25.8987
#
#
#
# Elastic Compliance Matrix: (Units=1/GPa)
#
#
# Indices 1 2 3 4 5 6 
#
# 1 0.009892 -0.004229 0.000448 0.000000 0.000000 0.000000
# 2 -0.004229 0.011645 -0.002137 0.000000 0.000000 0.000000
# 3 0.000448 -0.002137 0.013323 0.000000 0.000000 0.000000
# 4 0.000000 0.000000 0.000000 0.034036 0.000000 0.000000
# 5 0.000000 0.000000 0.000000 0.000000 0.029188 0.000000
# 6 0.000000 0.000000 0.000000 0.000000 0.000000 0.038612
#
#
# Mechanical properties :
#
#
# Convention : Reuss Voigt Hill
#
# Bulk Modulus (GPa) = 43.43576 47.41582 45.42579
# Shear Modulus (GPa) = 32.00907 33.87375 32.94141
#
# Velocity S-wave (km/s) = 3.73737 3.84468 3.79140
# Velocity P-wave (km/s) = 6.13009 6.35608 6.24411
#
# Compressibility (1/GPa) = 0.02302251
#
# Stress axis : x y z
#
# Youngs Moduli (GPa) = 101.09666 85.87573 75.05996
#
# Poissons Ratio (x) = 0.36319 -0.03364
# Poissons Ratio (y) = 0.42756 0.16041
# Poissons Ratio (z) = -0.04531 0.18353
#
# Static dielectric constant tensor:
#      x y z
#    x 4.143260 0.000000 0.000000 
#    y 0.000000 4.180490 0.000000 
#    z 0.000000 0.000000 4.128210 
# 
# 
# High freq. dielectric constant tensor:
#      x y z
#    x 1.906200 0.000000 0.000000 
#    y 0.000000 1.896030 0.000000 
#    z 0.000000 0.000000 1.912450 
# 
# From -- ./inp_files/17279.got.cif
#   From: 2010.03.12/outbox.cif.g09.slc.cpg/sg73_9_cif.got.tgz:17279.got - 2010.04.16 15:25:48.
