data_PCOD8296693
_publ_section_title
;
Structure prediction by ZEFSAII (Michael W. Deem and Ramdas Pophale) SiO2 
 PCOD8296693
Probable space group: I B C A 
;
_chemical_formula_sum "Si O2"
_cell_formula_units_Z 72
_cell_length_a 9.526691
_cell_length_b 14.725199
_cell_length_c 22.492886
_cell_angle_alpha 90.000000
_cell_angle_beta 90.000000
_cell_angle_gamma 90.000000
_cell_volume 3155.356499
_symmetry_space_group_name_H-M "I B C A "
_symmetry_group_IT_number 73
_symmetry_cell_setting 'orthorhombic'
loop_
_space_group_symop_operation_xyz
x,y,z
-x,1/2-y,z
x,-y,1/2-z
1/2-x,y,-z
-x,-y,-z
x,1/2+y,-z
-x,y,1/2+z
1/2+x,-y,z
1/2+x,1/2+y,1/2+z
1/2-x,-y,1/2+z
1/2+x,1/2-y,-z
-x,1/2+y,1/2-z
1/2-x,1/2-y,1/2-z
1/2+x,y,1/2-z
1/2-x,1/2+y,z
x,1/2-y,1/2+z
loop_
_atom_site_type_symbol
_atom_site_label
_atom_site_fract_x
_atom_site_fract_y
_atom_site_fract_z
Si Si1 0.595508 0.061324 0.192384
Si Si2 0.500000 0.250000 0.147439
Si Si3 0.360071 0.470324 0.877096
Si Si4 0.353964 0.634052 0.948077
Si Si5 0.905111 0.838967 0.476881
O O1 0.555470 0.169425 0.191888
O O2 0.760369 0.052869 0.178317
O O3 0.563037 0.000000 0.250000
O O4 0.504767 0.016337 0.141202
O O5 0.623125 0.288062 0.103193
O O6 0.283773 0.543893 0.920084
O O7 0.397733 0.379212 0.911350
O O8 0.250000 0.670824 0.000000
O O9 0.505830 0.602428 0.975079
O O10 0.750000 0.821819 0.500000
O O11 0.000000 0.750000 0.473064
#
# Coordination Sequence:
#
# PCOD8296693 Si02
#       5
#    16   8  16  16  16
#     4  11  25  49  71  99 134 182 240 302 345 394
#     4  10  24  42  72  98 142 182 224 286 350 404
#     4  11  24  44  69  99 139 183 233 282 344 411
#     4  11  22  40  67 104 142 184 220 272 340 430
#     4  12  24  38  63 100 147 181 222 270 340 426
#
# _framework density 22.818341
#
# number of rings (size 3 to 8) (size 9 to 14) (size 15 to 20)
#    0.000    0.889    1.111    6.667    3.111    0.000 
#    2.000    6.667    0.000    0.000    0.000    0.000 
#    0.000    0.000    0.000    0.000    0.000    0.000 
#
# Total GULP energy -445973.223775 kJ/mol
# GULP energy per Si atom -12388.145105 kJ/mol
# Density = 2.276641 g / cm^3
# Si number density = 22.818341 Si / 1000 Ang^3
#
#
#
# Elastic Constant Matrix: (Units=GPa)
#
#
# Indices 1 2 3 4 5 6 
#
# 1 115.1960 54.5870 26.2619 0.0000 0.0000 0.0000
# 2 54.5870 103.6003 60.1594 0.0000 0.0000 0.0000
# 3 26.2619 60.1594 98.9358 0.0000 0.0000 0.0000
# 4 0.0000 0.0000 0.0000 41.3777 0.0000 0.0000
# 5 0.0000 0.0000 0.0000 0.0000 32.0832 0.0000
# 6 0.0000 0.0000 0.0000 0.0000 0.0000 21.5719
#
#
#
# Elastic Compliance Matrix: (Units=1/GPa)
#
#
# Indices 1 2 3 4 5 6 
#
# 1 0.011632 -0.006702 0.000988 0.000000 0.000000 0.000000
# 2 -0.006702 0.018783 -0.009642 0.000000 0.000000 0.000000
# 3 0.000988 -0.009642 0.015708 0.000000 0.000000 0.000000
# 4 0.000000 0.000000 0.000000 0.024168 0.000000 0.000000
# 5 0.000000 0.000000 0.000000 0.000000 0.031169 0.000000
# 6 0.000000 0.000000 0.000000 0.000000 0.000000 0.046357
#
#
# Mechanical properties :
#
#
# Convention : Reuss Voigt Hill
#
# Bulk Modulus (GPa) = 64.89381 66.63875 65.76628
# Shear Modulus (GPa) = 27.22330 30.78816 29.00573
#
# Velocity S-wave (km/s) = 3.45779 3.67723 3.56920
# Velocity P-wave (km/s) = 6.66655 6.87727 6.77273
#
# Compressibility (1/GPa) = 0.01540979
#
# Stress axis : x y z
#
# Youngs Moduli (GPa) = 85.97240 53.23937 63.66013
#
# Poissons Ratio (x) = 0.35683 -0.06289
# Poissons Ratio (y) = 0.57622 0.61383
# Poissons Ratio (z) = -0.08494 0.51335
#
# Static dielectric constant tensor:
#      x y z
#    x 4.505990 0.000000 0.000000 
#    y 0.000000 4.409190 0.000000 
#    z 0.000000 0.000000 4.022820 
# 
# 
# High freq. dielectric constant tensor:
#      x y z
#    x 1.905470 0.000000 0.000000 
#    y 0.000000 1.917260 0.000000 
#    z 0.000000 0.000000 1.877550 
# 
# From -- ./inp_files/20679.got.cif
#   From: 2010.03.12/outbox.cif.g09.slc.cpg/sg73_11_cif.got.tgz:20679.got - 2010.04.16 15:25:48.
