data_PCOD8296950
_publ_section_title
;
Structure prediction by ZEFSAII (Michael W. Deem and Ramdas Pophale) SiO2 
 PCOD8296950
Probable space group: I B C A 
;
_chemical_formula_sum "Si O2"
_cell_formula_units_Z 72
_cell_length_a 15.695815
_cell_length_b 19.100583
_cell_length_c 11.116837
_cell_angle_alpha 90.000000
_cell_angle_beta 90.000000
_cell_angle_gamma 90.000000
_cell_volume 3332.819030
_symmetry_space_group_name_H-M "I B C A "
_symmetry_group_IT_number 73
_symmetry_cell_setting 'orthorhombic'
loop_
_space_group_symop_operation_xyz
x,y,z
-x,1/2-y,z
x,-y,1/2-z
1/2-x,y,-z
-x,-y,-z
x,1/2+y,-z
-x,y,1/2+z
1/2+x,-y,z
1/2+x,1/2+y,1/2+z
1/2-x,-y,1/2+z
1/2+x,1/2-y,-z
-x,1/2+y,1/2-z
1/2-x,1/2-y,1/2-z
1/2+x,y,1/2-z
1/2-x,1/2+y,z
x,1/2-y,1/2+z
loop_
_atom_site_type_symbol
_atom_site_label
_atom_site_fract_x
_atom_site_fract_y
_atom_site_fract_z
Si Si1 0.114529 0.399217 0.316371
Si Si2 0.160583 0.962990 0.936186
Si Si3 0.052817 0.635588 0.583787
Si Si4 0.000000 0.250000 0.094142
Si Si5 0.347788 0.249897 0.217099
O O1 0.154068 0.420444 0.188353
O O2 0.144244 0.454799 0.416295
O O3 0.145336 0.322529 0.356531
O O4 0.011057 0.393077 0.312544
O O5 0.250000 0.950783 0.000000
O O6 0.089667 0.934214 0.025670
O O7 0.998930 0.680689 0.487759
O O8 0.128999 0.683489 0.635600
O O9 0.086579 0.251772 0.171634
O O10 0.250000 0.250000 0.250000
#
# Coordination Sequence:
#
# PCOD8296950 Si02
#       5
#    16  16  16   8  16
#     4  11  23  45  65 101 139 182 241 287 347 442
#     4  11  25  44  69  99 143 185 233 292 357 427
#     4  12  22  44  72 100 139 188 229 296 362 420
#     4  12  22  42  68 100 144 176 234 294 358 410
#     4  12  24  41  69 105 138 184 241 294 348 425
#
# _framework density 21.603332999999999
#
# number of rings (size 3 to 8) (size 9 to 14) (size 15 to 20)
#    0.000    0.444    6.667    2.000    0.000    1.778 
#    0.000   13.333    0.000    0.000    0.000    0.000 
#    0.000    0.000    0.000    0.000    0.000    0.000 
#
# Total GULP energy -446245.803751 kJ/mol
# GULP energy per Si atom -12395.716771 kJ/mol
# Density = 2.155416 g / cm^3
# Si number density = 21.603333 Si / 1000 Ang^3
#
#
#
# Elastic Constant Matrix: (Units=GPa)
#
#
# Indices 1 2 3 4 5 6 
#
# 1 178.5383 60.2119 67.3743 0.0000 0.0000 0.0000
# 2 60.2119 112.5403 56.6914 0.0000 0.0000 0.0000
# 3 67.3743 56.6914 94.7343 0.0000 0.0000 0.0000
# 4 0.0000 0.0000 0.0000 39.8735 0.0000 0.0000
# 5 0.0000 0.0000 0.0000 0.0000 31.5953 0.0000
# 6 0.0000 0.0000 0.0000 0.0000 0.0000 34.3665
#
#
#
# Elastic Compliance Matrix: (Units=1/GPa)
#
#
# Indices 1 2 3 4 5 6 
#
# 1 0.007963 -0.002015 -0.004457 0.000000 0.000000 0.000000
# 2 -0.002015 0.013230 -0.006484 0.000000 0.000000 0.000000
# 3 -0.004457 -0.006484 0.017606 0.000000 0.000000 0.000000
# 4 0.000000 0.000000 0.000000 0.025079 0.000000 0.000000
# 5 0.000000 0.000000 0.000000 0.000000 0.031650 0.000000
# 6 0.000000 0.000000 0.000000 0.000000 0.000000 0.029098
#
#
# Mechanical properties :
#
#
# Convention : Reuss Voigt Hill
#
# Bulk Modulus (GPa) = 77.60275 83.81868 80.71072
# Shear Modulus (GPa) = 32.29259 34.60276 33.44767
#
# Velocity S-wave (km/s) = 3.87045 4.00651 3.93907
# Velocity P-wave (km/s) = 7.48155 7.76440 7.62429
#
# Compressibility (1/GPa) = 0.01288614
#
# Stress axis : x y z
#
# Youngs Moduli (GPa) = 125.58822 75.58506 56.79869
#
# Poissons Ratio (x) = 0.15230 0.25316
# Poissons Ratio (y) = 0.25305 0.36830
# Poissons Ratio (z) = 0.55976 0.49011
#
# Static dielectric constant tensor:
#      x y z
#    x 4.372840 0.000000 0.000000 
#    y 0.000000 4.357570 0.000000 
#    z 0.000000 0.000000 3.744620 
# 
# 
# High freq. dielectric constant tensor:
#      x y z
#    x 1.851930 0.000000 0.000000 
#    y 0.000000 1.866230 0.000000 
#    z 0.000000 0.000000 1.837320 
# 
# From -- ./inp_files/10654.got.cif
#   From: 2010.03.12/outbox.cif.g09.slc.cpg/sg73_6_cif.got.tgz:10654.got - 2010.04.16 15:25:48.
