data_PCOD8296600
_publ_section_title
;
Structure prediction by ZEFSAII (Michael W. Deem and Ramdas Pophale) SiO2 
 PCOD8296600
Probable space group: I B C A 
;
_chemical_formula_sum "Si O2"
_cell_formula_units_Z 64
_cell_length_a 16.180327
_cell_length_b 9.351490
_cell_length_c 19.321185
_cell_angle_alpha 90.000000
_cell_angle_beta 90.000000
_cell_angle_gamma 90.000000
_cell_volume 2923.491712
_symmetry_space_group_name_H-M "I B C A "
_symmetry_group_IT_number 73
_symmetry_cell_setting 'orthorhombic'
loop_
_space_group_symop_operation_xyz
x,y,z
-x,1/2-y,z
x,-y,1/2-z
1/2-x,y,-z
-x,-y,-z
x,1/2+y,-z
-x,y,1/2+z
1/2+x,-y,z
1/2+x,1/2+y,1/2+z
1/2-x,-y,1/2+z
1/2+x,1/2-y,-z
-x,1/2+y,1/2-z
1/2-x,1/2-y,1/2-z
1/2+x,y,1/2-z
1/2-x,1/2+y,z
x,1/2-y,1/2+z
loop_
_atom_site_type_symbol
_atom_site_label
_atom_site_fract_x
_atom_site_fract_y
_atom_site_fract_z
Si Si1 0.057740 0.636789 0.002658
Si Si2 0.075345 0.340927 0.266984
Si Si3 0.350875 0.246004 0.874378
Si Si4 0.690114 0.429943 0.111756
O O1 0.923510 0.795795 0.927229
O O2 0.000000 0.750000 0.043085
O O3 0.000000 0.500000 0.000000
O O4 0.144187 0.615959 0.041625
O O5 0.042721 0.500000 0.250000
O O6 0.110230 0.251528 0.201943
O O7 0.146724 0.356804 0.323036
O O8 0.000000 0.250000 0.298378
O O9 0.308933 0.398802 0.888450
O O10 0.283777 0.121652 0.884552
#
# Coordination Sequence:
#
# PCOD8296600 Si02
#       4
#    16  16  16  16
#     4  12  25  43  69  99 135 176 226 281 339 404
#     4  10  23  43  69  98 135 177 229 281 339 403
#     4  11  25  43  67  98 137 176 225 279 338 405
#     4  11  25  43  66  99 133 179 224 277 341 404
#
# _framework density 21.891629999999999
#
# number of rings (size 3 to 8) (size 9 to 14) (size 15 to 20)
#    0.000    1.000    2.500    3.000    7.000    4.000 
#    0.000    0.000    0.000    0.000    0.000    0.000 
#    0.000    0.000    0.000    0.000    0.000    0.000 
#
# Total GULP energy -396764.691542 kJ/mol
# GULP energy per Si atom -12398.896611 kJ/mol
# Density = 2.184180 g / cm^3
# Si number density = 21.891630 Si / 1000 Ang^3
#
#
#
# Elastic Constant Matrix: (Units=GPa)
#
#
# Indices 1 2 3 4 5 6 
#
# 1 95.0707 52.8343 14.2560 0.0000 0.0000 0.0000
# 2 52.8343 118.0047 29.4417 0.0000 0.0000 0.0000
# 3 14.2560 29.4417 106.4293 0.0000 0.0000 0.0000
# 4 0.0000 0.0000 0.0000 32.7662 0.0000 0.0000
# 5 0.0000 0.0000 0.0000 0.0000 6.0151 0.0000
# 6 0.0000 0.0000 0.0000 0.0000 0.0000 57.9787
#
#
#
# Elastic Compliance Matrix: (Units=1/GPa)
#
#
# Indices 1 2 3 4 5 6 
#
# 1 0.014005 -0.006233 -0.000152 0.000000 0.000000 0.000000
# 2 -0.006233 0.011876 -0.002450 0.000000 0.000000 0.000000
# 3 -0.000152 -0.002450 0.010094 0.000000 0.000000 0.000000
# 4 0.000000 0.000000 0.000000 0.030519 0.000000 0.000000
# 5 0.000000 0.000000 0.000000 0.000000 0.166249 0.000000
# 6 0.000000 0.000000 0.000000 0.000000 0.000000 0.017248
#
#
# Mechanical properties :
#
#
# Convention : Reuss Voigt Hill
#
# Bulk Modulus (GPa) = 54.62841 56.95207 55.79024
# Shear Modulus (GPa) = 18.26398 34.21685 26.24042
#
# Velocity S-wave (km/s) = 2.89154 3.95778 3.46591
# Velocity P-wave (km/s) = 6.01300 6.85254 6.44645
#
# Compressibility (1/GPa) = 0.01830549
#
# Stress axis : x y z
#
# Youngs Moduli (GPa) = 71.40362 84.20266 99.06753
#
# Poissons Ratio (x) = 0.52480 0.01504
# Poissons Ratio (y) = 0.44503 0.24276
# Poissons Ratio (z) = 0.01084 0.20634
#
# Static dielectric constant tensor:
#      x y z
#    x 3.576880 0.000000 0.000000 
#    y 0.000000 4.060160 0.000000 
#    z 0.000000 0.000000 4.173560 
# 
# 
# High freq. dielectric constant tensor:
#      x y z
#    x 1.869390 0.000000 0.000000 
#    y 0.000000 1.871990 0.000000 
#    z 0.000000 0.000000 1.864010 
# 
# From -- ./inp_files/25203.got.cif
#   From: 2010.03.12/outbox.cif.g09.slc.cpg/sg73_13_cif.got.tgz:25203.got - 2010.04.16 15:25:48.
