data_PCOD8296099
_publ_section_title
;
Structure prediction by ZEFSAII (Michael W. Deem and Ramdas Pophale) SiO2 
 PCOD8296099
Probable space group: I B C A 
;
_chemical_formula_sum "Si O2"
_cell_formula_units_Z 88
_cell_length_a 24.200784
_cell_length_b 20.832681
_cell_length_c 8.135267
_cell_angle_alpha 90.000000
_cell_angle_beta 90.000000
_cell_angle_gamma 90.000000
_cell_volume 4101.534891
_symmetry_space_group_name_H-M "I B C A "
_symmetry_group_IT_number 73
_symmetry_cell_setting 'orthorhombic'
loop_
_space_group_symop_operation_xyz
x,y,z
-x,1/2-y,z
x,-y,1/2-z
1/2-x,y,-z
-x,-y,-z
x,1/2+y,-z
-x,y,1/2+z
1/2+x,-y,z
1/2+x,1/2+y,1/2+z
1/2-x,-y,1/2+z
1/2+x,1/2-y,-z
-x,1/2+y,1/2-z
1/2-x,1/2-y,1/2-z
1/2+x,y,1/2-z
1/2-x,1/2+y,z
x,1/2-y,1/2+z
loop_
_atom_site_type_symbol
_atom_site_label
_atom_site_fract_x
_atom_site_fract_y
_atom_site_fract_z
Si Si1 0.123592 0.262671 0.750002
Si Si2 0.121479 0.046730 0.901129
Si Si3 0.585980 0.000000 0.250000
Si Si4 0.685218 0.330167 0.023142
Si Si5 0.000093 0.569450 0.082924
Si Si6 0.453935 0.696694 0.519587
O O1 0.169853 0.229647 0.861652
O O2 0.153391 0.318765 0.647949
O O3 0.072596 0.296509 0.840397
O O4 0.096317 0.205045 0.645748
O O5 0.167779 0.101483 0.903112
O O6 0.062770 0.080590 0.856751
O O7 0.137223 0.000000 0.750000
O O8 0.121223 0.011029 0.081468
O O9 0.545680 0.937221 0.271331
O O10 0.750000 0.330358 0.000000
O O11 0.981872 0.626958 0.962000
O O12 0.000000 0.500000 0.000000
O O13 0.500000 0.750000 0.549514
#
# Coordination Sequence:
#
# PCOD8296099 Si02
#       6
#    16  16   8  16  16  16
#     4  10  23  40  67  94 132 172 225 283 346 412
#     4  11  24  41  66  97 132 180 225 275 339 414
#     4  10  22  40  62  94 142 174 218 266 332 430
#     4  11  24  45  68  93 126 172 236 298 346 402
#     4  10  21  35  61  95 136 179 215 254 333 427
#     4  11  22  37  62  99 138 175 211 269 342 418
#
# _framework density 21.455383000000001
#
# number of rings (size 3 to 8) (size 9 to 14) (size 15 to 20)
#    0.000    1.455    0.909    4.364    5.091    4.364 
#    1.636    0.000    0.000    0.000    0.000    0.000 
#    0.000    0.000    0.000    0.000    0.000    0.000 
#
# Total GULP energy -545366.067989 kJ/mol
# GULP energy per Si atom -12394.683363 kJ/mol
# Density = 2.140655 g / cm^3
# Si number density = 21.455383 Si / 1000 Ang^3
#
#
#
# Elastic Constant Matrix: (Units=GPa)
#
#
# Indices 1 2 3 4 5 6 
#
# 1 115.7130 52.4383 28.5579 0.0000 0.0000 0.0000
# 2 52.4383 127.8538 31.8610 0.0000 0.0000 0.0000
# 3 28.5579 31.8610 102.8258 0.0000 0.0000 0.0000
# 4 0.0000 0.0000 0.0000 30.8377 0.0000 0.0000
# 5 0.0000 0.0000 0.0000 0.0000 23.4288 0.0000
# 6 0.0000 0.0000 0.0000 0.0000 0.0000 53.3106
#
#
#
# Elastic Compliance Matrix: (Units=1/GPa)
#
#
# Indices 1 2 3 4 5 6 
#
# 1 0.010908 -0.004030 -0.001781 0.000000 0.000000 0.000000
# 2 -0.004030 0.009965 -0.001968 0.000000 0.000000 0.000000
# 3 -0.001781 -0.001968 0.010830 0.000000 0.000000 0.000000
# 4 0.000000 0.000000 0.000000 0.032428 0.000000 0.000000
# 5 0.000000 0.000000 0.000000 0.000000 0.042682 0.000000
# 6 0.000000 0.000000 0.000000 0.000000 0.000000 0.018758
#
#
# Mechanical properties :
#
#
# Convention : Reuss Voigt Hill
#
# Bulk Modulus (GPa) = 61.94220 63.56745 62.75482
# Shear Modulus (GPa) = 34.12730 37.08445 35.60587
#
# Velocity S-wave (km/s) = 3.99258 4.16197 4.07815
# Velocity P-wave (km/s) = 7.08429 7.26554 7.17549
#
# Compressibility (1/GPa) = 0.01614408
#
# Stress axis : x y z
#
# Youngs Moduli (GPa) = 91.67696 100.35279 92.33905
#
# Poissons Ratio (x) = 0.40442 0.16443
# Poissons Ratio (y) = 0.36946 0.18176
# Poissons Ratio (z) = 0.16325 0.19753
#
# Static dielectric constant tensor:
#      x y z
#    x 3.754660 0.000000 0.000000 
#    y 0.000000 3.765530 0.000000 
#    z 0.000000 0.000000 4.224290 
# 
# 
# High freq. dielectric constant tensor:
#      x y z
#    x 1.814790 0.000000 0.000000 
#    y 0.000000 1.840780 0.000000 
#    z 0.000000 0.000000 1.856110 
# 
# From -- ./inp_files/7054.got.cif
#   From: 2010.03.12/outbox.cif.g09.slc.cpg/sg73_4_cif.got.tgz:7054.got - 2010.04.16 15:25:48.
