data_PCOD8296366
_publ_section_title
;
Structure prediction by ZEFSAII (Michael W. Deem and Ramdas Pophale) SiO2 
 PCOD8296366
Probable space group: I B C A 
;
_chemical_formula_sum "Si O2"
_cell_formula_units_Z 88
_cell_length_a 14.060593
_cell_length_b 13.805737
_cell_length_c 20.814862
_cell_angle_alpha 90.000000
_cell_angle_beta 90.000000
_cell_angle_gamma 90.000000
_cell_volume 4040.515424
_symmetry_space_group_name_H-M "I B C A "
_symmetry_group_IT_number 73
_symmetry_cell_setting 'orthorhombic'
loop_
_space_group_symop_operation_xyz
x,y,z
-x,1/2-y,z
x,-y,1/2-z
1/2-x,y,-z
-x,-y,-z
x,1/2+y,-z
-x,y,1/2+z
1/2+x,-y,z
1/2+x,1/2+y,1/2+z
1/2-x,-y,1/2+z
1/2+x,1/2-y,-z
-x,1/2+y,1/2-z
1/2-x,1/2-y,1/2-z
1/2+x,y,1/2-z
1/2-x,1/2+y,z
x,1/2-y,1/2+z
loop_
_atom_site_type_symbol
_atom_site_label
_atom_site_fract_x
_atom_site_fract_y
_atom_site_fract_z
Si Si1 0.657337 0.382555 0.455853
Si Si2 0.903730 0.979071 0.679002
Si Si3 0.500000 0.250000 0.009817
Si Si4 0.255003 0.342407 0.823825
Si Si5 0.932006 0.935258 0.087140
Si Si6 0.768350 0.120399 0.316708
O O1 0.750000 0.371600 0.500000
O O2 0.586818 0.292117 0.467533
O O3 0.685720 0.387393 0.381635
O O4 0.606336 0.487251 0.466027
O O5 0.857040 0.871510 0.674038
O O6 0.982217 0.988216 0.624243
O O7 0.946398 0.000000 0.750000
O O8 0.819246 0.053354 0.663409
O O9 0.462704 0.162396 0.052652
O O10 0.267165 0.228665 0.828141
O O11 0.297600 0.389406 0.758404
O O12 0.856435 0.904460 0.139768
#
# Coordination Sequence:
#
# PCOD8296366 Si02
#       6
#    16  16   8  16  16  16
#     4  12  27  46  72  98 141 189 241 283 346 421
#     4  10  22  39  67 107 136 167 224 287 358 426
#     4  12  30  48  64 106 140 192 242 294 342 428
#     4  10  22  44  67 102 141 177 231 281 354 424
#     4  12  25  44  75  96 141 181 235 293 361 412
#     4  10  22  41  72 101 138 180 218 297 364 411
#
# _framework density 21.779399000000002
#
# number of rings (size 3 to 8) (size 9 to 14) (size 15 to 20)
#    0.000    1.091    1.818    3.818    5.091    2.182 
#    0.000    0.909    0.000    0.000    0.000    0.000 
#    0.000    0.000    0.000    0.000    0.000    0.000 
#
# Total GULP energy -545589.822864 kJ/mol
# GULP energy per Si atom -12399.768701 kJ/mol
# Density = 2.172983 g / cm^3
# Si number density = 21.779399 Si / 1000 Ang^3
#
#
#
# Elastic Constant Matrix: (Units=GPa)
#
#
# Indices 1 2 3 4 5 6 
#
# 1 84.3712 29.1656 39.5097 0.0000 0.0000 0.0000
# 2 29.1656 90.1414 42.2368 0.0000 0.0000 0.0000
# 3 39.5097 42.2368 78.5025 0.0000 0.0000 0.0000
# 4 0.0000 0.0000 0.0000 34.6751 0.0000 0.0000
# 5 0.0000 0.0000 0.0000 0.0000 32.3656 0.0000
# 6 0.0000 0.0000 0.0000 0.0000 0.0000 -77.2027
#
#
#
# Elastic Compliance Matrix: (Units=1/GPa)
#
#
# Indices 1 2 3 4 5 6 
#
# 1 0.015734 -0.001846 -0.006926 0.000000 0.000000 0.000000
# 2 -0.001846 0.015050 -0.007168 0.000000 0.000000 0.000000
# 3 -0.006926 -0.007168 0.020081 0.000000 0.000000 0.000000
# 4 0.000000 0.000000 0.000000 0.028839 0.000000 0.000000
# 5 0.000000 0.000000 0.000000 0.000000 0.030897 0.000000
# 6 0.000000 0.000000 0.000000 0.000000 0.000000 -0.012953
#
#
# Mechanical properties :
#
#
# Convention : Reuss Voigt Hill
#
# Bulk Modulus (GPa) = 52.67308 52.75991 52.71650
# Shear Modulus (GPa) = 36.80408 7.44112 22.12260
#
# Velocity S-wave (km/s) = 4.11525 1.85041 3.19055
# Velocity P-wave (km/s) = 6.84234 5.37053 6.15062
#
# Compressibility (1/GPa) = 0.01898503
#
# Stress axis : x y z
#
# Youngs Moduli (GPa) = 63.55863 66.44687 49.79874
#
# Poissons Ratio (x) = 0.12263 0.34489
# Poissons Ratio (y) = 0.11730 0.35697
# Poissons Ratio (z) = 0.44018 0.47631
#
# Static dielectric constant tensor:
#      x y z
#    x 3.941440 0.000000 0.000000 
#    y 0.000000 4.207130 0.000000 
#    z 0.000000 0.000000 4.063140 
# 
# 
# High freq. dielectric constant tensor:
#      x y z
#    x 1.850180 0.000000 0.000000 
#    y 0.000000 1.875600 0.000000 
#    z 0.000000 0.000000 1.862980 
# 
# From -- ./inp_files/16937.got.cif
#   From: 2010.03.12/outbox.cif.g09.slc.cpg/sg73_9_cif.got.tgz:16937.got - 2010.04.16 15:25:48.
