data_PCOD8296881
_publ_section_title
;
Structure prediction by ZEFSAII (Michael W. Deem and Ramdas Pophale) SiO2 
 PCOD8296881
Probable space group: I B C A 
;
_chemical_formula_sum "Si O2"
_cell_formula_units_Z 80
_cell_length_a 11.428938
_cell_length_b 23.403292
_cell_length_c 13.930590
_cell_angle_alpha 90.000000
_cell_angle_beta 90.000000
_cell_angle_gamma 90.000000
_cell_volume 3726.081402
_symmetry_space_group_name_H-M "I B C A "
_symmetry_group_IT_number 73
_symmetry_cell_setting 'orthorhombic'
loop_
_space_group_symop_operation_xyz
x,y,z
-x,1/2-y,z
x,-y,1/2-z
1/2-x,y,-z
-x,-y,-z
x,1/2+y,-z
-x,y,1/2+z
1/2+x,-y,z
1/2+x,1/2+y,1/2+z
1/2-x,-y,1/2+z
1/2+x,1/2-y,-z
-x,1/2+y,1/2-z
1/2-x,1/2-y,1/2-z
1/2+x,y,1/2-z
1/2-x,1/2+y,z
x,1/2-y,1/2+z
loop_
_atom_site_type_symbol
_atom_site_label
_atom_site_fract_x
_atom_site_fract_y
_atom_site_fract_z
Si Si1 0.629322 0.113901 0.290857
Si Si2 0.497033 0.316087 0.433390
Si Si3 0.958588 0.897177 0.593683
Si Si4 0.297622 0.888189 0.126986
Si Si5 0.020303 0.482016 0.144334
O O1 0.608131 0.168828 0.359032
O O2 0.530220 0.118069 0.206343
O O3 0.757024 0.111786 0.240753
O O4 0.600773 0.055107 0.348611
O O5 0.500000 0.250000 0.459649
O O6 0.468783 0.352729 0.529507
O O7 0.624024 0.331914 0.389447
O O8 0.820755 0.890139 0.562516
O O9 0.000682 0.962592 0.576521
O O10 0.378384 0.942450 0.099755
O O11 0.060797 0.500000 0.250000
#
# Coordination Sequence:
#
# PCOD8296881 Si02
#       5
#    16  16  16  16  16
#     4   8  20  36  57  96 117 156 196 242 306 363
#     4  11  22  39  64  83 121 165 209 253 285 347
#     4   9  20  38  62  92 121 156 200 247 308 357
#     4   9  20  36  60  90 123 156 199 242 313 353
#     4   9  17  33  63  92 125 153 186 249 307 374
#
# _framework density 21.470276999999999
#
# number of rings (size 3 to 8) (size 9 to 14) (size 15 to 20)
#    1.200    1.600    0.000    0.600    2.800    4.800 
#    0.000    0.000   13.200    0.000    0.000    0.000 
#    0.000    0.000    0.000    0.000    0.000    0.000 
#
# Total GULP energy -495541.184649 kJ/mol
# GULP energy per Si atom -12388.529616 kJ/mol
# Density = 2.142141 g / cm^3
# Si number density = 21.470277 Si / 1000 Ang^3
#
#
#
# Elastic Constant Matrix: (Units=GPa)
#
#
# Indices 1 2 3 4 5 6 
#
# 1 67.4586 34.8879 10.6818 0.0000 0.0000 0.0000
# 2 34.8879 180.5690 60.2648 0.0003 0.0000 0.0000
# 3 10.6818 60.2648 51.7631 0.0001 0.0001 0.0000
# 4 0.0000 0.0003 0.0001 32.1842 0.0000 0.0000
# 5 0.0000 0.0000 0.0001 0.0000 28.3944 0.0000
# 6 0.0000 0.0000 0.0000 0.0000 0.0000 20.8376
#
#
#
# Elastic Compliance Matrix: (Units=1/GPa)
#
#
# Indices 1 2 3 4 5 6 
#
# 1 0.016478 -0.003351 0.000501 0.000000 0.000000 0.000000
# 2 -0.003351 0.009739 -0.010647 0.000000 0.000000 0.000000
# 3 0.000501 -0.010647 0.031611 0.000000 0.000000 0.000000
# 4 0.000000 0.000000 0.000000 0.031071 0.000000 0.000000
# 5 0.000000 0.000000 0.000000 0.000000 0.035218 0.000000
# 6 0.000000 0.000000 0.000000 0.000000 0.000000 0.047990
#
#
# Mechanical properties :
#
#
# Convention : Reuss Voigt Hill
#
# Bulk Modulus (GPa) = 32.43206 56.82887 44.63047
# Shear Modulus (GPa) = 23.88018 29.21365 26.54692
#
# Velocity S-wave (km/s) = 3.33865 3.69271 3.52013
# Velocity P-wave (km/s) = 5.47727 6.68637 6.11179
#
# Compressibility (1/GPa) = 0.03083368
#
# Stress axis : x y z
#
# Youngs Moduli (GPa) = 60.68861 102.68126 31.63450
#
# Poissons Ratio (x) = 0.34406 -0.01584
# Poissons Ratio (y) = 0.20336 0.33681
# Poissons Ratio (z) = -0.03040 1.09324
#
# Static dielectric constant tensor:
#      x y z
#    x 3.539200 0.000000 0.000000 
#    y 0.000000 3.569030 0.000000 
#    z 0.000000 0.000000 3.853610 
# 
# 
# High freq. dielectric constant tensor:
#      x y z
#    x 1.810760 0.000000 0.000000 
#    y 0.000000 1.816630 0.000000 
#    z 0.000000 0.000000 1.860120 
# 
# From -- ./inp_files/17135.got.cif
#   From: 2010.03.12/outbox.cif.g09.slc.cpg/sg73_9_cif.got.tgz:17135.got - 2010.04.16 15:25:48.
