data_PCOD8296403
_publ_section_title
;
Structure prediction by ZEFSAII (Michael W. Deem and Ramdas Pophale) SiO2 
 PCOD8296403
Probable space group: I B C A 
;
_chemical_formula_sum "Si O2"
_cell_formula_units_Z 120
_cell_length_a 22.702747
_cell_length_b 19.642619
_cell_length_c 11.942226
_cell_angle_alpha 90.000000
_cell_angle_beta 90.000000
_cell_angle_gamma 90.000000
_cell_volume 5325.533096
_symmetry_space_group_name_H-M "I B C A "
_symmetry_group_IT_number 73
_symmetry_cell_setting 'orthorhombic'
loop_
_space_group_symop_operation_xyz
x,y,z
-x,1/2-y,z
x,-y,1/2-z
1/2-x,y,-z
-x,-y,-z
x,1/2+y,-z
-x,y,1/2+z
1/2+x,-y,z
1/2+x,1/2+y,1/2+z
1/2-x,-y,1/2+z
1/2+x,1/2-y,-z
-x,1/2+y,1/2-z
1/2-x,1/2-y,1/2-z
1/2+x,y,1/2-z
1/2-x,1/2+y,z
x,1/2-y,1/2+z
loop_
_atom_site_type_symbol
_atom_site_label
_atom_site_fract_x
_atom_site_fract_y
_atom_site_fract_z
Si Si1 0.816122 0.436515 0.828781
Si Si2 0.345461 0.000393 0.953857
Si Si3 0.997367 0.669604 0.359443
Si Si4 0.117255 0.110424 0.220437
Si Si5 0.950801 0.569189 0.690135
Si Si6 0.261213 0.827628 0.773872
Si Si7 0.050541 0.583484 0.544893
Si Si8 0.750000 0.107390 0.000000
O O1 0.797203 0.500000 0.750000
O O2 0.882689 0.414689 0.809149
O O3 0.773835 0.373195 0.814391
O O4 0.809870 0.454263 0.958506
O O5 0.407396 0.974173 0.012141
O O6 0.303015 0.934917 0.940781
O O7 0.356970 0.041704 0.838870
O O8 0.021849 0.635927 0.247170
O O9 0.040269 0.647284 0.462283
O O10 0.000000 0.750000 0.349462
O O11 0.928606 0.645783 0.366816
O O12 0.169547 0.160988 0.253856
O O13 0.085470 0.094318 0.338078
O O14 0.968216 0.500000 0.750000
O O15 0.983601 0.560018 0.570464
O O16 0.250000 0.750000 0.750000
O O17 0.232850 0.844565 0.895982
#
# Coordination Sequence:
#
# PCOD8296403 Si02
#       8
#    16  16  16  16  16  16  16   8
#     4  11  23  42  73 109 139 195 250 316 365 451
#     4  12  23  42  78 109 149 190 261 316 383 446
#     4  11  26  44  69 103 150 207 248 301 391 476
#     4  11  26  46  72 109 146 199 253 321 377 449
#     4  10  22  40  68 100 144 180 251 313 374 434
#     4  12  29  49  74 109 157 200 254 314 384 461
#     4  11  22  42  70 106 144 191 243 315 378 443
#     4  12  26  46  78 104 150 210 244 314 386 448
#
# _framework density 22.532955999999999
#
# number of rings (size 3 to 8) (size 9 to 14) (size 15 to 20)
#    0.000    0.800    2.667    5.200    1.867    4.800 
#    2.400    0.000    0.000    0.000    0.000    0.000 
#    0.000    0.000    0.000    0.000    0.000    0.000 
#
# Total GULP energy -743414.465717 kJ/mol
# GULP energy per Si atom -12390.241095 kJ/mol
# Density = 2.248167 g / cm^3
# Si number density = 22.532956 Si / 1000 Ang^3
#
#
#
# Elastic Constant Matrix: (Units=GPa)
#
#
# Indices 1 2 3 4 5 6 
#
# 1 105.0500 53.3398 25.5735 0.0000 0.0000 0.0000
# 2 53.3398 102.4451 17.6791 0.0000 0.0000 0.0000
# 3 25.5735 17.6791 80.5830 0.0000 0.0000 0.0000
# 4 0.0000 0.0000 0.0000 31.6271 0.0000 0.0000
# 5 0.0000 0.0000 0.0000 0.0000 15.0816 0.0000
# 6 0.0000 0.0000 0.0000 0.0000 0.0000 25.9526
#
#
#
# Elastic Compliance Matrix: (Units=1/GPa)
#
#
# Indices 1 2 3 4 5 6 
#
# 1 0.013546 -0.006559 -0.002860 0.000000 0.000000 0.000000
# 2 -0.006559 0.013322 -0.000841 0.000000 0.000000 0.000000
# 3 -0.002860 -0.000841 0.013502 0.000000 0.000000 0.000000
# 4 0.000000 0.000000 0.000000 0.031618 0.000000 0.000000
# 5 0.000000 0.000000 0.000000 0.000000 0.066306 0.000000
# 6 0.000000 0.000000 0.000000 0.000000 0.000000 0.038532
#
#
# Mechanical properties :
#
#
# Convention : Reuss Voigt Hill
#
# Bulk Modulus (GPa) = 50.38062 53.47368 51.92715
# Shear Modulus (GPa) = 24.51430 27.29797 25.90614
#
# Velocity S-wave (km/s) = 3.30196 3.48439 3.39440
# Velocity P-wave (km/s) = 6.07819 6.32225 6.20142
#
# Compressibility (1/GPa) = 0.01984890
#
# Stress axis : x y z
#
# Youngs Moduli (GPa) = 73.82200 75.06517 74.06499
#
# Poissons Ratio (x) = 0.49239 0.21181
# Poissons Ratio (y) = 0.48423 0.06229
# Poissons Ratio (z) = 0.21112 0.06313
#
# Static dielectric constant tensor:
#      x y z
#    x 4.711580 0.000000 0.000000 
#    y 0.000000 3.815670 0.000000 
#    z 0.000000 0.000000 4.054640 
# 
# 
# High freq. dielectric constant tensor:
#      x y z
#    x 1.914250 0.000000 0.000000 
#    y 0.000000 1.863860 0.000000 
#    z 0.000000 0.000000 1.896930 
# 
# From -- ./inp_files/13832.got.cif
#   From: 2010.03.12/outbox.cif.g09.slc.cpg/sg73_7_cif.got.tgz:13832.got - 2010.04.16 15:25:48.
