data_PCOD8296110
_publ_section_title
;
Structure prediction by ZEFSAII (Michael W. Deem and Ramdas Pophale) SiO2 
 PCOD8296110
Probable space group: I B C A 
;
_chemical_formula_sum "Si O2"
_cell_formula_units_Z 120
_cell_length_a 10.761194
_cell_length_b 28.448499
_cell_length_c 19.533524
_cell_angle_alpha 90.000000
_cell_angle_beta 90.000000
_cell_angle_gamma 90.000000
_cell_volume 5979.989458
_symmetry_space_group_name_H-M "I B C A "
_symmetry_group_IT_number 73
_symmetry_cell_setting 'orthorhombic'
loop_
_space_group_symop_operation_xyz
x,y,z
-x,1/2-y,z
x,-y,1/2-z
1/2-x,y,-z
-x,-y,-z
x,1/2+y,-z
-x,y,1/2+z
1/2+x,-y,z
1/2+x,1/2+y,1/2+z
1/2-x,-y,1/2+z
1/2+x,1/2-y,-z
-x,1/2+y,1/2-z
1/2-x,1/2-y,1/2-z
1/2+x,y,1/2-z
1/2-x,1/2+y,z
x,1/2-y,1/2+z
loop_
_atom_site_type_symbol
_atom_site_label
_atom_site_fract_x
_atom_site_fract_y
_atom_site_fract_z
Si Si1 0.000000 0.750000 0.531798
Si Si2 0.951908 0.840611 0.869808
Si Si3 0.053576 0.835901 0.623264
Si Si4 0.823298 0.706125 0.940212
Si Si5 0.254974 0.093348 0.075935
Si Si6 0.963129 0.603530 0.237263
Si Si7 0.779835 0.948923 0.218001
Si Si8 0.758741 0.270167 0.175039
O O1 0.010605 0.702349 0.575339
O O2 0.880598 0.748887 0.481886
O O3 0.858199 0.870111 0.916781
O O4 0.892956 0.792665 0.839711
O O5 0.072597 0.828881 0.913603
O O6 0.998861 0.870855 0.806683
O O7 0.117449 0.877244 0.579904
O O8 0.953759 0.859535 0.674414
O O9 0.156346 0.810547 0.670181
O O10 0.737122 0.728035 0.879994
O O11 0.750000 0.677615 0.000000
O O12 0.250160 0.053683 0.136007
O O13 0.250000 0.069818 0.000000
O O14 0.078641 0.568131 0.227196
O O15 0.826028 0.580780 0.242333
O O16 0.769694 0.000000 0.250000
O O17 0.750000 0.250000 0.250000
#
# Coordination Sequence:
#
# PCOD8296110 Si02
#       8
#     8  16  16  16  16  16  16  16
#     4  12  22  34  52  78 110 170 212 262 290 350
#     4  10  21  36  57  79 123 163 206 272 317 361
#     4  10  22  33  53  80 118 161 212 255 291 358
#     4  12  23  35  51  78 112 163 218 262 308 348
#     4   9  19  37  61  86 117 158 204 248 310 381
#     4  10  22  40  63  95 125 160 202 260 321 370
#     4  10  21  41  71  98 121 156 194 253 324 406
#     4  11  22  35  51  76 111 162 220 267 304 346
#
# _framework density 20.066925000000001
#
# number of rings (size 3 to 8) (size 9 to 14) (size 15 to 20)
#    0.000    1.600    2.667    2.800    3.733    1.067 
#    0.000    0.000    0.000   15.200    0.000    0.000 
#    0.000    0.000    0.000    0.000    0.000    0.000 
#
# Total GULP energy -743607.962389 kJ/mol
# GULP energy per Si atom -12393.466040 kJ/mol
# Density = 2.002125 g / cm^3
# Si number density = 20.066925 Si / 1000 Ang^3
#
#
#
# Elastic Constant Matrix: (Units=GPa)
#
#
# Indices 1 2 3 4 5 6 
#
# 1 51.8356 10.9250 21.1946 -0.0001 0.0000 0.0000
# 2 10.9250 76.3199 48.9030 -0.0001 0.0000 0.0000
# 3 21.1946 48.9030 151.6590 -0.0001 0.0001 0.0000
# 4 -0.0001 -0.0001 -0.0001 24.5616 0.0001 0.0000
# 5 0.0000 0.0000 0.0001 0.0001 30.5944 0.0000
# 6 0.0000 0.0000 0.0000 0.0000 0.0000 24.1700
#
#
#
# Elastic Compliance Matrix: (Units=1/GPa)
#
#
# Indices 1 2 3 4 5 6 
#
# 1 0.020577 -0.001390 -0.002427 0.000000 0.000000 0.000000
# 2 -0.001390 0.016609 -0.005161 0.000000 0.000000 0.000000
# 3 -0.002427 -0.005161 0.008597 0.000000 0.000000 0.000000
# 4 0.000000 0.000000 0.000000 0.040714 0.000000 0.000000
# 5 0.000000 0.000000 0.000000 0.000000 0.032686 0.000000
# 6 0.000000 0.000000 0.000000 0.000000 0.000000 0.041374
#
#
# Mechanical properties :
#
#
# Convention : Reuss Voigt Hill
#
# Bulk Modulus (GPa) = 35.93810 49.09550 42.51680
# Shear Modulus (GPa) = 26.62549 29.11799 27.87174
#
# Velocity S-wave (km/s) = 3.64653 3.81339 3.73089
# Velocity P-wave (km/s) = 5.97307 6.62633 6.30816
#
# Compressibility (1/GPa) = 0.02782562
#
# Stress axis : x y z
#
# Youngs Moduli (GPa) = 48.59721 60.20862 116.31602
#
# Poissons Ratio (x) = 0.08370 0.28235
# Poissons Ratio (y) = 0.06756 0.60034
# Poissons Ratio (z) = 0.11797 0.31076
#
# Static dielectric constant tensor:
#      x y z
#    x 3.763310 0.000000 0.000000 
#    y 0.000000 3.388980 0.000000 
#    z 0.000000 0.000000 3.832540 
# 
# 
# High freq. dielectric constant tensor:
#      x y z
#    x 1.792050 0.000000 0.000000 
#    y 0.000000 1.738340 0.000000 
#    z 0.000000 0.000000 1.799570 
# 
# From -- ./inp_files/21555.got.cif
#   From: 2010.03.12/outbox.cif.g09.slc.cpg/sg73_11_cif.got.tgz:21555.got - 2010.04.16 15:25:48.
