data_PCOD8296429
_publ_section_title
;
Structure prediction by ZEFSAII (Michael W. Deem and Ramdas Pophale) SiO2 
 PCOD8296429
Probable space group: I B C A 
;
_chemical_formula_sum "Si O2"
_cell_formula_units_Z 88
_cell_length_a 17.353736
_cell_length_b 14.442473
_cell_length_c 17.041823
_cell_angle_alpha 90.000000
_cell_angle_beta 90.000000
_cell_angle_gamma 90.000000
_cell_volume 4271.206816
_symmetry_space_group_name_H-M "I B C A "
_symmetry_group_IT_number 73
_symmetry_cell_setting 'orthorhombic'
loop_
_space_group_symop_operation_xyz
x,y,z
-x,1/2-y,z
x,-y,1/2-z
1/2-x,y,-z
-x,-y,-z
x,1/2+y,-z
-x,y,1/2+z
1/2+x,-y,z
1/2+x,1/2+y,1/2+z
1/2-x,-y,1/2+z
1/2+x,1/2-y,-z
-x,1/2+y,1/2-z
1/2-x,1/2-y,1/2-z
1/2+x,y,1/2-z
1/2-x,1/2+y,z
x,1/2-y,1/2+z
loop_
_atom_site_type_symbol
_atom_site_label
_atom_site_fract_x
_atom_site_fract_y
_atom_site_fract_z
Si Si1 0.141345 0.172294 0.660442
Si Si2 0.500000 0.750000 0.566348
Si Si3 0.923892 0.811057 0.169858
Si Si4 0.447379 0.579821 0.969207
Si Si5 0.203048 0.998494 0.931132
Si Si6 0.732701 0.199033 0.590771
O O1 0.062588 0.196701 0.617257
O O2 0.119835 0.162291 0.751033
O O3 0.173887 0.073087 0.633316
O O4 0.206469 0.249490 0.647061
O O5 0.542170 0.676425 0.512352
O O6 0.956456 0.902462 0.124937
O O7 0.855392 0.768672 0.113642
O O8 0.000000 0.750000 0.185218
O O9 0.362250 0.544959 0.985219
O O10 0.500000 0.500000 0.000000
O O11 0.244354 0.088366 0.891832
O O12 0.250000 0.945537 0.000000
O O13 0.750000 0.224627 0.500000
#
# Coordination Sequence:
#
# PCOD8296429 Si02
#       6
#    16   8  16  16  16  16
#     4  12  23  41  69 102 141 183 225 293 355 409
#     4  12  22  40  70 100 136 184 234 278 346 418
#     4  11  24  43  67 102 145 178 225 289 354 413
#     4  11  23  41  66 100 132 182 234 279 330 420
#     4  10  22  41  67  99 134 183 240 285 344 415
#     4  10  23  43  68  98 134 184 239 286 341 427
#
# _framework density 20.603076000000001
#
# number of rings (size 3 to 8) (size 9 to 14) (size 15 to 20)
#    0.000    1.091    3.636    4.364    0.000    4.364 
#    0.000    0.000    0.000    2.182    0.000    0.000 
#    0.000    0.000    0.000    0.000    0.000    0.000 
#
# Total GULP energy -545094.985398 kJ/mol
# GULP energy per Si atom -12388.522395 kJ/mol
# Density = 2.055618 g / cm^3
# Si number density = 20.603076 Si / 1000 Ang^3
#
#
#
# Elastic Constant Matrix: (Units=GPa)
#
#
# Indices 1 2 3 4 5 6 
#
# 1 107.0445 51.3561 64.8750 0.0000 0.0000 0.0000
# 2 51.3561 117.3797 62.9196 0.0000 0.0000 0.0000
# 3 64.8750 62.9196 153.9068 0.0000 0.0000 0.0000
# 4 0.0000 0.0000 0.0000 -61.1612 0.0000 0.0000
# 5 0.0000 0.0000 0.0000 0.0000 39.4753 0.0000
# 6 0.0000 0.0000 0.0000 0.0000 0.0000 37.3365
#
#
#
# Elastic Compliance Matrix: (Units=1/GPa)
#
#
# Indices 1 2 3 4 5 6 
#
# 1 0.013704 -0.003713 -0.004259 0.000000 0.000000 0.000000
# 2 -0.003713 0.011916 -0.003306 0.000000 0.000000 0.000000
# 3 -0.004259 -0.003306 0.009644 0.000000 0.000000 0.000000
# 4 0.000000 0.000000 0.000000 -0.016350 0.000000 0.000000
# 5 0.000000 0.000000 0.000000 0.000000 0.025332 0.000000
# 6 0.000000 0.000000 0.000000 0.000000 0.000000 0.026783
#
#
# Mechanical properties :
#
#
# Convention : Reuss Voigt Hill
#
# Bulk Modulus (GPa) = 78.68775 81.84802 80.26789
# Shear Modulus (GPa) = 51.11275 16.40882 33.76078
#
# Velocity S-wave (km/s) = 4.98620 2.82516 4.05239
# Velocity P-wave (km/s) = 8.45131 7.10313 7.80638
#
# Compressibility (1/GPa) = 0.01270846
#
# Stress axis : x y z
#
# Youngs Moduli (GPa) = 72.96959 83.91883 103.68845
#
# Poissons Ratio (x) = 0.31160 0.44158
# Poissons Ratio (y) = 0.27095 0.34284
# Poissons Ratio (z) = 0.31075 0.27747
#
# Static dielectric constant tensor:
#      x y z
#    x 5.658110 0.000000 0.000000 
#    y 0.000000 3.720060 0.000000 
#    z 0.000000 0.000000 3.817980 
# 
# 
# High freq. dielectric constant tensor:
#      x y z
#    x 1.823750 0.000000 0.000000 
#    y 0.000000 1.799500 0.000000 
#    z 0.000000 0.000000 1.801690 
# 
# From -- ./inp_files/22456.got.cif
#   From: 2010.03.12/outbox.cif.g09.slc.cpg/sg73_12_cif.got.tgz:22456.got - 2010.04.16 15:25:48.
