data_PCOD8296604
_publ_section_title
;
Structure prediction by ZEFSAII (Michael W. Deem and Ramdas Pophale) SiO2 
 PCOD8296604
Probable space group: I B C A 
;
_chemical_formula_sum "Si O2"
_cell_formula_units_Z 120
_cell_length_a 25.885307
_cell_length_b 17.899417
_cell_length_c 12.151904
_cell_angle_alpha 90.000000
_cell_angle_beta 90.000000
_cell_angle_gamma 90.000000
_cell_volume 5630.364820
_symmetry_space_group_name_H-M "I B C A "
_symmetry_group_IT_number 73
_symmetry_cell_setting 'orthorhombic'
loop_
_space_group_symop_operation_xyz
x,y,z
-x,1/2-y,z
x,-y,1/2-z
1/2-x,y,-z
-x,-y,-z
x,1/2+y,-z
-x,y,1/2+z
1/2+x,-y,z
1/2+x,1/2+y,1/2+z
1/2-x,-y,1/2+z
1/2+x,1/2-y,-z
-x,1/2+y,1/2-z
1/2-x,1/2-y,1/2-z
1/2+x,y,1/2-z
1/2-x,1/2+y,z
x,1/2-y,1/2+z
loop_
_atom_site_type_symbol
_atom_site_label
_atom_site_fract_x
_atom_site_fract_y
_atom_site_fract_z
Si Si1 0.148906 0.000000 0.250000
Si Si2 0.771567 0.410349 0.377423
Si Si3 0.412789 0.439186 0.623047
Si Si4 0.113007 0.224245 0.608775
Si Si5 0.922025 0.113585 0.620841
Si Si6 0.819238 0.372253 0.772159
Si Si7 0.541238 0.097639 0.842157
Si Si8 0.198435 0.744084 0.568737
O O1 0.185088 0.971360 0.150656
O O2 0.113569 0.936461 0.302103
O O3 0.750000 0.424399 0.500000
O O4 0.724446 0.416890 0.292560
O O5 0.799639 0.330613 0.357657
O O6 0.411622 0.397118 0.507976
O O7 0.355497 0.435573 0.674806
O O8 0.450172 0.396548 0.710110
O O9 0.430033 0.524708 0.609135
O O10 0.089376 0.301195 0.654504
O O11 0.150585 0.186004 0.695715
O O12 0.064767 0.167863 0.590652
O O13 0.144999 0.241500 0.498706
O O14 0.980864 0.091566 0.640064
O O15 0.795318 0.320865 0.866666
O O16 0.250000 0.738323 0.500000
#
# Coordination Sequence:
#
# PCOD8296604 Si02
#       8
#     8  16  16  16  16  16  16  16
#     4  12  30  40  70 100 140 184 218 294 338 420
#     4  11  25  44  65  98 138 182 226 279 350 415
#     4  10  23  43  71  96 128 184 219 281 341 403
#     4  11  23  43  70 100 131 178 223 282 337 407
#     4  12  25  48  64 103 138 172 232 278 349 400
#     4  11  22  42  68  99 134 174 229 274 334 416
#     4  10  24  45  70  97 133 179 229 283 337 404
#     4  11  22  40  68  96 136 177 220 278 344 402
#
# _framework density 21.313005
#
# number of rings (size 3 to 8) (size 9 to 14) (size 15 to 20)
#    0.000    1.067    4.000    2.800    3.733    4.267 
#    2.400    1.333    0.000    0.000    0.000    0.000 
#    0.000    0.000    0.000    0.000    0.000    0.000 
#
# Total GULP energy -743960.633903 kJ/mol
# GULP energy per Si atom -12399.343898 kJ/mol
# Density = 2.126450 g / cm^3
# Si number density = 21.313005 Si / 1000 Ang^3
#
#
#
# Elastic Constant Matrix: (Units=GPa)
#
#
# Indices 1 2 3 4 5 6 
#
# 1 133.0532 78.2593 41.9386 0.0000 0.0000 0.0000
# 2 78.2593 110.6174 20.7927 0.0000 0.0000 0.0000
# 3 41.9386 20.7927 83.3123 0.0000 0.0000 0.0000
# 4 0.0000 0.0000 0.0000 20.1977 0.0000 0.0000
# 5 0.0000 0.0000 0.0000 0.0000 26.1751 0.0000
# 6 0.0000 0.0000 0.0000 0.0000 0.0000 46.9797
#
#
#
# Elastic Compliance Matrix: (Units=1/GPa)
#
#
# Indices 1 2 3 4 5 6 
#
# 1 0.014631 -0.009408 -0.005017 0.000000 0.000000 0.000000
# 2 -0.009408 0.015535 0.000859 0.000000 0.000000 0.000000
# 3 -0.005017 0.000859 0.014314 0.000000 0.000000 0.000000
# 4 0.000000 0.000000 0.000000 0.049511 0.000000 0.000000
# 5 0.000000 0.000000 0.000000 0.000000 0.038204 0.000000
# 6 0.000000 0.000000 0.000000 0.000000 0.000000 0.021286
#
#
# Mechanical properties :
#
#
# Convention : Reuss Voigt Hill
#
# Bulk Modulus (GPa) = 57.64564 67.66267 62.65415
# Shear Modulus (GPa) = 26.82481 31.06998 28.94740
#
# Velocity S-wave (km/s) = 3.55154 3.82225 3.68938
# Velocity P-wave (km/s) = 6.62750 7.16209 6.89998
#
# Compressibility (1/GPa) = 0.01734736
#
# Stress axis : x y z
#
# Youngs Moduli (GPa) = 68.34973 64.37261 69.86075
#
# Poissons Ratio (x) = 0.60561 0.35049
# Poissons Ratio (y) = 0.64302 -0.05999
# Poissons Ratio (z) = 0.34291 -0.05528
#
# Static dielectric constant tensor:
#      x y z
#    x 3.984270 0.000000 0.000000 
#    y 0.000000 4.036700 0.000000 
#    z 0.000000 0.000000 3.859380 
# 
# 
# High freq. dielectric constant tensor:
#      x y z
#    x 1.846330 0.000000 0.000000 
#    y 0.000000 1.845510 0.000000 
#    z 0.000000 0.000000 1.828530 
# 
# From -- ./inp_files/14361.got.cif
#   From: 2010.03.12/outbox.cif.g09.slc.cpg/sg73_8_cif.got.tgz:14361.got - 2010.04.16 15:25:48.
