data_PCOD8296767
_publ_section_title
;
Structure prediction by ZEFSAII (Michael W. Deem and Ramdas Pophale) SiO2 
 PCOD8296767
Probable space group: I B C A 
;
_chemical_formula_sum "Si O2"
_cell_formula_units_Z 120
_cell_length_a 21.357513
_cell_length_b 24.419353
_cell_length_c 10.840567
_cell_angle_alpha 90.000000
_cell_angle_beta 90.000000
_cell_angle_gamma 90.000000
_cell_volume 5653.752988
_symmetry_space_group_name_H-M "I B C A "
_symmetry_group_IT_number 73
_symmetry_cell_setting 'orthorhombic'
loop_
_space_group_symop_operation_xyz
x,y,z
-x,1/2-y,z
x,-y,1/2-z
1/2-x,y,-z
-x,-y,-z
x,1/2+y,-z
-x,y,1/2+z
1/2+x,-y,z
1/2+x,1/2+y,1/2+z
1/2-x,-y,1/2+z
1/2+x,1/2-y,-z
-x,1/2+y,1/2-z
1/2-x,1/2-y,1/2-z
1/2+x,y,1/2-z
1/2-x,1/2+y,z
x,1/2-y,1/2+z
loop_
_atom_site_type_symbol
_atom_site_label
_atom_site_fract_x
_atom_site_fract_y
_atom_site_fract_z
Si Si1 0.317454 0.228066 0.725989
Si Si2 0.314363 0.851631 0.561309
Si Si3 0.000000 0.250000 0.518423
Si Si4 0.349367 0.441812 0.272697
Si Si5 0.404126 0.317288 0.633172
Si Si6 0.938447 0.641998 0.873233
Si Si7 0.988377 0.967452 0.871529
Si Si8 0.820596 0.632427 0.043251
O O1 0.250000 0.250000 0.750000
O O2 0.340193 0.192640 0.841964
O O3 0.359471 0.281269 0.719070
O O4 0.317965 0.192957 0.600826
O O5 0.250000 0.832293 0.500000
O O6 0.305954 0.909421 0.630147
O O7 0.367394 0.856613 0.459260
O O8 0.052283 0.274116 0.431514
O O9 0.028871 0.199820 0.594874
O O10 0.316118 0.500000 0.250000
O O11 0.416870 0.452855 0.335377
O O12 0.350406 0.409637 0.142711
O O13 0.437844 0.359190 0.724634
O O14 0.979572 0.589847 0.906535
O O15 0.868820 0.634979 0.929612
O O16 0.016097 0.000000 0.750000
O O17 0.000000 0.000000 0.000000
O O18 0.750000 0.615129 0.000000
#
# Coordination Sequence:
#
# PCOD8296767 Si02
#       8
#    16  16   8  16  16  16  16  16
#     4  11  22  40  65  95 140 188 227 273 336 423
#     4  11  24  40  67 100 135 176 229 281 339 421
#     4  12  26  44  64 104 148 184 224 286 366 420
#     4  10  24  47  72  94 135 179 229 297 364 418
#     4  12  25  39  67 101 140 183 225 280 348 418
#     4  12  26  44  71 102 144 181 238 297 355 438
#     4  11  26  49  79 104 137 193 251 306 370 439
#     4  11  25  44  68 103 140 189 236 289 360 435
#
# _framework density 21.224838999999999
#
# number of rings (size 3 to 8) (size 9 to 14) (size 15 to 20)
#    0.000    0.800    2.667    4.400    9.333    1.600 
#    0.000    0.667    0.000    0.000    0.000    0.000 
#    0.000    0.000    0.000    0.000    0.000    0.000 
#
# Total GULP energy -743639.507424 kJ/mol
# GULP energy per Si atom -12393.991790 kJ/mol
# Density = 2.117653 g / cm^3
# Si number density = 21.224839 Si / 1000 Ang^3
#
#
#
# Elastic Constant Matrix: (Units=GPa)
#
#
# Indices 1 2 3 4 5 6 
#
# 1 74.2329 14.3694 26.8863 0.0000 0.0000 0.0000
# 2 14.3694 105.0194 47.1913 0.0000 0.0000 0.0000
# 3 26.8863 47.1913 131.5430 0.0000 0.0000 0.0000
# 4 0.0000 0.0000 0.0000 42.1884 0.0000 0.0000
# 5 0.0000 0.0000 0.0000 0.0000 33.4397 0.0000
# 6 0.0000 0.0000 0.0000 0.0000 0.0000 26.7779
#
#
#
# Elastic Compliance Matrix: (Units=1/GPa)
#
#
# Indices 1 2 3 4 5 6 
#
# 1 0.014602 -0.000783 -0.002704 0.000000 0.000000 0.000000
# 2 -0.000783 0.011394 -0.003928 0.000000 0.000000 0.000000
# 3 -0.002704 -0.003928 0.009564 0.000000 0.000000 0.000000
# 4 0.000000 0.000000 0.000000 0.023703 0.000000 0.000000
# 5 0.000000 0.000000 0.000000 0.000000 0.029905 0.000000
# 6 0.000000 0.000000 0.000000 0.000000 0.000000 0.037344
#
#
# Mechanical properties :
#
#
# Convention : Reuss Voigt Hill
#
# Bulk Modulus (GPa) = 48.23641 54.18768 51.21205
# Shear Modulus (GPa) = 33.72667 35.30441 34.51554
#
# Velocity S-wave (km/s) = 3.99057 4.08285 4.03697
# Velocity P-wave (km/s) = 6.63390 6.91462 6.77571
#
# Compressibility (1/GPa) = 0.02073123
#
# Stress axis : x y z
#
# Youngs Moduli (GPa) = 68.48420 87.76482 104.56207
#
# Poissons Ratio (x) = 0.06872 0.28269
# Poissons Ratio (y) = 0.05363 0.41068
# Poissons Ratio (z) = 0.18515 0.34470
#
# Static dielectric constant tensor:
#      x y z
#    x 2.879460 0.000000 0.000000 
#    y 0.000000 4.001490 0.000000 
#    z 0.000000 0.000000 3.626990 
# 
# 
# High freq. dielectric constant tensor:
#      x y z
#    x 1.826360 0.000000 0.000000 
#    y 0.000000 1.838150 0.000000 
#    z 0.000000 0.000000 1.850970 
# 
# From -- ./inp_files/13125.got.cif
#   From: 2010.03.12/outbox.cif.g09.slc.cpg/sg73_7_cif.got.tgz:13125.got - 2010.04.16 15:25:48.
