data_PCOD8296653
_publ_section_title
;
Structure prediction by ZEFSAII (Michael W. Deem and Ramdas Pophale) SiO2 
 PCOD8296653
Probable space group: I B C A 
;
_chemical_formula_sum "Si O2"
_cell_formula_units_Z 80
_cell_length_a 10.683034
_cell_length_b 13.677564
_cell_length_c 23.325881
_cell_angle_alpha 90.000000
_cell_angle_beta 90.000000
_cell_angle_gamma 90.000000
_cell_volume 3408.328310
_symmetry_space_group_name_H-M "I B C A "
_symmetry_group_IT_number 73
_symmetry_cell_setting 'orthorhombic'
loop_
_space_group_symop_operation_xyz
x,y,z
-x,1/2-y,z
x,-y,1/2-z
1/2-x,y,-z
-x,-y,-z
x,1/2+y,-z
-x,y,1/2+z
1/2+x,-y,z
1/2+x,1/2+y,1/2+z
1/2-x,-y,1/2+z
1/2+x,1/2-y,-z
-x,1/2+y,1/2-z
1/2-x,1/2-y,1/2-z
1/2+x,y,1/2-z
1/2-x,1/2+y,z
x,1/2-y,1/2+z
loop_
_atom_site_type_symbol
_atom_site_label
_atom_site_fract_x
_atom_site_fract_y
_atom_site_fract_z
Si Si1 0.509233 0.359573 0.288822
Si Si2 0.817794 0.062485 0.630917
Si Si3 0.864366 0.220146 0.543404
Si Si4 0.267544 0.142949 0.359874
Si Si5 0.895141 0.687599 0.666439
O O1 0.500000 0.250000 0.313565
O O2 0.383261 0.416565 0.307127
O O3 0.626008 0.408937 0.321358
O O4 0.533508 0.359230 0.220936
O O5 0.887388 0.120036 0.579699
O O6 0.673423 0.102004 0.631648
O O7 0.823398 0.946083 0.620841
O O8 0.750000 0.201022 0.500000
O O9 0.821004 0.309117 0.583029
O O10 0.000000 0.250000 0.515704
O O11 0.205439 0.226458 0.319149
O O12 0.000000 0.750000 0.630097
#
# Coordination Sequence:
#
# PCOD8296653 Si02
#       5
#    16  16  16  16  16
#     4  11  20  44  64  85 141 184 220 270 331 395
#     4  11  24  44  67 100 137 180 228 284 341 408
#     4  11  24  49  75  99 136 181 228 296 367 420
#     4  11  23  43  68  98 132 180 230 276 342 408
#     4  10  24  38  62  97 137 181 225 274 321 401
#
# _framework density 23.471917999999999
#
# number of rings (size 3 to 8) (size 9 to 14) (size 15 to 20)
#    0.000    1.200    6.000    0.600    5.600    4.800 
#    3.600    2.000    0.000    0.000    0.000    0.000 
#    0.000    0.000    0.000    0.000    0.000    0.000 
#
# Total GULP energy -495560.085584 kJ/mol
# GULP energy per Si atom -12389.002140 kJ/mol
# Density = 2.341849 g / cm^3
# Si number density = 23.471918 Si / 1000 Ang^3
#
#
#
# Elastic Constant Matrix: (Units=GPa)
#
#
# Indices 1 2 3 4 5 6 
#
# 1 83.6180 -7.0096 20.9993 0.0000 0.0000 0.0000
# 2 -7.0096 99.4252 11.8815 0.0000 0.0000 0.0000
# 3 20.9993 11.8815 60.1862 0.0000 0.0000 0.0000
# 4 0.0000 0.0000 0.0000 11.6910 0.0000 0.0000
# 5 0.0000 0.0000 0.0000 0.0000 43.3513 0.0000
# 6 0.0000 0.0000 0.0000 0.0000 0.0000 25.2341
#
#
#
# Elastic Compliance Matrix: (Units=1/GPa)
#
#
# Indices 1 2 3 4 5 6 
#
# 1 0.013332 0.001532 -0.004954 0.000000 0.000000 0.000000
# 2 0.001532 0.010477 -0.002603 0.000000 0.000000 0.000000
# 3 -0.004954 -0.002603 0.018857 0.000000 0.000000 0.000000
# 4 0.000000 0.000000 0.000000 0.085536 0.000000 0.000000
# 5 0.000000 0.000000 0.000000 0.000000 0.023067 0.000000
# 6 0.000000 0.000000 0.000000 0.000000 0.000000 0.039629
#
#
# Mechanical properties :
#
#
# Convention : Reuss Voigt Hill
#
# Bulk Modulus (GPa) = 32.66227 32.77465 32.71846
# Shear Modulus (GPa) = 23.45733 30.54582 27.00158
#
# Velocity S-wave (km/s) = 3.16472 3.61137 3.39540
# Velocity P-wave (km/s) = 5.22491 5.60206 5.41676
#
# Compressibility (1/GPa) = 0.03061636
#
# Stress axis : x y z
#
# Youngs Moduli (GPa) = 75.00943 95.44863 53.02970
#
# Poissons Ratio (x) = -0.14622 0.26270
# Poissons Ratio (y) = -0.11491 0.13802
# Poissons Ratio (z) = 0.37159 0.24843
#
# Static dielectric constant tensor:
#      x y z
#    x 4.740360 0.000000 0.000000 
#    y 0.000000 4.132330 0.000000 
#    z 0.000000 0.000000 3.710230 
# 
# 
# High freq. dielectric constant tensor:
#      x y z
#    x 1.948580 0.000000 0.000000 
#    y 0.000000 1.926700 0.000000 
#    z 0.000000 0.000000 1.875300 
# 
# From -- ./inp_files/10829.got.cif
#   From: 2010.03.12/outbox.cif.g09.slc.cpg/sg73_6_cif.got.tgz:10829.got - 2010.04.16 15:25:48.
