data_PCOD8296702
_publ_section_title
;
Structure prediction by ZEFSAII (Michael W. Deem and Ramdas Pophale) SiO2 
 PCOD8296702
Probable space group: I B C A 
;
_chemical_formula_sum "Si O2"
_cell_formula_units_Z 88
_cell_length_a 16.037933
_cell_length_b 18.366423
_cell_length_c 13.649473
_cell_angle_alpha 90.000000
_cell_angle_beta 90.000000
_cell_angle_gamma 90.000000
_cell_volume 4020.581417
_symmetry_space_group_name_H-M "I B C A "
_symmetry_group_IT_number 73
_symmetry_cell_setting 'orthorhombic'
loop_
_space_group_symop_operation_xyz
x,y,z
-x,1/2-y,z
x,-y,1/2-z
1/2-x,y,-z
-x,-y,-z
x,1/2+y,-z
-x,y,1/2+z
1/2+x,-y,z
1/2+x,1/2+y,1/2+z
1/2-x,-y,1/2+z
1/2+x,1/2-y,-z
-x,1/2+y,1/2-z
1/2-x,1/2-y,1/2-z
1/2+x,y,1/2-z
1/2-x,1/2+y,z
x,1/2-y,1/2+z
loop_
_atom_site_type_symbol
_atom_site_label
_atom_site_fract_x
_atom_site_fract_y
_atom_site_fract_z
Si Si1 0.518760 0.424459 0.262933
Si Si2 0.623269 0.660762 0.092312
Si Si3 0.250000 0.559332 0.500000
Si Si4 0.508439 0.667546 0.425819
Si Si5 0.332248 0.817889 0.555981
Si Si6 0.342248 0.462242 0.347115
O O1 0.570659 0.500000 0.250000
O O2 0.575011 0.364063 0.311989
O O3 0.492176 0.390034 0.160000
O O4 0.441120 0.450614 0.330712
O O5 0.704913 0.611502 0.078456
O O6 0.640166 0.745649 0.113653
O O7 0.566919 0.651025 0.997687
O O8 0.317706 0.509917 0.442370
O O9 0.500000 0.750000 0.386122
O O10 0.596624 0.654615 0.480390
O O11 0.250000 0.794421 0.500000
O O12 0.308067 0.880605 0.634020
O O13 0.302878 0.500000 0.250000
#
# Coordination Sequence:
#
# PCOD8296702 Si02
#       6
#    16  16   8  16  16  16
#     4  11  25  42  71 102 134 185 239 286 351 423
#     4  11  24  45  70  98 143 182 237 289 352 419
#     4  12  26  44  66 102 148 186 228 296 352 406
#     4  10  24  43  70 100 134 185 237 288 351 419
#     4  11  23  46  72 103 140 186 234 293 353 415
#     4  11  25  44  70 102 140 186 234 287 347 415
#
# _framework density 21.887381999999999
#
# number of rings (size 3 to 8) (size 9 to 14) (size 15 to 20)
#    0.000    1.091    3.636    2.182    5.091    3.636 
#    0.000    1.818    0.000    0.000    0.000    0.000 
#    0.000    0.000    0.000    0.000    0.000    0.000 
#
# Total GULP energy -545466.841880 kJ/mol
# GULP energy per Si atom -12396.973679 kJ/mol
# Density = 2.183757 g / cm^3
# Si number density = 21.887382 Si / 1000 Ang^3
#
#
#
# Elastic Constant Matrix: (Units=GPa)
#
#
# Indices 1 2 3 4 5 6 
#
# 1 76.4575 33.4027 14.1261 0.0000 0.0000 0.0000
# 2 33.4027 160.0733 66.0739 0.0000 0.0000 0.0000
# 3 14.1261 66.0739 80.1358 0.0000 0.0000 0.0000
# 4 0.0000 0.0000 0.0000 23.2641 0.0000 0.0000
# 5 0.0000 0.0000 0.0000 0.0000 20.7675 0.0000
# 6 0.0000 0.0000 0.0000 0.0000 0.0000 30.5512
#
#
#
# Elastic Compliance Matrix: (Units=1/GPa)
#
#
# Indices 1 2 3 4 5 6 
#
# 1 0.014392 -0.002965 -0.000092 0.000000 0.000000 0.000000
# 2 -0.002965 0.010081 -0.007789 0.000000 0.000000 0.000000
# 3 -0.000092 -0.007789 0.018918 0.000000 0.000000 0.000000
# 4 0.000000 0.000000 0.000000 0.042985 0.000000 0.000000
# 5 0.000000 0.000000 0.000000 0.000000 0.048152 0.000000
# 6 0.000000 0.000000 0.000000 0.000000 0.000000 0.032732
#
#
# Mechanical properties :
#
#
# Convention : Reuss Voigt Hill
#
# Bulk Modulus (GPa) = 46.08929 60.43023 53.25976
# Shear Modulus (GPa) = 25.48615 28.45414 26.97015
#
# Velocity S-wave (km/s) = 3.41607 3.60950 3.51411
# Velocity P-wave (km/s) = 6.05496 6.71125 6.39153
#
# Compressibility (1/GPa) = 0.02169702
#
# Stress axis : x y z
#
# Youngs Moduli (GPa) = 69.48514 99.19512 52.86069
#
# Poissons Ratio (x) = 0.29412 0.00487
# Poissons Ratio (y) = 0.20603 0.41176
# Poissons Ratio (z) = 0.00640 0.77268
#
# Static dielectric constant tensor:
#      x y z
#    x 3.863910 0.000000 0.000000 
#    y 0.000000 4.395460 0.000000 
#    z 0.000000 0.000000 3.816210 
# 
# 
# High freq. dielectric constant tensor:
#      x y z
#    x 1.851910 0.000000 0.000000 
#    y 0.000000 1.889390 0.000000 
#    z 0.000000 0.000000 1.844690 
# 
# From -- ./inp_files/17941.got.cif
#   From: 2010.03.12/outbox.cif.g09.slc.cpg/sg73_9_cif.got.tgz:17941.got - 2010.04.16 15:25:48.
