data_PCOD8296079
_publ_section_title
;
Structure prediction by ZEFSAII (Michael W. Deem and Ramdas Pophale) SiO2 
 PCOD8296079
Probable space group: I B C A 
;
_chemical_formula_sum "Si O2"
_cell_formula_units_Z 88
_cell_length_a 12.669641
_cell_length_b 9.727748
_cell_length_c 29.578426
_cell_angle_alpha 90.000000
_cell_angle_beta 90.000000
_cell_angle_gamma 90.000000
_cell_volume 3645.454485
_symmetry_space_group_name_H-M "I B C A "
_symmetry_group_IT_number 73
_symmetry_cell_setting 'orthorhombic'
loop_
_space_group_symop_operation_xyz
x,y,z
-x,1/2-y,z
x,-y,1/2-z
1/2-x,y,-z
-x,-y,-z
x,1/2+y,-z
-x,y,1/2+z
1/2+x,-y,z
1/2+x,1/2+y,1/2+z
1/2-x,-y,1/2+z
1/2+x,1/2-y,-z
-x,1/2+y,1/2-z
1/2-x,1/2-y,1/2-z
1/2+x,y,1/2-z
1/2-x,1/2+y,z
x,1/2-y,1/2+z
loop_
_atom_site_type_symbol
_atom_site_label
_atom_site_fract_x
_atom_site_fract_y
_atom_site_fract_z
Si Si1 0.638457 0.657449 0.050940
Si Si2 0.000000 0.250000 0.126402
Si Si3 0.342063 0.063986 0.178408
Si Si4 0.692780 0.618645 0.425363
Si Si5 0.000000 0.250000 0.279449
Si Si6 0.000000 0.750000 0.527523
Si Si7 0.346464 0.739105 0.201250
O O1 0.557583 0.640377 0.093499
O O2 0.715731 0.527651 0.051200
O O3 0.711141 0.790532 0.056675
O O4 0.573160 0.656279 0.004617
O O5 0.086457 0.176981 0.158802
O O6 0.306758 0.099817 0.128000
O O7 0.459472 0.122210 0.189570
O O8 0.262369 0.157780 0.207933
O O9 0.334044 0.903700 0.191515
O O10 0.576130 0.664002 0.440281
O O11 0.094391 0.201267 0.247265
#
# Coordination Sequence:
#
# PCOD8296079 Si02
#       7
#    16   8  16  16   8   8  16
#     4  11  25  46  72 101 144 187 238 295 356 425
#     4  10  20  44  66 102 132 182 226 286 348 414
#     4  12  24  47  72 109 139 189 241 296 359 422
#     4  12  24  47  71 108 138 190 239 295 357 423
#     4  11  27  43  69 104 148 184 231 289 355 425
#     4  11  27  43  71 104 150 186 239 295 353 429
#     4  11  25  46  73 103 146 187 237 294 358 425
#
# _framework density 24.139652000000002
#
# number of rings (size 3 to 8) (size 9 to 14) (size 15 to 20)
#    0.000    0.727    3.636    2.727    0.000   10.182 
#    6.545    0.000    0.000    0.000    0.000    0.000 
#    0.000    0.000    0.000    0.000    0.000    0.000 
#
# Total GULP energy -545355.287834 kJ/mol
# GULP energy per Si atom -12394.438360 kJ/mol
# Density = 2.408471 g / cm^3
# Si number density = 24.139652 Si / 1000 Ang^3
#
#
#
# Elastic Constant Matrix: (Units=GPa)
#
#
# Indices 1 2 3 4 5 6 
#
# 1 122.0120 61.6109 28.1000 0.0000 0.0000 0.0000
# 2 61.6109 129.9947 5.6099 0.0000 0.0000 0.0000
# 3 28.1000 5.6099 39.8750 0.0000 0.0000 0.0000
# 4 0.0000 0.0000 0.0000 41.0305 0.0000 0.0000
# 5 0.0000 0.0000 0.0000 0.0000 53.4379 0.0000
# 6 0.0000 0.0000 0.0000 0.0000 0.0000 36.5771
#
#
#
# Elastic Compliance Matrix: (Units=1/GPa)
#
#
# Indices 1 2 3 4 5 6 
#
# 1 0.013075 -0.005835 -0.008393 0.000000 0.000000 0.000000
# 2 -0.005835 0.010343 0.002657 0.000000 0.000000 0.000000
# 3 -0.008393 0.002657 0.030619 0.000000 0.000000 0.000000
# 4 0.000000 0.000000 0.000000 0.024372 0.000000 0.000000
# 5 0.000000 0.000000 0.000000 0.000000 0.018713 0.000000
# 6 0.000000 0.000000 0.000000 0.000000 0.000000 0.027339
#
#
# Mechanical properties :
#
#
# Convention : Reuss Voigt Hill
#
# Bulk Modulus (GPa) = 32.36760 53.61368 42.99064
# Shear Modulus (GPa) = 31.66477 39.31316 35.48896
#
# Velocity S-wave (km/s) = 3.62571 4.03993 3.83842
# Velocity P-wave (km/s) = 5.56465 6.63472 6.12310
#
# Compressibility (1/GPa) = 0.03089509
#
# Stress axis : x y z
#
# Youngs Moduli (GPa) = 76.48039 96.68023 32.65907
#
# Poissons Ratio (x) = 0.56411 0.27412
# Poissons Ratio (y) = 0.44625 -0.08676
# Poissons Ratio (z) = 0.64192 -0.25684
#
# Static dielectric constant tensor:
#      x y z
#    x 4.580690 0.000000 0.000000 
#    y 0.000000 4.308770 0.000000 
#    z 0.000000 0.000000 4.631710 
# 
# 
# High freq. dielectric constant tensor:
#      x y z
#    x 1.971160 0.000000 0.000000 
#    y 0.000000 1.937300 0.000000 
#    z 0.000000 0.000000 1.983470 
# 
# From -- ./inp_files/33935.got.cif
#   From: 2010.03.12/outbox.cif.g09.slc.cpg/sg73_17_cif.got.tgz:33935.got - 2010.04.16 15:25:48.
