data_PCOD8296574
_publ_section_title
;
Structure prediction by ZEFSAII (Michael W. Deem and Ramdas Pophale) SiO2 
 PCOD8296574
Probable space group: I B C A 
;
_chemical_formula_sum "Si O2"
_cell_formula_units_Z 88
_cell_length_a 20.338658
_cell_length_b 9.034912
_cell_length_c 22.732685
_cell_angle_alpha 90.000000
_cell_angle_beta 90.000000
_cell_angle_gamma 90.000000
_cell_volume 4177.312394
_symmetry_space_group_name_H-M "I B C A "
_symmetry_group_IT_number 73
_symmetry_cell_setting 'orthorhombic'
loop_
_space_group_symop_operation_xyz
x,y,z
-x,1/2-y,z
x,-y,1/2-z
1/2-x,y,-z
-x,-y,-z
x,1/2+y,-z
-x,y,1/2+z
1/2+x,-y,z
1/2+x,1/2+y,1/2+z
1/2-x,-y,1/2+z
1/2+x,1/2-y,-z
-x,1/2+y,1/2-z
1/2-x,1/2-y,1/2-z
1/2+x,y,1/2-z
1/2-x,1/2+y,z
x,1/2-y,1/2+z
loop_
_atom_site_type_symbol
_atom_site_label
_atom_site_fract_x
_atom_site_fract_y
_atom_site_fract_z
Si Si1 0.667149 0.203543 0.145527
Si Si2 0.000000 0.750000 0.828428
Si Si3 0.085019 0.853753 0.430633
Si Si4 0.565665 0.824732 0.456712
Si Si5 0.622093 0.166330 0.759742
Si Si6 0.800232 0.867076 0.850791
O O1 0.627669 0.212013 0.084445
O O2 0.617703 0.252889 0.196992
O O3 0.725149 0.322648 0.139122
O O4 0.694807 0.041849 0.163215
O O5 0.043044 0.645234 0.870325
O O6 0.049277 0.844591 0.787757
O O7 0.073534 0.721144 0.475367
O O8 0.161144 0.843938 0.412104
O O9 0.061563 0.999949 0.463691
O O10 0.500000 0.750000 0.429844
O O11 0.671524 0.262083 0.799590
O O12 0.649459 0.000000 0.750000
#
# Coordination Sequence:
#
# PCOD8296574 Si02
#       6
#    16   8  16  16  16  16
#     4  11  24  41  66  95 129 169 211 263 314 381
#     4  10  24  40  62  92 130 166 210 262 312 382
#     4  10  23  42  64  91 129 166 208 261 310 376
#     4  11  24  39  67  94 128 164 209 263 314 379
#     4  11  24  39  66  92 128 170 211 265 317 379
#     4  10  23  44  63  93 130 168 214 257 317 376
#
# _framework density 21.066177
#
# number of rings (size 3 to 8) (size 9 to 14) (size 15 to 20)
#    0.000    1.455    0.909    2.727    3.818    6.545 
#    0.000    3.636    0.000    0.000    0.000    0.000 
#    0.000    0.000    0.000    0.000    0.000    0.000 
#
# Total GULP energy -545504.518801 kJ/mol
# GULP energy per Si atom -12397.829973 kJ/mol
# Density = 2.101823 g / cm^3
# Si number density = 21.066177 Si / 1000 Ang^3
#
#
#
# Elastic Constant Matrix: (Units=GPa)
#
#
# Indices 1 2 3 4 5 6 
#
# 1 102.2078 32.6968 47.1026 0.0000 0.0000 0.0000
# 2 32.6968 130.8871 44.4008 0.0000 0.0000 0.0000
# 3 47.1026 44.4008 89.9790 0.0000 0.0000 0.0000
# 4 0.0000 0.0000 0.0000 31.4805 0.0000 0.0000
# 5 0.0000 0.0000 0.0000 0.0000 29.4612 0.0000
# 6 0.0000 0.0000 0.0000 0.0000 0.0000 26.7832
#
#
#
# Elastic Compliance Matrix: (Units=1/GPa)
#
#
# Indices 1 2 3 4 5 6 
#
# 1 0.013033 -0.001131 -0.006264 0.000000 0.000000 0.000000
# 2 -0.001131 0.009274 -0.003985 0.000000 0.000000 0.000000
# 3 -0.006264 -0.003985 0.016359 0.000000 0.000000 0.000000
# 4 0.000000 0.000000 0.000000 0.031766 0.000000 0.000000
# 5 0.000000 0.000000 0.000000 0.000000 0.033943 0.000000
# 6 0.000000 0.000000 0.000000 0.000000 0.000000 0.037337
#
#
# Mechanical properties :
#
#
# Convention : Reuss Voigt Hill
#
# Bulk Modulus (GPa) = 62.86594 63.49714 63.18154
# Shear Modulus (GPa) = 29.45100 30.80323 30.12712
#
# Velocity S-wave (km/s) = 3.74307 3.82804 3.78579
# Velocity P-wave (km/s) = 6.97049 7.05306 7.01190
#
# Compressibility (1/GPa) = 0.01590687
#
# Stress axis : x y z
#
# Youngs Moduli (GPa) = 76.73030 107.82480 61.12728
#
# Poissons Ratio (x) = 0.12190 0.38293
# Poissons Ratio (y) = 0.08675 0.24357
# Poissons Ratio (z) = 0.48068 0.42964
#
# Static dielectric constant tensor:
#      x y z
#    x 3.941550 0.000000 0.000000 
#    y 0.000000 3.822700 0.000000 
#    z 0.000000 0.000000 3.764270 
# 
# 
# High freq. dielectric constant tensor:
#      x y z
#    x 1.830100 0.000000 0.000000 
#    y 0.000000 1.830570 0.000000 
#    z 0.000000 0.000000 1.828830 
# 
# From -- ./inp_files/6283.got.cif
#   From: 2010.03.12/outbox.cif.g09.slc.cpg/sg73_4_cif.got.tgz:6283.got - 2010.04.16 15:25:48.
