data_PCOD8296011
_publ_section_title
;
Structure prediction by ZEFSAII (Michael W. Deem and Ramdas Pophale) SiO2 
 PCOD8296011
Probable space group: I B C A 
;
_chemical_formula_sum "Si O2"
_cell_formula_units_Z 112
_cell_length_a 27.839406
_cell_length_b 13.423016
_cell_length_c 14.181045
_cell_angle_alpha 90.000000
_cell_angle_beta 90.000000
_cell_angle_gamma 90.000000
_cell_volume 5299.297578
_symmetry_space_group_name_H-M "I B C A "
_symmetry_group_IT_number 73
_symmetry_cell_setting 'orthorhombic'
loop_
_space_group_symop_operation_xyz
x,y,z
-x,1/2-y,z
x,-y,1/2-z
1/2-x,y,-z
-x,-y,-z
x,1/2+y,-z
-x,y,1/2+z
1/2+x,-y,z
1/2+x,1/2+y,1/2+z
1/2-x,-y,1/2+z
1/2+x,1/2-y,-z
-x,1/2+y,1/2-z
1/2-x,1/2-y,1/2-z
1/2+x,y,1/2-z
1/2-x,1/2+y,z
x,1/2-y,1/2+z
loop_
_atom_site_type_symbol
_atom_site_label
_atom_site_fract_x
_atom_site_fract_y
_atom_site_fract_z
Si Si1 0.201774 0.891794 0.227279
Si Si2 0.708729 0.666435 0.570787
Si Si3 0.535989 0.159387 0.752637
Si Si4 0.202010 0.878566 0.874403
Si Si5 0.141460 0.054292 0.955682
Si Si6 0.964270 0.503477 0.588268
Si Si7 0.141633 0.295574 0.290710
O O1 0.226483 0.847115 0.321877
O O2 0.242092 0.901559 0.146823
O O3 0.159386 0.817809 0.194895
O O4 0.179462 0.000000 0.250000
O O5 0.750000 0.630817 0.500000
O O6 0.697331 0.783418 0.556675
O O7 0.660560 0.599467 0.554881
O O8 0.500000 0.250000 0.758102
O O9 0.526310 0.097570 0.656562
O O10 0.588707 0.206360 0.752821
O O11 0.530397 0.094169 0.847275
O O12 0.174813 0.860801 0.776869
O O13 0.179456 0.971957 0.925731
O O14 0.088465 0.008113 0.959044
O O15 0.142569 0.150674 0.889985
O O16 0.000000 0.500000 0.500000
#
# Coordination Sequence:
#
# PCOD8296011 Si02
#       7
#    16  16  16  16  16  16  16
#     4  11  23  39  60  89 127 172 212 259 320 377
#     4  11  23  37  55  92 129 161 213 262 311 378
#     4  10  22  44  70  99 130 177 219 277 349 409
#     4  11  21  38  63  87 124 170 211 257 320 382
#     4  11  22  41  67  91 124 168 215 267 325 385
#     4  10  23  45  70 100 132 170 227 278 344 411
#     4  10  20  40  65  90 120 168 216 256 314 404
#
# _framework density 21.134875999999998
#
# number of rings (size 3 to 8) (size 9 to 14) (size 15 to 20)
#    0.000    1.429    1.429    5.571    0.000    5.714 
#   10.286    0.000    0.000    0.000    0.000    0.000 
#    0.000    0.000    0.000    0.000    0.000    0.000 
#
# Total GULP energy -694385.786805 kJ/mol
# GULP energy per Si atom -12399.746193 kJ/mol
# Density = 2.108677 g / cm^3
# Si number density = 21.134876 Si / 1000 Ang^3
#
#
#
# Elastic Constant Matrix: (Units=GPa)
#
#
# Indices 1 2 3 4 5 6 
#
# 1 133.1870 72.8639 57.5636 0.0000 0.0000 0.0000
# 2 72.8639 150.1151 31.5162 0.0000 0.0000 0.0000
# 3 57.5636 31.5162 81.9464 0.0000 0.0000 0.0000
# 4 0.0000 0.0000 0.0000 28.3710 0.0000 0.0000
# 5 0.0000 0.0000 0.0000 0.0000 24.9219 0.0000
# 6 0.0000 0.0000 0.0000 0.0000 0.0000 39.4668
#
#
#
# Elastic Compliance Matrix: (Units=1/GPa)
#
#
# Indices 1 2 3 4 5 6 
#
# 1 0.013494 -0.004960 -0.007571 0.000000 0.000000 0.000000
# 2 -0.004960 0.009070 -0.000004 0.000000 0.000000 0.000000
# 3 -0.007571 -0.000004 0.017523 0.000000 0.000000 0.000000
# 4 0.000000 0.000000 0.000000 0.035247 0.000000 0.000000
# 5 0.000000 0.000000 0.000000 0.000000 0.040125 0.000000
# 6 0.000000 0.000000 0.000000 0.000000 0.000000 0.025338
#
#
# Mechanical properties :
#
#
# Convention : Reuss Voigt Hill
#
# Bulk Modulus (GPa) = 66.59455 76.57066 71.58261
# Shear Modulus (GPa) = 29.26119 32.10557 30.68338
#
# Velocity S-wave (km/s) = 3.72492 3.90177 3.81437
# Velocity P-wave (km/s) = 7.07656 7.52373 7.30357
#
# Compressibility (1/GPa) = 0.01501624
#
# Stress axis : x y z
#
# Youngs Moduli (GPa) = 74.10515 110.25270 57.06728
#
# Poissons Ratio (x) = 0.54690 0.43208
# Poissons Ratio (y) = 0.36759 0.00022
# Poissons Ratio (z) = 0.56108 0.00043
#
# Static dielectric constant tensor:
#      x y z
#    x 3.897330 0.000000 0.000000 
#    y 0.000000 4.011410 0.000000 
#    z 0.000000 0.000000 3.771510 
# 
# 
# High freq. dielectric constant tensor:
#      x y z
#    x 1.817350 0.000000 0.000000 
#    y 0.000000 1.843700 0.000000 
#    z 0.000000 0.000000 1.825210 
# 
# From -- ./inp_files/19839.got.cif
#   From: 2010.03.12/outbox.cif.g09.slc.cpg/sg73_10_cif.got.tgz:19839.got - 2010.04.16 15:25:48.
