data_PCOD8296769
_publ_section_title
;
Structure prediction by ZEFSAII (Michael W. Deem and Ramdas Pophale) SiO2 
 PCOD8296769
Probable space group: I B C A 
;
_chemical_formula_sum "Si O2"
_cell_formula_units_Z 96
_cell_length_a 19.762281
_cell_length_b 9.017887
_cell_length_c 23.219052
_cell_angle_alpha 90.000000
_cell_angle_beta 90.000000
_cell_angle_gamma 90.000000
_cell_volume 4137.960526
_symmetry_space_group_name_H-M "I B C A "
_symmetry_group_IT_number 73
_symmetry_cell_setting 'orthorhombic'
loop_
_space_group_symop_operation_xyz
x,y,z
-x,1/2-y,z
x,-y,1/2-z
1/2-x,y,-z
-x,-y,-z
x,1/2+y,-z
-x,y,1/2+z
1/2+x,-y,z
1/2+x,1/2+y,1/2+z
1/2-x,-y,1/2+z
1/2+x,1/2-y,-z
-x,1/2+y,1/2-z
1/2-x,1/2-y,1/2-z
1/2+x,y,1/2-z
1/2-x,1/2+y,z
x,1/2-y,1/2+z
loop_
_atom_site_type_symbol
_atom_site_label
_atom_site_fract_x
_atom_site_fract_y
_atom_site_fract_z
Si Si1 0.428770 0.666581 0.464439
Si Si2 0.338113 0.000000 0.750000
Si Si3 0.109648 0.042669 0.687775
Si Si4 0.791004 0.705510 0.348598
Si Si5 0.500000 0.250000 0.848809
Si Si6 0.135424 0.225327 0.345431
Si Si7 0.607544 0.137699 0.437932
O O1 0.500000 0.750000 0.463539
O O2 0.394731 0.654313 0.402074
O O3 0.426879 0.491155 0.477045
O O4 0.382719 0.732140 0.515383
O O5 0.293175 0.100026 0.792511
O O6 0.380714 0.117376 0.710031
O O7 0.165461 0.144393 0.657314
O O8 0.037406 0.127351 0.690670
O O9 0.137377 0.000000 0.750000
O O10 0.099656 0.885665 0.656464
O O11 0.714872 0.755828 0.355671
O O12 0.819941 0.617157 0.405002
O O13 0.445115 0.171568 0.887782
#
# Coordination Sequence:
#
# PCOD8296769 Si02
#       7
#    16   8  16  16   8  16  16
#     4  12  26  46  74 101 140 192 242 292 367 431
#     4  12  22  46  70 104 152 184 240 284 366 438
#     4  11  24  44  69 103 142 192 236 295 363 429
#     4  11  25  44  72 106 150 183 240 298 365 428
#     4  10  24  48  70  98 144 184 246 302 356 430
#     4  12  26  43  72 108 142 195 238 301 362 438
#     4  11  25  47  71 103 138 187 239 306 356 434
#
# _framework density 23.199833999999999
#
# number of rings (size 3 to 8) (size 9 to 14) (size 15 to 20)
#    0.000    0.667    4.167    3.000    7.000    0.667 
#   10.500    1.667    0.000    0.000    0.000    0.000 
#    0.000    0.000    0.000    0.000    0.000    0.000 
#
# Total GULP energy -594809.634841 kJ/mol
# GULP energy per Si atom -12391.867393 kJ/mol
# Density = 2.314703 g / cm^3
# Si number density = 23.199834 Si / 1000 Ang^3
#
#
#
# Elastic Constant Matrix: (Units=GPa)
#
#
# Indices 1 2 3 4 5 6 
#
# 1 80.9731 36.6890 35.6384 0.0000 0.0000 0.0000
# 2 36.6890 121.6743 19.6865 0.0000 0.0000 0.0000
# 3 35.6384 19.6865 102.8462 0.0000 0.0000 0.0000
# 4 0.0000 0.0000 0.0000 10.8468 0.0000 0.0000
# 5 0.0000 0.0000 0.0000 0.0000 -49.5808 0.0000
# 6 0.0000 0.0000 0.0000 0.0000 0.0000 20.2530
#
#
#
# Elastic Compliance Matrix: (Units=1/GPa)
#
#
# Indices 1 2 3 4 5 6 
#
# 1 0.016378 -0.004149 -0.004881 0.000000 0.000000 0.000000
# 2 -0.004149 0.009532 -0.000387 0.000000 0.000000 0.000000
# 3 -0.004881 -0.000387 0.011489 0.000000 0.000000 0.000000
# 4 0.000000 0.000000 0.000000 0.092193 0.000000 0.000000
# 5 0.000000 0.000000 0.000000 0.000000 -0.020169 0.000000
# 6 0.000000 0.000000 0.000000 0.000000 0.000000 0.049375
#
#
# Mechanical properties :
#
#
# Convention : Reuss Voigt Hill
#
# Bulk Modulus (GPa) = 53.86444 54.39125 54.12784
# Shear Modulus (GPa) = 27.20044 10.53579 18.86812
#
# Velocity S-wave (km/s) = 3.42781 2.13335 2.85491
# Velocity P-wave (km/s) = 6.23975 5.43726 5.85228
#
# Compressibility (1/GPa) = 0.01856512
#
# Stress axis : x y z
#
# Youngs Moduli (GPa) = 61.05787 104.90683 87.04163
#
# Poissons Ratio (x) = 0.43523 0.42486
# Poissons Ratio (y) = 0.25331 0.03369
# Poissons Ratio (z) = 0.29803 0.04060
#
# Static dielectric constant tensor:
#      x y z
#    x 6.065620 0.000000 0.000000 
#    y 0.000000 4.755450 0.000000 
#    z 0.000000 0.000000 4.328340 
# 
# 
# High freq. dielectric constant tensor:
#      x y z
#    x 1.893250 0.000000 0.000000 
#    y 0.000000 1.947440 0.000000 
#    z 0.000000 0.000000 1.918110 
# 
# From -- ./inp_files/30319.got.cif
#   From: 2010.03.12/outbox.cif.g09.slc.cpg/sg73_16_cif.got.tgz:30319.got - 2010.04.16 15:25:48.
