data_PCOD8296836
_publ_section_title
;
Structure prediction by ZEFSAII (Michael W. Deem and Ramdas Pophale) SiO2 
 PCOD8296836
Probable space group: I B C A 
;
_chemical_formula_sum "Si O2"
_cell_formula_units_Z 104
_cell_length_a 20.375320
_cell_length_b 14.168884
_cell_length_c 18.051829
_cell_angle_alpha 90.000000
_cell_angle_beta 90.000000
_cell_angle_gamma 90.000000
_cell_volume 5211.482621
_symmetry_space_group_name_H-M "I B C A "
_symmetry_group_IT_number 73
_symmetry_cell_setting 'orthorhombic'
loop_
_space_group_symop_operation_xyz
x,y,z
-x,1/2-y,z
x,-y,1/2-z
1/2-x,y,-z
-x,-y,-z
x,1/2+y,-z
-x,y,1/2+z
1/2+x,-y,z
1/2+x,1/2+y,1/2+z
1/2-x,-y,1/2+z
1/2+x,1/2-y,-z
-x,1/2+y,1/2-z
1/2-x,1/2-y,1/2-z
1/2+x,y,1/2-z
1/2-x,1/2+y,z
x,1/2-y,1/2+z
loop_
_atom_site_type_symbol
_atom_site_label
_atom_site_fract_x
_atom_site_fract_y
_atom_site_fract_z
Si Si1 0.740741 0.336114 0.354648
Si Si2 0.500000 0.750000 0.677371
Si Si3 0.718074 0.134633 0.294946
Si Si4 0.078651 0.390666 0.767044
Si Si5 0.881173 0.721681 0.932261
Si Si6 0.311357 0.577206 0.054897
Si Si7 0.627368 0.889188 0.427499
O O1 0.750659 0.228649 0.327570
O O2 0.743724 0.400284 0.279155
O O3 0.672503 0.349570 0.397094
O O4 0.798379 0.357100 0.411825
O O5 0.516441 0.662495 0.731562
O O6 0.559482 0.776018 0.624202
O O7 0.642977 0.154885 0.270345
O O8 0.717806 0.058314 0.361673
O O9 0.073116 0.500000 0.750000
O O10 0.080815 0.379135 0.855978
O O11 0.848832 0.823350 0.947833
O O12 0.904775 0.676740 0.009661
O O13 0.365968 0.496474 0.041409
O O14 0.250000 0.573763 0.000000
#
# Coordination Sequence:
#
# PCOD8296836 Si02
#       7
#    16   8  16  16  16  16  16
#     4   9  17  32  59  90 120 151 196 256 326 380
#     4  12  24  42  66  80 126 182 218 262 314 360
#     4   9  17  33  59  89 117 160 198 258 316 388
#     4  11  21  43  67  88 119 172 223 259 315 385
#     4  11  22  40  58  92 128 163 209 266 314 380
#     4  11  20  36  62  97 127 163 199 258 339 390
#     4  11  22  37  66  94 123 159 206 266 331 391
#
# _framework density 19.955933000000002
#
# number of rings (size 3 to 8) (size 9 to 14) (size 15 to 20)
#    0.000    1.538    4.615    3.231    0.000    0.615 
#    0.000    4.615    3.385    0.000    0.000    0.000 
#    0.000    0.000    0.000    0.000    0.000    0.000 
#
# Total GULP energy -644525.496829 kJ/mol
# GULP energy per Si atom -12394.721093 kJ/mol
# Density = 1.991051 g / cm^3
# Si number density = 19.955933 Si / 1000 Ang^3
#
#
#
# Elastic Constant Matrix: (Units=GPa)
#
#
# Indices 1 2 3 4 5 6 
#
# 1 67.5596 32.4010 47.6308 0.0000 0.0000 0.0000
# 2 32.4010 87.6761 52.0993 0.0000 0.0000 0.0000
# 3 47.6308 52.0993 151.7340 0.0000 0.0000 0.0000
# 4 0.0000 0.0000 0.0000 33.8448 0.0000 0.0000
# 5 0.0000 0.0000 0.0000 0.0000 38.2181 0.0000
# 6 0.0000 0.0000 0.0000 0.0000 0.0000 14.5775
#
#
#
# Elastic Compliance Matrix: (Units=1/GPa)
#
#
# Indices 1 2 3 4 5 6 
#
# 1 0.020442 -0.004700 -0.004803 0.000000 0.000000 0.000000
# 2 -0.004700 0.015410 -0.003816 0.000000 0.000000 0.000000
# 3 -0.004803 -0.003816 0.009408 0.000000 0.000000 0.000000
# 4 0.000000 0.000000 0.000000 0.029547 0.000000 0.000000
# 5 0.000000 0.000000 0.000000 0.000000 0.026166 0.000000
# 6 0.000000 0.000000 0.000000 0.000000 0.000000 0.068599
#
#
# Mechanical properties :
#
#
# Convention : Reuss Voigt Hill
#
# Bulk Modulus (GPa) = 53.69897 63.47023 58.58460
# Shear Modulus (GPa) = 24.70140 28.98399 26.84270
#
# Velocity S-wave (km/s) = 3.52205 3.81517 3.67154
# Velocity P-wave (km/s) = 6.59598 7.16112 6.88435
#
# Compressibility (1/GPa) = 0.01862233
#
# Stress axis : x y z
#
# Youngs Moduli (GPa) = 48.91812 64.89276 106.28820
#
# Poissons Ratio (x) = 0.30502 0.51052
# Poissons Ratio (y) = 0.22993 0.40556
# Poissons Ratio (z) = 0.23496 0.24761
#
# Static dielectric constant tensor:
#      x y z
#    x 3.425180 0.000000 0.000000 
#    y 0.000000 3.646150 0.000000 
#    z 0.000000 0.000000 4.148860 
# 
# 
# High freq. dielectric constant tensor:
#      x y z
#    x 1.737080 0.000000 0.000000 
#    y 0.000000 1.775710 0.000000 
#    z 0.000000 0.000000 1.805100 
# 
# From -- ./inp_files/23199.got.cif
#   From: 2010.03.12/outbox.cif.g09.slc.cpg/sg73_12_cif.got.tgz:23199.got - 2010.04.16 15:25:48.
