data_PCOD8296645
_publ_section_title
;
Structure prediction by ZEFSAII (Michael W. Deem and Ramdas Pophale) SiO2 
 PCOD8296645
Probable space group: I B C A 
;
_chemical_formula_sum "Si O2"
_cell_formula_units_Z 96
_cell_length_a 18.862712
_cell_length_b 23.922497
_cell_length_c 8.582051
_cell_angle_alpha 90.000000
_cell_angle_beta 90.000000
_cell_angle_gamma 90.000000
_cell_volume 3872.591909
_symmetry_space_group_name_H-M "I B C A "
_symmetry_group_IT_number 73
_symmetry_cell_setting 'orthorhombic'
loop_
_space_group_symop_operation_xyz
x,y,z
-x,1/2-y,z
x,-y,1/2-z
1/2-x,y,-z
-x,-y,-z
x,1/2+y,-z
-x,y,1/2+z
1/2+x,-y,z
1/2+x,1/2+y,1/2+z
1/2-x,-y,1/2+z
1/2+x,1/2-y,-z
-x,1/2+y,1/2-z
1/2-x,1/2-y,1/2-z
1/2+x,y,1/2-z
1/2-x,1/2+y,z
x,1/2-y,1/2+z
loop_
_atom_site_type_symbol
_atom_site_label
_atom_site_fract_x
_atom_site_fract_y
_atom_site_fract_z
Si Si1 0.064080 0.468805 0.092148
Si Si2 0.033975 0.622052 0.805947
Si Si3 0.737124 0.657626 0.674556
Si Si4 0.181098 0.729769 0.389126
Si Si5 0.532794 0.695825 0.971332
Si Si6 0.340819 0.441084 0.195157
O O1 0.090229 0.500000 0.250000
O O2 0.037828 0.410276 0.159789
O O3 0.128783 0.453298 0.977373
O O4 0.000000 0.500000 0.000000
O O5 0.038933 0.639660 0.627215
O O6 0.100817 0.579960 0.824828
O O7 0.027986 0.679955 0.901524
O O8 0.750000 0.633759 0.500000
O O9 0.806895 0.689498 0.739088
O O10 0.674700 0.705232 0.667600
O O11 0.718523 0.607505 0.795600
O O12 0.250000 0.724268 0.500000
O O13 0.110230 0.709634 0.467886
O O14 0.500000 0.750000 0.883580
O O15 0.308276 0.500000 0.250000
#
# Coordination Sequence:
#
# PCOD8296645 Si02
#       6
#    16  16  16  16  16  16
#     4  12  21  43  69 104 146 198 249 303 391 455
#     4  12  23  40  67 103 144 193 236 301 389 442
#     4  10  24  48  78 105 140 199 257 312 383 461
#     4  10  23  48  76 107 151 201 255 309 388 471
#     4  12  26  41  66 110 154 189 247 314 375 460
#     4  12  24  44  75 105 149 190 256 316 377 469
#
# _framework density 24.7896
#
# number of rings (size 3 to 8) (size 9 to 14) (size 15 to 20)
#    0.000    0.667    5.000    2.500    0.000    8.000 
#    0.000    2.500    0.000    0.000    0.000    0.000 
#    0.000    0.000    0.000    0.000    0.000    0.000 
#
# Total GULP energy -594677.288380 kJ/mol
# GULP energy per Si atom -12389.110175 kJ/mol
# Density = 2.473318 g / cm^3
# Si number density = 24.789600 Si / 1000 Ang^3
#
#
#
# Elastic Constant Matrix: (Units=GPa)
#
#
# Indices 1 2 3 4 5 6 
#
# 1 57.4261 43.1324 25.3243 0.0000 0.0000 0.0000
# 2 43.1324 166.5688 59.9503 0.0000 0.0000 0.0000
# 3 25.3243 59.9503 99.0680 0.0000 0.0000 0.0000
# 4 0.0000 0.0000 0.0000 44.5129 0.0000 0.0000
# 5 0.0000 0.0000 0.0000 0.0000 29.6002 0.0000
# 6 0.0000 0.0000 0.0000 0.0000 0.0000 23.3296
#
#
#
# Elastic Compliance Matrix: (Units=1/GPa)
#
#
# Indices 1 2 3 4 5 6 
#
# 1 0.022214 -0.004741 -0.002809 0.000000 0.000000 0.000000
# 2 -0.004741 0.008687 -0.004045 0.000000 0.000000 0.000000
# 3 -0.002809 -0.004045 0.013260 0.000000 0.000000 0.000000
# 4 0.000000 0.000000 0.000000 0.022465 0.000000 0.000000
# 5 0.000000 0.000000 0.000000 0.000000 0.033784 0.000000
# 6 0.000000 0.000000 0.000000 0.000000 0.000000 0.042864
#
#
# Mechanical properties :
#
#
# Convention : Reuss Voigt Hill
#
# Bulk Modulus (GPa) = 47.68738 64.43076 56.05907
# Shear Modulus (GPa) = 28.82607 32.46560 30.64584
#
# Velocity S-wave (km/s) = 3.41373 3.62283 3.51983
# Velocity P-wave (km/s) = 5.90056 6.59904 6.25955
#
# Compressibility (1/GPa) = 0.02096991
#
# Stress axis : x y z
#
# Youngs Moduli (GPa) = 45.01764 115.11414 75.41471
#
# Poissons Ratio (x) = 0.54576 0.21187
# Poissons Ratio (y) = 0.21343 0.30505
# Poissons Ratio (z) = 0.12647 0.46563
#
# Static dielectric constant tensor:
#      x y z
#    x 3.985000 0.000000 0.000000 
#    y 0.000000 4.773090 0.000000 
#    z 0.000000 0.000000 4.614890 
# 
# 
# High freq. dielectric constant tensor:
#      x y z
#    x 1.948010 0.000000 0.000000 
#    y 0.000000 2.011670 0.000000 
#    z 0.000000 0.000000 1.988100 
# 
# From -- ./inp_files/7162.got.cif
#   From: 2010.03.12/outbox.cif.g09.slc.cpg/sg73_4_cif.got.tgz:7162.got - 2010.04.16 15:25:48.
