data_PCOD8296095
_publ_section_title
;
Structure prediction by ZEFSAII (Michael W. Deem and Ramdas Pophale) SiO2 
 PCOD8296095
Probable space group: I B C A 
;
_chemical_formula_sum "Si O2"
_cell_formula_units_Z 120
_cell_length_a 27.000553
_cell_length_b 22.272443
_cell_length_c 8.890964
_cell_angle_alpha 90.000000
_cell_angle_beta 90.000000
_cell_angle_gamma 90.000000
_cell_volume 5346.743707
_symmetry_space_group_name_H-M "I B C A "
_symmetry_group_IT_number 73
_symmetry_cell_setting 'orthorhombic'
loop_
_space_group_symop_operation_xyz
x,y,z
-x,1/2-y,z
x,-y,1/2-z
1/2-x,y,-z
-x,-y,-z
x,1/2+y,-z
-x,y,1/2+z
1/2+x,-y,z
1/2+x,1/2+y,1/2+z
1/2-x,-y,1/2+z
1/2+x,1/2-y,-z
-x,1/2+y,1/2-z
1/2-x,1/2-y,1/2-z
1/2+x,y,1/2-z
1/2-x,1/2+y,z
x,1/2-y,1/2+z
loop_
_atom_site_type_symbol
_atom_site_label
_atom_site_fract_x
_atom_site_fract_y
_atom_site_fract_z
Si Si1 0.750000 0.377207 0.000000
Si Si2 0.910721 0.825518 0.836947
Si Si3 0.175380 0.320172 0.076258
Si Si4 0.173148 0.570497 0.213054
Si Si5 0.805568 0.304463 0.234318
Si Si6 0.502892 0.876100 0.033824
Si Si7 0.060168 0.430718 0.266159
Si Si8 0.428931 0.719160 0.475540
O O1 0.795472 0.417811 0.939348
O O2 0.738222 0.335513 0.856721
O O3 0.853613 0.843243 0.819217
O O4 0.924231 0.780953 0.702993
O O5 0.949571 0.880360 0.851468
O O6 0.921530 0.788977 0.989574
O O7 0.189546 0.384810 0.149929
O O8 0.191272 0.265941 0.189121
O O9 0.203027 0.311595 0.913959
O O10 0.116252 0.318327 0.051208
O O11 0.180457 0.500000 0.250000
O O12 0.115572 0.586190 0.180670
O O13 0.518935 0.904707 0.877590
O O14 0.482863 0.807620 0.015821
O O15 0.454713 0.909091 0.099497
O O16 0.054293 0.500000 0.250000
#
# Coordination Sequence:
#
# PCOD8296095 Si02
#       8
#     8  16  16  16  16  16  16  16
#     4  12  26  46  68 104 132 170 236 280 356 420
#     4  10  22  36  57  94 130 167 209 260 327 389
#     4  10  21  43  67  96 137 171 224 269 350 411
#     4  11  26  47  71  95 137 180 228 290 347 404
#     4  10  23  40  68 100 136 175 214 289 342 414
#     4  12  21  37  63  89 127 170 216 259 318 387
#     4  11  25  43  64  93 127 176 222 273 321 384
#     4  10  21  35  57  90 128 167 207 257 312 391
#
# _framework density 22.443567999999999
#
# number of rings (size 3 to 8) (size 9 to 14) (size 15 to 20)
#    0.000    1.333    2.667    2.400    1.867    6.933 
#    0.000    0.000    0.000    1.600    0.000    0.000 
#    0.000    0.000    0.000    0.000    0.000    0.000 
#
# Total GULP energy -743453.184125 kJ/mol
# GULP energy per Si atom -12390.886402 kJ/mol
# Density = 2.239248 g / cm^3
# Si number density = 22.443568 Si / 1000 Ang^3
#
#
#
# Elastic Constant Matrix: (Units=GPa)
#
#
# Indices 1 2 3 4 5 6 
#
# 1 76.6457 40.3616 37.1002 0.0000 0.0000 0.0000
# 2 40.3616 92.3951 41.8791 0.0000 0.0000 0.0000
# 3 37.1002 41.8791 108.7573 0.0000 0.0000 0.0000
# 4 0.0000 0.0000 0.0000 23.7049 0.0000 0.0000
# 5 0.0000 0.0000 0.0000 0.0000 45.4779 0.0000
# 6 0.0000 0.0000 0.0000 0.0000 0.0000 29.0378
#
#
#
# Elastic Compliance Matrix: (Units=1/GPa)
#
#
# Indices 1 2 3 4 5 6 
#
# 1 0.018157 -0.006208 -0.003804 0.000000 0.000000 0.000000
# 2 -0.006208 0.015234 -0.003748 0.000000 0.000000 0.000000
# 3 -0.003804 -0.003748 0.011936 0.000000 0.000000 0.000000
# 4 0.000000 0.000000 0.000000 0.042185 0.000000 0.000000
# 5 0.000000 0.000000 0.000000 0.000000 0.021989 0.000000
# 6 0.000000 0.000000 0.000000 0.000000 0.000000 0.034438
#
#
# Mechanical properties :
#
#
# Convention : Reuss Voigt Hill
#
# Bulk Modulus (GPa) = 56.15679 57.38669 56.77174
# Shear Modulus (GPa) = 28.18588 30.20793 29.19691
#
# Velocity S-wave (km/s) = 3.54765 3.67270 3.61072
# Velocity P-wave (km/s) = 6.46968 6.60377 6.53707
#
# Compressibility (1/GPa) = 0.01780728
#
# Stress axis : x y z
#
# Youngs Moduli (GPa) = 55.07484 65.64316 83.78233
#
# Poissons Ratio (x) = 0.40749 0.31867
# Poissons Ratio (y) = 0.34189 0.31406
# Poissons Ratio (z) = 0.20948 0.24606
#
# Static dielectric constant tensor:
#      x y z
#    x 4.473970 0.000000 0.000000 
#    y 0.000000 3.705890 0.000000 
#    z 0.000000 0.000000 3.887210 
# 
# 
# High freq. dielectric constant tensor:
#      x y z
#    x 1.908290 0.000000 0.000000 
#    y 0.000000 1.853460 0.000000 
#    z 0.000000 0.000000 1.887930 
# 
# From -- ./inp_files/8574.got.cif
#   From: 2010.03.12/outbox.cif.g09.slc.cpg/sg73_5_cif.got.tgz:8574.got - 2010.04.16 15:25:48.
