data_PCOD8296987
_publ_section_title
;
Structure prediction by ZEFSAII (Michael W. Deem and Ramdas Pophale) SiO2 
 PCOD8296987
Probable space group: I B C A 
;
_chemical_formula_sum "Si O2"
_cell_formula_units_Z 64
_cell_length_a 15.524652
_cell_length_b 13.207348
_cell_length_c 13.559007
_cell_angle_alpha 90.000000
_cell_angle_beta 90.000000
_cell_angle_gamma 90.000000
_cell_volume 2780.131766
_symmetry_space_group_name_H-M "I B C A "
_symmetry_group_IT_number 73
_symmetry_cell_setting 'orthorhombic'
loop_
_space_group_symop_operation_xyz
x,y,z
-x,1/2-y,z
x,-y,1/2-z
1/2-x,y,-z
-x,-y,-z
x,1/2+y,-z
-x,y,1/2+z
1/2+x,-y,z
1/2+x,1/2+y,1/2+z
1/2-x,-y,1/2+z
1/2+x,1/2-y,-z
-x,1/2+y,1/2-z
1/2-x,1/2-y,1/2-z
1/2+x,y,1/2-z
1/2-x,1/2+y,z
x,1/2-y,1/2+z
loop_
_atom_site_type_symbol
_atom_site_label
_atom_site_fract_x
_atom_site_fract_y
_atom_site_fract_z
Si Si1 0.282292 0.064523 0.342260
Si Si2 0.083859 0.895426 0.207466
Si Si3 0.366639 0.775605 0.610582
Si Si4 0.500000 0.750000 0.441108
Si Si5 0.750000 0.421928 0.000000
O O1 0.179636 0.086031 0.335556
O O2 0.330399 0.169928 0.352231
O O3 0.315903 0.000000 0.250000
O O4 0.309911 0.998658 0.437772
O O5 0.079718 0.817269 0.298035
O O6 0.021757 0.849252 0.123760
O O7 0.044838 0.000000 0.250000
O O8 0.418980 0.772444 0.509620
O O9 0.291483 0.854563 0.585944
#
# Coordination Sequence:
#
# PCOD8296987 Si02
#       5
#    16  16  16   8   8
#     4  11  24  46  77 106 140 186 249 309 359 418
#     4  11  24  50  71 104 147 190 246 301 359 436
#     4  12  26  45  72 107 142 189 247 295 364 436
#     4  12  28  46  68 104 152 196 228 302 368 444
#     4  12  22  44  76 106 134 186 244 310 352 424
#
# _framework density 23.020491
#
# number of rings (size 3 to 8) (size 9 to 14) (size 15 to 20)
#    0.000    0.500    5.000    5.250    3.500    1.000 
#    4.500    0.000    0.000    0.000    0.000    0.000 
#    0.000    0.000    0.000    0.000    0.000    0.000 
#
# Total GULP energy -396701.369969 kJ/mol
# GULP energy per Si atom -12396.917812 kJ/mol
# Density = 2.296810 g / cm^3
# Si number density = 23.020491 Si / 1000 Ang^3
#
#
#
# Elastic Constant Matrix: (Units=GPa)
#
#
# Indices 1 2 3 4 5 6 
#
# 1 39.3158 37.7557 28.2374 0.0000 0.0000 0.0000
# 2 37.7557 204.7896 90.7180 0.0000 0.0000 0.0000
# 3 28.2374 90.7180 156.9776 0.0000 0.0000 0.0000
# 4 0.0000 0.0000 0.0000 62.9410 0.0000 0.0000
# 5 0.0000 0.0000 0.0000 0.0000 -15.2700 0.0000
# 6 0.0000 0.0000 0.0000 0.0000 0.0000 21.2197
#
#
#
# Elastic Compliance Matrix: (Units=1/GPa)
#
#
# Indices 1 2 3 4 5 6 
#
# 1 0.032031 -0.004507 -0.003157 0.000000 0.000000 0.000000
# 2 -0.004507 0.007197 -0.003349 0.000000 0.000000 0.000000
# 3 -0.003157 -0.003349 0.008874 0.000000 0.000000 0.000000
# 4 0.000000 0.000000 0.000000 0.015888 0.000000 0.000000
# 5 0.000000 0.000000 0.000000 0.000000 -0.065488 0.000000
# 6 0.000000 0.000000 0.000000 0.000000 0.000000 0.047126
#
#
# Mechanical properties :
#
#
# Convention : Reuss Voigt Hill
#
# Bulk Modulus (GPa) = 38.34933 79.38946 58.86939
# Shear Modulus (GPa) = 65.49247 30.06959 47.78103
#
# Velocity S-wave (km/s) = 5.33961 3.61807 4.56080
# Velocity P-wave (km/s) = 7.39663 7.21216 7.30498
#
# Compressibility (1/GPa) = 0.02607608
#
# Stress axis : x y z
#
# Youngs Moduli (GPa) = 31.22024 138.94038 112.69495
#
# Poissons Ratio (x) = 0.62615 0.35581
# Poissons Ratio (y) = 0.14070 0.37738
# Poissons Ratio (z) = 0.09857 0.46527
#
# Static dielectric constant tensor:
#      x y z
#    x 3.800610 0.000000 0.000000 
#    y 0.000000 4.424810 0.000000 
#    z 0.000000 0.000000 4.472340 
# 
# 
# High freq. dielectric constant tensor:
#      x y z
#    x 1.870900 0.000000 0.000000 
#    y 0.000000 1.935090 0.000000 
#    z 0.000000 0.000000 1.937940 
# 
# From -- ./inp_files/11535.got.cif
#   From: 2010.03.12/outbox.cif.g09.slc.cpg/sg73_6_cif.got.tgz:11535.got - 2010.04.16 15:25:48.
