data_PCOD8296333
_publ_section_title
;
Structure prediction by ZEFSAII (Michael W. Deem and Ramdas Pophale) SiO2 
 PCOD8296333
Probable space group: I B C A 
;
_chemical_formula_sum "Si O2"
_cell_formula_units_Z 72
_cell_length_a 27.803510
_cell_length_b 23.224511
_cell_length_c 5.104539
_cell_angle_alpha 90.000000
_cell_angle_beta 90.000000
_cell_angle_gamma 90.000000
_cell_volume 3296.117848
_symmetry_space_group_name_H-M "I B C A "
_symmetry_group_IT_number 73
_symmetry_cell_setting 'orthorhombic'
loop_
_space_group_symop_operation_xyz
x,y,z
-x,1/2-y,z
x,-y,1/2-z
1/2-x,y,-z
-x,-y,-z
x,1/2+y,-z
-x,y,1/2+z
1/2+x,-y,z
1/2+x,1/2+y,1/2+z
1/2-x,-y,1/2+z
1/2+x,1/2-y,-z
-x,1/2+y,1/2-z
1/2-x,1/2-y,1/2-z
1/2+x,y,1/2-z
1/2-x,1/2+y,z
x,1/2-y,1/2+z
loop_
_atom_site_type_symbol
_atom_site_label
_atom_site_fract_x
_atom_site_fract_y
_atom_site_fract_z
Si Si1 0.250000 0.849358 0.000000
Si Si2 0.376442 0.592020 0.265408
Si Si3 0.318748 0.563645 0.761277
Si Si4 0.341822 0.787174 0.847298
Si Si5 0.020293 0.063884 0.062358
O O1 0.221468 0.889027 0.796018
O O2 0.287044 0.810531 0.833662
O O3 0.362040 0.565909 0.547622
O O4 0.379508 0.661240 0.294238
O O5 0.425763 0.563987 0.167956
O O6 0.336362 0.576093 0.053436
O O7 0.295815 0.500000 0.750000
O O8 0.350802 0.737552 0.636637
O O9 0.986577 0.095570 0.282426
O O10 0.000000 0.000000 0.000000
#
# Coordination Sequence:
#
# PCOD8296333 Si02
#       5
#     8  16  16  16  16
#     4  10  24  42  60  96 124 172 230 264 310 376
#     4  11  24  42  62  97 129 165 214 263 320 385
#     4  11  25  39  63  87 138 177 205 255 320 385
#     4  11  23  41  66  90 122 169 218 276 314 358
#     4  10  22  37  64  94 126 158 203 251 319 385
#
# _framework density 21.843876999999999
#
# number of rings (size 3 to 8) (size 9 to 14) (size 15 to 20)
#    0.000    1.333    0.000    5.333    9.333   10.667 
#    0.000    0.000    0.000    4.000    0.000    0.000 
#    0.000    0.000    0.000    0.000    0.000    0.000 
#
# Total GULP energy -446239.639547 kJ/mol
# GULP energy per Si atom -12395.545543 kJ/mol
# Density = 2.179416 g / cm^3
# Si number density = 21.843877 Si / 1000 Ang^3
#
#
#
# Elastic Constant Matrix: (Units=GPa)
#
#
# Indices 1 2 3 4 5 6 
#
# 1 76.6266 14.7714 2.2978 0.0000 0.0000 0.0000
# 2 14.7714 106.5919 16.9173 0.0000 0.0000 0.0000
# 3 2.2978 16.9173 117.2644 0.0000 0.0000 0.0000
# 4 0.0000 0.0000 0.0000 32.6911 0.0000 0.0000
# 5 0.0000 0.0000 0.0000 0.0000 30.8345 0.0000
# 6 0.0000 0.0000 0.0000 0.0000 0.0000 28.5053
#
#
#
# Elastic Compliance Matrix: (Units=1/GPa)
#
#
# Indices 1 2 3 4 5 6 
#
# 1 0.013409 -0.001859 0.000005 0.000000 0.000000 0.000000
# 2 -0.001859 0.009859 -0.001386 0.000000 0.000000 0.000000
# 3 0.000005 -0.001386 0.008728 0.000000 0.000000 0.000000
# 4 0.000000 0.000000 0.000000 0.030589 0.000000 0.000000
# 5 0.000000 0.000000 0.000000 0.000000 0.032431 0.000000
# 6 0.000000 0.000000 0.000000 0.000000 0.000000 0.035081
#
#
# Mechanical properties :
#
#
# Convention : Reuss Voigt Hill
#
# Bulk Modulus (GPa) = 39.19064 40.93953 40.06509
# Shear Modulus (GPa) = 34.46343 36.17261 35.31802
#
# Velocity S-wave (km/s) = 3.97636 4.07376 4.02535
# Velocity P-wave (km/s) = 6.24997 6.39609 6.32345
#
# Compressibility (1/GPa) = 0.02551630
#
# Stress axis : x y z
#
# Youngs Moduli (GPa) = 74.57954 101.42856 114.57938
#
# Poissons Ratio (x) = 0.18856 -0.00062
# Poissons Ratio (y) = 0.13864 0.15880
# Poissons Ratio (z) = -0.00041 0.14057
#
# Static dielectric constant tensor:
#      x y z
#    x 3.786720 0.000000 0.000000 
#    y 0.000000 3.926330 0.000000 
#    z 0.000000 0.000000 1.196250 
# 
# 
# High freq. dielectric constant tensor:
#      x y z
#    x 1.832310 0.000000 0.000000 
#    y 0.000000 1.844030 0.000000 
#    z 0.000000 0.000000 1.892740 
# 
# From -- ./inp_files/2538.got.cif
#   From: 2010.03.12/outbox.cif.g09.slc.cpg/sg73_2_cif.got.tgz:2538.got - 2010.04.16 15:25:48.
