data_PCOD8296474
_publ_section_title
;
Structure prediction by ZEFSAII (Michael W. Deem and Ramdas Pophale) SiO2 
 PCOD8296474
Probable space group: I B C A 
;
_chemical_formula_sum "Si O2"
_cell_formula_units_Z 64
_cell_length_a 8.760030
_cell_length_b 28.584421
_cell_length_c 12.022828
_cell_angle_alpha 90.000000
_cell_angle_beta 90.000000
_cell_angle_gamma 90.000000
_cell_volume 3010.520766
_symmetry_space_group_name_H-M "I B C A "
_symmetry_group_IT_number 73
_symmetry_cell_setting 'orthorhombic'
loop_
_space_group_symop_operation_xyz
x,y,z
-x,1/2-y,z
x,-y,1/2-z
1/2-x,y,-z
-x,-y,-z
x,1/2+y,-z
-x,y,1/2+z
1/2+x,-y,z
1/2+x,1/2+y,1/2+z
1/2-x,-y,1/2+z
1/2+x,1/2-y,-z
-x,1/2+y,1/2-z
1/2-x,1/2-y,1/2-z
1/2+x,y,1/2-z
1/2-x,1/2+y,z
x,1/2-y,1/2+z
loop_
_atom_site_type_symbol
_atom_site_label
_atom_site_fract_x
_atom_site_fract_y
_atom_site_fract_z
Si Si1 0.682618 0.500000 0.250000
Si Si2 0.863129 0.810941 0.164997
Si Si3 0.294839 0.793004 0.880622
Si Si4 0.442722 0.964284 0.593708
Si Si5 0.250000 0.386184 0.500000
O O1 0.572347 0.461075 0.309548
O O2 0.782886 0.478437 0.151508
O O3 0.830174 0.812970 0.296153
O O4 0.792575 0.763295 0.115690
O O5 0.787319 0.854826 0.106115
O O6 0.043168 0.813285 0.153257
O O7 0.250000 0.813000 0.000000
O O8 0.401814 0.915770 0.532752
O O9 0.500000 0.000000 0.500000
#
# Coordination Sequence:
#
# PCOD8296474 Si02
#       5
#     8  16  16  16   8
#     4  10  22  42  72  94 128 186 226 262 376 414
#     4  10  24  40  68 102 136 185 234 292 341 426
#     4  10  22  44  69  95 144 187 227 280 375 405
#     4  11  22  44  68  99 135 183 219 291 349 414
#     4  12  24  42  70 104 146 172 254 284 340 426
#
# _framework density 21.258780999999999
#
# number of rings (size 3 to 8) (size 9 to 14) (size 15 to 20)
#    0.000    1.500    3.750    0.000    3.500    4.000 
#    0.000    0.000    0.000    0.000    0.000    0.000 
#    0.000    0.000    0.000    0.000    0.000    0.000 
#
# Total GULP energy -396755.983416 kJ/mol
# GULP energy per Si atom -12398.624482 kJ/mol
# Density = 2.121040 g / cm^3
# Si number density = 21.258781 Si / 1000 Ang^3
#
#
#
# Elastic Constant Matrix: (Units=GPa)
#
#
# Indices 1 2 3 4 5 6 
#
# 1 141.8111 55.5228 96.8421 0.0005 -0.0001 0.0000
# 2 55.5228 78.3999 29.1297 0.0003 -0.0002 -0.0001
# 3 96.8421 29.1297 158.4398 0.0017 -0.0004 -0.0004
# 4 0.0005 0.0003 0.0017 34.3745 -0.0001 0.0000
# 5 -0.0001 -0.0002 -0.0004 -0.0001 52.8361 0.0003
# 6 0.0000 -0.0001 -0.0004 0.0000 0.0003 25.4981
#
#
#
# Elastic Compliance Matrix: (Units=1/GPa)
#
#
# Indices 1 2 3 4 5 6 
#
# 1 0.015837 -0.008178 -0.008177 0.000000 0.000000 0.000000
# 2 -0.008178 0.017913 0.001705 0.000000 0.000000 0.000000
# 3 -0.008177 0.001705 0.010996 0.000000 0.000000 0.000000
# 4 0.000000 0.000000 0.000000 0.029091 0.000000 0.000000
# 5 0.000000 0.000000 0.000000 0.000000 0.018926 0.000000
# 6 0.000000 0.000000 0.000000 0.000000 0.000000 0.039219
#
#
# Mechanical properties :
#
#
# Convention : Reuss Voigt Hill
#
# Bulk Modulus (GPa) = 64.73539 82.40441 73.56990
# Shear Modulus (GPa) = 30.04261 35.68550 32.86405
#
# Velocity S-wave (km/s) = 3.76331 4.10155 3.93607
# Velocity P-wave (km/s) = 7.02856 7.82796 7.43900
#
# Compressibility (1/GPa) = 0.01544750
#
# Stress axis : x y z
#
# Youngs Moduli (GPa) = 63.14240 55.82489 90.94425
#
# Poissons Ratio (x) = 0.45653 0.74361
# Poissons Ratio (y) = 0.51637 -0.15507
# Poissons Ratio (z) = 0.51629 -0.09519
#
# Static dielectric constant tensor:
#      x y z
#    x 3.979900 0.000000 -0.000010 
#    y 0.000000 3.565220 0.000010 
#    z -0.000010 0.000010 3.694310 
# 
# 
# High freq. dielectric constant tensor:
#      x y z
#    x 1.842370 0.000000 0.000000 
#    y 0.000000 1.799540 0.000000 
#    z 0.000000 0.000000 1.858000 
# 
# From -- ./inp_files/4011.got.cif
#   From: 2010.03.12/outbox.cif.g09.slc.cpg/sg73_3_cif.got.tgz:4011.got - 2010.04.16 15:25:48.
