data_PCOD8296096
_publ_section_title
;
Structure prediction by ZEFSAII (Michael W. Deem and Ramdas Pophale) SiO2 
 PCOD8296096
Probable space group: I B C A 
;
_chemical_formula_sum "Si O2"
_cell_formula_units_Z 88
_cell_length_a 24.494617
_cell_length_b 21.900581
_cell_length_c 8.132282
_cell_angle_alpha 90.000000
_cell_angle_beta 90.000000
_cell_angle_gamma 90.000000
_cell_volume 4362.532945
_symmetry_space_group_name_H-M "I B C A "
_symmetry_group_IT_number 73
_symmetry_cell_setting 'orthorhombic'
loop_
_space_group_symop_operation_xyz
x,y,z
-x,1/2-y,z
x,-y,1/2-z
1/2-x,y,-z
-x,-y,-z
x,1/2+y,-z
-x,y,1/2+z
1/2+x,-y,z
1/2+x,1/2+y,1/2+z
1/2-x,-y,1/2+z
1/2+x,1/2-y,-z
-x,1/2+y,1/2-z
1/2-x,1/2-y,1/2-z
1/2+x,y,1/2-z
1/2-x,1/2+y,z
x,1/2-y,1/2+z
loop_
_atom_site_type_symbol
_atom_site_label
_atom_site_fract_x
_atom_site_fract_y
_atom_site_fract_z
Si Si1 0.355719 0.323734 0.927834
Si Si2 0.830591 0.802271 0.796324
Si Si3 0.151661 0.432355 0.315132
Si Si4 0.027561 0.314289 0.168749
Si Si5 0.929698 0.358149 0.005495
Si Si6 0.250000 0.378878 0.500000
O O1 0.328560 0.271173 0.813257
O O2 0.343823 0.387806 0.840628
O O3 0.420800 0.317796 0.952314
O O4 0.329999 0.322049 0.107488
O O5 0.884380 0.821632 0.894409
O O6 0.777072 0.834136 0.867582
O O7 0.145753 0.500000 0.250000
O O8 0.098144 0.419017 0.429676
O O9 0.206145 0.424547 0.421194
O O10 0.048978 0.317683 0.353920
O O11 0.000000 0.250000 0.137377
O O12 0.982930 0.367696 0.122689
#
# Coordination Sequence:
#
# PCOD8296096 Si02
#       6
#    16  16  16  16  16   8
#     4  11  23  37  62  92 131 158 198 260 312 379
#     4  11  22  39  58  95 124 156 203 262 328 365
#     4  10  24  45  63  90 123 165 216 262 309 373
#     4  11  19  31  58  93 122 164 198 241 311 376
#     4  10  21  35  58  91 128 161 208 256 301 370
#     4  10  24  42  66  86 120 162 208 266 320 384
#
# _framework density 20.171768
#
# number of rings (size 3 to 8) (size 9 to 14) (size 15 to 20)
#    0.000    1.455    1.818    4.909    0.000    5.091 
#    0.000    6.364    0.000    0.000    0.000    0.000 
#    0.000    0.000    0.000    0.000    0.000    0.000 
#
# Total GULP energy -545495.663311 kJ/mol
# GULP energy per Si atom -12397.628712 kJ/mol
# Density = 2.012586 g / cm^3
# Si number density = 20.171768 Si / 1000 Ang^3
#
#
#
# Elastic Constant Matrix: (Units=GPa)
#
#
# Indices 1 2 3 4 5 6 
#
# 1 73.0216 22.1090 20.1111 0.0000 0.0000 0.0000
# 2 22.1090 131.9478 37.4361 0.0000 0.0000 0.0000
# 3 20.1111 37.4361 113.3489 0.0000 0.0000 0.0000
# 4 0.0000 0.0000 0.0000 26.3929 0.0000 0.0000
# 5 0.0000 0.0000 0.0000 0.0000 34.1508 0.0000
# 6 0.0000 0.0000 0.0000 0.0000 0.0000 20.9526
#
#
#
# Elastic Compliance Matrix: (Units=1/GPa)
#
#
# Indices 1 2 3 4 5 6 
#
# 1 0.014825 -0.001917 -0.001997 0.000000 0.000000 0.000000
# 2 -0.001917 0.008610 -0.002504 0.000000 0.000000 0.000000
# 3 -0.001997 -0.002504 0.010004 0.000000 0.000000 0.000000
# 4 0.000000 0.000000 0.000000 0.037889 0.000000 0.000000
# 5 0.000000 0.000000 0.000000 0.000000 0.029282 0.000000
# 6 0.000000 0.000000 0.000000 0.000000 0.000000 0.047727
#
#
# Mechanical properties :
#
#
# Convention : Reuss Voigt Hill
#
# Bulk Modulus (GPa) = 48.53710 53.07006 50.80358
# Shear Modulus (GPa) = 29.75476 32.21008 30.98242
#
# Velocity S-wave (km/s) = 3.84483 4.00032 3.92335
# Velocity P-wave (km/s) = 6.62000 6.90673 6.76489
#
# Compressibility (1/GPa) = 0.02060280
#
# Stress axis : x y z
#
# Youngs Moduli (GPa) = 67.45285 116.13933 99.96488
#
# Poissons Ratio (x) = 0.22269 0.19964
# Poissons Ratio (y) = 0.12934 0.25027
# Poissons Ratio (z) = 0.13471 0.29076
#
# Static dielectric constant tensor:
#      x y z
#    x 4.207760 0.000000 0.000000 
#    y 0.000000 3.254760 0.000000 
#    z 0.000000 0.000000 3.713780 
# 
# 
# High freq. dielectric constant tensor:
#      x y z
#    x 1.809830 0.000000 0.000000 
#    y 0.000000 1.743750 0.000000 
#    z 0.000000 0.000000 1.799820 
# 
# From -- ./inp_files/6299.got.cif
#   From: 2010.03.12/outbox.cif.g09.slc.cpg/sg73_4_cif.got.tgz:6299.got - 2010.04.16 15:25:48.
