data_PCOD8296699
_publ_section_title
;
Structure prediction by ZEFSAII (Michael W. Deem and Ramdas Pophale) SiO2 
 PCOD8296699
Probable space group: I B C A 
;
_chemical_formula_sum "Si O2"
_cell_formula_units_Z 96
_cell_length_a 8.630091
_cell_length_b 20.633439
_cell_length_c 23.891019
_cell_angle_alpha 90.000000
_cell_angle_beta 90.000000
_cell_angle_gamma 90.000000
_cell_volume 4254.236871
_symmetry_space_group_name_H-M "I B C A "
_symmetry_group_IT_number 73
_symmetry_cell_setting 'orthorhombic'
loop_
_space_group_symop_operation_xyz
x,y,z
-x,1/2-y,z
x,-y,1/2-z
1/2-x,y,-z
-x,-y,-z
x,1/2+y,-z
-x,y,1/2+z
1/2+x,-y,z
1/2+x,1/2+y,1/2+z
1/2-x,-y,1/2+z
1/2+x,1/2-y,-z
-x,1/2+y,1/2-z
1/2-x,1/2-y,1/2-z
1/2+x,y,1/2-z
1/2-x,1/2+y,z
x,1/2-y,1/2+z
loop_
_atom_site_type_symbol
_atom_site_label
_atom_site_fract_x
_atom_site_fract_y
_atom_site_fract_z
Si Si1 0.504291 0.093895 0.563447
Si Si2 0.273164 0.989139 0.089400
Si Si3 0.444491 0.589367 0.129636
Si Si4 0.910141 0.314027 0.029326
Si Si5 0.452018 0.183236 0.168978
Si Si6 0.396247 0.311877 0.282769
O O1 0.344506 0.055770 0.555757
O O2 0.490143 0.147867 0.516374
O O3 0.538343 0.124244 0.625143
O O4 0.638370 0.041112 0.549732
O O5 0.388690 0.939666 0.118002
O O6 0.177637 0.030668 0.135294
O O7 0.464791 0.624862 0.187945
O O8 0.382707 0.640942 0.083237
O O9 0.000000 0.250000 0.048822
O O10 0.750000 0.294300 0.000000
O O11 0.500000 0.250000 0.136991
O O12 0.583005 0.174027 0.216823
O O13 0.284794 0.193762 0.199370
O O14 0.500000 0.250000 0.301145
#
# Coordination Sequence:
#
# PCOD8296699 Si02
#       6
#    16  16  16  16  16  16
#     4  11  24  44  66  94 131 161 218 254 313 377
#     4  10  24  43  67  92 126 176 207 257 308 372
#     4  11  24  44  66  94 131 161 218 254 313 377
#     4  12  26  43  67  98 128 165 206 264 320 369
#     4  11  23  41  66  95 125 166 211 264 319 373
#     4  11  23  41  66  95 125 166 211 264 319 373
#
# _framework density 22.565739000000001
#
# number of rings (size 3 to 8) (size 9 to 14) (size 15 to 20)
#    0.000    1.000    3.333    3.000    7.000    4.000 
#    0.000    5.000    0.000    0.000    0.000    0.000 
#    0.000    0.000    0.000    0.000    0.000    0.000 
#
# Total GULP energy -594954.839029 kJ/mol
# GULP energy per Si atom -12394.892480 kJ/mol
# Density = 2.251438 g / cm^3
# Si number density = 22.565739 Si / 1000 Ang^3
#
#
#
# Elastic Constant Matrix: (Units=GPa)
#
#
# Indices 1 2 3 4 5 6 
#
# 1 115.5228 41.2776 3.8119 0.0000 0.0000 0.0000
# 2 41.2776 105.1627 21.5286 0.0000 0.0000 0.0000
# 3 3.8119 21.5286 55.3032 0.0000 0.0000 0.0000
# 4 0.0000 0.0000 0.0000 8.0903 0.0000 0.0000
# 5 0.0000 0.0000 0.0000 0.0000 21.1273 0.0000
# 6 0.0000 0.0000 0.0000 0.0000 0.0000 77.3349
#
#
#
# Elastic Compliance Matrix: (Units=1/GPa)
#
#
# Indices 1 2 3 4 5 6 
#
# 1 0.010111 -0.004157 0.000921 0.000000 0.000000 0.000000
# 2 -0.004157 0.012042 -0.004401 0.000000 0.000000 0.000000
# 3 0.000921 -0.004401 0.019732 0.000000 0.000000 0.000000
# 4 0.000000 0.000000 0.000000 0.123605 0.000000 0.000000
# 5 0.000000 0.000000 0.000000 0.000000 0.047332 0.000000
# 6 0.000000 0.000000 0.000000 0.000000 0.000000 0.012931
#
#
# Mechanical properties :
#
#
# Convention : Reuss Voigt Hill
#
# Bulk Modulus (GPa) = 37.57853 45.46945 41.52399
# Shear Modulus (GPa) = 20.00816 35.26853 27.63835
#
# Velocity S-wave (km/s) = 2.98092 3.95767 3.50350
# Velocity P-wave (km/s) = 5.34199 6.40919 5.89977
#
# Compressibility (1/GPa) = 0.02661094
#
# Stress axis : x y z
#
# Youngs Moduli (GPa) = 98.89811 83.04314 50.67927
#
# Poissons Ratio (x) = 0.34525 -0.04670
# Poissons Ratio (y) = 0.41117 0.22305
# Poissons Ratio (z) = -0.09113 0.36549
#
# Static dielectric constant tensor:
#      x y z
#    x 4.267480 0.000000 0.000000 
#    y 0.000000 4.477890 0.000000 
#    z 0.000000 0.000000 3.839870 
# 
# 
# High freq. dielectric constant tensor:
#      x y z
#    x 1.909720 0.000000 0.000000 
#    y 0.000000 1.906990 0.000000 
#    z 0.000000 0.000000 1.861680 
# 
# From -- ./inp_files/24867.got.cif
#   From: 2010.03.12/outbox.cif.g09.slc.cpg/sg73_13_cif.got.tgz:24867.got - 2010.04.16 15:25:48.
