data_PCOD8296406
_publ_section_title
;
Structure prediction by ZEFSAII (Michael W. Deem and Ramdas Pophale) SiO2 
 PCOD8296406
Probable space group: I B C A 
;
_chemical_formula_sum "Si O2"
_cell_formula_units_Z 64
_cell_length_a 4.972179
_cell_length_b 18.193160
_cell_length_c 29.964394
_cell_angle_alpha 90.000000
_cell_angle_beta 90.000000
_cell_angle_gamma 90.000000
_cell_volume 2710.568537
_symmetry_space_group_name_H-M "I B C A "
_symmetry_group_IT_number 73
_symmetry_cell_setting 'orthorhombic'
loop_
_space_group_symop_operation_xyz
x,y,z
-x,1/2-y,z
x,-y,1/2-z
1/2-x,y,-z
-x,-y,-z
x,1/2+y,-z
-x,y,1/2+z
1/2+x,-y,z
1/2+x,1/2+y,1/2+z
1/2-x,-y,1/2+z
1/2+x,1/2-y,-z
-x,1/2+y,1/2-z
1/2-x,1/2-y,1/2-z
1/2+x,y,1/2-z
1/2-x,1/2+y,z
x,1/2-y,1/2+z
loop_
_atom_site_type_symbol
_atom_site_label
_atom_site_fract_x
_atom_site_fract_y
_atom_site_fract_z
Si Si1 0.500000 0.250000 0.342057
Si Si2 0.805133 0.547052 0.638803
Si Si3 0.750000 0.801672 0.500000
Si Si4 0.870463 0.171179 0.906368
Si Si5 0.236555 0.140798 0.219757
O O1 0.373271 0.182399 0.370890
O O2 0.261650 0.287078 0.312370
O O3 0.501367 0.521805 0.627953
O O4 0.809469 0.568580 0.691119
O O5 0.899318 0.615687 0.609506
O O6 0.500000 0.750000 0.509734
O O7 0.774934 0.853564 0.544133
O O8 0.000000 0.250000 0.913518
O O9 0.434574 0.142439 0.261319
#
# Coordination Sequence:
#
# PCOD8296406 Si02
#       5
#     8  16   8  16  16
#     4  12  22  42  70 108 140 186 236 308 368 422
#     4  12  27  46  68 100 142 190 235 289 360 430
#     4  10  22  40  70 112 140 178 238 304 354 426
#     4  11  23  44  74 105 142 187 242 296 359 435
#     4  12  26  43  67  99 137 182 236 296 350 415
#
# _framework density 23.611283
#
# number of rings (size 3 to 8) (size 9 to 14) (size 15 to 20)
#    0.000    0.500    3.750    5.250    0.000    3.000 
#    0.000    1.250    0.000    0.000    0.000    0.000 
#    0.000    0.000    0.000    0.000    0.000    0.000 
#
# Total GULP energy -396745.858098 kJ/mol
# GULP energy per Si atom -12398.308066 kJ/mol
# Density = 2.355754 g / cm^3
# Si number density = 23.611283 Si / 1000 Ang^3
#
#
#
# Elastic Constant Matrix: (Units=GPa)
#
#
# Indices 1 2 3 4 5 6 
#
# 1 99.3235 13.2483 29.6327 0.0000 0.0000 0.0000
# 2 13.2483 76.0529 28.2849 0.0000 0.0000 0.0000
# 3 29.6327 28.2849 136.4489 0.0000 0.0000 0.0000
# 4 0.0000 0.0000 0.0000 -112.4481 0.0000 0.0000
# 5 0.0000 0.0000 0.0000 0.0000 37.0047 0.0000
# 6 0.0000 0.0000 0.0000 0.0000 0.0000 47.1481
#
#
#
# Elastic Compliance Matrix: (Units=1/GPa)
#
#
# Indices 1 2 3 4 5 6 
#
# 1 0.010850 -0.001098 -0.002129 0.000000 0.000000 0.000000
# 2 -0.001098 0.014358 -0.002738 0.000000 0.000000 0.000000
# 3 -0.002129 -0.002738 0.008359 0.000000 0.000000 0.000000
# 4 0.000000 0.000000 0.000000 -0.008893 0.000000 0.000000
# 5 0.000000 0.000000 0.000000 0.000000 0.027024 0.000000
# 6 0.000000 0.000000 0.000000 0.000000 0.000000 0.021210
#
#
# Mechanical properties :
#
#
# Convention : Reuss Voigt Hill
#
# Bulk Modulus (GPa) = 46.21715 50.46193 48.33954
# Shear Modulus (GPa) = 54.31906 10.38490 32.35198
#
# Velocity S-wave (km/s) = 4.80161 2.09948 3.70563
# Velocity P-wave (km/s) = 7.09629 5.22451 6.23108
#
# Compressibility (1/GPa) = 0.02163699
#
# Stress axis : x y z
#
# Youngs Moduli (GPa) = 92.16882 69.64608 119.63801
#
# Poissons Ratio (x) = 0.07650 0.25466
# Poissons Ratio (y) = 0.10124 0.32755
# Poissons Ratio (z) = 0.19619 0.19068
#
# Static dielectric constant tensor:
#      x y z
#    x 4.358320 0.000000 0.000000 
#    y 0.000000 4.124200 0.000000 
#    z 0.000000 0.000000 4.710870 
# 
# 
# High freq. dielectric constant tensor:
#      x y z
#    x 1.948300 0.000000 0.000000 
#    y 0.000000 1.907780 0.000000 
#    z 0.000000 0.000000 1.941210 
# 
# From -- ./inp_files/1158.got.cif
#   From: 2010.03.12/outbox.cif.g09.slc.cpg/sg73_1_cif.got.tgz:1158.got - 2010.04.16 15:25:48.
