data_PCOD8296314
_publ_section_title
;
Structure prediction by ZEFSAII (Michael W. Deem and Ramdas Pophale) SiO2 
 PCOD8296314
Probable space group: I B C A 
;
_chemical_formula_sum "Si O2"
_cell_formula_units_Z 96
_cell_length_a 20.805920
_cell_length_b 19.165566
_cell_length_c 11.411059
_cell_angle_alpha 90.000000
_cell_angle_beta 90.000000
_cell_angle_gamma 90.000000
_cell_volume 4550.242312
_symmetry_space_group_name_H-M "I B C A "
_symmetry_group_IT_number 73
_symmetry_cell_setting 'orthorhombic'
loop_
_space_group_symop_operation_xyz
x,y,z
-x,1/2-y,z
x,-y,1/2-z
1/2-x,y,-z
-x,-y,-z
x,1/2+y,-z
-x,y,1/2+z
1/2+x,-y,z
1/2+x,1/2+y,1/2+z
1/2-x,-y,1/2+z
1/2+x,1/2-y,-z
-x,1/2+y,1/2-z
1/2-x,1/2-y,1/2-z
1/2+x,y,1/2-z
1/2-x,1/2+y,z
x,1/2-y,1/2+z
loop_
_atom_site_type_symbol
_atom_site_label
_atom_site_fract_x
_atom_site_fract_y
_atom_site_fract_z
Si Si1 0.280524 0.660212 0.871091
Si Si2 0.929959 0.279854 0.126323
Si Si3 0.613680 0.643976 0.020992
Si Si4 0.483919 0.331166 0.593063
Si Si5 0.390736 0.420061 0.741126
Si Si6 0.828382 0.811720 0.695338
O O1 0.330676 0.597457 0.844374
O O2 0.223117 0.653545 0.778872
O O3 0.315529 0.733122 0.846930
O O4 0.250000 0.654115 0.000000
O O5 0.882704 0.218989 0.084314
O O6 0.898576 0.314357 0.241226
O O7 0.000000 0.250000 0.158935
O O8 0.934119 0.333409 0.016965
O O9 0.628513 0.590667 0.123598
O O10 0.546617 0.629257 0.954579
O O11 0.668644 0.641014 0.921456
O O12 0.500000 0.250000 0.623829
O O13 0.452212 0.372332 0.702571
O O14 0.411122 0.500000 0.750000
#
# Coordination Sequence:
#
# PCOD8296314 Si02
#       6
#    16  16  16  16  16  16
#     4  11  24  41  63  93 124 176 219 281 337 389
#     4   9  19  34  64 100 132 160 203 282 347 391
#     4  10  22  35  63  96 124 168 204 275 336 392
#     4   9  21  38  69  98 129 164 218 274 335 404
#     4  12  26  45  63  92 140 181 221 271 337 418
#     4  11  21  36  67  98 129 152 227 288 334 390
#
# _framework density 21.097778000000002
#
# number of rings (size 3 to 8) (size 9 to 14) (size 15 to 20)
#    0.000    2.000    1.667    4.000    7.000    2.000 
#    3.000    0.000    0.000    0.000    0.000    0.000 
#    0.000    0.000    0.000    0.000    0.000    0.000 
#
# Total GULP energy -594804.436803 kJ/mol
# GULP energy per Si atom -12391.759100 kJ/mol
# Density = 2.104976 g / cm^3
# Si number density = 21.097778 Si / 1000 Ang^3
#
#
#
# Elastic Constant Matrix: (Units=GPa)
#
#
# Indices 1 2 3 4 5 6 
#
# 1 63.1314 32.2717 45.0586 0.0000 0.0000 0.0000
# 2 32.2717 70.0546 46.6968 0.0000 0.0000 0.0000
# 3 45.0586 46.6968 171.9859 0.0000 0.0000 0.0000
# 4 0.0000 0.0000 0.0000 18.2568 0.0000 0.0000
# 5 0.0000 0.0000 0.0000 0.0000 31.8118 0.0000
# 6 0.0000 0.0000 0.0000 0.0000 0.0000 16.6365
#
#
#
# Elastic Compliance Matrix: (Units=1/GPa)
#
#
# Indices 1 2 3 4 5 6 
#
# 1 0.022559 -0.007878 -0.003771 0.000000 0.000000 0.000000
# 2 -0.007878 0.020180 -0.003415 0.000000 0.000000 0.000000
# 3 -0.003771 -0.003415 0.007730 0.000000 0.000000 0.000000
# 4 0.000000 0.000000 0.000000 0.054774 0.000000 0.000000
# 5 0.000000 0.000000 0.000000 0.000000 0.031435 0.000000
# 6 0.000000 0.000000 0.000000 0.000000 0.000000 0.060109
#
#
# Mechanical properties :
#
#
# Convention : Reuss Voigt Hill
#
# Bulk Modulus (GPa) = 49.16525 61.46955 55.31740
# Shear Modulus (GPa) = 21.39537 25.41736 23.40636
#
# Velocity S-wave (km/s) = 3.18796 3.47470 3.33441
# Velocity P-wave (km/s) = 6.07494 6.73030 6.41100
#
# Compressibility (1/GPa) = 0.02033957
#
# Stress axis : x y z
#
# Youngs Moduli (GPa) = 44.32871 49.55314 129.37099
#
# Poissons Ratio (x) = 0.39039 0.48787
# Poissons Ratio (y) = 0.34923 0.44183
# Poissons Ratio (z) = 0.16717 0.16924
#
# Static dielectric constant tensor:
#      x y z
#    x 3.909840 0.000000 0.000000 
#    y 0.000000 3.195170 0.000000 
#    z 0.000000 0.000000 4.348590 
# 
# 
# High freq. dielectric constant tensor:
#      x y z
#    x 1.831630 0.000000 0.000000 
#    y 0.000000 1.746990 0.000000 
#    z 0.000000 0.000000 1.863650 
# 
# From -- ./inp_files/12883.got.cif
#   From: 2010.03.12/outbox.cif.g09.slc.cpg/sg73_7_cif.got.tgz:12883.got - 2010.04.16 15:25:48.
