data_PCOD8296487
_publ_section_title
;
Structure prediction by ZEFSAII (Michael W. Deem and Ramdas Pophale) SiO2 
 PCOD8296487
Probable space group: I B C A 
;
_chemical_formula_sum "Si O2"
_cell_formula_units_Z 80
_cell_length_a 13.570732
_cell_length_b 19.647084
_cell_length_c 12.941734
_cell_angle_alpha 90.000000
_cell_angle_beta 90.000000
_cell_angle_gamma 90.000000
_cell_volume 3450.593860
_symmetry_space_group_name_H-M "I B C A "
_symmetry_group_IT_number 73
_symmetry_cell_setting 'orthorhombic'
loop_
_space_group_symop_operation_xyz
x,y,z
-x,1/2-y,z
x,-y,1/2-z
1/2-x,y,-z
-x,-y,-z
x,1/2+y,-z
-x,y,1/2+z
1/2+x,-y,z
1/2+x,1/2+y,1/2+z
1/2-x,-y,1/2+z
1/2+x,1/2-y,-z
-x,1/2+y,1/2-z
1/2-x,1/2-y,1/2-z
1/2+x,y,1/2-z
1/2-x,1/2+y,z
x,1/2-y,1/2+z
loop_
_atom_site_type_symbol
_atom_site_label
_atom_site_fract_x
_atom_site_fract_y
_atom_site_fract_z
Si Si1 0.590563 0.546671 0.521025
Si Si2 0.311359 0.155468 0.673492
Si Si3 0.770440 0.697811 0.618604
Si Si4 0.748094 0.009432 0.862271
Si Si5 0.019108 0.324052 0.423811
O O1 0.500000 0.500000 0.500000
O O2 0.645077 0.529298 0.629109
O O3 0.671911 0.527032 0.436368
O O4 0.548430 0.623360 0.514758
O O5 0.254432 0.220855 0.626708
O O6 0.297811 0.157284 0.799113
O O7 0.261437 0.090260 0.618837
O O8 0.427603 0.153323 0.646796
O O9 0.750000 0.673150 0.500000
O O10 0.884110 0.681864 0.649003
O O11 0.704171 0.000000 0.750000
O O12 0.000000 0.250000 0.476274
#
# Coordination Sequence:
#
# PCOD8296487 Si02
#       5
#    16  16  16  16  16
#     4  11  24  44  71 102 137 184 238 292 355 442
#     4  10  22  45  66 102 140 188 233 306 367 431
#     4  10  23  41  73  99 142 186 246 298 362 437
#     4  11  25  42  70  99 145 185 237 292 369 434
#     4  10  22  43  69 103 141 179 241 295 363 440
#
# _framework density 23.184414
#
# number of rings (size 3 to 8) (size 9 to 14) (size 15 to 20)
#    0.000    1.600    2.000    1.200    8.400    0.800 
#    3.600   15.000    0.000    0.000    0.000    0.000 
#    0.000    0.000    0.000    0.000    0.000    0.000 
#
# Total GULP energy -495601.555210 kJ/mol
# GULP energy per Si atom -12390.038880 kJ/mol
# Density = 2.313165 g / cm^3
# Si number density = 23.184414 Si / 1000 Ang^3
#
#
#
# Elastic Constant Matrix: (Units=GPa)
#
#
# Indices 1 2 3 4 5 6 
#
# 1 103.9660 28.4075 17.2507 -0.0001 0.0000 0.0000
# 2 28.4075 156.5759 11.7138 0.0000 0.0000 0.0000
# 3 17.2507 11.7138 91.6540 -0.0001 -0.0001 -0.0001
# 4 -0.0001 0.0000 -0.0001 33.1095 0.0000 0.0000
# 5 0.0000 0.0000 -0.0001 0.0000 26.2138 0.0000
# 6 0.0000 0.0000 -0.0001 0.0000 0.0000 39.5904
#
#
#
# Elastic Compliance Matrix: (Units=1/GPa)
#
#
# Indices 1 2 3 4 5 6 
#
# 1 0.010385 -0.001755 -0.001730 0.000000 0.000000 0.000000
# 2 -0.001755 0.006745 -0.000532 0.000000 0.000000 0.000000
# 3 -0.001730 -0.000532 0.011304 0.000000 0.000000 0.000000
# 4 0.000000 0.000000 0.000000 0.030203 0.000000 0.000000
# 5 0.000000 0.000000 0.000000 0.000000 0.038148 0.000000
# 6 0.000000 0.000000 0.000000 0.000000 0.000000 0.025259
#
#
# Mechanical properties :
#
#
# Convention : Reuss Voigt Hill
#
# Bulk Modulus (GPa) = 49.01848 51.88223 50.45036
# Shear Modulus (GPa) = 36.52905 39.43765 37.98335
#
# Velocity S-wave (km/s) = 3.97367 4.12884 4.05200
# Velocity P-wave (km/s) = 6.49940 6.71985 6.61055
#
# Compressibility (1/GPa) = 0.02040047
#
# Stress axis : x y z
#
# Youngs Moduli (GPa) = 96.29183 148.26201 88.46231
#
# Poissons Ratio (x) = 0.26016 0.15307
# Poissons Ratio (y) = 0.16896 0.04704
# Poissons Ratio (z) = 0.16662 0.07884
#
# Static dielectric constant tensor:
#      x y z
#    x 4.798970 0.000000 0.000000 
#    y 0.000000 4.936190 0.000000 
#    z 0.000000 0.000000 4.478950 
# 
# 
# High freq. dielectric constant tensor:
#      x y z
#    x 1.918710 0.000000 0.000000 
#    y 0.000000 1.946660 0.000000 
#    z 0.000000 0.000000 1.884050 
# 
# From -- ./inp_files/16868.got.cif
#   From: 2010.03.12/outbox.cif.g09.slc.cpg/sg73_9_cif.got.tgz:16868.got - 2010.04.16 15:25:48.
