data_PCOD8296279
_publ_section_title
;
Structure prediction by ZEFSAII (Michael W. Deem and Ramdas Pophale) SiO2 
 PCOD8296279
Probable space group: I B C A 
;
_chemical_formula_sum "Si O2"
_cell_formula_units_Z 112
_cell_length_a 13.500109
_cell_length_b 27.342512
_cell_length_c 13.888510
_cell_angle_alpha 90.000000
_cell_angle_beta 90.000000
_cell_angle_gamma 90.000000
_cell_volume 5126.622535
_symmetry_space_group_name_H-M "I B C A "
_symmetry_group_IT_number 73
_symmetry_cell_setting 'orthorhombic'
loop_
_space_group_symop_operation_xyz
x,y,z
-x,1/2-y,z
x,-y,1/2-z
1/2-x,y,-z
-x,-y,-z
x,1/2+y,-z
-x,y,1/2+z
1/2+x,-y,z
1/2+x,1/2+y,1/2+z
1/2-x,-y,1/2+z
1/2+x,1/2-y,-z
-x,1/2+y,1/2-z
1/2-x,1/2-y,1/2-z
1/2+x,y,1/2-z
1/2-x,1/2+y,z
x,1/2-y,1/2+z
loop_
_atom_site_type_symbol
_atom_site_label
_atom_site_fract_x
_atom_site_fract_y
_atom_site_fract_z
Si Si1 0.411930 0.447230 0.578725
Si Si2 0.303040 0.452193 0.907508
Si Si3 0.599095 0.957121 0.314530
Si Si4 0.011549 0.192682 0.846868
Si Si5 0.137289 0.356903 0.735954
Si Si6 0.865034 0.147805 0.520032
Si Si7 0.639992 0.381774 0.256254
O O1 0.363562 0.499896 0.561472
O O2 0.531450 0.453079 0.588679
O O3 0.383902 0.410652 0.491663
O O4 0.371366 0.423464 0.676247
O O5 0.213969 0.467255 0.836042
O O6 0.371063 0.409950 0.858735
O O7 0.250000 0.428322 0.000000
O O8 0.585603 0.909354 0.249147
O O9 0.553658 0.000000 0.250000
O O10 0.066870 0.164525 0.757789
O O11 0.000000 0.250000 0.836370
O O12 0.899039 0.175564 0.827151
O O13 0.062147 0.177493 0.947705
O O14 0.109037 0.337030 0.629210
O O15 0.253763 0.357698 0.745622
O O16 0.750000 0.160431 0.500000
#
# Coordination Sequence:
#
# PCOD8296279 Si02
#       7
#    16  16  16  16  16  16  16
#     4  11  21  40  63  96 131 184 238 270 329 414
#     4  11  24  36  59  96 140 183 232 277 334 410
#     4  11  23  38  60  94 134 183 228 281 327 408
#     4  11  25  45  73 104 129 170 236 289 356 429
#     4  11  22  43  72  96 136 181 223 284 345 412
#     4  11  22  44  74  97 134 184 234 281 349 421
#     4  10  21  43  63  93 137 181 217 288 348 402
#
# _framework density 21.846741999999999
#
# number of rings (size 3 to 8) (size 9 to 14) (size 15 to 20)
#    0.000    1.143    5.714    3.429    2.000    2.857 
#    0.000    0.000    0.000    0.000    0.000    0.000 
#    0.000    0.000    0.000    0.000    0.000    0.000 
#
# Total GULP energy -693971.155884 kJ/mol
# GULP energy per Si atom -12392.342069 kJ/mol
# Density = 2.179702 g / cm^3
# Si number density = 21.846742 Si / 1000 Ang^3
#
#
#
# Elastic Constant Matrix: (Units=GPa)
#
#
# Indices 1 2 3 4 5 6 
#
# 1 63.3286 24.5844 3.4767 0.0000 -0.0001 0.0000
# 2 24.5844 134.2665 30.5187 0.0005 0.0000 0.0000
# 3 3.4767 30.5187 68.6515 0.0014 0.0001 -0.0003
# 4 0.0000 0.0005 0.0014 17.2970 0.0000 -0.0001
# 5 -0.0001 0.0000 0.0001 0.0000 32.4723 -0.0001
# 6 0.0000 0.0000 -0.0003 -0.0001 -0.0001 22.6895
#
#
#
# Elastic Compliance Matrix: (Units=1/GPa)
#
#
# Indices 1 2 3 4 5 6 
#
# 1 0.017020 -0.003249 0.000582 0.000000 0.000000 0.000000
# 2 -0.003249 0.008905 -0.003794 0.000000 0.000000 0.000000
# 3 0.000582 -0.003794 0.016224 -0.000001 0.000000 0.000000
# 4 0.000000 0.000000 -0.000001 0.057814 0.000000 0.000000
# 5 0.000000 0.000000 0.000000 0.000000 0.030796 0.000000
# 6 0.000000 0.000000 0.000000 0.000000 0.000000 0.044073
#
#
# Mechanical properties :
#
#
# Convention : Reuss Voigt Hill
#
# Bulk Modulus (GPa) = 34.21470 42.60071 38.40770
# Shear Modulus (GPa) = 25.31716 28.33621 26.82669
#
# Velocity S-wave (km/s) = 3.40789 3.60536 3.50801
# Velocity P-wave (km/s) = 5.58392 6.07236 5.83326
#
# Compressibility (1/GPa) = 0.02922720
#
# Stress axis : x y z
#
# Youngs Moduli (GPa) = 58.75495 112.29464 61.63885
#
# Poissons Ratio (x) = 0.36481 -0.03589
# Poissons Ratio (y) = 0.19088 0.23387
# Poissons Ratio (z) = -0.03421 0.42607
#
# Static dielectric constant tensor:
#      x y z
#    x 4.380150 0.000000 0.000000 
#    y 0.000000 3.718380 0.000000 
#    z 0.000000 0.000000 4.065770 
# 
# 
# High freq. dielectric constant tensor:
#      x y z
#    x 1.877030 0.000000 0.000000 
#    y 0.000000 1.825900 0.000000 
#    z 0.000000 0.000000 1.852580 
# 
# From -- ./inp_files/17402.got.cif
#   From: 2010.03.12/outbox.cif.g09.slc.cpg/sg73_9_cif.got.tgz:17402.got - 2010.04.16 15:25:48.
