data_PCOD8296748
_publ_section_title
;
Structure prediction by ZEFSAII (Michael W. Deem and Ramdas Pophale) SiO2 
 PCOD8296748
Probable space group: I B C A 
;
_chemical_formula_sum "Si O2"
_cell_formula_units_Z 56
_cell_length_a 12.672010
_cell_length_b 22.530535
_cell_length_c 8.557392
_cell_angle_alpha 90.000000
_cell_angle_beta 90.000000
_cell_angle_gamma 90.000000
_cell_volume 2443.196728
_symmetry_space_group_name_H-M "I B C A "
_symmetry_group_IT_number 73
_symmetry_cell_setting 'orthorhombic'
loop_
_space_group_symop_operation_xyz
x,y,z
-x,1/2-y,z
x,-y,1/2-z
1/2-x,y,-z
-x,-y,-z
x,1/2+y,-z
-x,y,1/2+z
1/2+x,-y,z
1/2+x,1/2+y,1/2+z
1/2-x,-y,1/2+z
1/2+x,1/2-y,-z
-x,1/2+y,1/2-z
1/2-x,1/2-y,1/2-z
1/2+x,y,1/2-z
1/2-x,1/2+y,z
x,1/2-y,1/2+z
loop_
_atom_site_type_symbol
_atom_site_label
_atom_site_fract_x
_atom_site_fract_y
_atom_site_fract_z
Si Si1 0.455202 0.076854 0.671191
Si Si2 0.250000 0.272163 0.500000
Si Si3 0.130847 0.471708 0.512261
Si Si4 0.098057 0.206290 0.265362
O O1 0.574158 0.052467 0.643605
O O2 0.424656 0.061462 0.845698
O O3 0.448993 0.147434 0.653954
O O4 0.380899 0.042674 0.543598
O O5 0.177338 0.232142 0.391416
O O6 0.332245 0.309219 0.390726
O O7 0.250000 0.452289 0.500000
O O8 0.000000 0.250000 0.224790
#
# Coordination Sequence:
#
# PCOD8296748 Si02
#       4
#    16   8  16  16
#     4  10  25  43  70 102 139 183 234 287 349 416
#     4  10  26  44  66 106 130 190 238 272 362 412
#     4  10  24  46  70 104 139 181 233 290 351 415
#     4  11  25  45  70 102 143 181 232 294 343 422
#
# _framework density 22.92079
#
# number of rings (size 3 to 8) (size 9 to 14) (size 15 to 20)
#    0.000    1.714    0.000    0.857   12.000   11.429 
#    0.000    0.000    0.000    0.000    0.000    0.000 
#    0.000    0.000    0.000    0.000    0.000    0.000 
#
# Total GULP energy -346969.021175 kJ/mol
# GULP energy per Si atom -12391.750756 kJ/mol
# Density = 2.286862 g / cm^3
# Si number density = 22.920790 Si / 1000 Ang^3
#
#
#
# Elastic Constant Matrix: (Units=GPa)
#
#
# Indices 1 2 3 4 5 6 
#
# 1 187.0570 42.0178 66.4367 -0.0005 0.0002 0.0000
# 2 42.0178 136.1214 32.0177 0.0000 0.0004 0.0001
# 3 66.4367 32.0177 98.4078 0.0012 0.0021 0.0003
# 4 -0.0005 0.0000 0.0012 14.3227 0.0012 0.0001
# 5 0.0002 0.0004 0.0021 0.0012 38.7042 0.0000
# 6 0.0000 0.0001 0.0003 0.0001 0.0000 19.2365
#
#
#
# Elastic Compliance Matrix: (Units=1/GPa)
#
#
# Indices 1 2 3 4 5 6 
#
# 1 0.007200 -0.001169 -0.004480 0.000001 0.000000 0.000000
# 2 -0.001169 0.008145 -0.001861 0.000000 0.000000 0.000000
# 3 -0.004480 -0.001861 0.013792 -0.000001 -0.000001 0.000000
# 4 0.000001 0.000000 -0.000001 0.069819 -0.000002 0.000000
# 5 0.000000 0.000000 -0.000001 -0.000002 0.025837 0.000000
# 6 0.000000 0.000000 0.000000 0.000000 0.000000 0.051984
#
#
# Mechanical properties :
#
#
# Convention : Reuss Voigt Hill
#
# Bulk Modulus (GPa) = 70.83885 78.05896 74.44890
# Shear Modulus (GPa) = 25.44489 33.19361 29.31925
#
# Velocity S-wave (km/s) = 3.33546 3.80963 3.58041
# Velocity P-wave (km/s) = 6.76807 7.31307 7.04584
#
# Compressibility (1/GPa) = 0.01411655
#
# Stress axis : x y z
#
# Youngs Moduli (GPa) = 138.89318 122.77704 72.50494
#
# Poissons Ratio (x) = 0.14347 0.32486
# Poissons Ratio (y) = 0.16230 0.13494
# Poissons Ratio (z) = 0.62231 0.22850
#
# Static dielectric constant tensor:
#      x y z
#    x 4.500980 0.000000 0.000000 
#    y 0.000000 4.141860 0.000000 
#    z 0.000000 0.000000 4.294290 
# 
# 
# High freq. dielectric constant tensor:
#      x y z
#    x 1.913230 0.000000 0.000000 
#    y 0.000000 1.892990 0.000000 
#    z 0.000000 0.000000 1.914060 
# 
# From -- ./inp_files/4508.got.cif
#   From: 2010.03.12/outbox.cif.g09.slc.cpg/sg73_3_cif.got.tgz:4508.got - 2010.04.16 15:25:48.
