data_PCOD8296216
_publ_section_title
;
Structure prediction by ZEFSAII (Michael W. Deem and Ramdas Pophale) SiO2 
 PCOD8296216
Probable space group: I B C A 
;
_chemical_formula_sum "Si O2"
_cell_formula_units_Z 64
_cell_length_a 5.309529
_cell_length_b 33.690041
_cell_length_c 13.475563
_cell_angle_alpha 90.000000
_cell_angle_beta 90.000000
_cell_angle_gamma 90.000000
_cell_volume 2410.485123
_symmetry_space_group_name_H-M "I B C A "
_symmetry_group_IT_number 73
_symmetry_cell_setting 'orthorhombic'
loop_
_space_group_symop_operation_xyz
x,y,z
-x,1/2-y,z
x,-y,1/2-z
1/2-x,y,-z
-x,-y,-z
x,1/2+y,-z
-x,y,1/2+z
1/2+x,-y,z
1/2+x,1/2+y,1/2+z
1/2-x,-y,1/2+z
1/2+x,1/2-y,-z
-x,1/2+y,1/2-z
1/2-x,1/2-y,1/2-z
1/2+x,y,1/2-z
1/2-x,1/2+y,z
x,1/2-y,1/2+z
loop_
_atom_site_type_symbol
_atom_site_label
_atom_site_fract_x
_atom_site_fract_y
_atom_site_fract_z
Si Si1 0.859563 0.893900 0.134215
Si Si2 0.746884 0.726474 0.116911
Si Si3 0.353815 0.361503 0.853468
Si Si4 0.942649 0.015644 0.389914
O O1 0.617903 0.870083 0.088750
O O2 0.890482 0.885236 0.250982
O O3 0.118388 0.878484 0.083380
O O4 0.834471 0.940096 0.111251
O O5 0.500000 0.750000 0.150431
O O6 0.713325 0.684197 0.170000
O O7 0.000000 0.750000 0.150918
O O8 0.750000 0.718921 0.000000
O O9 0.218105 0.010690 0.337432
O O10 0.000000 0.000000 0.500000
#
# Coordination Sequence:
#
# PCOD8296216 Si02
#       4
#    16  16  16  16
#     4  10  21  40  61  88 131 157 214 259 318 380
#     4  10  21  40  64  91 127 166 211 259 312 381
#     4  10  21  40  61  93 125 168 206 260 320 374
#     4  10  21  40  62  88 122 161 212 261 317 373
#
# _framework density 26.550673
#
# number of rings (size 3 to 8) (size 9 to 14) (size 15 to 20)
#    0.000    2.000    0.000    3.000    0.000    0.000 
#   13.500   30.000    0.000    0.000    0.000    0.000 
#    0.000    0.000    0.000    0.000    0.000    0.000 
#
# Total GULP energy -396464.966960 kJ/mol
# GULP energy per Si atom -12389.530218 kJ/mol
# Density = 2.649024 g / cm^3
# Si number density = 26.550673 Si / 1000 Ang^3
#
#
#
# Elastic Constant Matrix: (Units=GPa)
#
#
# Indices 1 2 3 4 5 6 
#
# 1 324.9714 80.6777 -2.5012 0.0000 0.0000 0.0000
# 2 80.6777 204.0292 18.0410 0.0001 0.0000 0.0000
# 3 -2.5012 18.0410 54.5403 0.0001 0.0000 0.0000
# 4 0.0000 0.0001 0.0001 39.4778 0.0000 0.0000
# 5 0.0000 0.0000 0.0000 0.0000 -27.5089 0.0000
# 6 0.0000 0.0000 0.0000 0.0000 0.0000 61.1311
#
#
#
# Elastic Compliance Matrix: (Units=1/GPa)
#
#
# Indices 1 2 3 4 5 6 
#
# 1 0.003433 -0.001413 0.000625 0.000000 0.000000 0.000000
# 2 -0.001413 0.005630 -0.001927 0.000000 0.000000 0.000000
# 3 0.000625 -0.001927 0.019001 0.000000 0.000000 0.000000
# 4 0.000000 0.000000 0.000000 0.025331 0.000000 0.000000
# 5 0.000000 0.000000 0.000000 0.000000 -0.036352 0.000000
# 6 0.000000 0.000000 0.000000 0.000000 0.000000 0.016358
#
#
# Mechanical properties :
#
#
# Convention : Reuss Voigt Hill
#
# Bulk Modulus (GPa) = 44.18141 86.21956 65.20049
# Shear Modulus (GPa) = 107.81406 47.10820 77.46113
#
# Velocity S-wave (km/s) = 6.37927 4.21678 5.40723
# Velocity P-wave (km/s) = 8.42239 7.50016 7.97462
#
# Compressibility (1/GPa) = 0.02263396
#
# Stress axis : x y z
#
# Youngs Moduli (GPa) = 291.31624 177.61234 52.62829
#
# Poissons Ratio (x) = 0.25090 -0.03288
# Poissons Ratio (y) = 0.41151 0.10142
# Poissons Ratio (z) = -0.18198 0.34229
#
# Static dielectric constant tensor:
#      x y z
#    x 9.625110 0.000000 0.000000 
#    y 0.000000 4.545310 0.000000 
#    z 0.000000 0.000000 4.190210 
# 
# 
# High freq. dielectric constant tensor:
#      x y z
#    x 2.115210 0.000000 0.000000 
#    y 0.000000 2.053540 0.000000 
#    z 0.000000 0.000000 2.052330 
# 
# From -- ./inp_files/24358.got.cif
#   From: 2010.03.12/outbox.cif.g09.slc.cpg/sg73_13_cif.got.tgz:24358.got - 2010.04.16 15:25:48.
