data_PCOD8296751
_publ_section_title
;
Structure prediction by ZEFSAII (Michael W. Deem and Ramdas Pophale) SiO2 
 PCOD8296751
Probable space group: I B C A 
;
_chemical_formula_sum "Si O2"
_cell_formula_units_Z 88
_cell_length_a 17.571793
_cell_length_b 21.720235
_cell_length_c 9.778450
_cell_angle_alpha 90.000000
_cell_angle_beta 90.000000
_cell_angle_gamma 90.000000
_cell_volume 3732.077191
_symmetry_space_group_name_H-M "I B C A "
_symmetry_group_IT_number 73
_symmetry_cell_setting 'orthorhombic'
loop_
_space_group_symop_operation_xyz
x,y,z
-x,1/2-y,z
x,-y,1/2-z
1/2-x,y,-z
-x,-y,-z
x,1/2+y,-z
-x,y,1/2+z
1/2+x,-y,z
1/2+x,1/2+y,1/2+z
1/2-x,-y,1/2+z
1/2+x,1/2-y,-z
-x,1/2+y,1/2-z
1/2-x,1/2-y,1/2-z
1/2+x,y,1/2-z
1/2-x,1/2+y,z
x,1/2-y,1/2+z
loop_
_atom_site_type_symbol
_atom_site_label
_atom_site_fract_x
_atom_site_fract_y
_atom_site_fract_z
Si Si1 0.166922 0.389035 0.643314
Si Si2 0.455758 0.809697 0.199891
Si Si3 0.470208 0.112425 0.032017
Si Si4 0.698605 0.749926 0.620584
Si Si5 0.613228 0.045858 0.120812
Si Si6 0.250000 0.517146 0.000000
O O1 0.103399 0.419251 0.538819
O O2 0.175751 0.320215 0.588461
O O3 0.140970 0.390646 0.802525
O O4 0.241412 0.433982 0.627770
O O5 0.500000 0.750000 0.256735
O O6 0.449090 0.858757 0.321631
O O7 0.372641 0.793779 0.143926
O O8 0.502401 0.835166 0.072032
O O9 0.533436 0.059043 0.047399
O O10 0.750000 0.777431 0.500000
O O11 0.750000 0.750000 0.750000
O O12 0.605671 0.000000 0.250000
O O13 0.675144 0.026238 0.005473
#
# Coordination Sequence:
#
# PCOD8296751 Si02
#       6
#    16  16  16  16  16   8
#     4  11  23  47  70 103 142 184 241 300 360 436
#     4  12  26  43  75 107 148 194 241 300 364 446
#     4  12  24  47  73 105 144 190 244 303 362 442
#     4  12  27  44  71 107 149 191 236 292 372 443
#     4  10  24  46  71 103 136 188 246 303 363 430
#     4  10  24  46  70  94 142 182 236 304 358 420
#
# _framework density 23.579363000000001
#
# number of rings (size 3 to 8) (size 9 to 14) (size 15 to 20)
#    0.000    0.727    4.545    1.636    5.091    4.364 
#    6.545    0.000    0.000    0.000    0.000    0.000 
#    0.000    0.000    0.000    0.000    0.000    0.000 
#
# Total GULP energy -545308.741351 kJ/mol
# GULP energy per Si atom -12393.380485 kJ/mol
# Density = 2.352569 g / cm^3
# Si number density = 23.579363 Si / 1000 Ang^3
#
#
#
# Elastic Constant Matrix: (Units=GPa)
#
#
# Indices 1 2 3 4 5 6 
#
# 1 147.1038 49.4964 63.9925 0.0000 0.0000 0.0000
# 2 49.4964 64.3703 22.1809 0.0000 0.0000 0.0000
# 3 63.9925 22.1809 114.0880 0.0000 0.0000 0.0000
# 4 0.0000 0.0000 0.0000 41.6989 0.0000 0.0000
# 5 0.0000 0.0000 0.0000 0.0000 46.9460 0.0000
# 6 0.0000 0.0000 0.0000 0.0000 0.0000 45.4443
#
#
#
# Elastic Compliance Matrix: (Units=1/GPa)
#
#
# Indices 1 2 3 4 5 6 
#
# 1 0.011319 -0.006984 -0.004991 0.000000 0.000000 0.000000
# 2 -0.006984 0.020959 -0.000158 0.000000 0.000000 0.000000
# 3 -0.004991 -0.000158 0.011595 0.000000 0.000000 0.000000
# 4 0.000000 0.000000 0.000000 0.023981 0.000000 0.000000
# 5 0.000000 0.000000 0.000000 0.000000 0.021301 0.000000
# 6 0.000000 0.000000 0.000000 0.000000 0.000000 0.022005
#
#
# Mechanical properties :
#
#
# Convention : Reuss Voigt Hill
#
# Bulk Modulus (GPa) = 50.99768 66.32241 58.66005
# Shear Modulus (GPa) = 35.22060 39.47734 37.34897
#
# Velocity S-wave (km/s) = 3.86904 4.09618 3.98423
# Velocity P-wave (km/s) = 6.45247 7.11055 6.78949
#
# Compressibility (1/GPa) = 0.01960873
#
# Stress axis : x y z
#
# Youngs Moduli (GPa) = 88.34762 47.71126 86.24141
#
# Poissons Ratio (x) = 0.33320 0.43044
# Poissons Ratio (y) = 0.61699 0.01360
# Poissons Ratio (z) = 0.44095 0.00753
#
# Static dielectric constant tensor:
#      x y z
#    x 4.517350 0.000000 0.000000 
#    y 0.000000 4.368920 0.000000 
#    z 0.000000 0.000000 4.214740 
# 
# 
# High freq. dielectric constant tensor:
#      x y z
#    x 1.942320 0.000000 0.000000 
#    y 0.000000 1.939460 0.000000 
#    z 0.000000 0.000000 1.924500 
# 
# From -- ./inp_files/6304.got.cif
#   From: 2010.03.12/outbox.cif.g09.slc.cpg/sg73_4_cif.got.tgz:6304.got - 2010.04.16 15:25:48.
