data_PCOD8296646
_publ_section_title
;
Structure prediction by ZEFSAII (Michael W. Deem and Ramdas Pophale) SiO2 
 PCOD8296646
Probable space group: I B C A 
;
_chemical_formula_sum "Si O2"
_cell_formula_units_Z 48
_cell_length_a 8.143573
_cell_length_b 15.702667
_cell_length_c 12.683259
_cell_angle_alpha 90.000000
_cell_angle_beta 90.000000
_cell_angle_gamma 90.000000
_cell_volume 1621.882082
_symmetry_space_group_name_H-M "I B C A "
_symmetry_group_IT_number 73
_symmetry_cell_setting 'orthorhombic'
loop_
_space_group_symop_operation_xyz
x,y,z
-x,1/2-y,z
x,-y,1/2-z
1/2-x,y,-z
-x,-y,-z
x,1/2+y,-z
-x,y,1/2+z
1/2+x,-y,z
1/2+x,1/2+y,1/2+z
1/2-x,-y,1/2+z
1/2+x,1/2-y,-z
-x,1/2+y,1/2-z
1/2-x,1/2-y,1/2-z
1/2+x,y,1/2-z
1/2-x,1/2+y,z
x,1/2-y,1/2+z
loop_
_atom_site_type_symbol
_atom_site_label
_atom_site_fract_x
_atom_site_fract_y
_atom_site_fract_z
Si Si1 0.335605 0.383873 0.809606
Si Si2 0.871883 0.032312 0.583224
Si Si3 0.818086 0.715448 0.610427
O O1 0.210169 0.454357 0.851807
O O2 0.525482 0.405521 0.837027
O O3 0.315170 0.373224 0.681374
O O4 0.302863 0.288935 0.849462
O O5 0.750000 0.079320 0.500000
O O6 0.000000 0.000000 0.500000
O O7 0.750000 0.686364 0.500000
O O8 0.000000 0.750000 0.605971
#
# Coordination Sequence:
#
# PCOD8296646 Si02
#       3
#    16  16  16
#     4  10  23  49  84 124 164 218 285 351 424 508
#     4   9  18  42  84 129 171 214 268 341 423 505
#     4  11  26  53  82 114 165 225 287 351 423 507
#
# _framework density 29.595245999999999
#
# number of rings (size 3 to 8) (size 9 to 14) (size 15 to 20)
#    0.000    2.000    0.000    3.000    0.000    5.333 
#    0.000   46.667    0.000   16.000    0.000    0.000 
#    0.000    0.000    0.000    0.000    0.000    0.000 
#
# Total GULP energy -297332.110896 kJ/mol
# GULP energy per Si atom -12388.837954 kJ/mol
# Density = 2.952789 g / cm^3
# Si number density = 29.595246 Si / 1000 Ang^3
#
#
#
# Elastic Constant Matrix: (Units=GPa)
#
#
# Indices 1 2 3 4 5 6 
#
# 1 223.6872 84.1216 109.6942 0.0000 0.0000 0.0000
# 2 84.1216 221.6364 97.5665 0.0000 0.0000 0.0000
# 3 109.6942 97.5665 290.0360 0.0000 0.0000 0.0000
# 4 0.0000 0.0000 0.0000 34.7784 0.0000 0.0000
# 5 0.0000 0.0000 0.0000 0.0000 55.8843 0.0000
# 6 0.0000 0.0000 0.0000 0.0000 0.0000 73.8855
#
#
#
# Elastic Compliance Matrix: (Units=1/GPa)
#
#
# Indices 1 2 3 4 5 6 
#
# 1 0.005869 -0.001468 -0.001726 0.000000 0.000000 0.000000
# 2 -0.001468 0.005663 -0.001350 0.000000 0.000000 0.000000
# 3 -0.001726 -0.001350 0.004555 0.000000 0.000000 0.000000
# 4 0.000000 0.000000 0.000000 0.028754 0.000000 0.000000
# 5 0.000000 0.000000 0.000000 0.000000 0.017894 0.000000
# 6 0.000000 0.000000 0.000000 0.000000 0.000000 0.013534
#
#
# Mechanical properties :
#
#
# Convention : Reuss Voigt Hill
#
# Bulk Modulus (GPa) = 142.86585 146.45825 144.66205
# Shear Modulus (GPa) = 57.01943 62.50811 59.76377
#
# Velocity S-wave (km/s) = 4.39411 4.60074 4.49862
# Velocity P-wave (km/s) = 8.60943 8.82139 8.71606
#
# Compressibility (1/GPa) = 0.00699957
#
# Stress axis : x y z
#
# Youngs Moduli (GPa) = 170.39030 176.57720 219.55209
#
# Poissons Ratio (x) = 0.25917 0.37893
# Poissons Ratio (y) = 0.25009 0.29639
# Poissons Ratio (z) = 0.29408 0.23837
#
# Static dielectric constant tensor:
#      x y z
#    x 7.486920 0.000000 0.000000 
#    y 0.000000 5.625750 0.000000 
#    z 0.000000 0.000000 6.839850 
# 
# 
# High freq. dielectric constant tensor:
#      x y z
#    x 2.233060 0.000000 0.000000 
#    y 0.000000 2.253680 0.000000 
#    z 0.000000 0.000000 2.237120 
# 
# From -- ./inp_files/15332.got.cif
#   From: 2010.03.12/outbox.cif.g09.slc.cpg/sg73_8_cif.got.tgz:15332.got - 2010.04.16 15:25:48.
