data_PCOD8296189
_publ_section_title
;
Structure prediction by ZEFSAII (Michael W. Deem and Ramdas Pophale) SiO2 
 PCOD8296189
Probable space group: I B C A 
;
_chemical_formula_sum "Si O2"
_cell_formula_units_Z 64
_cell_length_a 10.071613
_cell_length_b 21.292543
_cell_length_c 12.996349
_cell_angle_alpha 90.000000
_cell_angle_beta 90.000000
_cell_angle_gamma 90.000000
_cell_volume 2787.070330
_symmetry_space_group_name_H-M "I B C A "
_symmetry_group_IT_number 73
_symmetry_cell_setting 'orthorhombic'
loop_
_space_group_symop_operation_xyz
x,y,z
-x,1/2-y,z
x,-y,1/2-z
1/2-x,y,-z
-x,-y,-z
x,1/2+y,-z
-x,y,1/2+z
1/2+x,-y,z
1/2+x,1/2+y,1/2+z
1/2-x,-y,1/2+z
1/2+x,1/2-y,-z
-x,1/2+y,1/2-z
1/2-x,1/2-y,1/2-z
1/2+x,y,1/2-z
1/2-x,1/2+y,z
x,1/2-y,1/2+z
loop_
_atom_site_type_symbol
_atom_site_label
_atom_site_fract_x
_atom_site_fract_y
_atom_site_fract_z
Si Si1 0.685171 0.055320 0.403561
Si Si2 0.650791 0.749383 0.904024
Si Si3 0.907449 0.961171 0.348776
Si Si4 0.767401 0.149167 0.239665
O O1 0.750000 0.093515 0.500000
O O2 0.532696 0.037074 0.426868
O O3 0.682598 0.096809 0.300488
O O4 0.775857 0.992742 0.395669
O O5 0.500000 0.750000 0.946418
O O6 0.676666 0.684515 0.843506
O O7 0.666229 0.804645 0.821569
O O8 0.750000 0.756993 0.000000
O O9 0.880642 0.888101 0.322606
O O10 0.955172 0.000000 0.250000
#
# Coordination Sequence:
#
# PCOD8296189 Si02
#       4
#    16  16  16  16
#     4  11  22  38  63  94 128 164 206 253 307 368
#     4  11  25  43  66  94 124 165 214 265 321 378
#     4  10  21  39  62  90 126 166 205 252 308 369
#     4  10  23  42  65  90 126 167 211 259 311 373
#
# _framework density 22.963180000000001
#
# number of rings (size 3 to 8) (size 9 to 14) (size 15 to 20)
#    0.000    1.500    0.000    5.250    0.000   11.000 
#    0.000    0.000    0.000    0.000    0.000    0.000 
#    0.000    0.000    0.000    0.000    0.000    0.000 
#
# Total GULP energy -396698.102138 kJ/mol
# GULP energy per Si atom -12396.815692 kJ/mol
# Density = 2.291092 g / cm^3
# Si number density = 22.963180 Si / 1000 Ang^3
#
#
#
# Elastic Constant Matrix: (Units=GPa)
#
#
# Indices 1 2 3 4 5 6 
#
# 1 202.1245 74.0643 69.7815 0.0000 0.0000 0.0000
# 2 74.0643 119.3152 36.8927 0.0000 0.0000 0.0000
# 3 69.7815 36.8927 95.2174 0.0001 0.0000 0.0000
# 4 0.0000 0.0000 0.0001 27.7137 0.0000 0.0000
# 5 0.0000 0.0000 0.0000 0.0000 38.7520 0.0000
# 6 0.0000 0.0000 0.0000 0.0000 0.0000 16.8919
#
#
#
# Elastic Compliance Matrix: (Units=1/GPa)
#
#
# Indices 1 2 3 4 5 6 
#
# 1 0.007697 -0.003446 -0.004305 0.000000 0.000000 0.000000
# 2 -0.003446 0.011065 -0.001762 0.000000 0.000000 0.000000
# 3 -0.004305 -0.001762 0.014340 0.000000 0.000000 0.000000
# 4 0.000000 0.000000 0.000000 0.036083 0.000000 0.000000
# 5 0.000000 0.000000 0.000000 0.000000 0.025805 0.000000
# 6 0.000000 0.000000 0.000000 0.000000 0.000000 0.059200
#
#
# Mechanical properties :
#
#
# Convention : Reuss Voigt Hill
#
# Bulk Modulus (GPa) = 71.04606 86.45934 78.75270
# Shear Modulus (GPa) = 28.10433 32.39942 30.25188
#
# Velocity S-wave (km/s) = 3.50220 3.76031 3.63355
# Velocity P-wave (km/s) = 6.88187 7.52238 7.20925
#
# Compressibility (1/GPa) = 0.01407538
#
# Stress axis : x y z
#
# Youngs Moduli (GPa) = 129.92608 90.37339 69.73517
#
# Poissons Ratio (x) = 0.31147 0.30023
# Poissons Ratio (y) = 0.44779 0.12284
# Poissons Ratio (z) = 0.55937 0.15919
#
# Static dielectric constant tensor:
#      x y z
#    x 3.924340 0.000000 0.000000 
#    y 0.000000 4.183900 0.000000 
#    z 0.000000 0.000000 4.325150 
# 
# 
# High freq. dielectric constant tensor:
#      x y z
#    x 1.907300 0.000000 0.000000 
#    y 0.000000 1.907690 0.000000 
#    z 0.000000 0.000000 1.911080 
# 
# From -- ./inp_files/6836.got.cif
#   From: 2010.03.12/outbox.cif.g09.slc.cpg/sg73_4_cif.got.tgz:6836.got - 2010.04.16 15:25:48.
