data_PCOD8296832
_publ_section_title
;
Structure prediction by ZEFSAII (Michael W. Deem and Ramdas Pophale) SiO2 
 PCOD8296832
Probable space group: I B C A 
;
_chemical_formula_sum "Si O2"
_cell_formula_units_Z 112
_cell_length_a 12.900281
_cell_length_b 14.162351
_cell_length_c 27.101954
_cell_angle_alpha 90.000000
_cell_angle_beta 90.000000
_cell_angle_gamma 90.000000
_cell_volume 4951.481126
_symmetry_space_group_name_H-M "I B C A "
_symmetry_group_IT_number 73
_symmetry_cell_setting 'orthorhombic'
loop_
_space_group_symop_operation_xyz
x,y,z
-x,1/2-y,z
x,-y,1/2-z
1/2-x,y,-z
-x,-y,-z
x,1/2+y,-z
-x,y,1/2+z
1/2+x,-y,z
1/2+x,1/2+y,1/2+z
1/2-x,-y,1/2+z
1/2+x,1/2-y,-z
-x,1/2+y,1/2-z
1/2-x,1/2-y,1/2-z
1/2+x,y,1/2-z
1/2-x,1/2+y,z
x,1/2-y,1/2+z
loop_
_atom_site_type_symbol
_atom_site_label
_atom_site_fract_x
_atom_site_fract_y
_atom_site_fract_z
Si Si1 0.101132 0.187157 0.392589
Si Si2 0.846894 0.556707 0.703592
Si Si3 0.769525 0.161267 0.442583
Si Si4 0.552973 0.534341 0.400488
Si Si5 0.950015 0.852812 0.888705
Si Si6 0.875848 0.425106 0.212482
Si Si7 0.620174 0.767312 0.287120
O O1 0.181871 0.236105 0.430023
O O2 0.153455 0.181775 0.338598
O O3 0.000000 0.250000 0.386791
O O4 0.057801 0.086466 0.411423
O O5 0.893749 0.500000 0.750000
O O6 0.923059 0.543698 0.657640
O O7 0.728827 0.523069 0.692282
O O8 0.828566 0.665564 0.717013
O O9 0.750000 0.157846 0.500000
O O10 0.850340 0.077091 0.430373
O O11 0.663322 0.147193 0.412881
O O12 0.529545 0.425663 0.416077
O O13 0.946807 0.893372 0.833131
O O14 0.000000 0.750000 0.890974
O O15 0.932185 0.500000 0.250000
O O16 0.843786 0.331249 0.242054
O O17 0.500000 0.750000 0.283126
#
# Coordination Sequence:
#
# PCOD8296832 Si02
#       7
#    16  16  16  16  16  16  16
#     4   9  18  40  73 100 132 182 230 280 348 432
#     4  11  23  38  60  96 137 187 238 280 336 424
#     4  11  25  50  77 107 139 177 240 306 371 435
#     4  11  23  46  71 102 144 191 233 285 361 435
#     4  12  28  46  69 109 150 185 242 306 355 424
#     4  11  24  40  61  98 142 190 234 287 346 418
#     4  11  19  34  60  93 133 180 229 274 340 414
#
# _framework density 22.619494
#
# number of rings (size 3 to 8) (size 9 to 14) (size 15 to 20)
#    0.000    1.143    5.714    1.714    4.000    3.429 
#    2.571    1.429    0.000    0.000    0.000    0.000 
#    0.000    0.000    0.000    0.000    0.000    0.000 
#
# Total GULP energy -693983.203061 kJ/mol
# GULP energy per Si atom -12392.557198 kJ/mol
# Density = 2.256801 g / cm^3
# Si number density = 22.619494 Si / 1000 Ang^3
#
#
#
# Elastic Constant Matrix: (Units=GPa)
#
#
# Indices 1 2 3 4 5 6 
#
# 1 116.0209 65.9503 56.1763 0.0000 0.0000 0.0000
# 2 65.9503 141.4533 39.3041 0.0000 0.0000 0.0000
# 3 56.1763 39.3041 126.2198 0.0000 0.0000 0.0000
# 4 0.0000 0.0000 0.0000 25.4340 0.0000 0.0000
# 5 0.0000 0.0000 0.0000 0.0000 32.7487 0.0000
# 6 0.0000 0.0000 0.0000 0.0000 0.0000 1.3270
#
#
#
# Elastic Compliance Matrix: (Units=1/GPa)
#
#
# Indices 1 2 3 4 5 6 
#
# 1 0.013728 -0.005148 -0.004507 0.000000 0.000000 0.000000
# 2 -0.005148 0.009670 -0.000720 0.000000 0.000000 0.000000
# 3 -0.004507 -0.000720 0.010153 0.000000 0.000000 0.000000
# 4 0.000000 0.000000 0.000000 0.039318 0.000000 0.000000
# 5 0.000000 0.000000 0.000000 0.000000 0.030536 0.000000
# 6 0.000000 0.000000 0.000000 0.000000 0.000000 0.753597
#
#
# Mechanical properties :
#
#
# Convention : Reuss Voigt Hill
#
# Bulk Modulus (GPa) = 78.12016 78.50617 78.31317
# Shear Modulus (GPa) = 5.66883 26.71948 16.19416
#
# Velocity S-wave (km/s) = 1.58481 3.44067 2.67860
# Velocity P-wave (km/s) = 6.16121 7.11105 6.65310
#
# Compressibility (1/GPa) = 0.01280079
#
# Stress axis : x y z
#
# Youngs Moduli (GPa) = 72.84635 103.41608 98.49701
#
# Poissons Ratio (x) = 0.53239 0.44389
# Poissons Ratio (y) = 0.37502 0.07090
# Poissons Ratio (z) = 0.32829 0.07445
#
# Static dielectric constant tensor:
#      x y z
#    x 4.044160 0.000000 0.000000 
#    y 0.000000 4.609380 0.000000 
#    z 0.000000 0.000000 3.956400 
# 
# 
# High freq. dielectric constant tensor:
#      x y z
#    x 1.903720 0.000000 0.000000 
#    y 0.000000 1.895040 0.000000 
#    z 0.000000 0.000000 1.860730 
# 
# From -- ./inp_files/32179.got.cif
#   From: 2010.03.12/outbox.cif.g09.slc.cpg/sg73_17_cif.got.tgz:32179.got - 2010.04.16 15:25:48.
