data_PCOD8296337
_publ_section_title
;
Structure prediction by ZEFSAII (Michael W. Deem and Ramdas Pophale) SiO2 
 PCOD8296337
Probable space group: I B C A 
;
_chemical_formula_sum "Si O2"
_cell_formula_units_Z 120
_cell_length_a 24.337734
_cell_length_b 9.200034
_cell_length_c 28.049921
_cell_angle_alpha 90.000000
_cell_angle_beta 90.000000
_cell_angle_gamma 90.000000
_cell_volume 6280.601158
_symmetry_space_group_name_H-M "I B C A "
_symmetry_group_IT_number 73
_symmetry_cell_setting 'orthorhombic'
loop_
_space_group_symop_operation_xyz
x,y,z
-x,1/2-y,z
x,-y,1/2-z
1/2-x,y,-z
-x,-y,-z
x,1/2+y,-z
-x,y,1/2+z
1/2+x,-y,z
1/2+x,1/2+y,1/2+z
1/2-x,-y,1/2+z
1/2+x,1/2-y,-z
-x,1/2+y,1/2-z
1/2-x,1/2-y,1/2-z
1/2+x,y,1/2-z
1/2-x,1/2+y,z
x,1/2-y,1/2+z
loop_
_atom_site_type_symbol
_atom_site_label
_atom_site_fract_x
_atom_site_fract_y
_atom_site_fract_z
Si Si1 0.622259 0.892114 0.684556
Si Si2 0.062848 0.770081 0.901679
Si Si3 0.588728 0.942782 0.400964
Si Si4 0.727971 0.705125 0.697365
Si Si5 0.820158 0.109646 0.828968
Si Si6 0.458771 0.869563 0.995091
Si Si7 0.401097 0.308601 0.716378
Si Si8 0.000000 0.750000 0.652185
O O1 0.590139 0.883256 0.634652
O O2 0.677277 0.801826 0.681984
O O3 0.585163 0.825774 0.727677
O O4 0.637039 0.058978 0.696915
O O5 0.090249 0.614709 0.895070
O O6 0.000000 0.750000 0.888695
O O7 0.070513 0.830058 0.955218
O O8 0.646882 0.897571 0.378608
O O9 0.589087 0.900587 0.456800
O O10 0.533802 0.869615 0.378291
O O11 0.750000 0.750000 0.750000
O O12 0.776762 0.759670 0.662692
O O13 0.711141 0.536054 0.689702
O O14 0.866729 0.158716 0.790209
O O15 0.500000 0.750000 0.975055
O O16 0.500000 0.000000 0.000000
O O17 0.456889 0.327553 0.686875
#
# Coordination Sequence:
#
# PCOD8296337 Si02
#       8
#    16  16  16  16  16  16  16   8
#     4  11  23  40  60  91 126 163 216 258 311 372
#     4  11  22  37  63  95 130 164 208 254 315 375
#     4  11  21  40  61  97 125 168 207 262 318 386
#     4  12  23  39  64  90 122 162 211 268 305 362
#     4  11  24  40  64  91 124 163 215 263 316 371
#     4  11  21  36  63  95 127 165 206 256 315 375
#     4  10  23  39  57  92 125 175 205 248 313 373
#     4  10  22  38  58  84 140 170 208 242 316 382
#
# _framework density 19.106451
#
# number of rings (size 3 to 8) (size 9 to 14) (size 15 to 20)
#    0.000    1.067    6.000    2.000    2.800    0.000 
#    0.000    0.000    0.000    0.800    0.000    0.000 
#    0.000    0.000    0.000    0.000    0.000    0.000 
#
# Total GULP energy -743422.842492 kJ/mol
# GULP energy per Si atom -12390.380708 kJ/mol
# Density = 1.906296 g / cm^3
# Si number density = 19.106451 Si / 1000 Ang^3
#
#
#
# Elastic Constant Matrix: (Units=GPa)
#
#
# Indices 1 2 3 4 5 6 
#
# 1 91.7996 37.7362 54.0059 0.0000 0.0000 0.0000
# 2 37.7362 106.6646 36.5268 0.0000 0.0000 0.0000
# 3 54.0059 36.5268 125.7915 0.0000 0.0000 0.0000
# 4 0.0000 0.0000 0.0000 29.1365 0.0000 0.0000
# 5 0.0000 0.0000 0.0000 0.0000 30.9189 0.0000
# 6 0.0000 0.0000 0.0000 0.0000 0.0000 38.1750
#
#
#
# Elastic Compliance Matrix: (Units=1/GPa)
#
#
# Indices 1 2 3 4 5 6 
#
# 1 0.015736 -0.003613 -0.005707 0.000000 0.000000 0.000000
# 2 -0.003613 0.011240 -0.001713 0.000000 0.000000 0.000000
# 3 -0.005707 -0.001713 0.010897 0.000000 0.000000 0.000000
# 4 0.000000 0.000000 0.000000 0.034321 0.000000 0.000000
# 5 0.000000 0.000000 0.000000 0.000000 0.032343 0.000000
# 6 0.000000 0.000000 0.000000 0.000000 0.000000 0.026195
#
#
# Mechanical properties :
#
#
# Convention : Reuss Voigt Hill
#
# Bulk Modulus (GPa) = 63.25848 64.53260 63.89554
# Shear Modulus (GPa) = 31.63248 32.71188 32.17218
#
# Velocity S-wave (km/s) = 4.07331 4.14222 4.10791
# Velocity P-wave (km/s) = 7.43659 7.53167 7.48428
#
# Compressibility (1/GPa) = 0.01580816
#
# Stress axis : x y z
#
# Youngs Moduli (GPa) = 63.54981 88.96931 91.76796
#
# Poissons Ratio (x) = 0.32143 0.52369
# Poissons Ratio (y) = 0.22959 0.15717
# Poissons Ratio (z) = 0.36266 0.15238
#
# Static dielectric constant tensor:
#      x y z
#    x 3.589170 0.000000 0.000000 
#    y 0.000000 3.978130 0.000000 
#    z 0.000000 0.000000 2.779320 
# 
# 
# High freq. dielectric constant tensor:
#      x y z
#    x 1.728440 0.000000 0.000000 
#    y 0.000000 1.761410 0.000000 
#    z 0.000000 0.000000 1.732030 
# 
# From -- ./inp_files/31414.got.cif
#   From: 2010.03.12/outbox.cif.g09.slc.cpg/sg73_16_cif.got.tgz:31414.got - 2010.04.16 15:25:48.
