data_PCOD8296905
_publ_section_title
;
Structure prediction by ZEFSAII (Michael W. Deem and Ramdas Pophale) SiO2 
 PCOD8296905
Probable space group: I B C A 
;
_chemical_formula_sum "Si O2"
_cell_formula_units_Z 120
_cell_length_a 24.518399
_cell_length_b 17.846166
_cell_length_c 12.833730
_cell_angle_alpha 90.000000
_cell_angle_beta 90.000000
_cell_angle_gamma 90.000000
_cell_volume 5615.519437
_symmetry_space_group_name_H-M "I B C A "
_symmetry_group_IT_number 73
_symmetry_cell_setting 'orthorhombic'
loop_
_space_group_symop_operation_xyz
x,y,z
-x,1/2-y,z
x,-y,1/2-z
1/2-x,y,-z
-x,-y,-z
x,1/2+y,-z
-x,y,1/2+z
1/2+x,-y,z
1/2+x,1/2+y,1/2+z
1/2-x,-y,1/2+z
1/2+x,1/2-y,-z
-x,1/2+y,1/2-z
1/2-x,1/2-y,1/2-z
1/2+x,y,1/2-z
1/2-x,1/2+y,z
x,1/2-y,1/2+z
loop_
_atom_site_type_symbol
_atom_site_label
_atom_site_fract_x
_atom_site_fract_y
_atom_site_fract_z
Si Si1 0.803663 0.599067 0.436771
Si Si2 0.982889 0.925831 0.937719
Si Si3 0.153668 0.057947 0.423921
Si Si4 0.724119 0.857366 0.283189
Si Si5 0.104820 0.679236 0.034873
Si Si6 0.577019 0.000000 0.250000
Si Si7 0.660297 0.705148 0.252419
Si Si8 0.588951 0.169359 0.939044
O O1 0.750000 0.618113 0.500000
O O2 0.832752 0.522629 0.473280
O O3 0.789146 0.591646 0.316228
O O4 0.845014 0.667781 0.454495
O O5 0.958873 0.946628 0.824443
O O6 0.031774 0.869158 0.913122
O O7 0.940533 0.883351 0.012530
O O8 0.000000 0.000000 0.000000
O O9 0.209848 0.096075 0.386519
O O10 0.113059 0.052986 0.324684
O O11 0.127903 0.105879 0.515484
O O12 0.684980 0.785145 0.283262
O O13 0.788401 0.843214 0.286666
O O14 0.129634 0.668039 0.149687
O O15 0.080628 0.762801 0.021081
O O16 0.614808 0.706785 0.163199
#
# Coordination Sequence:
#
# PCOD8296905 Si02
#       8
#    16  16  16  16  16   8  16  16
#     4  12  23  41  68 102 142 189 228 287 345 428
#     4  12  27  49  71 105 136 183 236 293 355 409
#     4  12  24  45  70 100 142 186 240 278 351 429
#     4  11  22  44  68 104 140 187 230 283 358 424
#     4  12  24  48  70  99 141 181 235 286 355 420
#     4  12  24  46  78  92 140 190 230 290 348 420
#     4  11  26  41  72 105 144 179 228 296 356 418
#     4  12  27  46  69 104 136 182 239 291 347 420
#
# _framework density 21.369351000000002
#
# number of rings (size 3 to 8) (size 9 to 14) (size 15 to 20)
#    0.000    0.267    8.000    0.400    3.733    0.000 
#    0.000    1.333    0.000    0.000    0.000    0.000 
#    0.000    0.000    0.000    0.000    0.000    0.000 
#
# Total GULP energy -744131.780211 kJ/mol
# GULP energy per Si atom -12402.196337 kJ/mol
# Density = 2.132071 g / cm^3
# Si number density = 21.369351 Si / 1000 Ang^3
#
#
#
# Elastic Constant Matrix: (Units=GPa)
#
#
# Indices 1 2 3 4 5 6 
#
# 1 126.6342 48.7187 37.4560 0.0000 0.0000 0.0000
# 2 48.7187 101.1806 6.6582 0.0000 0.0000 0.0000
# 3 37.4560 6.6582 58.8851 0.0000 0.0000 0.0000
# 4 0.0000 0.0000 0.0000 53.8024 0.0000 0.0000
# 5 0.0000 0.0000 0.0000 0.0000 37.4924 0.0000
# 6 0.0000 0.0000 0.0000 0.0000 0.0000 44.8014
#
#
#
# Elastic Compliance Matrix: (Units=1/GPa)
#
#
# Indices 1 2 3 4 5 6 
#
# 1 0.012033 -0.005330 -0.007051 0.000000 0.000000 0.000000
# 2 -0.005330 0.012318 0.001997 0.000000 0.000000 0.000000
# 3 -0.007051 0.001997 0.021242 0.000000 0.000000 0.000000
# 4 0.000000 0.000000 0.000000 0.018587 0.000000 0.000000
# 5 0.000000 0.000000 0.000000 0.000000 0.026672 0.000000
# 6 0.000000 0.000000 0.000000 0.000000 0.000000 0.022321
#
#
# Mechanical properties :
#
#
# Convention : Reuss Voigt Hill
#
# Bulk Modulus (GPa) = 40.28163 52.48508 46.38336
# Shear Modulus (GPa) = 35.15813 40.14371 37.65092
#
# Velocity S-wave (km/s) = 4.06058 4.33894 4.20207
# Velocity P-wave (km/s) = 6.39340 7.05097 6.73022
#
# Compressibility (1/GPa) = 0.02482521
#
# Stress axis : x y z
#
# Youngs Moduli (GPa) = 83.10553 81.18065 47.07742
#
# Poissons Ratio (x) = 0.43268 0.33196
# Poissons Ratio (y) = 0.44294 -0.09403
# Poissons Ratio (z) = 0.58600 -0.16215
#
# Static dielectric constant tensor:
#      x y z
#    x 4.037200 0.000000 0.000000 
#    y 0.000000 3.841670 0.000000 
#    z 0.000000 0.000000 3.792340 
# 
# 
# High freq. dielectric constant tensor:
#      x y z
#    x 1.848380 0.000000 0.000000 
#    y 0.000000 1.845750 0.000000 
#    z 0.000000 0.000000 1.833060 
# 
# From -- ./inp_files/19515.got.cif
#   From: 2010.03.12/outbox.cif.g09.slc.cpg/sg73_10_cif.got.tgz:19515.got - 2010.04.16 15:25:48.
