data_PCOD8296024
_publ_section_title
;
Structure prediction by ZEFSAII (Michael W. Deem and Ramdas Pophale) SiO2 
 PCOD8296024
Probable space group: I B C A 
;
_chemical_formula_sum "Si O2"
_cell_formula_units_Z 64
_cell_length_a 17.761770
_cell_length_b 17.651505
_cell_length_c 9.721577
_cell_angle_alpha 90.000000
_cell_angle_beta 90.000000
_cell_angle_gamma 90.000000
_cell_volume 3047.927992
_symmetry_space_group_name_H-M "I B C A "
_symmetry_group_IT_number 73
_symmetry_cell_setting 'orthorhombic'
loop_
_space_group_symop_operation_xyz
x,y,z
-x,1/2-y,z
x,-y,1/2-z
1/2-x,y,-z
-x,-y,-z
x,1/2+y,-z
-x,y,1/2+z
1/2+x,-y,z
1/2+x,1/2+y,1/2+z
1/2-x,-y,1/2+z
1/2+x,1/2-y,-z
-x,1/2+y,1/2-z
1/2-x,1/2-y,1/2-z
1/2+x,y,1/2-z
1/2-x,1/2+y,z
x,1/2-y,1/2+z
loop_
_atom_site_type_symbol
_atom_site_label
_atom_site_fract_x
_atom_site_fract_y
_atom_site_fract_z
Si Si1 0.780818 0.857670 0.356886
Si Si2 0.564811 0.085174 0.782694
Si Si3 0.187432 0.185566 0.109633
Si Si4 0.972688 0.835744 0.006854
O O1 0.750000 0.891504 0.500000
O O2 0.844515 0.911514 0.293175
O O3 0.709442 0.850968 0.255603
O O4 0.818898 0.775937 0.379780
O O5 0.531013 0.110130 0.928924
O O6 0.532687 0.140453 0.665512
O O7 0.540310 0.000000 0.750000
O O8 0.107698 0.152692 0.065297
O O9 0.250000 0.161328 0.000000
O O10 0.000000 0.750000 0.001297
#
# Coordination Sequence:
#
# PCOD8296024 Si02
#       4
#    16  16  16  16
#     4  10  22  39  67  95 132 167 224 279 330 391
#     4  12  27  46  64 102 143 178 217 277 349 405
#     4  10  20  40  67  99 125 169 226 285 318 383
#     4  12  25  43  73  99 131 179 234 276 329 397
#
# _framework density 20.997872000000001
#
# number of rings (size 3 to 8) (size 9 to 14) (size 15 to 20)
#    0.000    1.000    5.000    1.500    3.500    0.000 
#    4.500    0.000    0.000    0.000    0.000    0.000 
#    0.000    0.000    0.000    0.000    0.000    0.000 
#
# Total GULP energy -397023.937361 kJ/mol
# GULP energy per Si atom -12406.998043 kJ/mol
# Density = 2.095008 g / cm^3
# Si number density = 20.997872 Si / 1000 Ang^3
#
#
#
# Elastic Constant Matrix: (Units=GPa)
#
#
# Indices 1 2 3 4 5 6 
#
# 1 91.7445 24.7542 28.3264 0.0000 0.0000 0.0000
# 2 24.7542 81.4201 24.6247 0.0000 0.0000 0.0000
# 3 28.3264 24.6247 128.1684 0.0000 0.0000 0.0000
# 4 0.0000 0.0000 0.0000 18.8523 0.0000 0.0000
# 5 0.0000 0.0000 0.0000 0.0000 37.5735 0.0000
# 6 0.0000 0.0000 0.0000 0.0000 0.0000 15.8279
#
#
#
# Elastic Compliance Matrix: (Units=1/GPa)
#
#
# Indices 1 2 3 4 5 6 
#
# 1 0.012404 -0.003124 -0.002141 0.000000 0.000000 0.000000
# 2 -0.003124 0.013826 -0.001966 0.000000 0.000000 0.000000
# 3 -0.002141 -0.001966 0.008653 0.000000 0.000000 0.000000
# 4 0.000000 0.000000 0.000000 0.053044 0.000000 0.000000
# 5 0.000000 0.000000 0.000000 0.000000 0.026615 0.000000
# 6 0.000000 0.000000 0.000000 0.000000 0.000000 0.063179
#
#
# Mechanical properties :
#
#
# Convention : Reuss Voigt Hill
#
# Bulk Modulus (GPa) = 48.96792 50.74928 49.85860
# Shear Modulus (GPa) = 25.12691 29.35925 27.24308
#
# Velocity S-wave (km/s) = 3.46300 3.74331 3.60588
# Velocity P-wave (km/s) = 6.27383 6.55015 6.41347
#
# Compressibility (1/GPa) = 0.02042153
#
# Stress axis : x y z
#
# Youngs Moduli (GPa) = 80.62094 72.32626 115.56418
#
# Poissons Ratio (x) = 0.22591 0.24745
# Poissons Ratio (y) = 0.25182 0.22721
# Poissons Ratio (z) = 0.17263 0.14220
#
# Static dielectric constant tensor:
#      x y z
#    x 3.798000 0.000000 0.000000 
#    y 0.000000 3.417540 0.000000 
#    z 0.000000 0.000000 3.983600 
# 
# 
# High freq. dielectric constant tensor:
#      x y z
#    x 1.829150 0.000000 0.000000 
#    y 0.000000 1.789640 0.000000 
#    z 0.000000 0.000000 1.839650 
# 
# From -- ./inp_files/5190.got.cif
#   From: 2010.03.12/outbox.cif.g09.slc.cpg/sg73_3_cif.got.tgz:5190.got - 2010.04.16 15:25:48.
