data_PCOD8296648
_publ_section_title
;
Structure prediction by ZEFSAII (Michael W. Deem and Ramdas Pophale) SiO2 
 PCOD8296648
Probable space group: I B C A 
;
_chemical_formula_sum "Si O2"
_cell_formula_units_Z 120
_cell_length_a 29.792575
_cell_length_b 24.420314
_cell_length_c 8.806302
_cell_angle_alpha 90.000000
_cell_angle_beta 90.000000
_cell_angle_gamma 90.000000
_cell_volume 6406.972503
_symmetry_space_group_name_H-M "I B C A "
_symmetry_group_IT_number 73
_symmetry_cell_setting 'orthorhombic'
loop_
_space_group_symop_operation_xyz
x,y,z
-x,1/2-y,z
x,-y,1/2-z
1/2-x,y,-z
-x,-y,-z
x,1/2+y,-z
-x,y,1/2+z
1/2+x,-y,z
1/2+x,1/2+y,1/2+z
1/2-x,-y,1/2+z
1/2+x,1/2-y,-z
-x,1/2+y,1/2-z
1/2-x,1/2-y,1/2-z
1/2+x,y,1/2-z
1/2-x,1/2+y,z
x,1/2-y,1/2+z
loop_
_atom_site_type_symbol
_atom_site_label
_atom_site_fract_x
_atom_site_fract_y
_atom_site_fract_z
Si Si1 0.453104 0.058213 0.174348
Si Si2 0.882453 0.362895 0.690808
Si Si3 0.500000 0.750000 0.039725
Si Si4 0.196432 0.699449 0.660244
Si Si5 0.294482 0.186086 0.310597
Si Si6 0.437649 0.269709 0.707692
Si Si7 0.545795 0.939576 0.187285
Si Si8 0.396717 0.651941 0.338181
O O1 0.408553 0.091033 0.218272
O O2 0.498866 0.083396 0.244275
O O3 0.446002 0.000000 0.250000
O O4 0.457362 0.055794 0.993659
O O5 0.828341 0.365507 0.718662
O O6 0.893249 0.304872 0.772917
O O7 0.896336 0.364809 0.514703
O O8 0.468050 0.711283 0.935842
O O9 0.532623 0.714580 0.145405
O O10 0.242409 0.669423 0.716772
O O11 0.193554 0.761917 0.709969
O O12 0.196056 0.704729 0.480718
O O13 0.153919 0.664579 0.719004
O O14 0.427321 0.205397 0.690116
O O15 0.584923 0.898170 0.238289
O O16 0.556665 0.000000 0.250000
#
# Coordination Sequence:
#
# PCOD8296648 Si02
#       8
#    16  16   8  16  16  16  16  16
#     4  11  24  41  61  82 110 146 188 232 277 328
#     4  11  22  35  56  81 113 147 188 230 275 332
#     4  10  24  34  44  66 116 150 184 214 276 324
#     4   9  18  33  53  80 114 149 184 227 277 332
#     4   9  18  33  53  80 114 149 184 227 277 332
#     4  11  22  34  47  76 108 150 181 224 265 332
#     4  11  24  41  61  82 110 146 188 232 277 328
#     4  11  22  35  56  81 113 147 188 230 275 332
#
# _framework density 18.729596000000001
#
# number of rings (size 3 to 8) (size 9 to 14) (size 15 to 20)
#    0.000    1.600    2.667    3.200    5.600    1.067 
#    0.000    0.000    0.000    0.800    0.000    0.000 
#    0.000    0.000    0.000    0.000    0.000    0.000 
#
# Total GULP energy -743482.395154 kJ/mol
# GULP energy per Si atom -12391.373253 kJ/mol
# Density = 1.868697 g / cm^3
# Si number density = 18.729596 Si / 1000 Ang^3
#
#
#
# Elastic Constant Matrix: (Units=GPa)
#
#
# Indices 1 2 3 4 5 6 
#
# 1 148.6514 47.0987 52.9775 0.0000 0.0000 0.0000
# 2 47.0987 64.6603 31.6884 0.0000 0.0000 0.0000
# 3 52.9775 31.6884 116.3559 0.0000 0.0000 0.0000
# 4 0.0000 0.0000 0.0000 24.2903 0.0000 0.0000
# 5 0.0000 0.0000 0.0000 0.0000 25.6431 0.0000
# 6 0.0000 0.0000 0.0000 0.0000 0.0000 23.9358
#
#
#
# Elastic Compliance Matrix: (Units=1/GPa)
#
#
# Indices 1 2 3 4 5 6 
#
# 1 0.009480 -0.005528 -0.002811 0.000000 0.000000 0.000000
# 2 -0.005528 0.021071 -0.003222 0.000000 0.000000 0.000000
# 3 -0.002811 -0.003222 0.010752 0.000000 0.000000 0.000000
# 4 0.000000 0.000000 0.000000 0.041169 0.000000 0.000000
# 5 0.000000 0.000000 0.000000 0.000000 0.038997 0.000000
# 6 0.000000 0.000000 0.000000 0.000000 0.000000 0.041778
#
#
# Mechanical properties :
#
#
# Convention : Reuss Voigt Hill
#
# Bulk Modulus (GPa) = 55.00004 65.91077 60.45540
# Shear Modulus (GPa) = 25.98370 27.96737 26.97554
#
# Velocity S-wave (km/s) = 3.72870 3.86841 3.79920
# Velocity P-wave (km/s) = 6.92580 7.43101 7.18285
#
# Compressibility (1/GPa) = 0.01818181
#
# Stress axis : x y z
#
# Youngs Moduli (GPa) = 105.48029 47.45900 93.01000
#
# Poissons Ratio (x) = 0.26235 0.26145
# Poissons Ratio (y) = 0.58309 0.29963
# Poissons Ratio (z) = 0.29651 0.15289
#
# Static dielectric constant tensor:
#      x y z
#    x 3.873380 0.000000 0.000000 
#    y 0.000000 3.108500 0.000000 
#    z 0.000000 0.000000 3.622350 
# 
# 
# High freq. dielectric constant tensor:
#      x y z
#    x 1.739230 0.000000 0.000000 
#    y 0.000000 1.685210 0.000000 
#    z 0.000000 0.000000 1.741540 
# 
# From -- ./inp_files/8571.got.cif
#   From: 2010.03.12/outbox.cif.g09.slc.cpg/sg73_5_cif.got.tgz:8571.got - 2010.04.16 15:25:48.
