data_PCOD8296689
_publ_section_title
;
Structure prediction by ZEFSAII (Michael W. Deem and Ramdas Pophale) SiO2 
 PCOD8296689
Probable space group: I B C A 
;
_chemical_formula_sum "Si O2"
_cell_formula_units_Z 72
_cell_length_a 8.891314
_cell_length_b 18.197092
_cell_length_c 20.250959
_cell_angle_alpha 90.000000
_cell_angle_beta 90.000000
_cell_angle_gamma 90.000000
_cell_volume 3276.525354
_symmetry_space_group_name_H-M "I B C A "
_symmetry_group_IT_number 73
_symmetry_cell_setting 'orthorhombic'
loop_
_space_group_symop_operation_xyz
x,y,z
-x,1/2-y,z
x,-y,1/2-z
1/2-x,y,-z
-x,-y,-z
x,1/2+y,-z
-x,y,1/2+z
1/2+x,-y,z
1/2+x,1/2+y,1/2+z
1/2-x,-y,1/2+z
1/2+x,1/2-y,-z
-x,1/2+y,1/2-z
1/2-x,1/2-y,1/2-z
1/2+x,y,1/2-z
1/2-x,1/2+y,z
x,1/2-y,1/2+z
loop_
_atom_site_type_symbol
_atom_site_label
_atom_site_fract_x
_atom_site_fract_y
_atom_site_fract_z
Si Si1 0.357812 0.196771 0.436763
Si Si2 0.550655 0.000000 0.250000
Si Si3 0.882056 0.036076 0.047014
Si Si4 0.677006 0.736316 0.321029
Si Si5 0.194260 0.930610 0.666243
O O1 0.500000 0.250000 0.443284
O O2 0.250000 0.206550 0.500000
O O3 0.430827 0.115475 0.424602
O O4 0.256216 0.209282 0.372182
O O5 0.649653 0.041514 0.303767
O O6 0.445401 0.060653 0.215974
O O7 0.833899 0.977342 0.101122
O O8 0.750000 0.059636 0.000000
O O9 0.000000 0.000000 0.000000
O O10 0.500000 0.750000 0.317566
O O11 0.750000 0.750000 0.250000
O O12 0.709287 0.654959 0.348878
#
# Coordination Sequence:
#
# PCOD8296689 Si02
#       5
#    16   8  16  16  16
#     4  11  28  48  74 105 148 191 247 302 376 443
#     4  10  24  42  70 102 136 186 240 286 364 428
#     4  11  27  45  73 104 142 187 248 296 360 445
#     4  12  28  46  75 108 151 191 244 306 379 446
#     4  11  25  43  74  99 145 185 241 299 362 438
#
# _framework density 21.974498000000001
#
# number of rings (size 3 to 8) (size 9 to 14) (size 15 to 20)
#    0.000    0.889    0.000    4.000   24.889    0.000 
#    0.000    0.000    0.000    0.000    0.000    0.000 
#    0.000    0.000    0.000    0.000    0.000    0.000 
#
# Total GULP energy -446429.383143 kJ/mol
# GULP energy per Si atom -12400.816198 kJ/mol
# Density = 2.192448 g / cm^3
# Si number density = 21.974498 Si / 1000 Ang^3
#
#
#
# Elastic Constant Matrix: (Units=GPa)
#
#
# Indices 1 2 3 4 5 6 
#
# 1 125.5328 40.4898 41.1364 0.0000 0.0000 0.0000
# 2 40.4898 182.1924 53.7045 0.0000 0.0000 0.0000
# 3 41.1364 53.7045 146.6682 0.0000 0.0000 0.0000
# 4 0.0000 0.0000 0.0000 38.2129 0.0000 0.0000
# 5 0.0000 0.0000 0.0000 0.0000 -156.6719 0.0000
# 6 0.0000 0.0000 0.0000 0.0000 0.0000 24.8600
#
#
#
# Elastic Compliance Matrix: (Units=1/GPa)
#
#
# Indices 1 2 3 4 5 6 
#
# 1 0.009089 -0.001422 -0.002029 0.000000 0.000000 0.000000
# 2 -0.001422 0.006375 -0.001936 0.000000 0.000000 0.000000
# 3 -0.002029 -0.001936 0.008096 0.000000 0.000000 0.000000
# 4 0.000000 0.000000 0.000000 0.026169 0.000000 0.000000
# 5 0.000000 0.000000 0.000000 0.000000 -0.006383 0.000000
# 6 0.000000 0.000000 0.000000 0.000000 0.000000 0.040225
#
#
# Mechanical properties :
#
#
# Convention : Reuss Voigt Hill
#
# Bulk Modulus (GPa) = 78.19769 80.56167 79.37968
# Shear Modulus (GPa) = 50.70617 2.55107 26.62862
#
# Velocity S-wave (km/s) = 4.80886 1.07863 3.48486
# Velocity P-wave (km/s) = 8.15453 6.18808 7.23839
#
# Compressibility (1/GPa) = 0.01278810
#
# Stress axis : x y z
#
# Youngs Moduli (GPa) = 110.01716 156.85609 123.52057
#
# Poissons Ratio (x) = 0.22305 0.25058
# Poissons Ratio (y) = 0.15645 0.23908
# Poissons Ratio (z) = 0.22319 0.30360
#
# Static dielectric constant tensor:
#      x y z
#    x 4.201800 0.000000 0.000000 
#    y 0.000000 4.145580 0.000000 
#    z 0.000000 0.000000 4.063980 
# 
# 
# High freq. dielectric constant tensor:
#      x y z
#    x 1.883830 0.000000 0.000000 
#    y 0.000000 1.880420 0.000000 
#    z 0.000000 0.000000 1.875850 
# 
# From -- ./inp_files/5333.got.cif
#   From: 2010.03.12/outbox.cif.g09.slc.cpg/sg73_3_cif.got.tgz:5333.got - 2010.04.16 15:25:48.
