data_PCOD8296902
_publ_section_title
;
Structure prediction by ZEFSAII (Michael W. Deem and Ramdas Pophale) SiO2 
 PCOD8296902
Probable space group: I B C A 
;
_chemical_formula_sum "Si O2"
_cell_formula_units_Z 88
_cell_length_a 22.467489
_cell_length_b 13.135913
_cell_length_c 13.671203
_cell_angle_alpha 90.000000
_cell_angle_beta 90.000000
_cell_angle_gamma 90.000000
_cell_volume 4034.795551
_symmetry_space_group_name_H-M "I B C A "
_symmetry_group_IT_number 73
_symmetry_cell_setting 'orthorhombic'
loop_
_space_group_symop_operation_xyz
x,y,z
-x,1/2-y,z
x,-y,1/2-z
1/2-x,y,-z
-x,-y,-z
x,1/2+y,-z
-x,y,1/2+z
1/2+x,-y,z
1/2+x,1/2+y,1/2+z
1/2-x,-y,1/2+z
1/2+x,1/2-y,-z
-x,1/2+y,1/2-z
1/2-x,1/2-y,1/2-z
1/2+x,y,1/2-z
1/2-x,1/2+y,z
x,1/2-y,1/2+z
loop_
_atom_site_type_symbol
_atom_site_label
_atom_site_fract_x
_atom_site_fract_y
_atom_site_fract_z
Si Si1 0.250000 0.502180 0.000000
Si Si2 0.836932 0.267393 0.177071
Si Si3 0.044249 0.839435 0.775144
Si Si4 0.652112 0.349244 0.028603
Si Si5 0.461536 0.529752 0.905527
Si Si6 0.214198 0.667358 0.634536
O O1 0.205145 0.575103 0.056770
O O2 0.211332 0.438383 0.922600
O O3 0.888633 0.204830 0.234146
O O4 0.861134 0.332217 0.086415
O O5 0.808708 0.346053 0.255041
O O6 0.783828 0.197508 0.134642
O O7 0.013497 0.894303 0.679947
O O8 0.000000 0.750000 0.808587
O O9 0.053247 0.920837 0.860792
O O10 0.594386 0.403857 0.066386
O O11 0.669333 0.243991 0.080012
O O12 0.500000 0.500000 0.000000
#
# Coordination Sequence:
#
# PCOD8296902 Si02
#       6
#     8  16  16  16  16  16
#     4  12  22  40  64  98 144 178 224 286 350 426
#     4  11  22  43  67  98 139 178 228 291 344 417
#     4  11  25  46  74 101 137 186 240 291 359 429
#     4  12  23  44  68 103 140 181 239 285 358 433
#     4  11  26  46  71 104 138 184 237 295 355 427
#     4  11  23  41  65 101 139 180 229 284 355 420
#
# _framework density 21.810275000000001
#
# number of rings (size 3 to 8) (size 9 to 14) (size 15 to 20)
#    0.000    0.727    5.455    2.182    0.000    4.364 
#    0.000    0.000    0.000    0.000    0.000    0.000 
#    0.000    0.000    0.000    0.000    0.000    0.000 
#
# Total GULP energy -545151.652580 kJ/mol
# GULP energy per Si atom -12389.810286 kJ/mol
# Density = 2.176063 g / cm^3
# Si number density = 21.810275 Si / 1000 Ang^3
#
#
#
# Elastic Constant Matrix: (Units=GPa)
#
#
# Indices 1 2 3 4 5 6 
#
# 1 82.8832 21.1076 17.2793 0.0000 0.0000 0.0000
# 2 21.1076 95.6348 34.5352 0.0000 0.0000 0.0000
# 3 17.2793 34.5352 113.9208 0.0000 0.0000 0.0000
# 4 0.0000 0.0000 0.0000 27.0462 0.0000 0.0000
# 5 0.0000 0.0000 0.0000 0.0000 38.3172 0.0000
# 6 0.0000 0.0000 0.0000 0.0000 0.0000 48.6926
#
#
#
# Elastic Compliance Matrix: (Units=1/GPa)
#
#
# Indices 1 2 3 4 5 6 
#
# 1 0.012936 -0.002410 -0.001231 0.000000 0.000000 0.000000
# 2 -0.002410 0.012191 -0.003330 0.000000 0.000000 0.000000
# 3 -0.001231 -0.003330 0.009974 0.000000 0.000000 0.000000
# 4 0.000000 0.000000 0.000000 0.036974 0.000000 0.000000
# 5 0.000000 0.000000 0.000000 0.000000 0.026098 0.000000
# 6 0.000000 0.000000 0.000000 0.000000 0.000000 0.020537
#
#
# Mechanical properties :
#
#
# Convention : Reuss Voigt Hill
#
# Bulk Modulus (GPa) = 47.26491 48.69810 47.98151
# Shear Modulus (GPa) = 35.78947 37.44564 36.61756
#
# Velocity S-wave (km/s) = 4.05525 4.14802 4.10190
# Velocity P-wave (km/s) = 6.60642 6.73186 6.66943
#
# Compressibility (1/GPa) = 0.02115734
#
# Stress axis : x y z
#
# Youngs Moduli (GPa) = 77.30522 82.02774 100.25742
#
# Poissons Ratio (x) = 0.19772 0.12345
# Poissons Ratio (y) = 0.18634 0.33387
# Poissons Ratio (z) = 0.09519 0.27316
#
# Static dielectric constant tensor:
#      x y z
#    x 3.633260 0.000000 0.000000 
#    y 0.000000 4.032810 0.000000 
#    z 0.000000 0.000000 4.360770 
# 
# 
# High freq. dielectric constant tensor:
#      x y z
#    x 1.845420 0.000000 0.000000 
#    y 0.000000 1.857210 0.000000 
#    z 0.000000 0.000000 1.875750 
# 
# From -- ./inp_files/19270.got.cif
#   From: 2010.03.12/outbox.cif.g09.slc.cpg/sg73_10_cif.got.tgz:19270.got - 2010.04.16 15:25:48.
