data_PCOD8296675
_publ_section_title
;
Structure prediction by ZEFSAII (Michael W. Deem and Ramdas Pophale) SiO2 
 PCOD8296675
Probable space group: I B C A 
;
_chemical_formula_sum "Si O2"
_cell_formula_units_Z 56
_cell_length_a 8.354015
_cell_length_b 24.691525
_cell_length_c 12.652208
_cell_angle_alpha 90.000000
_cell_angle_beta 90.000000
_cell_angle_gamma 90.000000
_cell_volume 2609.813585
_symmetry_space_group_name_H-M "I B C A "
_symmetry_group_IT_number 73
_symmetry_cell_setting 'orthorhombic'
loop_
_space_group_symop_operation_xyz
x,y,z
-x,1/2-y,z
x,-y,1/2-z
1/2-x,y,-z
-x,-y,-z
x,1/2+y,-z
-x,y,1/2+z
1/2+x,-y,z
1/2+x,1/2+y,1/2+z
1/2-x,-y,1/2+z
1/2+x,1/2-y,-z
-x,1/2+y,1/2-z
1/2-x,1/2-y,1/2-z
1/2+x,y,1/2-z
1/2-x,1/2+y,z
x,1/2-y,1/2+z
loop_
_atom_site_type_symbol
_atom_site_label
_atom_site_fract_x
_atom_site_fract_y
_atom_site_fract_z
Si Si1 0.744968 0.688075 0.619250
Si Si2 0.199008 0.957231 0.115591
Si Si3 0.666501 0.931331 0.830718
Si Si4 0.500000 0.750000 0.243275
O O1 0.750000 0.709070 0.500000
O O2 0.772677 0.624193 0.620616
O O3 0.574907 0.703144 0.670097
O O4 0.877272 0.719904 0.682871
O O5 0.314756 0.929940 0.203125
O O6 0.016364 0.942051 0.138421
O O7 0.219193 0.022145 0.121142
O O8 0.250000 0.935500 0.000000
#
# Coordination Sequence:
#
# PCOD8296675 Si02
#       4
#    16  16  16   8
#     4  11  23  43  66  90 123 162 202 258 312 361
#     4  11  23  40  61  91 132 166 203 255 304 365
#     4  11  23  39  62  93 125 165 212 247 304 379
#     4  10  24  42  64  94 120 154 212 258 306 372
#
# _framework density 21.457471999999999
#
# number of rings (size 3 to 8) (size 9 to 14) (size 15 to 20)
#    0.000    1.143    0.000    7.714    0.000    4.571 
#    0.000    7.143    0.000    0.000    0.000    0.000 
#    0.000    0.000    0.000    0.000    0.000    0.000 
#
# Total GULP energy -347294.503083 kJ/mol
# GULP energy per Si atom -12403.375110 kJ/mol
# Density = 2.140863 g / cm^3
# Si number density = 21.457472 Si / 1000 Ang^3
#
#
#
# Elastic Constant Matrix: (Units=GPa)
#
#
# Indices 1 2 3 4 5 6 
#
# 1 148.3781 61.0972 75.1196 0.0001 -0.0001 0.0000
# 2 61.0972 98.1554 32.6611 0.0001 -0.0001 0.0000
# 3 75.1196 32.6611 185.2770 0.0003 -0.0011 -0.0001
# 4 0.0001 0.0001 0.0003 32.9367 -0.0004 0.0000
# 5 -0.0001 -0.0001 -0.0011 -0.0004 -41.4260 0.0001
# 6 0.0000 0.0000 -0.0001 0.0000 0.0001 26.1578
#
#
#
# Elastic Compliance Matrix: (Units=1/GPa)
#
#
# Indices 1 2 3 4 5 6 
#
# 1 0.010737 -0.005561 -0.003373 0.000000 0.000000 0.000000
# 2 -0.005561 0.013703 -0.000161 0.000000 0.000000 0.000000
# 3 -0.003373 -0.000161 0.006793 0.000000 0.000000 0.000000
# 4 0.000000 0.000000 0.000000 0.030361 0.000000 0.000000
# 5 0.000000 0.000000 0.000000 0.000000 -0.024139 0.000000
# 6 0.000000 0.000000 0.000000 0.000000 0.000000 0.038230
#
#
# Mechanical properties :
#
#
# Convention : Reuss Voigt Hill
#
# Bulk Modulus (GPa) = 76.66667 85.50739 81.08703
# Shear Modulus (GPa) = 50.90510 21.06253 35.98381
#
# Velocity S-wave (km/s) = 4.87598 3.13644 4.09954
# Velocity P-wave (km/s) = 8.21629 7.28372 7.76402
#
# Compressibility (1/GPa) = 0.01304348
#
# Stress axis : x y z
#
# Youngs Moduli (GPa) = 93.13612 72.97733 147.20505
#
# Poissons Ratio (x) = 0.40582 0.49652
# Poissons Ratio (y) = 0.51792 0.02369
# Poissons Ratio (z) = 0.31414 0.01174
#
# Static dielectric constant tensor:
#      x y z
#    x 3.977330 0.000000 0.000000 
#    y 0.000000 3.860470 0.000000 
#    z 0.000000 0.000000 4.240560 
# 
# 
# High freq. dielectric constant tensor:
#      x y z
#    x 1.850650 0.000000 0.000000 
#    y 0.000000 1.833350 0.000000 
#    z 0.000000 0.000000 1.862470 
# 
# From -- ./inp_files/3842.got.cif
#   From: 2010.03.12/outbox.cif.g09.slc.cpg/sg73_2_cif.got.tgz:3842.got - 2010.04.16 15:25:48.
