data_PCOD8296116
_publ_section_title
;
Structure prediction by ZEFSAII (Michael W. Deem and Ramdas Pophale) SiO2 
 PCOD8296116
Probable space group: I B C A 
;
_chemical_formula_sum "Si O2"
_cell_formula_units_Z 80
_cell_length_a 12.766232
_cell_length_b 25.367670
_cell_length_c 12.766169
_cell_angle_alpha 90.000000
_cell_angle_beta 90.000000
_cell_angle_gamma 90.000000
_cell_volume 4134.318220
_symmetry_space_group_name_H-M "I B C A "
_symmetry_group_IT_number 73
_symmetry_cell_setting 'orthorhombic'
loop_
_space_group_symop_operation_xyz
x,y,z
-x,1/2-y,z
x,-y,1/2-z
1/2-x,y,-z
-x,-y,-z
x,1/2+y,-z
-x,y,1/2+z
1/2+x,-y,z
1/2+x,1/2+y,1/2+z
1/2-x,-y,1/2+z
1/2+x,1/2-y,-z
-x,1/2+y,1/2-z
1/2-x,1/2-y,1/2-z
1/2+x,y,1/2-z
1/2-x,1/2+y,z
x,1/2-y,1/2+z
loop_
_atom_site_type_symbol
_atom_site_label
_atom_site_fract_x
_atom_site_fract_y
_atom_site_fract_z
Si Si1 0.129968 0.456684 0.518234
Si Si2 0.768234 0.293317 0.120032
Si Si3 0.032230 0.038545 0.344682
Si Si4 0.594682 0.288545 0.282232
Si Si5 0.564097 0.125000 0.314097
O O1 0.250000 0.442094 0.500000
O O2 0.118723 0.513643 0.575888
O O3 0.069223 0.414127 0.588195
O O4 0.077086 0.455067 0.404957
O O5 0.654957 0.294933 0.172915
O O6 0.825888 0.236357 0.131277
O O7 0.838195 0.335873 0.180778
O O8 0.750000 0.307907 0.000000
O O9 0.072066 0.094037 0.296986
O O10 0.006786 0.000000 0.250000
O O11 0.500000 0.250000 0.256787
O O12 0.546985 0.344036 0.322068
#
# Coordination Sequence:
#
# PCOD8296116 Si02
#       5
#    16  16  16  16  16
#     4  10  21  39  60  87 117 161 194 241 303 356
#     4  10  21  39  60  87 117 161 194 241 303 356
#     4   9  21  40  57  85 122 152 194 246 294 349
#     4   9  21  40  57  85 122 152 194 246 294 349
#     4  10  21  36  59  90 114 152 204 238 295 352
#
# _framework density 19.350228000000001
#
# number of rings (size 3 to 8) (size 9 to 14) (size 15 to 20)
#    0.000    2.400    0.000    0.600    5.600    4.800 
#   14.400    0.000    0.000    0.000    0.000    0.000 
#    0.000    0.000    0.000    0.000    0.000    0.000 
#
# Total GULP energy -495925.465165 kJ/mol
# GULP energy per Si atom -12398.136629 kJ/mol
# Density = 1.930619 g / cm^3
# Si number density = 19.350228 Si / 1000 Ang^3
#
#
#
# Elastic Constant Matrix: (Units=GPa)
#
#
# Indices 1 2 3 4 5 6 
#
# 1 123.2465 46.3139 59.7808 -0.0002 0.0000 0.0000
# 2 46.3139 104.3822 46.3118 -0.0011 0.0002 0.0000
# 3 59.7808 46.3118 123.2376 -0.0019 0.0008 0.0001
# 4 -0.0002 -0.0011 -0.0019 23.5695 0.0004 0.0000
# 5 0.0000 0.0002 0.0008 0.0004 27.1001 -0.0001
# 6 0.0000 0.0000 0.0001 0.0000 -0.0001 23.5704
#
#
#
# Elastic Compliance Matrix: (Units=1/GPa)
#
#
# Indices 1 2 3 4 5 6 
#
# 1 0.011401 -0.003126 -0.004356 0.000000 0.000000 0.000000
# 2 -0.003126 0.012354 -0.003126 0.000000 0.000000 0.000000
# 3 -0.004356 -0.003126 0.011402 0.000001 0.000000 0.000000
# 4 0.000000 0.000000 0.000001 0.042428 -0.000001 0.000000
# 5 0.000000 0.000000 0.000000 -0.000001 0.036900 0.000000
# 6 0.000000 0.000000 0.000000 0.000000 0.000000 0.042426
#
#
# Mechanical properties :
#
#
# Convention : Reuss Voigt Hill
#
# Bulk Modulus (GPa) = 71.72879 72.85325 72.29102
# Shear Modulus (GPa) = 27.35600 28.07867 27.71734
#
# Velocity S-wave (km/s) = 3.76404 3.81343 3.78882
# Velocity P-wave (km/s) = 7.48598 7.55786 7.52200
#
# Compressibility (1/GPa) = 0.01394140
#
# Stress axis : x y z
#
# Youngs Moduli (GPa) = 87.70860 80.94385 87.70259
#
# Poissons Ratio (x) = 0.25304 0.38202
# Poissons Ratio (y) = 0.27419 0.27417
# Poissons Ratio (z) = 0.38205 0.25305
#
# Static dielectric constant tensor:
#      x y z
#    x 3.467330 0.000000 0.000000 
#    y 0.000000 3.964410 0.000000 
#    z 0.000000 0.000000 3.467320 
# 
# 
# High freq. dielectric constant tensor:
#      x y z
#    x 1.748510 0.000000 0.000000 
#    y 0.000000 1.760660 0.000000 
#    z 0.000000 0.000000 1.748510 
# 
# From -- ./inp_files/9779.got.cif
#   From: 2010.03.12/outbox.cif.g09.slc.cpg/sg73_5_cif.got.tgz:9779.got - 2010.04.16 15:25:48.
