data_PCOD8296664
_publ_section_title
;
Structure prediction by ZEFSAII (Michael W. Deem and Ramdas Pophale) SiO2 
 PCOD8296664
Probable space group: I B C A 
;
_chemical_formula_sum "Si O2"
_cell_formula_units_Z 72
_cell_length_a 20.834034
_cell_length_b 18.704539
_cell_length_c 8.697889
_cell_angle_alpha 90.000000
_cell_angle_beta 90.000000
_cell_angle_gamma 90.000000
_cell_volume 3389.489075
_symmetry_space_group_name_H-M "I B C A "
_symmetry_group_IT_number 73
_symmetry_cell_setting 'orthorhombic'
loop_
_space_group_symop_operation_xyz
x,y,z
-x,1/2-y,z
x,-y,1/2-z
1/2-x,y,-z
-x,-y,-z
x,1/2+y,-z
-x,y,1/2+z
1/2+x,-y,z
1/2+x,1/2+y,1/2+z
1/2-x,-y,1/2+z
1/2+x,1/2-y,-z
-x,1/2+y,1/2-z
1/2-x,1/2-y,1/2-z
1/2+x,y,1/2-z
1/2-x,1/2+y,z
x,1/2-y,1/2+z
loop_
_atom_site_type_symbol
_atom_site_label
_atom_site_fract_x
_atom_site_fract_y
_atom_site_fract_z
Si Si1 0.431860 0.486860 0.924232
Si Si2 0.079399 0.322876 0.055623
Si Si3 0.804967 0.440836 0.875152
Si Si4 0.212735 0.690659 0.345617
Si Si5 0.000000 0.250000 0.800058
O O1 0.447898 0.500000 0.750000
O O2 0.407437 0.407250 0.963552
O O3 0.372920 0.541785 0.962966
O O4 0.500000 0.500000 0.000000
O O5 0.144958 0.280014 0.091217
O O6 0.029852 0.311846 0.194465
O O7 0.053549 0.289701 0.898781
O O8 0.788372 0.500000 0.750000
O O9 0.806435 0.368818 0.778045
O O10 0.750000 0.435969 0.000000
O O11 0.250000 0.664046 0.500000
O O12 0.250000 0.750000 0.250000
#
# Coordination Sequence:
#
# PCOD8296664 Si02
#       5
#    16  16  16  16   8
#     4  11  23  43  69  99 141 179 230 290 352 427
#     4  11  22  44  65  98 134 180 230 288 349 426
#     4  11  24  45  69  99 140 182 236 292 349 425
#     4  12  25  45  71 102 139 182 238 295 355 426
#     4  10  24  40  68  94 136 176 228 288 352 414
#
# _framework density 21.242139999999999
#
# number of rings (size 3 to 8) (size 9 to 14) (size 15 to 20)
#    0.000    0.889    4.444    4.000    0.000    0.889 
#    8.000    0.000    0.000    0.000    0.000    0.000 
#    0.000    0.000    0.000    0.000    0.000    0.000 
#
# Total GULP energy -446144.356795 kJ/mol
# GULP energy per Si atom -12392.898800 kJ/mol
# Density = 2.119379 g / cm^3
# Si number density = 21.242140 Si / 1000 Ang^3
#
#
#
# Elastic Constant Matrix: (Units=GPa)
#
#
# Indices 1 2 3 4 5 6 
#
# 1 176.2123 32.2771 57.0156 0.0000 0.0000 0.0000
# 2 32.2771 102.8440 12.4059 0.0000 0.0000 0.0000
# 3 57.0156 12.4059 75.7519 0.0000 0.0000 0.0000
# 4 0.0000 0.0000 0.0000 16.5377 0.0000 0.0000
# 5 0.0000 0.0000 0.0000 0.0000 42.8420 0.0000
# 6 0.0000 0.0000 0.0000 0.0000 0.0000 36.4065
#
#
#
# Elastic Compliance Matrix: (Units=1/GPa)
#
#
# Indices 1 2 3 4 5 6 
#
# 1 0.007808 -0.001777 -0.005586 0.000000 0.000000 0.000000
# 2 -0.001777 0.010324 -0.000354 0.000000 0.000000 0.000000
# 3 -0.005586 -0.000354 0.017463 0.000000 0.000000 0.000000
# 4 0.000000 0.000000 0.000000 0.060468 0.000000 0.000000
# 5 0.000000 0.000000 0.000000 0.000000 0.023342 0.000000
# 6 0.000000 0.000000 0.000000 0.000000 0.000000 0.027468
#
#
# Mechanical properties :
#
#
# Convention : Reuss Voigt Hill
#
# Bulk Modulus (GPa) = 49.59613 62.02284 55.80948
# Shear Modulus (GPa) = 29.58164 36.03122 32.80643
#
# Velocity S-wave (km/s) = 3.73579 4.12298 3.93415
# Velocity P-wave (km/s) = 6.48127 7.20602 6.85323
#
# Compressibility (1/GPa) = 0.02016287
#
# Stress axis : x y z
#
# Youngs Moduli (GPa) = 128.07891 96.86459 57.26405
#
# Poissons Ratio (x) = 0.17209 0.31985
# Poissons Ratio (y) = 0.22755 0.02024
# Poissons Ratio (z) = 0.71540 0.03424
#
# Static dielectric constant tensor:
#      x y z
#    x 4.118360 0.000000 0.000000 
#    y 0.000000 4.111520 0.000000 
#    z 0.000000 0.000000 3.954640 
# 
# 
# High freq. dielectric constant tensor:
#      x y z
#    x 1.854650 0.000000 0.000000 
#    y 0.000000 1.827300 0.000000 
#    z 0.000000 0.000000 1.839760 
# 
# From -- ./inp_files/5339.got.cif
#   From: 2010.03.12/outbox.cif.g09.slc.cpg/sg73_3_cif.got.tgz:5339.got - 2010.04.16 15:25:48.
