data_PCOD8296555
_publ_section_title
;
Structure prediction by ZEFSAII (Michael W. Deem and Ramdas Pophale) SiO2 
 PCOD8296555
Probable space group: I B C A 
;
_chemical_formula_sum "Si O2"
_cell_formula_units_Z 88
_cell_length_a 24.323037
_cell_length_b 5.300137
_cell_length_c 29.064568
_cell_angle_alpha 90.000000
_cell_angle_beta 90.000000
_cell_angle_gamma 90.000000
_cell_volume 3746.871234
_symmetry_space_group_name_H-M "I B C A "
_symmetry_group_IT_number 73
_symmetry_cell_setting 'orthorhombic'
loop_
_space_group_symop_operation_xyz
x,y,z
-x,1/2-y,z
x,-y,1/2-z
1/2-x,y,-z
-x,-y,-z
x,1/2+y,-z
-x,y,1/2+z
1/2+x,-y,z
1/2+x,1/2+y,1/2+z
1/2-x,-y,1/2+z
1/2+x,1/2-y,-z
-x,1/2+y,1/2-z
1/2-x,1/2-y,1/2-z
1/2+x,y,1/2-z
1/2-x,1/2+y,z
x,1/2-y,1/2+z
loop_
_atom_site_type_symbol
_atom_site_label
_atom_site_fract_x
_atom_site_fract_y
_atom_site_fract_z
Si Si1 0.881878 0.228339 0.855123
Si Si2 0.500000 0.750000 0.530593
Si Si3 0.062184 0.749650 0.230056
Si Si4 0.226940 0.688506 0.949205
Si Si5 0.612619 0.270891 0.413943
Si Si6 0.773079 0.752019 0.697411
O O1 0.937875 0.251490 0.825809
O O2 0.879075 0.454270 0.891567
O O3 0.837985 0.249124 0.812830
O O4 0.880026 0.954434 0.877944
O O5 0.500000 0.500000 0.500000
O O6 0.446109 0.748616 0.562005
O O7 0.092187 0.500000 0.250000
O O8 0.000000 0.750000 0.248455
O O9 0.092165 0.000000 0.250000
O O10 0.241608 0.421982 0.923809
O O11 0.161575 0.738047 0.951027
O O12 0.250000 0.638208 0.000000
O O13 0.750000 0.750000 0.750000
O O14 0.750035 0.502056 0.672448
#
# Coordination Sequence:
#
# PCOD8296555 Si02
#       6
#    16   8  16  16  16  16
#     4  12  26  43  73 103 148 180 237 305 362 408
#     4  12  30  52  84 106 152 196 246 292 374 480
#     4  10  23  41  67  96 131 185 240 279 339 415
#     4  10  23  42  73  99 139 181 226 291 355 443
#     4  12  28  46  74 115 141 187 241 303 377 423
#     4  10  23  40  65  96 141 196 240 286 350 431
#
# _framework density 23.486263999999998
#
# number of rings (size 3 to 8) (size 9 to 14) (size 15 to 20)
#    0.000    1.091    0.000    4.364   12.727    4.364 
#    0.000    0.000    0.000    0.000    0.000    0.000 
#    0.000    0.000    0.000    0.000    0.000    0.000 
#
# Total GULP energy -545167.109858 kJ/mol
# GULP energy per Si atom -12390.161588 kJ/mol
# Density = 2.343281 g / cm^3
# Si number density = 23.486264 Si / 1000 Ang^3
#
#
#
# Elastic Constant Matrix: (Units=GPa)
#
#
# Indices 1 2 3 4 5 6 
#
# 1 125.6626 25.3033 32.0211 0.0000 0.0000 0.0000
# 2 25.3033 217.3133 17.8958 0.0000 0.0000 0.0000
# 3 32.0211 17.8958 76.3442 0.0000 0.0000 0.0000
# 4 0.0000 0.0000 0.0000 16.8918 0.0000 0.0000
# 5 0.0000 0.0000 0.0000 0.0000 48.6102 0.0000
# 6 0.0000 0.0000 0.0000 0.0000 0.0000 25.9178
#
#
#
# Elastic Compliance Matrix: (Units=1/GPa)
#
#
# Indices 1 2 3 4 5 6 
#
# 1 0.009030 -0.000754 -0.003611 0.000000 0.000000 0.000000
# 2 -0.000754 0.004755 -0.000798 0.000000 0.000000 0.000000
# 3 -0.003611 -0.000798 0.014800 0.000000 0.000000 0.000000
# 4 0.000000 0.000000 0.000000 0.059200 0.000000 0.000000
# 5 0.000000 0.000000 0.000000 0.000000 0.020572 0.000000
# 6 0.000000 0.000000 0.000000 0.000000 0.000000 0.038584
#
#
# Mechanical properties :
#
#
# Convention : Reuss Voigt Hill
#
# Bulk Modulus (GPa) = 54.76764 63.30675 59.03719
# Shear Modulus (GPa) = 30.60855 41.22395 35.91625
#
# Velocity S-wave (km/s) = 3.61398 4.19410 3.91480
# Velocity P-wave (km/s) = 6.38624 7.10403 6.75468
#
# Compressibility (1/GPa) = 0.01825896
#
# Stress axis : x y z
#
# Youngs Moduli (GPa) = 110.74571 210.29617 67.56701
#
# Poissons Ratio (x) = 0.15858 0.24396
# Poissons Ratio (y) = 0.08351 0.05394
# Poissons Ratio (z) = 0.39986 0.16790
#
# Static dielectric constant tensor:
#      x y z
#    x 4.354130 0.000000 0.000000 
#    y 0.000000 5.726910 0.000000 
#    z 0.000000 0.000000 3.947040 
# 
# 
# High freq. dielectric constant tensor:
#      x y z
#    x 1.928640 0.000000 0.000000 
#    y 0.000000 1.973520 0.000000 
#    z 0.000000 0.000000 1.911640 
# 
# From -- ./inp_files/30631.got.cif
#   From: 2010.03.12/outbox.cif.g09.slc.cpg/sg73_16_cif.got.tgz:30631.got - 2010.04.16 15:25:48.
