data_PCOD8296193
_publ_section_title
;
Structure prediction by ZEFSAII (Michael W. Deem and Ramdas Pophale) SiO2 
 PCOD8296193
Probable space group: I B C A 
;
_chemical_formula_sum "Si O2"
_cell_formula_units_Z 112
_cell_length_a 14.914241
_cell_length_b 15.065613
_cell_length_c 23.096556
_cell_angle_alpha 90.000000
_cell_angle_beta 90.000000
_cell_angle_gamma 90.000000
_cell_volume 5189.615590
_symmetry_space_group_name_H-M "I B C A "
_symmetry_group_IT_number 73
_symmetry_cell_setting 'orthorhombic'
loop_
_space_group_symop_operation_xyz
x,y,z
-x,1/2-y,z
x,-y,1/2-z
1/2-x,y,-z
-x,-y,-z
x,1/2+y,-z
-x,y,1/2+z
1/2+x,-y,z
1/2+x,1/2+y,1/2+z
1/2-x,-y,1/2+z
1/2+x,1/2-y,-z
-x,1/2+y,1/2-z
1/2-x,1/2-y,1/2-z
1/2+x,y,1/2-z
1/2-x,1/2+y,z
x,1/2-y,1/2+z
loop_
_atom_site_type_symbol
_atom_site_label
_atom_site_fract_x
_atom_site_fract_y
_atom_site_fract_z
Si Si1 0.173309 0.342793 0.226654
Si Si2 0.488926 0.918653 0.712424
Si Si3 0.112342 0.916840 0.407422
Si Si4 0.347155 0.388305 0.087931
Si Si5 0.675572 0.273883 0.398107
Si Si6 0.467572 0.157261 0.483428
Si Si7 0.134534 0.177163 0.289556
O O1 0.168622 0.280198 0.170399
O O2 0.158362 0.282188 0.283989
O O3 0.275460 0.380814 0.227630
O O4 0.097447 0.417653 0.218345
O O5 0.455180 0.920944 0.647123
O O6 0.446868 0.834260 0.744989
O O7 0.451297 0.000000 0.750000
O O8 0.179327 0.832229 0.409480
O O9 0.048262 0.907800 0.463888
O O10 0.173463 0.005886 0.406247
O O11 0.260334 0.327697 0.075724
O O12 0.395187 0.349495 0.145554
O O13 0.412644 0.389136 0.033693
O O14 0.588980 0.318547 0.426272
O O15 0.500000 0.250000 0.510705
#
# Coordination Sequence:
#
# PCOD8296193 Si02
#       7
#    16  16  16  16  16  16  16
#     4  10  21  39  62  92 125 172 219 265 324 389
#     4  12  22  38  62  96 132 169 223 269 325 400
#     4  11  22  41  67  95 125 177 222 263 328 396
#     4  11  23  42  61  97 138 159 213 280 329 377
#     4  10  21  41  68  92 122 176 220 261 318 401
#     4  10  22  41  68  91 123 170 218 263 322 404
#     4  10  22  37  62  93 130 165 209 272 326 382
#
# _framework density 21.581558999999999
#
# number of rings (size 3 to 8) (size 9 to 14) (size 15 to 20)
#    0.000    1.429    4.286    1.286    0.000    1.714 
#    0.000    7.143    0.000    0.000    0.000    0.000 
#    0.000    0.000    0.000    0.000    0.000    0.000 
#
# Total GULP energy -693877.375570 kJ/mol
# GULP energy per Si atom -12390.667421 kJ/mol
# Density = 2.153244 g / cm^3
# Si number density = 21.581559 Si / 1000 Ang^3
#
#
#
# Elastic Constant Matrix: (Units=GPa)
#
#
# Indices 1 2 3 4 5 6 
#
# 1 86.4086 34.5711 14.3683 0.0000 0.0000 0.0000
# 2 34.5711 113.8661 40.2149 0.0000 0.0000 0.0000
# 3 14.3683 40.2149 75.7184 0.0000 0.0000 0.0000
# 4 0.0000 0.0000 0.0000 18.4867 0.0000 0.0000
# 5 0.0000 0.0000 0.0000 0.0000 24.6315 0.0000
# 6 0.0000 0.0000 0.0000 0.0000 0.0000 27.3006
#
#
#
# Elastic Compliance Matrix: (Units=1/GPa)
#
#
# Indices 1 2 3 4 5 6 
#
# 1 0.013186 -0.003840 -0.000463 0.000000 0.000000 0.000000
# 2 -0.003840 0.011928 -0.005607 0.000000 0.000000 0.000000
# 3 -0.000463 -0.005607 0.016272 0.000000 0.000000 0.000000
# 4 0.000000 0.000000 0.000000 0.054093 0.000000 0.000000
# 5 0.000000 0.000000 0.000000 0.000000 0.040598 0.000000
# 6 0.000000 0.000000 0.000000 0.000000 0.000000 0.036629
#
#
# Mechanical properties :
#
#
# Convention : Reuss Voigt Hill
#
# Bulk Modulus (GPa) = 46.36461 50.47795 48.42128
# Shear Modulus (GPa) = 25.03562 26.53968 25.78765
#
# Velocity S-wave (km/s) = 3.40964 3.51057 3.46047
# Velocity P-wave (km/s) = 6.08531 6.31445 6.20094
#
# Compressibility (1/GPa) = 0.02156817
#
# Stress axis : x y z
#
# Youngs Moduli (GPa) = 75.83664 83.83474 61.45405
#
# Poissons Ratio (x) = 0.32193 0.02844
# Poissons Ratio (y) = 0.29122 0.34454
# Poissons Ratio (z) = 0.03509 0.47002
#
# Static dielectric constant tensor:
#      x y z
#    x 4.068740 0.000000 0.000000 
#    y 0.000000 3.821170 0.000000 
#    z 0.000000 0.000000 3.767720 
# 
# 
# High freq. dielectric constant tensor:
#      x y z
#    x 1.839120 0.000000 0.000000 
#    y 0.000000 1.835440 0.000000 
#    z 0.000000 0.000000 1.845590 
# 
# From -- ./inp_files/29530.got.cif
#   From: 2010.03.12/outbox.cif.g09.slc.cpg/sg73_15_cif.got.tgz:29530.got - 2010.04.16 15:25:48.
