data_PCOD8296374
_publ_section_title
;
Structure prediction by ZEFSAII (Michael W. Deem and Ramdas Pophale) SiO2 
 PCOD8296374
Probable space group: I B C A 
;
_chemical_formula_sum "Si O2"
_cell_formula_units_Z 72
_cell_length_a 21.104669
_cell_length_b 31.711925
_cell_length_c 4.895363
_cell_angle_alpha 90.000000
_cell_angle_beta 90.000000
_cell_angle_gamma 90.000000
_cell_volume 3276.318031
_symmetry_space_group_name_H-M "I B C A "
_symmetry_group_IT_number 73
_symmetry_cell_setting 'orthorhombic'
loop_
_space_group_symop_operation_xyz
x,y,z
-x,1/2-y,z
x,-y,1/2-z
1/2-x,y,-z
-x,-y,-z
x,1/2+y,-z
-x,y,1/2+z
1/2+x,-y,z
1/2+x,1/2+y,1/2+z
1/2-x,-y,1/2+z
1/2+x,1/2-y,-z
-x,1/2+y,1/2-z
1/2-x,1/2-y,1/2-z
1/2+x,y,1/2-z
1/2-x,1/2+y,z
x,1/2-y,1/2+z
loop_
_atom_site_type_symbol
_atom_site_label
_atom_site_fract_x
_atom_site_fract_y
_atom_site_fract_z
Si Si1 0.655646 0.595094 0.385991
Si Si2 0.356349 0.278852 0.414983
Si Si3 0.681944 0.458482 0.614767
Si Si4 0.957079 0.152932 0.495836
Si Si5 0.750000 0.339185 0.000000
O O1 0.691045 0.574296 0.642462
O O2 0.589685 0.612750 0.505083
O O3 0.704309 0.632789 0.299281
O O4 0.642780 0.562690 0.135612
O O5 0.353557 0.238597 0.221603
O O6 0.421621 0.304740 0.408462
O O7 0.297692 0.309104 0.332239
O O8 0.648399 0.500000 0.750000
O O9 0.750000 0.472365 0.500000
O O10 0.018442 0.150875 0.686063
#
# Coordination Sequence:
#
# PCOD8296374 Si02
#       5
#    16  16  16  16   8
#     4  11  23  40  64  92 128 169 206 260 309 377
#     4  11  24  39  62  91 125 165 207 266 325 375
#     4  12  22  38  63  98 134 162 196 248 322 387
#     4  11  24  43  65  89 121 169 225 264 308 364
#     4  10  22  40  60  92 128 166 208 252 322 394
#
# _framework density 21.975887
#
# number of rings (size 3 to 8) (size 9 to 14) (size 15 to 20)
#    0.000    0.889    2.222    5.333    0.000    9.778 
#    0.000    0.000    0.000   13.333    0.000    0.000 
#    0.000    0.000    0.000    0.000    0.000    0.000 
#
# Total GULP energy -446167.336448 kJ/mol
# GULP energy per Si atom -12393.537124 kJ/mol
# Density = 2.192587 g / cm^3
# Si number density = 21.975887 Si / 1000 Ang^3
#
#
#
# Elastic Constant Matrix: (Units=GPa)
#
#
# Indices 1 2 3 4 5 6 
#
# 1 93.1750 44.6523 21.0910 0.0000 0.0000 0.0000
# 2 44.6523 110.1646 40.7933 0.0000 0.0000 0.0000
# 3 21.0910 40.7933 106.7881 -0.0001 0.0002 0.0001
# 4 0.0000 0.0000 -0.0001 32.3631 0.0000 0.0000
# 5 0.0000 0.0000 0.0002 0.0000 30.7463 0.0001
# 6 0.0000 0.0000 0.0001 0.0000 0.0001 14.3954
#
#
#
# Elastic Compliance Matrix: (Units=1/GPa)
#
#
# Indices 1 2 3 4 5 6 
#
# 1 0.013360 -0.005169 -0.000664 0.000000 0.000000 0.000000
# 2 -0.005169 0.012573 -0.003782 0.000000 0.000000 0.000000
# 3 -0.000664 -0.003782 0.010940 0.000000 0.000000 0.000000
# 4 0.000000 0.000000 0.000000 0.030899 0.000000 0.000000
# 5 0.000000 0.000000 0.000000 0.000000 0.032524 0.000000
# 6 0.000000 0.000000 0.000000 0.000000 0.000000 0.069467
#
#
# Mechanical properties :
#
#
# Convention : Reuss Voigt Hill
#
# Bulk Modulus (GPa) = 56.68029 58.13341 57.40685
# Shear Modulus (GPa) = 25.65748 29.07371 27.36560
#
# Velocity S-wave (km/s) = 3.42062 3.64123 3.53265
# Velocity P-wave (km/s) = 6.43808 6.64746 6.54361
#
# Compressibility (1/GPa) = 0.01764282
#
# Stress axis : x y z
#
# Youngs Moduli (GPa) = 74.84991 79.53555 91.40610
#
# Poissons Ratio (x) = 0.41114 0.06069
# Poissons Ratio (y) = 0.38692 0.34569
# Poissons Ratio (z) = 0.04970 0.30080
#
# Static dielectric constant tensor:
#      x y z
#    x 3.745400 0.000000 0.000000 
#    y 0.000000 4.149980 0.000000 
#    z 0.000000 0.000000 3.778680 
# 
# 
# High freq. dielectric constant tensor:
#      x y z
#    x 1.843750 0.000000 0.000000 
#    y 0.000000 1.876810 0.000000 
#    z 0.000000 0.000000 1.860680 
# 
# From -- ./inp_files/1682.got.cif
#   From: 2010.03.12/outbox.cif.g09.slc.cpg/sg73_1_cif.got.tgz:1682.got - 2010.04.16 15:25:48.
