data_PCOD8296408
_publ_section_title
;
Structure prediction by ZEFSAII (Michael W. Deem and Ramdas Pophale) SiO2 
 PCOD8296408
Probable space group: I B C A 
;
_chemical_formula_sum "Si O2"
_cell_formula_units_Z 72
_cell_length_a 22.072893
_cell_length_b 8.196100
_cell_length_c 16.193763
_cell_angle_alpha 90.000000
_cell_angle_beta 90.000000
_cell_angle_gamma 90.000000
_cell_volume 2929.640195
_symmetry_space_group_name_H-M "I B C A "
_symmetry_group_IT_number 73
_symmetry_cell_setting 'orthorhombic'
loop_
_space_group_symop_operation_xyz
x,y,z
-x,1/2-y,z
x,-y,1/2-z
1/2-x,y,-z
-x,-y,-z
x,1/2+y,-z
-x,y,1/2+z
1/2+x,-y,z
1/2+x,1/2+y,1/2+z
1/2-x,-y,1/2+z
1/2+x,1/2-y,-z
-x,1/2+y,1/2-z
1/2-x,1/2-y,1/2-z
1/2+x,y,1/2-z
1/2-x,1/2+y,z
x,1/2-y,1/2+z
loop_
_atom_site_type_symbol
_atom_site_label
_atom_site_fract_x
_atom_site_fract_y
_atom_site_fract_z
Si Si1 0.562751 0.451624 0.604421
Si Si2 0.815787 0.905516 0.917429
Si Si3 0.000000 0.750000 0.472532
Si Si4 0.500000 0.750000 0.261815
Si Si5 0.097170 0.000000 0.750000
Si Si6 0.685830 0.979349 0.602531
O O1 0.632266 0.487107 0.625393
O O2 0.530061 0.621706 0.587357
O O3 0.553403 0.327742 0.528196
O O4 0.530982 0.390391 0.685402
O O5 0.821250 0.714322 0.901288
O O6 0.754950 0.975133 0.875960
O O7 0.825368 0.933426 0.015249
O O8 0.444226 0.846537 0.217807
O O9 0.139355 0.050031 0.828528
#
# Coordination Sequence:
#
# PCOD8296408 Si02
#       6
#    16  16   8   8   8  16
#     4  10  22  40  71 106 144 189 258 308 375 442
#     4  11  24  45  80 109 146 201 259 320 363 451
#     4   9  20  35  68 116 141 187 244 324 367 425
#     4  11  30  47  70  98 155 201 252 310 397 465
#     4  12  32  54  72 112 158 202 246 324 398 468
#     4  11  27  48  78 111 156 195 260 313 383 448
#
# _framework density 24.576398000000001
#
# number of rings (size 3 to 8) (size 9 to 14) (size 15 to 20)
#    0.000    1.333    0.000    4.000   21.778    0.889 
#    0.000    0.000    0.000    0.000    0.000    0.000 
#    0.000    0.000    0.000    0.000    0.000    0.000 
#
# Total GULP energy -446245.192638 kJ/mol
# GULP energy per Si atom -12395.699796 kJ/mol
# Density = 2.452046 g / cm^3
# Si number density = 24.576398 Si / 1000 Ang^3
#
#
#
# Elastic Constant Matrix: (Units=GPa)
#
#
# Indices 1 2 3 4 5 6 
#
# 1 156.1826 38.9678 43.0301 0.0000 0.0000 0.0000
# 2 38.9678 108.0162 10.5609 0.0000 0.0000 0.0000
# 3 43.0301 10.5609 58.0320 0.0000 0.0000 0.0000
# 4 0.0000 0.0000 0.0000 -110.7325 0.0000 0.0000
# 5 0.0000 0.0000 0.0000 0.0000 60.7296 0.0000
# 6 0.0000 0.0000 0.0000 0.0000 0.0000 40.2547
#
#
#
# Elastic Compliance Matrix: (Units=1/GPa)
#
#
# Indices 1 2 3 4 5 6 
#
# 1 0.008685 -0.002549 -0.005976 0.000000 0.000000 0.000000
# 2 -0.002549 0.010174 0.000039 0.000000 0.000000 0.000000
# 3 -0.005976 0.000039 0.021656 0.000000 0.000000 0.000000
# 4 0.000000 0.000000 0.000000 -0.009031 0.000000 0.000000
# 5 0.000000 0.000000 0.000000 0.000000 0.016466 0.000000
# 6 0.000000 0.000000 0.000000 0.000000 0.000000 0.024842
#
#
# Mechanical properties :
#
#
# Convention : Reuss Voigt Hill
#
# Bulk Modulus (GPa) = 42.47737 56.37205 49.42471
# Shear Modulus (GPa) = 51.22281 13.36185 32.29233
#
# Velocity S-wave (km/s) = 4.57029 2.33424 3.62879
# Velocity P-wave (km/s) = 6.72096 5.50020 6.14099
#
# Compressibility (1/GPa) = 0.02354195
#
# Stress axis : x y z
#
# Youngs Moduli (GPa) = 115.13807 98.29304 46.17639
#
# Poissons Ratio (x) = 0.25055 0.27596
# Poissons Ratio (y) = 0.29348 -0.00178
# Poissons Ratio (z) = 0.68808 -0.00379
#
# Static dielectric constant tensor:
#      x y z
#    x 5.083900 0.000000 0.000000 
#    y 0.000000 4.680600 0.000000 
#    z 0.000000 0.000000 4.170680 
# 
# 
# High freq. dielectric constant tensor:
#      x y z
#    x 1.996500 0.000000 0.000000 
#    y 0.000000 1.998740 0.000000 
#    z 0.000000 0.000000 1.956160 
# 
# From -- ./inp_files/20619.got.cif
#   From: 2010.03.12/outbox.cif.g09.slc.cpg/sg73_11_cif.got.tgz:20619.got - 2010.04.16 15:25:48.
