data_PCOD8296779
_publ_section_title
;
Structure prediction by ZEFSAII (Michael W. Deem and Ramdas Pophale) SiO2 
 PCOD8296779
Probable space group: I B C A 
;
_chemical_formula_sum "Si O2"
_cell_formula_units_Z 112
_cell_length_a 14.537871
_cell_length_b 24.870989
_cell_length_c 14.370717
_cell_angle_alpha 90.000000
_cell_angle_beta 90.000000
_cell_angle_gamma 90.000000
_cell_volume 5196.037818
_symmetry_space_group_name_H-M "I B C A "
_symmetry_group_IT_number 73
_symmetry_cell_setting 'orthorhombic'
loop_
_space_group_symop_operation_xyz
x,y,z
-x,1/2-y,z
x,-y,1/2-z
1/2-x,y,-z
-x,-y,-z
x,1/2+y,-z
-x,y,1/2+z
1/2+x,-y,z
1/2+x,1/2+y,1/2+z
1/2-x,-y,1/2+z
1/2+x,1/2-y,-z
-x,1/2+y,1/2-z
1/2-x,1/2-y,1/2-z
1/2+x,y,1/2-z
1/2-x,1/2+y,z
x,1/2-y,1/2+z
loop_
_atom_site_type_symbol
_atom_site_label
_atom_site_fract_x
_atom_site_fract_y
_atom_site_fract_z
Si Si1 0.103945 0.116148 0.656097
Si Si2 0.176097 0.899650 0.565492
Si Si3 0.016637 0.436844 0.980085
Si Si4 0.262007 0.779562 0.396308
Si Si5 0.248774 0.061750 0.243110
Si Si6 0.551193 0.938180 0.270916
Si Si7 0.108127 0.736490 0.274185
O O1 0.203337 0.087959 0.667501
O O2 0.118638 0.179226 0.673883
O O3 0.076012 0.096248 0.554093
O O4 0.029927 0.098045 0.732364
O O5 0.250000 0.929046 0.500000
O O6 0.078094 0.904057 0.518170
O O7 0.209515 0.840051 0.585314
O O8 0.176708 0.930714 0.662175
O O9 0.064746 0.430780 0.881029
O O10 0.000000 0.500000 0.000000
O O11 0.250000 0.751762 0.500000
O O12 0.163884 0.776764 0.342686
O O13 0.343944 0.757598 0.328290
O O14 0.146068 0.084925 0.225984
O O15 0.228814 0.000000 0.250000
O O16 0.527749 0.000000 0.250000
O O17 0.000000 0.750000 0.265359
#
# Coordination Sequence:
#
# PCOD8296779 Si02
#       7
#    16  16  16  16  16  16  16
#     4  12  24  45  67 100 140 178 230 290 351 410
#     4  11  23  42  70  93 127 187 230 271 344 426
#     4  12  24  41  68 101 140 180 230 286 347 434
#     4  10  24  49  71 100 136 181 239 295 363 439
#     4  11  23  41  65  95 137 176 221 279 344 417
#     4  11  23  41  65  97 137 185 222 276 344 420
#     4  11  26  45  73 102 137 180 235 307 360 424
#
# _framework density 21.554886
#
# number of rings (size 3 to 8) (size 9 to 14) (size 15 to 20)
#    0.000    0.857    4.286    2.143    8.000    1.143 
#    5.143    0.000    0.000    0.000    0.000    0.000 
#    0.000    0.000    0.000    0.000    0.000    0.000 
#
# Total GULP energy -693815.807029 kJ/mol
# GULP energy per Si atom -12389.567983 kJ/mol
# Density = 2.150583 g / cm^3
# Si number density = 21.554886 Si / 1000 Ang^3
#
#
#
# Elastic Constant Matrix: (Units=GPa)
#
#
# Indices 1 2 3 4 5 6 
#
# 1 124.3628 34.6766 20.2858 0.0000 0.0000 0.0000
# 2 34.6766 80.7140 22.7049 -0.0002 0.0000 0.0000
# 3 20.2858 22.7049 135.6493 -0.0002 0.0000 -0.0001
# 4 0.0000 -0.0002 -0.0002 23.0068 0.0000 -0.0001
# 5 0.0000 0.0000 0.0000 0.0000 40.4097 0.0000
# 6 0.0000 0.0000 -0.0001 -0.0001 0.0000 60.6837
#
#
#
# Elastic Compliance Matrix: (Units=1/GPa)
#
#
# Indices 1 2 3 4 5 6 
#
# 1 0.009208 -0.003745 -0.000750 0.000000 0.000000 0.000000
# 2 -0.003745 0.014525 -0.001871 0.000000 0.000000 0.000000
# 3 -0.000750 -0.001871 0.007797 0.000000 0.000000 0.000000
# 4 0.000000 0.000000 0.000000 0.043465 0.000000 0.000000
# 5 0.000000 0.000000 0.000000 0.000000 0.024747 0.000000
# 6 0.000000 0.000000 0.000000 0.000000 0.000000 0.016479
#
#
# Mechanical properties :
#
#
# Convention : Reuss Voigt Hill
#
# Bulk Modulus (GPa) = 53.19880 55.11787 54.15833
# Shear Modulus (GPa) = 36.97731 42.35728 39.66729
#
# Velocity S-wave (km/s) = 4.14635 4.43774 4.29452
# Velocity P-wave (km/s) = 6.90341 7.20309 7.05484
#
# Compressibility (1/GPa) = 0.01879742
#
# Stress axis : x y z
#
# Youngs Moduli (GPa) = 108.60692 68.84876 128.24916
#
# Poissons Ratio (x) = 0.25782 0.09621
# Poissons Ratio (y) = 0.40670 0.23997
# Poissons Ratio (z) = 0.08147 0.12882
#
# Static dielectric constant tensor:
#      x y z
#    x 8.898690 0.000000 -0.000010 
#    y 0.000000 3.718370 0.000000 
#    z -0.000010 0.000000 4.250230 
# 
# 
# High freq. dielectric constant tensor:
#      x y z
#    x 1.863280 0.000000 0.000000 
#    y 0.000000 1.829620 0.000000 
#    z 0.000000 0.000000 1.859080 
# 
# From -- ./inp_files/17364.got.cif
#   From: 2010.03.12/outbox.cif.g09.slc.cpg/sg73_9_cif.got.tgz:17364.got - 2010.04.16 15:25:48.
