data_PCOD8296946
_publ_section_title
;
Structure prediction by ZEFSAII (Michael W. Deem and Ramdas Pophale) SiO2 
 PCOD8296946
Probable space group: I B C A 
;
_chemical_formula_sum "Si O2"
_cell_formula_units_Z 96
_cell_length_a 20.704280
_cell_length_b 9.262785
_cell_length_c 24.938068
_cell_angle_alpha 90.000000
_cell_angle_beta 90.000000
_cell_angle_gamma 90.000000
_cell_volume 4782.605080
_symmetry_space_group_name_H-M "I B C A "
_symmetry_group_IT_number 73
_symmetry_cell_setting 'orthorhombic'
loop_
_space_group_symop_operation_xyz
x,y,z
-x,1/2-y,z
x,-y,1/2-z
1/2-x,y,-z
-x,-y,-z
x,1/2+y,-z
-x,y,1/2+z
1/2+x,-y,z
1/2+x,1/2+y,1/2+z
1/2-x,-y,1/2+z
1/2+x,1/2-y,-z
-x,1/2+y,1/2-z
1/2-x,1/2-y,1/2-z
1/2+x,y,1/2-z
1/2-x,1/2+y,z
x,1/2-y,1/2+z
loop_
_atom_site_type_symbol
_atom_site_label
_atom_site_fract_x
_atom_site_fract_y
_atom_site_fract_z
Si Si1 0.826149 0.987125 0.188104
Si Si2 0.763178 0.729320 0.361455
Si Si3 0.552989 0.863002 0.877430
Si Si4 0.840889 0.232141 0.943691
Si Si5 0.982764 0.586078 0.447029
Si Si6 0.163178 0.081838 0.042723
O O1 0.763486 0.882085 0.183483
O O2 0.890452 0.917490 0.162175
O O3 0.842807 0.000000 0.250000
O O4 0.808745 0.144484 0.162395
O O5 0.699525 0.791716 0.389515
O O6 0.795200 0.634344 0.407664
O O7 0.500000 0.750000 0.851929
O O8 0.586020 0.776092 0.927045
O O9 0.517569 0.007921 0.897138
O O10 0.833328 0.083713 0.974911
O O11 0.815318 0.345967 0.986968
O O12 0.908019 0.601350 0.435367
O O13 0.000000 0.750000 0.454000
O O14 0.000000 0.500000 0.500000
#
# Coordination Sequence:
#
# PCOD8296946 Si02
#       6
#    16  16  16  16  16  16
#     4  11  25  47  72  95 125 172 227 288 343 387
#     4  11  24  43  65  96 133 169 220 276 333 397
#     4  11  23  44  65  93 133 174 220 272 334 394
#     4  11  24  37  61  94 136 179 207 261 319 402
#     4  12  22  36  58  93 135 177 217 258 316 400
#     4  12  23  37  61  96 135 175 214 253 323 395
#
# _framework density 20.072742000000002
#
# number of rings (size 3 to 8) (size 9 to 14) (size 15 to 20)
#    0.000    0.667    5.000    3.500    4.667    1.333 
#    0.000    2.500    0.000    0.000    0.000    0.000 
#    0.000    0.000    0.000    0.000    0.000    0.000 
#
# Total GULP energy -594698.432420 kJ/mol
# GULP energy per Si atom -12389.550675 kJ/mol
# Density = 2.002706 g / cm^3
# Si number density = 20.072742 Si / 1000 Ang^3
#
#
#
# Elastic Constant Matrix: (Units=GPa)
#
#
# Indices 1 2 3 4 5 6 
#
# 1 69.5337 15.6561 26.3230 0.0000 0.0000 0.0000
# 2 15.6561 140.5731 43.2867 0.0000 0.0000 0.0000
# 3 26.3230 43.2867 99.6932 0.0000 0.0000 0.0000
# 4 0.0000 0.0000 0.0000 28.2674 0.0000 0.0000
# 5 0.0000 0.0000 0.0000 0.0000 27.0871 0.0000
# 6 0.0000 0.0000 0.0000 0.0000 0.0000 34.0683
#
#
#
# Elastic Compliance Matrix: (Units=1/GPa)
#
#
# Indices 1 2 3 4 5 6 
#
# 1 0.016016 -0.000556 -0.003988 0.000000 0.000000 0.000000
# 2 -0.000556 0.008231 -0.003427 0.000000 0.000000 0.000000
# 3 -0.003988 -0.003427 0.012572 0.000000 0.000000 0.000000
# 4 0.000000 0.000000 0.000000 0.035376 0.000000 0.000000
# 5 0.000000 0.000000 0.000000 0.000000 0.036918 0.000000
# 6 0.000000 0.000000 0.000000 0.000000 0.000000 0.029353
#
#
# Mechanical properties :
#
#
# Convention : Reuss Voigt Hill
#
# Bulk Modulus (GPa) = 47.89780 53.37017 50.63399
# Shear Modulus (GPa) = 30.98539 32.85351 31.91945
#
# Velocity S-wave (km/s) = 3.93320 4.05003 3.99204
# Velocity P-wave (km/s) = 6.67388 6.96537 6.82118
#
# Compressibility (1/GPa) = 0.02087779
#
# Stress axis : x y z
#
# Youngs Moduli (GPa) = 62.43670 121.49259 79.54386
#
# Poissons Ratio (x) = 0.06754 0.31718
# Poissons Ratio (y) = 0.03471 0.27260
# Poissons Ratio (z) = 0.24897 0.41637
#
# Static dielectric constant tensor:
#      x y z
#    x 4.120010 0.000000 0.000000 
#    y 0.000000 3.992320 0.000000 
#    z 0.000000 0.000000 3.269390 
# 
# 
# High freq. dielectric constant tensor:
#      x y z
#    x 1.800600 0.000000 0.000000 
#    y 0.000000 1.805660 0.000000 
#    z 0.000000 0.000000 1.749790 
# 
# From -- ./inp_files/7821.got.cif
#   From: 2010.03.12/outbox.cif.g09.slc.cpg/sg73_4_cif.got.tgz:7821.got - 2010.04.16 15:25:48.
