data_PCOD8296759
_publ_section_title
;
Structure prediction by ZEFSAII (Michael W. Deem and Ramdas Pophale) SiO2 
 PCOD8296759
Probable space group: I B C A 
;
_chemical_formula_sum "Si O2"
_cell_formula_units_Z 120
_cell_length_a 22.244654
_cell_length_b 27.233930
_cell_length_c 8.749404
_cell_angle_alpha 90.000000
_cell_angle_beta 90.000000
_cell_angle_gamma 90.000000
_cell_volume 5300.470749
_symmetry_space_group_name_H-M "I B C A "
_symmetry_group_IT_number 73
_symmetry_cell_setting 'orthorhombic'
loop_
_space_group_symop_operation_xyz
x,y,z
-x,1/2-y,z
x,-y,1/2-z
1/2-x,y,-z
-x,-y,-z
x,1/2+y,-z
-x,y,1/2+z
1/2+x,-y,z
1/2+x,1/2+y,1/2+z
1/2-x,-y,1/2+z
1/2+x,1/2-y,-z
-x,1/2+y,1/2-z
1/2-x,1/2-y,1/2-z
1/2+x,y,1/2-z
1/2-x,1/2+y,z
x,1/2-y,1/2+z
loop_
_atom_site_type_symbol
_atom_site_label
_atom_site_fract_x
_atom_site_fract_y
_atom_site_fract_z
Si Si1 0.220489 0.204801 0.165010
Si Si2 0.474658 0.551488 0.055849
Si Si3 0.360736 0.034792 0.122138
Si Si4 0.422454 0.698881 0.208505
Si Si5 0.259419 0.098291 0.181717
Si Si6 0.171194 0.534749 0.624150
Si Si7 0.500000 0.750000 0.459391
Si Si8 0.939527 0.405377 0.350070
O O1 0.250000 0.250000 0.250000
O O2 0.147752 0.210215 0.169203
O O3 0.242140 0.152927 0.239087
O O4 0.250000 0.206188 0.000000
O O5 0.408197 0.558765 0.990437
O O6 0.515441 0.597133 0.993699
O O7 0.500000 0.500000 0.000000
O O8 0.471300 0.555053 0.237962
O O9 0.328495 0.081784 0.201005
O O10 0.391376 0.000000 0.250000
O O11 0.314820 0.999094 0.024841
O O12 0.446249 0.728053 0.356798
O O13 0.465593 0.710283 0.064703
O O14 0.429003 0.642475 0.249968
O O15 0.228026 0.059532 0.294703
O O16 0.250000 0.092163 0.000000
O O17 0.139635 0.500000 0.750000
O O18 0.123588 0.576731 0.581029
#
# Coordination Sequence:
#
# PCOD8296759 Si02
#       8
#    16  16  16  16  16  16   8  16
#     4  11  25  47  74 102 139 182 236 299 363 431
#     4  12  23  40  63  96 137 179 226 275 340 400
#     4  12  26  41  63  99 138 181 235 283 330 415
#     4  11  23  47  71 104 140 177 239 291 369 437
#     4  11  23  42  68  96 131 181 234 278 353 414
#     4  12  21  42  67  93 136 186 220 280 340 407
#     4  10  24  46  76 102 136 184 224 312 370 432
#     4  12  23  40  67  97 134 181 224 279 346 423
#
# _framework density 22.639499000000001
#
# number of rings (size 3 to 8) (size 9 to 14) (size 15 to 20)
#    0.000    0.533    5.333    3.200    1.867    0.000 
#    7.200    0.000    0.000    0.000    0.000    0.000 
#    0.000    0.000    0.000    0.000    0.000    0.000 
#
# Total GULP energy -743296.349134 kJ/mol
# GULP energy per Si atom -12388.272486 kJ/mol
# Density = 2.258797 g / cm^3
# Si number density = 22.639499 Si / 1000 Ang^3
#
#
#
# Elastic Constant Matrix: (Units=GPa)
#
#
# Indices 1 2 3 4 5 6 
#
# 1 130.2820 43.1152 20.0320 0.0000 0.0000 0.0000
# 2 43.1152 103.3402 16.8558 0.0000 0.0000 0.0000
# 3 20.0320 16.8558 57.0056 0.0000 0.0000 0.0000
# 4 0.0000 0.0000 0.0000 36.6495 0.0000 0.0000
# 5 0.0000 0.0000 0.0000 0.0000 34.2630 0.0000
# 6 0.0000 0.0000 0.0000 0.0000 0.0000 34.6767
#
#
#
# Elastic Compliance Matrix: (Units=1/GPa)
#
#
# Indices 1 2 3 4 5 6 
#
# 1 0.009159 -0.003463 -0.002195 0.000000 0.000000 0.000000
# 2 -0.003463 0.011477 -0.002176 0.000000 0.000000 0.000000
# 3 -0.002195 -0.002176 0.018957 0.000000 0.000000 0.000000
# 4 0.000000 0.000000 0.000000 0.027285 0.000000 0.000000
# 5 0.000000 0.000000 0.000000 0.000000 0.029186 0.000000
# 6 0.000000 0.000000 0.000000 0.000000 0.000000 0.028838
#
#
# Mechanical properties :
#
#
# Convention : Reuss Voigt Hill
#
# Bulk Modulus (GPa) = 41.79894 50.07043 45.93469
# Shear Modulus (GPa) = 33.65968 35.15951 34.40959
#
# Velocity S-wave (km/s) = 3.86005 3.94511 3.90281
# Velocity P-wave (km/s) = 6.19431 6.55105 6.37518
#
# Compressibility (1/GPa) = 0.02392405
#
# Stress axis : x y z
#
# Youngs Moduli (GPa) = 109.17907 87.13245 52.75144
#
# Poissons Ratio (x) = 0.30178 0.11576
# Poissons Ratio (y) = 0.37814 0.11481
# Poissons Ratio (z) = 0.23959 0.18964
#
# Static dielectric constant tensor:
#      x y z
#    x 4.186870 0.000000 0.000000 
#    y 0.000000 4.488820 0.000000 
#    z 0.000000 0.000000 4.590310 
# 
# 
# High freq. dielectric constant tensor:
#      x y z
#    x 1.899180 0.000000 0.000000 
#    y 0.000000 1.883410 0.000000 
#    z 0.000000 0.000000 1.899930 
# 
# From -- ./inp_files/7394.got.cif
#   From: 2010.03.12/outbox.cif.g09.slc.cpg/sg73_4_cif.got.tgz:7394.got - 2010.04.16 15:25:48.
