data_PCOD8296805
_publ_section_title
;
Structure prediction by ZEFSAII (Michael W. Deem and Ramdas Pophale) SiO2 
 PCOD8296805
Probable space group: I B C A 
;
_chemical_formula_sum "Si O2"
_cell_formula_units_Z 104
_cell_length_a 10.899891
_cell_length_b 25.538258
_cell_length_c 17.231413
_cell_angle_alpha 90.000000
_cell_angle_beta 90.000000
_cell_angle_gamma 90.000000
_cell_volume 4796.608986
_symmetry_space_group_name_H-M "I B C A "
_symmetry_group_IT_number 73
_symmetry_cell_setting 'orthorhombic'
loop_
_space_group_symop_operation_xyz
x,y,z
-x,1/2-y,z
x,-y,1/2-z
1/2-x,y,-z
-x,-y,-z
x,1/2+y,-z
-x,y,1/2+z
1/2+x,-y,z
1/2+x,1/2+y,1/2+z
1/2-x,-y,1/2+z
1/2+x,1/2-y,-z
-x,1/2+y,1/2-z
1/2-x,1/2-y,1/2-z
1/2+x,y,1/2-z
1/2-x,1/2+y,z
x,1/2-y,1/2+z
loop_
_atom_site_type_symbol
_atom_site_label
_atom_site_fract_x
_atom_site_fract_y
_atom_site_fract_z
Si Si1 0.000000 0.750000 0.722998
Si Si2 0.449568 0.081541 0.364738
Si Si3 0.945322 0.000000 0.750000
Si Si4 0.628896 0.338476 0.796224
Si Si5 0.029650 0.866465 0.016840
Si Si6 0.750000 0.289620 0.500000
Si Si7 0.835120 0.697173 0.601974
Si Si8 0.825434 0.908024 0.659569
O O1 0.095196 0.721404 0.779438
O O2 0.068655 0.792784 0.670619
O O3 0.506519 0.128692 0.314710
O O4 0.502486 0.088876 0.452466
O O5 0.305291 0.084349 0.379438
O O6 0.476414 0.027438 0.318970
O O7 0.858939 0.959219 0.707487
O O8 0.725715 0.339600 0.866705
O O9 0.690779 0.360210 0.718519
O O10 0.132131 0.826258 0.983182
O O11 0.073724 0.895462 0.094537
O O12 0.905094 0.833803 0.033424
O O13 0.781404 0.252658 0.426992
#
# Coordination Sequence:
#
# PCOD8296805 Si02
#       8
#     8  16   8  16  16   8  16  16
#     4  12  22  38  60 102 136 186 240 274 336 392
#     4  11  24  45  70  99 131 176 225 284 358 415
#     4  10  26  44  74 104 122 172 226 294 356 426
#     4  11  25  38  66  98 137 186 229 288 330 407
#     4  12  24  43  68  98 138 183 224 290 342 410
#     4  12  22  40  62  92 140 190 228 266 336 398
#     4  12  24  41  62  99 141 188 241 278 329 408
#     4  11  22  46  68  97 133 172 228 283 354 413
#
# _framework density 21.681985000000001
#
# number of rings (size 3 to 8) (size 9 to 14) (size 15 to 20)
#    0.000    0.615    4.615    2.769    4.308    0.615 
#    0.000    0.000    0.000    0.000    0.000    0.000 
#    0.000    0.000    0.000    0.000    0.000    0.000 
#
# Total GULP energy -644804.791202 kJ/mol
# GULP energy per Si atom -12400.092139 kJ/mol
# Density = 2.163264 g / cm^3
# Si number density = 21.681985 Si / 1000 Ang^3
#
#
#
# Elastic Constant Matrix: (Units=GPa)
#
#
# Indices 1 2 3 4 5 6 
#
# 1 73.1035 39.4901 37.5282 0.0000 0.0000 0.0000
# 2 39.4901 102.6434 51.4613 0.0000 0.0000 0.0000
# 3 37.5282 51.4613 120.1727 0.0002 -0.0001 0.0001
# 4 0.0000 0.0000 0.0002 53.2047 0.0000 0.0000
# 5 0.0000 0.0000 -0.0001 0.0000 38.7137 0.0000
# 6 0.0000 0.0000 0.0001 0.0000 0.0000 12.5147
#
#
#
# Elastic Compliance Matrix: (Units=1/GPa)
#
#
# Indices 1 2 3 4 5 6 
#
# 1 0.018322 -0.005323 -0.003442 0.000000 0.000000 0.000000
# 2 -0.005323 0.013953 -0.004313 0.000000 0.000000 0.000000
# 3 -0.003442 -0.004313 0.011243 0.000000 0.000000 0.000000
# 4 0.000000 0.000000 0.000000 0.018795 0.000000 0.000000
# 5 0.000000 0.000000 0.000000 0.000000 0.025831 0.000000
# 6 0.000000 0.000000 0.000000 0.000000 0.000000 0.079906
#
#
# Mechanical properties :
#
#
# Convention : Reuss Voigt Hill
#
# Bulk Modulus (GPa) = 57.59791 61.43100 59.51445
# Shear Modulus (GPa) = 25.00096 32.04930 28.52513
#
# Velocity S-wave (km/s) = 3.39938 3.84885 3.63108
# Velocity P-wave (km/s) = 6.48307 6.93871 6.71476
#
# Compressibility (1/GPa) = 0.01736174
#
# Stress axis : x y z
#
# Youngs Moduli (GPa) = 54.57968 71.67108 88.94412
#
# Poissons Ratio (x) = 0.38152 0.30615
# Poissons Ratio (y) = 0.29054 0.38357
# Poissons Ratio (z) = 0.18787 0.30908
#
# Static dielectric constant tensor:
#      x y z
#    x 3.871890 0.000000 0.000000 
#    y 0.000000 3.843400 0.000000 
#    z 0.000000 0.000000 3.961590 
# 
# 
# High freq. dielectric constant tensor:
#      x y z
#    x 1.853370 0.000000 0.000000 
#    y 0.000000 1.837870 0.000000 
#    z 0.000000 0.000000 1.862530 
# 
# From -- ./inp_files/21487.got.cif
#   From: 2010.03.12/outbox.cif.g09.slc.cpg/sg73_11_cif.got.tgz:21487.got - 2010.04.16 15:25:48.
