data_PCOD8296125
_publ_section_title
;
Structure prediction by ZEFSAII (Michael W. Deem and Ramdas Pophale) SiO2 
 PCOD8296125
Probable space group: I B C A 
;
_chemical_formula_sum "Si O2"
_cell_formula_units_Z 64
_cell_length_a 5.137283
_cell_length_b 29.201326
_cell_length_c 18.850809
_cell_angle_alpha 90.000000
_cell_angle_beta 90.000000
_cell_angle_gamma 90.000000
_cell_volume 2827.913078
_symmetry_space_group_name_H-M "I B C A "
_symmetry_group_IT_number 73
_symmetry_cell_setting 'orthorhombic'
loop_
_space_group_symop_operation_xyz
x,y,z
-x,1/2-y,z
x,-y,1/2-z
1/2-x,y,-z
-x,-y,-z
x,1/2+y,-z
-x,y,1/2+z
1/2+x,-y,z
1/2+x,1/2+y,1/2+z
1/2-x,-y,1/2+z
1/2+x,1/2-y,-z
-x,1/2+y,1/2-z
1/2-x,1/2-y,1/2-z
1/2+x,y,1/2-z
1/2-x,1/2+y,z
x,1/2-y,1/2+z
loop_
_atom_site_type_symbol
_atom_site_label
_atom_site_fract_x
_atom_site_fract_y
_atom_site_fract_z
Si Si1 0.736483 0.909408 0.078991
Si Si2 0.739738 0.850635 0.420158
Si Si3 0.059352 0.696825 0.286496
Si Si4 0.350949 0.949507 0.280582
O O1 0.444165 0.891818 0.090172
O O2 0.792786 0.949818 0.135408
O O3 0.946382 0.868869 0.091938
O O4 0.750000 0.930395 0.000000
O O5 0.750000 0.830227 0.500000
O O6 0.828460 0.811187 0.365616
O O7 0.275733 0.675254 0.231889
O O8 0.000000 0.750000 0.274544
O O9 0.620320 0.923390 0.262088
O O10 0.410590 0.000000 0.250000
#
# Coordination Sequence:
#
# PCOD8296125 Si02
#       4
#    16  16  16  16
#     4  10  21  37  57  81 112 146 186 236 286 336
#     4  10  21  37  57  84 113 147 192 235 280 336
#     4  10  21  37  56  82 116 151 187 229 281 336
#     4  10  21  37  55  81 111 141 183 231 280 343
#
# _framework density 22.631529
#
# number of rings (size 3 to 8) (size 9 to 14) (size 15 to 20)
#    0.000    2.000    0.000    3.000    0.000    6.000 
#    0.000   12.500    0.000    0.000    0.000    0.000 
#    0.000    0.000    0.000    0.000    0.000    0.000 
#
# Total GULP energy -396421.966332 kJ/mol
# GULP energy per Si atom -12388.186448 kJ/mol
# Density = 2.258002 g / cm^3
# Si number density = 22.631529 Si / 1000 Ang^3
#
#
#
# Elastic Constant Matrix: (Units=GPa)
#
#
# Indices 1 2 3 4 5 6 
#
# 1 136.9980 17.7306 34.9090 0.0000 0.0000 0.0000
# 2 17.7306 16.0876 26.5244 0.0000 0.0000 0.0000
# 3 34.9090 26.5244 151.0639 0.0000 0.0000 0.0000
# 4 0.0000 0.0000 0.0000 40.3733 0.0000 0.0000
# 5 0.0000 0.0000 0.0000 0.0000 37.4193 0.0000
# 6 0.0000 0.0000 0.0000 0.0000 0.0000 11.3810
#
#
#
# Elastic Compliance Matrix: (Units=1/GPa)
#
#
# Indices 1 2 3 4 5 6 
#
# 1 0.008536 -0.008663 -0.000451 0.000000 0.000000 0.000000
# 2 -0.008663 0.096279 -0.014903 0.000000 0.000000 0.000000
# 3 -0.000451 -0.014903 0.009341 0.000000 0.000000 0.000000
# 4 0.000000 0.000000 0.000000 0.024769 0.000000 0.000000
# 5 0.000000 0.000000 0.000000 0.000000 0.026724 0.000000
# 6 0.000000 0.000000 0.000000 0.000000 0.000000 0.087866
#
#
# Mechanical properties :
#
#
# Convention : Reuss Voigt Hill
#
# Bulk Modulus (GPa) = 15.12401 51.38640 33.25520
# Shear Modulus (GPa) = 15.45170 32.83376 24.14273
#
# Velocity S-wave (km/s) = 2.61579 3.81307 3.26969
# Velocity P-wave (km/s) = 3.97748 6.49160 5.38337
#
# Compressibility (1/GPa) = 0.06612004
#
# Stress axis : x y z
#
# Youngs Moduli (GPa) = 117.15643 10.38650 107.05767
#
# Poissons Ratio (x) = 0.08998 0.04832
# Poissons Ratio (y) = 1.01494 1.59549
# Poissons Ratio (z) = 0.05288 0.15479
#
# Static dielectric constant tensor:
#      x y z
#    x 5.127920 0.000000 0.000000 
#    y 0.000000 3.493500 0.000000 
#    z 0.000000 0.000000 4.302800 
# 
# 
# High freq. dielectric constant tensor:
#      x y z
#    x 1.937250 0.000000 0.000000 
#    y 0.000000 1.830710 0.000000 
#    z 0.000000 0.000000 1.901700 
# 
# From -- ./inp_files/1123.got.cif
#   From: 2010.03.12/outbox.cif.g09.slc.cpg/sg73_1_cif.got.tgz:1123.got - 2010.04.16 15:25:48.
