data_PCOD8296674
_publ_section_title
;
Structure prediction by ZEFSAII (Michael W. Deem and Ramdas Pophale) SiO2 
 PCOD8296674
Probable space group: I B C A 
;
_chemical_formula_sum "Si O2"
_cell_formula_units_Z 88
_cell_length_a 8.826668
_cell_length_b 23.427755
_cell_length_c 18.816873
_cell_angle_alpha 90.000000
_cell_angle_beta 90.000000
_cell_angle_gamma 90.000000
_cell_volume 3891.122640
_symmetry_space_group_name_H-M "I B C A "
_symmetry_group_IT_number 73
_symmetry_cell_setting 'orthorhombic'
loop_
_space_group_symop_operation_xyz
x,y,z
-x,1/2-y,z
x,-y,1/2-z
1/2-x,y,-z
-x,-y,-z
x,1/2+y,-z
-x,y,1/2+z
1/2+x,-y,z
1/2+x,1/2+y,1/2+z
1/2-x,-y,1/2+z
1/2+x,1/2-y,-z
-x,1/2+y,1/2-z
1/2-x,1/2-y,1/2-z
1/2+x,y,1/2-z
1/2-x,1/2+y,z
x,1/2-y,1/2+z
loop_
_atom_site_type_symbol
_atom_site_label
_atom_site_fract_x
_atom_site_fract_y
_atom_site_fract_z
Si Si1 0.630806 0.706803 0.939276
Si Si2 0.250000 0.505247 0.000000
Si Si3 0.457956 0.904380 0.848945
Si Si4 0.833687 0.227767 0.180909
Si Si5 0.857902 0.900267 0.288008
Si Si6 0.998111 0.973010 0.403878
O O1 0.500000 0.750000 0.968174
O O2 0.562087 0.651074 0.899186
O O3 0.725471 0.745367 0.883754
O O4 0.750000 0.687610 0.000000
O O5 0.147666 0.461880 0.046565
O O6 0.350281 0.545468 0.052986
O O7 0.598596 0.895686 0.794700
O O8 0.313723 0.921622 0.799513
O O9 0.495481 0.958448 0.896921
O O10 0.750000 0.250000 0.250000
O O11 0.859994 0.160948 0.176963
O O12 0.000000 0.250000 0.172347
O O13 0.978683 0.940425 0.329576
#
# Coordination Sequence:
#
# PCOD8296674 Si02
#       6
#    16   8  16  16  16  16
#     4  11  25  46  69 102 141 185 234 301 361 436
#     4  10  24  42  64  92 138 190 230 288 354 438
#     4  11  25  42  70  96 145 179 241 295 363 419
#     4  11  22  43  72  98 138 178 232 287 361 425
#     4  11  24  41  67 102 134 184 232 300 347 424
#     4  11  23  43  66  97 138 185 240 287 362 422
#
# _framework density 22.615580999999999
#
# number of rings (size 3 to 8) (size 9 to 14) (size 15 to 20)
#    0.000    1.091    1.818    4.909    3.818    2.909 
#    1.636    0.000    0.000    0.000    0.000    0.000 
#    0.000    0.000    0.000    0.000    0.000    0.000 
#
# Total GULP energy -545337.869207 kJ/mol
# GULP energy per Si atom -12394.042482 kJ/mol
# Density = 2.256411 g / cm^3
# Si number density = 22.615581 Si / 1000 Ang^3
#
#
#
# Elastic Constant Matrix: (Units=GPa)
#
#
# Indices 1 2 3 4 5 6 
#
# 1 103.6784 39.1635 31.5144 0.0000 0.0000 0.0000
# 2 39.1635 92.3294 32.0656 -0.0001 0.0000 0.0000
# 3 31.5144 32.0656 110.4819 -0.0003 0.0000 0.0000
# 4 0.0000 -0.0001 -0.0003 36.8762 0.0000 0.0000
# 5 0.0000 0.0000 0.0000 0.0000 49.2816 0.0000
# 6 0.0000 0.0000 0.0000 0.0000 0.0000 24.4223
#
#
#
# Elastic Compliance Matrix: (Units=1/GPa)
#
#
# Indices 1 2 3 4 5 6 
#
# 1 0.011928 -0.004313 -0.002151 0.000000 0.000000 0.000000
# 2 -0.004313 0.013604 -0.002718 0.000000 0.000000 0.000000
# 3 -0.002151 -0.002718 0.010454 0.000000 0.000000 0.000000
# 4 0.000000 0.000000 0.000000 0.027118 0.000000 0.000000
# 5 0.000000 0.000000 0.000000 0.000000 0.020292 0.000000
# 6 0.000000 0.000000 0.000000 0.000000 0.000000 0.040946
#
#
# Mechanical properties :
#
#
# Convention : Reuss Voigt Hill
#
# Bulk Modulus (GPa) = 56.74516 56.88632 56.81574
# Shear Modulus (GPa) = 33.65222 35.69909 34.67566
#
# Velocity S-wave (km/s) = 3.86166 3.97737 3.91994
# Velocity P-wave (km/s) = 6.71035 6.80447 6.75758
#
# Compressibility (1/GPa) = 0.01762265
#
# Stress axis : x y z
#
# Youngs Moduli (GPa) = 83.83641 73.50732 95.66023
#
# Poissons Ratio (x) = 0.31701 0.20574
# Poissons Ratio (y) = 0.36155 0.26003
# Poissons Ratio (z) = 0.18031 0.19981
#
# Static dielectric constant tensor:
#      x y z
#    x 4.660380 0.000000 0.000000 
#    y 0.000000 3.791920 0.000000 
#    z 0.000000 0.000000 4.183370 
# 
# 
# High freq. dielectric constant tensor:
#      x y z
#    x 1.911230 0.000000 0.000000 
#    y 0.000000 1.867700 0.000000 
#    z 0.000000 0.000000 1.901590 
# 
# From -- ./inp_files/7085.got.cif
#   From: 2010.03.12/outbox.cif.g09.slc.cpg/sg73_4_cif.got.tgz:7085.got - 2010.04.16 15:25:48.
