data_PCOD8296433
_publ_section_title
;
Structure prediction by ZEFSAII (Michael W. Deem and Ramdas Pophale) SiO2 
 PCOD8296433
Probable space group: I B C A 
;
_chemical_formula_sum "Si O2"
_cell_formula_units_Z 80
_cell_length_a 17.071325
_cell_length_b 8.817927
_cell_length_c 24.023213
_cell_angle_alpha 90.000000
_cell_angle_beta 90.000000
_cell_angle_gamma 90.000000
_cell_volume 3616.303082
_symmetry_space_group_name_H-M "I B C A "
_symmetry_group_IT_number 73
_symmetry_cell_setting 'orthorhombic'
loop_
_space_group_symop_operation_xyz
x,y,z
-x,1/2-y,z
x,-y,1/2-z
1/2-x,y,-z
-x,-y,-z
x,1/2+y,-z
-x,y,1/2+z
1/2+x,-y,z
1/2+x,1/2+y,1/2+z
1/2-x,-y,1/2+z
1/2+x,1/2-y,-z
-x,1/2+y,1/2-z
1/2-x,1/2-y,1/2-z
1/2+x,y,1/2-z
1/2-x,1/2+y,z
x,1/2-y,1/2+z
loop_
_atom_site_type_symbol
_atom_site_label
_atom_site_fract_x
_atom_site_fract_y
_atom_site_fract_z
Si Si1 0.811737 0.520082 0.596417
Si Si2 0.573132 0.943256 0.187760
Si Si3 0.655817 0.364067 0.590912
Si Si4 0.941527 0.376480 0.517625
Si Si5 0.397567 0.096485 0.305958
O O1 0.727559 0.471688 0.571873
O O2 0.811965 0.699363 0.605595
O O3 0.879475 0.442365 0.560347
O O4 0.824109 0.456101 0.657812
O O5 0.482750 0.941718 0.168029
O O6 0.610858 0.777636 0.194941
O O7 0.580580 0.000000 0.250000
O O8 0.614700 0.053720 0.143209
O O9 0.600679 0.325577 0.538904
O O10 0.000000 0.250000 0.544265
O O11 0.000000 0.500000 0.500000
O O12 0.388895 0.000000 0.250000
#
# Coordination Sequence:
#
# PCOD8296433 Si02
#       5
#    16  16  16  16  16
#     4  12  27  44  69  98 142 177 228 284 347 414
#     4  10  22  41  70 100 138 179 233 283 341 411
#     4  12  27  45  67 101 138 182 225 286 347 412
#     4  12  27  46  73 102 132 179 231 285 341 413
#     4  10  22  41  69 102 136 181 229 286 342 410
#
# _framework density 22.122039999999998
#
# number of rings (size 3 to 8) (size 9 to 14) (size 15 to 20)
#    0.000    0.800    2.000    4.200    8.400    4.000 
#    0.000    4.000    0.000    0.000    0.000    0.000 
#    0.000    0.000    0.000    0.000    0.000    0.000 
#
# Total GULP energy -495573.154606 kJ/mol
# GULP energy per Si atom -12389.328865 kJ/mol
# Density = 2.207169 g / cm^3
# Si number density = 22.122040 Si / 1000 Ang^3
#
#
#
# Elastic Constant Matrix: (Units=GPa)
#
#
# Indices 1 2 3 4 5 6 
#
# 1 91.2528 26.6051 18.0942 0.0000 0.0000 0.0000
# 2 26.6051 151.9428 22.6690 0.0000 0.0000 0.0000
# 3 18.0942 22.6690 65.8848 0.0000 0.0000 0.0000
# 4 0.0000 0.0000 0.0000 39.6470 0.0000 0.0000
# 5 0.0000 0.0000 0.0000 0.0000 25.9622 0.0000
# 6 0.0000 0.0000 0.0000 0.0000 0.0000 38.8184
#
#
#
# Elastic Compliance Matrix: (Units=1/GPa)
#
#
# Indices 1 2 3 4 5 6 
#
# 1 0.011990 -0.001695 -0.002710 0.000000 0.000000 0.000000
# 2 -0.001695 0.007177 -0.002004 0.000000 0.000000 0.000000
# 3 -0.002710 -0.002004 0.016612 0.000000 0.000000 0.000000
# 4 0.000000 0.000000 0.000000 0.025223 0.000000 0.000000
# 5 0.000000 0.000000 0.000000 0.000000 0.038518 0.000000
# 6 0.000000 0.000000 0.000000 0.000000 0.000000 0.025761
#
#
# Mechanical properties :
#
#
# Convention : Reuss Voigt Hill
#
# Bulk Modulus (GPa) = 43.55114 49.31299 46.43207
# Shear Modulus (GPa) = 34.30498 36.99964 35.65231
#
# Velocity S-wave (km/s) = 3.94218 4.09409 4.01885
# Velocity P-wave (km/s) = 6.36008 6.68494 6.52453
#
# Compressibility (1/GPa) = 0.02296151
#
# Stress axis : x y z
#
# Youngs Moduli (GPa) = 83.40214 139.32960 60.19869
#
# Poissons Ratio (x) = 0.23619 0.16312
# Poissons Ratio (y) = 0.14138 0.12063
# Poissons Ratio (z) = 0.22599 0.27920
#
# Static dielectric constant tensor:
#      x y z
#    x 4.153080 0.000000 0.000000 
#    y 0.000000 4.115060 0.000000 
#    z 0.000000 0.000000 3.923780 
# 
# 
# High freq. dielectric constant tensor:
#      x y z
#    x 1.876850 0.000000 0.000000 
#    y 0.000000 1.893290 0.000000 
#    z 0.000000 0.000000 1.874360 
# 
# From -- ./inp_files/32323.got.cif
#   From: 2010.03.12/outbox.cif.g09.slc.cpg/sg73_17_cif.got.tgz:32323.got - 2010.04.16 15:25:48.
