data_PCOD8296632
_publ_section_title
;
Structure prediction by ZEFSAII (Michael W. Deem and Ramdas Pophale) SiO2 
 PCOD8296632
Probable space group: I B C A 
;
_chemical_formula_sum "Si O2"
_cell_formula_units_Z 96
_cell_length_a 10.687006
_cell_length_b 13.929764
_cell_length_c 28.133975
_cell_angle_alpha 90.000000
_cell_angle_beta 90.000000
_cell_angle_gamma 90.000000
_cell_volume 4188.233720
_symmetry_space_group_name_H-M "I B C A "
_symmetry_group_IT_number 73
_symmetry_cell_setting 'orthorhombic'
loop_
_space_group_symop_operation_xyz
x,y,z
-x,1/2-y,z
x,-y,1/2-z
1/2-x,y,-z
-x,-y,-z
x,1/2+y,-z
-x,y,1/2+z
1/2+x,-y,z
1/2+x,1/2+y,1/2+z
1/2-x,-y,1/2+z
1/2+x,1/2-y,-z
-x,1/2+y,1/2-z
1/2-x,1/2-y,1/2-z
1/2+x,y,1/2-z
1/2-x,1/2+y,z
x,1/2-y,1/2+z
loop_
_atom_site_type_symbol
_atom_site_label
_atom_site_fract_x
_atom_site_fract_y
_atom_site_fract_z
Si Si1 0.737624 0.166186 0.182129
Si Si2 0.000000 0.750000 0.641440
Si Si3 0.362967 0.639078 0.174258
Si Si4 0.917267 0.887063 0.393551
Si Si5 0.500000 0.750000 0.526939
Si Si6 0.750000 0.842915 0.000000
Si Si7 0.686963 0.500000 0.750000
Si Si8 0.335451 0.592797 0.902281
O O1 0.589807 0.188273 0.176514
O O2 0.811924 0.262715 0.198223
O O3 0.782505 0.139586 0.128519
O O4 0.766516 0.078795 0.219085
O O5 0.077783 0.815486 0.605305
O O6 0.485936 0.656479 0.144180
O O7 0.398679 0.563118 0.215211
O O8 0.259623 0.588149 0.141509
O O9 0.942013 0.836749 0.443140
O O10 0.925538 0.000531 0.402269
O O11 0.380109 0.783832 0.496701
O O12 0.745748 0.904298 0.951231
#
# Coordination Sequence:
#
# PCOD8296632 Si02
#       8
#    16   8  16  16   8   8   8  16
#     4  11  23  44  71 102 142 186 242 297 365 437
#     4  10  23  46  67 100 142 190 222 307 367 436
#     4  11  23  46  65 101 145 190 230 302 361 431
#     4  12  23  46  76  97 144 195 232 296 375 432
#     4  12  25  48  75 108 148 196 248 305 381 450
#     4  12  26  46  72 112 142 192 252 308 366 466
#     4  12  24  42  70 106 136 186 252 288 362 440
#     4  11  24  44  73 100 144 181 245 293 369 432
#
# _framework density 22.921355999999999
#
# number of rings (size 3 to 8) (size 9 to 14) (size 15 to 20)
#    0.000    0.667    5.000    3.000    0.000    2.000 
#    9.000    0.000    0.000    0.000    0.000    0.000 
#    0.000    0.000    0.000    0.000    0.000    0.000 
#
# Total GULP energy -595007.236199 kJ/mol
# GULP energy per Si atom -12395.984087 kJ/mol
# Density = 2.286919 g / cm^3
# Si number density = 22.921356 Si / 1000 Ang^3
#
#
#
# Elastic Constant Matrix: (Units=GPa)
#
#
# Indices 1 2 3 4 5 6 
#
# 1 106.8450 22.9956 22.0141 0.0000 0.0000 0.0000
# 2 22.9956 126.9070 41.6873 0.0000 0.0000 0.0000
# 3 22.0141 41.6873 82.3621 0.0000 0.0000 0.0000
# 4 0.0000 0.0000 0.0000 23.6763 0.0000 0.0000
# 5 0.0000 0.0000 0.0000 0.0000 11.8695 0.0000
# 6 0.0000 0.0000 0.0000 0.0000 0.0000 25.3457
#
#
#
# Elastic Compliance Matrix: (Units=1/GPa)
#
#
# Indices 1 2 3 4 5 6 
#
# 1 0.010037 -0.001124 -0.002114 0.000000 0.000000 0.000000
# 2 -0.001124 0.009577 -0.004547 0.000000 0.000000 0.000000
# 3 -0.002114 -0.004547 0.015008 0.000000 0.000000 0.000000
# 4 0.000000 0.000000 0.000000 0.042236 0.000000 0.000000
# 5 0.000000 0.000000 0.000000 0.000000 0.084249 0.000000
# 6 0.000000 0.000000 0.000000 0.000000 0.000000 0.039454
#
#
# Mechanical properties :
#
#
# Convention : Reuss Voigt Hill
#
# Bulk Modulus (GPa) = 52.48782 54.38980 53.43881
# Shear Modulus (GPa) = 22.47369 27.47276 24.97322
#
# Velocity S-wave (km/s) = 3.13464 3.46579 3.30437
# Velocity P-wave (km/s) = 6.00417 6.30840 6.15817
#
# Compressibility (1/GPa) = 0.01905204
#
# Stress axis : x y z
#
# Youngs Moduli (GPa) = 99.63307 104.41546 66.63186
#
# Poissons Ratio (x) = 0.11740 0.14083
# Poissons Ratio (y) = 0.11203 0.30297
# Poissons Ratio (z) = 0.21058 0.47477
#
# Static dielectric constant tensor:
#      x y z
#    x 4.139570 0.000000 0.000000 
#    y 0.000000 4.274720 0.000000 
#    z 0.000000 0.000000 4.089530 
# 
# 
# High freq. dielectric constant tensor:
#      x y z
#    x 1.894310 0.000000 0.000000 
#    y 0.000000 1.916270 0.000000 
#    z 0.000000 0.000000 1.900270 
# 
# From -- ./inp_files/33997.got.cif
#   From: 2010.03.12/outbox.cif.g09.slc.cpg/sg73_17_cif.got.tgz:33997.got - 2010.04.16 15:25:48.
