data_PCOD8296503
_publ_section_title
;
Structure prediction by ZEFSAII (Michael W. Deem and Ramdas Pophale) SiO2 
 PCOD8296503
Probable space group: I B C A 
;
_chemical_formula_sum "Si O2"
_cell_formula_units_Z 88
_cell_length_a 13.074182
_cell_length_b 15.820930
_cell_length_c 19.092015
_cell_angle_alpha 90.000000
_cell_angle_beta 90.000000
_cell_angle_gamma 90.000000
_cell_volume 3949.101555
_symmetry_space_group_name_H-M "I B C A "
_symmetry_group_IT_number 73
_symmetry_cell_setting 'orthorhombic'
loop_
_space_group_symop_operation_xyz
x,y,z
-x,1/2-y,z
x,-y,1/2-z
1/2-x,y,-z
-x,-y,-z
x,1/2+y,-z
-x,y,1/2+z
1/2+x,-y,z
1/2+x,1/2+y,1/2+z
1/2-x,-y,1/2+z
1/2+x,1/2-y,-z
-x,1/2+y,1/2-z
1/2-x,1/2-y,1/2-z
1/2+x,y,1/2-z
1/2-x,1/2+y,z
x,1/2-y,1/2+z
loop_
_atom_site_type_symbol
_atom_site_label
_atom_site_fract_x
_atom_site_fract_y
_atom_site_fract_z
Si Si1 0.307133 0.159684 0.131666
Si Si2 0.041797 0.666079 0.491036
Si Si3 0.516323 0.068757 0.124500
Si Si4 0.750000 0.235900 0.000000
Si Si5 0.415161 0.883616 0.641235
Si Si6 0.599321 0.703761 0.786528
O O1 0.400632 0.095440 0.142282
O O2 0.205997 0.101901 0.132865
O O3 0.307783 0.230929 0.194702
O O4 0.307190 0.207626 0.057720
O O5 0.160314 0.677173 0.467022
O O6 0.000000 0.750000 0.531679
O O7 0.034762 0.584201 0.541514
O O8 0.966091 0.660914 0.425037
O O9 0.605015 0.118622 0.167035
O O10 0.527450 0.972427 0.149331
O O11 0.422640 0.819777 0.706408
O O12 0.500000 0.750000 0.817058
#
# Coordination Sequence:
#
# PCOD8296503 Si02
#       6
#    16  16  16   8  16  16
#     4  11  22  42  70  96 135 187 232 282 343 429
#     4  12  22  41  67  99 135 182 236 284 339 431
#     4  11  23  44  64  96 141 177 217 291 362 400
#     4  12  22  40  74 100 128 182 244 280 342 418
#     4  12  25  40  67 106 138 175 232 299 349 416
#     4  10  22  44  68  95 137 183 230 277 348 423
#
# _framework density 22.283549000000001
#
# number of rings (size 3 to 8) (size 9 to 14) (size 15 to 20)
#    0.000    0.727    5.455    2.727    0.000    1.455 
#    0.000    3.636    0.000    0.000    0.000    0.000 
#    0.000    0.000    0.000    0.000    0.000    0.000 
#
# Total GULP energy -545215.542537 kJ/mol
# GULP energy per Si atom -12391.262330 kJ/mol
# Density = 2.223283 g / cm^3
# Si number density = 22.283549 Si / 1000 Ang^3
#
#
#
# Elastic Constant Matrix: (Units=GPa)
#
#
# Indices 1 2 3 4 5 6 
#
# 1 138.6088 45.4534 21.7535 0.0000 0.0000 0.0000
# 2 45.4534 97.5677 31.7264 0.0000 0.0000 0.0000
# 3 21.7535 31.7264 124.5358 0.0000 0.0000 0.0000
# 4 0.0000 0.0000 0.0000 25.1881 0.0000 0.0000
# 5 0.0000 0.0000 0.0000 0.0000 24.5581 0.0000
# 6 0.0000 0.0000 0.0000 0.0000 0.0000 37.4040
#
#
#
# Elastic Compliance Matrix: (Units=1/GPa)
#
#
# Indices 1 2 3 4 5 6 
#
# 1 0.008546 -0.003812 -0.000522 0.000000 0.000000 0.000000
# 2 -0.003812 0.012875 -0.002614 0.000000 0.000000 0.000000
# 3 -0.000522 -0.002614 0.008787 0.000000 0.000000 0.000000
# 4 0.000000 0.000000 0.000000 0.039701 0.000000 0.000000
# 5 0.000000 0.000000 0.000000 0.000000 0.040720 0.000000
# 6 0.000000 0.000000 0.000000 0.000000 0.000000 0.026735
#
#
# Mechanical properties :
#
#
# Convention : Reuss Voigt Hill
#
# Bulk Modulus (GPa) = 61.30101 62.06432 61.68267
# Shear Modulus (GPa) = 31.90851 34.88196 33.39523
#
# Velocity S-wave (km/s) = 3.78819 3.96077 3.87544
# Velocity P-wave (km/s) = 6.83397 6.98781 6.91131
#
# Compressibility (1/GPa) = 0.01631295
#
# Stress axis : x y z
#
# Youngs Moduli (GPa) = 117.00782 77.66893 113.80518
#
# Poissons Ratio (x) = 0.29606 0.05938
# Poissons Ratio (y) = 0.44601 0.29751
# Poissons Ratio (z) = 0.06105 0.20304
#
# Static dielectric constant tensor:
#      x y z
#    x 4.183970 0.000000 0.000000 
#    y 0.000000 3.844170 0.000000 
#    z 0.000000 0.000000 3.872700 
# 
# 
# High freq. dielectric constant tensor:
#      x y z
#    x 1.885530 0.000000 0.000000 
#    y 0.000000 1.861880 0.000000 
#    z 0.000000 0.000000 1.875590 
# 
# From -- ./inp_files/25364.got.cif
#   From: 2010.03.12/outbox.cif.g09.slc.cpg/sg73_13_cif.got.tgz:25364.got - 2010.04.16 15:25:48.
