data_PCOD8296449
_publ_section_title
;
Structure prediction by ZEFSAII (Michael W. Deem and Ramdas Pophale) SiO2 
 PCOD8296449
Probable space group: I B C A 
;
_chemical_formula_sum "Si O2"
_cell_formula_units_Z 64
_cell_length_a 28.450226
_cell_length_b 10.734056
_cell_length_c 8.771052
_cell_angle_alpha 90.000000
_cell_angle_beta 90.000000
_cell_angle_gamma 90.000000
_cell_volume 2678.559285
_symmetry_space_group_name_H-M "I B C A "
_symmetry_group_IT_number 73
_symmetry_cell_setting 'orthorhombic'
loop_
_space_group_symop_operation_xyz
x,y,z
-x,1/2-y,z
x,-y,1/2-z
1/2-x,y,-z
-x,-y,-z
x,1/2+y,-z
-x,y,1/2+z
1/2+x,-y,z
1/2+x,1/2+y,1/2+z
1/2-x,-y,1/2+z
1/2+x,1/2-y,-z
-x,1/2+y,1/2-z
1/2-x,1/2-y,1/2-z
1/2+x,y,1/2-z
1/2-x,1/2+y,z
x,1/2-y,1/2+z
loop_
_atom_site_type_symbol
_atom_site_label
_atom_site_fract_x
_atom_site_fract_y
_atom_site_fract_z
Si Si1 0.935838 0.841592 0.942166
Si Si2 0.500000 0.750000 0.317995
Si Si3 0.878301 0.500000 0.250000
Si Si4 0.788444 0.641359 0.762922
Si Si5 0.153438 0.789300 0.052544
O O1 0.958976 0.808174 0.780683
O O2 0.908770 0.969000 0.903019
O O3 0.898728 0.735147 0.989214
O O4 0.975830 0.855004 0.072157
O O5 0.847307 0.617678 0.199177
O O6 0.768024 0.500000 0.750000
O O7 0.750000 0.750000 0.750000
O O8 0.824811 0.662056 0.622558
O O9 0.813667 0.650996 0.925418
#
# Coordination Sequence:
#
# PCOD8296449 Si02
#       5
#    16   8   8  16  16
#     4  11  22  43  67 103 145 194 245 309 363 447
#     4  10  22  42  66 102 148 186 254 304 372 430
#     4  12  24  42  80 104 142 202 248 302 382 448
#     4  12  29  48  79 113 150 195 249 310 376 454
#     4  12  25  49  75 107 151 196 253 303 378 452
#
# _framework density 23.893440999999999
#
# number of rings (size 3 to 8) (size 9 to 14) (size 15 to 20)
#    0.000    0.500    5.000    2.250    1.750    3.000 
#    0.000    0.000    0.000    0.000    0.000    0.000 
#    0.000    0.000    0.000    0.000    0.000    0.000 
#
# Total GULP energy -396698.625939 kJ/mol
# GULP energy per Si atom -12396.832061 kJ/mol
# Density = 2.383906 g / cm^3
# Si number density = 23.893441 Si / 1000 Ang^3
#
#
#
# Elastic Constant Matrix: (Units=GPa)
#
#
# Indices 1 2 3 4 5 6 
#
# 1 114.9116 49.4641 53.1805 0.0000 0.0000 0.0000
# 2 49.4641 138.2964 41.9945 0.0000 0.0000 0.0000
# 3 53.1805 41.9945 130.4687 0.0000 0.0000 0.0000
# 4 0.0000 0.0000 0.0000 37.0784 0.0000 0.0000
# 5 0.0000 0.0000 0.0000 0.0000 38.6875 0.0000
# 6 0.0000 0.0000 0.0000 0.0000 0.0000 25.8145
#
#
#
# Elastic Compliance Matrix: (Units=1/GPa)
#
#
# Indices 1 2 3 4 5 6 
#
# 1 0.011786 -0.003055 -0.003821 0.000000 0.000000 0.000000
# 2 -0.003055 0.008806 -0.001589 0.000000 0.000000 0.000000
# 3 -0.003821 -0.001589 0.009733 0.000000 0.000000 0.000000
# 4 0.000000 0.000000 0.000000 0.026970 0.000000 0.000000
# 5 0.000000 0.000000 0.000000 0.000000 0.025848 0.000000
# 6 0.000000 0.000000 0.000000 0.000000 0.000000 0.038738
#
#
# Mechanical properties :
#
#
# Convention : Reuss Voigt Hill
#
# Bulk Modulus (GPa) = 74.65222 74.77275 74.71248
# Shear Modulus (GPa) = 34.89765 36.25191 35.57478
#
# Velocity S-wave (km/s) = 3.82586 3.89939 3.86280
# Velocity P-wave (km/s) = 7.12937 7.18581 7.15765
#
# Compressibility (1/GPa) = 0.01339545
#
# Stress axis : x y z
#
# Youngs Moduli (GPa) = 84.84935 113.55710 102.73819
#
# Poissons Ratio (x) = 0.34694 0.39252
# Poissons Ratio (y) = 0.25923 0.16327
# Poissons Ratio (z) = 0.32417 0.18046
#
# Static dielectric constant tensor:
#      x y z
#    x 4.490740 0.000000 0.000000 
#    y 0.000000 4.097450 0.000000 
#    z 0.000000 0.000000 4.505520 
# 
# 
# High freq. dielectric constant tensor:
#      x y z
#    x 1.957960 0.000000 0.000000 
#    y 0.000000 1.924700 0.000000 
#    z 0.000000 0.000000 1.968010 
# 
# From -- ./inp_files/4036.got.cif
#   From: 2010.03.12/outbox.cif.g09.slc.cpg/sg73_3_cif.got.tgz:4036.got - 2010.04.16 15:25:48.
