data_PCOD8296014
_publ_section_title
;
Structure prediction by ZEFSAII (Michael W. Deem and Ramdas Pophale) SiO2 
 PCOD8296014
Probable space group: I B C A 
;
_chemical_formula_sum "Si O2"
_cell_formula_units_Z 96
_cell_length_a 12.422429
_cell_length_b 12.858426
_cell_length_c 30.245908
_cell_angle_alpha 90.000000
_cell_angle_beta 90.000000
_cell_angle_gamma 90.000000
_cell_volume 4831.266115
_symmetry_space_group_name_H-M "I B C A "
_symmetry_group_IT_number 73
_symmetry_cell_setting 'orthorhombic'
loop_
_space_group_symop_operation_xyz
x,y,z
-x,1/2-y,z
x,-y,1/2-z
1/2-x,y,-z
-x,-y,-z
x,1/2+y,-z
-x,y,1/2+z
1/2+x,-y,z
1/2+x,1/2+y,1/2+z
1/2-x,-y,1/2+z
1/2+x,1/2-y,-z
-x,1/2+y,1/2-z
1/2-x,1/2-y,1/2-z
1/2+x,y,1/2-z
1/2-x,1/2+y,z
x,1/2-y,1/2+z
loop_
_atom_site_type_symbol
_atom_site_label
_atom_site_fract_x
_atom_site_fract_y
_atom_site_fract_z
Si Si1 0.762082 0.474117 0.889377
Si Si2 0.363840 0.640759 0.183774
Si Si3 0.886208 0.614658 0.824462
Si Si4 0.127594 0.423450 0.956421
Si Si5 0.392109 0.095986 0.028405
Si Si6 0.250000 0.761075 0.000000
Si Si7 0.753819 0.500000 0.750000
O O1 0.721829 0.395105 0.852631
O O2 0.837101 0.566905 0.869872
O O3 0.652377 0.517632 0.911275
O O4 0.821788 0.409073 0.927307
O O5 0.484834 0.600691 0.174396
O O6 0.357306 0.765113 0.183612
O O7 0.323420 0.589897 0.229757
O O8 0.833239 0.550715 0.785137
O O9 0.009623 0.375012 0.954101
O O10 0.124394 0.489483 0.001896
O O11 0.220769 0.335362 0.958846
O O12 0.353650 0.186299 0.994292
#
# Coordination Sequence:
#
# PCOD8296014 Si02
#       7
#    16  16  16  16  16   8   8
#     4  11  21  39  57  82 120 152 187 243 285 339
#     4  10  22  38  61  89 115 150 188 227 282 343
#     4  10  22  38  61  89 115 150 188 227 282 343
#     4  11  23  39  58  81 113 155 199 243 292 340
#     4  11  23  39  58  81 113 155 199 243 292 340
#     4  12  20  40  56  84 108 150 200 256 280 338
#     4  10  20  40  66  84 122 144 182 232 280 334
#
# _framework density 19.870567000000001
#
# number of rings (size 3 to 8) (size 9 to 14) (size 15 to 20)
#    0.000    1.333    3.333    2.500    2.333    0.000 
#    0.000    0.000    0.000    6.000    0.000    0.000 
#    0.000    0.000    0.000    0.000    0.000    0.000 
#
# Total GULP energy -594703.186409 kJ/mol
# GULP energy per Si atom -12389.649717 kJ/mol
# Density = 1.982534 g / cm^3
# Si number density = 19.870567 Si / 1000 Ang^3
#
#
#
# Elastic Constant Matrix: (Units=GPa)
#
#
# Indices 1 2 3 4 5 6 
#
# 1 111.3110 39.3059 38.2595 0.0000 0.0000 0.0000
# 2 39.3059 88.3812 21.2365 0.0000 0.0000 0.0000
# 3 38.2595 21.2365 79.5111 0.0000 0.0000 0.0000
# 4 0.0000 0.0000 0.0000 21.0839 0.0000 0.0000
# 5 0.0000 0.0000 0.0000 0.0000 27.5913 0.0000
# 6 0.0000 0.0000 0.0000 0.0000 0.0000 27.9779
#
#
#
# Elastic Compliance Matrix: (Units=1/GPa)
#
#
# Indices 1 2 3 4 5 6 
#
# 1 0.012096 -0.004254 -0.004684 0.000000 0.000000 0.000000
# 2 -0.004254 0.013587 -0.001582 0.000000 0.000000 0.000000
# 3 -0.004684 -0.001582 0.015253 0.000000 0.000000 0.000000
# 4 0.000000 0.000000 0.000000 0.047430 0.000000 0.000000
# 5 0.000000 0.000000 0.000000 0.000000 0.036243 0.000000
# 6 0.000000 0.000000 0.000000 0.000000 0.000000 0.035743
#
#
# Mechanical properties :
#
#
# Convention : Reuss Voigt Hill
#
# Bulk Modulus (GPa) = 50.26182 52.97857 51.62020
# Shear Modulus (GPa) = 26.59243 27.35738 26.97490
#
# Velocity S-wave (km/s) = 3.66222 3.71452 3.68847
# Velocity P-wave (km/s) = 6.57511 6.71689 6.64638
#
# Compressibility (1/GPa) = 0.01989582
#
# Stress axis : x y z
#
# Youngs Moduli (GPa) = 82.67175 73.60204 65.55941
#
# Poissons Ratio (x) = 0.31310 0.30710
# Poissons Ratio (y) = 0.35168 0.10371
# Poissons Ratio (z) = 0.38725 0.11643
#
# Static dielectric constant tensor:
#      x y z
#    x 3.927620 0.000000 0.000000 
#    y 0.000000 3.696110 0.000000 
#    z 0.000000 0.000000 3.534040 
# 
# 
# High freq. dielectric constant tensor:
#      x y z
#    x 1.789320 0.000000 0.000000 
#    y 0.000000 1.781650 0.000000 
#    z 0.000000 0.000000 1.762600 
# 
# From -- ./inp_files/34272.got.cif
#   From: 2010.03.12/outbox.cif.g09.slc.cpg/sg73_18_cif.got.tgz:34272.got - 2010.04.16 15:25:48.
