data_PCOD8296469
_publ_section_title
;
Structure prediction by ZEFSAII (Michael W. Deem and Ramdas Pophale) SiO2 
 PCOD8296469
Probable space group: I B C A 
;
_chemical_formula_sum "Si O2"
_cell_formula_units_Z 88
_cell_length_a 29.165835
_cell_length_b 5.272940
_cell_length_c 24.123661
_cell_angle_alpha 90.000000
_cell_angle_beta 90.000000
_cell_angle_gamma 90.000000
_cell_volume 3709.970540
_symmetry_space_group_name_H-M "I B C A "
_symmetry_group_IT_number 73
_symmetry_cell_setting 'orthorhombic'
loop_
_space_group_symop_operation_xyz
x,y,z
-x,1/2-y,z
x,-y,1/2-z
1/2-x,y,-z
-x,-y,-z
x,1/2+y,-z
-x,y,1/2+z
1/2+x,-y,z
1/2+x,1/2+y,1/2+z
1/2-x,-y,1/2+z
1/2+x,1/2-y,-z
-x,1/2+y,1/2-z
1/2-x,1/2-y,1/2-z
1/2+x,y,1/2-z
1/2-x,1/2+y,z
x,1/2-y,1/2+z
loop_
_atom_site_type_symbol
_atom_site_label
_atom_site_fract_x
_atom_site_fract_y
_atom_site_fract_z
Si Si1 0.948302 0.303139 0.524419
Si Si2 0.529908 0.000000 0.750000
Si Si3 0.413135 0.940013 0.138482
Si Si4 0.230933 0.541925 0.687952
Si Si5 0.645855 0.561003 0.866723
Si Si6 0.197587 0.477155 0.976734
O O1 0.924079 0.529152 0.487848
O O2 0.948471 0.384723 0.588671
O O3 0.000000 0.250000 0.503813
O O4 0.500000 0.750000 0.761916
O O5 0.560874 0.946782 0.696615
O O6 0.377836 0.710170 0.137084
O O7 0.389552 0.210102 0.126708
O O8 0.249871 0.500000 0.750000
O O9 0.242758 0.274744 0.657581
O O10 0.176050 0.595433 0.688826
O O11 0.687559 0.561970 0.911859
O O12 0.250000 0.495837 0.000000
O O13 0.172815 0.240246 0.006866
#
# Coordination Sequence:
#
# PCOD8296469 Si02
#       6
#    16   8  16  16  16  16
#     4  10  22  42  70  99 135 179 225 279 348 437
#     4  12  28  52  80 106 148 198 240 288 362 468
#     4  12  27  44  71 109 144 183 234 301 364 420
#     4  10  23  41  65  90 123 174 233 281 334 414
#     4  12  26  41  69  99 139 182 231 301 353 402
#     4  10  23  40  63  91 132 186 239 289 345 430
#
# _framework density 23.719864999999999
#
# number of rings (size 3 to 8) (size 9 to 14) (size 15 to 20)
#    0.000    1.091    0.000    4.909    7.636    6.545 
#    0.000    0.000    0.000    0.000    0.000    0.000 
#    0.000    0.000    0.000    0.000    0.000    0.000 
#
# Total GULP energy -545111.823255 kJ/mol
# GULP energy per Si atom -12388.905074 kJ/mol
# Density = 2.366588 g / cm^3
# Si number density = 23.719865 Si / 1000 Ang^3
#
#
#
# Elastic Constant Matrix: (Units=GPa)
#
#
# Indices 1 2 3 4 5 6 
#
# 1 64.5131 33.5054 34.0077 0.0000 0.0000 0.0000
# 2 33.5054 214.4408 40.5335 0.0000 0.0000 0.0000
# 3 34.0077 40.5335 122.5923 0.0000 0.0000 0.0000
# 4 0.0000 0.0000 0.0000 29.9991 0.0000 0.0000
# 5 0.0000 0.0000 0.0000 0.0000 39.5585 0.0000
# 6 0.0000 0.0000 0.0000 0.0000 0.0000 26.9934
#
#
#
# Elastic Compliance Matrix: (Units=1/GPa)
#
#
# Indices 1 2 3 4 5 6 
#
# 1 0.019006 -0.002105 -0.004577 0.000000 0.000000 0.000000
# 2 -0.002105 0.005207 -0.001138 0.000000 0.000000 0.000000
# 3 -0.004577 -0.001138 0.009803 0.000000 0.000000 0.000000
# 4 0.000000 0.000000 0.000000 0.033334 0.000000 0.000000
# 5 0.000000 0.000000 0.000000 0.000000 0.025279 0.000000
# 6 0.000000 0.000000 0.000000 0.000000 0.000000 0.037046
#
#
# Mechanical properties :
#
#
# Convention : Reuss Voigt Hill
#
# Bulk Modulus (GPa) = 54.41192 68.62658 61.51925
# Shear Modulus (GPa) = 33.01637 38.87684 35.94661
#
# Velocity S-wave (km/s) = 3.73490 4.05285 3.89712
# Velocity P-wave (km/s) = 6.44892 7.13412 6.80016
#
# Compressibility (1/GPa) = 0.01837833
#
# Stress axis : x y z
#
# Youngs Moduli (GPa) = 52.61419 192.04169 102.01064
#
# Poissons Ratio (x) = 0.40417 0.46686
# Poissons Ratio (y) = 0.11073 0.11607
# Poissons Ratio (z) = 0.24079 0.21852
#
# Static dielectric constant tensor:
#      x y z
#    x 4.554800 0.000000 0.000000 
#    y 0.000000 5.551850 0.000000 
#    z 0.000000 0.000000 4.241530 
# 
# 
# High freq. dielectric constant tensor:
#      x y z
#    x 1.923890 0.000000 0.000000 
#    y 0.000000 1.983890 0.000000 
#    z 0.000000 0.000000 1.933000 
# 
# From -- ./inp_files/30620.got.cif
#   From: 2010.03.12/outbox.cif.g09.slc.cpg/sg73_16_cif.got.tgz:30620.got - 2010.04.16 15:25:48.
