data_PCOD8296749
_publ_section_title
;
Structure prediction by ZEFSAII (Michael W. Deem and Ramdas Pophale) SiO2 
 PCOD8296749
Probable space group: I B C A 
;
_chemical_formula_sum "Si O2"
_cell_formula_units_Z 72
_cell_length_a 5.033591
_cell_length_b 20.005494
_cell_length_c 28.139847
_cell_angle_alpha 90.000000
_cell_angle_beta 90.000000
_cell_angle_gamma 90.000000
_cell_volume 2833.667807
_symmetry_space_group_name_H-M "I B C A "
_symmetry_group_IT_number 73
_symmetry_cell_setting 'orthorhombic'
loop_
_space_group_symop_operation_xyz
x,y,z
-x,1/2-y,z
x,-y,1/2-z
1/2-x,y,-z
-x,-y,-z
x,1/2+y,-z
-x,y,1/2+z
1/2+x,-y,z
1/2+x,1/2+y,1/2+z
1/2-x,-y,1/2+z
1/2+x,1/2-y,-z
-x,1/2+y,1/2-z
1/2-x,1/2-y,1/2-z
1/2+x,y,1/2-z
1/2-x,1/2+y,z
x,1/2-y,1/2+z
loop_
_atom_site_type_symbol
_atom_site_label
_atom_site_fract_x
_atom_site_fract_y
_atom_site_fract_z
Si Si1 0.217382 0.672313 0.780981
Si Si2 0.750000 0.204101 0.500000
Si Si3 0.142882 0.456896 0.335146
Si Si4 0.000000 0.750000 0.141711
Si Si5 0.498058 0.127600 0.579293
Si Si6 0.250000 0.547555 0.500000
O O1 0.419200 0.686712 0.737204
O O2 0.273147 0.596000 0.795351
O O3 0.265205 0.720625 0.825711
O O4 0.500000 0.250000 0.491235
O O5 0.725203 0.156457 0.545289
O O6 0.339186 0.519427 0.328842
O O7 0.152842 0.425419 0.387748
O O8 0.123172 0.810438 0.109935
O O9 0.265475 0.094089 0.547290
O O10 0.500000 0.500000 0.500000
#
# Coordination Sequence:
#
# PCOD8296749 Si02
#       6
#    16   8  16   8  16   8
#     4  11  24  46  71 102 139 184 232 291 366 437
#     4  12  26  46  70 106 146 194 244 298 358 438
#     4  11  25  45  71 104 141 185 239 299 354 426
#     4  10  24  46  70 106 142 186 232 302 364 436
#     4  11  25  47  72 106 146 191 244 299 365 426
#     4  12  26  48  74 102 142 196 246 298 352 424
#
# _framework density 25.408767000000001
#
# number of rings (size 3 to 8) (size 9 to 14) (size 15 to 20)
#    0.000    0.889    1.111    4.667    0.000    6.222 
#    8.000    0.000    0.000    0.000    0.000    0.000 
#    0.000    0.000    0.000    0.000    0.000    0.000 
#
# Total GULP energy -446471.640555 kJ/mol
# GULP energy per Si atom -12401.990015 kJ/mol
# Density = 2.535094 g / cm^3
# Si number density = 25.408767 Si / 1000 Ang^3
#
#
#
# Elastic Constant Matrix: (Units=GPa)
#
#
# Indices 1 2 3 4 5 6 
#
# 1 116.8799 25.1686 21.6196 0.0000 0.0000 0.0000
# 2 25.1686 117.2409 37.5334 0.0000 0.0000 0.0000
# 3 21.6196 37.5334 121.4157 0.0000 0.0000 0.0000
# 4 0.0000 0.0000 0.0000 50.9428 0.0000 0.0000
# 5 0.0000 0.0000 0.0000 0.0000 24.3827 0.0000
# 6 0.0000 0.0000 0.0000 0.0000 0.0000 24.6061
#
#
#
# Elastic Compliance Matrix: (Units=1/GPa)
#
#
# Indices 1 2 3 4 5 6 
#
# 1 0.009108 -0.001594 -0.001129 0.000000 0.000000 0.000000
# 2 -0.001594 0.009745 -0.002729 0.000000 0.000000 0.000000
# 3 -0.001129 -0.002729 0.009281 0.000000 0.000000 0.000000
# 4 0.000000 0.000000 0.000000 0.019630 0.000000 0.000000
# 5 0.000000 0.000000 0.000000 0.000000 0.041013 0.000000
# 6 0.000000 0.000000 0.000000 0.000000 0.000000 0.040640
#
#
# Mechanical properties :
#
#
# Convention : Reuss Voigt Hill
#
# Bulk Modulus (GPa) = 58.03632 58.24217 58.13925
# Shear Modulus (GPa) = 34.23174 38.06731 36.14952
#
# Velocity S-wave (km/s) = 3.67446 3.87485 3.77599
# Velocity P-wave (km/s) = 6.39475 6.55676 6.47626
#
# Compressibility (1/GPa) = 0.01723059
#
# Stress axis : x y z
#
# Youngs Moduli (GPa) = 109.79553 102.61501 107.74983
#
# Poissons Ratio (x) = 0.16354 0.12166
# Poissons Ratio (y) = 0.17499 0.29402
# Poissons Ratio (z) = 0.12397 0.28001
#
# Static dielectric constant tensor:
#      x y z
#    x -12.061880 0.000000 0.000000 
#    y 0.000000 5.163620 0.000000 
#    z 0.000000 0.000000 4.989710 
# 
# 
# High freq. dielectric constant tensor:
#      x y z
#    x 1.992280 0.000000 0.000000 
#    y 0.000000 2.047490 0.000000 
#    z 0.000000 0.000000 2.026480 
# 
# From -- ./inp_files/30865.got.cif
#   From: 2010.03.12/outbox.cif.g09.slc.cpg/sg73_16_cif.got.tgz:30865.got - 2010.04.16 15:25:48.
