data_PCOD8296665
_publ_section_title
;
Structure prediction by ZEFSAII (Michael W. Deem and Ramdas Pophale) SiO2 
 PCOD8296665
Probable space group: I B C A 
;
_chemical_formula_sum "Si O2"
_cell_formula_units_Z 120
_cell_length_a 20.378604
_cell_length_b 28.882073
_cell_length_c 9.175542
_cell_angle_alpha 90.000000
_cell_angle_beta 90.000000
_cell_angle_gamma 90.000000
_cell_volume 5400.506821
_symmetry_space_group_name_H-M "I B C A "
_symmetry_group_IT_number 73
_symmetry_cell_setting 'orthorhombic'
loop_
_space_group_symop_operation_xyz
x,y,z
-x,1/2-y,z
x,-y,1/2-z
1/2-x,y,-z
-x,-y,-z
x,1/2+y,-z
-x,y,1/2+z
1/2+x,-y,z
1/2+x,1/2+y,1/2+z
1/2-x,-y,1/2+z
1/2+x,1/2-y,-z
-x,1/2+y,1/2-z
1/2-x,1/2-y,1/2-z
1/2+x,y,1/2-z
1/2-x,1/2+y,z
x,1/2-y,1/2+z
loop_
_atom_site_type_symbol
_atom_site_label
_atom_site_fract_x
_atom_site_fract_y
_atom_site_fract_z
Si Si1 0.216501 0.866760 0.657259
Si Si2 0.993693 0.900432 0.599789
Si Si3 0.091137 0.675463 0.032476
Si Si4 0.500000 0.750000 0.857732
Si Si5 0.722326 0.791368 0.344374
Si Si6 0.592251 0.825010 0.281269
Si Si7 0.209113 0.957650 0.847676
Si Si8 0.942946 0.956209 0.341412
O O1 0.250000 0.873134 0.500000
O O2 0.146675 0.839580 0.648172
O O3 0.260170 0.839531 0.771272
O O4 0.210395 0.915547 0.735785
O O5 0.925813 0.875926 0.654415
O O6 0.979465 0.944559 0.494515
O O7 0.032332 0.861130 0.513533
O O8 0.041263 0.913644 0.733945
O O9 0.060718 0.726890 0.053914
O O10 0.126520 0.672119 0.876374
O O11 0.473047 0.793194 0.763873
O O12 0.750000 0.782277 0.500000
O O13 0.750000 0.750000 0.250000
O O14 0.644426 0.795859 0.375828
O O15 0.132491 0.964872 0.885292
O O16 0.236907 0.000000 0.750000
O O17 0.250000 0.951907 0.000000
O O18 0.971260 0.000000 0.250000
#
# Coordination Sequence:
#
# PCOD8296665 Si02
#       8
#    16  16  16   8  16  16  16  16
#     4  12  24  43  73  98 142 188 234 299 358 423
#     4  11  23  43  68 102 137 175 230 274 347 420
#     4  11  22  43  65  99 138 178 232 284 349 414
#     4  10  24  40  68  96 136 186 234 288 350 416
#     4  12  28  45  67 101 139 184 241 295 356 426
#     4  11  24  42  68 100 137 181 232 292 348 418
#     4  11  26  48  73 108 141 186 242 296 362 431
#     4  11  24  44  71 102 141 180 223 288 350 429
#
# _framework density 22.220137000000001
#
# number of rings (size 3 to 8) (size 9 to 14) (size 15 to 20)
#    0.000    0.800    4.000    2.800    5.600    0.000 
#    2.400    0.667    0.000    0.000    0.000    0.000 
#    0.000    0.000    0.000    0.000    0.000    0.000 
#
# Total GULP energy -743332.542627 kJ/mol
# GULP energy per Si atom -12388.875710 kJ/mol
# Density = 2.216956 g / cm^3
# Si number density = 22.220137 Si / 1000 Ang^3
#
#
#
# Elastic Constant Matrix: (Units=GPa)
#
#
# Indices 1 2 3 4 5 6 
#
# 1 94.8731 31.0878 37.8342 0.0000 0.0000 0.0000
# 2 31.0878 104.4867 32.8999 0.0000 0.0000 0.0000
# 3 37.8342 32.8999 130.0318 0.0000 0.0000 0.0000
# 4 0.0000 0.0000 0.0000 37.4112 0.0000 0.0000
# 5 0.0000 0.0000 0.0000 0.0000 34.2018 0.0000
# 6 0.0000 0.0000 0.0000 0.0000 0.0000 35.2654
#
#
#
# Elastic Compliance Matrix: (Units=1/GPa)
#
#
# Indices 1 2 3 4 5 6 
#
# 1 0.012650 -0.002830 -0.002965 0.000000 0.000000 0.000000
# 2 -0.002830 0.011032 -0.001968 0.000000 0.000000 0.000000
# 3 -0.002965 -0.001968 0.009051 0.000000 0.000000 0.000000
# 4 0.000000 0.000000 0.000000 0.026730 0.000000 0.000000
# 5 0.000000 0.000000 0.000000 0.000000 0.029238 0.000000
# 6 0.000000 0.000000 0.000000 0.000000 0.000000 0.028356
#
#
# Mechanical properties :
#
#
# Convention : Reuss Voigt Hill
#
# Bulk Modulus (GPa) = 58.11293 59.22613 58.66953
# Shear Modulus (GPa) = 36.14830 36.54702 36.34766
#
# Velocity S-wave (km/s) = 4.03777 4.05998 4.04889
# Velocity P-wave (km/s) = 6.92446 6.97782 6.95119
#
# Compressibility (1/GPa) = 0.01720787
#
# Stress axis : x y z
#
# Youngs Moduli (GPa) = 79.05104 90.64290 110.48645
#
# Poissons Ratio (x) = 0.25655 0.32754
# Poissons Ratio (y) = 0.22374 0.21742
# Poissons Ratio (z) = 0.23435 0.17837
#
# Static dielectric constant tensor:
#      x y z
#    x 4.333020 0.000000 0.000000 
#    y 0.000000 4.026410 0.000000 
#    z 0.000000 0.000000 3.606680 
# 
# 
# High freq. dielectric constant tensor:
#      x y z
#    x 1.877760 0.000000 0.000000 
#    y 0.000000 1.881820 0.000000 
#    z 0.000000 0.000000 1.875140 
# 
# From -- ./inp_files/7402.got.cif
#   From: 2010.03.12/outbox.cif.g09.slc.cpg/sg73_4_cif.got.tgz:7402.got - 2010.04.16 15:25:48.
