data_PCOD8296575
_publ_section_title
;
Structure prediction by ZEFSAII (Michael W. Deem and Ramdas Pophale) SiO2 
 PCOD8296575
Probable space group: I B C A 
;
_chemical_formula_sum "Si O2"
_cell_formula_units_Z 72
_cell_length_a 17.451241
_cell_length_b 18.181540
_cell_length_c 10.380741
_cell_angle_alpha 90.000000
_cell_angle_beta 90.000000
_cell_angle_gamma 90.000000
_cell_volume 3293.709841
_symmetry_space_group_name_H-M "I B C A "
_symmetry_group_IT_number 73
_symmetry_cell_setting 'orthorhombic'
loop_
_space_group_symop_operation_xyz
x,y,z
-x,1/2-y,z
x,-y,1/2-z
1/2-x,y,-z
-x,-y,-z
x,1/2+y,-z
-x,y,1/2+z
1/2+x,-y,z
1/2+x,1/2+y,1/2+z
1/2-x,-y,1/2+z
1/2+x,1/2-y,-z
-x,1/2+y,1/2-z
1/2-x,1/2-y,1/2-z
1/2+x,y,1/2-z
1/2-x,1/2+y,z
x,1/2-y,1/2+z
loop_
_atom_site_type_symbol
_atom_site_label
_atom_site_fract_x
_atom_site_fract_y
_atom_site_fract_z
Si Si1 0.830488 0.731355 0.309669
Si Si2 0.699978 0.506486 0.113203
Si Si3 0.535718 0.671204 0.845103
Si Si4 0.573747 0.625436 0.122676
Si Si5 0.750000 0.367757 0.000000
O O1 0.750000 0.750000 0.250000
O O2 0.878598 0.684578 0.206582
O O3 0.872324 0.804050 0.359525
O O4 0.813407 0.680515 0.430425
O O5 0.744404 0.500000 0.250000
O O6 0.620487 0.549289 0.132493
O O7 0.690956 0.419831 0.079814
O O8 0.750000 0.546043 0.000000
O O9 0.500000 0.750000 0.873708
O O10 0.489916 0.625799 0.735207
O O11 0.536100 0.627342 0.980190
#
# Coordination Sequence:
#
# PCOD8296575 Si02
#       5
#    16  16  16  16   8
#     4  11  22  38  71 104 136 175 233 287 355 406
#     4  10  25  44  67  95 141 175 230 292 342 411
#     4  10  23  42  65 101 140 177 229 288 340 420
#     4  11  24  43  71  97 139 184 229 279 357 413
#     4  10  24  38  64 102 140 166 228 296 338 404
#
# _framework density 21.859849000000001
#
# number of rings (size 3 to 8) (size 9 to 14) (size 15 to 20)
#    0.667    0.889    0.000    4.667    7.778    5.333 
#    0.000    4.444    0.000    0.000    0.000    0.000 
#    0.000    0.000    0.000    0.000    0.000    0.000 
#
# Total GULP energy -446049.796785 kJ/mol
# GULP energy per Si atom -12390.272133 kJ/mol
# Density = 2.181010 g / cm^3
# Si number density = 21.859849 Si / 1000 Ang^3
#
#
#
# Elastic Constant Matrix: (Units=GPa)
#
#
# Indices 1 2 3 4 5 6 
#
# 1 118.4332 34.8839 65.8747 0.0000 0.0000 0.0000
# 2 34.8839 81.4426 41.5126 0.0000 0.0000 0.0000
# 3 65.8747 41.5126 195.5527 0.0000 0.0000 0.0000
# 4 0.0000 0.0000 0.0000 18.5588 0.0000 0.0000
# 5 0.0000 0.0000 0.0000 0.0000 35.7022 0.0000
# 6 0.0000 0.0000 0.0000 0.0000 0.0000 2.4814
#
#
#
# Elastic Compliance Matrix: (Units=1/GPa)
#
#
# Indices 1 2 3 4 5 6 
#
# 1 0.011083 -0.003189 -0.003056 0.000000 0.000000 0.000000
# 2 -0.003189 0.014686 -0.002043 0.000000 0.000000 0.000000
# 3 -0.003056 -0.002043 0.006577 0.000000 0.000000 0.000000
# 4 0.000000 0.000000 0.000000 0.053883 0.000000 0.000000
# 5 0.000000 0.000000 0.000000 0.000000 0.028009 0.000000
# 6 0.000000 0.000000 0.000000 0.000000 0.000000 0.402999
#
#
# Mechanical properties :
#
#
# Convention : Reuss Voigt Hill
#
# Bulk Modulus (GPa) = 63.41842 75.55232 69.48537
# Shear Modulus (GPa) = 9.27520 28.22564 18.75042
#
# Velocity S-wave (km/s) = 2.06210 3.59724 2.93192
# Velocity P-wave (km/s) = 5.89441 7.20352 6.58159
#
# Compressibility (1/GPa) = 0.01576829
#
# Stress axis : x y z
#
# Youngs Moduli (GPa) = 90.22830 68.09167 152.04324
#
# Poissons Ratio (x) = 0.21716 0.46471
# Poissons Ratio (y) = 0.28776 0.31067
# Poissons Ratio (z) = 0.27578 0.13913
#
# Static dielectric constant tensor:
#      x y z
#    x 4.145220 0.000000 0.000000 
#    y 0.000000 3.425990 0.000000 
#    z 0.000000 0.000000 4.263610 
# 
# 
# High freq. dielectric constant tensor:
#      x y z
#    x 1.846000 0.000000 0.000000 
#    y 0.000000 1.851300 0.000000 
#    z 0.000000 0.000000 1.884690 
# 
# From -- ./inp_files/5359.got.cif
#   From: 2010.03.12/outbox.cif.g09.slc.cpg/sg73_3_cif.got.tgz:5359.got - 2010.04.16 15:25:48.
