data_PCOD8296878
_publ_section_title
;
Structure prediction by ZEFSAII (Michael W. Deem and Ramdas Pophale) SiO2 
 PCOD8296878
Probable space group: I B C A 
;
_chemical_formula_sum "Si O2"
_cell_formula_units_Z 80
_cell_length_a 15.120156
_cell_length_b 28.285380
_cell_length_c 8.440390
_cell_angle_alpha 90.000000
_cell_angle_beta 90.000000
_cell_angle_gamma 90.000000
_cell_volume 3609.780577
_symmetry_space_group_name_H-M "I B C A "
_symmetry_group_IT_number 73
_symmetry_cell_setting 'orthorhombic'
loop_
_space_group_symop_operation_xyz
x,y,z
-x,1/2-y,z
x,-y,1/2-z
1/2-x,y,-z
-x,-y,-z
x,1/2+y,-z
-x,y,1/2+z
1/2+x,-y,z
1/2+x,1/2+y,1/2+z
1/2-x,-y,1/2+z
1/2+x,1/2-y,-z
-x,1/2+y,1/2-z
1/2-x,1/2-y,1/2-z
1/2+x,y,1/2-z
1/2-x,1/2+y,z
x,1/2-y,1/2+z
loop_
_atom_site_type_symbol
_atom_site_label
_atom_site_fract_x
_atom_site_fract_y
_atom_site_fract_z
Si Si1 0.428883 0.388330 0.303140
Si Si2 0.226822 0.448881 0.816969
Si Si3 0.832463 0.790416 0.116042
Si Si4 0.582193 0.781226 0.192438
Si Si5 0.116112 0.608499 0.171609
O O1 0.361126 0.417563 0.196811
O O2 0.422132 0.334314 0.241862
O O3 0.529351 0.404951 0.272728
O O4 0.404467 0.395256 0.485826
O O5 0.203807 0.500000 0.750000
O O6 0.307730 0.428225 0.715266
O O7 0.250000 0.451629 0.000000
O O8 0.830373 0.745245 0.234721
O O9 0.848364 0.838790 0.214020
O O10 0.750000 0.796520 0.000000
O O11 0.914942 0.782164 0.997452
O O12 0.500000 0.750000 0.248554
#
# Coordination Sequence:
#
# PCOD8296878 Si02
#       5
#    16  16  16  16  16
#     4  11  24  42  70 101 142 190 234 291 352 419
#     4  12  27  49  75 104 137 177 233 298 361 424
#     4  11  23  38  61  94 137 184 233 284 340 403
#     4  11  22  38  61  93 137 183 231 281 337 408
#     4  11  23  44  68 102 141 183 234 288 350 418
#
# _framework density 22.162012000000001
#
# number of rings (size 3 to 8) (size 9 to 14) (size 15 to 20)
#    0.000    0.800    2.000    6.600    2.800    3.200 
#    0.000    4.000    0.000    0.000    0.000    0.000 
#    0.000    0.000    0.000    0.000    0.000    0.000 
#
# Total GULP energy -496069.484773 kJ/mol
# GULP energy per Si atom -12401.737119 kJ/mol
# Density = 2.211157 g / cm^3
# Si number density = 22.162012 Si / 1000 Ang^3
#
#
#
# Elastic Constant Matrix: (Units=GPa)
#
#
# Indices 1 2 3 4 5 6 
#
# 1 120.2593 52.7814 14.1032 -0.0115 0.0078 0.0012
# 2 52.7814 146.2500 38.8584 -0.0112 0.0056 0.0009
# 3 14.1032 38.8584 78.3260 -0.0429 0.0204 0.0028
# 4 -0.0115 -0.0112 -0.0429 32.2734 0.0098 0.0013
# 5 0.0078 0.0056 0.0204 0.0098 36.4225 -0.0012
# 6 0.0012 0.0009 0.0028 0.0013 -0.0012 36.5099
#
#
#
# Elastic Compliance Matrix: (Units=1/GPa)
#
#
# Indices 1 2 3 4 5 6 
#
# 1 0.009880 -0.003563 -0.000012 0.000002 -0.000002 0.000000
# 2 -0.003563 0.009160 -0.003903 -0.000003 0.000002 0.000000
# 3 -0.000012 -0.003903 0.014706 0.000018 -0.000008 -0.000001
# 4 0.000002 -0.000003 0.000018 0.030985 -0.000008 -0.000001
# 5 -0.000002 0.000002 -0.000008 -0.000008 0.027456 0.000001
# 6 0.000000 0.000000 -0.000001 -0.000001 0.000001 0.027390
#
#
# Mechanical properties :
#
#
# Convention : Reuss Voigt Hill
#
# Bulk Modulus (GPa) = 53.21498 61.81349 57.51424
# Shear Modulus (GPa) = 35.51242 36.98064 36.24653
#
# Velocity S-wave (km/s) = 4.00734 4.08934 4.04855
# Velocity P-wave (km/s) = 6.74356 7.08866 6.91827
#
# Compressibility (1/GPa) = 0.01879170
#
# Stress axis : x y z
#
# Youngs Moduli (GPa) = 101.21044 109.16498 68.00127
#
# Poissons Ratio (x) = 0.38893 0.00078
# Poissons Ratio (y) = 0.36059 0.26542
# Poissons Ratio (z) = 0.00117 0.42608
#
# Static dielectric constant tensor:
#      x y z
#    x 4.185360 0.000010 0.000020 
#    y 0.000010 4.057090 -0.000040 
#    z 0.000020 -0.000040 4.089980 
# 
# 
# High freq. dielectric constant tensor:
#      x y z
#    x 1.889020 0.000000 0.000000 
#    y 0.000000 1.866710 0.000000 
#    z 0.000000 0.000000 1.876010 
# 
# From -- ./inp_files/5594.got.cif
#   From: 2010.03.12/outbox.cif.g09.slc.cpg/sg73_3_cif.got.tgz:5594.got - 2010.04.16 15:25:48.
