data_PCOD8296852
_publ_section_title
;
Structure prediction by ZEFSAII (Michael W. Deem and Ramdas Pophale) SiO2 
 PCOD8296852
Probable space group: I B C A 
;
_chemical_formula_sum "Si O2"
_cell_formula_units_Z 112
_cell_length_a 13.875251
_cell_length_b 13.647918
_cell_length_c 26.674370
_cell_angle_alpha 90.000000
_cell_angle_beta 90.000000
_cell_angle_gamma 90.000000
_cell_volume 5051.279777
_symmetry_space_group_name_H-M "I B C A "
_symmetry_group_IT_number 73
_symmetry_cell_setting 'orthorhombic'
loop_
_space_group_symop_operation_xyz
x,y,z
-x,1/2-y,z
x,-y,1/2-z
1/2-x,y,-z
-x,-y,-z
x,1/2+y,-z
-x,y,1/2+z
1/2+x,-y,z
1/2+x,1/2+y,1/2+z
1/2-x,-y,1/2+z
1/2+x,1/2-y,-z
-x,1/2+y,1/2-z
1/2-x,1/2-y,1/2-z
1/2+x,y,1/2-z
1/2-x,1/2+y,z
x,1/2-y,1/2+z
loop_
_atom_site_type_symbol
_atom_site_label
_atom_site_fract_x
_atom_site_fract_y
_atom_site_fract_z
Si Si1 0.665589 0.061205 0.795795
Si Si2 0.082868 0.042725 0.401307
Si Si3 0.115949 0.571484 0.708747
Si Si4 0.799886 0.145200 0.615033
Si Si5 0.755297 0.840573 0.442673
Si Si6 0.608464 0.773122 0.212025
Si Si7 0.625861 0.510958 0.399690
O O1 0.776815 0.032840 0.805250
O O2 0.666455 0.173918 0.780842
O O3 0.606530 0.043521 0.846691
O O4 0.620234 0.000000 0.750000
O O5 0.059893 0.067886 0.343248
O O6 0.148517 0.129898 0.423513
O O7 0.131005 0.936074 0.410642
O O8 0.975598 0.042032 0.425216
O O9 0.067807 0.500000 0.750000
O O10 0.110937 0.678941 0.732897
O O11 0.801992 0.250385 0.587780
O O12 0.837098 0.157996 0.671914
O O13 0.690432 0.106523 0.611578
O O14 0.750000 0.807743 0.500000
O O15 0.823530 0.935305 0.437574
O O16 0.500000 0.750000 0.193903
#
# Coordination Sequence:
#
# PCOD8296852 Si02
#       7
#    16  16  16  16  16  16  16
#     4  11  22  39  60  89 133 182 221 267 332 403
#     4  11  24  44  71 101 140 176 228 281 350 420
#     4  11  21  39  60  94 134 175 220 270 321 402
#     4  11  22  45  70  97 135 184 227 285 345 415
#     4  11  26  48  71 101 133 173 232 297 357 420
#     4  12  24  37  62  98 135 183 230 271 332 409
#     4  11  24  44  72  99 138 180 226 291 350 411
#
# _framework density 22.172599000000002
#
# number of rings (size 3 to 8) (size 9 to 14) (size 15 to 20)
#    0.000    0.857    5.714    2.143    2.000    4.571 
#    0.000    1.429    0.000    0.000    0.000    0.000 
#    0.000    0.000    0.000    0.000    0.000    0.000 
#
# Total GULP energy -694488.375943 kJ/mol
# GULP energy per Si atom -12401.578142 kJ/mol
# Density = 2.212213 g / cm^3
# Si number density = 22.172599 Si / 1000 Ang^3
#
#
#
# Elastic Constant Matrix: (Units=GPa)
#
#
# Indices 1 2 3 4 5 6 
#
# 1 131.8220 25.6736 13.2237 0.0000 0.0000 0.0000
# 2 25.6736 94.4069 15.5557 0.0000 0.0000 0.0000
# 3 13.2237 15.5557 70.2289 0.0000 0.0000 0.0000
# 4 0.0000 0.0000 0.0000 25.6470 0.0000 0.0000
# 5 0.0000 0.0000 0.0000 0.0000 8.8490 0.0000
# 6 0.0000 0.0000 0.0000 0.0000 0.0000 26.0138
#
#
#
# Elastic Compliance Matrix: (Units=1/GPa)
#
#
# Indices 1 2 3 4 5 6 
#
# 1 0.008088 -0.002022 -0.001075 0.000000 0.000000 0.000000
# 2 -0.002022 0.011499 -0.002166 0.000000 0.000000 0.000000
# 3 -0.001075 -0.002166 0.014921 0.000000 0.000000 0.000000
# 4 0.000000 0.000000 0.000000 0.038991 0.000000 0.000000
# 5 0.000000 0.000000 0.000000 0.000000 0.113007 0.000000
# 6 0.000000 0.000000 0.000000 0.000000 0.000000 0.038441
#
#
# Mechanical properties :
#
#
# Convention : Reuss Voigt Hill
#
# Bulk Modulus (GPa) = 41.69907 45.04042 43.36975
# Shear Modulus (GPa) = 20.53657 28.23563 24.38610
#
# Velocity S-wave (km/s) = 3.04668 3.57241 3.31997
# Velocity P-wave (km/s) = 5.58782 6.11341 5.85652
#
# Compressibility (1/GPa) = 0.02398135
#
# Stress axis : x y z
#
# Youngs Moduli (GPa) = 123.64489 86.96147 67.01785
#
# Poissons Ratio (x) = 0.17586 0.07204
# Poissons Ratio (y) = 0.25005 0.14518
# Poissons Ratio (z) = 0.13291 0.18839
#
# Static dielectric constant tensor:
#      x y z
#    x 3.932200 0.000000 0.000000 
#    y 0.000000 3.975100 0.000000 
#    z 0.000000 0.000000 3.706770 
# 
# 
# High freq. dielectric constant tensor:
#      x y z
#    x 1.874200 0.000000 0.000000 
#    y 0.000000 1.879990 0.000000 
#    z 0.000000 0.000000 1.844630 
# 
# From -- ./inp_files/32184.got.cif
#   From: 2010.03.12/outbox.cif.g09.slc.cpg/sg73_17_cif.got.tgz:32184.got - 2010.04.16 15:25:48.
