data_PCOD8296012
_publ_section_title
;
Structure prediction by ZEFSAII (Michael W. Deem and Ramdas Pophale) SiO2 
 PCOD8296012
Probable space group: I B C A 
;
_chemical_formula_sum "Si O2"
_cell_formula_units_Z 72
_cell_length_a 8.943592
_cell_length_b 17.740096
_cell_length_c 18.907291
_cell_angle_alpha 90.000000
_cell_angle_beta 90.000000
_cell_angle_gamma 90.000000
_cell_volume 2999.834206
_symmetry_space_group_name_H-M "I B C A "
_symmetry_group_IT_number 73
_symmetry_cell_setting 'orthorhombic'
loop_
_space_group_symop_operation_xyz
x,y,z
-x,1/2-y,z
x,-y,1/2-z
1/2-x,y,-z
-x,-y,-z
x,1/2+y,-z
-x,y,1/2+z
1/2+x,-y,z
1/2+x,1/2+y,1/2+z
1/2-x,-y,1/2+z
1/2+x,1/2-y,-z
-x,1/2+y,1/2-z
1/2-x,1/2-y,1/2-z
1/2+x,y,1/2-z
1/2-x,1/2+y,z
x,1/2-y,1/2+z
loop_
_atom_site_type_symbol
_atom_site_label
_atom_site_fract_x
_atom_site_fract_y
_atom_site_fract_z
Si Si1 0.017143 0.452602 0.396880
Si Si2 0.134362 0.801018 0.063000
Si Si3 0.145785 0.699307 0.874667
Si Si4 0.807102 0.551373 0.316461
Si Si5 0.750000 0.593140 0.500000
O O1 0.129912 0.452318 0.329842
O O2 0.121181 0.460706 0.466694
O O3 0.924965 0.375858 0.400630
O O4 0.899181 0.519916 0.385223
O O5 0.214231 0.756269 0.127340
O O6 0.000000 0.750000 0.031611
O O7 0.250000 0.819484 0.000000
O O8 0.146027 0.639916 0.808563
O O9 0.000000 0.750000 0.875204
O O10 0.169024 0.648071 0.944321
O O11 0.850835 0.500000 0.250000
#
# Coordination Sequence:
#
# PCOD8296012 Si02
#       5
#    16  16  16  16   8
#     4  11  25  44  70 102 141 189 235 294 371 430
#     4  12  21  42  69 107 147 182 222 292 374 453
#     4  11  23  41  72 108 145 184 232 291 368 430
#     4  11  26  50  70  94 143 199 252 300 344 416
#     4  10  20  40  66 108 146 178 228 288 376 444
#
# _framework density 24.001327
#
# number of rings (size 3 to 8) (size 9 to 14) (size 15 to 20)
#    0.000    0.889    5.556    2.667    3.111    3.556 
#    8.000    3.333    0.000    0.000    0.000    0.000 
#    0.000    0.000    0.000    0.000    0.000    0.000 
#
# Total GULP energy -446129.668307 kJ/mol
# GULP energy per Si atom -12392.490786 kJ/mol
# Density = 2.394670 g / cm^3
# Si number density = 24.001327 Si / 1000 Ang^3
#
#
#
# Elastic Constant Matrix: (Units=GPa)
#
#
# Indices 1 2 3 4 5 6 
#
# 1 171.1239 85.0414 30.4346 0.0000 0.0000 0.0000
# 2 85.0414 150.1025 38.7539 0.0000 0.0000 0.0000
# 3 30.4346 38.7539 72.7992 0.0000 0.0000 0.0000
# 4 0.0000 0.0000 0.0000 21.4863 0.0000 0.0000
# 5 0.0000 0.0000 0.0000 0.0000 21.0577 0.0000
# 6 0.0000 0.0000 0.0000 0.0000 0.0000 45.5862
#
#
#
# Elastic Compliance Matrix: (Units=1/GPa)
#
#
# Indices 1 2 3 4 5 6 
#
# 1 0.008210 -0.004365 -0.001109 0.000000 0.000000 0.000000
# 2 -0.004365 0.010045 -0.003522 0.000000 0.000000 0.000000
# 3 -0.001109 -0.003522 0.016075 0.000000 0.000000 0.000000
# 4 0.000000 0.000000 0.000000 0.046541 0.000000 0.000000
# 5 0.000000 0.000000 0.000000 0.000000 0.047489 0.000000
# 6 0.000000 0.000000 0.000000 0.000000 0.000000 0.021936
#
#
# Mechanical properties :
#
#
# Convention : Reuss Voigt Hill
#
# Bulk Modulus (GPa) = 61.20842 78.05393 69.63118
# Shear Modulus (GPa) = 28.77955 33.61241 31.19598
#
# Velocity S-wave (km/s) = 3.46653 3.74630 3.60913
# Velocity P-wave (km/s) = 6.44825 7.16270 6.81485
#
# Compressibility (1/GPa) = 0.01633762
#
# Stress axis : x y z
#
# Youngs Moduli (GPa) = 121.79841 99.55473 62.20886
#
# Poissons Ratio (x) = 0.43459 0.06896
# Poissons Ratio (y) = 0.53170 0.21911
# Poissons Ratio (z) = 0.13502 0.35065
#
# Static dielectric constant tensor:
#      x y z
#    x 4.723060 0.000000 0.000000 
#    y 0.000000 4.749050 0.000000 
#    z 0.000000 0.000000 3.958050 
# 
# 
# High freq. dielectric constant tensor:
#      x y z
#    x 1.975300 0.000000 0.000000 
#    y 0.000000 1.964940 0.000000 
#    z 0.000000 0.000000 1.910370 
# 
# From -- ./inp_files/24634.got.cif
#   From: 2010.03.12/outbox.cif.g09.slc.cpg/sg73_13_cif.got.tgz:24634.got - 2010.04.16 15:25:48.
