data_PCOD8296757
_publ_section_title
;
Structure prediction by ZEFSAII (Michael W. Deem and Ramdas Pophale) SiO2 
 PCOD8296757
Probable space group: I B C A 
;
_chemical_formula_sum "Si O2"
_cell_formula_units_Z 120
_cell_length_a 28.425437
_cell_length_b 8.305664
_cell_length_c 23.588972
_cell_angle_alpha 90.000000
_cell_angle_beta 90.000000
_cell_angle_gamma 90.000000
_cell_volume 5569.170615
_symmetry_space_group_name_H-M "I B C A "
_symmetry_group_IT_number 73
_symmetry_cell_setting 'orthorhombic'
loop_
_space_group_symop_operation_xyz
x,y,z
-x,1/2-y,z
x,-y,1/2-z
1/2-x,y,-z
-x,-y,-z
x,1/2+y,-z
-x,y,1/2+z
1/2+x,-y,z
1/2+x,1/2+y,1/2+z
1/2-x,-y,1/2+z
1/2+x,1/2-y,-z
-x,1/2+y,1/2-z
1/2-x,1/2-y,1/2-z
1/2+x,y,1/2-z
1/2-x,1/2+y,z
x,1/2-y,1/2+z
loop_
_atom_site_type_symbol
_atom_site_label
_atom_site_fract_x
_atom_site_fract_y
_atom_site_fract_z
Si Si1 0.052790 0.977346 0.428863
Si Si2 0.543016 0.128190 0.300761
Si Si3 0.704210 0.293574 0.964054
Si Si4 0.367706 0.681175 0.735907
Si Si5 0.344653 0.891119 0.949661
Si Si6 0.312643 0.161072 0.668189
Si Si7 0.712921 0.786685 0.162867
Si Si8 0.500000 0.750000 0.994455
O O1 0.043462 0.959116 0.361868
O O2 0.041080 0.815433 0.464047
O O3 0.106315 0.020709 0.441352
O O4 0.019053 0.115623 0.452165
O O5 0.500000 0.250000 0.296277
O O6 0.590484 0.230809 0.296750
O O7 0.538816 0.000000 0.250000
O O8 0.697429 0.482971 0.958834
O O9 0.710033 0.222321 0.901385
O O10 0.750000 0.252628 0.000000
O O11 0.657529 0.222849 0.995211
O O12 0.383712 0.500000 0.750000
O O13 0.354886 0.787860 0.790695
O O14 0.322056 0.669637 0.696124
O O15 0.331191 0.789507 0.893857
O O16 0.266068 0.261324 0.684672
O O17 0.303041 0.970231 0.673002
#
# Coordination Sequence:
#
# PCOD8296757 Si02
#       8
#    16  16  16  16  16  16  16   8
#     4  11  23  47  71 106 138 184 232 294 357 430
#     4  12  26  48  74 104 143 181 233 297 364 432
#     4  11  22  38  60  95 136 177 227 273 331 401
#     4  12  26  46  68 100 132 178 233 286 349 421
#     4  11  23  38  65  95 135 178 222 278 339 402
#     4  11  23  42  64  97 134 182 225 284 337 410
#     4  11  23  40  66  94 137 182 228 282 339 405
#     4  10  24  46  74 102 140 178 236 288 360 430
#
# _framework density 21.547194000000001
#
# number of rings (size 3 to 8) (size 9 to 14) (size 15 to 20)
#    0.000    0.800    2.000    6.400    2.800    1.067 
#    2.400    0.000    0.000    0.000    0.000    0.000 
#    0.000    0.000    0.000    0.000    0.000    0.000 
#
# Total GULP energy -744123.895511 kJ/mol
# GULP energy per Si atom -12402.064925 kJ/mol
# Density = 2.149815 g / cm^3
# Si number density = 21.547194 Si / 1000 Ang^3
#
#
#
# Elastic Constant Matrix: (Units=GPa)
#
#
# Indices 1 2 3 4 5 6 
#
# 1 109.2233 32.0502 44.3798 0.0000 0.0000 0.0000
# 2 32.0502 79.6693 51.9933 0.0000 0.0000 0.0000
# 3 44.3798 51.9933 153.5460 0.0000 0.0000 0.0000
# 4 0.0000 0.0000 0.0000 27.7428 0.0000 0.0000
# 5 0.0000 0.0000 0.0000 0.0000 34.2399 0.0000
# 6 0.0000 0.0000 0.0000 0.0000 0.0000 40.1472
#
#
#
# Elastic Compliance Matrix: (Units=1/GPa)
#
#
# Indices 1 2 3 4 5 6 
#
# 1 0.010902 -0.002990 -0.002138 0.000000 0.000000 0.000000
# 2 -0.002990 0.016933 -0.004869 0.000000 0.000000 0.000000
# 3 -0.002138 -0.004869 0.008780 0.000000 0.000000 0.000000
# 4 0.000000 0.000000 0.000000 0.036045 0.000000 0.000000
# 5 0.000000 0.000000 0.000000 0.000000 0.029206 0.000000
# 6 0.000000 0.000000 0.000000 0.000000 0.000000 0.024908
#
#
# Mechanical properties :
#
#
# Convention : Reuss Voigt Hill
#
# Bulk Modulus (GPa) = 60.17535 66.58727 63.38131
# Shear Modulus (GPa) = 32.82796 34.69365 33.76081
#
# Velocity S-wave (km/s) = 3.90749 4.01699 3.96262
# Velocity P-wave (km/s) = 6.95311 7.24465 7.10038
#
# Compressibility (1/GPa) = 0.01661810
#
# Stress axis : x y z
#
# Youngs Moduli (GPa) = 91.72718 59.05746 113.89934
#
# Poissons Ratio (x) = 0.17659 0.24357
# Poissons Ratio (y) = 0.27428 0.55463
# Poissons Ratio (z) = 0.19616 0.28758
#
# Static dielectric constant tensor:
#      x y z
#    x 3.884170 0.000000 0.000000 
#    y 0.000000 3.853670 0.000000 
#    z 0.000000 0.000000 4.275820 
# 
# 
# High freq. dielectric constant tensor:
#      x y z
#    x 1.849060 0.000000 0.000000 
#    y 0.000000 1.843940 0.000000 
#    z 0.000000 0.000000 1.865200 
# 
# From -- ./inp_files/30524.got.cif
#   From: 2010.03.12/outbox.cif.g09.slc.cpg/sg73_16_cif.got.tgz:30524.got - 2010.04.16 15:25:48.
