data_PCOD8296264
_publ_section_title
;
Structure prediction by ZEFSAII (Michael W. Deem and Ramdas Pophale) SiO2 
 PCOD8296264
Probable space group: I B C A 
;
_chemical_formula_sum "Si O2"
_cell_formula_units_Z 104
_cell_length_a 15.999635
_cell_length_b 20.622184
_cell_length_c 14.615096
_cell_angle_alpha 90.000000
_cell_angle_beta 90.000000
_cell_angle_gamma 90.000000
_cell_volume 4822.213173
_symmetry_space_group_name_H-M "I B C A "
_symmetry_group_IT_number 73
_symmetry_cell_setting 'orthorhombic'
loop_
_space_group_symop_operation_xyz
x,y,z
-x,1/2-y,z
x,-y,1/2-z
1/2-x,y,-z
-x,-y,-z
x,1/2+y,-z
-x,y,1/2+z
1/2+x,-y,z
1/2+x,1/2+y,1/2+z
1/2-x,-y,1/2+z
1/2+x,1/2-y,-z
-x,1/2+y,1/2-z
1/2-x,1/2-y,1/2-z
1/2+x,y,1/2-z
1/2-x,1/2+y,z
x,1/2-y,1/2+z
loop_
_atom_site_type_symbol
_atom_site_label
_atom_site_fract_x
_atom_site_fract_y
_atom_site_fract_z
Si Si1 0.055834 0.684786 0.553842
Si Si2 0.300078 0.356258 0.176872
Si Si3 0.132826 0.631402 0.868738
Si Si4 0.015842 0.565823 0.443874
Si Si5 0.185617 0.528302 0.352471
Si Si6 0.814634 0.261807 0.576214
Si Si7 0.750000 0.932223 0.000000
O O1 0.106428 0.663971 0.644921
O O2 0.003443 0.623081 0.519557
O O3 0.124910 0.689002 0.474811
O O4 0.000000 0.750000 0.570022
O O5 0.307287 0.377053 0.281998
O O6 0.261694 0.420965 0.132342
O O7 0.235914 0.297167 0.158130
O O8 0.122285 0.708956 0.880002
O O9 0.050639 0.585874 0.864179
O O10 0.177892 0.611871 0.961239
O O11 0.101329 0.562581 0.387529
O O12 0.000000 0.500000 0.500000
O O13 0.174915 0.500000 0.250000
O O14 0.207310 0.470769 0.418897
O O15 0.750000 0.233836 0.500000
#
# Coordination Sequence:
#
# PCOD8296264 Si02
#       7
#    16  16  16  16  16  16   8
#     4  11  23  45  71 102 143 187 231 297 372 434
#     4  11  25  43  72 106 136 181 247 300 352 443
#     4  12  24  44  68 103 140 183 238 303 365 431
#     4  12  26  44  69 101 144 190 238 300 371 436
#     4  12  25  46  72 103 143 193 243 304 368 444
#     4  10  21  41  71  98 132 179 233 281 354 432
#     4  12  24  44  72  98 138 188 240 290 370 446
#
# _framework density 21.566860999999999
#
# number of rings (size 3 to 8) (size 9 to 14) (size 15 to 20)
#    0.000    0.615    6.923    1.385    1.077    1.231 
#    2.769    1.538    0.000    0.000    0.000    0.000 
#    0.000    0.000    0.000    0.000    0.000    0.000 
#
# Total GULP energy -644252.878555 kJ/mol
# GULP energy per Si atom -12389.478434 kJ/mol
# Density = 2.151777 g / cm^3
# Si number density = 21.566861 Si / 1000 Ang^3
#
#
#
# Elastic Constant Matrix: (Units=GPa)
#
#
# Indices 1 2 3 4 5 6 
#
# 1 93.6159 44.0294 31.2733 0.0000 0.0000 0.0000
# 2 44.0294 122.0261 45.4853 0.0000 0.0000 0.0000
# 3 31.2733 45.4853 105.4258 0.0000 0.0000 0.0000
# 4 0.0000 0.0000 0.0000 41.9599 0.0000 0.0000
# 5 0.0000 0.0000 0.0000 0.0000 34.2726 0.0000
# 6 0.0000 0.0000 0.0000 0.0000 0.0000 60.4387
#
#
#
# Elastic Compliance Matrix: (Units=1/GPa)
#
#
# Indices 1 2 3 4 5 6 
#
# 1 0.013292 -0.003964 -0.002233 0.000000 0.000000 0.000000
# 2 -0.003964 0.010947 -0.003547 0.000000 0.000000 0.000000
# 3 -0.002233 -0.003547 0.011678 0.000000 0.000000 0.000000
# 4 0.000000 0.000000 0.000000 0.023832 0.000000 0.000000
# 5 0.000000 0.000000 0.000000 0.000000 0.029178 0.000000
# 6 0.000000 0.000000 0.000000 0.000000 0.000000 0.016546
#
#
# Mechanical properties :
#
#
# Convention : Reuss Voigt Hill
#
# Bulk Modulus (GPa) = 60.86509 62.51599 61.69054
# Shear Modulus (GPa) = 38.33239 40.68625 39.50932
#
# Velocity S-wave (km/s) = 4.22047 4.34812 4.28477
# Velocity P-wave (km/s) = 7.21336 7.36601 7.29009
#
# Compressibility (1/GPa) = 0.01642978
#
# Stress axis : x y z
#
# Youngs Moduli (GPa) = 75.23285 91.34531 85.62977
#
# Poissons Ratio (x) = 0.36207 0.19119
# Poissons Ratio (y) = 0.29821 0.30376
# Poissons Ratio (z) = 0.16798 0.32404
#
# Static dielectric constant tensor:
#      x y z
#    x 4.126500 0.000000 0.000000 
#    y 0.000000 3.991090 0.000000 
#    z 0.000000 0.000000 3.373270 
# 
# 
# High freq. dielectric constant tensor:
#      x y z
#    x 1.846950 0.000000 0.000000 
#    y 0.000000 1.862310 0.000000 
#    z 0.000000 0.000000 1.838300 
# 
# From -- ./inp_files/18163.got.cif
#   From: 2010.03.12/outbox.cif.g09.slc.cpg/sg73_10_cif.got.tgz:18163.got - 2010.04.16 15:25:48.
