data_PCOD8296198
_publ_section_title
;
Structure prediction by ZEFSAII (Michael W. Deem and Ramdas Pophale) SiO2 
 PCOD8296198
Probable space group: I B C A 
;
_chemical_formula_sum "Si O2"
_cell_formula_units_Z 72
_cell_length_a 20.303647
_cell_length_b 12.540631
_cell_length_c 12.677511
_cell_angle_alpha 90.000000
_cell_angle_beta 90.000000
_cell_angle_gamma 90.000000
_cell_volume 3227.954760
_symmetry_space_group_name_H-M "I B C A "
_symmetry_group_IT_number 73
_symmetry_cell_setting 'orthorhombic'
loop_
_space_group_symop_operation_xyz
x,y,z
-x,1/2-y,z
x,-y,1/2-z
1/2-x,y,-z
-x,-y,-z
x,1/2+y,-z
-x,y,1/2+z
1/2+x,-y,z
1/2+x,1/2+y,1/2+z
1/2-x,-y,1/2+z
1/2+x,1/2-y,-z
-x,1/2+y,1/2-z
1/2-x,1/2-y,1/2-z
1/2+x,y,1/2-z
1/2-x,1/2+y,z
x,1/2-y,1/2+z
loop_
_atom_site_type_symbol
_atom_site_label
_atom_site_fract_x
_atom_site_fract_y
_atom_site_fract_z
Si Si1 0.682980 0.611198 0.054922
Si Si2 0.944647 0.834382 0.767487
Si Si3 0.307311 0.698020 0.184885
Si Si4 0.764588 0.500000 0.750000
Si Si5 0.440700 0.522750 0.424010
O O1 0.681939 0.740803 0.072228
O O2 0.685156 0.560219 0.171708
O O3 0.750000 0.576689 0.000000
O O4 0.621367 0.569093 0.987885
O O5 0.873718 0.781715 0.746316
O O6 0.967771 0.893096 0.661788
O O7 0.000000 0.750000 0.802619
O O8 0.925556 0.912328 0.864875
O O9 0.250000 0.750000 0.250000
O O10 0.285201 0.574048 0.179768
O O11 0.500000 0.500000 0.500000
#
# Coordination Sequence:
#
# PCOD8296198 Si02
#       5
#    16  16  16   8  16
#     4  11  23  40  67 100 130 171 221 272 332 398
#     4  11  24  44  65  91 131 172 215 272 333 398
#     4  10  21  39  63  92 125 165 211 260 321 388
#     4  10  22  42  66  96 134 170 212 276 334 392
#     4  11  25  43  65  95 129 169 220 274 330 395
#
# _framework density 22.305143000000001
#
# number of rings (size 3 to 8) (size 9 to 14) (size 15 to 20)
#    0.000    1.333    0.000    6.667    0.000   10.667 
#    0.000    0.000    0.000    0.000    0.000    0.000 
#    0.000    0.000    0.000    0.000    0.000    0.000 
#
# Total GULP energy -446081.979912 kJ/mol
# GULP energy per Si atom -12391.166109 kJ/mol
# Density = 2.225438 g / cm^3
# Si number density = 22.305143 Si / 1000 Ang^3
#
#
#
# Elastic Constant Matrix: (Units=GPa)
#
#
# Indices 1 2 3 4 5 6 
#
# 1 158.6103 62.2841 52.9680 0.0000 0.0000 0.0000
# 2 62.2841 131.9969 58.4734 0.0000 0.0000 0.0000
# 3 52.9680 58.4734 125.1490 0.0000 0.0000 0.0000
# 4 0.0000 0.0000 0.0000 45.1340 0.0000 0.0000
# 5 0.0000 0.0000 0.0000 0.0000 38.3411 0.0000
# 6 0.0000 0.0000 0.0000 0.0000 0.0000 35.9067
#
#
#
# Elastic Compliance Matrix: (Units=1/GPa)
#
#
# Indices 1 2 3 4 5 6 
#
# 1 0.008148 -0.002922 -0.002083 0.000000 0.000000 0.000000
# 2 -0.002922 0.010601 -0.003716 0.000000 0.000000 0.000000
# 3 -0.002083 -0.003716 0.010609 0.000000 0.000000 0.000000
# 4 0.000000 0.000000 0.000000 0.022156 0.000000 0.000000
# 5 0.000000 0.000000 0.000000 0.000000 0.026082 0.000000
# 6 0.000000 0.000000 0.000000 0.000000 0.000000 0.027850
#
#
# Mechanical properties :
#
#
# Convention : Reuss Voigt Hill
#
# Bulk Modulus (GPa) = 83.93271 84.80079 84.36675
# Shear Modulus (GPa) = 39.41357 40.01177 39.71267
#
# Velocity S-wave (km/s) = 4.20815 4.23997 4.22409
# Velocity P-wave (km/s) = 7.83086 7.87850 7.85472
#
# Compressibility (1/GPa) = 0.01191431
#
# Stress axis : x y z
#
# Youngs Moduli (GPa) = 122.73225 94.33120 94.26236
#
# Poissons Ratio (x) = 0.27561 0.19638
# Poissons Ratio (y) = 0.35859 0.35033
# Poissons Ratio (z) = 0.25570 0.35058
#
# Static dielectric constant tensor:
#      x y z
#    x 4.302290 0.000000 0.000000 
#    y 0.000000 4.689220 0.000000 
#    z 0.000000 0.000000 3.931740 
# 
# 
# High freq. dielectric constant tensor:
#      x y z
#    x 1.888960 0.000000 0.000000 
#    y 0.000000 1.887410 0.000000 
#    z 0.000000 0.000000 1.869040 
# 
# From -- ./inp_files/12576.got.cif
#   From: 2010.03.12/outbox.cif.g09.slc.cpg/sg73_7_cif.got.tgz:12576.got - 2010.04.16 15:25:48.
