data_PCOD8296920
_publ_section_title
;
Structure prediction by ZEFSAII (Michael W. Deem and Ramdas Pophale) SiO2 
 PCOD8296920
Probable space group: I B C A 
;
_chemical_formula_sum "Si O2"
_cell_formula_units_Z 64
_cell_length_a 12.296379
_cell_length_b 17.748554
_cell_length_c 13.745039
_cell_angle_alpha 90.000000
_cell_angle_beta 90.000000
_cell_angle_gamma 90.000000
_cell_volume 2999.757814
_symmetry_space_group_name_H-M "I B C A "
_symmetry_group_IT_number 73
_symmetry_cell_setting 'orthorhombic'
loop_
_space_group_symop_operation_xyz
x,y,z
-x,1/2-y,z
x,-y,1/2-z
1/2-x,y,-z
-x,-y,-z
x,1/2+y,-z
-x,y,1/2+z
1/2+x,-y,z
1/2+x,1/2+y,1/2+z
1/2-x,-y,1/2+z
1/2+x,1/2-y,-z
-x,1/2+y,1/2-z
1/2-x,1/2-y,1/2-z
1/2+x,y,1/2-z
1/2-x,1/2+y,z
x,1/2-y,1/2+z
loop_
_atom_site_type_symbol
_atom_site_label
_atom_site_fract_x
_atom_site_fract_y
_atom_site_fract_z
Si Si1 0.019096 0.665449 0.579686
Si Si2 0.722492 0.165690 0.222094
Si Si3 0.805534 0.915753 0.103996
Si Si4 0.650676 0.082447 0.927954
O O1 0.109188 0.660083 0.664290
O O2 0.045553 0.610907 0.487728
O O3 0.000000 0.750000 0.541407
O O4 0.904467 0.640695 0.622841
O O5 0.750000 0.250000 0.250000
O O6 0.716342 0.108247 0.314506
O O7 0.825322 0.140759 0.157527
O O8 0.857571 0.998752 0.116667
O O9 0.750000 0.904499 0.000000
O O10 0.750000 0.082763 0.000000
#
# Coordination Sequence:
#
# PCOD8296920 Si02
#       4
#    16  16  16  16
#     4  11  23  41  68 100 131 173 227 279 346 406
#     4  11  23  41  66  95 136 173 224 273 333 410
#     4  11  24  43  66  98 133 176 223 277 344 404
#     4   9  22  43  67  93 132 172 219 279 333 402
#
# _framework density 21.335055000000001
#
# number of rings (size 3 to 8) (size 9 to 14) (size 15 to 20)
#    0.000    1.500    2.500    1.500    3.500    2.000 
#    0.000    7.500    0.000    0.000    0.000    0.000 
#    0.000    0.000    0.000    0.000    0.000    0.000 
#
# Total GULP energy -396711.826512 kJ/mol
# GULP energy per Si atom -12397.244579 kJ/mol
# Density = 2.128650 g / cm^3
# Si number density = 21.335055 Si / 1000 Ang^3
#
#
#
# Elastic Constant Matrix: (Units=GPa)
#
#
# Indices 1 2 3 4 5 6 
#
# 1 86.1843 36.0259 34.7893 -0.0001 0.0000 0.0000
# 2 36.0259 175.2193 54.1676 -0.0004 0.0000 0.0001
# 3 34.7893 54.1676 78.2465 -0.0010 0.0000 0.0001
# 4 -0.0001 -0.0004 -0.0010 45.1204 0.0000 0.0001
# 5 0.0000 0.0000 0.0000 0.0000 30.2848 0.0000
# 6 0.0000 0.0001 0.0001 0.0001 0.0000 34.6014
#
#
#
# Elastic Compliance Matrix: (Units=1/GPa)
#
#
# Indices 1 2 3 4 5 6 
#
# 1 0.014351 -0.001244 -0.005519 0.000000 0.000000 0.000000
# 2 -0.001244 0.007369 -0.004548 0.000000 0.000000 0.000000
# 3 -0.005519 -0.004548 0.018382 0.000000 0.000000 0.000000
# 4 0.000000 0.000000 0.000000 0.022163 0.000000 0.000000
# 5 0.000000 0.000000 0.000000 0.000000 0.033020 0.000000
# 6 0.000000 0.000000 0.000000 0.000000 0.000000 0.028901
#
#
# Mechanical properties :
#
#
# Convention : Reuss Voigt Hill
#
# Bulk Modulus (GPa) = 57.21064 65.51287 61.36175
# Shear Modulus (GPa) = 32.75775 36.31247 34.53511
#
# Velocity S-wave (km/s) = 3.92266 4.13002 4.02768
# Velocity P-wave (km/s) = 6.88403 7.31547 7.10303
#
# Compressibility (1/GPa) = 0.01747927
#
# Stress axis : x y z
#
# Youngs Moduli (GPa) = 69.68096 135.70397 54.39967
#
# Poissons Ratio (x) = 0.16888 0.30024
# Poissons Ratio (y) = 0.08671 0.24741
# Poissons Ratio (z) = 0.38458 0.61718
#
# Static dielectric constant tensor:
#      x y z
#    x 3.741900 0.000000 0.000000 
#    y 0.000000 4.579920 0.000000 
#    z 0.000000 0.000000 4.157680 
# 
# 
# High freq. dielectric constant tensor:
#      x y z
#    x 1.823960 0.000000 0.000000 
#    y 0.000000 1.853750 0.000000 
#    z 0.000000 0.000000 1.841550 
# 
# From -- ./inp_files/9455.got.cif
#   From: 2010.03.12/outbox.cif.g09.slc.cpg/sg73_5_cif.got.tgz:9455.got - 2010.04.16 15:25:48.
