data_PCOD8296412
_publ_section_title
;
Structure prediction by ZEFSAII (Michael W. Deem and Ramdas Pophale) SiO2 
 PCOD8296412
Probable space group: I B C A 
;
_chemical_formula_sum "Si O2"
_cell_formula_units_Z 72
_cell_length_a 14.735075
_cell_length_b 21.926688
_cell_length_c 10.014983
_cell_angle_alpha 90.000000
_cell_angle_beta 90.000000
_cell_angle_gamma 90.000000
_cell_volume 3235.754800
_symmetry_space_group_name_H-M "I B C A "
_symmetry_group_IT_number 73
_symmetry_cell_setting 'orthorhombic'
loop_
_space_group_symop_operation_xyz
x,y,z
-x,1/2-y,z
x,-y,1/2-z
1/2-x,y,-z
-x,-y,-z
x,1/2+y,-z
-x,y,1/2+z
1/2+x,-y,z
1/2+x,1/2+y,1/2+z
1/2-x,-y,1/2+z
1/2+x,1/2-y,-z
-x,1/2+y,1/2-z
1/2-x,1/2-y,1/2-z
1/2+x,y,1/2-z
1/2-x,1/2+y,z
x,1/2-y,1/2+z
loop_
_atom_site_type_symbol
_atom_site_label
_atom_site_fract_x
_atom_site_fract_y
_atom_site_fract_z
Si Si1 0.154531 0.734346 0.182756
Si Si2 0.068924 0.372758 0.180748
Si Si3 0.085400 0.634766 0.619364
Si Si4 0.750000 0.646718 0.500000
Si Si5 0.256808 0.928994 0.754966
O O1 0.250000 0.750000 0.250000
O O2 0.095844 0.697282 0.290318
O O3 0.099545 0.793201 0.137972
O O4 0.169468 0.690436 0.054161
O O5 0.151401 0.418027 0.215542
O O6 0.982946 0.392067 0.269961
O O7 0.043030 0.378305 0.025560
O O8 0.181773 0.600462 0.628907
O O9 0.712180 0.603718 0.617531
O O10 0.277527 0.000000 0.750000
#
# Coordination Sequence:
#
# PCOD8296412 Si02
#       5
#    16  16  16   8  16
#     4  11  21  41  72 102 145 182 231 291 367 435
#     4  11  27  44  69 106 141 185 235 292 354 430
#     4  12  26  45  72 104 144 185 235 291 363 422
#     4  10  22  40  74 104 138 178 244 290 364 422
#     4  11  27  48  74  99 142 195 243 295 354 424
#
# _framework density 22.251377000000002
#
# number of rings (size 3 to 8) (size 9 to 14) (size 15 to 20)
#    0.000    0.889    4.444    2.667    9.333    2.667 
#    0.000    2.222    0.000    0.000    0.000    0.000 
#    0.000    0.000    0.000    0.000    0.000    0.000 
#
# Total GULP energy -446545.340486 kJ/mol
# GULP energy per Si atom -12404.037236 kJ/mol
# Density = 2.220073 g / cm^3
# Si number density = 22.251377 Si / 1000 Ang^3
#
#
#
# Elastic Constant Matrix: (Units=GPa)
#
#
# Indices 1 2 3 4 5 6 
#
# 1 93.4705 19.9229 44.6690 0.0000 0.0000 0.0000
# 2 19.9229 126.4015 36.3590 -0.0001 0.0000 0.0000
# 3 44.6690 36.3590 162.3332 -0.0006 -0.0003 0.0000
# 4 0.0000 -0.0001 -0.0006 22.9741 -0.0001 0.0000
# 5 0.0000 0.0000 -0.0003 -0.0001 36.9295 0.0000
# 6 0.0000 0.0000 0.0000 0.0000 0.0000 16.2055
#
#
#
# Elastic Compliance Matrix: (Units=1/GPa)
#
#
# Indices 1 2 3 4 5 6 
#
# 1 0.012446 -0.001044 -0.003191 0.000000 0.000000 0.000000
# 2 -0.001044 0.008544 -0.001626 0.000000 0.000000 0.000000
# 3 -0.003191 -0.001626 0.007402 0.000000 0.000000 0.000000
# 4 0.000000 0.000000 0.000000 0.043527 0.000000 0.000000
# 5 0.000000 0.000000 0.000000 0.000000 0.027079 0.000000
# 6 0.000000 0.000000 0.000000 0.000000 0.000000 0.061708
#
#
# Mechanical properties :
#
#
# Convention : Reuss Voigt Hill
#
# Bulk Modulus (GPa) = 59.98852 64.90076 62.44464
# Shear Modulus (GPa) = 28.09233 33.97210 31.03222
#
# Velocity S-wave (km/s) = 3.55702 3.91159 3.73851
# Velocity P-wave (km/s) = 6.62479 7.04494 6.83809
#
# Compressibility (1/GPa) = 0.01666986
#
# Stress axis : x y z
#
# Youngs Moduli (GPa) = 80.34716 117.04615 135.08978
#
# Poissons Ratio (x) = 0.12218 0.43106
# Poissons Ratio (y) = 0.08387 0.21970
# Poissons Ratio (z) = 0.25638 0.19036
#
# Static dielectric constant tensor:
#      x y z
#    x 3.883470 0.000000 0.000000 
#    y 0.000000 3.950640 0.000000 
#    z 0.000000 0.000000 4.199340 
# 
# 
# High freq. dielectric constant tensor:
#      x y z
#    x 1.871850 0.000000 0.000000 
#    y 0.000000 1.863240 0.000000 
#    z 0.000000 0.000000 1.884910 
# 
# From -- ./inp_files/10722.got.cif
#   From: 2010.03.12/outbox.cif.g09.slc.cpg/sg73_6_cif.got.tgz:10722.got - 2010.04.16 15:25:48.
