data_PCOD8296979
_publ_section_title
;
Structure prediction by ZEFSAII (Michael W. Deem and Ramdas Pophale) SiO2 
 PCOD8296979
Probable space group: I B C A 
;
_chemical_formula_sum "Si O2"
_cell_formula_units_Z 72
_cell_length_a 11.980574
_cell_length_b 20.391816
_cell_length_c 14.237735
_cell_angle_alpha 90.000000
_cell_angle_beta 90.000000
_cell_angle_gamma 90.000000
_cell_volume 3478.359254
_symmetry_space_group_name_H-M "I B C A "
_symmetry_group_IT_number 73
_symmetry_cell_setting 'orthorhombic'
loop_
_space_group_symop_operation_xyz
x,y,z
-x,1/2-y,z
x,-y,1/2-z
1/2-x,y,-z
-x,-y,-z
x,1/2+y,-z
-x,y,1/2+z
1/2+x,-y,z
1/2+x,1/2+y,1/2+z
1/2-x,-y,1/2+z
1/2+x,1/2-y,-z
-x,1/2+y,1/2-z
1/2-x,1/2-y,1/2-z
1/2+x,y,1/2-z
1/2-x,1/2+y,z
x,1/2-y,1/2+z
loop_
_atom_site_type_symbol
_atom_site_label
_atom_site_fract_x
_atom_site_fract_y
_atom_site_fract_z
Si Si1 0.153604 0.271138 0.317208
Si Si2 0.921966 0.419355 0.089418
Si Si3 0.370134 0.560527 0.463900
Si Si4 0.250000 0.321238 0.500000
Si Si5 0.030402 0.861047 0.208933
O O1 0.250000 0.250000 0.250000
O O2 0.202644 0.272991 0.421574
O O3 0.067956 0.212814 0.304597
O O4 0.103535 0.344678 0.292530
O O5 0.854338 0.486525 0.073762
O O6 0.931701 0.399159 0.198190
O O7 0.854542 0.363405 0.035967
O O8 0.046672 0.431071 0.051378
O O9 0.250000 0.586580 0.500000
O O10 0.424020 0.599219 0.378430
#
# Coordination Sequence:
#
# PCOD8296979 Si02
#       5
#    16  16  16   8  16
#     4  11  25  43  68  97 134 178 226 284 349 406
#     4  11  24  45  71  97 140 178 227 288 341 416
#     4  11  25  44  69 105 138 183 228 281 352 412
#     4  12  22  46  68  94 138 178 224 290 342 406
#     4  11  25  44  66 104 135 176 237 280 343 423
#
# _framework density 20.699414999999998
#
# number of rings (size 3 to 8) (size 9 to 14) (size 15 to 20)
#    0.000    0.889    5.556    0.667    4.667    0.000 
#    0.000    2.222    0.000    0.000    0.000    0.000 
#    0.000    0.000    0.000    0.000    0.000    0.000 
#
# Total GULP energy -446070.836820 kJ/mol
# GULP energy per Si atom -12390.856578 kJ/mol
# Density = 2.065230 g / cm^3
# Si number density = 20.699415 Si / 1000 Ang^3
#
#
#
# Elastic Constant Matrix: (Units=GPa)
#
#
# Indices 1 2 3 4 5 6 
#
# 1 98.8604 30.1986 42.0035 0.0000 0.0001 0.0000
# 2 30.1986 76.7786 54.2651 -0.0002 0.0001 -0.0002
# 3 42.0035 54.2651 139.9578 -0.0003 0.0009 -0.0002
# 4 0.0000 -0.0002 -0.0003 54.9410 0.0009 -0.0002
# 5 0.0001 0.0001 0.0009 0.0009 -63.8421 -0.0014
# 6 0.0000 -0.0002 -0.0002 -0.0002 -0.0014 -142.1816
#
#
#
# Elastic Compliance Matrix: (Units=1/GPa)
#
#
# Indices 1 2 3 4 5 6 
#
# 1 0.012080 -0.003015 -0.002456 0.000000 0.000000 0.000000
# 2 -0.003015 0.018693 -0.006343 0.000000 0.000000 0.000000
# 3 -0.002456 -0.006343 0.010342 0.000000 0.000000 0.000000
# 4 0.000000 0.000000 0.000000 0.018201 0.000000 0.000000
# 5 0.000000 0.000000 0.000000 0.000000 -0.015664 0.000000
# 6 0.000000 0.000000 0.000000 0.000000 0.000000 -0.007033
#
#
# Mechanical properties :
#
#
# Convention : Reuss Voigt Hill
#
# Bulk Modulus (GPa) = 57.18904 63.17014 60.17959
# Shear Modulus (GPa) = 75.66916 -17.60789 29.03063
#
# Velocity S-wave (km/s) = 6.05273 -2.91975 3.74904
# Velocity P-wave (km/s) = 8.74847 4.38378 6.91929
#
# Compressibility (1/GPa) = 0.01748587
#
# Stress axis : x y z
#
# Youngs Moduli (GPa) = 82.78175 53.49457 96.69754
#
# Poissons Ratio (x) = 0.16130 0.23752
# Poissons Ratio (y) = 0.24961 0.61335
# Poissons Ratio (z) = 0.20334 0.33932
#
# Static dielectric constant tensor:
#      x y z
#    x -9.627060 0.000000 -0.000030 
#    y 0.000000 3.825230 0.000000 
#    z -0.000030 0.000000 3.481800 
# 
# 
# High freq. dielectric constant tensor:
#      x y z
#    x 1.825760 0.000000 0.000000 
#    y 0.000000 1.813730 0.000000 
#    z 0.000000 0.000000 1.815960 
# 
# From -- ./inp_files/10610.got.cif
#   From: 2010.03.12/outbox.cif.g09.slc.cpg/sg73_6_cif.got.tgz:10610.got - 2010.04.16 15:25:48.
