data_PCOD8296153
_publ_section_title
;
Structure prediction by ZEFSAII (Michael W. Deem and Ramdas Pophale) SiO2 
 PCOD8296153
Probable space group: I B C A 
;
_chemical_formula_sum "Si O2"
_cell_formula_units_Z 64
_cell_length_a 25.962456
_cell_length_b 24.470032
_cell_length_c 4.855368
_cell_angle_alpha 90.000000
_cell_angle_beta 90.000000
_cell_angle_gamma 90.000000
_cell_volume 3084.625628
_symmetry_space_group_name_H-M "I B C A "
_symmetry_group_IT_number 73
_symmetry_cell_setting 'orthorhombic'
loop_
_space_group_symop_operation_xyz
x,y,z
-x,1/2-y,z
x,-y,1/2-z
1/2-x,y,-z
-x,-y,-z
x,1/2+y,-z
-x,y,1/2+z
1/2+x,-y,z
1/2+x,1/2+y,1/2+z
1/2-x,-y,1/2+z
1/2+x,1/2-y,-z
-x,1/2+y,1/2-z
1/2-x,1/2-y,1/2-z
1/2+x,y,1/2-z
1/2-x,1/2+y,z
x,1/2-y,1/2+z
loop_
_atom_site_type_symbol
_atom_site_label
_atom_site_fract_x
_atom_site_fract_y
_atom_site_fract_z
Si Si1 0.693624 0.943767 0.916599
Si Si2 0.859495 0.896258 0.590382
Si Si3 0.966711 0.936713 0.747213
Si Si4 0.809649 0.285247 0.484977
O O1 0.660420 0.904724 0.720823
O O2 0.698788 0.000000 0.750000
O O3 0.750000 0.921500 0.000000
O O4 0.663986 0.943056 0.207913
O O5 0.920729 0.899835 0.628657
O O6 0.842249 0.834582 0.648195
O O7 0.016679 0.923571 0.558779
O O8 0.949845 0.000000 0.750000
O O9 0.750000 0.302758 0.500000
O O10 0.822983 0.232955 0.294269
#
# Coordination Sequence:
#
# PCOD8296153 Si02
#       4
#    16  16  16  16
#     4  12  23  36  54  86 126 157 189 230 289 371
#     4  12  23  38  62  85 116 162 203 242 301 356
#     4  10  21  38  59  85 116 152 200 251 296 351
#     4  10  21  38  59  85 116 152 200 251 296 351
#
# _framework density 20.748059999999999
#
# number of rings (size 3 to 8) (size 9 to 14) (size 15 to 20)
#    0.000    1.000    0.000    9.000    0.000    4.000 
#    0.000    0.000    0.000    4.500    0.000    0.000 
#    0.000    0.000    0.000    0.000    0.000    0.000 
#
# Total GULP energy -396520.593595 kJ/mol
# GULP energy per Si atom -12391.268550 kJ/mol
# Density = 2.070084 g / cm^3
# Si number density = 20.748060 Si / 1000 Ang^3
#
#
#
# Elastic Constant Matrix: (Units=GPa)
#
#
# Indices 1 2 3 4 5 6 
#
# 1 112.4103 44.5727 28.1099 0.0000 0.0000 0.0000
# 2 44.5727 80.4962 17.7980 0.0000 0.0000 0.0000
# 3 28.1099 17.7980 92.1635 0.0000 0.0000 0.0000
# 4 0.0000 0.0000 0.0000 23.0164 0.0000 0.0000
# 5 0.0000 0.0000 0.0000 0.0000 31.6972 0.0000
# 6 0.0000 0.0000 0.0000 0.0000 0.0000 20.9390
#
#
#
# Elastic Compliance Matrix: (Units=1/GPa)
#
#
# Indices 1 2 3 4 5 6 
#
# 1 0.011912 -0.006051 -0.002465 0.000000 0.000000 0.000000
# 2 -0.006051 0.016051 -0.001254 0.000000 0.000000 0.000000
# 3 -0.002465 -0.001254 0.011844 0.000000 0.000000 0.000000
# 4 0.000000 0.000000 0.000000 0.043447 0.000000 0.000000
# 5 0.000000 0.000000 0.000000 0.000000 0.031549 0.000000
# 6 0.000000 0.000000 0.000000 0.000000 0.000000 0.047758
#
#
# Mechanical properties :
#
#
# Convention : Reuss Voigt Hill
#
# Bulk Modulus (GPa) = 49.34001 51.78122 50.56062
# Shear Modulus (GPa) = 26.47539 28.10315 27.28927
#
# Velocity S-wave (km/s) = 3.57605 3.68434 3.63060
# Velocity P-wave (km/s) = 6.39398 6.56586 6.48049
#
# Compressibility (1/GPa) = 0.02026753
#
# Stress axis : x y z
#
# Youngs Moduli (GPa) = 83.95237 62.30259 84.42989
#
# Poissons Ratio (x) = 0.37698 0.20808
# Poissons Ratio (y) = 0.50798 0.10588
# Poissons Ratio (z) = 0.20690 0.07813
#
# Static dielectric constant tensor:
#      x y z
#    x 3.560650 0.000000 0.000000 
#    y 0.000000 3.437330 0.000000 
#    z 0.000000 0.000000 4.038440 
# 
# 
# High freq. dielectric constant tensor:
#      x y z
#    x 1.793730 0.000000 0.000000 
#    y 0.000000 1.780260 0.000000 
#    z 0.000000 0.000000 1.840330 
# 
# From -- ./inp_files/1546.got.cif
#   From: 2010.03.12/outbox.cif.g09.slc.cpg/sg73_1_cif.got.tgz:1546.got - 2010.04.16 15:25:48.
