data_PCOD8296900
_publ_section_title
;
Structure prediction by ZEFSAII (Michael W. Deem and Ramdas Pophale) SiO2 
 PCOD8296900
Probable space group: I B C A 
;
_chemical_formula_sum "Si O2"
_cell_formula_units_Z 120
_cell_length_a 13.742300
_cell_length_b 17.935353
_cell_length_c 21.307119
_cell_angle_alpha 90.000000
_cell_angle_beta 90.000000
_cell_angle_gamma 90.000000
_cell_volume 5251.629574
_symmetry_space_group_name_H-M "I B C A "
_symmetry_group_IT_number 73
_symmetry_cell_setting 'orthorhombic'
loop_
_space_group_symop_operation_xyz
x,y,z
-x,1/2-y,z
x,-y,1/2-z
1/2-x,y,-z
-x,-y,-z
x,1/2+y,-z
-x,y,1/2+z
1/2+x,-y,z
1/2+x,1/2+y,1/2+z
1/2-x,-y,1/2+z
1/2+x,1/2-y,-z
-x,1/2+y,1/2-z
1/2-x,1/2-y,1/2-z
1/2+x,y,1/2-z
1/2-x,1/2+y,z
x,1/2-y,1/2+z
loop_
_atom_site_type_symbol
_atom_site_label
_atom_site_fract_x
_atom_site_fract_y
_atom_site_fract_z
Si Si1 0.731740 0.583571 0.739975
Si Si2 0.566844 0.863321 0.791960
Si Si3 0.845481 0.675361 0.375671
Si Si4 0.142851 0.040486 0.480054
Si Si5 0.120394 0.613773 0.641035
Si Si6 0.141752 0.225046 0.904639
Si Si7 0.444798 0.615343 0.006485
Si Si8 0.000000 0.250000 0.196160
O O1 0.693928 0.500000 0.750000
O O2 0.849123 0.583565 0.735259
O O3 0.686910 0.615661 0.676336
O O4 0.697064 0.627589 0.802513
O O5 0.486788 0.907288 0.832659
O O6 0.615634 0.799737 0.834281
O O7 0.508090 0.825104 0.735990
O O8 0.755575 0.708105 0.415544
O O9 0.921901 0.638994 0.423023
O O10 0.901367 0.744222 0.343885
O O11 0.250000 0.066861 0.500000
O O12 0.145503 0.043763 0.403804
O O13 0.059454 0.096992 0.504407
O O14 0.120188 0.958363 0.507562
O O15 0.118672 0.686997 0.595783
O O16 0.080109 0.180760 0.956981
#
# Coordination Sequence:
#
# PCOD8296900 Si02
#       8
#    16  16  16  16  16  16  16   8
#     4  11  25  44  69 103 141 189 239 291 361 440
#     4  11  22  42  68  97 133 184 227 290 356 428
#     4  11  24  41  67 101 140 179 235 298 358 423
#     4  11  26  46  69 102 143 187 240 298 364 434
#     4  12  23  45  73 104 141 184 240 294 356 436
#     4  11  22  42  73  96 132 191 237 283 360 430
#     4  11  25  46  70  99 143 192 236 300 365 432
#     4  12  22  42  64 100 142 168 230 302 360 418
#
# _framework density 22.85005
#
# number of rings (size 3 to 8) (size 9 to 14) (size 15 to 20)
#    0.000    0.800    4.000    2.800    0.000    8.000 
#    2.400    0.000    0.000    0.000    0.000    0.000 
#    0.000    0.000    0.000    0.000    0.000    0.000 
#
# Total GULP energy -743975.197689 kJ/mol
# GULP energy per Si atom -12399.586628 kJ/mol
# Density = 2.279804 g / cm^3
# Si number density = 22.850050 Si / 1000 Ang^3
#
#
#
# Elastic Constant Matrix: (Units=GPa)
#
#
# Indices 1 2 3 4 5 6 
#
# 1 167.2187 30.6057 57.3551 0.0000 0.0000 0.0000
# 2 30.6057 83.4980 36.2802 0.0000 0.0000 0.0000
# 3 57.3551 36.2802 113.5810 0.0000 0.0000 0.0000
# 4 0.0000 0.0000 0.0000 24.5416 0.0000 0.0000
# 5 0.0000 0.0000 0.0000 0.0000 40.9400 0.0000
# 6 0.0000 0.0000 0.0000 0.0000 0.0000 24.7383
#
#
#
# Elastic Compliance Matrix: (Units=1/GPa)
#
#
# Indices 1 2 3 4 5 6 
#
# 1 0.007344 -0.001255 -0.003308 0.000000 0.000000 0.000000
# 2 -0.001255 0.014121 -0.003877 0.000000 0.000000 0.000000
# 3 -0.003308 -0.003877 0.011713 0.000000 0.000000 0.000000
# 4 0.000000 0.000000 0.000000 0.040747 0.000000 0.000000
# 5 0.000000 0.000000 0.000000 0.000000 0.024426 0.000000
# 6 0.000000 0.000000 0.000000 0.000000 0.000000 0.040423
#
#
# Mechanical properties :
#
#
# Convention : Reuss Voigt Hill
#
# Bulk Modulus (GPa) = 61.35283 68.08665 64.71974
# Shear Modulus (GPa) = 31.03919 34.04776 32.54347
#
# Velocity S-wave (km/s) = 3.68963 3.86431 3.77798
# Velocity P-wave (km/s) = 6.71265 7.05495 6.88593
#
# Compressibility (1/GPa) = 0.01629917
#
# Stress axis : x y z
#
# Youngs Moduli (GPa) = 136.15717 70.81768 85.37483
#
# Poissons Ratio (x) = 0.08886 0.28242
# Poissons Ratio (y) = 0.17084 0.33099
# Poissons Ratio (z) = 0.45040 0.27455
#
# Static dielectric constant tensor:
#      x y z
#    x 4.322900 0.000000 0.000000 
#    y 0.000000 3.817910 0.000000 
#    z 0.000000 0.000000 4.123700 
# 
# 
# High freq. dielectric constant tensor:
#      x y z
#    x 1.917420 0.000000 0.000000 
#    y 0.000000 1.880590 0.000000 
#    z 0.000000 0.000000 1.905700 
# 
# From -- ./inp_files/29096.got.cif
#   From: 2010.03.12/outbox.cif.g09.slc.cpg/sg73_15_cif.got.tgz:29096.got - 2010.04.16 15:25:48.
