data_PCOD8296898
_publ_section_title
;
Structure prediction by ZEFSAII (Michael W. Deem and Ramdas Pophale) SiO2 
 PCOD8296898
Probable space group: I B C A 
;
_chemical_formula_sum "Si O2"
_cell_formula_units_Z 96
_cell_length_a 13.154760
_cell_length_b 15.506266
_cell_length_c 19.963615
_cell_angle_alpha 90.000000
_cell_angle_beta 90.000000
_cell_angle_gamma 90.000000
_cell_volume 4072.202298
_symmetry_space_group_name_H-M "I B C A "
_symmetry_group_IT_number 73
_symmetry_cell_setting 'orthorhombic'
loop_
_space_group_symop_operation_xyz
x,y,z
-x,1/2-y,z
x,-y,1/2-z
1/2-x,y,-z
-x,-y,-z
x,1/2+y,-z
-x,y,1/2+z
1/2+x,-y,z
1/2+x,1/2+y,1/2+z
1/2-x,-y,1/2+z
1/2+x,1/2-y,-z
-x,1/2+y,1/2-z
1/2-x,1/2-y,1/2-z
1/2+x,y,1/2-z
1/2-x,1/2+y,z
x,1/2-y,1/2+z
loop_
_atom_site_type_symbol
_atom_site_label
_atom_site_fract_x
_atom_site_fract_y
_atom_site_fract_z
Si Si1 0.989260 0.149000 0.606104
Si Si2 0.265946 0.578110 0.291079
Si Si3 0.187546 0.053364 0.565103
Si Si4 0.239509 0.863132 0.428415
Si Si5 0.341986 0.802756 0.301748
Si Si6 0.966256 0.634460 0.238009
O O1 0.877848 0.114027 0.586005
O O2 0.003110 0.135400 0.685081
O O3 0.000000 0.250000 0.586991
O O4 0.073007 0.092208 0.565478
O O5 0.211308 0.500000 0.250000
O O6 0.242283 0.587280 0.368432
O O7 0.236598 0.669882 0.257023
O O8 0.386856 0.559918 0.281104
O O9 0.250000 0.086537 0.500000
O O10 0.191582 0.949439 0.568048
O O11 0.250000 0.815246 0.500000
O O12 0.282802 0.798633 0.372133
O O13 0.430837 0.876624 0.305240
O O14 0.403864 0.719461 0.282085
#
# Coordination Sequence:
#
# PCOD8296898 Si02
#       6
#    16  16  16  16  16  16
#     4  12  24  46  75 104 143 194 240 307 380 436
#     4  12  22  39  67 101 133 179 240 292 355 435
#     4  11  26  46  71 104 148 193 242 303 374 456
#     4  11  27  47  68 101 150 191 244 308 370 452
#     4  11  22  42  66  99 134 184 234 297 356 433
#     4  11  23  39  70  99 137 180 239 299 358 431
#
# _framework density 23.574468
#
# number of rings (size 3 to 8) (size 9 to 14) (size 15 to 20)
#    0.000    0.667    6.667    0.500    2.333    8.000 
#    3.000    0.000    0.000    0.000    0.000    0.000 
#    0.000    0.000    0.000    0.000    0.000    0.000 
#
# Total GULP energy -594775.082723 kJ/mol
# GULP energy per Si atom -12391.147557 kJ/mol
# Density = 2.352081 g / cm^3
# Si number density = 23.574468 Si / 1000 Ang^3
#
#
#
# Elastic Constant Matrix: (Units=GPa)
#
#
# Indices 1 2 3 4 5 6 
#
# 1 149.2449 0.8417 46.7462 0.0000 0.0000 0.0000
# 2 0.8417 45.9015 9.4918 0.0000 0.0000 0.0000
# 3 46.7462 9.4918 190.7307 0.0000 0.0000 0.0000
# 4 0.0000 0.0000 0.0000 14.0127 0.0000 0.0000
# 5 0.0000 0.0000 0.0000 0.0000 45.6156 0.0000
# 6 0.0000 0.0000 0.0000 0.0000 0.0000 30.9472
#
#
#
# Elastic Compliance Matrix: (Units=1/GPa)
#
#
# Indices 1 2 3 4 5 6 
#
# 1 0.007260 0.000237 -0.001791 0.000000 0.000000 0.000000
# 2 0.000237 0.022020 -0.001154 0.000000 0.000000 0.000000
# 3 -0.001791 -0.001154 0.005739 0.000000 0.000000 0.000000
# 4 0.000000 0.000000 0.000000 0.071364 0.000000 0.000000
# 5 0.000000 0.000000 0.000000 0.000000 0.021922 0.000000
# 6 0.000000 0.000000 0.000000 0.000000 0.000000 0.032313
#
#
# Mechanical properties :
#
#
# Convention : Reuss Voigt Hill
#
# Bulk Modulus (GPa) = 33.77951 55.55961 44.66956
# Shear Modulus (GPa) = 28.42483 40.03493 34.22988
#
# Velocity S-wave (km/s) = 3.47615 4.12543 3.81463
# Velocity P-wave (km/s) = 5.52010 6.80523 6.19607
#
# Compressibility (1/GPa) = 0.02960374
#
# Stress axis : x y z
#
# Youngs Moduli (GPa) = 137.73940 45.41317 174.23354
#
# Poissons Ratio (x) = -0.01077 0.31208
# Poissons Ratio (y) = -0.03268 0.20106
# Poissons Ratio (z) = 0.24672 0.05241
#
# Static dielectric constant tensor:
#      x y z
#    x 5.817140 0.000000 0.000000 
#    y 0.000000 2.229540 0.000000 
#    z 0.000000 0.000000 4.400580 
# 
# 
# High freq. dielectric constant tensor:
#      x y z
#    x 1.958710 0.000000 0.000000 
#    y 0.000000 1.931410 0.000000 
#    z 0.000000 0.000000 1.921670 
# 
# From -- ./inp_files/25990.got.cif
#   From: 2010.03.12/outbox.cif.g09.slc.cpg/sg73_13_cif.got.tgz:25990.got - 2010.04.16 15:25:48.
