data_PCOD8296369
_publ_section_title
;
Structure prediction by ZEFSAII (Michael W. Deem and Ramdas Pophale) SiO2 
 PCOD8296369
Probable space group: I B C A 
;
_chemical_formula_sum "Si O2"
_cell_formula_units_Z 120
_cell_length_a 17.005211
_cell_length_b 24.827357
_cell_length_c 13.066740
_cell_angle_alpha 90.000000
_cell_angle_beta 90.000000
_cell_angle_gamma 90.000000
_cell_volume 5516.705034
_symmetry_space_group_name_H-M "I B C A "
_symmetry_group_IT_number 73
_symmetry_cell_setting 'orthorhombic'
loop_
_space_group_symop_operation_xyz
x,y,z
-x,1/2-y,z
x,-y,1/2-z
1/2-x,y,-z
-x,-y,-z
x,1/2+y,-z
-x,y,1/2+z
1/2+x,-y,z
1/2+x,1/2+y,1/2+z
1/2-x,-y,1/2+z
1/2+x,1/2-y,-z
-x,1/2+y,1/2-z
1/2-x,1/2-y,1/2-z
1/2+x,y,1/2-z
1/2-x,1/2+y,z
x,1/2-y,1/2+z
loop_
_atom_site_type_symbol
_atom_site_label
_atom_site_fract_x
_atom_site_fract_y
_atom_site_fract_z
Si Si1 0.180629 0.953176 0.322471
Si Si2 0.381367 0.185127 0.097857
Si Si3 0.161602 0.196233 0.387438
Si Si4 0.285189 0.864557 0.224840
Si Si5 0.750000 0.513723 0.000000
Si Si6 0.548700 0.387105 0.925701
Si Si7 0.377798 0.100579 0.461432
Si Si8 0.019729 0.193322 0.246173
O O1 0.217673 0.907814 0.249593
O O2 0.104641 0.933480 0.384289
O O3 0.148625 0.000000 0.250000
O O4 0.247140 0.975560 0.400214
O O5 0.346914 0.243618 0.066361
O O6 0.316963 0.156315 0.167690
O O7 0.463235 0.188752 0.156476
O O8 0.397325 0.150580 0.996722
O O9 0.248609 0.183925 0.343559
O O10 0.141775 0.154262 0.475922
O O11 0.107643 0.190631 0.287590
O O12 0.354614 0.891046 0.157757
O O13 0.671708 0.550141 0.996726
O O14 0.470702 0.412813 0.977807
O O15 0.508415 0.352996 0.835602
O O16 0.000000 0.250000 0.190573
#
# Coordination Sequence:
#
# PCOD8296369 Si02
#       8
#    16  16  16  16   8  16  16  16
#     4  12  26  49  72  94 138 184 234 306 361 403
#     4  11  25  40  70 106 145 182 229 280 345 427
#     4  11  22  43  69 102 143 189 225 272 347 425
#     4  12  23  47  68 103 136 185 236 287 351 422
#     4  12  26  50  72  98 128 182 244 306 364 402
#     4  12  26  45  70 107 143 179 238 292 350 428
#     4  12  24  43  75 100 137 184 238 291 348 436
#     4  10  22  39  67  98 143 186 217 272 343 420
#
# _framework density 21.752115
#
# number of rings (size 3 to 8) (size 9 to 14) (size 15 to 20)
#    0.000    0.533    6.667    1.200    1.867    0.533 
#    7.200    0.000    0.000    0.000    0.000    0.000 
#    0.000    0.000    0.000    0.000    0.000    0.000 
#
# Total GULP energy -744122.950682 kJ/mol
# GULP energy per Si atom -12402.049178 kJ/mol
# Density = 2.170261 g / cm^3
# Si number density = 21.752115 Si / 1000 Ang^3
#
#
#
# Elastic Constant Matrix: (Units=GPa)
#
#
# Indices 1 2 3 4 5 6 
#
# 1 112.7215 45.5628 26.6160 0.0000 0.0000 0.0000
# 2 45.5628 107.4903 41.5008 0.0000 0.0000 0.0000
# 3 26.6160 41.5008 83.1512 0.0005 0.0001 0.0000
# 4 0.0000 0.0000 0.0005 41.0152 0.0001 0.0000
# 5 0.0000 0.0000 0.0001 0.0001 34.7433 0.0000
# 6 0.0000 0.0000 0.0000 0.0000 0.0000 28.9693
#
#
#
# Elastic Compliance Matrix: (Units=1/GPa)
#
#
# Indices 1 2 3 4 5 6 
#
# 1 0.010847 -0.004035 -0.001458 0.000000 0.000000 0.000000
# 2 -0.004035 0.013025 -0.005209 0.000000 0.000000 0.000000
# 3 -0.001458 -0.005209 0.015093 0.000000 0.000000 0.000000
# 4 0.000000 0.000000 0.000000 0.024381 0.000000 0.000000
# 5 0.000000 0.000000 0.000000 0.000000 0.028783 0.000000
# 6 0.000000 0.000000 0.000000 0.000000 0.000000 0.034519
#
#
# Mechanical properties :
#
#
# Convention : Reuss Voigt Hill
#
# Bulk Modulus (GPa) = 56.94719 58.96915 57.95817
# Shear Modulus (GPa) = 32.48771 33.59110 33.03941
#
# Velocity S-wave (km/s) = 3.86883 3.93398 3.90154
# Velocity P-wave (km/s) = 6.79662 6.91400 6.85556
#
# Compressibility (1/GPa) = 0.01756013
#
# Stress axis : x y z
#
# Youngs Moduli (GPa) = 92.19509 76.77823 66.25626
#
# Poissons Ratio (x) = 0.30977 0.09662
# Poissons Ratio (y) = 0.37197 0.34514
# Poissons Ratio (z) = 0.13444 0.39995
#
# Static dielectric constant tensor:
#      x y z
#    x 4.031160 0.000000 0.000000 
#    y 0.000000 3.978510 0.000000 
#    z 0.000000 0.000000 3.823910 
# 
# 
# High freq. dielectric constant tensor:
#      x y z
#    x 1.858330 0.000000 0.000000 
#    y 0.000000 1.852300 0.000000 
#    z 0.000000 0.000000 1.858380 
# 
# From -- ./inp_files/12251.got.cif
#   From: 2010.03.12/outbox.cif.g09.slc.cpg/sg73_7_cif.got.tgz:12251.got - 2010.04.16 15:25:48.
