data_PCOD8296504
_publ_section_title
;
Structure prediction by ZEFSAII (Michael W. Deem and Ramdas Pophale) SiO2 
 PCOD8296504
Probable space group: I B C A 
;
_chemical_formula_sum "Si O2"
_cell_formula_units_Z 72
_cell_length_a 22.712773
_cell_length_b 14.018988
_cell_length_c 10.277345
_cell_angle_alpha 90.000000
_cell_angle_beta 90.000000
_cell_angle_gamma 90.000000
_cell_volume 3272.410368
_symmetry_space_group_name_H-M "I B C A "
_symmetry_group_IT_number 73
_symmetry_cell_setting 'orthorhombic'
loop_
_space_group_symop_operation_xyz
x,y,z
-x,1/2-y,z
x,-y,1/2-z
1/2-x,y,-z
-x,-y,-z
x,1/2+y,-z
-x,y,1/2+z
1/2+x,-y,z
1/2+x,1/2+y,1/2+z
1/2-x,-y,1/2+z
1/2+x,1/2-y,-z
-x,1/2+y,1/2-z
1/2-x,1/2-y,1/2-z
1/2+x,y,1/2-z
1/2-x,1/2+y,z
x,1/2-y,1/2+z
loop_
_atom_site_type_symbol
_atom_site_label
_atom_site_fract_x
_atom_site_fract_y
_atom_site_fract_z
Si Si1 0.074981 0.501604 0.572100
Si Si2 0.818784 0.500000 0.250000
Si Si3 0.517406 0.857911 0.613839
Si Si4 0.111980 0.595496 0.182264
Si Si5 0.262340 0.169388 0.148230
O O1 0.136847 0.534116 0.635568
O O2 0.043741 0.597156 0.519719
O O3 0.082942 0.427796 0.454353
O O4 0.034261 0.431936 0.664266
O O5 0.777065 0.420451 0.189060
O O6 0.500000 0.750000 0.580274
O O7 0.565408 0.849784 0.727518
O O8 0.134698 0.500000 0.250000
O O9 0.168360 0.658781 0.158755
O O10 0.250000 0.250000 0.250000
O O11 0.250000 0.200162 0.000000
#
# Coordination Sequence:
#
# PCOD8296504 Si02
#       5
#    16   8  16  16  16
#     4  10  24  43  69 104 141 186 242 297 363 437
#     4  12  26  48  76  98 146 190 246 298 376 432
#     4  10  24  42  70 103 144 187 235 295 366 440
#     4  10  22  44  68  98 142 187 237 295 361 435
#     4  12  28  48  74 111 144 194 251 307 374 446
#
# _framework density 22.002130999999999
#
# number of rings (size 3 to 8) (size 9 to 14) (size 15 to 20)
#    0.000    1.333    3.333    0.000   10.889    7.111 
#    0.000    0.000    0.000    0.000    0.000    0.000 
#    0.000    0.000    0.000    0.000    0.000    0.000 
#
# Total GULP energy -446194.098085 kJ/mol
# GULP energy per Si atom -12394.280502 kJ/mol
# Density = 2.195205 g / cm^3
# Si number density = 22.002131 Si / 1000 Ang^3
#
#
#
# Elastic Constant Matrix: (Units=GPa)
#
#
# Indices 1 2 3 4 5 6 
#
# 1 139.8014 51.1328 51.8841 0.0000 0.0000 0.0000
# 2 51.1328 126.3359 55.6542 0.0000 0.0000 0.0000
# 3 51.8841 55.6542 126.5252 0.0000 0.0000 0.0000
# 4 0.0000 0.0000 0.0000 22.5615 0.0000 0.0000
# 5 0.0000 0.0000 0.0000 0.0000 32.1407 0.0000
# 6 0.0000 0.0000 0.0000 0.0000 0.0000 22.6365
#
#
#
# Elastic Compliance Matrix: (Units=1/GPa)
#
#
# Indices 1 2 3 4 5 6 
#
# 1 0.009037 -0.002512 -0.002601 0.000000 0.000000 0.000000
# 2 -0.002512 0.010516 -0.003596 0.000000 0.000000 0.000000
# 3 -0.002601 -0.003596 0.010552 0.000000 0.000000 0.000000
# 4 0.000000 0.000000 0.000000 0.044323 0.000000 0.000000
# 5 0.000000 0.000000 0.000000 0.000000 0.031113 0.000000
# 6 0.000000 0.000000 0.000000 0.000000 0.000000 0.044176
#
#
# Mechanical properties :
#
#
# Convention : Reuss Voigt Hill
#
# Bulk Modulus (GPa) = 78.81483 78.88942 78.85212
# Shear Modulus (GPa) = 29.17773 31.06718 30.12245
#
# Velocity S-wave (km/s) = 3.64556 3.76175 3.70411
# Velocity P-wave (km/s) = 7.32252 7.40276 7.36275
#
# Compressibility (1/GPa) = 0.01268797
#
# Stress axis : x y z
#
# Youngs Moduli (GPa) = 110.65631 95.09323 94.77139
#
# Poissons Ratio (x) = 0.23886 0.24649
# Poissons Ratio (y) = 0.27795 0.34076
# Poissons Ratio (z) = 0.28781 0.34192
#
# Static dielectric constant tensor:
#      x y z
#    x 4.162940 0.000000 0.000000 
#    y 0.000000 3.393920 0.000000 
#    z 0.000000 0.000000 4.300820 
# 
# 
# High freq. dielectric constant tensor:
#      x y z
#    x 1.887010 0.000000 0.000000 
#    y 0.000000 1.847100 0.000000 
#    z 0.000000 0.000000 1.879360 
# 
# From -- ./inp_files/12560.got.cif
#   From: 2010.03.12/outbox.cif.g09.slc.cpg/sg73_7_cif.got.tgz:12560.got - 2010.04.16 15:25:48.
