data_PCOD8296488
_publ_section_title
;
Structure prediction by ZEFSAII (Michael W. Deem and Ramdas Pophale) SiO2 
 PCOD8296488
Probable space group: I B C A 
;
_chemical_formula_sum "Si O2"
_cell_formula_units_Z 80
_cell_length_a 12.532165
_cell_length_b 23.435231
_cell_length_c 12.915864
_cell_angle_alpha 90.000000
_cell_angle_beta 90.000000
_cell_angle_gamma 90.000000
_cell_volume 3793.314108
_symmetry_space_group_name_H-M "I B C A "
_symmetry_group_IT_number 73
_symmetry_cell_setting 'orthorhombic'
loop_
_space_group_symop_operation_xyz
x,y,z
-x,1/2-y,z
x,-y,1/2-z
1/2-x,y,-z
-x,-y,-z
x,1/2+y,-z
-x,y,1/2+z
1/2+x,-y,z
1/2+x,1/2+y,1/2+z
1/2-x,-y,1/2+z
1/2+x,1/2-y,-z
-x,1/2+y,1/2-z
1/2-x,1/2-y,1/2-z
1/2+x,y,1/2-z
1/2-x,1/2+y,z
x,1/2-y,1/2+z
loop_
_atom_site_type_symbol
_atom_site_label
_atom_site_fract_x
_atom_site_fract_y
_atom_site_fract_z
Si Si1 0.399627 0.152676 0.316642
Si Si2 0.250000 0.498598 0.500000
Si Si3 0.696379 0.299095 0.605469
Si Si4 0.079366 0.907217 0.032826
Si Si5 0.500000 0.250000 0.207693
Si Si6 0.384823 0.550803 0.830027
O O1 0.297785 0.194926 0.319966
O O2 0.441298 0.123853 0.422704
O O3 0.496046 0.192234 0.275568
O O4 0.360159 0.104963 0.238700
O O5 0.352873 0.536244 0.479840
O O6 0.278042 0.462341 0.603138
O O7 0.750000 0.277677 0.500000
O O8 0.643395 0.361870 0.601173
O O9 0.607032 0.253290 0.638129
O O10 0.974491 0.930524 0.087898
O O11 0.417771 0.500000 0.750000
#
# Coordination Sequence:
#
# PCOD8296488 Si02
#       6
#    16   8  16  16   8  16
#     4  11  24  44  67 103 138 178 236 291 351 419
#     4  12  24  42  66  98 138 180 224 286 360 410
#     4  10  22  43  69  93 137 180 226 293 348 407
#     4  11  22  45  67  97 141 180 224 290 350 417
#     4  12  24  44  72  98 136 192 238 288 360 412
#     4  12  25  43  71 101 138 183 230 281 355 428
#
# _framework density 21.089739000000002
#
# number of rings (size 3 to 8) (size 9 to 14) (size 15 to 20)
#    0.000    0.800    7.000    1.200    0.000    7.200 
#    1.800    0.000    0.000    0.000    0.000    0.000 
#    0.000    0.000    0.000    0.000    0.000    0.000 
#
# Total GULP energy -495740.251976 kJ/mol
# GULP energy per Si atom -12393.506299 kJ/mol
# Density = 2.104174 g / cm^3
# Si number density = 21.089739 Si / 1000 Ang^3
#
#
#
# Elastic Constant Matrix: (Units=GPa)
#
#
# Indices 1 2 3 4 5 6 
#
# 1 91.9116 21.1594 62.5417 -0.0001 -0.0001 0.0010
# 2 21.1594 70.6615 50.0486 0.0007 0.0001 -0.0045
# 3 62.5417 50.0486 117.9878 0.0008 0.0002 -0.0027
# 4 -0.0001 0.0007 0.0008 21.0456 0.0001 -0.0055
# 5 -0.0001 0.0001 0.0002 0.0001 26.0274 -0.0017
# 6 0.0010 -0.0045 -0.0027 -0.0055 -0.0017 311.7000
#
#
#
# Elastic Compliance Matrix: (Units=1/GPa)
#
#
# Indices 1 2 3 4 5 6 
#
# 1 0.017189 0.001867 -0.009903 0.000000 0.000000 0.000000
# 2 0.001867 0.020433 -0.009657 0.000000 0.000000 0.000000
# 3 -0.009903 -0.009657 0.017821 0.000000 0.000000 0.000000
# 4 0.000000 0.000000 0.000000 0.047516 0.000000 0.000001
# 5 0.000000 0.000000 0.000000 0.000000 0.038421 0.000000
# 6 0.000000 0.000000 0.000000 0.000001 0.000000 0.003208
#
#
# Mechanical properties :
#
#
# Convention : Reuss Voigt Hill
#
# Bulk Modulus (GPa) = 49.85868 60.89560 55.37714
# Shear Modulus (GPa) = 26.78663 81.54200 54.16431
#
# Velocity S-wave (km/s) = 3.56775 6.22481 5.07332
# Velocity P-wave (km/s) = 6.37686 8.97783 7.78671
#
# Compressibility (1/GPa) = 0.02005669
#
# Stress axis : x y z
#
# Youngs Moduli (GPa) = 58.17680 48.94086 56.11246
#
# Poissons Ratio (x) = -0.09139 0.55571
# Poissons Ratio (y) = -0.10863 0.54188
# Poissons Ratio (z) = 0.57615 0.47263
#
# Static dielectric constant tensor:
#      x y z
#    x 3.822400 0.000000 0.000000 
#    y 0.000000 3.853340 0.000000 
#    z 0.000000 0.000000 4.168240 
# 
# 
# High freq. dielectric constant tensor:
#      x y z
#    x 1.820620 0.000000 0.000000 
#    y 0.000000 1.830380 0.000000 
#    z 0.000000 0.000000 1.834320 
# 
# From -- ./inp_files/10890.got.cif
#   From: 2010.03.12/outbox.cif.g09.slc.cpg/sg73_6_cif.got.tgz:10890.got - 2010.04.16 15:25:48.
