data_PCOD8296686
_publ_section_title
;
Structure prediction by ZEFSAII (Michael W. Deem and Ramdas Pophale) SiO2 
 PCOD8296686
Probable space group: I B C A 
;
_chemical_formula_sum "Si O2"
_cell_formula_units_Z 120
_cell_length_a 17.687135
_cell_length_b 24.406788
_cell_length_c 13.352863
_cell_angle_alpha 90.000000
_cell_angle_beta 90.000000
_cell_angle_gamma 90.000000
_cell_volume 5764.246077
_symmetry_space_group_name_H-M "I B C A "
_symmetry_group_IT_number 73
_symmetry_cell_setting 'orthorhombic'
loop_
_space_group_symop_operation_xyz
x,y,z
-x,1/2-y,z
x,-y,1/2-z
1/2-x,y,-z
-x,-y,-z
x,1/2+y,-z
-x,y,1/2+z
1/2+x,-y,z
1/2+x,1/2+y,1/2+z
1/2-x,-y,1/2+z
1/2+x,1/2-y,-z
-x,1/2+y,1/2-z
1/2-x,1/2-y,1/2-z
1/2+x,y,1/2-z
1/2-x,1/2+y,z
x,1/2-y,1/2+z
loop_
_atom_site_type_symbol
_atom_site_label
_atom_site_fract_x
_atom_site_fract_y
_atom_site_fract_z
Si Si1 0.858639 0.677856 0.423510
Si Si2 0.121591 0.437287 0.002617
Si Si3 0.988116 0.125071 0.138439
Si Si4 0.141443 0.528810 0.144860
Si Si5 0.698537 0.152022 0.635250
Si Si6 0.523888 0.049904 0.184557
Si Si7 0.651551 0.297033 0.340606
Si Si8 0.250000 0.148917 0.500000
O O1 0.788895 0.647130 0.371568
O O2 0.839880 0.682964 0.541363
O O3 0.867898 0.734671 0.364995
O O4 0.935622 0.643555 0.416328
O O5 0.090955 0.446390 0.893041
O O6 0.052295 0.423779 0.077819
O O7 0.166346 0.489218 0.052210
O O8 0.177584 0.387884 0.979490
O O9 0.927433 0.173350 0.138966
O O10 0.010050 0.104743 0.249634
O O11 0.161902 0.500000 0.250000
O O12 0.177085 0.588603 0.144060
O O13 0.052771 0.535811 0.127926
O O14 0.674475 0.190444 0.727004
O O15 0.552431 0.000000 0.250000
O O16 0.724885 0.313661 0.406518
#
# Coordination Sequence:
#
# PCOD8296686 Si02
#       8
#    16  16  16  16  16  16  16   8
#     4  11  26  43  67 100 128 174 228 278 336 396
#     4  11  23  41  65  95 137 170 220 270 327 410
#     4  11  23  43  68 100 129 170 224 277 328 404
#     4  11  20  42  67  95 133 181 215 266 347 399
#     4  11  24  44  69  94 137 177 215 280 340 397
#     4  11  22  38  64  96 129 174 218 268 335 396
#     4  11  23  48  68  92 135 175 223 279 337 393
#     4  10  24  42  68  94 130 182 220 268 332 394
#
# _framework density 20.817986000000001
#
# number of rings (size 3 to 8) (size 9 to 14) (size 15 to 20)
#    0.000    1.067    4.000    3.600    3.733    1.067 
#    2.400    1.333    0.000    0.000    0.000    0.000 
#    0.000    0.000    0.000    0.000    0.000    0.000 
#
# Total GULP energy -743695.286885 kJ/mol
# GULP energy per Si atom -12394.921448 kJ/mol
# Density = 2.077060 g / cm^3
# Si number density = 20.817986 Si / 1000 Ang^3
#
#
#
# Elastic Constant Matrix: (Units=GPa)
#
#
# Indices 1 2 3 4 5 6 
#
# 1 89.2469 22.8353 51.6169 0.0000 0.0000 0.0000
# 2 22.8353 114.6442 40.9006 0.0000 0.0000 0.0000
# 3 51.6169 40.9006 85.2912 0.0001 0.0000 0.0001
# 4 0.0000 0.0000 0.0001 25.5606 0.0000 0.0000
# 5 0.0000 0.0000 0.0000 0.0000 15.5427 0.0000
# 6 0.0000 0.0000 0.0001 0.0000 0.0000 53.9082
#
#
#
# Elastic Compliance Matrix: (Units=1/GPa)
#
#
# Indices 1 2 3 4 5 6 
#
# 1 0.017250 0.000348 -0.010606 0.000000 0.000000 0.000000
# 2 0.000348 0.010530 -0.005260 0.000000 0.000000 0.000000
# 3 -0.010606 -0.005260 0.020666 0.000000 0.000000 0.000000
# 4 0.000000 0.000000 0.000000 0.039123 0.000000 0.000000
# 5 0.000000 0.000000 0.000000 0.000000 0.064339 0.000000
# 6 0.000000 0.000000 0.000000 0.000000 0.000000 0.018550
#
#
# Mechanical properties :
#
#
# Convention : Reuss Voigt Hill
#
# Bulk Modulus (GPa) = 57.44215 57.76534 57.60374
# Shear Modulus (GPa) = 24.11995 30.59096 27.35545
#
# Velocity S-wave (km/s) = 3.40753 3.83750 3.62889
# Velocity P-wave (km/s) = 6.56766 6.88790 6.72969
#
# Compressibility (1/GPa) = 0.01740882
#
# Stress axis : x y z
#
# Youngs Moduli (GPa) = 57.97055 94.96737 48.38915
#
# Poissons Ratio (x) = -0.03305 0.51323
# Poissons Ratio (y) = -0.02017 0.25453
# Poissons Ratio (z) = 0.61486 0.49954
#
# Static dielectric constant tensor:
#      x y z
#    x 3.820660 0.000000 0.000000 
#    y 0.000000 3.878030 0.000000 
#    z 0.000000 0.000000 3.711270 
# 
# 
# High freq. dielectric constant tensor:
#      x y z
#    x 1.817860 0.000000 0.000000 
#    y 0.000000 1.821080 0.000000 
#    z 0.000000 0.000000 1.819020 
# 
# From -- ./inp_files/12250.got.cif
#   From: 2010.03.12/outbox.cif.g09.slc.cpg/sg73_7_cif.got.tgz:12250.got - 2010.04.16 15:25:48.
