data_PCOD8296335
_publ_section_title
;
Structure prediction by ZEFSAII (Michael W. Deem and Ramdas Pophale) SiO2 
 PCOD8296335
Probable space group: I B C A 
;
_chemical_formula_sum "Si O2"
_cell_formula_units_Z 80
_cell_length_a 15.483556
_cell_length_b 8.791580
_cell_length_c 26.473305
_cell_angle_alpha 90.000000
_cell_angle_beta 90.000000
_cell_angle_gamma 90.000000
_cell_volume 3603.676559
_symmetry_space_group_name_H-M "I B C A "
_symmetry_group_IT_number 73
_symmetry_cell_setting 'orthorhombic'
loop_
_space_group_symop_operation_xyz
x,y,z
-x,1/2-y,z
x,-y,1/2-z
1/2-x,y,-z
-x,-y,-z
x,1/2+y,-z
-x,y,1/2+z
1/2+x,-y,z
1/2+x,1/2+y,1/2+z
1/2-x,-y,1/2+z
1/2+x,1/2-y,-z
-x,1/2+y,1/2-z
1/2-x,1/2-y,1/2-z
1/2+x,y,1/2-z
1/2-x,1/2+y,z
x,1/2-y,1/2+z
loop_
_atom_site_type_symbol
_atom_site_label
_atom_site_fract_x
_atom_site_fract_y
_atom_site_fract_z
Si Si1 0.000000 0.250000 0.296929
Si Si2 0.808068 0.033654 0.643379
Si Si3 0.384763 0.000000 0.750000
Si Si4 0.102800 0.729154 0.935316
Si Si5 0.866300 0.306660 0.877142
Si Si6 0.408503 0.460274 0.524796
O O1 0.053382 0.140365 0.261172
O O2 0.065267 0.342132 0.333092
O O3 0.866669 0.166081 0.618439
O O4 0.709520 0.071744 0.631314
O O5 0.823177 0.041690 0.703313
O O6 0.832675 0.866820 0.623039
O O7 0.000000 0.750000 0.934097
O O8 0.140305 0.894246 0.951109
O O9 0.141714 0.614527 0.977688
O O10 0.914225 0.335239 0.930492
O O11 0.500000 0.500000 0.500000
#
# Coordination Sequence:
#
# PCOD8296335 Si02
#       6
#     8  16   8  16  16  16
#     4  10  26  42  74  98 140 186 240 298 346 444
#     4  11  25  45  68 104 143 186 242 298 356 414
#     4  10  26  44  70 104 138 188 242 294 360 420
#     4  10  22  37  67 100 138 184 224 287 344 432
#     4  11  25  44  69 102 142 186 236 298 354 426
#     4  10  22  38  67 101 137 181 223 281 346 422
#
# _framework density 22.199549999999999
#
# number of rings (size 3 to 8) (size 9 to 14) (size 15 to 20)
#    0.000    1.600    0.000    2.400   16.800    6.400 
#    0.000    4.000    0.000    0.000    0.000    0.000 
#    0.000    0.000    0.000    0.000    0.000    0.000 
#
# Total GULP energy -495791.986410 kJ/mol
# GULP energy per Si atom -12394.799660 kJ/mol
# Density = 2.214902 g / cm^3
# Si number density = 22.199550 Si / 1000 Ang^3
#
#
#
# Elastic Constant Matrix: (Units=GPa)
#
#
# Indices 1 2 3 4 5 6 
#
# 1 88.3515 33.5169 44.2619 0.0000 0.0000 0.0000
# 2 33.5169 109.1725 63.7939 0.0000 0.0000 0.0000
# 3 44.2619 63.7939 166.4817 0.0000 0.0000 0.0000
# 4 0.0000 0.0000 0.0000 49.7039 0.0000 0.0000
# 5 0.0000 0.0000 0.0000 0.0000 29.1546 0.0000
# 6 0.0000 0.0000 0.0000 0.0000 0.0000 21.8931
#
#
#
# Elastic Compliance Matrix: (Units=1/GPa)
#
#
# Indices 1 2 3 4 5 6 
#
# 1 0.013634 -0.002664 -0.002604 0.000000 0.000000 0.000000
# 2 -0.002664 0.012323 -0.004014 0.000000 0.000000 0.000000
# 3 -0.002604 -0.004014 0.008237 0.000000 0.000000 0.000000
# 4 0.000000 0.000000 0.000000 0.020119 0.000000 0.000000
# 5 0.000000 0.000000 0.000000 0.000000 0.034300 0.000000
# 6 0.000000 0.000000 0.000000 0.000000 0.000000 0.045676
#
#
# Mechanical properties :
#
#
# Convention : Reuss Voigt Hill
#
# Bulk Modulus (GPa) = 63.97871 71.90567 67.94219
# Shear Modulus (GPa) = 31.63302 34.97919 33.30611
#
# Velocity S-wave (km/s) = 3.77893 3.97378 3.87758
# Velocity P-wave (km/s) = 6.92263 7.31543 7.12174
#
# Compressibility (1/GPa) = 0.01563020
#
# Stress axis : x y z
#
# Youngs Moduli (GPa) = 73.34852 81.14823 121.40370
#
# Poissons Ratio (x) = 0.21619 0.31612
# Poissons Ratio (y) = 0.19541 0.48729
# Poissons Ratio (z) = 0.19099 0.32571
#
# Static dielectric constant tensor:
#      x y z
#    x 3.812820 0.000000 0.000000 
#    y 0.000000 4.630030 0.000000 
#    z 0.000000 0.000000 4.251740 
# 
# 
# High freq. dielectric constant tensor:
#      x y z
#    x 1.858200 0.000000 0.000000 
#    y 0.000000 1.886420 0.000000 
#    z 0.000000 0.000000 1.885060 
# 
# From -- ./inp_files/32330.got.cif
#   From: 2010.03.12/outbox.cif.g09.slc.cpg/sg73_17_cif.got.tgz:32330.got - 2010.04.16 15:25:48.
