data_PCOD8296308
_publ_section_title
;
Structure prediction by ZEFSAII (Michael W. Deem and Ramdas Pophale) SiO2 
 PCOD8296308
Probable space group: I B C A 
;
_chemical_formula_sum "Si O2"
_cell_formula_units_Z 104
_cell_length_a 8.781183
_cell_length_b 20.259142
_cell_length_c 24.705148
_cell_angle_alpha 90.000000
_cell_angle_beta 90.000000
_cell_angle_gamma 90.000000
_cell_volume 4395.026888
_symmetry_space_group_name_H-M "I B C A "
_symmetry_group_IT_number 73
_symmetry_cell_setting 'orthorhombic'
loop_
_space_group_symop_operation_xyz
x,y,z
-x,1/2-y,z
x,-y,1/2-z
1/2-x,y,-z
-x,-y,-z
x,1/2+y,-z
-x,y,1/2+z
1/2+x,-y,z
1/2+x,1/2+y,1/2+z
1/2-x,-y,1/2+z
1/2+x,1/2-y,-z
-x,1/2+y,1/2-z
1/2-x,1/2-y,1/2-z
1/2+x,y,1/2-z
1/2-x,1/2+y,z
x,1/2-y,1/2+z
loop_
_atom_site_type_symbol
_atom_site_label
_atom_site_fract_x
_atom_site_fract_y
_atom_site_fract_z
Si Si1 0.250000 0.928680 0.000000
Si Si2 0.042210 0.964009 0.094335
Si Si3 0.241333 0.408574 0.284525
Si Si4 0.034716 0.112065 0.588002
Si Si5 0.714890 0.360698 0.665949
Si Si6 0.500000 0.750000 0.874898
Si Si7 0.705803 0.359245 0.100208
Si Si8 0.510620 0.500000 0.750000
O O1 0.352442 0.971967 0.959200
O O2 0.135856 0.882739 0.965948
O O3 0.137474 0.927152 0.141566
O O4 0.888119 0.923272 0.080611
O O5 0.992057 0.037516 0.109834
O O6 0.246406 0.368809 0.228684
O O7 0.234519 0.359415 0.334758
O O8 0.387797 0.455676 0.290055
O O9 0.091256 0.454118 0.288626
O O10 0.125714 0.151824 0.634776
O O11 0.872086 0.144772 0.573167
O O12 0.600424 0.299155 0.661765
O O13 0.389365 0.706807 0.913394
#
# Coordination Sequence:
#
# PCOD8296308 Si02
#       8
#     8  16  16  16  16   8  16   8
#     4  10  22  42  62  96 136 160 198 258 324 406
#     4  10  22  39  65  99 131 165 203 258 322 394
#     4  11  23  36  58  95 129 179 204 257 304 376
#     4  11  23  38  66  98 125 163 209 256 332 391
#     4  10  23  40  63  91 131 176 214 259 311 359
#     4  10  24  46  60  84 130 172 230 272 292 364
#     4  11  24  39  65  93 128 174 213 261 318 363
#     4  10  22  30  56  86 138 158 204 250 310 376
#
# _framework density 23.66311
#
# number of rings (size 3 to 8) (size 9 to 14) (size 15 to 20)
#    0.000    1.538    0.000    5.077   12.923    1.846 
#    0.000    0.000    0.000   49.846    0.000    1.077 
#    0.000    0.000    0.000    0.000    0.000    0.000 
#
# Total GULP energy -644773.147751 kJ/mol
# GULP energy per Si atom -12399.483611 kJ/mol
# Density = 2.360925 g / cm^3
# Si number density = 23.663110 Si / 1000 Ang^3
#
#
#
# Elastic Constant Matrix: (Units=GPa)
#
#
# Indices 1 2 3 4 5 6 
#
# 1 183.8738 44.1478 27.2883 0.0000 0.0000 0.0000
# 2 44.1478 97.9370 12.0920 0.0000 0.0000 0.0000
# 3 27.2883 12.0920 77.1211 0.0000 0.0000 0.0000
# 4 0.0000 0.0000 0.0000 8.1717 0.0000 0.0000
# 5 0.0000 0.0000 0.0000 0.0000 32.6678 0.0000
# 6 0.0000 0.0000 0.0000 0.0000 0.0000 47.7674
#
#
#
# Elastic Compliance Matrix: (Units=1/GPa)
#
#
# Indices 1 2 3 4 5 6 
#
# 1 0.006342 -0.002633 -0.001831 0.000000 0.000000 0.000000
# 2 -0.002633 0.011505 -0.000872 0.000000 0.000000 0.000000
# 3 -0.001831 -0.000872 0.013751 0.000000 0.000000 0.000000
# 4 0.000000 0.000000 0.000000 0.122373 0.000000 0.000000
# 5 0.000000 0.000000 0.000000 0.000000 0.030611 0.000000
# 6 0.000000 0.000000 0.000000 0.000000 0.000000 0.020935
#
#
# Mechanical properties :
#
#
# Convention : Reuss Voigt Hill
#
# Bulk Modulus (GPa) = 47.78773 58.44311 53.11542
# Shear Modulus (GPa) = 22.40475 36.08164 29.24319
#
# Velocity S-wave (km/s) = 3.08039 3.90911 3.51923
# Velocity P-wave (km/s) = 5.73503 6.71762 6.24568
#
# Compressibility (1/GPa) = 0.02092587
#
# Stress axis : x y z
#
# Youngs Moduli (GPa) = 157.66746 86.91712 72.71984
#
# Poissons Ratio (x) = 0.22885 0.13318
# Poissons Ratio (y) = 0.41513 0.06343
# Poissons Ratio (z) = 0.28875 0.07582
#
# Static dielectric constant tensor:
#      x y z
#    x 4.986570 0.000000 0.000000 
#    y 0.000000 3.861200 0.000000 
#    z 0.000000 0.000000 3.994870 
# 
# 
# High freq. dielectric constant tensor:
#      x y z
#    x 1.974060 0.000000 0.000000 
#    y 0.000000 1.890960 0.000000 
#    z 0.000000 0.000000 1.919560 
# 
# From -- ./inp_files/31305.got.cif
#   From: 2010.03.12/outbox.cif.g09.slc.cpg/sg73_16_cif.got.tgz:31305.got - 2010.04.16 15:25:48.
