data_PCOD8296768
_publ_section_title
;
Structure prediction by ZEFSAII (Michael W. Deem and Ramdas Pophale) SiO2 
 PCOD8296768
Probable space group: I B C A 
;
_chemical_formula_sum "Si O2"
_cell_formula_units_Z 80
_cell_length_a 14.081907
_cell_length_b 27.709753
_cell_length_c 9.425736
_cell_angle_alpha 90.000000
_cell_angle_beta 90.000000
_cell_angle_gamma 90.000000
_cell_volume 3677.980294
_symmetry_space_group_name_H-M "I B C A "
_symmetry_group_IT_number 73
_symmetry_cell_setting 'orthorhombic'
loop_
_space_group_symop_operation_xyz
x,y,z
-x,1/2-y,z
x,-y,1/2-z
1/2-x,y,-z
-x,-y,-z
x,1/2+y,-z
-x,y,1/2+z
1/2+x,-y,z
1/2+x,1/2+y,1/2+z
1/2-x,-y,1/2+z
1/2+x,1/2-y,-z
-x,1/2+y,1/2-z
1/2-x,1/2-y,1/2-z
1/2+x,y,1/2-z
1/2-x,1/2+y,z
x,1/2-y,1/2+z
loop_
_atom_site_type_symbol
_atom_site_label
_atom_site_fract_x
_atom_site_fract_y
_atom_site_fract_z
Si Si1 0.000000 0.750000 0.701808
Si Si2 0.573151 0.688488 0.547238
Si Si3 0.529353 0.902175 0.568256
Si Si4 0.250000 0.121027 0.000000
Si Si5 0.587028 0.947416 0.294070
Si Si6 0.299882 0.944167 0.238006
O O1 0.070234 0.779901 0.597251
O O2 0.067227 0.718619 0.806226
O O3 0.478403 0.654829 0.538210
O O4 0.667855 0.656597 0.554537
O O5 0.520517 0.931780 0.423142
O O6 0.435692 0.913933 0.660019
O O7 0.627736 0.914359 0.643042
O O8 0.207209 0.084333 0.884697
O O9 0.697038 0.944314 0.337708
O O10 0.553875 0.000000 0.250000
O O11 0.334113 0.000000 0.250000
#
# Coordination Sequence:
#
# PCOD8296768 Si02
#       6
#     8  16  16   8  16  16
#     4  10  24  48  70 100 124 174 214 296 358 426
#     4  11  24  44  73  96 136 167 230 280 360 410
#     4  12  23  43  67  99 131 192 223 283 336 409
#     4  12  24  44  68 104 136 182 224 292 328 412
#     4  11  24  39  63  95 139 181 236 276 326 389
#     4  11  26  40  65  99 148 184 234 272 328 392
#
# _framework density 21.751068
#
# number of rings (size 3 to 8) (size 9 to 14) (size 15 to 20)
#    0.000    0.800    2.000    5.400    5.600    0.800 
#    0.000    0.000    0.000    0.000    0.000    0.000 
#    0.000    0.000    0.000    0.000    0.000    0.000 
#
# Total GULP energy -495928.360149 kJ/mol
# GULP energy per Si atom -12398.209004 kJ/mol
# Density = 2.170156 g / cm^3
# Si number density = 21.751068 Si / 1000 Ang^3
#
#
#
# Elastic Constant Matrix: (Units=GPa)
#
#
# Indices 1 2 3 4 5 6 
#
# 1 79.7600 60.8657 13.6912 -0.0194 -0.0040 -0.0007
# 2 60.8657 143.4223 86.1374 -0.0033 0.0020 0.0002
# 3 13.6912 86.1374 115.8966 -0.0550 -0.0061 -0.0017
# 4 -0.0194 -0.0033 -0.0550 40.5129 0.0090 0.0005
# 5 -0.0040 0.0020 -0.0061 0.0090 23.7253 0.0008
# 6 -0.0007 0.0002 -0.0017 0.0005 0.0008 32.1058
#
#
#
# Elastic Compliance Matrix: (Units=1/GPa)
#
#
# Indices 1 2 3 4 5 6 
#
# 1 0.021842 -0.013944 0.007783 0.000020 0.000007 0.000001
# 2 -0.013944 0.021496 -0.014329 -0.000024 -0.000008 -0.000001
# 3 0.007783 -0.014329 0.018359 0.000027 0.000007 0.000001
# 4 0.000020 -0.000024 0.000027 0.024684 -0.000009 0.000000
# 5 0.000007 -0.000008 0.000007 -0.000009 0.042149 -0.000001
# 6 0.000001 -0.000001 0.000001 0.000000 -0.000001 0.031147
#
#
# Mechanical properties :
#
#
# Convention : Reuss Voigt Hill
#
# Bulk Modulus (GPa) = 48.26885 73.38528 60.82706
# Shear Modulus (GPa) = 24.08923 31.16111 27.62517
#
# Velocity S-wave (km/s) = 3.33152 3.78911 3.56766
# Velocity P-wave (km/s) = 6.08591 7.27702 6.70796
#
# Compressibility (1/GPa) = 0.02071730
#
# Stress axis : x y z
#
# Youngs Moduli (GPa) = 45.78256 46.52084 54.47038
#
# Poissons Ratio (x) = 0.64869 -0.42396
# Poissons Ratio (y) = 0.63839 0.78050
# Poissons Ratio (z) = -0.35634 0.66660
#
# Static dielectric constant tensor:
#      x y z
#    x 3.781620 0.000000 -0.000020 
#    y 0.000000 4.249370 -0.000100 
#    z -0.000020 -0.000100 5.010020 
# 
# 
# High freq. dielectric constant tensor:
#      x y z
#    x 1.851360 0.000000 0.000000 
#    y 0.000000 1.864060 0.000000 
#    z 0.000000 0.000000 1.867920 
# 
# From -- ./inp_files/5628.got.cif
#   From: 2010.03.12/outbox.cif.g09.slc.cpg/sg73_3_cif.got.tgz:5628.got - 2010.04.16 15:25:48.
