data_PCOD8296390
_publ_section_title
;
Structure prediction by ZEFSAII (Michael W. Deem and Ramdas Pophale) SiO2 
 PCOD8296390
Probable space group: I B C A 
;
_chemical_formula_sum "Si O2"
_cell_formula_units_Z 104
_cell_length_a 8.767949
_cell_length_b 21.065793
_cell_length_c 26.532799
_cell_angle_alpha 90.000000
_cell_angle_beta 90.000000
_cell_angle_gamma 90.000000
_cell_volume 4900.708765
_symmetry_space_group_name_H-M "I B C A "
_symmetry_group_IT_number 73
_symmetry_cell_setting 'orthorhombic'
loop_
_space_group_symop_operation_xyz
x,y,z
-x,1/2-y,z
x,-y,1/2-z
1/2-x,y,-z
-x,-y,-z
x,1/2+y,-z
-x,y,1/2+z
1/2+x,-y,z
1/2+x,1/2+y,1/2+z
1/2-x,-y,1/2+z
1/2+x,1/2-y,-z
-x,1/2+y,1/2-z
1/2-x,1/2-y,1/2-z
1/2+x,y,1/2-z
1/2-x,1/2+y,z
x,1/2-y,1/2+z
loop_
_atom_site_type_symbol
_atom_site_label
_atom_site_fract_x
_atom_site_fract_y
_atom_site_fract_z
Si Si1 0.909154 0.185816 0.903796
Si Si2 0.750000 0.871963 0.500000
Si Si3 0.410450 0.592129 0.836596
Si Si4 0.841784 0.005759 0.865777
Si Si5 0.424934 0.072813 0.417291
Si Si6 0.885328 0.298226 0.758163
Si Si7 0.908076 0.689304 0.855055
O O1 0.773833 0.196457 0.863274
O O2 0.000000 0.250000 0.912250
O O3 0.029523 0.131906 0.885014
O O4 0.829987 0.169710 0.957048
O O5 0.615035 0.914917 0.524368
O O6 0.254013 0.553330 0.844606
O O7 0.547241 0.540811 0.824462
O O8 0.365144 0.639199 0.791508
O O9 0.951483 0.982486 0.911561
O O10 0.734259 0.058676 0.889099
O O11 0.486214 0.134404 0.388140
O O12 0.750000 0.250000 0.750000
O O13 0.941940 0.323447 0.703901
O O14 0.000000 0.250000 0.785985
O O15 0.000000 0.750000 0.873945
#
# Coordination Sequence:
#
# PCOD8296390 Si02
#       7
#    16   8  16  16  16  16  16
#     4  11  23  43  69  97 134 172 220 289 339 397
#     4  10  22  42  66  94 136 162 226 276 342 404
#     4  11  22  45  66  97 131 177 222 279 332 398
#     4  10  23  42  68  90 132 177 221 267 336 395
#     4  10  22  43  62  93 126 170 216 273 328 396
#     4  11  24  39  68  98 128 170 223 269 330 405
#     4  10  22  40  65  94 129 171 213 276 329 393
#
# _framework density 21.221419999999998
#
# number of rings (size 3 to 8) (size 9 to 14) (size 15 to 20)
#    0.000    1.538    3.077    2.308    6.462    3.077 
#    0.000    4.615    0.000    0.000    0.000    0.000 
#    0.000    0.000    0.000    0.000    0.000    0.000 
#
# Total GULP energy -644301.683202 kJ/mol
# GULP energy per Si atom -12390.416985 kJ/mol
# Density = 2.117312 g / cm^3
# Si number density = 21.221420 Si / 1000 Ang^3
#
#
#
# Elastic Constant Matrix: (Units=GPa)
#
#
# Indices 1 2 3 4 5 6 
#
# 1 104.9172 60.3850 23.5524 0.0000 0.0000 0.0000
# 2 60.3850 138.3630 54.2637 0.0000 0.0000 0.0000
# 3 23.5524 54.2637 93.4562 0.0000 0.0000 0.0000
# 4 0.0000 0.0000 0.0000 29.5079 0.0000 0.0000
# 5 0.0000 0.0000 0.0000 0.0000 25.1911 0.0000
# 6 0.0000 0.0000 0.0000 0.0000 0.0000 53.1366
#
#
#
# Elastic Compliance Matrix: (Units=1/GPa)
#
#
# Indices 1 2 3 4 5 6 
#
# 1 0.012729 -0.005564 0.000023 0.000000 0.000000 0.000000
# 2 -0.005564 0.011791 -0.005444 0.000000 0.000000 0.000000
# 3 0.000023 -0.005444 0.013855 0.000000 0.000000 0.000000
# 4 0.000000 0.000000 0.000000 0.033889 0.000000 0.000000
# 5 0.000000 0.000000 0.000000 0.000000 0.039697 0.000000
# 6 0.000000 0.000000 0.000000 0.000000 0.000000 0.018819
#
#
# Mechanical properties :
#
#
# Convention : Reuss Voigt Hill
#
# Bulk Modulus (GPa) = 60.95874 68.12651 64.54263
# Shear Modulus (GPa) = 31.60204 34.80283 33.20243
#
# Velocity S-wave (km/s) = 3.86315 4.05407 3.95976
# Velocity P-wave (km/s) = 6.97754 7.35434 7.16842
#
# Compressibility (1/GPa) = 0.01640454
#
# Stress axis : x y z
#
# Youngs Moduli (GPa) = 78.56356 84.81336 72.17464
#
# Poissons Ratio (x) = 0.47190 -0.00165
# Poissons Ratio (y) = 0.43713 0.39290
# Poissons Ratio (z) = -0.00180 0.46171
#
# Static dielectric constant tensor:
#      x y z
#    x 3.951370 0.000000 0.000000 
#    y 0.000000 4.019750 0.000000 
#    z 0.000000 0.000000 3.757430 
# 
# 
# High freq. dielectric constant tensor:
#      x y z
#    x 1.843420 0.000000 0.000000 
#    y 0.000000 1.851390 0.000000 
#    z 0.000000 0.000000 1.804910 
# 
# From -- ./inp_files/31278.got.cif
#   From: 2010.03.12/outbox.cif.g09.slc.cpg/sg73_16_cif.got.tgz:31278.got - 2010.04.16 15:25:48.
