data_PCOD8296146
_publ_section_title
;
Structure prediction by ZEFSAII (Michael W. Deem and Ramdas Pophale) SiO2 
 PCOD8296146
Probable space group: I B C A 
;
_chemical_formula_sum "Si O2"
_cell_formula_units_Z 104
_cell_length_a 16.042309
_cell_length_b 15.887609
_cell_length_c 20.365767
_cell_angle_alpha 90.000000
_cell_angle_beta 90.000000
_cell_angle_gamma 90.000000
_cell_volume 5190.703131
_symmetry_space_group_name_H-M "I B C A "
_symmetry_group_IT_number 73
_symmetry_cell_setting 'orthorhombic'
loop_
_space_group_symop_operation_xyz
x,y,z
-x,1/2-y,z
x,-y,1/2-z
1/2-x,y,-z
-x,-y,-z
x,1/2+y,-z
-x,y,1/2+z
1/2+x,-y,z
1/2+x,1/2+y,1/2+z
1/2-x,-y,1/2+z
1/2+x,1/2-y,-z
-x,1/2+y,1/2-z
1/2-x,1/2-y,1/2-z
1/2+x,y,1/2-z
1/2-x,1/2+y,z
x,1/2-y,1/2+z
loop_
_atom_site_type_symbol
_atom_site_label
_atom_site_fract_x
_atom_site_fract_y
_atom_site_fract_z
Si Si1 0.925985 0.018686 0.096903
Si Si2 0.180576 0.812953 0.272009
Si Si3 0.778865 0.465966 0.822390
Si Si4 0.500000 0.750000 0.020844
Si Si5 0.120915 0.197793 0.627451
Si Si6 0.302092 0.371245 0.135534
Si Si7 0.560274 0.591288 0.958495
O O1 0.926084 0.107583 0.137591
O O2 0.862551 0.954852 0.133476
O O3 0.902216 0.041342 0.021319
O O4 0.016027 0.973287 0.092596
O O5 0.250000 0.750000 0.250000
O O6 0.225190 0.881283 0.318905
O O7 0.108057 0.761502 0.310635
O O8 0.148054 0.851885 0.203581
O O9 0.803415 0.500000 0.750000
O O10 0.722996 0.531706 0.861735
O O11 0.494072 0.663973 0.978926
O O12 0.583884 0.745238 0.064527
O O13 0.220537 0.185183 0.620878
O O14 0.364584 0.359270 0.075614
#
# Coordination Sequence:
#
# PCOD8296146 Si02
#       7
#    16  16  16   8  16  16  16
#     4   9  20  37  56  77 112 153 186 237 292 346
#     4   9  18  34  58  85 112 144 190 242 289 344
#     4   9  18  34  55  81 111 145 189 237 291 348
#     4  10  22  36  52  80 116 146 186 244 288 344
#     4   9  19  37  58  81 112 148 185 233 296 343
#     4   9  19  37  59  81 111 152 192 236 283 350
#     4  10  21  38  56  81 114 151 197 237 288 346
#
# _framework density 20.035822
#
# number of rings (size 3 to 8) (size 9 to 14) (size 15 to 20)
#    0.000    2.769    0.000    0.923    0.000   11.692 
#    0.000   10.769    0.000    0.000    0.000    0.000 
#    0.000    0.000    0.000    0.000    0.000    0.000 
#
# Total GULP energy -644211.433776 kJ/mol
# GULP energy per Si atom -12388.681419 kJ/mol
# Density = 1.999022 g / cm^3
# Si number density = 20.035822 Si / 1000 Ang^3
#
#
#
# Elastic Constant Matrix: (Units=GPa)
#
#
# Indices 1 2 3 4 5 6 
#
# 1 72.0784 40.1171 50.4894 0.0000 0.0000 0.0000
# 2 40.1171 82.0250 37.7646 0.0000 0.0000 0.0000
# 3 50.4894 37.7646 81.0669 0.0000 0.0000 0.0000
# 4 0.0000 0.0000 0.0000 31.6800 0.0000 0.0000
# 5 0.0000 0.0000 0.0000 0.0000 36.8981 0.0000
# 6 0.0000 0.0000 0.0000 0.0000 0.0000 31.0267
#
#
#
# Elastic Compliance Matrix: (Units=1/GPa)
#
#
# Indices 1 2 3 4 5 6 
#
# 1 0.027504 -0.007085 -0.013830 0.000000 0.000000 0.000000
# 2 -0.007085 0.017345 -0.003668 0.000000 0.000000 0.000000
# 3 -0.013830 -0.003668 0.022657 0.000000 0.000000 0.000000
# 4 0.000000 0.000000 0.000000 0.031566 0.000000 0.000000
# 5 0.000000 0.000000 0.000000 0.000000 0.027102 0.000000
# 6 0.000000 0.000000 0.000000 0.000000 0.000000 0.032230
#
#
# Mechanical properties :
#
#
# Convention : Reuss Voigt Hill
#
# Bulk Modulus (GPa) = 54.51769 54.65692 54.58731
# Shear Modulus (GPa) = 23.39921 27.04091 25.22006
#
# Velocity S-wave (km/s) = 3.42112 3.67771 3.55173
# Velocity P-wave (km/s) = 6.54787 6.73594 6.64257
#
# Compressibility (1/GPa) = 0.01834267
#
# Stress axis : x y z
#
# Youngs Moduli (GPa) = 36.35797 57.65345 44.13590
#
# Poissons Ratio (x) = 0.40846 0.61038
# Poissons Ratio (y) = 0.25759 0.16187
# Poissons Ratio (z) = 0.50282 0.21145
#
# Static dielectric constant tensor:
#      x y z
#    x 3.401660 0.000000 0.000000 
#    y 0.000000 3.781390 0.000000 
#    z 0.000000 0.000000 4.326180 
# 
# 
# High freq. dielectric constant tensor:
#      x y z
#    x 1.746580 0.000000 0.000000 
#    y 0.000000 1.789060 0.000000 
#    z 0.000000 0.000000 1.778830 
# 
# From -- ./inp_files/22616.got.cif
#   From: 2010.03.12/outbox.cif.g09.slc.cpg/sg73_12_cif.got.tgz:22616.got - 2010.04.16 15:25:48.
