data_PCOD8296450
_publ_section_title
;
Structure prediction by ZEFSAII (Michael W. Deem and Ramdas Pophale) SiO2 
 PCOD8296450
Probable space group: I B C A 
;
_chemical_formula_sum "Si O2"
_cell_formula_units_Z 56
_cell_length_a 12.919212
_cell_length_b 8.984268
_cell_length_c 20.475895
_cell_angle_alpha 90.000000
_cell_angle_beta 90.000000
_cell_angle_gamma 90.000000
_cell_volume 2376.630231
_symmetry_space_group_name_H-M "I B C A "
_symmetry_group_IT_number 73
_symmetry_cell_setting 'orthorhombic'
loop_
_space_group_symop_operation_xyz
x,y,z
-x,1/2-y,z
x,-y,1/2-z
1/2-x,y,-z
-x,-y,-z
x,1/2+y,-z
-x,y,1/2+z
1/2+x,-y,z
1/2+x,1/2+y,1/2+z
1/2-x,-y,1/2+z
1/2+x,1/2-y,-z
-x,1/2+y,1/2-z
1/2-x,1/2-y,1/2-z
1/2+x,y,1/2-z
1/2-x,1/2+y,z
x,1/2-y,1/2+z
loop_
_atom_site_type_symbol
_atom_site_label
_atom_site_fract_x
_atom_site_fract_y
_atom_site_fract_z
Si Si1 0.194925 0.605182 0.187367
Si Si2 0.500000 0.250000 0.995290
Si Si3 0.592907 0.334584 0.766448
Si Si4 0.148276 0.497693 0.452612
O O1 0.184862 0.500000 0.250000
O O2 0.311186 0.669448 0.184524
O O3 0.118124 0.745477 0.198338
O O4 0.182430 0.512343 0.122063
O O5 0.421885 0.354633 0.954907
O O6 0.423243 0.146279 0.036655
O O7 0.500000 0.250000 0.803183
O O8 0.555118 0.500000 0.750000
O O9 0.250000 0.504484 0.500000
#
# Coordination Sequence:
#
# PCOD8296450 Si02
#       4
#    16   8  16  16
#     4  10  24  47  71 107 147 194 243 308 376 434
#     4  10  26  48  76 112 138 204 260 298 386 450
#     4  10  22  42  66 103 148 189 239 304 362 448
#     4  11  25  51  76 107 155 196 250 318 370 454
#
# _framework density 23.562774000000001
#
# number of rings (size 3 to 8) (size 9 to 14) (size 15 to 20)
#    0.000    1.714    0.000    1.714    2.000   14.857 
#   30.857    0.000    0.000    0.000    0.000    0.000 
#    0.000    0.000    0.000    0.000    0.000    0.000 
#
# Total GULP energy -346951.878558 kJ/mol
# GULP energy per Si atom -12391.138520 kJ/mol
# Density = 2.350914 g / cm^3
# Si number density = 23.562774 Si / 1000 Ang^3
#
#
#
# Elastic Constant Matrix: (Units=GPa)
#
#
# Indices 1 2 3 4 5 6 
#
# 1 180.2850 87.9255 66.2675 0.0000 0.0000 0.0000
# 2 87.9255 177.1069 61.2745 0.0000 0.0000 0.0000
# 3 66.2675 61.2745 167.6262 0.0000 0.0000 0.0000
# 4 0.0000 0.0000 0.0000 25.2397 0.0000 0.0000
# 5 0.0000 0.0000 0.0000 0.0000 6.2721 0.0000
# 6 0.0000 0.0000 0.0000 0.0000 0.0000 56.7400
#
#
#
# Elastic Compliance Matrix: (Units=1/GPa)
#
#
# Indices 1 2 3 4 5 6 
#
# 1 0.007821 -0.003220 -0.001915 0.000000 0.000000 0.000000
# 2 -0.003220 0.007790 -0.001574 0.000000 0.000000 0.000000
# 3 -0.001915 -0.001574 0.007298 0.000000 0.000000 0.000000
# 4 0.000000 0.000000 0.000000 0.039620 0.000000 0.000000
# 5 0.000000 0.000000 0.000000 0.000000 0.159437 0.000000
# 6 0.000000 0.000000 0.000000 0.000000 0.000000 0.017624
#
#
# Mechanical properties :
#
#
# Convention : Reuss Voigt Hill
#
# Bulk Modulus (GPa) = 105.37386 106.21702 105.79544
# Shear Modulus (GPa) = 19.51804 38.28706 28.90255
#
# Velocity S-wave (km/s) = 2.88122 4.03537 3.50611
# Velocity P-wave (km/s) = 7.47570 8.17854 7.83500
#
# Compressibility (1/GPa) = 0.00949002
#
# Stress axis : x y z
#
# Youngs Moduli (GPa) = 127.85795 128.37323 137.02179
#
# Poissons Ratio (x) = 0.41341 0.26236
# Poissons Ratio (y) = 0.41175 0.21572
# Poissons Ratio (z) = 0.24482 0.20211
#
# Static dielectric constant tensor:
#      x y z
#    x 4.911360 0.000000 0.000000 
#    y 0.000000 4.711070 0.000000 
#    z 0.000000 0.000000 3.693410 
# 
# 
# High freq. dielectric constant tensor:
#      x y z
#    x 1.963870 0.000000 0.000000 
#    y 0.000000 1.961920 0.000000 
#    z 0.000000 0.000000 1.889790 
# 
# From -- ./inp_files/4458.got.cif
#   From: 2010.03.12/outbox.cif.g09.slc.cpg/sg73_3_cif.got.tgz:4458.got - 2010.04.16 15:25:48.
