data_PCOD8296194
_publ_section_title
;
Structure prediction by ZEFSAII (Michael W. Deem and Ramdas Pophale) SiO2 
 PCOD8296194
Probable space group: I B C A 
;
_chemical_formula_sum "Si O2"
_cell_formula_units_Z 80
_cell_length_a 28.604880
_cell_length_b 14.172678
_cell_length_c 9.292904
_cell_angle_alpha 90.000000
_cell_angle_beta 90.000000
_cell_angle_gamma 90.000000
_cell_volume 3767.415334
_symmetry_space_group_name_H-M "I B C A "
_symmetry_group_IT_number 73
_symmetry_cell_setting 'orthorhombic'
loop_
_space_group_symop_operation_xyz
x,y,z
-x,1/2-y,z
x,-y,1/2-z
1/2-x,y,-z
-x,-y,-z
x,1/2+y,-z
-x,y,1/2+z
1/2+x,-y,z
1/2+x,1/2+y,1/2+z
1/2-x,-y,1/2+z
1/2+x,1/2-y,-z
-x,1/2+y,1/2-z
1/2-x,1/2-y,1/2-z
1/2+x,y,1/2-z
1/2-x,1/2+y,z
x,1/2-y,1/2+z
loop_
_atom_site_type_symbol
_atom_site_label
_atom_site_fract_x
_atom_site_fract_y
_atom_site_fract_z
Si Si1 0.964086 0.094284 0.167958
Si Si2 0.031446 0.666130 0.031541
Si Si3 0.386101 0.777603 0.060875
Si Si4 0.322049 0.227270 0.695241
Si Si5 0.245991 0.902476 0.669265
O O1 0.977691 0.162749 0.299040
O O2 0.919569 0.131160 0.075821
O O3 0.948320 0.000000 0.250000
O O4 0.009652 0.079202 0.063084
O O5 0.000000 0.750000 0.965884
O O6 0.085766 0.686928 0.000970
O O7 0.368702 0.745256 0.215622
O O8 0.340600 0.801371 0.963244
O O9 0.293362 0.140044 0.762267
O O10 0.293691 0.324597 0.692021
O O11 0.250000 0.923856 0.500000
O O12 0.233139 0.000000 0.750000
#
# Coordination Sequence:
#
# PCOD8296194 Si02
#       5
#    16  16  16  16  16
#     4  11  23  39  61  94 132 173 218 277 324 389
#     4  10  21  39  63  86 124 175 218 253 328 395
#     4  11  22  42  67  92 127 174 222 269 329 392
#     4  11  24  46  69  95 136 172 222 277 335 405
#     4  11  26  45  71 100 132 176 219 272 346 417
#
# _framework density 21.234717
#
# number of rings (size 3 to 8) (size 9 to 14) (size 15 to 20)
#    0.000    1.200    4.000    2.400    5.600    0.800 
#    3.600    0.000    0.000    0.000    0.000    0.000 
#    0.000    0.000    0.000    0.000    0.000    0.000 
#
# Total GULP energy -495765.585586 kJ/mol
# GULP energy per Si atom -12394.139640 kJ/mol
# Density = 2.118639 g / cm^3
# Si number density = 21.234717 Si / 1000 Ang^3
#
#
#
# Elastic Constant Matrix: (Units=GPa)
#
#
# Indices 1 2 3 4 5 6 
#
# 1 97.3575 33.2210 36.5128 0.0000 0.0000 0.0000
# 2 33.2210 100.4920 38.6469 0.0000 0.0000 0.0000
# 3 36.5128 38.6469 115.7169 0.0000 0.0000 0.0000
# 4 0.0000 0.0000 0.0000 27.2842 0.0000 0.0000
# 5 0.0000 0.0000 0.0000 0.0000 50.6112 0.0000
# 6 0.0000 0.0000 0.0000 0.0000 0.0000 7.7054
#
#
#
# Elastic Compliance Matrix: (Units=1/GPa)
#
#
# Indices 1 2 3 4 5 6 
#
# 1 0.012378 -0.002972 -0.002913 0.000000 0.000000 0.000000
# 2 -0.002972 0.012131 -0.003114 0.000000 0.000000 0.000000
# 3 -0.002913 -0.003114 0.010601 0.000000 0.000000 0.000000
# 4 0.000000 0.000000 0.000000 0.036651 0.000000 0.000000
# 5 0.000000 0.000000 0.000000 0.000000 0.019758 0.000000
# 6 0.000000 0.000000 0.000000 0.000000 0.000000 0.129779
#
#
# Mechanical properties :
#
#
# Convention : Reuss Voigt Hill
#
# Bulk Modulus (GPa) = 58.43666 58.92530 58.68098
# Shear Modulus (GPa) = 20.40819 30.79921 25.60370
#
# Velocity S-wave (km/s) = 3.10349 3.81257 3.47615
# Velocity P-wave (km/s) = 6.35778 6.86954 6.61861
#
# Compressibility (1/GPa) = 0.01711255
#
# Stress axis : x y z
#
# Youngs Moduli (GPa) = 80.78864 82.43413 94.33113
#
# Poissons Ratio (x) = 0.24496 0.27481
# Poissons Ratio (y) = 0.24007 0.29373
# Poissons Ratio (z) = 0.23536 0.25668
#
# Static dielectric constant tensor:
#      x y z
#    x 3.769520 0.000000 0.000000 
#    y 0.000000 3.766590 0.000000 
#    z 0.000000 0.000000 4.101290 
# 
# 
# High freq. dielectric constant tensor:
#      x y z
#    x 1.829150 0.000000 0.000000 
#    y 0.000000 1.815090 0.000000 
#    z 0.000000 0.000000 1.857960 
# 
# From -- ./inp_files/7717.got.cif
#   From: 2010.03.12/outbox.cif.g09.slc.cpg/sg73_4_cif.got.tgz:7717.got - 2010.04.16 15:25:48.
