data_PCOD8296978
_publ_section_title
;
Structure prediction by ZEFSAII (Michael W. Deem and Ramdas Pophale) SiO2 
 PCOD8296978
Probable space group: I B C A 
;
_chemical_formula_sum "Si O2"
_cell_formula_units_Z 72
_cell_length_a 26.241082
_cell_length_b 24.078754
_cell_length_c 5.001304
_cell_angle_alpha 90.000000
_cell_angle_beta 90.000000
_cell_angle_gamma 90.000000
_cell_volume 3160.086727
_symmetry_space_group_name_H-M "I B C A "
_symmetry_group_IT_number 73
_symmetry_cell_setting 'orthorhombic'
loop_
_space_group_symop_operation_xyz
x,y,z
-x,1/2-y,z
x,-y,1/2-z
1/2-x,y,-z
-x,-y,-z
x,1/2+y,-z
-x,y,1/2+z
1/2+x,-y,z
1/2+x,1/2+y,1/2+z
1/2-x,-y,1/2+z
1/2+x,1/2-y,-z
-x,1/2+y,1/2-z
1/2-x,1/2-y,1/2-z
1/2+x,y,1/2-z
1/2-x,1/2+y,z
x,1/2-y,1/2+z
loop_
_atom_site_type_symbol
_atom_site_label
_atom_site_fract_x
_atom_site_fract_y
_atom_site_fract_z
Si Si1 0.195108 0.888452 0.632476
Si Si2 0.966509 0.134825 0.436960
Si Si3 0.750000 0.961701 0.500000
Si Si4 0.107431 0.037606 0.997471
Si Si5 0.873177 0.213321 0.387154
O O1 0.250000 0.883606 0.500000
O O2 0.155474 0.921850 0.443236
O O3 0.173384 0.827441 0.686554
O O4 0.202707 0.922514 0.910381
O O5 0.941325 0.074170 0.413602
O O6 0.926858 0.182499 0.357206
O O7 0.985732 0.141311 0.739832
O O8 0.768046 0.000000 0.750000
O O9 0.093756 0.000000 0.250000
O O10 0.123009 0.000000 0.750000
O O11 0.868991 0.234648 0.689716
#
# Coordination Sequence:
#
# PCOD8296978 Si02
#       5
#    16  16   8  16  16
#     4  11  28  44  69 101 141 183 238 284 332 410
#     4  11  24  45  71 101 135 173 227 286 343 419
#     4  12  26  42  68 102 136 182 232 278 332 406
#     4  11  26  41  65 101 140 182 224 276 341 410
#     4  11  27  48  71 101 137 177 231 293 353 407
#
# _framework density 22.784185000000001
#
# number of rings (size 3 to 8) (size 9 to 14) (size 15 to 20)
#    0.000    0.889    1.111    3.333    9.333    9.778 
#    0.000    0.000    0.000    0.000    0.000    0.000 
#    0.000    0.000    0.000    0.000    0.000    0.000 
#
# Total GULP energy -446508.974257 kJ/mol
# GULP energy per Si atom -12403.027063 kJ/mol
# Density = 2.273233 g / cm^3
# Si number density = 22.784185 Si / 1000 Ang^3
#
#
#
# Elastic Constant Matrix: (Units=GPa)
#
#
# Indices 1 2 3 4 5 6 
#
# 1 115.6888 55.2310 31.4592 0.0000 0.0000 0.0000
# 2 55.2310 130.8406 36.8947 0.0000 0.0000 0.0000
# 3 31.4592 36.8947 104.5851 0.0000 0.0000 0.0000
# 4 0.0000 0.0000 0.0000 34.3195 0.0000 0.0000
# 5 0.0000 0.0000 0.0000 0.0000 51.1569 0.0000
# 6 0.0000 0.0000 0.0000 0.0000 0.0000 16.2151
#
#
#
# Elastic Compliance Matrix: (Units=1/GPa)
#
#
# Indices 1 2 3 4 5 6 
#
# 1 0.011149 -0.004176 -0.001880 0.000000 0.000000 0.000000
# 2 -0.004176 0.010051 -0.002290 0.000000 0.000000 0.000000
# 3 -0.001880 -0.002290 0.010935 0.000000 0.000000 0.000000
# 4 0.000000 0.000000 0.000000 0.029138 0.000000 0.000000
# 5 0.000000 0.000000 0.000000 0.000000 0.019548 0.000000
# 6 0.000000 0.000000 0.000000 0.000000 0.000000 0.061671
#
#
# Mechanical properties :
#
#
# Convention : Reuss Voigt Hill
#
# Bulk Modulus (GPa) = 64.75428 66.47604 65.61516
# Shear Modulus (GPa) = 30.42628 35.50694 32.96661
#
# Velocity S-wave (km/s) = 3.65829 3.95194 3.80795
# Velocity P-wave (km/s) = 6.80636 7.07556 6.94227
#
# Compressibility (1/GPa) = 0.01544299
#
# Stress axis : x y z
#
# Youngs Moduli (GPa) = 89.69517 99.48940 91.44984
#
# Poissons Ratio (x) = 0.41546 0.17196
# Poissons Ratio (y) = 0.37456 0.20939
# Poissons Ratio (z) = 0.16866 0.22780
#
# Static dielectric constant tensor:
#      x y z
#    x 4.102950 0.000000 0.000000 
#    y 0.000000 4.106570 0.000000 
#    z 0.000000 0.000000 4.023280 
# 
# 
# High freq. dielectric constant tensor:
#      x y z
#    x 1.903910 0.000000 0.000000 
#    y 0.000000 1.908340 0.000000 
#    z 0.000000 0.000000 1.900000 
# 
# From -- ./inp_files/2140.got.cif
#   From: 2010.03.12/outbox.cif.g09.slc.cpg/sg73_2_cif.got.tgz:2140.got - 2010.04.16 15:25:48.
