data_PCOD8296345
_publ_section_title
;
Structure prediction by ZEFSAII (Michael W. Deem and Ramdas Pophale) SiO2 
 PCOD8296345
Probable space group: I B C A 
;
_chemical_formula_sum "Si O2"
_cell_formula_units_Z 56
_cell_length_a 13.337561
_cell_length_b 8.478512
_cell_length_c 22.716408
_cell_angle_alpha 90.000000
_cell_angle_beta 90.000000
_cell_angle_gamma 90.000000
_cell_volume 2568.832092
_symmetry_space_group_name_H-M "I B C A "
_symmetry_group_IT_number 73
_symmetry_cell_setting 'orthorhombic'
loop_
_space_group_symop_operation_xyz
x,y,z
-x,1/2-y,z
x,-y,1/2-z
1/2-x,y,-z
-x,-y,-z
x,1/2+y,-z
-x,y,1/2+z
1/2+x,-y,z
1/2+x,1/2+y,1/2+z
1/2-x,-y,1/2+z
1/2+x,1/2-y,-z
-x,1/2+y,1/2-z
1/2-x,1/2-y,1/2-z
1/2+x,y,1/2-z
1/2-x,1/2+y,z
x,1/2-y,1/2+z
loop_
_atom_site_type_symbol
_atom_site_label
_atom_site_fract_x
_atom_site_fract_y
_atom_site_fract_z
Si Si1 0.979913 0.000000 0.750000
Si Si2 0.378798 0.115276 0.341291
Si Si3 0.015253 0.565084 0.564584
Si Si4 0.664912 0.520618 0.650550
O O1 0.055542 0.876533 0.781355
O O2 0.906306 0.067132 0.800937
O O3 0.349599 0.292907 0.353591
O O4 0.441849 0.034772 0.393330
O O5 0.278944 0.012922 0.333632
O O6 0.130251 0.541961 0.586526
O O7 0.000000 0.750000 0.566312
O O8 0.000000 0.500000 0.500000
#
# Coordination Sequence:
#
# PCOD8296345 Si02
#       4
#     8  16  16  16
#     4  10  22  38  62  88 124 162 200 248 300 356
#     4  11  24  41  63  92 125 162 206 252 304 363
#     4  11  23  42  66  91 123 160 203 253 307 363
#     4  11  24  41  63  92 125 162 206 252 304 363
#
# _framework density 21.799790000000002
#
# number of rings (size 3 to 8) (size 9 to 14) (size 15 to 20)
#    0.000    1.143    0.000    7.714    0.000   17.143 
#    0.000    5.714    0.000    0.000    0.000    0.000 
#    0.000    0.000    0.000    0.000    0.000    0.000 
#
# Total GULP energy -346929.318873 kJ/mol
# GULP energy per Si atom -12390.332817 kJ/mol
# Density = 2.175017 g / cm^3
# Si number density = 21.799790 Si / 1000 Ang^3
#
#
#
# Elastic Constant Matrix: (Units=GPa)
#
#
# Indices 1 2 3 4 5 6 
#
# 1 149.7498 33.4131 57.1876 0.0000 0.0000 0.0000
# 2 33.4131 146.3346 42.9296 0.0000 0.0000 0.0000
# 3 57.1876 42.9296 140.9212 0.0000 0.0000 0.0000
# 4 0.0000 0.0000 0.0000 24.1017 0.0000 0.0000
# 5 0.0000 0.0000 0.0000 0.0000 17.6061 0.0000
# 6 0.0000 0.0000 0.0000 0.0000 0.0000 39.2703
#
#
#
# Elastic Compliance Matrix: (Units=1/GPa)
#
#
# Indices 1 2 3 4 5 6 
#
# 1 0.008024 -0.000963 -0.002963 0.000000 0.000000 0.000000
# 2 -0.000963 0.007620 -0.001931 0.000000 0.000000 0.000000
# 3 -0.002963 -0.001931 0.008887 0.000000 0.000000 0.000000
# 4 0.000000 0.000000 0.000000 0.041491 0.000000 0.000000
# 5 0.000000 0.000000 0.000000 0.000000 0.056799 0.000000
# 6 0.000000 0.000000 0.000000 0.000000 0.000000 0.025465
#
#
# Mechanical properties :
#
#
# Convention : Reuss Voigt Hill
#
# Bulk Modulus (GPa) = 78.01601 78.22957 78.12279
# Shear Modulus (GPa) = 30.43768 36.42730 33.43249
#
# Velocity S-wave (km/s) = 3.74068 4.09221 3.92039
# Velocity P-wave (km/s) = 7.38391 7.63490 7.51045
#
# Compressibility (1/GPa) = 0.01281788
#
# Stress axis : x y z
#
# Youngs Moduli (GPa) = 124.62326 131.23575 112.52806
#
# Poissons Ratio (x) = 0.12637 0.33342
# Poissons Ratio (y) = 0.12001 0.21724
# Poissons Ratio (z) = 0.36925 0.25335
#
# Static dielectric constant tensor:
#      x y z
#    x 4.546670 0.000000 0.000000 
#    y 0.000000 3.865830 0.000000 
#    z 0.000000 0.000000 4.187870 
# 
# 
# High freq. dielectric constant tensor:
#      x y z
#    x 1.871730 0.000000 0.000000 
#    y 0.000000 1.862630 0.000000 
#    z 0.000000 0.000000 1.857180 
# 
# From -- ./inp_files/4443.got.cif
#   From: 2010.03.12/outbox.cif.g09.slc.cpg/sg73_3_cif.got.tgz:4443.got - 2010.04.16 15:25:48.
