data_PCOD8296932
_publ_section_title
;
Structure prediction by ZEFSAII (Michael W. Deem and Ramdas Pophale) SiO2 
 PCOD8296932
Probable space group: I B C A 
;
_chemical_formula_sum "Si O2"
_cell_formula_units_Z 80
_cell_length_a 8.496049
_cell_length_b 23.730710
_cell_length_c 17.845750
_cell_angle_alpha 90.000000
_cell_angle_beta 90.000000
_cell_angle_gamma 90.000000
_cell_volume 3598.011485
_symmetry_space_group_name_H-M "I B C A "
_symmetry_group_IT_number 73
_symmetry_cell_setting 'orthorhombic'
loop_
_space_group_symop_operation_xyz
x,y,z
-x,1/2-y,z
x,-y,1/2-z
1/2-x,y,-z
-x,-y,-z
x,1/2+y,-z
-x,y,1/2+z
1/2+x,-y,z
1/2+x,1/2+y,1/2+z
1/2-x,-y,1/2+z
1/2+x,1/2-y,-z
-x,1/2+y,1/2-z
1/2-x,1/2-y,1/2-z
1/2+x,y,1/2-z
1/2-x,1/2+y,z
x,1/2-y,1/2+z
loop_
_atom_site_type_symbol
_atom_site_label
_atom_site_fract_x
_atom_site_fract_y
_atom_site_fract_z
Si Si1 0.241334 0.066383 0.587794
Si Si2 0.180251 0.171293 0.331553
Si Si3 0.680399 0.268369 0.918583
Si Si4 0.681530 0.859942 0.828028
Si Si5 0.451233 0.478332 0.666868
O O1 0.250000 0.057935 0.500000
O O2 0.227264 0.132151 0.608119
O O3 0.389498 0.044771 0.633628
O O4 0.093186 0.031131 0.615732
O O5 0.223922 0.234420 0.354943
O O6 0.240362 0.156981 0.249595
O O7 0.993515 0.164485 0.334889
O O8 0.500000 0.250000 0.917208
O O9 0.709665 0.333710 0.894657
O O10 0.750000 0.256487 0.000000
O O11 0.679106 0.928113 0.834882
O O12 0.482243 0.500000 0.750000
#
# Coordination Sequence:
#
# PCOD8296932 Si02
#       5
#    16  16  16  16  16
#     4  11  24  40  66  98 137 180 228 291 349 409
#     4  11  23  43  66  97 136 178 234 280 349 408
#     4  12  26  45  69  99 139 179 224 285 351 415
#     4  11  24  41  69  99 132 185 233 285 339 419
#     4  11  23  42  67  98 136 181 234 286 345 415
#
# _framework density 22.234504000000001
#
# number of rings (size 3 to 8) (size 9 to 14) (size 15 to 20)
#    0.000    0.800    2.000    5.400    2.800    4.000 
#    0.000    0.000    0.000    0.000    0.000    0.000 
#    0.000    0.000    0.000    0.000    0.000    0.000 
#
# Total GULP energy -496109.918621 kJ/mol
# GULP energy per Si atom -12402.747966 kJ/mol
# Density = 2.218390 g / cm^3
# Si number density = 22.234504 Si / 1000 Ang^3
#
#
#
# Elastic Constant Matrix: (Units=GPa)
#
#
# Indices 1 2 3 4 5 6 
#
# 1 75.2536 21.4053 21.0917 -0.0001 0.0000 0.0000
# 2 21.4053 77.7744 21.4257 -0.0002 0.0000 0.0000
# 3 21.0917 21.4257 99.8930 -0.0008 0.0000 0.0000
# 4 -0.0001 -0.0002 -0.0008 4.2627 0.0000 0.0000
# 5 0.0000 0.0000 0.0000 0.0000 21.3533 0.0000
# 6 0.0000 0.0000 0.0000 0.0000 0.0000 32.5180
#
#
#
# Elastic Compliance Matrix: (Units=1/GPa)
#
#
# Indices 1 2 3 4 5 6 
#
# 1 0.014946 -0.003448 -0.002416 0.000000 0.000000 0.000000
# 2 -0.003448 0.014461 -0.002374 0.000000 0.000000 0.000000
# 3 -0.002416 -0.002374 0.011030 0.000002 0.000000 0.000000
# 4 0.000000 0.000000 0.000002 0.234594 0.000000 0.000000
# 5 0.000000 0.000000 0.000000 0.000000 0.046831 0.000000
# 6 0.000000 0.000000 0.000000 0.000000 0.000000 0.030752
#
#
# Mechanical properties :
#
#
# Convention : Reuss Voigt Hill
#
# Bulk Modulus (GPa) = 41.73397 42.30737 42.02067
# Shear Modulus (GPa) = 13.25991 24.22668 18.74330
#
# Velocity S-wave (km/s) = 2.44471 3.30449 2.90657
# Velocity P-wave (km/s) = 5.17489 5.79902 5.49582
#
# Compressibility (1/GPa) = 0.02396130
#
# Stress axis : x y z
#
# Youngs Moduli (GPa) = 66.90591 69.15376 90.66185
#
# Poissons Ratio (x) = 0.23844 0.21906
# Poissons Ratio (y) = 0.23069 0.21519
# Poissons Ratio (z) = 0.16166 0.16414
#
# Static dielectric constant tensor:
#      x y z
#    x 3.992990 0.000000 0.000000 
#    y 0.000000 4.781900 0.000000 
#    z 0.000000 0.000000 4.056290 
# 
# 
# High freq. dielectric constant tensor:
#      x y z
#    x 1.877740 0.000000 0.000000 
#    y 0.000000 1.894150 0.000000 
#    z 0.000000 0.000000 1.880680 
# 
# From -- ./inp_files/7722.got.cif
#   From: 2010.03.12/outbox.cif.g09.slc.cpg/sg73_4_cif.got.tgz:7722.got - 2010.04.16 15:25:48.
