data_PCOD8296550
_publ_section_title
;
Structure prediction by ZEFSAII (Michael W. Deem and Ramdas Pophale) SiO2 
 PCOD8296550
Probable space group: I B C A 
;
_chemical_formula_sum "Si O2"
_cell_formula_units_Z 72
_cell_length_a 12.947287
_cell_length_b 8.797012
_cell_length_c 28.498369
_cell_angle_alpha 90.000000
_cell_angle_beta 90.000000
_cell_angle_gamma 90.000000
_cell_volume 3245.891248
_symmetry_space_group_name_H-M "I B C A "
_symmetry_group_IT_number 73
_symmetry_cell_setting 'orthorhombic'
loop_
_space_group_symop_operation_xyz
x,y,z
-x,1/2-y,z
x,-y,1/2-z
1/2-x,y,-z
-x,-y,-z
x,1/2+y,-z
-x,y,1/2+z
1/2+x,-y,z
1/2+x,1/2+y,1/2+z
1/2-x,-y,1/2+z
1/2+x,1/2-y,-z
-x,1/2+y,1/2-z
1/2-x,1/2-y,1/2-z
1/2+x,y,1/2-z
1/2-x,1/2+y,z
x,1/2-y,1/2+z
loop_
_atom_site_type_symbol
_atom_site_label
_atom_site_fract_x
_atom_site_fract_y
_atom_site_fract_z
Si Si1 0.694442 0.095736 0.142858
Si Si2 0.250000 0.028247 0.000000
Si Si3 0.880585 0.776773 0.550678
Si Si4 0.597619 0.832883 0.263817
Si Si5 0.619349 0.736477 0.660486
O O1 0.626904 0.192062 0.106190
O O2 0.681142 0.165020 0.195088
O O3 0.817418 0.127055 0.134937
O O4 0.665507 0.920001 0.140301
O O5 0.189251 0.131314 0.962335
O O6 0.336132 0.926504 0.974658
O O7 0.000000 0.750000 0.536385
O O8 0.500000 0.750000 0.286192
O O9 0.635358 0.748893 0.216643
O O10 0.560564 0.000000 0.250000
O O11 0.500000 0.750000 0.645957
#
# Coordination Sequence:
#
# PCOD8296550 Si02
#       5
#    16   8  16  16  16
#     4  11  22  38  62  91 120 159 206 251 296 354
#     4  10  24  44  64  92 124 156 198 248 314 376
#     4  11  23  42  67  93 122 158 200 251 307 365
#     4   9  19  35  56  85 123 165 205 246 294 347
#     4  10  23  40  58  88 129 166 202 246 295 348
#
# _framework density 22.181888000000001
#
# number of rings (size 3 to 8) (size 9 to 14) (size 15 to 20)
#    0.000    1.778    0.000    3.333    0.000    8.889 
#    0.000   11.111    0.000    0.000    0.000    0.000 
#    0.000    0.000    0.000    0.000    0.000    0.000 
#
# Total GULP energy -446244.228929 kJ/mol
# GULP energy per Si atom -12395.673026 kJ/mol
# Density = 2.213140 g / cm^3
# Si number density = 22.181888 Si / 1000 Ang^3
#
#
#
# Elastic Constant Matrix: (Units=GPa)
#
#
# Indices 1 2 3 4 5 6 
#
# 1 169.3985 84.7412 45.3776 0.0000 0.0000 0.0000
# 2 84.7412 113.0188 46.5275 0.0000 0.0000 0.0000
# 3 45.3776 46.5275 68.4285 0.0000 0.0000 0.0000
# 4 0.0000 0.0000 0.0000 22.6013 0.0000 0.0000
# 5 0.0000 0.0000 0.0000 0.0000 21.4311 0.0000
# 6 0.0000 0.0000 0.0000 0.0000 0.0000 42.1308
#
#
#
# Elastic Compliance Matrix: (Units=1/GPa)
#
#
# Indices 1 2 3 4 5 6 
#
# 1 0.009650 -0.006390 -0.002055 0.000000 0.000000 0.000000
# 2 -0.006390 0.016519 -0.006994 0.000000 0.000000 0.000000
# 3 -0.002055 -0.006994 0.020732 0.000000 0.000000 0.000000
# 4 0.000000 0.000000 0.000000 0.044245 0.000000 0.000000
# 5 0.000000 0.000000 0.000000 0.000000 0.046661 0.000000
# 6 0.000000 0.000000 0.000000 0.000000 0.000000 0.023736
#
#
# Mechanical properties :
#
#
# Convention : Reuss Voigt Hill
#
# Bulk Modulus (GPa) = 62.40978 78.23759 70.32368
# Shear Modulus (GPa) = 25.28299 28.84594 27.06446
#
# Velocity S-wave (km/s) = 3.37976 3.61006 3.49680
# Velocity P-wave (km/s) = 6.58991 7.26114 6.93365
#
# Compressibility (1/GPa) = 0.01602313
#
# Stress axis : x y z
#
# Youngs Moduli (GPa) = 103.62592 60.53809 48.23433
#
# Poissons Ratio (x) = 0.38682 0.09911
# Poissons Ratio (y) = 0.66214 0.33737
# Poissons Ratio (z) = 0.21292 0.42343
#
# Static dielectric constant tensor:
#      x y z
#    x 3.964140 0.000000 0.000000 
#    y 0.000000 3.981190 0.000000 
#    z 0.000000 0.000000 4.001200 
# 
# 
# High freq. dielectric constant tensor:
#      x y z
#    x 1.877810 0.000000 0.000000 
#    y 0.000000 1.874580 0.000000 
#    z 0.000000 0.000000 1.866060 
# 
# From -- ./inp_files/32040.got.cif
#   From: 2010.03.12/outbox.cif.g09.slc.cpg/sg73_17_cif.got.tgz:32040.got - 2010.04.16 15:25:48.
