data_PCOD8296208
_publ_section_title
;
Structure prediction by ZEFSAII (Michael W. Deem and Ramdas Pophale) SiO2 
 PCOD8296208
Probable space group: I B C A 
;
_chemical_formula_sum "Si O2"
_cell_formula_units_Z 96
_cell_length_a 9.283688
_cell_length_b 18.418368
_cell_length_c 26.852939
_cell_angle_alpha 90.000000
_cell_angle_beta 90.000000
_cell_angle_gamma 90.000000
_cell_volume 4591.594297
_symmetry_space_group_name_H-M "I B C A "
_symmetry_group_IT_number 73
_symmetry_cell_setting 'orthorhombic'
loop_
_space_group_symop_operation_xyz
x,y,z
-x,1/2-y,z
x,-y,1/2-z
1/2-x,y,-z
-x,-y,-z
x,1/2+y,-z
-x,y,1/2+z
1/2+x,-y,z
1/2+x,1/2+y,1/2+z
1/2-x,-y,1/2+z
1/2+x,1/2-y,-z
-x,1/2+y,1/2-z
1/2-x,1/2-y,1/2-z
1/2+x,y,1/2-z
1/2-x,1/2+y,z
x,1/2-y,1/2+z
loop_
_atom_site_type_symbol
_atom_site_label
_atom_site_fract_x
_atom_site_fract_y
_atom_site_fract_z
Si Si1 0.544958 0.365330 0.380581
Si Si2 0.083801 0.929185 0.987910
Si Si3 0.399268 0.808570 0.474220
Si Si4 0.763772 0.270985 0.120874
Si Si5 0.294269 0.674954 0.775300
Si Si6 0.522677 0.079747 0.274999
O O1 0.571182 0.411928 0.429667
O O2 0.679528 0.311185 0.370731
O O3 0.399979 0.321264 0.391395
O O4 0.529171 0.419324 0.332900
O O5 0.250000 0.935155 0.000000
O O6 0.004752 0.876427 0.026957
O O7 0.000000 0.000000 0.000000
O O8 0.500000 0.750000 0.503610
O O9 0.250000 0.828087 0.500000
O O10 0.358172 0.774501 0.421213
O O11 0.681491 0.303470 0.167865
O O12 0.250000 0.750000 0.750000
O O13 0.441037 0.644036 0.753641
O O14 0.185521 0.607013 0.770353
O O15 0.504746 0.000000 0.250000
#
# Coordination Sequence:
#
# PCOD8296208 Si02
#       6
#    16  16  16  16  16  16
#     4  10  21  44  68  94 137 181 224 279 357 414
#     4  12  27  47  67  97 140 183 225 283 351 420
#     4  12  23  40  68 101 133 172 234 287 336 411
#     4  10  21  39  71  99 128 180 228 283 343 411
#     4  11  22  43  69  97 138 179 235 288 350 425
#     4  11  24  43  67 102 138 183 229 293 357 423
#
# _framework density 20.907772000000001
#
# number of rings (size 3 to 8) (size 9 to 14) (size 15 to 20)
#    0.000    1.000    3.333    4.000    0.000    2.667 
#    9.000    0.000    0.000    0.000    0.000    0.000 
#    0.000    0.000    0.000    0.000    0.000    0.000 
#
# Total GULP energy -594848.854443 kJ/mol
# GULP energy per Si atom -12392.684468 kJ/mol
# Density = 2.086019 g / cm^3
# Si number density = 20.907772 Si / 1000 Ang^3
#
#
#
# Elastic Constant Matrix: (Units=GPa)
#
#
# Indices 1 2 3 4 5 6 
#
# 1 99.5099 32.0763 30.7699 0.0000 0.0000 0.0000
# 2 32.0763 133.9282 37.1322 0.0000 0.0000 0.0000
# 3 30.7699 37.1322 109.2598 0.0000 0.0000 0.0000
# 4 0.0000 0.0000 0.0000 39.1178 0.0000 0.0000
# 5 0.0000 0.0000 0.0000 0.0000 32.9610 0.0000
# 6 0.0000 0.0000 0.0000 0.0000 0.0000 35.7646
#
#
#
# Elastic Compliance Matrix: (Units=1/GPa)
#
#
# Indices 1 2 3 4 5 6 
#
# 1 0.011495 -0.002049 -0.002541 0.000000 0.000000 0.000000
# 2 -0.002049 0.008609 -0.002349 0.000000 0.000000 0.000000
# 3 -0.002541 -0.002349 0.010666 0.000000 0.000000 0.000000
# 4 0.000000 0.000000 0.000000 0.025564 0.000000 0.000000
# 5 0.000000 0.000000 0.000000 0.000000 0.030339 0.000000
# 6 0.000000 0.000000 0.000000 0.000000 0.000000 0.027961
#
#
# Mechanical properties :
#
#
# Convention : Reuss Voigt Hill
#
# Bulk Modulus (GPa) = 59.19489 60.29497 59.74493
# Shear Modulus (GPa) = 37.27408 37.74999 37.51203
#
# Velocity S-wave (km/s) = 4.22689 4.25378 4.24036
# Velocity P-wave (km/s) = 7.22467 7.28199 7.25339
#
# Compressibility (1/GPa) = 0.01689335
#
# Stress axis : x y z
#
# Youngs Moduli (GPa) = 86.99153 116.16386 93.75292
#
# Poissons Ratio (x) = 0.23798 0.23824
# Poissons Ratio (y) = 0.17822 0.22020
# Poissons Ratio (z) = 0.22105 0.27283
#
# Static dielectric constant tensor:
#      x y z
#    x 3.826590 0.000000 0.000000 
#    y 0.000000 3.680900 0.000000 
#    z 0.000000 0.000000 4.103580 
# 
# 
# High freq. dielectric constant tensor:
#      x y z
#    x 1.830220 0.000000 0.000000 
#    y 0.000000 1.815480 0.000000 
#    z 0.000000 0.000000 1.827300 
# 
# From -- ./inp_files/31171.got.cif
#   From: 2010.03.12/outbox.cif.g09.slc.cpg/sg73_16_cif.got.tgz:31171.got - 2010.04.16 15:25:48.
