data_PCOD8296036
_publ_section_title
;
Structure prediction by ZEFSAII (Michael W. Deem and Ramdas Pophale) SiO2 
 PCOD8296036
Probable space group: I B C A 
;
_chemical_formula_sum "Si O2"
_cell_formula_units_Z 96
_cell_length_a 24.539034
_cell_length_b 9.514543
_cell_length_c 21.238054
_cell_angle_alpha 90.000000
_cell_angle_beta 90.000000
_cell_angle_gamma 90.000000
_cell_volume 4958.611877
_symmetry_space_group_name_H-M "I B C A "
_symmetry_group_IT_number 73
_symmetry_cell_setting 'orthorhombic'
loop_
_space_group_symop_operation_xyz
x,y,z
-x,1/2-y,z
x,-y,1/2-z
1/2-x,y,-z
-x,-y,-z
x,1/2+y,-z
-x,y,1/2+z
1/2+x,-y,z
1/2+x,1/2+y,1/2+z
1/2-x,-y,1/2+z
1/2+x,1/2-y,-z
-x,1/2+y,1/2-z
1/2-x,1/2-y,1/2-z
1/2+x,y,1/2-z
1/2-x,1/2+y,z
x,1/2-y,1/2+z
loop_
_atom_site_type_symbol
_atom_site_label
_atom_site_fract_x
_atom_site_fract_y
_atom_site_fract_z
Si Si1 0.870393 0.031841 0.078508
Si Si2 0.788741 0.740009 0.390839
Si Si3 0.665091 0.747121 0.870149
Si Si4 0.936916 0.763557 0.858079
Si Si5 0.654148 0.837339 0.233577
Si Si6 0.128002 0.026669 0.064298
O O1 0.812251 0.106550 0.091393
O O2 0.917846 0.114563 0.114362
O O3 0.870676 0.875016 0.104826
O O4 0.884262 0.029446 0.004823
O O5 0.724551 0.743459 0.401994
O O6 0.800883 0.702372 0.318352
O O7 0.817827 0.624571 0.435537
O O8 0.667217 0.755795 0.794691
O O9 0.635846 0.603636 0.889232
O O10 0.905734 0.799840 0.793155
O O11 0.000000 0.750000 0.842745
O O12 0.923287 0.884051 0.909624
O O13 0.659040 0.000000 0.250000
#
# Coordination Sequence:
#
# PCOD8296036 Si02
#       6
#    16  16  16  16  16  16
#     4  10  23  37  58  93 118 152 203 245 286 354
#     4  10  22  35  57  88 126 163 189 231 291 353
#     4  12  20  36  61  87 120 161 200 233 289 361
#     4  10  23  45  63  82 117 156 198 260 316 345
#     4  10  20  41  59  84 118 158 197 250 297 350
#     4  10  21  40  59  85 126 156 190 244 293 351
#
# _framework density 19.360257000000001
#
# number of rings (size 3 to 8) (size 9 to 14) (size 15 to 20)
#    0.000    2.000    3.333    3.500    0.000    7.333 
#    3.000    0.833    0.000    0.000    0.000    0.000 
#    0.000    0.000    0.000    0.000    0.000    0.000 
#
# Total GULP energy -595278.249427 kJ/mol
# GULP energy per Si atom -12401.630196 kJ/mol
# Density = 1.931619 g / cm^3
# Si number density = 19.360257 Si / 1000 Ang^3
#
#
#
# Elastic Constant Matrix: (Units=GPa)
#
#
# Indices 1 2 3 4 5 6 
#
# 1 72.4877 23.1411 -10.3273 0.0000 0.0000 0.0000
# 2 23.1411 92.3186 9.9407 0.0000 0.0000 0.0000
# 3 -10.3273 9.9407 56.8306 0.0000 0.0000 0.0000
# 4 0.0000 0.0000 0.0000 33.3539 0.0000 0.0000
# 5 0.0000 0.0000 0.0000 0.0000 11.6463 0.0000
# 6 0.0000 0.0000 0.0000 0.0000 0.0000 16.2047
#
#
#
# Elastic Compliance Matrix: (Units=1/GPa)
#
#
# Indices 1 2 3 4 5 6 
#
# 1 0.015689 -0.004321 0.003607 0.000000 0.000000 0.000000
# 2 -0.004321 0.012230 -0.002924 0.000000 0.000000 0.000000
# 3 0.003607 -0.002924 0.018763 0.000000 0.000000 0.000000
# 4 0.000000 0.000000 0.000000 0.029981 0.000000 0.000000
# 5 0.000000 0.000000 0.000000 0.000000 0.085864 0.000000
# 6 0.000000 0.000000 0.000000 0.000000 0.000000 0.061710
#
#
# Mechanical properties :
#
#
# Convention : Reuss Voigt Hill
#
# Bulk Modulus (GPa) = 25.37777 29.68288 27.53032
# Shear Modulus (GPa) = 20.43736 25.49981 22.96858
#
# Velocity S-wave (km/s) = 3.25258 3.63315 3.44812
# Velocity P-wave (km/s) = 5.21942 5.74151 5.48668
#
# Compressibility (1/GPa) = 0.03940457
#
# Stress axis : x y z
#
# Youngs Moduli (GPa) = 63.73997 81.76559 53.29600
#
# Poissons Ratio (x) = 0.35331 -0.19223
# Poissons Ratio (y) = 0.27542 0.15586
# Poissons Ratio (z) = -0.22990 0.23912
#
# Static dielectric constant tensor:
#      x y z
#    x 3.176190 0.000000 0.000000 
#    y 0.000000 3.634740 0.000000 
#    z 0.000000 0.000000 3.642310 
# 
# 
# High freq. dielectric constant tensor:
#      x y z
#    x 1.719840 0.000000 0.000000 
#    y 0.000000 1.768450 0.000000 
#    z 0.000000 0.000000 1.762010 
# 
# From -- ./inp_files/6452.got.cif
#   From: 2010.03.12/outbox.cif.g09.slc.cpg/sg73_4_cif.got.tgz:6452.got - 2010.04.16 15:25:48.
