data_PCOD8296092
_publ_section_title
;
Structure prediction by ZEFSAII (Michael W. Deem and Ramdas Pophale) SiO2 
 PCOD8296092
Probable space group: I B C A 
;
_chemical_formula_sum "Si O2"
_cell_formula_units_Z 96
_cell_length_a 18.346444
_cell_length_b 24.466685
_cell_length_c 10.073473
_cell_angle_alpha 90.000000
_cell_angle_beta 90.000000
_cell_angle_gamma 90.000000
_cell_volume 4521.746977
_symmetry_space_group_name_H-M "I B C A "
_symmetry_group_IT_number 73
_symmetry_cell_setting 'orthorhombic'
loop_
_space_group_symop_operation_xyz
x,y,z
-x,1/2-y,z
x,-y,1/2-z
1/2-x,y,-z
-x,-y,-z
x,1/2+y,-z
-x,y,1/2+z
1/2+x,-y,z
1/2+x,1/2+y,1/2+z
1/2-x,-y,1/2+z
1/2+x,1/2-y,-z
-x,1/2+y,1/2-z
1/2-x,1/2-y,1/2-z
1/2+x,y,1/2-z
1/2-x,1/2+y,z
x,1/2-y,1/2+z
loop_
_atom_site_type_symbol
_atom_site_label
_atom_site_fract_x
_atom_site_fract_y
_atom_site_fract_z
Si Si1 0.001609 0.874438 0.369671
Si Si2 0.861014 0.559582 0.467800
Si Si3 0.692875 0.343382 0.605504
Si Si4 0.462298 0.806920 0.881854
Si Si5 0.232996 0.083579 0.793669
Si Si6 0.134052 0.441215 0.062883
O O1 0.074395 0.905177 0.409675
O O2 0.010015 0.851406 0.222487
O O3 0.985017 0.825363 0.471172
O O4 0.935699 0.916935 0.362397
O O5 0.799846 0.549978 0.355579
O O6 0.828115 0.592832 0.593369
O O7 0.888999 0.499684 0.506669
O O8 0.750000 0.317766 0.500000
O O9 0.626168 0.301388 0.629286
O O10 0.736967 0.357351 0.741006
O O11 0.659381 0.400768 0.553489
O O12 0.500000 0.750000 0.848108
O O13 0.199071 0.050530 0.669154
#
# Coordination Sequence:
#
# PCOD8296092 Si02
#       6
#    16  16  16  16  16  16
#     4  11  23  44  62  96 130 168 221 274 320 387
#     4  11  22  34  62  91 132 177 209 256 311 384
#     4   9  20  39  62  92 129 167 210 264 321 387
#     4  11  23  43  71  91 121 170 219 277 340 384
#     4  10  21  35  56  92 131 170 214 250 305 381
#     4  10  22  35  60  90 134 178 210 252 311 387
#
# _framework density 21.230733000000001
#
# number of rings (size 3 to 8) (size 9 to 14) (size 15 to 20)
#    0.000    1.667    1.667    2.500    9.333    0.000 
#    0.000    1.667    7.333    7.000    0.000    0.000 
#    0.000    0.000    0.000    0.000    0.000    0.000 
#
# Total GULP energy -595256.565704 kJ/mol
# GULP energy per Si atom -12401.178452 kJ/mol
# Density = 2.118241 g / cm^3
# Si number density = 21.230733 Si / 1000 Ang^3
#
#
#
# Elastic Constant Matrix: (Units=GPa)
#
#
# Indices 1 2 3 4 5 6 
#
# 1 108.8871 48.6883 25.8579 0.0000 0.0000 0.0000
# 2 48.6883 76.8848 17.5876 0.0000 0.0000 0.0000
# 3 25.8579 17.5876 76.4568 0.0000 0.0000 0.0000
# 4 0.0000 0.0000 0.0000 21.5135 0.0000 0.0000
# 5 0.0000 0.0000 0.0000 0.0000 34.9590 0.0000
# 6 0.0000 0.0000 0.0000 0.0000 0.0000 22.7954
#
#
#
# Elastic Compliance Matrix: (Units=1/GPa)
#
#
# Indices 1 2 3 4 5 6 
#
# 1 0.013322 -0.007817 -0.002707 0.000000 0.000000 0.000000
# 2 -0.007817 0.018316 -0.001569 0.000000 0.000000 0.000000
# 3 -0.002707 -0.001569 0.014356 0.000000 0.000000 0.000000
# 4 0.000000 0.000000 0.000000 0.046482 0.000000 0.000000
# 5 0.000000 0.000000 0.000000 0.000000 0.028605 0.000000
# 6 0.000000 0.000000 0.000000 0.000000 0.000000 0.043868
#
#
# Mechanical properties :
#
#
# Convention : Reuss Voigt Hill
#
# Bulk Modulus (GPa) = 45.85903 49.61068 47.73485
# Shear Modulus (GPa) = 25.45744 27.19324 26.32534
#
# Velocity S-wave (km/s) = 3.46654 3.58277 3.52513
# Velocity P-wave (km/s) = 6.13756 6.36656 6.25311
#
# Compressibility (1/GPa) = 0.02180596
#
# Stress axis : x y z
#
# Youngs Moduli (GPa) = 75.06308 54.59775 69.65745
#
# Poissons Ratio (x) = 0.42680 0.18859
# Poissons Ratio (y) = 0.58677 0.10933
# Poissons Ratio (z) = 0.20322 0.08569
#
# Static dielectric constant tensor:
#      x y z
#    x 4.224210 0.000000 0.000000 
#    y 0.000000 3.325240 0.000000 
#    z 0.000000 0.000000 4.004180 
# 
# 
# High freq. dielectric constant tensor:
#      x y z
#    x 1.851740 0.000000 0.000000 
#    y 0.000000 1.786220 0.000000 
#    z 0.000000 0.000000 1.845310 
# 
# From -- ./inp_files/12010.got.cif
#   From: 2010.03.12/outbox.cif.g09.slc.cpg/sg73_7_cif.got.tgz:12010.got - 2010.04.16 15:25:48.
