data_PCOD8296548
_publ_section_title
;
Structure prediction by ZEFSAII (Michael W. Deem and Ramdas Pophale) SiO2 
 PCOD8296548
Probable space group: I B C A 
;
_chemical_formula_sum "Si O2"
_cell_formula_units_Z 88
_cell_length_a 8.351459
_cell_length_b 20.473008
_cell_length_c 22.317951
_cell_angle_alpha 90.000000
_cell_angle_beta 90.000000
_cell_angle_gamma 90.000000
_cell_volume 3815.911811
_symmetry_space_group_name_H-M "I B C A "
_symmetry_group_IT_number 73
_symmetry_cell_setting 'orthorhombic'
loop_
_space_group_symop_operation_xyz
x,y,z
-x,1/2-y,z
x,-y,1/2-z
1/2-x,y,-z
-x,-y,-z
x,1/2+y,-z
-x,y,1/2+z
1/2+x,-y,z
1/2+x,1/2+y,1/2+z
1/2-x,-y,1/2+z
1/2+x,1/2-y,-z
-x,1/2+y,1/2-z
1/2-x,1/2-y,1/2-z
1/2+x,y,1/2-z
1/2-x,1/2+y,z
x,1/2-y,1/2+z
loop_
_atom_site_type_symbol
_atom_site_label
_atom_site_fract_x
_atom_site_fract_y
_atom_site_fract_z
Si Si1 0.000000 0.250000 0.760213
Si Si2 0.541041 0.442052 0.954525
Si Si3 0.774083 0.326781 0.683303
Si Si4 0.882382 0.310292 0.549186
Si Si5 0.827809 0.026457 0.382147
Si Si6 0.093784 0.045671 0.302719
O O1 0.060237 0.190634 0.717376
O O2 0.144335 0.270836 0.803293
O O3 0.485731 0.371111 0.977018
O O4 0.426114 0.461004 0.899029
O O5 0.732642 0.439619 0.938131
O O6 0.500000 0.500000 0.000000
O O7 0.800576 0.329945 0.612021
O O8 0.708805 0.393878 0.712811
O O9 0.750000 0.291849 0.500000
O O10 0.000000 0.250000 0.559656
O O11 0.952437 0.073663 0.346668
O O12 0.692076 0.008922 0.336512
O O13 0.020497 0.000000 0.250000
#
# Coordination Sequence:
#
# PCOD8296548 Si02
#       6
#     8  16  16  16  16  16
#     4  10  26  46  78  98 136 208 238 302 372 452
#     4  11  23  45  70 100 140 188 243 298 369 439
#     4  11  25  49  71 105 149 189 253 302 372 447
#     4  12  28  49  74 108 152 194 256 316 373 459
#     4  10  23  39  66 100 136 185 228 293 368 429
#     4  11  24  40  66 107 142 182 234 304 365 433
#
# _framework density 23.061328
#
# number of rings (size 3 to 8) (size 9 to 14) (size 15 to 20)
#    0.000    1.091    2.727    2.182    8.909    2.909 
#    0.000    0.000    0.000    0.000    0.000    0.000 
#    0.000    0.000    0.000    0.000    0.000    0.000 
#
# Total GULP energy -545221.353376 kJ/mol
# GULP energy per Si atom -12391.394395 kJ/mol
# Density = 2.300884 g / cm^3
# Si number density = 23.061328 Si / 1000 Ang^3
#
#
#
# Elastic Constant Matrix: (Units=GPa)
#
#
# Indices 1 2 3 4 5 6 
#
# 1 125.0885 43.4057 36.4757 0.0000 0.0000 0.0000
# 2 43.4057 112.4645 43.6713 0.0000 0.0000 0.0000
# 3 36.4757 43.6713 94.6520 0.0000 0.0000 0.0000
# 4 0.0000 0.0000 0.0000 20.6512 0.0000 0.0000
# 5 0.0000 0.0000 0.0000 0.0000 28.5655 0.0000
# 6 0.0000 0.0000 0.0000 0.0000 0.0000 34.8806
#
#
#
# Elastic Compliance Matrix: (Units=1/GPa)
#
#
# Indices 1 2 3 4 5 6 
#
# 1 0.009673 -0.002785 -0.002443 0.000000 0.000000 0.000000
# 2 -0.002785 0.011634 -0.004295 0.000000 0.000000 0.000000
# 3 -0.002443 -0.004295 0.013488 0.000000 0.000000 0.000000
# 4 0.000000 0.000000 0.000000 0.048423 0.000000 0.000000
# 5 0.000000 0.000000 0.000000 0.000000 0.035007 0.000000
# 6 0.000000 0.000000 0.000000 0.000000 0.000000 0.028669
#
#
# Mechanical properties :
#
#
# Convention : Reuss Voigt Hill
#
# Bulk Modulus (GPa) = 63.48980 64.36782 63.92881
# Shear Modulus (GPa) = 29.20738 30.72961 29.96849
#
# Velocity S-wave (km/s) = 3.56267 3.65433 3.60879
# Velocity P-wave (km/s) = 6.67189 6.76592 6.71907
#
# Compressibility (1/GPa) = 0.01575056
#
# Stress axis : x y z
#
# Youngs Moduli (GPa) = 103.38107 85.95390 74.14039
#
# Poissons Ratio (x) = 0.23936 0.18111
# Poissons Ratio (y) = 0.28789 0.31841
# Poissons Ratio (z) = 0.25254 0.36915
#
# Static dielectric constant tensor:
#      x y z
#    x 4.884400 0.000000 0.000000 
#    y 0.000000 3.968390 0.000000 
#    z 0.000000 0.000000 4.659240 
# 
# 
# High freq. dielectric constant tensor:
#      x y z
#    x 1.931630 0.000000 0.000000 
#    y 0.000000 1.886620 0.000000 
#    z 0.000000 0.000000 1.915420 
# 
# From -- ./inp_files/28338.got.cif
#   From: 2010.03.12/outbox.cif.g09.slc.cpg/sg73_15_cif.got.tgz:28338.got - 2010.04.16 15:25:48.
