data_PCOD8296324
_publ_section_title
;
Structure prediction by ZEFSAII (Michael W. Deem and Ramdas Pophale) SiO2 
 PCOD8296324
Probable space group: I B C A 
;
_chemical_formula_sum "Si O2"
_cell_formula_units_Z 96
_cell_length_a 10.940434
_cell_length_b 20.356971
_cell_length_c 20.710384
_cell_angle_alpha 90.000000
_cell_angle_beta 90.000000
_cell_angle_gamma 90.000000
_cell_volume 4612.494485
_symmetry_space_group_name_H-M "I B C A "
_symmetry_group_IT_number 73
_symmetry_cell_setting 'orthorhombic'
loop_
_space_group_symop_operation_xyz
x,y,z
-x,1/2-y,z
x,-y,1/2-z
1/2-x,y,-z
-x,-y,-z
x,1/2+y,-z
-x,y,1/2+z
1/2+x,-y,z
1/2+x,1/2+y,1/2+z
1/2-x,-y,1/2+z
1/2+x,1/2-y,-z
-x,1/2+y,1/2-z
1/2-x,1/2-y,1/2-z
1/2+x,y,1/2-z
1/2-x,1/2+y,z
x,1/2-y,1/2+z
loop_
_atom_site_type_symbol
_atom_site_label
_atom_site_fract_x
_atom_site_fract_y
_atom_site_fract_z
Si Si1 0.090334 0.570010 0.141476
Si Si2 0.532555 0.000000 0.250000
Si Si3 0.875239 0.209939 0.754291
Si Si4 0.577108 0.316636 0.606439
Si Si5 0.750000 0.639660 0.000000
Si Si6 0.860940 0.097821 0.654405
Si Si7 0.955379 0.452415 0.556229
O O1 0.047291 0.557748 0.215703
O O2 0.219192 0.606001 0.139426
O O3 0.102111 0.498049 0.111253
O O4 0.004320 0.617553 0.098472
O O5 0.618594 0.032156 0.303941
O O6 0.750000 0.250000 0.750000
O O7 0.862769 0.174097 0.823160
O O8 0.896953 0.162130 0.694191
O O9 0.000000 0.250000 0.757079
O O10 0.500000 0.250000 0.599158
O O11 0.683215 0.314671 0.552686
O O12 0.849268 0.595185 0.965436
O O13 0.935767 0.091654 0.587208
O O14 0.000000 0.500000 0.500000
#
# Coordination Sequence:
#
# PCOD8296324 Si02
#       7
#    16   8  16  16   8  16  16
#     4  11  22  42  66  99 140 170 228 283 352 412
#     4  10  22  36  64 104 132 170 220 274 352 410
#     4  11  25  45  71  99 139 180 231 291 351 415
#     4  11  25  48  68  96 139 188 223 289 352 415
#     4  12  26  48  70  96 144 180 238 290 348 432
#     4  11  23  39  68 103 131 179 227 279 349 425
#     4  11  24  43  68 102 134 184 226 290 357 411
#
# _framework density 20.813033999999998
#
# number of rings (size 3 to 8) (size 9 to 14) (size 15 to 20)
#    0.000    1.000    3.333    3.500    4.667    1.333 
#    6.000    0.000    0.000    0.000    0.000    0.000 
#    0.000    0.000    0.000    0.000    0.000    0.000 
#
# Total GULP energy -595154.619414 kJ/mol
# GULP energy per Si atom -12399.054571 kJ/mol
# Density = 2.076566 g / cm^3
# Si number density = 20.813034 Si / 1000 Ang^3
#
#
#
# Elastic Constant Matrix: (Units=GPa)
#
#
# Indices 1 2 3 4 5 6 
#
# 1 135.5857 36.0711 57.4685 0.0000 0.0000 0.0000
# 2 36.0711 83.5726 39.4115 0.0000 0.0000 0.0000
# 3 57.4685 39.4115 122.1283 0.0000 0.0000 0.0000
# 4 0.0000 0.0000 0.0000 42.4656 0.0000 0.0000
# 5 0.0000 0.0000 0.0000 0.0000 35.5966 0.0000
# 6 0.0000 0.0000 0.0000 0.0000 0.0000 29.9335
#
#
#
# Elastic Compliance Matrix: (Units=1/GPa)
#
#
# Indices 1 2 3 4 5 6 
#
# 1 0.009596 -0.002374 -0.003750 0.000000 0.000000 0.000000
# 2 -0.002374 0.014701 -0.003627 0.000000 0.000000 0.000000
# 3 -0.003750 -0.003627 0.011123 0.000000 0.000000 0.000000
# 4 0.000000 0.000000 0.000000 0.023548 0.000000 0.000000
# 5 0.000000 0.000000 0.000000 0.000000 0.028093 0.000000
# 6 0.000000 0.000000 0.000000 0.000000 0.000000 0.033407
#
#
# Mechanical properties :
#
#
# Convention : Reuss Voigt Hill
#
# Bulk Modulus (GPa) = 62.81695 67.46543 65.14119
# Shear Modulus (GPa) = 34.41748 35.48816 34.95282
#
# Velocity S-wave (km/s) = 4.07092 4.13376 4.10246
# Velocity P-wave (km/s) = 7.23489 7.43433 7.33529
#
# Compressibility (1/GPa) = 0.01591927
#
# Stress axis : x y z
#
# Youngs Moduli (GPa) = 104.20839 68.02449 89.90400
#
# Poissons Ratio (x) = 0.16146 0.33710
# Poissons Ratio (y) = 0.24735 0.32609
# Poissons Ratio (z) = 0.39074 0.24673
#
# Static dielectric constant tensor:
#      x y z
#    x 3.845340 0.000000 0.000000 
#    y 0.000000 3.692210 0.000000 
#    z 0.000000 0.000000 4.124190 
# 
# 
# High freq. dielectric constant tensor:
#      x y z
#    x 1.818940 0.000000 0.000000 
#    y 0.000000 1.811710 0.000000 
#    z 0.000000 0.000000 1.824390 
# 
# From -- ./inp_files/25481.got.cif
#   From: 2010.03.12/outbox.cif.g09.slc.cpg/sg73_13_cif.got.tgz:25481.got - 2010.04.16 15:25:48.
