data_PCOD8296783
_publ_section_title
;
Structure prediction by ZEFSAII (Michael W. Deem and Ramdas Pophale) SiO2 
 PCOD8296783
Probable space group: I B C A 
;
_chemical_formula_sum "Si O2"
_cell_formula_units_Z 64
_cell_length_a 25.438097
_cell_length_b 8.502575
_cell_length_c 12.731756
_cell_angle_alpha 90.000000
_cell_angle_beta 90.000000
_cell_angle_gamma 90.000000
_cell_volume 2753.742944
_symmetry_space_group_name_H-M "I B C A "
_symmetry_group_IT_number 73
_symmetry_cell_setting 'orthorhombic'
loop_
_space_group_symop_operation_xyz
x,y,z
-x,1/2-y,z
x,-y,1/2-z
1/2-x,y,-z
-x,-y,-z
x,1/2+y,-z
-x,y,1/2+z
1/2+x,-y,z
1/2+x,1/2+y,1/2+z
1/2-x,-y,1/2+z
1/2+x,1/2-y,-z
-x,1/2+y,1/2-z
1/2-x,1/2-y,1/2-z
1/2+x,y,1/2-z
1/2-x,1/2+y,z
x,1/2-y,1/2+z
loop_
_atom_site_type_symbol
_atom_site_label
_atom_site_fract_x
_atom_site_fract_y
_atom_site_fract_z
Si Si1 0.588218 0.302226 0.117535
Si Si2 0.449817 0.465623 0.427593
Si Si3 0.000000 0.750000 0.760567
Si Si4 0.699090 0.932978 0.859860
Si Si5 0.750000 0.322880 0.500000
O O1 0.537525 0.358609 0.186079
O O2 0.640593 0.372625 0.168458
O O3 0.583090 0.113630 0.113758
O O4 0.588930 0.362776 0.998452
O O5 0.500000 0.500000 0.500000
O O6 0.463596 0.362814 0.327376
O O7 0.729425 0.780133 0.902719
O O8 0.722857 0.000000 0.750000
O O9 0.703713 0.067872 0.950044
#
# Coordination Sequence:
#
# PCOD8296783 Si02
#       5
#    16  16   8  16   8
#     4  12  26  40  68 101 136 183 232 277 336 416
#     4  12  23  43  61  93 142 188 225 275 331 396
#     4  12  24  40  66  92 144 186 230 274 334 406
#     4  11  25  45  78 106 139 183 239 297 367 432
#     4  10  24  52  74 104 142 180 232 312 374 428
#
# _framework density 23.241095999999999
#
# number of rings (size 3 to 8) (size 9 to 14) (size 15 to 20)
#    0.000    0.500    5.000    3.000    3.500    2.000 
#    0.000    7.500    0.000    0.000    0.000    0.000 
#    0.000    0.000    0.000    0.000    0.000    0.000 
#
# Total GULP energy -396636.394392 kJ/mol
# GULP energy per Si atom -12394.887325 kJ/mol
# Density = 2.318820 g / cm^3
# Si number density = 23.241096 Si / 1000 Ang^3
#
#
#
# Elastic Constant Matrix: (Units=GPa)
#
#
# Indices 1 2 3 4 5 6 
#
# 1 96.4378 25.5939 26.5693 0.0000 0.0000 0.0000
# 2 25.5939 125.7565 53.2484 0.0000 0.0000 0.0000
# 3 26.5693 53.2484 131.7314 0.0000 0.0000 0.0000
# 4 0.0000 0.0000 0.0000 51.3899 0.0000 0.0000
# 5 0.0000 0.0000 0.0000 0.0000 29.7025 0.0000
# 6 0.0000 0.0000 0.0000 0.0000 0.0000 27.2678
#
#
#
# Elastic Compliance Matrix: (Units=1/GPa)
#
#
# Indices 1 2 3 4 5 6 
#
# 1 0.011241 -0.001602 -0.001620 0.000000 0.000000 0.000000
# 2 -0.001602 0.009822 -0.003647 0.000000 0.000000 0.000000
# 3 -0.001620 -0.003647 0.009392 0.000000 0.000000 0.000000
# 4 0.000000 0.000000 0.000000 0.019459 0.000000 0.000000
# 5 0.000000 0.000000 0.000000 0.000000 0.033667 0.000000
# 6 0.000000 0.000000 0.000000 0.000000 0.000000 0.036673
#
#
# Mechanical properties :
#
#
# Convention : Reuss Voigt Hill
#
# Bulk Modulus (GPa) = 59.81748 62.74987 61.28367
# Shear Modulus (GPa) = 35.82563 38.23963 37.03263
#
# Velocity S-wave (km/s) = 3.93043 4.06069 3.99609
# Velocity P-wave (km/s) = 6.81112 7.00312 6.90779
#
# Compressibility (1/GPa) = 0.01671752
#
# Stress axis : x y z
#
# Youngs Moduli (GPa) = 88.96210 101.80992 106.47179
#
# Poissons Ratio (x) = 0.16309 0.17245
# Poissons Ratio (y) = 0.14251 0.38833
# Poissons Ratio (z) = 0.14409 0.37133
#
# Static dielectric constant tensor:
#      x y z
#    x 3.836000 0.000000 0.000000 
#    y 0.000000 -2.956400 0.000000 
#    z 0.000000 0.000000 4.598370 
# 
# 
# High freq. dielectric constant tensor:
#      x y z
#    x 1.883490 0.000000 0.000000 
#    y 0.000000 1.935640 0.000000 
#    z 0.000000 0.000000 1.939620 
# 
# From -- ./inp_files/4028.got.cif
#   From: 2010.03.12/outbox.cif.g09.slc.cpg/sg73_3_cif.got.tgz:4028.got - 2010.04.16 15:25:48.
