data_PCOD8296803
_publ_section_title
;
Structure prediction by ZEFSAII (Michael W. Deem and Ramdas Pophale) SiO2 
 PCOD8296803
Probable space group: I B C A 
;
_chemical_formula_sum "Si O2"
_cell_formula_units_Z 120
_cell_length_a 25.575594
_cell_length_b 18.571978
_cell_length_c 11.309401
_cell_angle_alpha 90.000000
_cell_angle_beta 90.000000
_cell_angle_gamma 90.000000
_cell_volume 5371.845246
_symmetry_space_group_name_H-M "I B C A "
_symmetry_group_IT_number 73
_symmetry_cell_setting 'orthorhombic'
loop_
_space_group_symop_operation_xyz
x,y,z
-x,1/2-y,z
x,-y,1/2-z
1/2-x,y,-z
-x,-y,-z
x,1/2+y,-z
-x,y,1/2+z
1/2+x,-y,z
1/2+x,1/2+y,1/2+z
1/2-x,-y,1/2+z
1/2+x,1/2-y,-z
-x,1/2+y,1/2-z
1/2-x,1/2-y,1/2-z
1/2+x,y,1/2-z
1/2-x,1/2+y,z
x,1/2-y,1/2+z
loop_
_atom_site_type_symbol
_atom_site_label
_atom_site_fract_x
_atom_site_fract_y
_atom_site_fract_z
Si Si1 0.103204 0.662292 0.058026
Si Si2 0.476519 0.827038 0.640513
Si Si3 0.750000 0.380262 0.500000
Si Si4 0.567607 0.924905 0.712074
Si Si5 0.354885 0.556631 0.503437
Si Si6 0.602290 0.314117 0.653341
Si Si7 0.210166 0.313642 0.768274
Si Si8 0.195100 0.413438 0.555608
O O1 0.090771 0.621771 0.180128
O O2 0.093867 0.748093 0.064549
O O3 0.062959 0.639291 0.955455
O O4 0.163367 0.646695 0.020038
O O5 0.500000 0.750000 0.605106
O O6 0.525160 0.880214 0.641513
O O7 0.449536 0.825721 0.769394
O O8 0.702387 0.424747 0.444750
O O9 0.778576 0.334328 0.401644
O O10 0.612292 0.950780 0.622037
O O11 0.541061 0.000000 0.750000
O O12 0.382556 0.612536 0.414372
O O13 0.345287 0.480917 0.433731
O O14 0.649738 0.288224 0.739288
O O15 0.250000 0.250000 0.750000
O O16 0.213948 0.381331 0.680875
O O17 0.250000 0.437111 0.500000
#
# Coordination Sequence:
#
# PCOD8296803 Si02
#       8
#    16  16   8  16  16  16  16  16
#     4  12  27  49  74 111 150 197 261 320 388 464
#     4  12  27  48  75 110 148 200 259 320 394 467
#     4  10  26  44  68 104 152 192 248 306 376 444
#     4  12  28  46  76 109 149 198 253 325 391 460
#     4  11  26  48  72 109 148 200 251 317 378 465
#     4  11  26  46  73 105 147 195 257 317 381 461
#     4  11  26  44  72 108 148 196 248 312 377 449
#     4  12  26  48  76 110 153 204 252 312 392 469
#
# _framework density 22.338694
#
# number of rings (size 3 to 8) (size 9 to 14) (size 15 to 20)
#    0.000    0.533    4.667    1.600   12.133    3.733 
#    0.000    0.000    0.000    0.000    0.000    0.000 
#    0.000    0.000    0.000    0.000    0.000    0.000 
#
# Total GULP energy -743722.296166 kJ/mol
# GULP energy per Si atom -12395.371603 kJ/mol
# Density = 2.228785 g / cm^3
# Si number density = 22.338694 Si / 1000 Ang^3
#
#
#
# Elastic Constant Matrix: (Units=GPa)
#
#
# Indices 1 2 3 4 5 6 
#
# 1 115.6713 40.1444 35.7062 0.0000 0.0000 0.0000
# 2 40.1444 138.8606 48.5629 0.0000 0.0000 0.0000
# 3 35.7062 48.5629 96.9605 0.0000 0.0000 0.0000
# 4 0.0000 0.0000 0.0000 27.4388 0.0000 0.0000
# 5 0.0000 0.0000 0.0000 0.0000 41.4710 0.0000
# 6 0.0000 0.0000 0.0000 0.0000 0.0000 41.6298
#
#
#
# Elastic Compliance Matrix: (Units=1/GPa)
#
#
# Indices 1 2 3 4 5 6 
#
# 1 0.010184 -0.001979 -0.002759 0.000000 0.000000 0.000000
# 2 -0.001979 0.009115 -0.003837 0.000000 0.000000 0.000000
# 3 -0.002759 -0.003837 0.013251 0.000000 0.000000 0.000000
# 4 0.000000 0.000000 0.000000 0.036445 0.000000 0.000000
# 5 0.000000 0.000000 0.000000 0.000000 0.024113 0.000000
# 6 0.000000 0.000000 0.000000 0.000000 0.000000 0.024021
#
#
# Mechanical properties :
#
#
# Convention : Reuss Voigt Hill
#
# Bulk Modulus (GPa) = 64.93227 66.70217 65.81722
# Shear Modulus (GPa) = 35.86479 37.24651 36.55565
#
# Velocity S-wave (km/s) = 4.01122 4.08775 4.04967
# Velocity P-wave (km/s) = 7.11220 7.22523 7.16894
#
# Compressibility (1/GPa) = 0.01540066
#
# Stress axis : x y z
#
# Youngs Moduli (GPa) = 98.19586 109.70416 75.46579
#
# Poissons Ratio (x) = 0.21713 0.20820
# Poissons Ratio (y) = 0.19435 0.28953
# Poissons Ratio (z) = 0.27091 0.42089
#
# Static dielectric constant tensor:
#      x y z
#    x 4.093650 0.000000 0.000000 
#    y 0.000000 3.220530 0.000000 
#    z 0.000000 0.000000 3.879020 
# 
# 
# High freq. dielectric constant tensor:
#      x y z
#    x 1.898330 0.000000 0.000000 
#    y 0.000000 1.884360 0.000000 
#    z 0.000000 0.000000 1.876550 
# 
# From -- ./inp_files/12254.got.cif
#   From: 2010.03.12/outbox.cif.g09.slc.cpg/sg73_7_cif.got.tgz:12254.got - 2010.04.16 15:25:48.
