data_PCOD8296270
_publ_section_title
;
Structure prediction by ZEFSAII (Michael W. Deem and Ramdas Pophale) SiO2 
 PCOD8296270
Probable space group: I B C A 
;
_chemical_formula_sum "Si O2"
_cell_formula_units_Z 120
_cell_length_a 12.588938
_cell_length_b 22.827055
_cell_length_c 18.963045
_cell_angle_alpha 90.000000
_cell_angle_beta 90.000000
_cell_angle_gamma 90.000000
_cell_volume 5449.379524
_symmetry_space_group_name_H-M "I B C A "
_symmetry_group_IT_number 73
_symmetry_cell_setting 'orthorhombic'
loop_
_space_group_symop_operation_xyz
x,y,z
-x,1/2-y,z
x,-y,1/2-z
1/2-x,y,-z
-x,-y,-z
x,1/2+y,-z
-x,y,1/2+z
1/2+x,-y,z
1/2+x,1/2+y,1/2+z
1/2-x,-y,1/2+z
1/2+x,1/2-y,-z
-x,1/2+y,1/2-z
1/2-x,1/2-y,1/2-z
1/2+x,y,1/2-z
1/2-x,1/2+y,z
x,1/2-y,1/2+z
loop_
_atom_site_type_symbol
_atom_site_label
_atom_site_fract_x
_atom_site_fract_y
_atom_site_fract_z
Si Si1 0.750000 0.691336 0.500000
Si Si2 0.057701 0.874848 0.434873
Si Si3 0.332367 0.272145 0.113559
Si Si4 0.290171 0.051711 0.659684
Si Si5 0.035064 0.386454 0.916153
Si Si6 0.375050 0.660320 0.809748
Si Si7 0.186262 0.576396 0.816813
Si Si8 0.367081 0.346443 0.848638
O O1 0.829616 0.654760 0.451214
O O2 0.825606 0.730632 0.546623
O O3 0.084700 0.918730 0.369556
O O4 0.013061 0.902620 0.507272
O O5 0.962196 0.834728 0.404121
O O6 0.409313 0.323203 0.088529
O O7 0.381086 0.229799 0.173407
O O8 0.219526 0.295898 0.140047
O O9 0.380930 0.062645 0.601146
O O10 0.344272 0.070579 0.734268
O O11 0.186464 0.089738 0.640245
O O12 0.254355 0.983860 0.660102
O O13 0.942989 0.382872 0.858624
O O14 0.256897 0.634925 0.820785
O O15 0.414945 0.655773 0.729725
#
# Coordination Sequence:
#
# PCOD8296270 Si02
#       8
#     8  16  16  16  16  16  16  16
#     4  12  24  42  62  90 132 170 208 256 320 392
#     4  12  23  41  63  96 124 170 216 261 317 395
#     4  11  22  41  61  90 131 170 210 267 326 383
#     4   9  22  43  65  93 127 171 208 279 326 378
#     4  11  23  39  63  91 131 171 213 260 333 389
#     4  11  21  41  63  92 126 168 214 270 324 389
#     4  10  21  42  67  91 130 165 220 266 327 386
#     4  10  24  40  64  94 123 164 220 266 322 388
#
# _framework density 22.020855000000001
#
# number of rings (size 3 to 8) (size 9 to 14) (size 15 to 20)
#    0.000    1.333    2.667    2.400    0.000    4.800 
#    4.800    5.333    0.000    0.000    0.000    0.000 
#    0.000    0.000    0.000    0.000    0.000    0.000 
#
# Total GULP energy -743591.291633 kJ/mol
# GULP energy per Si atom -12393.188194 kJ/mol
# Density = 2.197073 g / cm^3
# Si number density = 22.020855 Si / 1000 Ang^3
#
#
#
# Elastic Constant Matrix: (Units=GPa)
#
#
# Indices 1 2 3 4 5 6 
#
# 1 75.1838 8.6983 40.8513 0.0000 0.0000 0.0000
# 2 8.6983 69.3244 -1.2282 0.0000 0.0000 0.0000
# 3 40.8513 -1.2282 120.4980 0.0000 0.0000 0.0000
# 4 0.0000 0.0000 0.0000 27.5408 0.0000 0.0000
# 5 0.0000 0.0000 0.0000 0.0000 47.9895 0.0000
# 6 0.0000 0.0000 0.0000 0.0000 0.0000 17.1170
#
#
#
# Elastic Compliance Matrix: (Units=1/GPa)
#
#
# Indices 1 2 3 4 5 6 
#
# 1 0.016629 -0.002187 -0.005660 0.000000 0.000000 0.000000
# 2 -0.002187 0.014715 0.000891 0.000000 0.000000 0.000000
# 3 -0.005660 0.000891 0.010227 0.000000 0.000000 0.000000
# 4 0.000000 0.000000 0.000000 0.036310 0.000000 0.000000
# 5 0.000000 0.000000 0.000000 0.000000 0.020838 0.000000
# 6 0.000000 0.000000 0.000000 0.000000 0.000000 0.058422
#
#
# Mechanical properties :
#
#
# Convention : Reuss Voigt Hill
#
# Bulk Modulus (GPa) = 36.15282 40.18322 38.16802
# Shear Modulus (GPa) = 27.73605 32.97510 30.35558
#
# Velocity S-wave (km/s) = 3.55284 3.87389 3.71683
# Velocity P-wave (km/s) = 5.76918 6.18844 5.98248
#
# Compressibility (1/GPa) = 0.02766036
#
# Stress axis : x y z
#
# Youngs Moduli (GPa) = 60.13577 67.95735 97.78232
#
# Poissons Ratio (x) = 0.14861 0.55344
# Poissons Ratio (y) = 0.13150 -0.08716
# Poissons Ratio (z) = 0.34036 -0.06057
#
# Static dielectric constant tensor:
#      x y z
#    x 3.772680 0.000000 0.000000 
#    y 0.000000 3.857470 0.000000 
#    z 0.000000 0.000000 4.145680 
# 
# 
# High freq. dielectric constant tensor:
#      x y z
#    x 1.860660 0.000000 0.000000 
#    y 0.000000 1.848460 0.000000 
#    z 0.000000 0.000000 1.881590 
# 
# From -- ./inp_files/25628.got.cif
#   From: 2010.03.12/outbox.cif.g09.slc.cpg/sg73_13_cif.got.tgz:25628.got - 2010.04.16 15:25:48.
