data_PCOD8296181
_publ_section_title
;
Structure prediction by ZEFSAII (Michael W. Deem and Ramdas Pophale) SiO2 
 PCOD8296181
Probable space group: I B C A 
;
_chemical_formula_sum "Si O2"
_cell_formula_units_Z 48
_cell_length_a 9.894777
_cell_length_b 13.803370
_cell_length_c 16.458763
_cell_angle_alpha 90.000000
_cell_angle_beta 90.000000
_cell_angle_gamma 90.000000
_cell_volume 2247.958720
_symmetry_space_group_name_H-M "I B C A "
_symmetry_group_IT_number 73
_symmetry_cell_setting 'orthorhombic'
loop_
_space_group_symop_operation_xyz
x,y,z
-x,1/2-y,z
x,-y,1/2-z
1/2-x,y,-z
-x,-y,-z
x,1/2+y,-z
-x,y,1/2+z
1/2+x,-y,z
1/2+x,1/2+y,1/2+z
1/2-x,-y,1/2+z
1/2+x,1/2-y,-z
-x,1/2+y,1/2-z
1/2-x,1/2-y,1/2-z
1/2+x,y,1/2-z
1/2-x,1/2+y,z
x,1/2-y,1/2+z
loop_
_atom_site_type_symbol
_atom_site_label
_atom_site_fract_x
_atom_site_fract_y
_atom_site_fract_z
Si Si1 0.624680 0.910316 0.056312
Si Si2 0.707722 0.222587 0.660188
Si Si3 0.963014 0.387445 0.402948
O O1 0.662340 0.822895 0.116074
O O2 0.576429 0.000717 0.111760
O O3 0.750000 0.943668 0.000000
O O4 0.505591 0.873953 0.997164
O O5 0.750000 0.250000 0.750000
O O6 0.666103 0.319649 0.612284
O O7 0.584180 0.144883 0.657941
#
# Coordination Sequence:
#
# PCOD8296181 Si02
#       3
#    16  16  16
#     4   9  19  39  66  89 115 154 200 249 292 352
#     4  10  21  39  61  90 124 155 192 246 306 358
#     4   9  20  40  61  88 117 154 203 242 294 355
#
# _framework density 21.352706000000001
#
# number of rings (size 3 to 8) (size 9 to 14) (size 15 to 20)
#    0.000    2.667    0.000    0.000    0.000    8.000 
#    0.000   50.000    0.000    0.000    0.000    0.000 
#    0.000    0.000    0.000    0.000    0.000    0.000 
#
# Total GULP energy -297563.876972 kJ/mol
# GULP energy per Si atom -12398.494874 kJ/mol
# Density = 2.130411 g / cm^3
# Si number density = 21.352706 Si / 1000 Ang^3
#
#
#
# Elastic Constant Matrix: (Units=GPa)
#
#
# Indices 1 2 3 4 5 6 
#
# 1 69.4322 70.5838 66.8776 0.0000 0.0000 0.0000
# 2 70.5838 147.7400 104.7705 0.0000 0.0000 0.0000
# 3 66.8776 104.7705 131.8556 0.0000 0.0000 0.0000
# 4 0.0000 0.0000 0.0000 26.5308 0.0000 0.0000
# 5 0.0000 0.0000 0.0000 0.0000 35.9319 0.0000
# 6 0.0000 0.0000 0.0000 0.0000 0.0000 51.6647
#
#
#
# Elastic Compliance Matrix: (Units=1/GPa)
#
#
# Indices 1 2 3 4 5 6 
#
# 1 0.032475 -0.008784 -0.009492 0.000000 0.000000 0.000000
# 2 -0.008784 0.017882 -0.009754 0.000000 0.000000 0.000000
# 3 -0.009492 -0.009754 0.020148 0.000000 0.000000 0.000000
# 4 0.000000 0.000000 0.000000 0.037692 0.000000 0.000000
# 5 0.000000 0.000000 0.000000 0.000000 0.027830 0.000000
# 6 0.000000 0.000000 0.000000 0.000000 0.000000 0.019356
#
#
# Mechanical properties :
#
#
# Convention : Reuss Voigt Hill
#
# Bulk Modulus (GPa) = 69.22027 92.61018 80.91523
# Shear Modulus (GPa) = 23.12071 29.94522 26.53296
#
# Velocity S-wave (km/s) = 3.29416 3.74894 3.52888
# Velocity P-wave (km/s) = 6.85249 7.88703 7.38789
#
# Compressibility (1/GPa) = 0.01444663
#
# Stress axis : x y z
#
# Youngs Moduli (GPa) = 30.79338 55.92222 49.63214
#
# Poissons Ratio (x) = 0.49122 0.47109
# Poissons Ratio (y) = 0.27049 0.48409
# Poissons Ratio (z) = 0.29228 0.54544
#
# Static dielectric constant tensor:
#      x y z
#    x 3.952010 0.000000 0.000000 
#    y 0.000000 3.981550 0.000000 
#    z 0.000000 0.000000 3.565830 
# 
# 
# High freq. dielectric constant tensor:
#      x y z
#    x 1.836370 0.000000 0.000000 
#    y 0.000000 1.842590 0.000000 
#    z 0.000000 0.000000 1.809720 
# 
# From -- ./inp_files/4297.got.cif
#   From: 2010.03.12/outbox.cif.g09.slc.cpg/sg73_3_cif.got.tgz:4297.got - 2010.04.16 15:25:48.
