data_PCOD8296141
_publ_section_title
;
Structure prediction by ZEFSAII (Michael W. Deem and Ramdas Pophale) SiO2 
 PCOD8296141
Probable space group: I B C A 
;
_chemical_formula_sum "Si O2"
_cell_formula_units_Z 120
_cell_length_a 19.813228
_cell_length_b 20.253051
_cell_length_c 14.329772
_cell_angle_alpha 90.000000
_cell_angle_beta 90.000000
_cell_angle_gamma 90.000000
_cell_volume 5750.226793
_symmetry_space_group_name_H-M "I B C A "
_symmetry_group_IT_number 73
_symmetry_cell_setting 'orthorhombic'
loop_
_space_group_symop_operation_xyz
x,y,z
-x,1/2-y,z
x,-y,1/2-z
1/2-x,y,-z
-x,-y,-z
x,1/2+y,-z
-x,y,1/2+z
1/2+x,-y,z
1/2+x,1/2+y,1/2+z
1/2-x,-y,1/2+z
1/2+x,1/2-y,-z
-x,1/2+y,1/2-z
1/2-x,1/2-y,1/2-z
1/2+x,y,1/2-z
1/2-x,1/2+y,z
x,1/2-y,1/2+z
loop_
_atom_site_type_symbol
_atom_site_label
_atom_site_fract_x
_atom_site_fract_y
_atom_site_fract_z
Si Si1 0.233008 0.505755 0.391811
Si Si2 0.380923 0.349467 0.205999
Si Si3 0.750000 0.766116 0.500000
Si Si4 0.865419 0.067664 0.617998
Si Si5 0.843176 0.789732 0.162015
Si Si6 0.728701 0.147376 0.837664
Si Si7 0.112178 0.916496 0.585542
Si Si8 0.024227 0.464793 0.846640
O O1 0.250000 0.518896 0.500000
O O2 0.299280 0.472054 0.346326
O O3 0.205026 0.571936 0.342471
O O4 0.172005 0.457585 0.368401
O O5 0.378940 0.371745 0.313453
O O6 0.391530 0.270494 0.195670
O O7 0.309575 0.359916 0.155947
O O8 0.439820 0.393089 0.159673
O O9 0.701731 0.723235 0.431305
O O10 0.705210 0.812023 0.570021
O O11 0.860834 0.100730 0.517520
O O12 0.924825 0.014863 0.605087
O O13 0.793641 0.813066 0.245528
O O14 0.895806 0.848024 0.140968
O O15 0.041969 0.955893 0.590394
O O16 0.003647 0.500000 0.750000
#
# Coordination Sequence:
#
# PCOD8296141 Si02
#       8
#    16  16   8  16  16  16  16  16
#     4  10  21  37  63  98 125 155 205 270 330 372
#     4  10  21  40  64  86 123 168 216 249 312 390
#     4  10  22  40  56  90 132 164 210 254 328 376
#     4  10  21  41  68  90 121 168 216 254 318 386
#     4  11  26  36  62  97 128 171 203 271 315 384
#     4  11  21  38  64  94 126 166 209 267 321 374
#     4  11  25  37  63  94 132 158 208 272 315 371
#     4  10  22  41  64  91 123 172 212 257 314 382
#
# _framework density 20.868742000000001
#
# number of rings (size 3 to 8) (size 9 to 14) (size 15 to 20)
#    0.000    1.600    2.000    2.800    8.400    1.600 
#    0.000    0.000    0.000    3.200    0.000    0.000 
#    0.000    0.000    0.000    0.000    0.000    0.000 
#
# Total GULP energy -743440.240948 kJ/mol
# GULP energy per Si atom -12390.670682 kJ/mol
# Density = 2.082124 g / cm^3
# Si number density = 20.868742 Si / 1000 Ang^3
#
#
#
# Elastic Constant Matrix: (Units=GPa)
#
#
# Indices 1 2 3 4 5 6 
#
# 1 87.7450 41.2733 25.4799 0.0000 0.0000 0.0000
# 2 41.2733 152.5897 44.5306 0.0000 0.0000 0.0000
# 3 25.4799 44.5306 98.5186 0.0000 0.0000 0.0000
# 4 0.0000 0.0000 0.0000 29.5130 0.0000 0.0000
# 5 0.0000 0.0000 0.0000 0.0000 23.7668 0.0000
# 6 0.0000 0.0000 0.0000 0.0000 0.0000 23.8437
#
#
#
# Elastic Compliance Matrix: (Units=1/GPa)
#
#
# Indices 1 2 3 4 5 6 
#
# 1 0.013428 -0.003017 -0.002109 0.000000 0.000000 0.000000
# 2 -0.003017 0.008227 -0.002938 0.000000 0.000000 0.000000
# 3 -0.002109 -0.002938 0.012024 0.000000 0.000000 0.000000
# 4 0.000000 0.000000 0.000000 0.033883 0.000000 0.000000
# 5 0.000000 0.000000 0.000000 0.000000 0.042075 0.000000
# 6 0.000000 0.000000 0.000000 0.000000 0.000000 0.041940
#
#
# Mechanical properties :
#
#
# Convention : Reuss Voigt Hill
#
# Bulk Modulus (GPa) = 56.97875 62.38009 59.67942
# Shear Modulus (GPa) = 28.80902 30.59601 29.70251
#
# Velocity S-wave (km/s) = 3.71952 3.83314 3.77676
# Velocity P-wave (km/s) = 6.76824 7.03898 6.90494
#
# Compressibility (1/GPa) = 0.01755040
#
# Stress axis : x y z
#
# Youngs Moduli (GPa) = 74.47061 121.55134 83.16615
#
# Poissons Ratio (x) = 0.36666 0.17544
# Poissons Ratio (y) = 0.22464 0.24438
# Poissons Ratio (z) = 0.15709 0.35717
#
# Static dielectric constant tensor:
#      x y z
#    x 3.439340 0.000000 0.000000 
#    y 0.000000 4.128760 0.000000 
#    z 0.000000 0.000000 3.795470 
# 
# 
# High freq. dielectric constant tensor:
#      x y z
#    x 1.784170 0.000000 0.000000 
#    y 0.000000 1.831330 0.000000 
#    z 0.000000 0.000000 1.824450 
# 
# From -- ./inp_files/18961.got.cif
#   From: 2010.03.12/outbox.cif.g09.slc.cpg/sg73_10_cif.got.tgz:18961.got - 2010.04.16 15:25:48.
