data_PCOD8296822
_publ_section_title
;
Structure prediction by ZEFSAII (Michael W. Deem and Ramdas Pophale) SiO2 
 PCOD8296822
Probable space group: I B C A 
;
_chemical_formula_sum "Si O2"
_cell_formula_units_Z 72
_cell_length_a 20.099270
_cell_length_b 9.954313
_cell_length_c 15.655140
_cell_angle_alpha 90.000000
_cell_angle_beta 90.000000
_cell_angle_gamma 90.000000
_cell_volume 3132.193128
_symmetry_space_group_name_H-M "I B C A "
_symmetry_group_IT_number 73
_symmetry_cell_setting 'orthorhombic'
loop_
_space_group_symop_operation_xyz
x,y,z
-x,1/2-y,z
x,-y,1/2-z
1/2-x,y,-z
-x,-y,-z
x,1/2+y,-z
-x,y,1/2+z
1/2+x,-y,z
1/2+x,1/2+y,1/2+z
1/2-x,-y,1/2+z
1/2+x,1/2-y,-z
-x,1/2+y,1/2-z
1/2-x,1/2-y,1/2-z
1/2+x,y,1/2-z
1/2-x,1/2+y,z
x,1/2-y,1/2+z
loop_
_atom_site_type_symbol
_atom_site_label
_atom_site_fract_x
_atom_site_fract_y
_atom_site_fract_z
Si Si1 0.331720 0.542160 0.844683
Si Si2 0.576306 0.794228 0.373533
Si Si3 0.123003 0.300841 0.055323
Si Si4 0.034293 0.000000 0.250000
Si Si5 0.250000 0.859233 0.500000
Si Si6 0.500000 0.250000 0.848525
O O1 0.303732 0.500000 0.750000
O O2 0.375984 0.676177 0.838798
O O3 0.376949 0.423047 0.878966
O O4 0.275365 0.554354 0.918890
O O5 0.500000 0.750000 0.378921
O O6 0.600309 0.851536 0.463354
O O7 0.584130 0.923002 0.313328
O O8 0.064060 0.209095 0.094419
O O9 0.192910 0.227548 0.045012
O O10 0.987173 0.115894 0.208470
#
# Coordination Sequence:
#
# PCOD8296822 Si02
#       6
#    16  16  16   8   8   8
#     4  11  25  48  77 107 151 199 253 313 375 453
#     4  11  24  42  69 110 147 193 246 306 382 444
#     4  11  25  46  76 104 148 202 249 314 374 457
#     4  12  26  42  68 110 158 186 244 316 380 458
#     4  10  26  50  72 110 150 202 254 308 386 448
#     4  12  26  44  74 112 150 196 254 308 384 438
#
# _framework density 22.987086999999999
#
# number of rings (size 3 to 8) (size 9 to 14) (size 15 to 20)
#    0.000    0.889    2.222    3.333    9.333    2.667 
#    2.000    0.000    0.000    0.000    0.000    0.000 
#    0.000    0.000    0.000    0.000    0.000    0.000 
#
# Total GULP energy -446054.675530 kJ/mol
# GULP energy per Si atom -12390.407654 kJ/mol
# Density = 2.293477 g / cm^3
# Si number density = 22.987087 Si / 1000 Ang^3
#
#
#
# Elastic Constant Matrix: (Units=GPa)
#
#
# Indices 1 2 3 4 5 6 
#
# 1 124.4072 34.8008 59.6358 0.0000 0.0000 0.0000
# 2 34.8008 110.5934 64.9249 0.0000 0.0000 0.0000
# 3 59.6358 64.9249 193.2039 0.0000 0.0000 0.0000
# 4 0.0000 0.0000 0.0000 44.7122 0.0000 0.0000
# 5 0.0000 0.0000 0.0000 0.0000 36.2644 0.0000
# 6 0.0000 0.0000 0.0000 0.0000 0.0000 13.5644
#
#
#
# Elastic Compliance Matrix: (Units=1/GPa)
#
#
# Indices 1 2 3 4 5 6 
#
# 1 0.009658 -0.001606 -0.002441 0.000000 0.000000 0.000000
# 2 -0.001606 0.011531 -0.003379 0.000000 0.000000 0.000000
# 3 -0.002441 -0.003379 0.007065 0.000000 0.000000 0.000000
# 4 0.000000 0.000000 0.000000 0.022365 0.000000 0.000000
# 5 0.000000 0.000000 0.000000 0.000000 0.027575 0.000000
# 6 0.000000 0.000000 0.000000 0.000000 0.000000 0.073722
#
#
# Mechanical properties :
#
#
# Convention : Reuss Voigt Hill
#
# Bulk Modulus (GPa) = 74.62154 82.99194 78.80674
# Shear Modulus (GPa) = 29.19930 36.83106 33.01518
#
# Velocity S-wave (km/s) = 3.56792 4.00715 3.79390
# Velocity P-wave (km/s) = 7.03607 7.58893 7.31772
#
# Compressibility (1/GPa) = 0.01340096
#
# Stress axis : x y z
#
# Youngs Moduli (GPa) = 103.54530 86.72037 141.54136
#
# Poissons Ratio (x) = 0.13925 0.34556
# Poissons Ratio (y) = 0.16627 0.47832
# Poissons Ratio (z) = 0.25279 0.29306
#
# Static dielectric constant tensor:
#      x y z
#    x 4.064980 0.000000 0.000000 
#    y 0.000000 4.059210 0.000000 
#    z 0.000000 0.000000 4.639070 
# 
# 
# High freq. dielectric constant tensor:
#      x y z
#    x 1.898580 0.000000 0.000000 
#    y 0.000000 1.904570 0.000000 
#    z 0.000000 0.000000 1.934900 
# 
# From -- ./inp_files/5396.got.cif
#   From: 2010.03.12/outbox.cif.g09.slc.cpg/sg73_3_cif.got.tgz:5396.got - 2010.04.16 15:25:48.
