data_PCOD8296815
_publ_section_title
;
Structure prediction by ZEFSAII (Michael W. Deem and Ramdas Pophale) SiO2 
 PCOD8296815
Probable space group: I B C A 
;
_chemical_formula_sum "Si O2"
_cell_formula_units_Z 120
_cell_length_a 13.460541
_cell_length_b 22.572245
_cell_length_c 19.539953
_cell_angle_alpha 90.000000
_cell_angle_beta 90.000000
_cell_angle_gamma 90.000000
_cell_volume 5936.914376
_symmetry_space_group_name_H-M "I B C A "
_symmetry_group_IT_number 73
_symmetry_cell_setting 'orthorhombic'
loop_
_space_group_symop_operation_xyz
x,y,z
-x,1/2-y,z
x,-y,1/2-z
1/2-x,y,-z
-x,-y,-z
x,1/2+y,-z
-x,y,1/2+z
1/2+x,-y,z
1/2+x,1/2+y,1/2+z
1/2-x,-y,1/2+z
1/2+x,1/2-y,-z
-x,1/2+y,1/2-z
1/2-x,1/2-y,1/2-z
1/2+x,y,1/2-z
1/2-x,1/2+y,z
x,1/2-y,1/2+z
loop_
_atom_site_type_symbol
_atom_site_label
_atom_site_fract_x
_atom_site_fract_y
_atom_site_fract_z
Si Si1 0.313691 0.659434 0.706818
Si Si2 0.120076 0.753547 0.393903
Si Si3 0.750000 0.685510 0.000000
Si Si4 0.283523 0.034131 0.074700
Si Si5 0.691874 0.910423 0.396005
Si Si6 0.487740 0.533672 0.859067
Si Si7 0.695319 0.367010 0.831957
Si Si8 0.000218 0.085053 0.713156
O O1 0.326349 0.723692 0.672370
O O2 0.230459 0.616488 0.674834
O O3 0.284638 0.662462 0.787106
O O4 0.420606 0.632749 0.689654
O O5 0.166620 0.725291 0.462523
O O6 0.155287 0.821594 0.389348
O O7 0.000000 0.750000 0.395006
O O8 0.810103 0.643163 0.050662
O O9 0.400883 0.043012 0.085750
O O10 0.228758 0.072696 0.131907
O O11 0.262361 0.964545 0.082505
O O12 0.250000 0.056356 0.000000
O O13 0.581457 0.934633 0.391603
O O14 0.508076 0.464542 0.845871
O O15 0.461424 0.561252 0.785706
O O16 0.606088 0.383424 0.780243
#
# Coordination Sequence:
#
# PCOD8296815 Si02
#       8
#    16  16   8  16  16  16  16  16
#     4  11  22  42  68  96 131 168 221 281 335 384
#     4  11  25  45  71  93 125 181 231 275 332 401
#     4  10  26  48  66  88 132 180 220 276 334 398
#     4  12  26  40  61  98 138 175 212 272 327 406
#     4  11  22  42  67  94 130 174 218 265 335 397
#     4  11  23  38  64 102 134 169 213 267 336 404
#     4  12  24  42  68  99 131 168 224 282 330 393
#     4  11  21  37  68 100 130 167 211 269 342 387
#
# _framework density 20.212520999999999
#
# number of rings (size 3 to 8) (size 9 to 14) (size 15 to 20)
#    0.000    0.800    7.333    0.400    0.933    2.133 
#    0.000    0.000    0.000    0.000    0.000    0.000 
#    0.000    0.000    0.000    0.000    0.000    0.000 
#
# Total GULP energy -743906.813715 kJ/mol
# GULP energy per Si atom -12398.446895 kJ/mol
# Density = 2.016652 g / cm^3
# Si number density = 20.212521 Si / 1000 Ang^3
#
#
#
# Elastic Constant Matrix: (Units=GPa)
#
#
# Indices 1 2 3 4 5 6 
#
# 1 138.5349 30.5129 37.1004 0.0000 0.0000 0.0000
# 2 30.5129 67.8238 9.5295 0.0000 0.0000 0.0000
# 3 37.1004 9.5295 81.1250 0.0000 0.0000 0.0000
# 4 0.0000 0.0000 0.0000 -4.1852 0.0000 0.0000
# 5 0.0000 0.0000 0.0000 0.0000 27.8156 0.0000
# 6 0.0000 0.0000 0.0000 0.0000 0.0000 32.5772
#
#
#
# Elastic Compliance Matrix: (Units=1/GPa)
#
#
# Indices 1 2 3 4 5 6 
#
# 1 0.008984 -0.003523 -0.003695 0.000000 0.000000 0.000000
# 2 -0.003523 0.016373 -0.000312 0.000000 0.000000 0.000000
# 3 -0.003695 -0.000312 0.014053 0.000000 0.000000 0.000000
# 4 0.000000 0.000000 0.000000 -0.238940 0.000000 0.000000
# 5 0.000000 0.000000 0.000000 0.000000 0.035951 0.000000
# 6 0.000000 0.000000 0.000000 0.000000 0.000000 0.030696
#
#
# Mechanical properties :
#
#
# Convention : Reuss Voigt Hill
#
# Bulk Modulus (GPa) = 41.06715 49.08549 45.07632
# Shear Modulus (GPa) = -45.57579 25.26427 -10.15576
#
# Velocity S-wave (km/s) = -4.75366 3.53927 -2.24397
# Velocity P-wave (km/s) = 3.12536 6.40620 3.95421
#
# Compressibility (1/GPa) = 0.02435036
#
# Stress axis : x y z
#
# Youngs Moduli (GPa) = 111.31275 61.07733 71.15916
#
# Poissons Ratio (x) = 0.21515 0.26291
# Poissons Ratio (y) = 0.39210 0.02222
# Poissons Ratio (z) = 0.41126 0.01908
#
# Static dielectric constant tensor:
#      x y z
#    x 3.646190 0.000000 0.000000 
#    y 0.000000 3.733860 0.000000 
#    z 0.000000 0.000000 3.566230 
# 
# 
# High freq. dielectric constant tensor:
#      x y z
#    x 1.795740 0.000000 0.000000 
#    y 0.000000 1.794180 0.000000 
#    z 0.000000 0.000000 1.778970 
# 
# From -- ./inp_files/25617.got.cif
#   From: 2010.03.12/outbox.cif.g09.slc.cpg/sg73_13_cif.got.tgz:25617.got - 2010.04.16 15:25:48.
