data_PCOD8296463
_publ_section_title
;
Structure prediction by ZEFSAII (Michael W. Deem and Ramdas Pophale) SiO2 
 PCOD8296463
Probable space group: I B C A 
;
_chemical_formula_sum "Si O2"
_cell_formula_units_Z 80
_cell_length_a 23.891381
_cell_length_b 12.353162
_cell_length_c 12.926535
_cell_angle_alpha 90.000000
_cell_angle_beta 90.000000
_cell_angle_gamma 90.000000
_cell_volume 3815.061272
_symmetry_space_group_name_H-M "I B C A "
_symmetry_group_IT_number 73
_symmetry_cell_setting 'orthorhombic'
loop_
_space_group_symop_operation_xyz
x,y,z
-x,1/2-y,z
x,-y,1/2-z
1/2-x,y,-z
-x,-y,-z
x,1/2+y,-z
-x,y,1/2+z
1/2+x,-y,z
1/2+x,1/2+y,1/2+z
1/2-x,-y,1/2+z
1/2+x,1/2-y,-z
-x,1/2+y,1/2-z
1/2-x,1/2-y,1/2-z
1/2+x,y,1/2-z
1/2-x,1/2+y,z
x,1/2-y,1/2+z
loop_
_atom_site_type_symbol
_atom_site_label
_atom_site_fract_x
_atom_site_fract_y
_atom_site_fract_z
Si Si1 0.469384 0.000000 0.750000
Si Si2 0.112044 0.818124 0.299259
Si Si3 0.750000 0.968280 0.500000
Si Si4 0.424117 0.102351 0.192108
Si Si5 0.214459 0.307657 0.837643
Si Si6 0.658751 0.643073 0.484536
O O1 0.431551 0.083727 0.814029
O O2 0.509982 0.071963 0.675063
O O3 0.081667 0.707932 0.264469
O O4 0.157598 0.853494 0.213188
O O5 0.141560 0.798826 0.409173
O O6 0.750386 0.900767 0.392921
O O7 0.692291 0.033336 0.495686
O O8 0.397065 0.119784 0.080648
O O9 0.394520 0.000000 0.250000
O O10 0.250000 0.250000 0.750000
O O11 0.200755 0.221192 0.925403
#
# Coordination Sequence:
#
# PCOD8296463 Si02
#       6
#     8  16   8  16  16  16
#     4  10  22  42  68  96 128 174 216 286 338 392
#     4  11  22  44  64  97 134 166 226 279 336 408
#     4  12  24  40  66  94 132 174 226 268 332 408
#     4   9  24  43  67  92 131 175 216 277 338 405
#     4  11  25  40  63  92 136 173 217 275 330 403
#     4  11  25  40  66  97 126 179 219 272 341 401
#
# _framework density 20.969518999999998
#
# number of rings (size 3 to 8) (size 9 to 14) (size 15 to 20)
#    0.600    0.800    0.000    4.800    8.400    2.400 
#    0.000    4.000    0.000    0.000    0.000    0.000 
#    0.000    0.000    0.000    0.000    0.000    0.000 
#
# Total GULP energy -495939.196771 kJ/mol
# GULP energy per Si atom -12398.479919 kJ/mol
# Density = 2.092179 g / cm^3
# Si number density = 20.969519 Si / 1000 Ang^3
#
#
#
# Elastic Constant Matrix: (Units=GPa)
#
#
# Indices 1 2 3 4 5 6 
#
# 1 107.9093 57.7406 44.5300 0.0000 0.0000 0.0000
# 2 57.7406 121.8703 64.3370 0.0000 0.0000 0.0000
# 3 44.5300 64.3370 127.5753 0.0000 0.0000 0.0000
# 4 0.0000 0.0000 0.0000 35.9351 0.0000 0.0000
# 5 0.0000 0.0000 0.0000 0.0000 24.3928 0.0000
# 6 0.0000 0.0000 0.0000 0.0000 0.0000 36.9840
#
#
#
# Elastic Compliance Matrix: (Units=1/GPa)
#
#
# Indices 1 2 3 4 5 6 
#
# 1 0.012748 -0.005030 -0.001913 0.000000 0.000000 0.000000
# 2 -0.005030 0.013167 -0.004885 0.000000 0.000000 0.000000
# 3 -0.001913 -0.004885 0.010970 0.000000 0.000000 0.000000
# 4 0.000000 0.000000 0.000000 0.027828 0.000000 0.000000
# 5 0.000000 0.000000 0.000000 0.000000 0.040996 0.000000
# 6 0.000000 0.000000 0.000000 0.000000 0.000000 0.027039
#
#
# Mechanical properties :
#
#
# Convention : Reuss Voigt Hill
#
# Bulk Modulus (GPa) = 75.58804 76.73003 76.15904
# Shear Modulus (GPa) = 31.09220 32.17886 31.63553
#
# Velocity S-wave (km/s) = 3.85480 3.92159 3.88834
# Velocity P-wave (km/s) = 7.47914 7.56147 7.52042
#
# Compressibility (1/GPa) = 0.01322961
#
# Stress axis : x y z
#
# Youngs Moduli (GPa) = 78.44436 75.94636 91.16104
#
# Poissons Ratio (x) = 0.38200 0.17440
# Poissons Ratio (y) = 0.39456 0.44529
# Poissons Ratio (z) = 0.15007 0.37097
#
# Static dielectric constant tensor:
#      x y z
#    x 3.833960 0.000000 0.000000 
#    y 0.000000 3.934920 0.000000 
#    z 0.000000 0.000000 3.768360 
# 
# 
# High freq. dielectric constant tensor:
#      x y z
#    x 1.826220 0.000000 0.000000 
#    y 0.000000 1.830420 0.000000 
#    z 0.000000 0.000000 1.813080 
# 
# From -- ./inp_files/14183.got.cif
#   From: 2010.03.12/outbox.cif.g09.slc.cpg/sg73_8_cif.got.tgz:14183.got - 2010.04.16 15:25:48.
