data_PCOD8296843
_publ_section_title
;
Structure prediction by ZEFSAII (Michael W. Deem and Ramdas Pophale) SiO2 
 PCOD8296843
Probable space group: I B C A 
;
_chemical_formula_sum "Si O2"
_cell_formula_units_Z 96
_cell_length_a 13.673279
_cell_length_b 14.752420
_cell_length_c 21.869545
_cell_angle_alpha 90.000000
_cell_angle_beta 90.000000
_cell_angle_gamma 90.000000
_cell_volume 4411.392407
_symmetry_space_group_name_H-M "I B C A "
_symmetry_group_IT_number 73
_symmetry_cell_setting 'orthorhombic'
loop_
_space_group_symop_operation_xyz
x,y,z
-x,1/2-y,z
x,-y,1/2-z
1/2-x,y,-z
-x,-y,-z
x,1/2+y,-z
-x,y,1/2+z
1/2+x,-y,z
1/2+x,1/2+y,1/2+z
1/2-x,-y,1/2+z
1/2+x,1/2-y,-z
-x,1/2+y,1/2-z
1/2-x,1/2-y,1/2-z
1/2+x,y,1/2-z
1/2-x,1/2+y,z
x,1/2-y,1/2+z
loop_
_atom_site_type_symbol
_atom_site_label
_atom_site_fract_x
_atom_site_fract_y
_atom_site_fract_z
Si Si1 0.290057 0.304189 0.094777
Si Si2 0.388954 0.743597 0.020211
Si Si3 0.384385 0.745863 0.283369
Si Si4 0.394339 0.540809 0.993960
Si Si5 0.755647 0.600495 0.275865
Si Si6 0.754181 0.497777 0.102375
O O1 0.187564 0.255155 0.076040
O O2 0.347313 0.249739 0.146685
O O3 0.267903 0.400384 0.127844
O O4 0.358741 0.314627 0.033853
O O5 0.500000 0.750000 0.045192
O O6 0.382913 0.647985 0.986277
O O7 0.500000 0.750000 0.280113
O O8 0.337430 0.837944 0.255124
O O9 0.351592 0.655867 0.246131
O O10 0.340595 0.515604 0.055387
O O11 0.500000 0.500000 0.000000
O O12 0.349342 0.499686 0.932370
O O13 0.746661 0.500000 0.250000
O O14 0.760337 0.582664 0.348520
#
# Coordination Sequence:
#
# PCOD8296843 Si02
#       6
#    16  16  16  16  16  16
#     4  11  21  39  65  93 134 182 222 293 348 412
#     4  11  21  36  60  96 136 179 232 284 351 416
#     4  11  25  46  72 101 135 180 239 287 352 421
#     4  11  22  39  62  99 130 173 222 274 342 413
#     4  11  24  48  70  99 138 183 231 290 348 410
#     4  11  22  41  65  93 134 175 218 279 342 408
#
# _framework density 21.761837
#
# number of rings (size 3 to 8) (size 9 to 14) (size 15 to 20)
#    0.000    1.000    1.667    8.500    0.000    2.000 
#    3.000    5.833    0.000    0.000    0.000    0.000 
#    0.000    0.000    0.000    0.000    0.000    0.000 
#
# Total GULP energy -594931.783966 kJ/mol
# GULP energy per Si atom -12394.412166 kJ/mol
# Density = 2.171231 g / cm^3
# Si number density = 21.761837 Si / 1000 Ang^3
#
#
#
# Elastic Constant Matrix: (Units=GPa)
#
#
# Indices 1 2 3 4 5 6 
#
# 1 195.0471 47.5578 66.4559 0.0000 0.0000 0.0000
# 2 47.5578 136.5531 32.6977 0.0000 0.0000 0.0000
# 3 66.4559 32.6977 92.2745 0.0000 0.0000 0.0000
# 4 0.0000 0.0000 0.0000 24.5721 0.0000 0.0000
# 5 0.0000 0.0000 0.0000 0.0000 -16.2016 0.0000
# 6 0.0000 0.0000 0.0000 0.0000 0.0000 28.5611
#
#
#
# Elastic Compliance Matrix: (Units=1/GPa)
#
#
# Indices 1 2 3 4 5 6 
#
# 1 0.007014 -0.001348 -0.004574 0.000000 0.000000 0.000000
# 2 -0.001348 0.008261 -0.001957 0.000000 0.000000 0.000000
# 3 -0.004574 -0.001957 0.014825 0.000000 0.000000 0.000000
# 4 0.000000 0.000000 0.000000 0.040697 0.000000 0.000000
# 5 0.000000 0.000000 0.000000 0.000000 -0.061722 0.000000
# 6 0.000000 0.000000 0.000000 0.000000 0.000000 0.035013
#
#
# Mechanical properties :
#
#
# Convention : Reuss Voigt Hill
#
# Bulk Modulus (GPa) = 69.71958 79.69971 74.70964
# Shear Modulus (GPa) = 77.37029 25.86386 51.61708
#
# Velocity S-wave (km/s) = 5.96912 3.45120 4.87551
# Velocity P-wave (km/s) = 8.92268 7.25149 8.13014
#
# Compressibility (1/GPa) = 0.01434317
#
# Stress axis : x y z
#
# Youngs Moduli (GPa) = 142.57296 121.05020 67.45465
#
# Poissons Ratio (x) = 0.16312 0.30853
# Poissons Ratio (y) = 0.19212 0.13200
# Poissons Ratio (z) = 0.65212 0.23687
#
# Static dielectric constant tensor:
#      x y z
#    x 3.797430 0.000000 0.000000 
#    y 0.000000 4.490740 0.000000 
#    z 0.000000 0.000000 3.932400 
# 
# 
# High freq. dielectric constant tensor:
#      x y z
#    x 1.844340 0.000000 0.000000 
#    y 0.000000 1.878160 0.000000 
#    z 0.000000 0.000000 1.848950 
# 
# From -- ./inp_files/25994.got.cif
#   From: 2010.03.12/outbox.cif.g09.slc.cpg/sg73_13_cif.got.tgz:25994.got - 2010.04.16 15:25:48.
