data_PCOD8296178
_publ_section_title
;
Structure prediction by ZEFSAII (Michael W. Deem and Ramdas Pophale) SiO2 
 PCOD8296178
Probable space group: I B C A 
;
_chemical_formula_sum "Si O2"
_cell_formula_units_Z 64
_cell_length_a 8.719045
_cell_length_b 10.540705
_cell_length_c 33.035621
_cell_angle_alpha 90.000000
_cell_angle_beta 90.000000
_cell_angle_gamma 90.000000
_cell_volume 3036.134824
_symmetry_space_group_name_H-M "I B C A "
_symmetry_group_IT_number 73
_symmetry_cell_setting 'orthorhombic'
loop_
_space_group_symop_operation_xyz
x,y,z
-x,1/2-y,z
x,-y,1/2-z
1/2-x,y,-z
-x,-y,-z
x,1/2+y,-z
-x,y,1/2+z
1/2+x,-y,z
1/2+x,1/2+y,1/2+z
1/2-x,-y,1/2+z
1/2+x,1/2-y,-z
-x,1/2+y,1/2-z
1/2-x,1/2-y,1/2-z
1/2+x,y,1/2-z
1/2-x,1/2+y,z
x,1/2-y,1/2+z
loop_
_atom_site_type_symbol
_atom_site_label
_atom_site_fract_x
_atom_site_fract_y
_atom_site_fract_z
Si Si1 0.964934 0.890314 0.217089
Si Si2 0.914130 0.614744 0.979304
Si Si3 0.723351 0.498941 0.836901
Si Si4 0.529657 0.892444 0.609735
O O1 0.813121 0.888436 0.188373
O O2 0.000000 0.750000 0.235814
O O3 0.937867 0.000000 0.250000
O O4 0.116320 0.921120 0.192173
O O5 0.904436 0.559960 0.933204
O O6 0.000000 0.750000 0.983422
O O7 0.750000 0.633032 0.000000
O O8 0.000000 0.500000 0.000000
O O9 0.632791 0.450202 0.876205
O O10 0.852311 0.592971 0.853608
O O11 0.500000 0.750000 0.600922
#
# Coordination Sequence:
#
# PCOD8296178 Si02
#       4
#    16  16  16  16
#     4  11  24  40  61  89 120 157 199 248 304 362
#     4  11  23  40  63  93 128 166 209 258 313 372
#     4  10  22  39  61  86 118 155 201 250 299 357
#     4  10  21  39  61  86 118 158 201 247 299 357
#
# _framework density 21.079432000000001
#
# number of rings (size 3 to 8) (size 9 to 14) (size 15 to 20)
#    0.000    1.500    0.000    4.500    0.000   10.000 
#    0.000    6.250    0.000    0.000    0.000    0.000 
#    0.000    0.000    0.000    0.000    0.000    0.000 
#
# Total GULP energy -396471.652712 kJ/mol
# GULP energy per Si atom -12389.739147 kJ/mol
# Density = 2.103145 g / cm^3
# Si number density = 21.079432 Si / 1000 Ang^3
#
#
#
# Elastic Constant Matrix: (Units=GPa)
#
#
# Indices 1 2 3 4 5 6 
#
# 1 132.8764 43.3705 53.6405 0.0000 0.0000 0.0000
# 2 43.3705 106.3934 45.8388 0.0000 0.0000 0.0000
# 3 53.6405 45.8388 129.7167 0.0000 0.0000 0.0000
# 4 0.0000 0.0000 0.0000 48.6925 0.0000 0.0000
# 5 0.0000 0.0000 0.0000 0.0000 24.6604 0.0000
# 6 0.0000 0.0000 0.0000 0.0000 0.0000 24.6854
#
#
#
# Elastic Compliance Matrix: (Units=1/GPa)
#
#
# Indices 1 2 3 4 5 6 
#
# 1 0.009607 -0.002601 -0.003054 0.000000 0.000000 0.000000
# 2 -0.002601 0.011791 -0.003091 0.000000 0.000000 0.000000
# 3 -0.003054 -0.003091 0.010064 0.000000 0.000000 0.000000
# 4 0.000000 0.000000 0.000000 0.020537 0.000000 0.000000
# 5 0.000000 0.000000 0.000000 0.000000 0.040551 0.000000
# 6 0.000000 0.000000 0.000000 0.000000 0.000000 0.040510
#
#
# Mechanical properties :
#
#
# Convention : Reuss Voigt Hill
#
# Bulk Modulus (GPa) = 71.57550 72.74290 72.15920
# Shear Modulus (GPa) = 32.21460 34.68344 33.44902
#
# Velocity S-wave (km/s) = 3.91352 4.06072 3.98780
# Velocity P-wave (km/s) = 7.37901 7.52129 7.45049
#
# Compressibility (1/GPa) = 0.01397126
#
# Stress axis : x y z
#
# Youngs Moduli (GPa) = 104.08587 84.80993 99.36087
#
# Poissons Ratio (x) = 0.22056 0.30343
# Poissons Ratio (y) = 0.27069 0.30715
# Poissons Ratio (z) = 0.31786 0.26217
#
# Static dielectric constant tensor:
#      x y z
#    x 3.902020 0.000000 0.000000 
#    y 0.000000 3.741300 0.000000 
#    z 0.000000 0.000000 4.439810 
# 
# 
# High freq. dielectric constant tensor:
#      x y z
#    x 1.843180 0.000000 0.000000 
#    y 0.000000 1.817150 0.000000 
#    z 0.000000 0.000000 1.838550 
# 
# From -- ./inp_files/3975.got.cif
#   From: 2010.03.12/outbox.cif.g09.slc.cpg/sg73_2_cif.got.tgz:3975.got - 2010.04.16 15:25:48.
