data_PCOD8296185
_publ_section_title
;
Structure prediction by ZEFSAII (Michael W. Deem and Ramdas Pophale) SiO2 
 PCOD8296185
Probable space group: I B C A 
;
_chemical_formula_sum "Si O2"
_cell_formula_units_Z 120
_cell_length_a 25.631364
_cell_length_b 21.799760
_cell_length_c 9.609301
_cell_angle_alpha 90.000000
_cell_angle_beta 90.000000
_cell_angle_gamma 90.000000
_cell_volume 5369.269808
_symmetry_space_group_name_H-M "I B C A "
_symmetry_group_IT_number 73
_symmetry_cell_setting 'orthorhombic'
loop_
_space_group_symop_operation_xyz
x,y,z
-x,1/2-y,z
x,-y,1/2-z
1/2-x,y,-z
-x,-y,-z
x,1/2+y,-z
-x,y,1/2+z
1/2+x,-y,z
1/2+x,1/2+y,1/2+z
1/2-x,-y,1/2+z
1/2+x,1/2-y,-z
-x,1/2+y,1/2-z
1/2-x,1/2-y,1/2-z
1/2+x,y,1/2-z
1/2-x,1/2+y,z
x,1/2-y,1/2+z
loop_
_atom_site_type_symbol
_atom_site_label
_atom_site_fract_x
_atom_site_fract_y
_atom_site_fract_z
Si Si1 0.062827 0.937652 0.935090
Si Si2 0.943038 0.429229 0.036069
Si Si3 0.381243 0.892400 0.792424
Si Si4 0.790011 0.804922 0.118204
Si Si5 0.434187 0.774933 0.757318
Si Si6 0.396730 0.142616 0.195269
Si Si7 0.718128 0.168064 0.128949
Si Si8 0.500000 0.750000 0.012042
O O1 0.099039 0.909964 0.813093
O O2 0.001785 0.923379 0.905777
O O3 0.082465 0.910554 0.080035
O O4 0.067575 0.010995 0.941471
O O5 0.900384 0.432849 0.161497
O O6 0.934475 0.371985 0.933586
O O7 0.386756 0.821046 0.751233
O O8 0.319566 0.889257 0.826920
O O9 0.839480 0.850281 0.128355
O O10 0.760849 0.813030 0.261236
O O11 0.809159 0.734208 0.090494
O O12 0.750000 0.827541 0.000000
O O13 0.415219 0.705765 0.734897
O O14 0.469528 0.793836 0.622904
O O15 0.462272 0.786869 0.906615
O O16 0.750000 0.140910 0.000000
#
# Coordination Sequence:
#
# PCOD8296185 Si02
#       8
#    16  16  16  16  16  16  16   8
#     4  11  26  44  64  90 126 177 224 265 315 379
#     4  11  26  44  64  90 126 177 224 265 315 379
#     4  12  23  40  66  93 128 166 219 267 319 391
#     4  10  21  39  61  92 131 166 203 254 320 394
#     4  11  24  36  56  95 126 167 206 258 331 394
#     4  12  23  40  66  93 128 166 219 267 319 391
#     4  10  21  39  61  92 131 166 203 254 320 394
#     4  10  24  34  48  80 138 164 192 246 324 392
#
# _framework density 22.349409000000001
#
# number of rings (size 3 to 8) (size 9 to 14) (size 15 to 20)
#    0.000    1.067    1.333    4.800   11.200    2.133 
#    0.000    0.000    0.000   12.000    0.000    0.000 
#    0.000    0.000    0.000    0.000    0.000    0.000 
#
# Total GULP energy -743490.614478 kJ/mol
# GULP energy per Si atom -12391.510241 kJ/mol
# Density = 2.229854 g / cm^3
# Si number density = 22.349409 Si / 1000 Ang^3
#
#
#
# Elastic Constant Matrix: (Units=GPa)
#
#
# Indices 1 2 3 4 5 6 
#
# 1 105.7645 39.6053 29.8238 0.0000 0.0000 0.0000
# 2 39.6053 65.4993 16.1983 0.0000 0.0000 0.0000
# 3 29.8238 16.1983 126.4436 0.0000 0.0000 0.0000
# 4 0.0000 0.0000 0.0000 20.9225 0.0000 0.0000
# 5 0.0000 0.0000 0.0000 0.0000 38.6512 0.0000
# 6 0.0000 0.0000 0.0000 0.0000 0.0000 33.0319
#
#
#
# Elastic Compliance Matrix: (Units=1/GPa)
#
#
# Indices 1 2 3 4 5 6 
#
# 1 0.012732 -0.007184 -0.002083 0.000000 0.000000 0.000000
# 2 -0.007184 0.019820 -0.000845 0.000000 0.000000 0.000000
# 3 -0.002083 -0.000845 0.008508 0.000000 0.000000 0.000000
# 4 0.000000 0.000000 0.000000 0.047795 0.000000 0.000000
# 5 0.000000 0.000000 0.000000 0.000000 0.025872 0.000000
# 6 0.000000 0.000000 0.000000 0.000000 0.000000 0.030274
#
#
# Mechanical properties :
#
#
# Convention : Reuss Voigt Hill
#
# Bulk Modulus (GPa) = 47.98933 52.10693 50.04813
# Shear Modulus (GPa) = 29.04097 32.65981 30.85039
#
# Velocity S-wave (km/s) = 3.60864 3.82688 3.71936
# Velocity P-wave (km/s) = 6.23554 6.54920 6.39429
#
# Compressibility (1/GPa) = 0.02083797
#
# Stress axis : x y z
#
# Youngs Moduli (GPa) = 78.54001 50.45412 117.53441
#
# Poissons Ratio (x) = 0.36245 0.24481
# Poissons Ratio (y) = 0.56421 0.09928
# Poissons Ratio (z) = 0.16359 0.04262
#
# Static dielectric constant tensor:
#      x y z
#    x 4.127090 0.000000 0.000000 
#    y 0.000000 3.959690 0.000000 
#    z 0.000000 0.000000 4.089980 
# 
# 
# High freq. dielectric constant tensor:
#      x y z
#    x 1.868990 0.000000 0.000000 
#    y 0.000000 1.858410 0.000000 
#    z 0.000000 0.000000 1.899820 
# 
# From -- ./inp_files/8065.got.cif
#   From: 2010.03.12/outbox.cif.g09.slc.cpg/sg73_5_cif.got.tgz:8065.got - 2010.04.16 15:25:48.
