data_PCOD8296676
_publ_section_title
;
Structure prediction by ZEFSAII (Michael W. Deem and Ramdas Pophale) SiO2 
 PCOD8296676
Probable space group: I B C A 
;
_chemical_formula_sum "Si O2"
_cell_formula_units_Z 80
_cell_length_a 12.735939
_cell_length_b 14.201637
_cell_length_c 20.443995
_cell_angle_alpha 90.000000
_cell_angle_beta 90.000000
_cell_angle_gamma 90.000000
_cell_volume 3697.729551
_symmetry_space_group_name_H-M "I B C A "
_symmetry_group_IT_number 73
_symmetry_cell_setting 'orthorhombic'
loop_
_space_group_symop_operation_xyz
x,y,z
-x,1/2-y,z
x,-y,1/2-z
1/2-x,y,-z
-x,-y,-z
x,1/2+y,-z
-x,y,1/2+z
1/2+x,-y,z
1/2+x,1/2+y,1/2+z
1/2-x,-y,1/2+z
1/2+x,1/2-y,-z
-x,1/2+y,1/2-z
1/2-x,1/2-y,1/2-z
1/2+x,y,1/2-z
1/2-x,1/2+y,z
x,1/2-y,1/2+z
loop_
_atom_site_type_symbol
_atom_site_label
_atom_site_fract_x
_atom_site_fract_y
_atom_site_fract_z
Si Si1 0.500000 0.250000 0.383591
Si Si2 0.787149 0.684736 0.926620
Si Si3 0.391823 0.203872 0.143809
Si Si4 0.469972 0.116590 0.270034
Si Si5 0.675427 0.003130 0.646306
Si Si6 0.653984 0.000000 0.250000
O O1 0.394966 0.244229 0.426953
O O2 0.505956 0.160392 0.337715
O O3 0.704575 0.727684 0.874405
O O4 0.807637 0.575889 0.908615
O O5 0.750000 0.691227 0.000000
O O6 0.500000 0.250000 0.116609
O O7 0.402042 0.186715 0.223136
O O8 0.368514 0.099750 0.113223
O O9 0.403585 0.026933 0.295919
O O10 0.576471 0.087341 0.232210
O O11 0.783625 0.024412 0.684233
#
# Coordination Sequence:
#
# PCOD8296676 Si02
#       6
#     8  16  16  16  16   8
#     4  10  24  42  66 100 144 182 240 300 350 418
#     4  11  28  48  71 101 145 203 250 290 349 432
#     4  12  23  44  72 107 139 189 237 297 369 439
#     4  11  21  36  64 108 143 177 223 299 372 415
#     4  11  24  41  66 106 143 182 236 301 366 422
#     4  12  18  36  66 100 144 176 218 298 366 444
#
# _framework density 21.634896999999999
#
# number of rings (size 3 to 8) (size 9 to 14) (size 15 to 20)
#    0.000    0.800    5.000    2.400    1.400    2.400 
#    0.000    1.000    0.000    0.000    0.000    0.000 
#    0.000    0.000    0.000    0.000    0.000    0.000 
#
# Total GULP energy -495649.939729 kJ/mol
# GULP energy per Si atom -12391.248493 kJ/mol
# Density = 2.158566 g / cm^3
# Si number density = 21.634897 Si / 1000 Ang^3
#
#
#
# Elastic Constant Matrix: (Units=GPa)
#
#
# Indices 1 2 3 4 5 6 
#
# 1 164.7091 57.6199 54.7023 0.0000 0.0000 0.0000
# 2 57.6199 125.6194 36.7671 0.0000 0.0000 0.0000
# 3 54.7023 36.7671 91.5209 0.0000 0.0000 0.0000
# 4 0.0000 0.0000 0.0000 22.3045 0.0000 0.0000
# 5 0.0000 0.0000 0.0000 0.0000 29.4785 0.0000
# 6 0.0000 0.0000 0.0000 0.0000 0.0000 41.9105
#
#
#
# Elastic Compliance Matrix: (Units=1/GPa)
#
#
# Indices 1 2 3 4 5 6 
#
# 1 0.008295 -0.002667 -0.003886 0.000000 0.000000 0.000000
# 2 -0.002667 0.009879 -0.002374 0.000000 0.000000 0.000000
# 3 -0.003886 -0.002374 0.014203 0.000000 0.000000 0.000000
# 4 0.000000 0.000000 0.000000 0.044834 0.000000 0.000000
# 5 0.000000 0.000000 0.000000 0.000000 0.033923 0.000000
# 6 0.000000 0.000000 0.000000 0.000000 0.000000 0.023860
#
#
# Mechanical properties :
#
#
# Convention : Reuss Voigt Hill
#
# Bulk Modulus (GPa) = 68.86615 75.55869 72.21242
# Shear Modulus (GPa) = 31.70742 34.25604 32.98173
#
# Velocity S-wave (km/s) = 3.83243 3.98347 3.90868
# Velocity P-wave (km/s) = 7.17520 7.49384 7.33625
#
# Compressibility (1/GPa) = 0.01452092
#
# Stress axis : x y z
#
# Youngs Moduli (GPa) = 120.55180 101.22475 70.40605
#
# Poissons Ratio (x) = 0.27000 0.27363
# Poissons Ratio (y) = 0.32156 0.16718
# Poissons Ratio (z) = 0.46852 0.24035
#
# Static dielectric constant tensor:
#      x y z
#    x 4.332200 0.000000 0.000000 
#    y 0.000000 4.243420 0.000000 
#    z 0.000000 0.000000 3.394410 
# 
# 
# High freq. dielectric constant tensor:
#      x y z
#    x 1.866210 0.000000 0.000000 
#    y 0.000000 1.864390 0.000000 
#    z 0.000000 0.000000 1.808820 
# 
# From -- ./inp_files/28817.got.cif
#   From: 2010.03.12/outbox.cif.g09.slc.cpg/sg73_15_cif.got.tgz:28817.got - 2010.04.16 15:25:48.
