data_PCOD8296559
_publ_section_title
;
Structure prediction by ZEFSAII (Michael W. Deem and Ramdas Pophale) SiO2 
 PCOD8296559
Probable space group: I B C A 
;
_chemical_formula_sum "Si O2"
_cell_formula_units_Z 104
_cell_length_a 20.417928
_cell_length_b 8.683294
_cell_length_c 26.967964
_cell_angle_alpha 90.000000
_cell_angle_beta 90.000000
_cell_angle_gamma 90.000000
_cell_volume 4781.281717
_symmetry_space_group_name_H-M "I B C A "
_symmetry_group_IT_number 73
_symmetry_cell_setting 'orthorhombic'
loop_
_space_group_symop_operation_xyz
x,y,z
-x,1/2-y,z
x,-y,1/2-z
1/2-x,y,-z
-x,-y,-z
x,1/2+y,-z
-x,y,1/2+z
1/2+x,-y,z
1/2+x,1/2+y,1/2+z
1/2-x,-y,1/2+z
1/2+x,1/2-y,-z
-x,1/2+y,1/2-z
1/2-x,1/2-y,1/2-z
1/2+x,y,1/2-z
1/2-x,1/2+y,z
x,1/2-y,1/2+z
loop_
_atom_site_type_symbol
_atom_site_label
_atom_site_fract_x
_atom_site_fract_y
_atom_site_fract_z
Si Si1 0.104526 0.217674 0.300277
Si Si2 0.942896 0.513287 0.648257
Si Si3 0.694077 0.864004 0.649697
Si Si4 0.176196 0.500000 0.250000
Si Si5 0.000000 0.250000 0.997706
Si Si6 0.055264 0.994529 0.432147
Si Si7 0.179908 0.990736 0.366123
Si Si8 0.506612 0.500000 0.750000
O O1 0.071226 0.302010 0.348385
O O2 0.135117 0.354214 0.268641
O O3 0.049906 0.145689 0.265163
O O4 0.153323 0.086671 0.319041
O O5 0.876870 0.423739 0.631659
O O6 0.000626 0.478041 0.610400
O O7 0.962606 0.450527 0.702843
O O8 0.716357 0.934011 0.703377
O O9 0.694891 0.680953 0.652070
O O10 0.752618 0.928839 0.614563
O O11 0.951590 0.351051 0.031044
O O12 0.952738 0.149832 0.963123
O O13 0.127954 0.989873 0.410395
#
# Coordination Sequence:
#
# PCOD8296559 Si02
#       8
#    16  16  16   8   8  16  16   8
#     4  11  23  39  59  94 137 192 231 281 315 385
#     4  11  23  42  66 101 146 180 233 275 330 399
#     4  11  25  42  61  96 136 191 229 281 322 396
#     4  10  23  41  58  90 143 189 252 268 317 381
#     4  10  24  44  78 108 134 158 224 288 370 408
#     4  11  23  46  75 106 132 174 218 291 347 418
#     4  12  25  44  69  92 135 180 229 281 343 393
#     4  12  23  37  62 102 145 191 226 274 323 395
#
# _framework density 21.751491000000001
#
# number of rings (size 3 to 8) (size 9 to 14) (size 15 to 20)
#    0.000    0.923    1.538    6.923    0.000    4.308 
#    5.538    0.000    0.000   15.692    0.000    0.000 
#    0.000    0.000    0.000    0.000    0.000    0.000 
#
# Total GULP energy -644605.156798 kJ/mol
# GULP energy per Si atom -12396.253015 kJ/mol
# Density = 2.170198 g / cm^3
# Si number density = 21.751491 Si / 1000 Ang^3
#
#
#
# Elastic Constant Matrix: (Units=GPa)
#
#
# Indices 1 2 3 4 5 6 
#
# 1 157.1959 68.3487 54.2275 0.0000 0.0000 0.0000
# 2 68.3487 169.9178 41.5622 0.0000 0.0000 0.0000
# 3 54.2275 41.5622 99.1544 0.0000 0.0000 0.0000
# 4 0.0000 0.0000 0.0000 88.4213 0.0000 0.0000
# 5 0.0000 0.0000 0.0000 0.0000 23.3478 0.0000
# 6 0.0000 0.0000 0.0000 0.0000 0.0000 27.6870
#
#
#
# Elastic Compliance Matrix: (Units=1/GPa)
#
#
# Indices 1 2 3 4 5 6 
#
# 1 0.008780 -0.002627 -0.003701 0.000000 0.000000 0.000000
# 2 -0.002627 0.007343 -0.001642 0.000000 0.000000 0.000000
# 3 -0.003701 -0.001642 0.012797 0.000000 0.000000 0.000000
# 4 0.000000 0.000000 0.000000 0.011309 0.000000 0.000000
# 5 0.000000 0.000000 0.000000 0.000000 0.042831 0.000000
# 6 0.000000 0.000000 0.000000 0.000000 0.000000 0.036118
#
#
# Mechanical properties :
#
#
# Convention : Reuss Voigt Hill
#
# Bulk Modulus (GPa) = 77.02532 83.83832 80.43182
# Shear Modulus (GPa) = 35.85650 45.36654 40.61152
#
# Velocity S-wave (km/s) = 4.06453 4.57187 4.32565
# Velocity P-wave (km/s) = 7.58390 8.15455 7.87440
#
# Compressibility (1/GPa) = 0.01298274
#
# Stress axis : x y z
#
# Youngs Moduli (GPa) = 113.89240 136.17941 78.14080
#
# Poissons Ratio (x) = 0.35768 0.28919
# Poissons Ratio (y) = 0.29914 0.12827
# Poissons Ratio (z) = 0.42151 0.22355
#
# Static dielectric constant tensor:
#      x y z
#    x 4.119730 0.000000 0.000000 
#    y 0.000000 4.330370 0.000000 
#    z 0.000000 0.000000 3.914430 
# 
# 
# High freq. dielectric constant tensor:
#      x y z
#    x 1.861800 0.000000 0.000000 
#    y 0.000000 1.882740 0.000000 
#    z 0.000000 0.000000 1.819610 
# 
# From -- ./inp_files/34690.got.cif
#   From: 2010.03.12/outbox.cif.g09.slc.cpg/sg73_18_cif.got.tgz:34690.got - 2010.04.16 15:25:48.
