data_PCOD8296949
_publ_section_title
;
Structure prediction by ZEFSAII (Michael W. Deem and Ramdas Pophale) SiO2 
 PCOD8296949
Probable space group: I B C A 
;
_chemical_formula_sum "Si O2"
_cell_formula_units_Z 112
_cell_length_a 28.463394
_cell_length_b 12.681368
_cell_length_c 13.450836
_cell_angle_alpha 90.000000
_cell_angle_beta 90.000000
_cell_angle_gamma 90.000000
_cell_volume 4855.143466
_symmetry_space_group_name_H-M "I B C A "
_symmetry_group_IT_number 73
_symmetry_cell_setting 'orthorhombic'
loop_
_space_group_symop_operation_xyz
x,y,z
-x,1/2-y,z
x,-y,1/2-z
1/2-x,y,-z
-x,-y,-z
x,1/2+y,-z
-x,y,1/2+z
1/2+x,-y,z
1/2+x,1/2+y,1/2+z
1/2-x,-y,1/2+z
1/2+x,1/2-y,-z
-x,1/2+y,1/2-z
1/2-x,1/2-y,1/2-z
1/2+x,y,1/2-z
1/2-x,1/2+y,z
x,1/2-y,1/2+z
loop_
_atom_site_type_symbol
_atom_site_label
_atom_site_fract_x
_atom_site_fract_y
_atom_site_fract_z
Si Si1 0.212250 0.904295 0.824992
Si Si2 0.852492 0.473115 0.962524
Si Si3 0.684460 0.933308 0.348379
Si Si4 0.034317 0.607676 0.702366
Si Si5 0.058151 0.826153 0.779928
Si Si6 0.846065 0.291458 0.816698
Si Si7 0.548317 0.937412 0.514198
O O1 0.172178 0.929046 0.905957
O O2 0.263496 0.888183 0.874095
O O3 0.197455 0.801808 0.760453
O O4 0.214900 0.000000 0.750000
O O5 0.838496 0.359560 0.917064
O O6 0.908710 0.483596 0.965928
O O7 0.832372 0.480343 0.072967
O O8 0.649080 0.832215 0.343676
O O9 0.683582 0.000000 0.250000
O O10 0.053969 0.500000 0.750000
O O11 0.050936 0.700909 0.773906
O O12 0.054092 0.624776 0.590676
O O13 0.977061 0.609722 0.706234
O O14 0.110352 0.847223 0.740500
O O15 0.047604 0.856351 0.894178
O O16 0.500000 0.000000 0.500000
#
# Coordination Sequence:
#
# PCOD8296949 Si02
#       7
#    16  16  16  16  16  16  16
#     4   9  20  42  74 102 140 185 236 292 365 434
#     4  11  24  43  72 102 140 189 241 294 357 444
#     4  11  25  46  67 108 149 183 232 309 363 430
#     4  11  25  46  70 103 144 188 241 307 360 425
#     4  11  25  45  72 103 143 190 245 293 364 435
#     4  11  23  44  74 103 137 190 244 291 367 438
#     4  12  24  45  75 102 141 193 245 301 361 427
#
# _framework density 23.068318999999999
#
# number of rings (size 3 to 8) (size 9 to 14) (size 15 to 20)
#    0.000    1.143    2.857    2.571    0.000    5.714 
#    7.714    4.286    0.000    0.000    0.000    0.000 
#    0.000    0.000    0.000    0.000    0.000    0.000 
#
# Total GULP energy -694266.023863 kJ/mol
# GULP energy per Si atom -12397.607569 kJ/mol
# Density = 2.301581 g / cm^3
# Si number density = 23.068319 Si / 1000 Ang^3
#
#
#
# Elastic Constant Matrix: (Units=GPa)
#
#
# Indices 1 2 3 4 5 6 
#
# 1 118.3136 16.1094 45.6956 0.0000 0.0000 0.0000
# 2 16.1094 110.6576 57.0283 0.0000 0.0000 0.0000
# 3 45.6956 57.0283 147.9656 0.0000 0.0000 0.0000
# 4 0.0000 0.0000 0.0000 35.4615 0.0000 0.0000
# 5 0.0000 0.0000 0.0000 0.0000 35.6214 0.0000
# 6 0.0000 0.0000 0.0000 0.0000 0.0000 27.1983
#
#
#
# Elastic Compliance Matrix: (Units=1/GPa)
#
#
# Indices 1 2 3 4 5 6 
#
# 1 0.009599 0.000163 -0.003027 0.000000 0.000000 0.000000
# 2 0.000163 0.011280 -0.004398 0.000000 0.000000 0.000000
# 3 -0.003027 -0.004398 0.009388 0.000000 0.000000 0.000000
# 4 0.000000 0.000000 0.000000 0.028200 0.000000 0.000000
# 5 0.000000 0.000000 0.000000 0.000000 0.028073 0.000000
# 6 0.000000 0.000000 0.000000 0.000000 0.000000 0.036767
#
#
# Mechanical properties :
#
#
# Convention : Reuss Voigt Hill
#
# Bulk Modulus (GPa) = 63.52180 68.28929 65.90554
# Shear Modulus (GPa) = 34.94599 36.86314 35.90456
#
# Velocity S-wave (km/s) = 3.89638 4.00183 3.94946
# Velocity P-wave (km/s) = 6.91654 7.14284 7.03060
#
# Compressibility (1/GPa) = 0.01574263
#
# Stress axis : x y z
#
# Youngs Moduli (GPa) = 104.17618 88.65632 106.51816
#
# Poissons Ratio (x) = -0.01442 0.32245
# Poissons Ratio (y) = -0.01694 0.46842
# Poissons Ratio (z) = 0.31536 0.38987
#
# Static dielectric constant tensor:
#      x y z
#    x 4.658060 0.000000 0.000000 
#    y 0.000000 3.778850 0.000000 
#    z 0.000000 0.000000 4.418420 
# 
# 
# High freq. dielectric constant tensor:
#      x y z
#    x 1.926620 0.000000 0.000000 
#    y 0.000000 1.892900 0.000000 
#    z 0.000000 0.000000 1.914550 
# 
# From -- ./inp_files/14806.got.cif
#   From: 2010.03.12/outbox.cif.g09.slc.cpg/sg73_8_cif.got.tgz:14806.got - 2010.04.16 15:25:48.
