data_PCOD8296927
_publ_section_title
;
Structure prediction by ZEFSAII (Michael W. Deem and Ramdas Pophale) SiO2 
 PCOD8296927
Probable space group: I B C A 
;
_chemical_formula_sum "Si O2"
_cell_formula_units_Z 56
_cell_length_a 9.241202
_cell_length_b 26.750432
_cell_length_c 7.322413
_cell_angle_alpha 90.000000
_cell_angle_beta 90.000000
_cell_angle_gamma 90.000000
_cell_volume 1810.145495
_symmetry_space_group_name_H-M "I B C A "
_symmetry_group_IT_number 73
_symmetry_cell_setting 'orthorhombic'
loop_
_space_group_symop_operation_xyz
x,y,z
-x,1/2-y,z
x,-y,1/2-z
1/2-x,y,-z
-x,-y,-z
x,1/2+y,-z
-x,y,1/2+z
1/2+x,-y,z
1/2+x,1/2+y,1/2+z
1/2-x,-y,1/2+z
1/2+x,1/2-y,-z
-x,1/2+y,1/2-z
1/2-x,1/2-y,1/2-z
1/2+x,y,1/2-z
1/2-x,1/2+y,z
x,1/2-y,1/2+z
loop_
_atom_site_type_symbol
_atom_site_label
_atom_site_fract_x
_atom_site_fract_y
_atom_site_fract_z
Si Si1 0.017813 0.597140 0.957005
Si Si2 0.233344 0.941571 0.765208
Si Si3 0.250000 0.788550 0.000000
Si Si4 0.628520 0.692484 0.631934
O O1 0.113724 0.586110 0.769682
O O2 0.990810 0.658121 0.929270
O O3 0.858555 0.570582 0.954156
O O4 0.114039 0.576963 0.119982
O O5 0.260862 0.000000 0.750000
O O6 0.375649 0.752680 0.095351
O O7 0.173453 0.819797 0.159328
O O8 0.750000 0.668597 0.500000
#
# Coordination Sequence:
#
# PCOD8296927 Si02
#       4
#    16  16   8  16
#     4  11  24  42  65  95 135 170 222 280 324 410
#     4  11  23  42  65  94 128 171 219 276 337 396
#     4   8  16  30  66  96 126 180 208 280 326 396
#     4   9  16  36  61  96 134 167 225 266 333 393
#
# _framework density 30.93674
#
# number of rings (size 3 to 8) (size 9 to 14) (size 15 to 20)
#    0.857    1.143    2.857    1.714    0.000    5.714 
#    0.000    0.000    0.000   29.143    0.000    0.000 
#    0.000    0.000    0.000    0.000    0.000    0.000 
#
# Total GULP energy -346909.481674 kJ/mol
# GULP energy per Si atom -12389.624346 kJ/mol
# Density = 3.086633 g / cm^3
# Si number density = 30.936740 Si / 1000 Ang^3
#
#
#
# Elastic Constant Matrix: (Units=GPa)
#
#
# Indices 1 2 3 4 5 6 
#
# 1 154.5434 18.9211 8.2190 -0.0136 -0.0013 0.0059
# 2 18.9211 169.5666 -6.6714 -0.0049 -0.0035 -0.0157
# 3 8.2190 -6.6714 115.1692 -0.0542 0.0078 0.0412
# 4 -0.0136 -0.0049 -0.0542 -76.5813 -0.0203 -0.1253
# 5 -0.0013 -0.0035 0.0078 -0.0203 40.1825 0.0235
# 6 0.0059 -0.0157 0.0412 -0.1253 0.0235 -209.7949
#
#
#
# Elastic Compliance Matrix: (Units=1/GPa)
#
#
# Indices 1 2 3 4 5 6 
#
# 1 0.006591 -0.000756 -0.000514 -0.000001 0.000000 0.000000
# 2 -0.000756 0.005997 0.000401 -0.000001 0.000000 0.000000
# 3 -0.000514 0.000401 0.008743 -0.000006 -0.000002 0.000002
# 4 -0.000001 -0.000001 -0.000006 -0.013058 -0.000007 0.000008
# 5 0.000000 0.000000 -0.000002 -0.000007 0.024886 0.000003
# 6 0.000000 0.000000 0.000002 0.000008 0.000003 -0.004767
#
#
# Mechanical properties :
#
#
# Convention : Reuss Voigt Hill
#
# Bulk Modulus (GPa) = 51.03588 53.35738 52.19663
# Shear Modulus (GPa) = 136.38531 -21.31804 57.53363
#
# Velocity S-wave (km/s) = 6.64687 -2.62789 4.31712
# Velocity P-wave (km/s) = 8.68565 2.84200 6.46210
#
# Compressibility (1/GPa) = 0.01959406
#
# Stress axis : x y z
#
# Youngs Moduli (GPa) = 151.73287 166.73625 114.37972
#
# Poissons Ratio (x) = 0.12599 0.05880
# Poissons Ratio (y) = 0.11465 -0.04591
# Poissons Ratio (z) = 0.07801 -0.06692
#
# Static dielectric constant tensor:
#      x y z
#    x 6.122420 0.000010 -0.000050 
#    y 0.000010 5.443880 -0.000010 
#    z -0.000050 -0.000010 6.979660 
# 
# 
# High freq. dielectric constant tensor:
#      x y z
#    x 2.298400 0.000000 0.000000 
#    y 0.000000 2.258210 0.000000 
#    z 0.000000 0.000000 2.316010 
# 
# From -- ./inp_files/3900.got.cif
#   From: 2010.03.12/outbox.cif.g09.slc.cpg/sg73_2_cif.got.tgz:3900.got - 2010.04.16 15:25:48.
