data_PCOD8296830
_publ_section_title
;
Structure prediction by ZEFSAII (Michael W. Deem and Ramdas Pophale) SiO2 
 PCOD8296830
Probable space group: I B C A 
;
_chemical_formula_sum "Si O2"
_cell_formula_units_Z 88
_cell_length_a 9.717994
_cell_length_b 20.385239
_cell_length_c 20.763253
_cell_angle_alpha 90.000000
_cell_angle_beta 90.000000
_cell_angle_gamma 90.000000
_cell_volume 4113.275796
_symmetry_space_group_name_H-M "I B C A "
_symmetry_group_IT_number 73
_symmetry_cell_setting 'orthorhombic'
loop_
_space_group_symop_operation_xyz
x,y,z
-x,1/2-y,z
x,-y,1/2-z
1/2-x,y,-z
-x,-y,-z
x,1/2+y,-z
-x,y,1/2+z
1/2+x,-y,z
1/2+x,1/2+y,1/2+z
1/2-x,-y,1/2+z
1/2+x,1/2-y,-z
-x,1/2+y,1/2-z
1/2-x,1/2-y,1/2-z
1/2+x,y,1/2-z
1/2-x,1/2+y,z
x,1/2-y,1/2+z
loop_
_atom_site_type_symbol
_atom_site_label
_atom_site_fract_x
_atom_site_fract_y
_atom_site_fract_z
Si Si1 0.826499 0.932812 0.285831
Si Si2 0.419042 0.049990 0.614898
Si Si3 0.329408 0.138923 0.160841
Si Si4 0.500000 0.250000 0.614175
Si Si5 0.456996 0.900852 0.609878
Si Si6 0.106182 0.350942 0.986321
O O1 0.692507 0.947997 0.328163
O O2 0.787771 0.877498 0.233967
O O3 0.947605 0.899005 0.326872
O O4 0.875462 0.000000 0.250000
O O5 0.559001 0.085137 0.637684
O O6 0.359679 0.080635 0.549225
O O7 0.447087 0.976675 0.592212
O O8 0.382739 0.215120 0.158091
O O9 0.191258 0.132237 0.119310
O O10 0.466075 0.190773 0.567828
O O11 0.519258 0.859509 0.550906
O O12 0.250000 0.315119 0.000000
#
# Coordination Sequence:
#
# PCOD8296830 Si02
#       6
#    16  16  16   8  16  16
#     4  12  22  41  69 104 150 177 221 286 359 427
#     4  11  22  42  66 106 143 174 218 297 350 423
#     4  11  25  42  70 100 139 189 234 278 356 423
#     4  10  28  50  66  90 144 186 240 294 336 416
#     4  12  23  41  72 105 134 186 228 285 364 422
#     4  11  25  45  68  95 137 179 238 288 346 409
#
# _framework density 21.394141000000001
#
# number of rings (size 3 to 8) (size 9 to 14) (size 15 to 20)
#    0.000    0.727    5.455    1.636    2.545    2.182 
#    0.000    9.091    0.000    0.000    0.000    0.000 
#    0.000    0.000    0.000    0.000    0.000    0.000 
#
# Total GULP energy -545341.548859 kJ/mol
# GULP energy per Si atom -12394.126110 kJ/mol
# Density = 2.134545 g / cm^3
# Si number density = 21.394141 Si / 1000 Ang^3
#
#
#
# Elastic Constant Matrix: (Units=GPa)
#
#
# Indices 1 2 3 4 5 6 
#
# 1 117.8560 32.2786 26.8293 0.0000 0.0000 0.0000
# 2 32.2786 92.3244 33.0208 0.0000 0.0000 0.0000
# 3 26.8293 33.0208 99.2604 0.0000 0.0000 0.0000
# 4 0.0000 0.0000 0.0000 35.4210 0.0000 0.0000
# 5 0.0000 0.0000 0.0000 0.0000 40.3401 0.0000
# 6 0.0000 0.0000 0.0000 0.0000 0.0000 20.9803
#
#
#
# Elastic Compliance Matrix: (Units=1/GPa)
#
#
# Indices 1 2 3 4 5 6 
#
# 1 0.009625 -0.002763 -0.001682 0.000000 0.000000 0.000000
# 2 -0.002763 0.013088 -0.003607 0.000000 0.000000 0.000000
# 3 -0.001682 -0.003607 0.011729 0.000000 0.000000 0.000000
# 4 0.000000 0.000000 0.000000 0.028232 0.000000 0.000000
# 5 0.000000 0.000000 0.000000 0.000000 0.024789 0.000000
# 6 0.000000 0.000000 0.000000 0.000000 0.000000 0.047664
#
#
# Mechanical properties :
#
#
# Convention : Reuss Voigt Hill
#
# Bulk Modulus (GPa) = 54.53620 54.85536 54.69578
# Shear Modulus (GPa) = 31.77766 33.83575 32.80670
#
# Velocity S-wave (km/s) = 3.85820 3.98118 3.92017
# Velocity P-wave (km/s) = 6.73751 6.84317 6.79055
#
# Compressibility (1/GPa) = 0.01833645
#
# Stress axis : x y z
#
# Youngs Moduli (GPa) = 103.89926 76.40850 85.25800
#
# Poissons Ratio (x) = 0.21114 0.14342
# Poissons Ratio (y) = 0.28711 0.30752
# Poissons Ratio (z) = 0.17478 0.27560
#
# Static dielectric constant tensor:
#      x y z
#    x 4.692460 0.000000 0.000000 
#    y 0.000000 8.367270 0.000000 
#    z 0.000000 0.000000 4.046440 
# 
# 
# High freq. dielectric constant tensor:
#      x y z
#    x 1.848190 0.000000 0.000000 
#    y 0.000000 1.825350 0.000000 
#    z 0.000000 0.000000 1.852210 
# 
# From -- ./inp_files/21258.got.cif
#   From: 2010.03.12/outbox.cif.g09.slc.cpg/sg73_11_cif.got.tgz:21258.got - 2010.04.16 15:25:48.
