data_PCOD8296349
_publ_section_title
;
Structure prediction by ZEFSAII (Michael W. Deem and Ramdas Pophale) SiO2 
 PCOD8296349
Probable space group: I B C A 
;
_chemical_formula_sum "Si O2"
_cell_formula_units_Z 64
_cell_length_a 9.155437
_cell_length_b 17.282300
_cell_length_c 17.440399
_cell_angle_alpha 90.000000
_cell_angle_beta 90.000000
_cell_angle_gamma 90.000000
_cell_volume 2759.542167
_symmetry_space_group_name_H-M "I B C A "
_symmetry_group_IT_number 73
_symmetry_cell_setting 'orthorhombic'
loop_
_space_group_symop_operation_xyz
x,y,z
-x,1/2-y,z
x,-y,1/2-z
1/2-x,y,-z
-x,-y,-z
x,1/2+y,-z
-x,y,1/2+z
1/2+x,-y,z
1/2+x,1/2+y,1/2+z
1/2-x,-y,1/2+z
1/2+x,1/2-y,-z
-x,1/2+y,1/2-z
1/2-x,1/2-y,1/2-z
1/2+x,y,1/2-z
1/2-x,1/2+y,z
x,1/2-y,1/2+z
loop_
_atom_site_type_symbol
_atom_site_label
_atom_site_fract_x
_atom_site_fract_y
_atom_site_fract_z
Si Si1 0.965737 0.474518 0.834644
Si Si2 0.825104 0.248981 0.577138
Si Si3 0.388669 0.821648 0.808803
Si Si4 0.670120 0.902476 0.147968
O O1 0.015316 0.500000 0.750000
O O2 0.792443 0.468737 0.841605
O O3 0.036203 0.391722 0.855712
O O4 0.029409 0.548031 0.882204
O O5 0.750000 0.281228 0.500000
O O6 0.761903 0.298555 0.648555
O O7 0.782346 0.158382 0.583434
O O8 0.000000 0.250000 0.575807
O O9 0.500000 0.750000 0.806541
O O10 0.351298 0.849564 0.723536
#
# Coordination Sequence:
#
# PCOD8296349 Si02
#       4
#    16  16  16  16
#     4  10  22  38  66 103 143 170 219 270 343 395
#     4  12  28  46  69  97 135 182 234 281 338 401
#     4  11  22  43  72 102 138 174 226 286 338 399
#     4  11  24  42  70 105 137 180 218 280 338 408
#
# _framework density 23.192252
#
# number of rings (size 3 to 8) (size 9 to 14) (size 15 to 20)
#    0.000    1.000    2.500    4.500   10.500    0.000 
#    0.000    2.500    0.000    0.000    0.000    0.000 
#    0.000    0.000    0.000    0.000    0.000    0.000 
#
# Total GULP energy -396592.012437 kJ/mol
# GULP energy per Si atom -12393.500389 kJ/mol
# Density = 2.313946 g / cm^3
# Si number density = 23.192252 Si / 1000 Ang^3
#
#
#
# Elastic Constant Matrix: (Units=GPa)
#
#
# Indices 1 2 3 4 5 6 
#
# 1 161.0831 48.7611 43.0227 0.0000 0.0000 0.0000
# 2 48.7611 126.3216 33.6531 0.0000 0.0000 0.0000
# 3 43.0227 33.6531 48.0562 0.0000 0.0000 0.0000
# 4 0.0000 0.0000 0.0000 15.9090 0.0000 0.0000
# 5 0.0000 0.0000 0.0000 0.0000 24.7125 0.0000
# 6 0.0000 0.0000 0.0000 0.0000 0.0000 58.2562
#
#
#
# Elastic Compliance Matrix: (Units=1/GPa)
#
#
# Indices 1 2 3 4 5 6 
#
# 1 0.008390 -0.001521 -0.006446 0.000000 0.000000 0.000000
# 2 -0.001521 0.010008 -0.005646 0.000000 0.000000 0.000000
# 3 -0.006446 -0.005646 0.030534 0.000000 0.000000 0.000000
# 4 0.000000 0.000000 0.000000 0.062858 0.000000 0.000000
# 5 0.000000 0.000000 0.000000 0.000000 0.040465 0.000000
# 6 0.000000 0.000000 0.000000 0.000000 0.000000 0.017166
#
#
# Mechanical properties :
#
#
# Convention : Reuss Voigt Hill
#
# Bulk Modulus (GPa) = 46.07346 65.14829 55.61087
# Shear Modulus (GPa) = 24.52399 33.77713 29.15056
#
# Velocity S-wave (km/s) = 3.25533 3.82042 3.54914
# Velocity P-wave (km/s) = 5.83426 6.90017 6.38948
#
# Compressibility (1/GPa) = 0.02170447
#
# Stress axis : x y z
#
# Youngs Moduli (GPa) = 119.18795 99.92217 32.75071
#
# Poissons Ratio (x) = 0.15202 0.21111
# Poissons Ratio (y) = 0.18133 0.18492
# Poissons Ratio (z) = 0.76827 0.56419
#
# Static dielectric constant tensor:
#      x y z
#    x 4.154660 0.000000 0.000000 
#    y 0.000000 4.661930 0.000000 
#    z 0.000000 0.000000 3.677160 
# 
# 
# High freq. dielectric constant tensor:
#      x y z
#    x 1.931560 0.000000 0.000000 
#    y 0.000000 1.941480 0.000000 
#    z 0.000000 0.000000 1.860620 
# 
# From -- ./inp_files/22927.got.cif
#   From: 2010.03.12/outbox.cif.g09.slc.cpg/sg73_12_cif.got.tgz:22927.got - 2010.04.16 15:25:48.
