data_PCOD8296688
_publ_section_title
;
Structure prediction by ZEFSAII (Michael W. Deem and Ramdas Pophale) SiO2 
 PCOD8296688
Probable space group: I B C A 
;
_chemical_formula_sum "Si O2"
_cell_formula_units_Z 96
_cell_length_a 15.946958
_cell_length_b 18.078259
_cell_length_c 15.623421
_cell_angle_alpha 90.000000
_cell_angle_beta 90.000000
_cell_angle_gamma 90.000000
_cell_volume 4504.126613
_symmetry_space_group_name_H-M "I B C A "
_symmetry_group_IT_number 73
_symmetry_cell_setting 'orthorhombic'
loop_
_space_group_symop_operation_xyz
x,y,z
-x,1/2-y,z
x,-y,1/2-z
1/2-x,y,-z
-x,-y,-z
x,1/2+y,-z
-x,y,1/2+z
1/2+x,-y,z
1/2+x,1/2+y,1/2+z
1/2-x,-y,1/2+z
1/2+x,1/2-y,-z
-x,1/2+y,1/2-z
1/2-x,1/2-y,1/2-z
1/2+x,y,1/2-z
1/2-x,1/2+y,z
x,1/2-y,1/2+z
loop_
_atom_site_type_symbol
_atom_site_label
_atom_site_fract_x
_atom_site_fract_y
_atom_site_fract_z
Si Si1 0.212874 0.989408 0.406310
Si Si2 0.926245 0.141085 0.318360
Si Si3 0.114410 0.373802 0.858295
Si Si4 0.162084 0.000000 0.750000
Si Si5 0.706297 0.729118 0.409886
Si Si6 0.500000 0.750000 0.191289
Si Si7 0.647364 0.341542 0.834954
O O1 0.250000 0.994478 0.500000
O O2 0.281896 0.009568 0.334701
O O3 0.171373 0.909083 0.396154
O O4 0.139426 0.049432 0.400936
O O5 0.898246 0.070022 0.263957
O O6 0.858962 0.162454 0.391094
O O7 0.014353 0.130116 0.366111
O O8 0.932561 0.208847 0.251706
O O9 0.159753 0.307446 0.908674
O O10 0.142432 0.372856 0.760158
O O11 0.750000 0.715483 0.500000
O O12 0.781196 0.721923 0.340299
O O13 0.443191 0.693196 0.136151
#
# Coordination Sequence:
#
# PCOD8296688 Si02
#       7
#    16  16  16   8  16   8  16
#     4  12  25  45  69 104 142 190 246 299 362 434
#     4  11  23  43  69 103 138 187 239 298 356 430
#     4  11  23  44  68  99 137 188 238 297 361 427
#     4  12  26  40  74 104 140 194 248 282 376 434
#     4  12  23  42  68 101 139 185 233 295 360 430
#     4  10  24  42  70 100 134 176 246 292 352 418
#     4  11  22  42  70  96 135 181 239 289 355 430
#
# _framework density 21.313789
#
# number of rings (size 3 to 8) (size 9 to 14) (size 15 to 20)
#    0.000    0.667    6.667    1.500    7.000    0.000 
#    3.000    2.500    0.000    0.000    0.000    0.000 
#    0.000    0.000    0.000    0.000    0.000    0.000 
#
# Total GULP energy -595211.724006 kJ/mol
# GULP energy per Si atom -12400.244250 kJ/mol
# Density = 2.126528 g / cm^3
# Si number density = 21.313789 Si / 1000 Ang^3
#
#
#
# Elastic Constant Matrix: (Units=GPa)
#
#
# Indices 1 2 3 4 5 6 
#
# 1 166.4053 65.9030 64.9527 0.0000 0.0000 0.0000
# 2 65.9030 119.6950 24.7269 0.0000 0.0000 0.0000
# 3 64.9527 24.7269 90.9284 0.0000 0.0000 0.0000
# 4 0.0000 0.0000 0.0000 26.5587 0.0000 0.0000
# 5 0.0000 0.0000 0.0000 0.0000 24.1469 0.0000
# 6 0.0000 0.0000 0.0000 0.0000 0.0000 50.5368
#
#
#
# Elastic Compliance Matrix: (Units=1/GPa)
#
#
# Indices 1 2 3 4 5 6 
#
# 1 0.010059 -0.004296 -0.006018 0.000000 0.000000 0.000000
# 2 -0.004296 0.010686 0.000162 0.000000 0.000000 0.000000
# 3 -0.006018 0.000162 0.015252 0.000000 0.000000 0.000000
# 4 0.000000 0.000000 0.000000 0.037653 0.000000 0.000000
# 5 0.000000 0.000000 0.000000 0.000000 0.041413 0.000000
# 6 0.000000 0.000000 0.000000 0.000000 0.000000 0.019788
#
#
# Mechanical properties :
#
#
# Convention : Reuss Voigt Hill
#
# Bulk Modulus (GPa) = 63.70970 76.46599 70.08785
# Shear Modulus (GPa) = 31.17510 35.01154 33.09332
#
# Velocity S-wave (km/s) = 3.82864 4.05738 3.94467
# Velocity P-wave (km/s) = 7.03568 7.60947 7.32819
#
# Compressibility (1/GPa) = 0.01569620
#
# Stress axis : x y z
#
# Youngs Moduli (GPa) = 99.40869 93.57965 65.56487
#
# Poissons Ratio (x) = 0.40197 0.39455
# Poissons Ratio (y) = 0.42701 -0.01065
# Poissons Ratio (z) = 0.59821 -0.01520
#
# Static dielectric constant tensor:
#      x y z
#    x 4.128470 0.000000 0.000000 
#    y 0.000000 4.123290 0.000000 
#    z 0.000000 0.000000 3.559980 
# 
# 
# High freq. dielectric constant tensor:
#      x y z
#    x 1.851990 0.000000 0.000000 
#    y 0.000000 1.851120 0.000000 
#    z 0.000000 0.000000 1.812480 
# 
# From -- ./inp_files/17122.got.cif
#   From: 2010.03.12/outbox.cif.g09.slc.cpg/sg73_9_cif.got.tgz:17122.got - 2010.04.16 15:25:48.
