data_PCOD8296794
_publ_section_title
;
Structure prediction by ZEFSAII (Michael W. Deem and Ramdas Pophale) SiO2 
 PCOD8296794
Probable space group: I B C A 
;
_chemical_formula_sum "Si O2"
_cell_formula_units_Z 64
_cell_length_a 30.465187
_cell_length_b 8.709861
_cell_length_c 9.886066
_cell_angle_alpha 90.000000
_cell_angle_beta 90.000000
_cell_angle_gamma 90.000000
_cell_volume 2623.243334
_symmetry_space_group_name_H-M "I B C A "
_symmetry_group_IT_number 73
_symmetry_cell_setting 'orthorhombic'
loop_
_space_group_symop_operation_xyz
x,y,z
-x,1/2-y,z
x,-y,1/2-z
1/2-x,y,-z
-x,-y,-z
x,1/2+y,-z
-x,y,1/2+z
1/2+x,-y,z
1/2+x,1/2+y,1/2+z
1/2-x,-y,1/2+z
1/2+x,1/2-y,-z
-x,1/2+y,1/2-z
1/2-x,1/2-y,1/2-z
1/2+x,y,1/2-z
1/2-x,1/2+y,z
x,1/2-y,1/2+z
loop_
_atom_site_type_symbol
_atom_site_label
_atom_site_fract_x
_atom_site_fract_y
_atom_site_fract_z
Si Si1 0.044998 0.329901 0.691354
Si Si2 0.600278 0.722118 0.425718
Si Si3 0.219487 0.273576 0.620384
Si Si4 0.662168 0.484933 0.504708
O O1 0.036824 0.500000 0.750000
O O2 0.076776 0.329677 0.563398
O O3 0.065638 0.219770 0.805190
O O4 0.000000 0.250000 0.645595
O O5 0.639775 0.602509 0.398309
O O6 0.623006 0.887968 0.429252
O O7 0.250000 0.327623 0.500000
O O8 0.250000 0.250000 0.750000
O O9 0.184920 0.415796 0.627170
O O10 0.195859 0.114639 0.583168
#
# Coordination Sequence:
#
# PCOD8296794 Si02
#       4
#    16  16  16  16
#     4  12  28  47  74 113 154 195 248 306 372 444
#     4  11  25  48  76 107 152 198 251 304 367 445
#     4  11  26  45  71 106 148 189 248 308 371 437
#     4  10  25  46  75 108 144 199 247 304 370 437
#
# _framework density 24.397279000000001
#
# number of rings (size 3 to 8) (size 9 to 14) (size 15 to 20)
#    0.000    1.000    2.500    1.500    3.500   18.000 
#    0.000    3.750    0.000    0.000    0.000    0.000 
#    0.000    0.000    0.000    0.000    0.000    0.000 
#
# Total GULP energy -396762.950843 kJ/mol
# GULP energy per Si atom -12398.842214 kJ/mol
# Density = 2.434175 g / cm^3
# Si number density = 24.397279 Si / 1000 Ang^3
#
#
#
# Elastic Constant Matrix: (Units=GPa)
#
#
# Indices 1 2 3 4 5 6 
#
# 1 125.4875 58.9676 33.5916 0.0000 0.0000 0.0000
# 2 58.9676 119.7575 22.7292 0.0000 0.0000 0.0000
# 3 33.5916 22.7292 104.9076 0.0000 0.0000 0.0000
# 4 0.0000 0.0000 0.0000 22.4366 0.0000 0.0000
# 5 0.0000 0.0000 0.0000 0.0000 -38.4137 0.0000
# 6 0.0000 0.0000 0.0000 0.0000 0.0000 45.9575
#
#
#
# Elastic Compliance Matrix: (Units=1/GPa)
#
#
# Indices 1 2 3 4 5 6 
#
# 1 0.010933 -0.004921 -0.002435 0.000000 0.000000 0.000000
# 2 -0.004921 0.010924 -0.000791 0.000000 0.000000 0.000000
# 3 -0.002435 -0.000791 0.010483 0.000000 0.000000 0.000000
# 4 0.000000 0.000000 0.000000 0.044570 0.000000 0.000000
# 5 0.000000 0.000000 0.000000 0.000000 -0.026032 0.000000
# 6 0.000000 0.000000 0.000000 0.000000 0.000000 0.021759
#
#
# Mechanical properties :
#
#
# Convention : Reuss Voigt Hill
#
# Bulk Modulus (GPa) = 62.31975 64.52547 63.42261
# Shear Modulus (GPa) = 53.03404 21.65370 37.34387
#
# Velocity S-wave (km/s) = 4.66743 2.98240 3.91661
# Velocity P-wave (km/s) = 7.39227 6.19394 6.81948
#
# Compressibility (1/GPa) = 0.01604628
#
# Stress axis : x y z
#
# Youngs Moduli (GPa) = 91.46438 91.54541 95.39159
#
# Poissons Ratio (x) = 0.45053 0.23224
# Poissons Ratio (y) = 0.45013 0.07544
# Poissons Ratio (z) = 0.22268 0.07240
#
# Static dielectric constant tensor:
#      x y z
#    x 4.544750 0.000000 0.000000 
#    y 0.000000 4.608540 0.000000 
#    z 0.000000 0.000000 3.982850 
# 
# 
# High freq. dielectric constant tensor:
#      x y z
#    x 1.993540 0.000000 0.000000 
#    y 0.000000 1.990710 0.000000 
#    z 0.000000 0.000000 1.946860 
# 
# From -- ./inp_files/8239.got.cif
#   From: 2010.03.12/outbox.cif.g09.slc.cpg/sg73_5_cif.got.tgz:8239.got - 2010.04.16 15:25:48.
