data_PCOD8296669
_publ_section_title
;
Structure prediction by ZEFSAII (Michael W. Deem and Ramdas Pophale) SiO2 
 PCOD8296669
Probable space group: I B C A 
;
_chemical_formula_sum "Si O2"
_cell_formula_units_Z 120
_cell_length_a 26.789482
_cell_length_b 22.353209
_cell_length_c 8.078291
_cell_angle_alpha 90.000000
_cell_angle_beta 90.000000
_cell_angle_gamma 90.000000
_cell_volume 4837.530190
_symmetry_space_group_name_H-M "I B C A "
_symmetry_group_IT_number 73
_symmetry_cell_setting 'orthorhombic'
loop_
_space_group_symop_operation_xyz
x,y,z
-x,1/2-y,z
x,-y,1/2-z
1/2-x,y,-z
-x,-y,-z
x,1/2+y,-z
-x,y,1/2+z
1/2+x,-y,z
1/2+x,1/2+y,1/2+z
1/2-x,-y,1/2+z
1/2+x,1/2-y,-z
-x,1/2+y,1/2-z
1/2-x,1/2-y,1/2-z
1/2+x,y,1/2-z
1/2-x,1/2+y,z
x,1/2-y,1/2+z
loop_
_atom_site_type_symbol
_atom_site_label
_atom_site_fract_x
_atom_site_fract_y
_atom_site_fract_z
Si Si1 0.074482 0.172850 0.094241
Si Si2 0.701239 0.670679 0.282085
Si Si3 0.735520 0.564547 0.813047
Si Si4 0.543646 0.536299 0.092472
Si Si5 0.021112 0.158479 0.749147
Si Si6 0.612285 0.202497 0.919850
Si Si7 0.877627 0.400782 0.342610
Si Si8 0.750000 0.246498 0.000000
O O1 0.115725 0.225310 0.064035
O O2 0.100753 0.111434 0.158169
O O3 0.034096 0.188480 0.241178
O O4 0.042732 0.157958 0.932362
O O5 0.729575 0.607421 0.300980
O O6 0.643417 0.670348 0.229393
O O7 0.704458 0.709742 0.448841
O O8 0.732137 0.704774 0.143572
O O9 0.750946 0.500000 0.750000
O O10 0.676002 0.571424 0.805187
O O11 0.750000 0.575728 0.000000
O O12 0.567249 0.500000 0.250000
O O13 0.516204 0.591747 0.177868
O O14 0.500000 0.500000 0.000000
O O15 0.587718 0.557430 0.962537
O O16 0.054768 0.194356 0.620744
O O17 0.628716 0.166954 0.084236
#
# Coordination Sequence:
#
# PCOD8296669 Si02
#       8
#    16  16  16  16  16  16  16   8
#     4  12  25  43  72 106 153 195 241 305 384 457
#     4  11  24  46  72 109 146 189 253 310 383 452
#     4  12  28  52  75 106 154 196 256 324 382 457
#     4  11  24  45  75 102 148 197 249 314 373 439
#     4  11  25  43  64 108 146 191 247 300 364 464
#     4  11  24  42  71 101 148 193 240 302 378 455
#     4  11  26  48  73 110 146 196 260 310 382 463
#     4  10  24  40  76 104 144 186 238 318 376 442
#
# _framework density 24.806045999999998
#
# number of rings (size 3 to 8) (size 9 to 14) (size 15 to 20)
#    0.000    0.800    2.000    4.400    8.400    4.267 
#    0.000    0.000    0.000    0.000    0.000    0.000 
#    0.000    0.000    0.000    0.000    0.000    0.000 
#
# Total GULP energy -743393.672358 kJ/mol
# GULP energy per Si atom -12389.894539 kJ/mol
# Density = 2.474959 g / cm^3
# Si number density = 24.806046 Si / 1000 Ang^3
#
#
#
# Elastic Constant Matrix: (Units=GPa)
#
#
# Indices 1 2 3 4 5 6 
#
# 1 113.8982 39.8813 0.2235 0.0000 0.0000 0.0000
# 2 39.8813 131.1941 24.8413 0.0000 0.0000 0.0000
# 3 0.2235 24.8413 58.8661 0.0000 0.0000 0.0000
# 4 0.0000 0.0000 0.0000 29.4024 0.0000 0.0000
# 5 0.0000 0.0000 0.0000 0.0000 32.8243 0.0000
# 6 0.0000 0.0000 0.0000 0.0000 0.0000 41.7833
#
#
#
# Elastic Compliance Matrix: (Units=1/GPa)
#
#
# Indices 1 2 3 4 5 6 
#
# 1 0.009922 -0.003270 0.001342 0.000000 0.000000 0.000000
# 2 -0.003270 0.009362 -0.003938 0.000000 0.000000 0.000000
# 3 0.001342 -0.003938 0.018645 0.000000 0.000000 0.000000
# 4 0.000000 0.000000 0.000000 0.034011 0.000000 0.000000
# 5 0.000000 0.000000 0.000000 0.000000 0.030465 0.000000
# 6 0.000000 0.000000 0.000000 0.000000 0.000000 0.023933
#
#
# Mechanical properties :
#
#
# Convention : Reuss Voigt Hill
#
# Bulk Modulus (GPa) = 38.17337 48.20563 43.18950
# Shear Modulus (GPa) = 34.05924 36.73614 35.39769
#
# Velocity S-wave (km/s) = 3.70945 3.85247 3.78163
# Velocity P-wave (km/s) = 5.81110 6.26609 6.04288
#
# Compressibility (1/GPa) = 0.02619627
#
# Stress axis : x y z
#
# Youngs Moduli (GPa) = 100.78345 106.81272 53.63486
#
# Poissons Ratio (x) = 0.34932 -0.07200
# Poissons Ratio (y) = 0.32960 0.21124
# Poissons Ratio (z) = -0.13529 0.42067
#
# Static dielectric constant tensor:
#      x y z
#    x 4.927460 0.000000 0.000000 
#    y 0.000000 4.789400 0.000000 
#    z 0.000000 0.000000 4.765820 
# 
# 
# High freq. dielectric constant tensor:
#      x y z
#    x 1.993570 0.000000 0.000000 
#    y 0.000000 1.985810 0.000000 
#    z 0.000000 0.000000 1.993190 
# 
# From -- ./inp_files/8042.got.cif
#   From: 2010.03.12/outbox.cif.g09.slc.cpg/sg73_5_cif.got.tgz:8042.got - 2010.04.16 15:25:48.
