data_PCOD8296942
_publ_section_title
;
Structure prediction by ZEFSAII (Michael W. Deem and Ramdas Pophale) SiO2 
 PCOD8296942
Probable space group: I B C A 
;
_chemical_formula_sum "Si O2"
_cell_formula_units_Z 112
_cell_length_a 11.457025
_cell_length_b 13.061568
_cell_length_c 32.994838
_cell_angle_alpha 90.000000
_cell_angle_beta 90.000000
_cell_angle_gamma 90.000000
_cell_volume 4937.568990
_symmetry_space_group_name_H-M "I B C A "
_symmetry_group_IT_number 73
_symmetry_cell_setting 'orthorhombic'
loop_
_space_group_symop_operation_xyz
x,y,z
-x,1/2-y,z
x,-y,1/2-z
1/2-x,y,-z
-x,-y,-z
x,1/2+y,-z
-x,y,1/2+z
1/2+x,-y,z
1/2+x,1/2+y,1/2+z
1/2-x,-y,1/2+z
1/2+x,1/2-y,-z
-x,1/2+y,1/2-z
1/2-x,1/2-y,1/2-z
1/2+x,y,1/2-z
1/2-x,1/2+y,z
x,1/2-y,1/2+z
loop_
_atom_site_type_symbol
_atom_site_label
_atom_site_fract_x
_atom_site_fract_y
_atom_site_fract_z
Si Si1 0.316523 0.827614 0.879375
Si Si2 0.682275 0.620172 0.416411
Si Si3 0.750000 0.688773 0.500000
Si Si4 0.921742 0.593051 0.913214
Si Si5 0.369907 0.761590 0.795748
Si Si6 0.701147 0.403596 0.774101
Si Si7 0.882355 0.954528 0.860109
Si Si8 0.000000 0.250000 0.023555
O O1 0.374989 0.730030 0.902867
O O2 0.198896 0.849860 0.904396
O O3 0.289221 0.805667 0.831946
O O4 0.396321 0.929108 0.877229
O O5 0.753737 0.624588 0.458571
O O6 0.591025 0.528071 0.422590
O O7 0.767702 0.594871 0.379378
O O8 0.622889 0.747705 0.497925
O O9 0.988972 0.646808 0.950104
O O10 0.002335 0.605794 0.873599
O O11 0.500000 0.750000 0.813006
O O12 0.320665 0.649982 0.786613
O O13 0.373930 0.829828 0.755132
O O14 0.746752 0.500000 0.750000
O O15 0.623670 0.443032 0.811741
#
# Coordination Sequence:
#
# PCOD8296942 Si02
#       8
#    16  16   8  16  16  16  16   8
#     4  11  23  43  69 105 141 182 250 307 360 452
#     4  11  25  46  71 108 146 190 243 305 379 442
#     4  12  26  50  78 116 158 198 250 318 376 456
#     4  11  25  46  79 103 143 200 246 304 372 464
#     4  11  26  43  65  99 143 187 241 310 368 439
#     4  11  24  45  66 102 143 187 247 300 372 446
#     4  11  23  43  74 102 140 197 245 305 372 446
#     4  12  26  52  80 116 152 192 256 308 382 460
#
# _framework density 22.683226999999999
#
# number of rings (size 3 to 8) (size 9 to 14) (size 15 to 20)
#    0.000    0.857    5.714    0.000    2.000    5.143 
#    0.000    0.000    0.000    0.000    0.000    0.000 
#    0.000    0.000    0.000    0.000    0.000    0.000 
#
# Total GULP energy -693948.404517 kJ/mol
# GULP energy per Si atom -12391.935795 kJ/mol
# Density = 2.263160 g / cm^3
# Si number density = 22.683227 Si / 1000 Ang^3
#
#
#
# Elastic Constant Matrix: (Units=GPa)
#
#
# Indices 1 2 3 4 5 6 
#
# 1 90.5952 34.4468 14.3688 0.0000 0.0000 0.0000
# 2 34.4468 124.9307 30.1082 0.0000 0.0000 0.0000
# 3 14.3688 30.1082 108.7132 0.0000 0.0000 0.0000
# 4 0.0000 0.0000 0.0000 27.3251 0.0000 0.0000
# 5 0.0000 0.0000 0.0000 0.0000 25.4822 0.0000
# 6 0.0000 0.0000 0.0000 0.0000 0.0000 21.4575
#
#
#
# Elastic Compliance Matrix: (Units=1/GPa)
#
#
# Indices 1 2 3 4 5 6 
#
# 1 0.012386 -0.003237 -0.000741 0.000000 0.000000 0.000000
# 2 -0.003237 0.009423 -0.002182 0.000000 0.000000 0.000000
# 3 -0.000741 -0.002182 0.009901 0.000000 0.000000 0.000000
# 4 0.000000 0.000000 0.000000 0.036596 0.000000 0.000000
# 5 0.000000 0.000000 0.000000 0.000000 0.039243 0.000000
# 6 0.000000 0.000000 0.000000 0.000000 0.000000 0.046604
#
#
# Mechanical properties :
#
#
# Convention : Reuss Voigt Hill
#
# Bulk Modulus (GPa) = 51.56989 53.56519 52.56754
# Shear Modulus (GPa) = 28.91258 31.20731 30.05994
#
# Velocity S-wave (km/s) = 3.57406 3.71319 3.64429
# Velocity P-wave (km/s) = 6.31000 6.48455 6.39787
#
# Compressibility (1/GPa) = 0.01939116
#
# Stress axis : x y z
#
# Youngs Moduli (GPa) = 80.73448 106.12658 101.00326
#
# Poissons Ratio (x) = 0.34350 0.07481
# Poissons Ratio (y) = 0.26132 0.22037
# Poissons Ratio (z) = 0.05980 0.23155
#
# Static dielectric constant tensor:
#      x y z
#    x 3.825190 0.000000 0.000000 
#    y 0.000000 4.334360 0.000000 
#    z 0.000000 0.000000 4.095370 
# 
# 
# High freq. dielectric constant tensor:
#      x y z
#    x 1.877800 0.000000 0.000000 
#    y 0.000000 1.902760 0.000000 
#    z 0.000000 0.000000 1.901450 
# 
# From -- ./inp_files/34051.got.cif
#   From: 2010.03.12/outbox.cif.g09.slc.cpg/sg73_18_cif.got.tgz:34051.got - 2010.04.16 15:25:48.
