data_PCOD8296594
_publ_section_title
;
Structure prediction by ZEFSAII (Michael W. Deem and Ramdas Pophale) SiO2 
 PCOD8296594
Probable space group: I B C A 
;
_chemical_formula_sum "Si O2"
_cell_formula_units_Z 80
_cell_length_a 17.260922
_cell_length_b 14.173023
_cell_length_c 14.589330
_cell_angle_alpha 90.000000
_cell_angle_beta 90.000000
_cell_angle_gamma 90.000000
_cell_volume 3569.125587
_symmetry_space_group_name_H-M "I B C A "
_symmetry_group_IT_number 73
_symmetry_cell_setting 'orthorhombic'
loop_
_space_group_symop_operation_xyz
x,y,z
-x,1/2-y,z
x,-y,1/2-z
1/2-x,y,-z
-x,-y,-z
x,1/2+y,-z
-x,y,1/2+z
1/2+x,-y,z
1/2+x,1/2+y,1/2+z
1/2-x,-y,1/2+z
1/2+x,1/2-y,-z
-x,1/2+y,1/2-z
1/2-x,1/2-y,1/2-z
1/2+x,y,1/2-z
1/2-x,1/2+y,z
x,1/2-y,1/2+z
loop_
_atom_site_type_symbol
_atom_site_label
_atom_site_fract_x
_atom_site_fract_y
_atom_site_fract_z
Si Si1 0.433251 0.321653 0.818793
Si Si2 0.459084 0.009614 0.853730
Si Si3 0.087383 0.123215 0.878365
Si Si4 0.836641 0.989651 0.502118
Si Si5 0.338567 0.727758 0.510100
O O1 0.500000 0.250000 0.789754
O O2 0.474306 0.411369 0.865980
O O3 0.388941 0.350074 0.725253
O O4 0.370470 0.272236 0.885611
O O5 0.613021 0.961134 0.082544
O O6 0.428992 0.000000 0.750000
O O7 0.496522 0.908156 0.883240
O O8 0.132672 0.027074 0.904789
O O9 0.105265 0.208659 0.947619
O O10 0.750000 0.027461 0.500000
O O11 0.841118 0.879472 0.523202
O O12 0.250000 0.765380 0.500000
#
# Coordination Sequence:
#
# PCOD8296594 Si02
#       5
#    16  16  16  16  16
#     4  11  25  42  71 105 134 178 236 289 335 410
#     4  10  23  43  67 100 132 180 236 279 340 402
#     4  11  24  43  72  96 139 185 229 284 346 402
#     4  11  24  44  67  99 141 185 225 283 348 413
#     4  11  26  44  67 104 140 180 230 280 350 417
#
# _framework density 22.414453999999999
#
# number of rings (size 3 to 8) (size 9 to 14) (size 15 to 20)
#    0.000    1.200    2.000    2.400    8.400    0.800 
#    7.200    0.000    0.000    0.000    0.000    0.000 
#    0.000    0.000    0.000    0.000    0.000    0.000 
#
# Total GULP energy -495750.317811 kJ/mol
# GULP energy per Si atom -12393.757945 kJ/mol
# Density = 2.236344 g / cm^3
# Si number density = 22.414454 Si / 1000 Ang^3
#
#
#
# Elastic Constant Matrix: (Units=GPa)
#
#
# Indices 1 2 3 4 5 6 
#
# 1 137.7988 38.2820 101.0248 0.0000 0.0000 0.0000
# 2 38.2820 102.3863 50.2986 0.0000 0.0000 0.0000
# 3 101.0248 50.2986 161.3168 0.0000 0.0000 0.0000
# 4 0.0000 0.0000 0.0000 39.6534 0.0000 0.0000
# 5 0.0000 0.0000 0.0000 0.0000 17.3404 0.0000
# 6 0.0000 0.0000 0.0000 0.0000 0.0000 18.6048
#
#
#
# Elastic Compliance Matrix: (Units=1/GPa)
#
#
# Indices 1 2 3 4 5 6 
#
# 1 0.013513 -0.001057 -0.008133 0.000000 0.000000 0.000000
# 2 -0.001057 0.011616 -0.002960 0.000000 0.000000 0.000000
# 3 -0.008133 -0.002960 0.012215 0.000000 0.000000 0.000000
# 4 0.000000 0.000000 0.000000 0.025219 0.000000 0.000000
# 5 0.000000 0.000000 0.000000 0.000000 0.057669 0.000000
# 6 0.000000 0.000000 0.000000 0.000000 0.000000 0.053750
#
#
# Mechanical properties :
#
#
# Convention : Reuss Voigt Hill
#
# Bulk Modulus (GPa) = 76.66049 86.74585 81.70317
# Shear Modulus (GPa) = 24.67551 29.24616 26.96083
#
# Velocity S-wave (km/s) = 3.32154 3.61611 3.47195
# Velocity P-wave (km/s) = 6.99899 7.49799 7.25278
#
# Compressibility (1/GPa) = 0.01304453
#
# Stress axis : x y z
#
# Youngs Moduli (GPa) = 74.00129 86.08603 81.86474
#
# Poissons Ratio (x) = 0.09100 0.66581
# Poissons Ratio (y) = 0.07823 0.24232
# Poissons Ratio (z) = 0.60186 0.25481
#
# Static dielectric constant tensor:
#      x y z
#    x 4.017040 0.000000 0.000000 
#    y 0.000000 4.266850 0.000000 
#    z 0.000000 0.000000 3.921960 
# 
# 
# High freq. dielectric constant tensor:
#      x y z
#    x 1.867390 0.000000 0.000000 
#    y 0.000000 1.902200 0.000000 
#    z 0.000000 0.000000 1.878870 
# 
# From -- ./inp_files/23127.got.cif
#   From: 2010.03.12/outbox.cif.g09.slc.cpg/sg73_12_cif.got.tgz:23127.got - 2010.04.16 15:25:48.
