data_PCOD8296182
_publ_section_title
;
Structure prediction by ZEFSAII (Michael W. Deem and Ramdas Pophale) SiO2 
 PCOD8296182
Probable space group: I B C A 
;
_chemical_formula_sum "Si O2"
_cell_formula_units_Z 56
_cell_length_a 5.044252
_cell_length_b 13.541533
_cell_length_c 36.796235
_cell_angle_alpha 90.000000
_cell_angle_beta 90.000000
_cell_angle_gamma 90.000000
_cell_volume 2513.436925
_symmetry_space_group_name_H-M "I B C A "
_symmetry_group_IT_number 73
_symmetry_cell_setting 'orthorhombic'
loop_
_space_group_symop_operation_xyz
x,y,z
-x,1/2-y,z
x,-y,1/2-z
1/2-x,y,-z
-x,-y,-z
x,1/2+y,-z
-x,y,1/2+z
1/2+x,-y,z
1/2+x,1/2+y,1/2+z
1/2-x,-y,1/2+z
1/2+x,1/2-y,-z
-x,1/2+y,1/2-z
1/2-x,1/2-y,1/2-z
1/2+x,y,1/2-z
1/2-x,1/2+y,z
x,1/2-y,1/2+z
loop_
_atom_site_type_symbol
_atom_site_label
_atom_site_fract_x
_atom_site_fract_y
_atom_site_fract_z
Si Si1 0.750572 0.316124 0.389280
Si Si2 0.838928 0.061900 0.821617
Si Si3 0.201751 0.565491 0.459911
Si Si4 0.500000 0.250000 0.724316
O O1 0.500000 0.250000 0.377001
O O2 0.800432 0.412319 0.364237
O O3 0.731970 0.347610 0.431088
O O4 0.000000 0.250000 0.383537
O O5 0.952648 0.156298 0.801052
O O6 0.544220 0.025435 0.811266
O O7 0.250000 0.611447 0.500000
O O8 0.407110 0.476221 0.454398
O O9 0.750000 0.250000 0.750000
#
# Coordination Sequence:
#
# PCOD8296182 Si02
#       4
#    16  16  16   8
#     4  12  24  40  66  97 137 177 232 292 337 404
#     4  12  26  46  74 102 140 185 229 277 348 413
#     4  10  21  39  61  90 130 177 230 285 345 410
#     4  12  28  48  74 106 144 174 226 290 340 420
#
# _framework density 22.280251
#
# number of rings (size 3 to 8) (size 9 to 14) (size 15 to 20)
#    0.000    0.571    1.429    6.857    2.000    4.571 
#    0.000    0.000    0.000    0.000    0.000    0.000 
#    0.000    0.000    0.000    0.000    0.000    0.000 
#
# Total GULP energy -347091.688501 kJ/mol
# GULP energy per Si atom -12396.131732 kJ/mol
# Density = 2.222954 g / cm^3
# Si number density = 22.280251 Si / 1000 Ang^3
#
#
#
# Elastic Constant Matrix: (Units=GPa)
#
#
# Indices 1 2 3 4 5 6 
#
# 1 147.4008 31.5106 36.8849 0.0000 0.0000 0.0000
# 2 31.5106 82.7858 36.4619 0.0000 0.0000 0.0000
# 3 36.8849 36.4619 104.4861 0.0000 0.0000 0.0000
# 4 0.0000 0.0000 0.0000 25.4777 0.0000 0.0000
# 5 0.0000 0.0000 0.0000 0.0000 36.4567 0.0000
# 6 0.0000 0.0000 0.0000 0.0000 0.0000 36.5979
#
#
#
# Elastic Compliance Matrix: (Units=1/GPa)
#
#
# Indices 1 2 3 4 5 6 
#
# 1 0.007727 -0.002056 -0.002010 0.000000 0.000000 0.000000
# 2 -0.002056 0.014820 -0.004446 0.000000 0.000000 0.000000
# 3 -0.002010 -0.004446 0.011832 0.000000 0.000000 0.000000
# 4 0.000000 0.000000 0.000000 0.039250 0.000000 0.000000
# 5 0.000000 0.000000 0.000000 0.000000 0.027430 0.000000
# 6 0.000000 0.000000 0.000000 0.000000 0.000000 0.027324
#
#
# Mechanical properties :
#
#
# Convention : Reuss Voigt Hill
#
# Bulk Modulus (GPa) = 57.62123 60.48751 59.05437
# Shear Modulus (GPa) = 33.07078 35.02748 34.04913
#
# Velocity S-wave (km/s) = 3.85685 3.96931 3.91349
# Velocity P-wave (km/s) = 6.76402 6.94368 6.85444
#
# Compressibility (1/GPa) = 0.01735471
#
# Stress axis : x y z
#
# Youngs Moduli (GPa) = 129.42121 67.47660 84.51803
#
# Poissons Ratio (x) = 0.13870 0.16991
# Poissons Ratio (y) = 0.26604 0.37577
# Poissons Ratio (z) = 0.26018 0.30000
#
# Static dielectric constant tensor:
#      x y z
#    x 3.227120 0.000000 0.000000 
#    y 0.000000 3.831850 0.000000 
#    z 0.000000 0.000000 4.110720 
# 
# 
# High freq. dielectric constant tensor:
#      x y z
#    x 1.902470 0.000000 0.000000 
#    y 0.000000 1.869340 0.000000 
#    z 0.000000 0.000000 1.887900 
# 
# From -- ./inp_files/710.got.cif
#   From: 2010.03.12/outbox.cif.g09.slc.cpg/sg73_1_cif.got.tgz:710.got - 2010.04.16 15:25:48.
