data_PCOD8296074
_publ_section_title
;
Structure prediction by ZEFSAII (Michael W. Deem and Ramdas Pophale) SiO2 
 PCOD8296074
Probable space group: I B C A 
;
_chemical_formula_sum "Si O2"
_cell_formula_units_Z 72
_cell_length_a 17.886019
_cell_length_b 13.541418
_cell_length_c 15.032926
_cell_angle_alpha 90.000000
_cell_angle_beta 90.000000
_cell_angle_gamma 90.000000
_cell_volume 3641.005640
_symmetry_space_group_name_H-M "I B C A "
_symmetry_group_IT_number 73
_symmetry_cell_setting 'orthorhombic'
loop_
_space_group_symop_operation_xyz
x,y,z
-x,1/2-y,z
x,-y,1/2-z
1/2-x,y,-z
-x,-y,-z
x,1/2+y,-z
-x,y,1/2+z
1/2+x,-y,z
1/2+x,1/2+y,1/2+z
1/2-x,-y,1/2+z
1/2+x,1/2-y,-z
-x,1/2+y,1/2-z
1/2-x,1/2-y,1/2-z
1/2+x,y,1/2-z
1/2-x,1/2+y,z
x,1/2-y,1/2+z
loop_
_atom_site_type_symbol
_atom_site_label
_atom_site_fract_x
_atom_site_fract_y
_atom_site_fract_z
Si Si1 0.863832 0.987789 0.848457
Si Si2 0.677576 0.772822 0.105915
Si Si3 0.423980 0.296210 0.739134
Si Si4 0.156980 0.699583 0.582186
Si Si5 0.991588 0.000000 0.250000
O O1 0.841653 0.081114 0.908766
O O2 0.954303 0.978894 0.835246
O O3 0.826916 0.000000 0.750000
O O4 0.832151 0.890966 0.896365
O O5 0.642457 0.725600 0.193390
O O6 0.764558 0.747685 0.108691
O O7 0.637822 0.726023 0.019514
O O8 0.500000 0.250000 0.777672
O O9 0.406687 0.244781 0.645097
O O10 0.435199 0.412123 0.727041
#
# Coordination Sequence:
#
# PCOD8296074 Si02
#       5
#    16  16  16  16   8
#     4  10  20  43  67  89 137 173 207 274 325 368
#     4  11  25  42  68  98 132 169 219 271 322 387
#     4  12  21  42  63  95 127 173 215 261 321 383
#     4  11  25  42  68  98 132 169 219 271 322 387
#     4  10  22  38  66  96 126 172 224 254 326 390
#
# _framework density 19.774757999999999
#
# number of rings (size 3 to 8) (size 9 to 14) (size 15 to 20)
#    0.667    0.444    6.667    0.667    0.000    8.000 
#    0.000    2.222    0.000    0.000    0.000    0.000 
#    0.000    0.000    0.000    0.000    0.000    0.000 
#
# Total GULP energy -446421.784470 kJ/mol
# GULP energy per Si atom -12400.605124 kJ/mol
# Density = 1.972975 g / cm^3
# Si number density = 19.774758 Si / 1000 Ang^3
#
#
#
# Elastic Constant Matrix: (Units=GPa)
#
#
# Indices 1 2 3 4 5 6 
#
# 1 51.3268 35.4445 4.4777 0.0000 0.0000 0.0000
# 2 35.4445 173.8630 33.1231 0.0000 0.0000 0.0000
# 3 4.4777 33.1231 87.3811 0.0000 0.0000 0.0000
# 4 0.0000 0.0000 0.0000 36.9777 0.0000 0.0000
# 5 0.0000 0.0000 0.0000 0.0000 14.3851 0.0000
# 6 0.0000 0.0000 0.0000 0.0000 0.0000 35.0589
#
#
#
# Elastic Compliance Matrix: (Units=1/GPa)
#
#
# Indices 1 2 3 4 5 6 
#
# 1 0.022708 -0.004751 0.000637 0.000000 0.000000 0.000000
# 2 -0.004751 0.007193 -0.002483 0.000000 0.000000 0.000000
# 3 0.000637 -0.002483 0.012353 0.000000 0.000000 0.000000
# 4 0.000000 0.000000 0.000000 0.027043 0.000000 0.000000
# 5 0.000000 0.000000 0.000000 0.000000 0.069516 0.000000
# 6 0.000000 0.000000 0.000000 0.000000 0.000000 0.028523
#
#
# Mechanical properties :
#
#
# Convention : Reuss Voigt Hill
#
# Bulk Modulus (GPa) = 34.41091 50.96237 42.68664
# Shear Modulus (GPa) = 26.28566 33.25272 29.76919
#
# Velocity S-wave (km/s) = 3.64985 4.10515 3.88418
# Velocity P-wave (km/s) = 5.93305 6.94961 6.46135
#
# Compressibility (1/GPa) = 0.02906055
#
# Stress axis : x y z
#
# Youngs Moduli (GPa) = 44.03705 139.01892 80.95334
#
# Poissons Ratio (x) = 0.66045 -0.05159
# Poissons Ratio (y) = 0.20921 0.20103
# Poissons Ratio (z) = -0.02806 0.34522
#
# Static dielectric constant tensor:
#      x y z
#    x 3.477510 0.000000 0.000000 
#    y 0.000000 3.703670 0.000000 
#    z 0.000000 0.000000 3.644590 
# 
# 
# High freq. dielectric constant tensor:
#      x y z
#    x 1.762600 0.000000 0.000000 
#    y 0.000000 1.787170 0.000000 
#    z 0.000000 0.000000 1.757800 
# 
# From -- ./inp_files/18476.got.cif
#   From: 2010.03.12/outbox.cif.g09.slc.cpg/sg73_10_cif.got.tgz:18476.got - 2010.04.16 15:25:48.
