data_PCOD8296738
_publ_section_title
;
Structure prediction by ZEFSAII (Michael W. Deem and Ramdas Pophale) SiO2 
 PCOD8296738
Probable space group: I B C A 
;
_chemical_formula_sum "Si O2"
_cell_formula_units_Z 80
_cell_length_a 15.837120
_cell_length_b 13.642197
_cell_length_c 17.725923
_cell_angle_alpha 90.000000
_cell_angle_beta 90.000000
_cell_angle_gamma 90.000000
_cell_volume 3829.740809
_symmetry_space_group_name_H-M "I B C A "
_symmetry_group_IT_number 73
_symmetry_cell_setting 'orthorhombic'
loop_
_space_group_symop_operation_xyz
x,y,z
-x,1/2-y,z
x,-y,1/2-z
1/2-x,y,-z
-x,-y,-z
x,1/2+y,-z
-x,y,1/2+z
1/2+x,-y,z
1/2+x,1/2+y,1/2+z
1/2-x,-y,1/2+z
1/2+x,1/2-y,-z
-x,1/2+y,1/2-z
1/2-x,1/2-y,1/2-z
1/2+x,y,1/2-z
1/2-x,1/2+y,z
x,1/2-y,1/2+z
loop_
_atom_site_type_symbol
_atom_site_label
_atom_site_fract_x
_atom_site_fract_y
_atom_site_fract_z
Si Si1 0.000000 0.750000 0.840214
Si Si2 0.137257 0.683508 0.451170
Si Si3 0.250000 0.488290 0.000000
Si Si4 0.904084 0.761273 0.615996
Si Si5 0.123440 0.613307 0.751322
Si Si6 0.754023 0.851309 0.881046
O O1 0.936721 0.683893 0.889755
O O2 0.952327 0.828173 0.789557
O O3 0.174415 0.575568 0.464828
O O4 0.094709 0.716245 0.528362
O O5 0.212450 0.754292 0.423795
O O6 0.281813 0.556272 0.068474
O O7 0.862229 0.848119 0.666093
O O8 0.847242 0.662954 0.628367
O O9 0.000000 0.750000 0.644170
O O10 0.099255 0.500000 0.750000
O O11 0.208971 0.632758 0.797874
#
# Coordination Sequence:
#
# PCOD8296738 Si02
#       6
#     8  16   8  16  16  16
#     4  10  24  46  64 100 140 174 220 294 330 390
#     4  11  22  41  70  94 135 174 223 277 335 392
#     4  12  20  40  72 102 124 178 232 268 332 416
#     4  12  22  43  67  98 132 176 217 279 341 389
#     4  11  25  45  68  97 139 182 225 270 343 410
#     4  11  24  44  65  97 138 174 223 281 330 400
#
# _framework density 20.889143000000001
#
# number of rings (size 3 to 8) (size 9 to 14) (size 15 to 20)
#    0.000    0.800    6.000    1.800    0.000    1.600 
#    0.000    5.000    0.000    0.000    0.000    0.000 
#    0.000    0.000    0.000    0.000    0.000    0.000 
#
# Total GULP energy -496016.793529 kJ/mol
# GULP energy per Si atom -12400.419838 kJ/mol
# Density = 2.084160 g / cm^3
# Si number density = 20.889143 Si / 1000 Ang^3
#
#
#
# Elastic Constant Matrix: (Units=GPa)
#
#
# Indices 1 2 3 4 5 6 
#
# 1 116.8797 43.6915 30.5184 0.0000 0.0000 0.0000
# 2 43.6915 120.3528 31.5464 0.0000 0.0000 0.0000
# 3 30.5184 31.5464 94.9542 0.0000 0.0000 0.0000
# 4 0.0000 0.0000 0.0000 29.0866 0.0000 0.0000
# 5 0.0000 0.0000 0.0000 0.0000 16.4965 0.0000
# 6 0.0000 0.0000 0.0000 0.0000 0.0000 19.6659
#
#
#
# Elastic Compliance Matrix: (Units=1/GPa)
#
#
# Indices 1 2 3 4 5 6 
#
# 1 0.010328 -0.003154 -0.002272 0.000000 0.000000 0.000000
# 2 -0.003154 0.010065 -0.002330 0.000000 0.000000 0.000000
# 3 -0.002272 -0.002330 0.012036 0.000000 0.000000 0.000000
# 4 0.000000 0.000000 0.000000 0.034380 0.000000 0.000000
# 5 0.000000 0.000000 0.000000 0.000000 0.060619 0.000000
# 6 0.000000 0.000000 0.000000 0.000000 0.000000 0.050849
#
#
# Mechanical properties :
#
#
# Convention : Reuss Voigt Hill
#
# Bulk Modulus (GPa) = 59.11217 60.41103 59.76160
# Shear Modulus (GPa) = 25.07188 28.14518 26.60853
#
# Velocity S-wave (km/s) = 3.46820 3.67462 3.57290
# Velocity P-wave (km/s) = 6.66313 6.85466 6.75958
#
# Compressibility (1/GPa) = 0.01691699
#
# Stress axis : x y z
#
# Youngs Moduli (GPa) = 96.82492 99.35802 83.08689
#
# Poissons Ratio (x) = 0.31337 0.18874
# Poissons Ratio (y) = 0.30538 0.19360
# Poissons Ratio (z) = 0.21995 0.23151
#
# Static dielectric constant tensor:
#      x y z
#    x 3.790790 0.000000 0.000000 
#    y 0.000000 3.703580 0.000000 
#    z 0.000000 0.000000 3.970380 
# 
# 
# High freq. dielectric constant tensor:
#      x y z
#    x 1.816650 0.000000 0.000000 
#    y 0.000000 1.804200 0.000000 
#    z 0.000000 0.000000 1.841620 
# 
# From -- ./inp_files/22424.got.cif
#   From: 2010.03.12/outbox.cif.g09.slc.cpg/sg73_12_cif.got.tgz:22424.got - 2010.04.16 15:25:48.
