data_PCOD8296853
_publ_section_title
;
Structure prediction by ZEFSAII (Michael W. Deem and Ramdas Pophale) SiO2 
 PCOD8296853
Probable space group: I B C A 
;
_chemical_formula_sum "Si O2"
_cell_formula_units_Z 96
_cell_length_a 32.198867
_cell_length_b 29.737996
_cell_length_c 4.897614
_cell_angle_alpha 90.000000
_cell_angle_beta 90.000000
_cell_angle_gamma 90.000000
_cell_volume 4689.611246
_symmetry_space_group_name_H-M "I B C A "
_symmetry_group_IT_number 73
_symmetry_cell_setting 'orthorhombic'
loop_
_space_group_symop_operation_xyz
x,y,z
-x,1/2-y,z
x,-y,1/2-z
1/2-x,y,-z
-x,-y,-z
x,1/2+y,-z
-x,y,1/2+z
1/2+x,-y,z
1/2+x,1/2+y,1/2+z
1/2-x,-y,1/2+z
1/2+x,1/2-y,-z
-x,1/2+y,1/2-z
1/2-x,1/2-y,1/2-z
1/2+x,y,1/2-z
1/2-x,1/2+y,z
x,1/2-y,1/2+z
loop_
_atom_site_type_symbol
_atom_site_label
_atom_site_fract_x
_atom_site_fract_y
_atom_site_fract_z
Si Si1 0.278119 0.913737 0.747789
Si Si2 0.593359 0.903980 0.844812
Si Si3 0.887088 0.500000 0.750000
Si Si4 0.527895 0.831980 0.952348
Si Si5 0.829415 0.500000 0.250000
Si Si6 0.106292 0.721098 0.926346
Si Si7 0.639814 0.869098 0.316279
O O1 0.250000 0.894798 0.500000
O O2 0.301149 0.958750 0.651439
O O3 0.310921 0.876017 0.854590
O O4 0.250000 0.927082 0.000000
O O5 0.552424 0.879418 0.961500
O O6 0.613095 0.875707 0.592664
O O7 0.583406 0.956326 0.788294
O O8 0.626331 0.905980 0.091631
O O9 0.858120 0.485184 0.500628
O O10 0.512710 0.829143 0.640683
O O11 0.557673 0.792050 0.055823
O O12 0.116713 0.763599 0.733821
O O13 0.133112 0.679493 0.820980
#
# Coordination Sequence:
#
# PCOD8296853 Si02
#       7
#    16  16   8  16   8  16  16
#     4  12  23  37  58  89 128 163 199 255 318 366
#     4  11  21  39  61  85 119 170 212 245 295 361
#     4  12  20  37  62  85 118 166 220 256 282 351
#     4  11  23  39  60  90 126 153 185 245 309 363
#     4  12  22  37  56  91 126 158 206 268 302 355
#     4  11  23  40  65  92 114 151 197 246 302 369
#     4  11  22  41  61  85 123 162 207 250 304 375
#
# _framework density 20.470777999999999
#
# number of rings (size 3 to 8) (size 9 to 14) (size 15 to 20)
#    0.000    0.667    3.333    7.500    0.000    2.000 
#    0.000    0.833    0.000    3.000    0.000    0.000 
#    0.000    0.000    0.000    0.000    0.000    0.000 
#
# Total GULP energy -595071.131640 kJ/mol
# GULP energy per Si atom -12397.315242 kJ/mol
# Density = 2.042419 g / cm^3
# Si number density = 20.470778 Si / 1000 Ang^3
#
#
#
# Elastic Constant Matrix: (Units=GPa)
#
#
# Indices 1 2 3 4 5 6 
#
# 1 56.8095 20.4707 11.5640 0.0000 0.0000 0.0000
# 2 20.4707 85.7752 5.8917 0.0000 0.0000 0.0000
# 3 11.5640 5.8917 97.5970 0.0000 0.0000 0.0000
# 4 0.0000 0.0000 0.0000 29.8709 0.0000 0.0000
# 5 0.0000 0.0000 0.0000 0.0000 28.2012 0.0000
# 6 0.0000 0.0000 0.0000 0.0000 0.0000 35.2288
#
#
#
# Elastic Compliance Matrix: (Units=1/GPa)
#
#
# Indices 1 2 3 4 5 6 
#
# 1 0.019661 -0.004551 -0.002055 0.000000 0.000000 0.000000
# 2 -0.004551 0.012760 -0.000231 0.000000 0.000000 0.000000
# 3 -0.002055 -0.000231 0.010504 0.000000 0.000000 0.000000
# 4 0.000000 0.000000 0.000000 0.033477 0.000000 0.000000
# 5 0.000000 0.000000 0.000000 0.000000 0.035460 0.000000
# 6 0.000000 0.000000 0.000000 0.000000 0.000000 0.028386
#
#
# Mechanical properties :
#
#
# Convention : Reuss Voigt Hill
#
# Bulk Modulus (GPa) = 34.18683 35.11495 34.65089
# Shear Modulus (GPa) = 30.54892 32.14387 31.34640
#
# Velocity S-wave (km/s) = 3.86724 3.96691 3.91740
# Velocity P-wave (km/s) = 6.05618 6.17841 6.11760
#
# Compressibility (1/GPa) = 0.02925103
#
# Stress axis : x y z
#
# Youngs Moduli (GPa) = 50.86237 78.36756 95.20510
#
# Poissons Ratio (x) = 0.35665 0.19563
# Poissons Ratio (y) = 0.23148 0.02200
# Poissons Ratio (z) = 0.10451 0.01811
#
# Static dielectric constant tensor:
#      x y z
#    x 3.562990 0.000000 0.000000 
#    y 0.000000 3.668890 0.000000 
#    z 0.000000 0.000000 3.077230 
# 
# 
# High freq. dielectric constant tensor:
#      x y z
#    x 1.775930 0.000000 0.000000 
#    y 0.000000 1.795820 0.000000 
#    z 0.000000 0.000000 1.822130 
# 
# From -- ./inp_files/3222.got.cif
#   From: 2010.03.12/outbox.cif.g09.slc.cpg/sg73_2_cif.got.tgz:3222.got - 2010.04.16 15:25:48.
