data_PCOD8296850
_publ_section_title
;
Structure prediction by ZEFSAII (Michael W. Deem and Ramdas Pophale) SiO2 
 PCOD8296850
Probable space group: I B C A 
;
_chemical_formula_sum "Si O2"
_cell_formula_units_Z 104
_cell_length_a 18.811588
_cell_length_b 18.552662
_cell_length_c 13.692317
_cell_angle_alpha 90.000000
_cell_angle_beta 90.000000
_cell_angle_gamma 90.000000
_cell_volume 4778.687558
_symmetry_space_group_name_H-M "I B C A "
_symmetry_group_IT_number 73
_symmetry_cell_setting 'orthorhombic'
loop_
_space_group_symop_operation_xyz
x,y,z
-x,1/2-y,z
x,-y,1/2-z
1/2-x,y,-z
-x,-y,-z
x,1/2+y,-z
-x,y,1/2+z
1/2+x,-y,z
1/2+x,1/2+y,1/2+z
1/2-x,-y,1/2+z
1/2+x,1/2-y,-z
-x,1/2+y,1/2-z
1/2-x,1/2-y,1/2-z
1/2+x,y,1/2-z
1/2-x,1/2+y,z
x,1/2-y,1/2+z
loop_
_atom_site_type_symbol
_atom_site_label
_atom_site_fract_x
_atom_site_fract_y
_atom_site_fract_z
Si Si1 0.174866 0.089341 0.542200
Si Si2 0.910628 0.376755 0.715080
Si Si3 0.841932 0.927903 0.811647
Si Si4 0.915048 0.625630 0.141642
Si Si5 0.690301 0.548600 0.345032
Si Si6 0.018827 0.983168 0.389059
Si Si7 0.500000 0.750000 0.794180
O O1 0.250000 0.115732 0.500000
O O2 0.154744 0.135597 0.638641
O O3 0.116795 0.103636 0.460644
O O4 0.174880 0.003112 0.562874
O O5 0.875698 0.397519 0.820980
O O6 0.955255 0.303519 0.724725
O O7 0.955545 0.441138 0.664812
O O8 0.859704 0.866157 0.731567
O O9 0.766276 0.910610 0.863967
O O10 0.907312 0.937042 0.887557
O O11 0.832987 0.000000 0.750000
O O12 0.970593 0.560279 0.168634
O O13 0.952800 0.702482 0.132576
O O14 0.699301 0.500000 0.250000
O O15 0.000000 0.000000 0.500000
#
# Coordination Sequence:
#
# PCOD8296850 Si02
#       7
#    16  16  16  16  16  16   8
#     4  11  22  40  69 102 131 166 223 285 346 398
#     4  11  24  43  67  98 137 179 227 277 339 408
#     4   9  18  37  61  97 129 158 212 280 347 389
#     4  11  23  39  64  94 139 174 218 275 332 400
#     4   9  20  36  65  97 127 162 217 280 342 395
#     4  11  21  38  71 102 124 166 229 295 345 385
#     4  12  28  42  62  94 138 194 230 264 330 416
#
# _framework density 21.763299
#
# number of rings (size 3 to 8) (size 9 to 14) (size 15 to 20)
#    0.000    1.538    3.077    3.692    6.462    0.615 
#    0.000    3.077    0.000    0.923    0.000    0.000 
#    0.000    0.000    0.000    0.000    0.000    0.000 
#
# Total GULP energy -644374.152451 kJ/mol
# GULP energy per Si atom -12391.810624 kJ/mol
# Density = 2.171376 g / cm^3
# Si number density = 21.763299 Si / 1000 Ang^3
#
#
#
# Elastic Constant Matrix: (Units=GPa)
#
#
# Indices 1 2 3 4 5 6 
#
# 1 143.5155 51.3250 47.0467 0.0000 0.0000 0.0000
# 2 51.3250 103.1222 35.1072 0.0000 0.0000 0.0000
# 3 47.0467 35.1072 91.6594 0.0000 0.0000 0.0000
# 4 0.0000 0.0000 0.0000 19.0313 0.0000 0.0000
# 5 0.0000 0.0000 0.0000 0.0000 31.0432 0.0000
# 6 0.0000 0.0000 0.0000 0.0000 0.0000 213.2147
#
#
#
# Elastic Compliance Matrix: (Units=1/GPa)
#
#
# Indices 1 2 3 4 5 6 
#
# 1 0.009346 -0.003471 -0.003468 0.000000 0.000000 0.000000
# 2 -0.003471 0.012440 -0.002983 0.000000 0.000000 0.000000
# 3 -0.003468 -0.002983 0.013832 0.000000 0.000000 0.000000
# 4 0.000000 0.000000 0.000000 0.052545 0.000000 0.000000
# 5 0.000000 0.000000 0.000000 0.000000 0.032213 0.000000
# 6 0.000000 0.000000 0.000000 0.000000 0.000000 0.004690
#
#
# Mechanical properties :
#
#
# Convention : Reuss Voigt Hill
#
# Bulk Modulus (GPa) = 63.39160 67.25055 65.32108
# Shear Modulus (GPa) = 33.29572 66.31239 49.80406
#
# Velocity S-wave (km/s) = 3.91564 5.52594 4.78896
# Velocity P-wave (km/s) = 7.04514 8.46656 7.78834
#
# Compressibility (1/GPa) = 0.01577496
#
# Stress axis : x y z
#
# Youngs Moduli (GPa) = 106.99797 80.38291 72.29374
#
# Poissons Ratio (x) = 0.27901 0.25069
# Poissons Ratio (y) = 0.37140 0.21567
# Poissons Ratio (z) = 0.37103 0.23981
#
# Static dielectric constant tensor:
#      x y z
#    x 4.812960 0.000000 0.000000 
#    y 0.000000 3.235350 0.000000 
#    z 0.000000 0.000000 4.323550 
# 
# 
# High freq. dielectric constant tensor:
#      x y z
#    x 1.884570 0.000000 0.000000 
#    y 0.000000 1.787440 0.000000 
#    z 0.000000 0.000000 1.851100 
# 
# From -- ./inp_files/18784.got.cif
#   From: 2010.03.12/outbox.cif.g09.slc.cpg/sg73_10_cif.got.tgz:18784.got - 2010.04.16 15:25:48.
