data_PCOD8296756
_publ_section_title
;
Structure prediction by ZEFSAII (Michael W. Deem and Ramdas Pophale) SiO2 
 PCOD8296756
Probable space group: I B C A 
;
_chemical_formula_sum "Si O2"
_cell_formula_units_Z 72
_cell_length_a 30.020732
_cell_length_b 8.832426
_cell_length_c 11.928784
_cell_angle_alpha 90.000000
_cell_angle_beta 90.000000
_cell_angle_gamma 90.000000
_cell_volume 3162.987384
_symmetry_space_group_name_H-M "I B C A "
_symmetry_group_IT_number 73
_symmetry_cell_setting 'orthorhombic'
loop_
_space_group_symop_operation_xyz
x,y,z
-x,1/2-y,z
x,-y,1/2-z
1/2-x,y,-z
-x,-y,-z
x,1/2+y,-z
-x,y,1/2+z
1/2+x,-y,z
1/2+x,1/2+y,1/2+z
1/2-x,-y,1/2+z
1/2+x,1/2-y,-z
-x,1/2+y,1/2-z
1/2-x,1/2-y,1/2-z
1/2+x,y,1/2-z
1/2-x,1/2+y,z
x,1/2-y,1/2+z
loop_
_atom_site_type_symbol
_atom_site_label
_atom_site_fract_x
_atom_site_fract_y
_atom_site_fract_z
Si Si1 0.887932 0.764904 0.593248
Si Si2 0.250000 0.427705 0.000000
Si Si3 0.588894 0.000000 0.750000
Si Si4 0.468104 0.627260 0.550362
Si Si5 0.354858 0.500000 0.250000
Si Si6 0.810648 0.313397 0.083069
O O1 0.883352 0.634135 0.689079
O O2 0.936788 0.782050 0.538577
O O3 0.850185 0.734674 0.500492
O O4 0.882764 0.932448 0.646852
O O5 0.210595 0.526306 0.950794
O O6 0.273089 0.316710 0.908128
O O7 0.560455 0.933463 0.650897
O O8 0.500000 0.750000 0.605973
O O9 0.500000 0.500000 0.500000
O O10 0.327946 0.648359 0.207145
#
# Coordination Sequence:
#
# PCOD8296756 Si02
#       6
#    16   8   8  16   8  16
#     4  12  27  49  72 107 146 189 245 294 360 431
#     4  10  24  46  74 100 154 180 236 312 348 420
#     4  12  28  45  77 102 140 200 228 300 363 431
#     4  12  28  49  71 105 145 186 243 302 353 426
#     4  12  26  43  81 100 142 202 232 290 365 437
#     4  11  24  49  68 109 144 189 239 301 353 431
#
# _framework density 22.763289
#
# number of rings (size 3 to 8) (size 9 to 14) (size 15 to 20)
#    0.000    0.444    4.444    2.667    9.333    0.889 
#    0.000    0.000    0.000    0.000    0.000    0.000 
#    0.000    0.000    0.000    0.000    0.000    0.000 
#
# Total GULP energy -446056.481390 kJ/mol
# GULP energy per Si atom -12390.457816 kJ/mol
# Density = 2.271148 g / cm^3
# Si number density = 22.763289 Si / 1000 Ang^3
#
#
#
# Elastic Constant Matrix: (Units=GPa)
#
#
# Indices 1 2 3 4 5 6 
#
# 1 103.0654 44.9835 26.8376 0.0000 0.0000 0.0000
# 2 44.9835 120.5835 25.7763 0.0000 0.0000 0.0000
# 3 26.8376 25.7763 83.4740 0.0000 0.0000 0.0000
# 4 0.0000 0.0000 0.0000 51.0892 0.0000 0.0000
# 5 0.0000 0.0000 0.0000 0.0000 34.6810 0.0000
# 6 0.0000 0.0000 0.0000 0.0000 0.0000 49.4921
#
#
#
# Elastic Compliance Matrix: (Units=1/GPa)
#
#
# Indices 1 2 3 4 5 6 
#
# 1 0.012124 -0.003950 -0.002678 0.000000 0.000000 0.000000
# 2 -0.003950 0.010166 -0.001869 0.000000 0.000000 0.000000
# 3 -0.002678 -0.001869 0.013418 0.000000 0.000000 0.000000
# 4 0.000000 0.000000 0.000000 0.019574 0.000000 0.000000
# 5 0.000000 0.000000 0.000000 0.000000 0.028834 0.000000
# 6 0.000000 0.000000 0.000000 0.000000 0.000000 0.020205
#
#
# Mechanical properties :
#
#
# Convention : Reuss Voigt Hill
#
# Bulk Modulus (GPa) = 53.43901 55.81308 54.62604
# Shear Modulus (GPa) = 39.19890 41.02083 40.10987
#
# Velocity S-wave (km/s) = 4.15423 4.24967 4.20222
# Velocity P-wave (km/s) = 6.82181 6.97508 6.89887
#
# Compressibility (1/GPa) = 0.01871292
#
# Stress axis : x y z
#
# Youngs Moduli (GPa) = 82.48023 98.36460 74.52667
#
# Poissons Ratio (x) = 0.38858 0.19959
# Poissons Ratio (y) = 0.32583 0.13930
# Poissons Ratio (z) = 0.22089 0.18386
#
# Static dielectric constant tensor:
#      x y z
#    x 4.196500 0.000000 0.000000 
#    y 0.000000 5.182700 0.000000 
#    z 0.000000 0.000000 4.245820 
# 
# 
# High freq. dielectric constant tensor:
#      x y z
#    x 1.905640 0.000000 0.000000 
#    y 0.000000 1.928900 0.000000 
#    z 0.000000 0.000000 1.886080 
# 
# From -- ./inp_files/19693.got.cif
#   From: 2010.03.12/outbox.cif.g09.slc.cpg/sg73_10_cif.got.tgz:19693.got - 2010.04.16 15:25:48.
