data_PCOD8296917
_publ_section_title
;
Structure prediction by ZEFSAII (Michael W. Deem and Ramdas Pophale) SiO2 
 PCOD8296917
Probable space group: I B C A 
;
_chemical_formula_sum "Si O2"
_cell_formula_units_Z 80
_cell_length_a 9.359665
_cell_length_b 16.077164
_cell_length_c 26.092057
_cell_angle_alpha 90.000000
_cell_angle_beta 90.000000
_cell_angle_gamma 90.000000
_cell_volume 3926.251048
_symmetry_space_group_name_H-M "I B C A "
_symmetry_group_IT_number 73
_symmetry_cell_setting 'orthorhombic'
loop_
_space_group_symop_operation_xyz
x,y,z
-x,1/2-y,z
x,-y,1/2-z
1/2-x,y,-z
-x,-y,-z
x,1/2+y,-z
-x,y,1/2+z
1/2+x,-y,z
1/2+x,1/2+y,1/2+z
1/2-x,-y,1/2+z
1/2+x,1/2-y,-z
-x,1/2+y,1/2-z
1/2-x,1/2-y,1/2-z
1/2+x,y,1/2-z
1/2-x,1/2+y,z
x,1/2-y,1/2+z
loop_
_atom_site_type_symbol
_atom_site_label
_atom_site_fract_x
_atom_site_fract_y
_atom_site_fract_z
Si Si1 0.488974 0.156200 0.886424
Si Si2 0.015759 0.346598 0.790337
Si Si3 0.123251 0.027051 0.036851
Si Si4 0.698359 0.592665 0.698091
Si Si5 0.707784 0.925300 0.366004
O O1 0.500000 0.250000 0.905247
O O2 0.427428 0.108711 0.934667
O O3 0.373354 0.156887 0.841101
O O4 0.635428 0.114731 0.866476
O O5 0.109873 0.399386 0.750320
O O6 0.093051 0.357136 0.845827
O O7 0.000000 0.250000 0.775567
O O8 0.860248 0.385162 0.790816
O O9 0.165843 0.954242 0.076816
O O10 0.250000 0.053202 0.000000
O O11 0.000000 0.000000 0.000000
O O12 0.697523 0.501109 0.673935
#
# Coordination Sequence:
#
# PCOD8296917 Si02
#       5
#    16  16  16  16  16
#     4  11  23  43  66  97 130 172 217 282 338 390
#     4  12  24  40  63 100 133 171 211 274 326 386
#     4  11  23  45  69  91 127 171 222 276 330 401
#     4  11  23  40  65  92 134 176 218 258 324 399
#     4  11  24  42  67  92 129 173 222 265 325 401
#
# _framework density 20.375671000000001
#
# number of rings (size 3 to 8) (size 9 to 14) (size 15 to 20)
#    0.000    0.800    2.000    6.600    2.800    1.600 
#    3.600    0.000    0.000    0.000    0.000    0.000 
#    0.000    0.000    0.000    0.000    0.000    0.000 
#
# Total GULP energy -496020.907432 kJ/mol
# GULP energy per Si atom -12400.522686 kJ/mol
# Density = 2.032930 g / cm^3
# Si number density = 20.375671 Si / 1000 Ang^3
#
#
#
# Elastic Constant Matrix: (Units=GPa)
#
#
# Indices 1 2 3 4 5 6 
#
# 1 179.4821 35.1862 74.7369 0.0000 0.0000 0.0000
# 2 35.1862 75.2071 44.2819 0.0000 0.0000 0.0000
# 3 74.7369 44.2819 129.0184 0.0000 0.0000 0.0000
# 4 0.0000 0.0000 0.0000 14.6214 0.0000 0.0000
# 5 0.0000 0.0000 0.0000 0.0000 22.6191 0.0000
# 6 0.0000 0.0000 0.0000 0.0000 0.0000 25.7377
#
#
#
# Elastic Compliance Matrix: (Units=1/GPa)
#
#
# Indices 1 2 3 4 5 6 
#
# 1 0.007425 -0.001180 -0.003896 0.000000 0.000000 0.000000
# 2 -0.001180 0.016852 -0.005100 0.000000 0.000000 0.000000
# 3 -0.003896 -0.005100 0.011758 0.000000 0.000000 0.000000
# 4 0.000000 0.000000 0.000000 0.068393 0.000000 0.000000
# 5 0.000000 0.000000 0.000000 0.000000 0.044210 0.000000
# 6 0.000000 0.000000 0.000000 0.000000 0.000000 0.038854
#
#
# Mechanical properties :
#
#
# Convention : Reuss Voigt Hill
#
# Bulk Modulus (GPa) = 63.76616 76.90196 70.33406
# Shear Modulus (GPa) = 23.46614 27.89582 25.68098
#
# Velocity S-wave (km/s) = 3.39731 3.70412 3.55403
# Velocity P-wave (km/s) = 6.83756 7.49119 7.17182
#
# Compressibility (1/GPa) = 0.01568230
#
# Stress axis : x y z
#
# Youngs Moduli (GPa) = 134.67401 59.34109 85.04511
#
# Poissons Ratio (x) = 0.07001 0.33137
# Poissons Ratio (y) = 0.15889 0.43377
# Poissons Ratio (z) = 0.52474 0.30267
#
# Static dielectric constant tensor:
#      x y z
#    x 3.981990 0.000000 0.000000 
#    y 0.000000 3.652920 0.000000 
#    z 0.000000 0.000000 3.834650 
# 
# 
# High freq. dielectric constant tensor:
#      x y z
#    x 1.819650 0.000000 0.000000 
#    y 0.000000 1.792900 0.000000 
#    z 0.000000 0.000000 1.805420 
# 
# From -- ./inp_files/5584.got.cif
#   From: 2010.03.12/outbox.cif.g09.slc.cpg/sg73_3_cif.got.tgz:5584.got - 2010.04.16 15:25:48.
