data_PCOD8296747
_publ_section_title
;
Structure prediction by ZEFSAII (Michael W. Deem and Ramdas Pophale) SiO2 
 PCOD8296747
Probable space group: I B C A 
;
_chemical_formula_sum "Si O2"
_cell_formula_units_Z 80
_cell_length_a 20.228392
_cell_length_b 12.892088
_cell_length_c 14.078729
_cell_angle_alpha 90.000000
_cell_angle_beta 90.000000
_cell_angle_gamma 90.000000
_cell_volume 3671.538374
_symmetry_space_group_name_H-M "I B C A "
_symmetry_group_IT_number 73
_symmetry_cell_setting 'orthorhombic'
loop_
_space_group_symop_operation_xyz
x,y,z
-x,1/2-y,z
x,-y,1/2-z
1/2-x,y,-z
-x,-y,-z
x,1/2+y,-z
-x,y,1/2+z
1/2+x,-y,z
1/2+x,1/2+y,1/2+z
1/2-x,-y,1/2+z
1/2+x,1/2-y,-z
-x,1/2+y,1/2-z
1/2-x,1/2-y,1/2-z
1/2+x,y,1/2-z
1/2-x,1/2+y,z
x,1/2-y,1/2+z
loop_
_atom_site_type_symbol
_atom_site_label
_atom_site_fract_x
_atom_site_fract_y
_atom_site_fract_z
Si Si1 0.250000 0.844365 0.000000
Si Si2 0.844711 0.323246 0.049611
Si Si3 0.754378 0.979923 0.146774
Si Si4 0.568376 0.787027 0.220536
Si Si5 0.898838 0.108439 0.364921
Si Si6 0.005410 0.000000 0.250000
O O1 0.313559 0.770424 0.989035
O O2 0.258146 0.909996 0.095206
O O3 0.789618 0.405784 0.081206
O O4 0.875609 0.272900 0.142733
O O5 0.898652 0.376206 0.979467
O O6 0.826569 0.931664 0.164438
O O7 0.721790 0.000000 0.250000
O O8 0.500000 0.750000 0.174338
O O9 0.585926 0.717500 0.312275
O O10 0.557751 0.907638 0.241935
O O11 0.955580 0.023902 0.338590
#
# Coordination Sequence:
#
# PCOD8296747 Si02
#       6
#     8  16  16  16  16   8
#     4  12  24  42  68 108 144 174 244 284 368 444
#     4  12  26  43  69 110 138 181 243 291 366 426
#     4  12  25  43  70 105 139 192 225 295 369 429
#     4  10  26  44  67  99 139 189 240 291 347 423
#     4  11  22  47  69  97 148 176 235 297 353 419
#     4  10  24  46  70 102 134 198 240 276 358 412
#
# _framework density 21.78923
#
# number of rings (size 3 to 8) (size 9 to 14) (size 15 to 20)
#    0.000    0.800    5.000    1.200    7.000    4.800 
#    0.000    0.000    0.000    0.000    0.000    0.000 
#    0.000    0.000    0.000    0.000    0.000    0.000 
#
# Total GULP energy -495847.258796 kJ/mol
# GULP energy per Si atom -12396.181470 kJ/mol
# Density = 2.173964 g / cm^3
# Si number density = 21.789230 Si / 1000 Ang^3
#
#
#
# Elastic Constant Matrix: (Units=GPa)
#
#
# Indices 1 2 3 4 5 6 
#
# 1 85.3647 38.2573 27.2791 0.0000 0.0000 0.0000
# 2 38.2573 126.3383 37.8073 0.0000 0.0000 0.0000
# 3 27.2791 37.8073 115.5817 0.0000 0.0000 0.0000
# 4 0.0000 0.0000 0.0000 26.3595 0.0000 0.0000
# 5 0.0000 0.0000 0.0000 0.0000 30.8177 0.0000
# 6 0.0000 0.0000 0.0000 0.0000 0.0000 29.8844
#
#
#
# Elastic Compliance Matrix: (Units=1/GPa)
#
#
# Indices 1 2 3 4 5 6 
#
# 1 0.014010 -0.003606 -0.002127 0.000000 0.000000 0.000000
# 2 -0.003606 0.009702 -0.002323 0.000000 0.000000 0.000000
# 3 -0.002127 -0.002323 0.009914 0.000000 0.000000 0.000000
# 4 0.000000 0.000000 0.000000 0.037937 0.000000 0.000000
# 5 0.000000 0.000000 0.000000 0.000000 0.032449 0.000000
# 6 0.000000 0.000000 0.000000 0.000000 0.000000 0.033462
#
#
# Mechanical properties :
#
#
# Convention : Reuss Voigt Hill
#
# Bulk Modulus (GPa) = 57.09456 59.33024 58.21240
# Shear Modulus (GPa) = 31.36293 32.34173 31.85233
#
# Velocity S-wave (km/s) = 3.79803 3.85684 3.82755
# Velocity P-wave (km/s) = 6.74488 6.86454 6.80497
#
# Compressibility (1/GPa) = 0.01751480
#
# Stress axis : x y z
#
# Youngs Moduli (GPa) = 71.37628 103.06887 100.87110
#
# Poissons Ratio (x) = 0.37167 0.21456
# Poissons Ratio (y) = 0.25738 0.23428
# Poissons Ratio (z) = 0.15182 0.23939
#
# Static dielectric constant tensor:
#      x y z
#    x 3.979940 0.000000 0.000000 
#    y 0.000000 4.212370 0.000000 
#    z 0.000000 0.000000 3.932360 
# 
# 
# High freq. dielectric constant tensor:
#      x y z
#    x 1.855470 0.000000 0.000000 
#    y 0.000000 1.871200 0.000000 
#    z 0.000000 0.000000 1.851070 
# 
# From -- ./inp_files/19206.got.cif
#   From: 2010.03.12/outbox.cif.g09.slc.cpg/sg73_10_cif.got.tgz:19206.got - 2010.04.16 15:25:48.
