data_PCOD8296235
_publ_section_title
;
Structure prediction by ZEFSAII (Michael W. Deem and Ramdas Pophale) SiO2 
 PCOD8296235
Probable space group: I B C A 
;
_chemical_formula_sum "Si O2"
_cell_formula_units_Z 104
_cell_length_a 19.105097
_cell_length_b 14.275772
_cell_length_c 18.198806
_cell_angle_alpha 90.000000
_cell_angle_beta 90.000000
_cell_angle_gamma 90.000000
_cell_volume 4963.542509
_symmetry_space_group_name_H-M "I B C A "
_symmetry_group_IT_number 73
_symmetry_cell_setting 'orthorhombic'
loop_
_space_group_symop_operation_xyz
x,y,z
-x,1/2-y,z
x,-y,1/2-z
1/2-x,y,-z
-x,-y,-z
x,1/2+y,-z
-x,y,1/2+z
1/2+x,-y,z
1/2+x,1/2+y,1/2+z
1/2-x,-y,1/2+z
1/2+x,1/2-y,-z
-x,1/2+y,1/2-z
1/2-x,1/2-y,1/2-z
1/2+x,y,1/2-z
1/2-x,1/2+y,z
x,1/2-y,1/2+z
loop_
_atom_site_type_symbol
_atom_site_label
_atom_site_fract_x
_atom_site_fract_y
_atom_site_fract_z
Si Si1 0.260602 0.181835 0.916437
Si Si2 0.835740 0.843146 0.339539
Si Si3 0.276663 0.536291 0.418767
Si Si4 0.563735 0.477936 0.397700
Si Si5 0.000000 0.250000 0.890462
Si Si6 0.569200 0.066635 0.063248
Si Si7 0.129198 0.843879 0.672007
O O1 0.320484 0.243350 0.877144
O O2 0.186278 0.202989 0.880239
O O3 0.282206 0.074479 0.907552
O O4 0.250000 0.213546 0.000000
O O5 0.775629 0.917635 0.360753
O O6 0.912583 0.876820 0.367549
O O7 0.838329 0.837669 0.252444
O O8 0.250000 0.562540 0.500000
O O9 0.354043 0.577452 0.402114
O O10 0.481053 0.499655 0.386356
O O11 0.579606 0.483007 0.484570
O O12 0.613164 0.550728 0.354311
O O13 0.029505 0.333005 0.942645
O O14 0.059277 0.216410 0.834510
#
# Coordination Sequence:
#
# PCOD8296235 Si02
#       7
#    16  16  16  16   8  16  16
#     4  11  24  39  67 101 132 169 230 286 330 400
#     4  12  23  40  69  95 135 182 221 273 344 408
#     4  11  21  41  68 100 137 171 224 287 340 395
#     4  10  21  40  66  92 129 176 219 271 335 398
#     4  10  24  42  70  90 138 178 226 272 342 408
#     4  10  21  42  66 100 128 175 229 279 334 396
#     4  11  23  45  65  94 137 181 213 278 349 402
#
# _framework density 20.952777000000001
#
# number of rings (size 3 to 8) (size 9 to 14) (size 15 to 20)
#    0.000    1.231    3.077    3.231    2.154    0.000 
#    2.769    0.000    3.385    0.000    0.000    0.000 
#    0.000    0.000    0.000    0.000    0.000    0.000 
#
# Total GULP energy -644751.987661 kJ/mol
# GULP energy per Si atom -12399.076686 kJ/mol
# Density = 2.090509 g / cm^3
# Si number density = 20.952777 Si / 1000 Ang^3
#
#
#
# Elastic Constant Matrix: (Units=GPa)
#
#
# Indices 1 2 3 4 5 6 
#
# 1 138.2605 44.1110 50.1039 0.0000 0.0000 0.0000
# 2 44.1110 98.6106 40.5521 0.0000 0.0000 0.0000
# 3 50.1039 40.5521 142.2824 0.0000 0.0000 0.0000
# 4 0.0000 0.0000 0.0000 12.2033 0.0000 0.0000
# 5 0.0000 0.0000 0.0000 0.0000 31.5288 0.0000
# 6 0.0000 0.0000 0.0000 0.0000 0.0000 23.7481
#
#
#
# Elastic Compliance Matrix: (Units=1/GPa)
#
#
# Indices 1 2 3 4 5 6 
#
# 1 0.009058 -0.003104 -0.002305 0.000000 0.000000 0.000000
# 2 -0.003104 0.012551 -0.002484 0.000000 0.000000 0.000000
# 3 -0.002305 -0.002484 0.008548 0.000000 0.000000 0.000000
# 4 0.000000 0.000000 0.000000 0.081945 0.000000 0.000000
# 5 0.000000 0.000000 0.000000 0.000000 0.031717 0.000000
# 6 0.000000 0.000000 0.000000 0.000000 0.000000 0.042109
#
#
# Mechanical properties :
#
#
# Convention : Reuss Voigt Hill
#
# Bulk Modulus (GPa) = 69.58589 72.07639 70.83114
# Shear Modulus (GPa) = 24.21250 29.78848 27.00049
#
# Velocity S-wave (km/s) = 3.40306 3.77463 3.59365
# Velocity P-wave (km/s) = 6.98026 7.31240 7.14826
#
# Compressibility (1/GPa) = 0.01437073
#
# Stress axis : x y z
#
# Youngs Moduli (GPa) = 110.39438 79.67511 116.98623
#
# Poissons Ratio (x) = 0.24732 0.26967
# Poissons Ratio (y) = 0.34268 0.29060
# Poissons Ratio (z) = 0.25448 0.19792
#
# Static dielectric constant tensor:
#      x y z
#    x 4.149390 0.000000 0.000000 
#    y 0.000000 3.878320 0.000000 
#    z 0.000000 0.000000 3.553590 
# 
# 
# High freq. dielectric constant tensor:
#      x y z
#    x 1.833020 0.000000 0.000000 
#    y 0.000000 1.825520 0.000000 
#    z 0.000000 0.000000 1.798670 
# 
# From -- ./inp_files/23204.got.cif
#   From: 2010.03.12/outbox.cif.g09.slc.cpg/sg73_12_cif.got.tgz:23204.got - 2010.04.16 15:25:48.
