data_PCOD8296599
_publ_section_title
;
Structure prediction by ZEFSAII (Michael W. Deem and Ramdas Pophale) SiO2 
 PCOD8296599
Probable space group: I B C A 
;
_chemical_formula_sum "Si O2"
_cell_formula_units_Z 88
_cell_length_a 18.097173
_cell_length_b 15.832544
_cell_length_c 14.610521
_cell_angle_alpha 90.000000
_cell_angle_beta 90.000000
_cell_angle_gamma 90.000000
_cell_volume 4186.269124
_symmetry_space_group_name_H-M "I B C A "
_symmetry_group_IT_number 73
_symmetry_cell_setting 'orthorhombic'
loop_
_space_group_symop_operation_xyz
x,y,z
-x,1/2-y,z
x,-y,1/2-z
1/2-x,y,-z
-x,-y,-z
x,1/2+y,-z
-x,y,1/2+z
1/2+x,-y,z
1/2+x,1/2+y,1/2+z
1/2-x,-y,1/2+z
1/2+x,1/2-y,-z
-x,1/2+y,1/2-z
1/2-x,1/2-y,1/2-z
1/2+x,y,1/2-z
1/2-x,1/2+y,z
x,1/2-y,1/2+z
loop_
_atom_site_type_symbol
_atom_site_label
_atom_site_fract_x
_atom_site_fract_y
_atom_site_fract_z
Si Si1 0.249066 0.500000 0.250000
Si Si2 0.180549 0.507844 0.941029
Si Si3 0.813041 0.182052 0.228786
Si Si4 0.462187 0.087015 0.981737
Si Si5 0.921770 0.715760 0.617515
Si Si6 0.114402 0.342973 0.036312
O O1 0.297486 0.481828 0.160638
O O2 0.202911 0.413783 0.262485
O O3 0.114041 0.575669 0.924804
O O4 0.250000 0.544832 0.000000
O O5 0.149612 0.428003 0.996391
O O6 0.750000 0.250000 0.250000
O O7 0.880101 0.214724 0.288006
O O8 0.837028 0.184834 0.122912
O O9 0.526631 0.145872 0.936737
O O10 0.434587 0.122265 0.078771
O O11 0.500000 0.000000 0.000000
O O12 0.879465 0.770955 0.540461
O O13 0.000000 0.750000 0.646185
#
# Coordination Sequence:
#
# PCOD8296599 Si02
#       6
#     8  16  16  16  16  16
#     4  12  26  42  68 106 134 182 234 280 358 420
#     4  11  21  42  67  96 140 175 228 290 345 417
#     4  12  27  45  71 106 142 187 236 288 362 419
#     4   9  21  42  67  97 130 183 226 281 355 411
#     4  10  23  43  69  97 135 183 239 283 353 425
#     4  10  23  46  67  95 147 178 227 302 345 411
#
# _framework density 21.021104999999999
#
# number of rings (size 3 to 8) (size 9 to 14) (size 15 to 20)
#    0.000    1.455    1.818    2.182    5.091    2.182 
#    9.818    0.000    0.000    0.000    0.000    0.000 
#    0.000    0.000    0.000    0.000    0.000    0.000 
#
# Total GULP energy -545203.297375 kJ/mol
# GULP energy per Si atom -12390.984031 kJ/mol
# Density = 2.097326 g / cm^3
# Si number density = 21.021105 Si / 1000 Ang^3
#
#
#
# Elastic Constant Matrix: (Units=GPa)
#
#
# Indices 1 2 3 4 5 6 
#
# 1 122.5975 28.2533 61.4971 0.0000 0.0000 0.0000
# 2 28.2533 89.3930 27.0971 0.0000 0.0000 0.0000
# 3 61.4971 27.0971 137.0283 0.0000 0.0000 0.0000
# 4 0.0000 0.0000 0.0000 3.7838 0.0000 0.0000
# 5 0.0000 0.0000 0.0000 0.0000 20.0676 0.0000
# 6 0.0000 0.0000 0.0000 0.0000 0.0000 32.5023
#
#
#
# Elastic Compliance Matrix: (Units=1/GPa)
#
#
# Indices 1 2 3 4 5 6 
#
# 1 0.010879 -0.002083 -0.004471 0.000000 0.000000 0.000000
# 2 -0.002083 0.012299 -0.001497 0.000000 0.000000 0.000000
# 3 -0.004471 -0.001497 0.009600 0.000000 0.000000 0.000000
# 4 0.000000 0.000000 0.000000 0.264287 0.000000 0.000000
# 5 0.000000 0.000000 0.000000 0.000000 0.049832 0.000000
# 6 0.000000 0.000000 0.000000 0.000000 0.000000 0.030767
#
#
# Mechanical properties :
#
#
# Convention : Reuss Voigt Hill
#
# Bulk Modulus (GPa) = 59.96529 64.74599 62.35564
# Shear Modulus (GPa) = 12.52114 26.74881 19.63498
#
# Velocity S-wave (km/s) = 2.44323 3.57105 3.05956
# Velocity P-wave (km/s) = 6.04544 6.91885 6.49684
#
# Compressibility (1/GPa) = 0.01667631
#
# Stress axis : x y z
#
# Youngs Moduli (GPa) = 91.91644 81.30865 104.16468
#
# Poissons Ratio (x) = 0.16940 0.46568
# Poissons Ratio (y) = 0.19150 0.15594
# Poissons Ratio (z) = 0.41092 0.12172
#
# Static dielectric constant tensor:
#      x y z
#    x 4.592790 0.000000 0.000000 
#    y 0.000000 4.175290 0.000000 
#    z 0.000000 0.000000 3.753140 
# 
# 
# High freq. dielectric constant tensor:
#      x y z
#    x 1.844050 0.000000 0.000000 
#    y 0.000000 1.830210 0.000000 
#    z 0.000000 0.000000 1.808860 
# 
# From -- ./inp_files/17961.got.cif
#   From: 2010.03.12/outbox.cif.g09.slc.cpg/sg73_9_cif.got.tgz:17961.got - 2010.04.16 15:25:48.
