data_PCOD8296750
_publ_section_title
;
Structure prediction by ZEFSAII (Michael W. Deem and Ramdas Pophale) SiO2 
 PCOD8296750
Probable space group: I B C A 
;
_chemical_formula_sum "Si O2"
_cell_formula_units_Z 56
_cell_length_a 9.590844
_cell_length_b 8.896509
_cell_length_c 27.711604
_cell_angle_alpha 90.000000
_cell_angle_beta 90.000000
_cell_angle_gamma 90.000000
_cell_volume 2364.493442
_symmetry_space_group_name_H-M "I B C A "
_symmetry_group_IT_number 73
_symmetry_cell_setting 'orthorhombic'
loop_
_space_group_symop_operation_xyz
x,y,z
-x,1/2-y,z
x,-y,1/2-z
1/2-x,y,-z
-x,-y,-z
x,1/2+y,-z
-x,y,1/2+z
1/2+x,-y,z
1/2+x,1/2+y,1/2+z
1/2-x,-y,1/2+z
1/2+x,1/2-y,-z
-x,1/2+y,1/2-z
1/2-x,1/2-y,1/2-z
1/2+x,y,1/2-z
1/2-x,1/2+y,z
x,1/2-y,1/2+z
loop_
_atom_site_type_symbol
_atom_site_label
_atom_site_fract_x
_atom_site_fract_y
_atom_site_fract_z
Si Si1 0.150692 0.747763 0.933256
Si Si2 0.250000 0.997094 0.500000
Si Si3 0.701106 0.675857 0.339861
Si Si4 0.435211 0.966565 0.804257
O O1 0.144770 0.610439 0.970990
O O2 0.276772 0.729310 0.894913
O O3 0.000000 0.750000 0.907197
O O4 0.168491 0.903331 0.961338
O O5 0.660345 0.817213 0.306479
O O6 0.846774 0.607433 0.322515
O O7 0.574568 0.554702 0.336865
O O8 0.483854 0.000000 0.750000
#
# Coordination Sequence:
#
# PCOD8296750 Si02
#       4
#    16   8  16  16
#     4  11  24  45  72 106 147 187 242 291 365 428
#     4  10  24  46  70 108 140 194 234 298 358 434
#     4  11  26  44  74 107 143 190 237 302 355 433
#     4  11  25  47  71 106 143 188 241 295 361 429
#
# _framework density 23.683720999999998
#
# number of rings (size 3 to 8) (size 9 to 14) (size 15 to 20)
#    0.000    1.143    0.000    4.286    8.000    2.286 
#   20.571    0.000    0.000    0.000    0.000    0.000 
#    0.000    0.000    0.000    0.000    0.000    0.000 
#
# Total GULP energy -347245.757558 kJ/mol
# GULP energy per Si atom -12401.634199 kJ/mol
# Density = 2.362982 g / cm^3
# Si number density = 23.683721 Si / 1000 Ang^3
#
#
#
# Elastic Constant Matrix: (Units=GPa)
#
#
# Indices 1 2 3 4 5 6 
#
# 1 129.4350 34.1912 59.4472 0.0000 0.0000 0.0000
# 2 34.1912 97.9571 45.4658 0.0000 0.0000 0.0000
# 3 59.4472 45.4658 120.1560 0.0000 0.0000 0.0000
# 4 0.0000 0.0000 0.0000 9.5982 0.0000 0.0000
# 5 0.0000 0.0000 0.0000 0.0000 25.9061 0.0000
# 6 0.0000 0.0000 0.0000 0.0000 0.0000 36.1987
#
#
#
# Elastic Compliance Matrix: (Units=1/GPa)
#
#
# Indices 1 2 3 4 5 6 
#
# 1 0.010170 -0.001473 -0.004474 0.000000 0.000000 0.000000
# 2 -0.001473 0.012597 -0.004038 0.000000 0.000000 0.000000
# 3 -0.004474 -0.004038 0.012064 0.000000 0.000000 0.000000
# 4 0.000000 0.000000 0.000000 0.104186 0.000000 0.000000
# 5 0.000000 0.000000 0.000000 0.000000 0.038601 0.000000
# 6 0.000000 0.000000 0.000000 0.000000 0.000000 0.027625
#
#
# Mechanical properties :
#
#
# Convention : Reuss Voigt Hill
#
# Bulk Modulus (GPa) = 67.29139 69.52849 68.40994
# Shear Modulus (GPa) = 21.72345 28.23687 24.98016
#
# Velocity S-wave (km/s) = 3.03187 3.45664 3.25120
# Velocity P-wave (km/s) = 6.38204 6.73439 6.56058
#
# Compressibility (1/GPa) = 0.01486074
#
# Stress axis : x y z
#
# Youngs Moduli (GPa) = 98.32919 79.38546 82.89184
#
# Poissons Ratio (x) = 0.11694 0.37087
# Poissons Ratio (y) = 0.14485 0.33469
# Poissons Ratio (z) = 0.43994 0.32053
#
# Static dielectric constant tensor:
#      x y z
#    x 4.135250 0.000000 0.000000 
#    y 0.000000 4.462620 0.000000 
#    z 0.000000 0.000000 1.590010 
# 
# 
# High freq. dielectric constant tensor:
#      x y z
#    x 1.936770 0.000000 0.000000 
#    y 0.000000 1.953720 0.000000 
#    z 0.000000 0.000000 1.932870 
# 
# From -- ./inp_files/33749.got.cif
#   From: 2010.03.12/outbox.cif.g09.slc.cpg/sg73_17_cif.got.tgz:33749.got - 2010.04.16 15:25:48.
