data_PCOD8296877
_publ_section_title
;
Structure prediction by ZEFSAII (Michael W. Deem and Ramdas Pophale) SiO2 
 PCOD8296877
Probable space group: I B C A 
;
_chemical_formula_sum "Si O2"
_cell_formula_units_Z 88
_cell_length_a 11.001105
_cell_length_b 16.386528
_cell_length_c 21.907666
_cell_angle_alpha 90.000000
_cell_angle_beta 90.000000
_cell_angle_gamma 90.000000
_cell_volume 3949.293090
_symmetry_space_group_name_H-M "I B C A "
_symmetry_group_IT_number 73
_symmetry_cell_setting 'orthorhombic'
loop_
_space_group_symop_operation_xyz
x,y,z
-x,1/2-y,z
x,-y,1/2-z
1/2-x,y,-z
-x,-y,-z
x,1/2+y,-z
-x,y,1/2+z
1/2+x,-y,z
1/2+x,1/2+y,1/2+z
1/2-x,-y,1/2+z
1/2+x,1/2-y,-z
-x,1/2+y,1/2-z
1/2-x,1/2-y,1/2-z
1/2+x,y,1/2-z
1/2-x,1/2+y,z
x,1/2-y,1/2+z
loop_
_atom_site_type_symbol
_atom_site_label
_atom_site_fract_x
_atom_site_fract_y
_atom_site_fract_z
Si Si1 0.883964 0.708602 0.301736
Si Si2 0.047119 0.000000 0.750000
Si Si3 0.760665 0.127515 0.208076
Si Si4 0.350428 0.132372 0.923177
Si Si5 0.591573 0.961841 0.373557
Si Si6 0.428474 0.333377 0.556361
O O1 0.783013 0.778398 0.308874
O O2 0.842750 0.631447 0.260866
O O3 0.921664 0.674587 0.367776
O O4 0.000000 0.750000 0.270079
O O5 0.127281 0.080476 0.738147
O O6 0.969822 0.010155 0.810935
O O7 0.713264 0.086295 0.146155
O O8 0.210535 0.163034 0.920046
O O9 0.360477 0.035046 0.915779
O O10 0.422467 0.157342 0.983603
O O11 0.501614 0.907491 0.413762
O O12 0.500000 0.250000 0.573248
#
# Coordination Sequence:
#
# PCOD8296877 Si02
#       6
#    16   8  16  16  16  16
#     4  11  22  38  60  89 128 168 213 267 324 393
#     4  12  24  40  64  94 130 168 208 266 336 398
#     4  11  23  37  60  94 126 168 215 263 332 401
#     4  11  24  43  65  95 128 168 225 272 329 404
#     4  12  23  41  67  95 131 169 213 273 331 394
#     4  11  25  45  68  94 130 175 221 275 332 394
#
# _framework density 22.282468999999999
#
# number of rings (size 3 to 8) (size 9 to 14) (size 15 to 20)
#    0.000    0.727    0.000    9.273    0.000    3.636 
#    0.000   10.909    0.000    0.000    0.000    0.000 
#    0.000    0.000    0.000    0.000    0.000    0.000 
#
# Total GULP energy -545591.582347 kJ/mol
# GULP energy per Si atom -12399.808690 kJ/mol
# Density = 2.223175 g / cm^3
# Si number density = 22.282469 Si / 1000 Ang^3
#
#
#
# Elastic Constant Matrix: (Units=GPa)
#
#
# Indices 1 2 3 4 5 6 
#
# 1 83.1444 28.9585 16.4657 0.0000 0.0000 0.0000
# 2 28.9585 117.3885 29.8378 0.0000 0.0000 0.0000
# 3 16.4657 29.8378 69.7443 0.0000 0.0000 0.0000
# 4 0.0000 0.0000 0.0000 28.5951 0.0000 0.0000
# 5 0.0000 0.0000 0.0000 0.0000 34.5397 0.0000
# 6 0.0000 0.0000 0.0000 0.0000 0.0000 49.3122
#
#
#
# Elastic Compliance Matrix: (Units=1/GPa)
#
#
# Indices 1 2 3 4 5 6 
#
# 1 0.013393 -0.002805 -0.001962 0.000000 0.000000 0.000000
# 2 -0.002805 0.010146 -0.003678 0.000000 0.000000 0.000000
# 3 -0.001962 -0.003678 0.016375 0.000000 0.000000 0.000000
# 4 0.000000 0.000000 0.000000 0.034971 0.000000 0.000000
# 5 0.000000 0.000000 0.000000 0.000000 0.028952 0.000000
# 6 0.000000 0.000000 0.000000 0.000000 0.000000 0.020279
#
#
# Mechanical properties :
#
#
# Convention : Reuss Voigt Hill
#
# Bulk Modulus (GPa) = 43.43494 46.75569 45.09532
# Shear Modulus (GPa) = 33.62923 35.49041 34.55982
#
# Velocity S-wave (km/s) = 3.88909 3.99526 3.94253
# Velocity P-wave (km/s) = 6.30094 6.50473 6.40365
#
# Compressibility (1/GPa) = 0.02302294
#
# Stress axis : x y z
#
# Youngs Moduli (GPa) = 74.66703 98.56422 61.06929
#
# Poissons Ratio (x) = 0.27649 0.11980
# Poissons Ratio (y) = 0.20946 0.22463
# Poissons Ratio (z) = 0.14648 0.36254
#
# Static dielectric constant tensor:
#      x y z
#    x 4.037190 0.000000 0.000000 
#    y 0.000000 4.185910 0.000000 
#    z 0.000000 0.000000 4.032060 
# 
# 
# High freq. dielectric constant tensor:
#      x y z
#    x 1.882200 0.000000 0.000000 
#    y 0.000000 1.898180 0.000000 
#    z 0.000000 0.000000 1.876620 
# 
# From -- ./inp_files/10968.got.cif
#   From: 2010.03.12/outbox.cif.g09.slc.cpg/sg73_6_cif.got.tgz:10968.got - 2010.04.16 15:25:48.
