data_PCOD8296532
_publ_section_title
;
Structure prediction by ZEFSAII (Michael W. Deem and Ramdas Pophale) SiO2 
 PCOD8296532
Probable space group: I B C A 
;
_chemical_formula_sum "Si O2"
_cell_formula_units_Z 64
_cell_length_a 12.838241
_cell_length_b 26.432042
_cell_length_c 9.195621
_cell_angle_alpha 90.000000
_cell_angle_beta 90.000000
_cell_angle_gamma 90.000000
_cell_volume 3120.450539
_symmetry_space_group_name_H-M "I B C A "
_symmetry_group_IT_number 73
_symmetry_cell_setting 'orthorhombic'
loop_
_space_group_symop_operation_xyz
x,y,z
-x,1/2-y,z
x,-y,1/2-z
1/2-x,y,-z
-x,-y,-z
x,1/2+y,-z
-x,y,1/2+z
1/2+x,-y,z
1/2+x,1/2+y,1/2+z
1/2-x,-y,1/2+z
1/2+x,1/2-y,-z
-x,1/2+y,1/2-z
1/2-x,1/2-y,1/2-z
1/2+x,y,1/2-z
1/2-x,1/2+y,z
x,1/2-y,1/2+z
loop_
_atom_site_type_symbol
_atom_site_label
_atom_site_fract_x
_atom_site_fract_y
_atom_site_fract_z
Si Si1 0.001822 0.000000 0.750000
Si Si2 0.804844 0.208162 0.850370
Si Si3 0.000000 0.250000 0.988204
Si Si4 0.128480 0.552822 0.000012
Si Si5 0.149163 0.665297 0.919709
O O1 0.075251 0.964712 0.650256
O O2 0.928273 0.031877 0.643088
O O3 0.750000 0.250000 0.750000
O O4 0.815882 0.157747 0.749210
O O5 0.750000 0.193201 0.000000
O O6 0.920421 0.224709 0.880536
O O7 0.056037 0.206286 0.082430
O O8 0.250000 0.536562 0.000000
O O9 0.116909 0.613367 0.995862
O O10 0.250000 0.689773 0.000000
#
# Coordination Sequence:
#
# PCOD8296532 Si02
#       5
#     8  16   8  16  16
#     4  10  22  46  72  98 122 174 216 274 360 402
#     4  12  23  41  59  89 130 180 223 268 318 381
#     4  12  22  38  66  84 138 178 218 268 320 378
#     4  10  23  44  70  98 134 164 220 283 335 404
#     4  11  24  43  61  96 132 175 224 273 319 398
#
# _framework density 20.509858999999999
#
# number of rings (size 3 to 8) (size 9 to 14) (size 15 to 20)
#    0.000    1.000    5.000    1.500    3.500    0.000 
#    4.500    1.250    0.000    0.000    0.000    0.000 
#    0.000    0.000    0.000    0.000    0.000    0.000 
#
# Total GULP energy -396497.548461 kJ/mol
# GULP energy per Si atom -12390.548389 kJ/mol
# Density = 2.046318 g / cm^3
# Si number density = 20.509859 Si / 1000 Ang^3
#
#
#
# Elastic Constant Matrix: (Units=GPa)
#
#
# Indices 1 2 3 4 5 6 
#
# 1 161.1237 58.6805 76.9730 0.0002 0.0001 -0.0001
# 2 58.6805 97.3937 62.9069 -0.0009 -0.0003 -0.0002
# 3 76.9730 62.9069 186.0218 0.0001 -0.0007 -0.0011
# 4 0.0002 -0.0009 0.0001 34.1632 -0.0003 0.0000
# 5 0.0001 -0.0003 -0.0007 -0.0003 38.2030 0.0004
# 6 -0.0001 -0.0002 -0.0011 0.0000 0.0004 29.4650
#
#
#
# Elastic Compliance Matrix: (Units=1/GPa)
#
#
# Indices 1 2 3 4 5 6 
#
# 1 0.008675 -0.003721 -0.002331 0.000000 0.000000 0.000000
# 2 -0.003721 0.014733 -0.003443 0.000000 0.000000 0.000000
# 3 -0.002331 -0.003443 0.007505 0.000000 0.000000 0.000000
# 4 0.000000 0.000000 0.000000 0.029271 0.000000 0.000000
# 5 0.000000 0.000000 0.000000 0.000000 0.026176 0.000000
# 6 0.000000 0.000000 0.000000 0.000000 0.000000 0.033939
#
#
# Mechanical properties :
#
#
# Convention : Reuss Voigt Hill
#
# Bulk Modulus (GPa) = 83.87157 93.51777 88.69467
# Shear Modulus (GPa) = 34.90074 36.76482 35.83278
#
# Velocity S-wave (km/s) = 4.12959 4.23844 4.18437
# Velocity P-wave (km/s) = 7.98249 8.34553 8.16603
#
# Compressibility (1/GPa) = 0.01192299
#
# Stress axis : x y z
#
# Youngs Moduli (GPa) = 115.26853 67.87397 133.25220
#
# Poissons Ratio (x) = 0.25257 0.31066
# Poissons Ratio (y) = 0.42893 0.45873
# Poissons Ratio (z) = 0.26873 0.23366
#
# Static dielectric constant tensor:
#      x y z
#    x 4.024070 0.000000 0.000000 
#    y 0.000000 3.543340 0.000000 
#    z 0.000000 0.000000 3.934970 
# 
# 
# High freq. dielectric constant tensor:
#      x y z
#    x 1.820480 0.000000 0.000000 
#    y 0.000000 1.774990 0.000000 
#    z 0.000000 0.000000 1.826870 
# 
# From -- ./inp_files/4005.got.cif
#   From: 2010.03.12/outbox.cif.g09.slc.cpg/sg73_3_cif.got.tgz:4005.got - 2010.04.16 15:25:48.
