data_PCOD8296655
_publ_section_title
;
Structure prediction by ZEFSAII (Michael W. Deem and Ramdas Pophale) SiO2 
 PCOD8296655
Probable space group: I B C A 
;
_chemical_formula_sum "Si O2"
_cell_formula_units_Z 120
_cell_length_a 24.401905
_cell_length_b 8.700635
_cell_length_c 28.336893
_cell_angle_alpha 90.000000
_cell_angle_beta 90.000000
_cell_angle_gamma 90.000000
_cell_volume 6016.264374
_symmetry_space_group_name_H-M "I B C A "
_symmetry_group_IT_number 73
_symmetry_cell_setting 'orthorhombic'
loop_
_space_group_symop_operation_xyz
x,y,z
-x,1/2-y,z
x,-y,1/2-z
1/2-x,y,-z
-x,-y,-z
x,1/2+y,-z
-x,y,1/2+z
1/2+x,-y,z
1/2+x,1/2+y,1/2+z
1/2-x,-y,1/2+z
1/2+x,1/2-y,-z
-x,1/2+y,1/2-z
1/2-x,1/2-y,1/2-z
1/2+x,y,1/2-z
1/2-x,1/2+y,z
x,1/2-y,1/2+z
loop_
_atom_site_type_symbol
_atom_site_label
_atom_site_fract_x
_atom_site_fract_y
_atom_site_fract_z
Si Si1 0.936859 0.198497 0.341459
Si Si2 0.823091 0.283977 0.581997
Si Si3 0.413025 0.096842 0.972429
Si Si4 0.383658 0.761025 0.940173
Si Si5 0.772050 0.602290 0.552507
Si Si6 0.591233 0.850286 0.654941
Si Si7 0.059775 0.679681 0.754317
Si Si8 0.000000 0.250000 0.582930
O O1 0.906127 0.259581 0.387261
O O2 0.910670 0.271299 0.294272
O O3 0.000000 0.250000 0.345991
O O4 0.926588 0.020211 0.331240
O O5 0.870982 0.223121 0.547973
O O6 0.793435 0.430864 0.559506
O O7 0.777611 0.149080 0.587997
O O8 0.848218 0.334782 0.632393
O O9 0.473930 0.117910 0.950609
O O10 0.392293 0.926756 0.963130
O O11 0.414909 0.130518 0.028725
O O12 0.319556 0.726317 0.938703
O O13 0.750000 0.621994 0.500000
O O14 0.592680 0.736473 0.699735
O O15 0.547891 0.808315 0.615451
O O16 0.054473 0.500000 0.750000
O O17 0.000000 0.750000 0.758616
#
# Coordination Sequence:
#
# PCOD8296655 Si02
#       8
#    16  16  16  16  16  16  16   8
#     4  11  24  40  66  97 133 174 218 268 322 395
#     4  11  24  40  65  93 126 166 218 269 332 379
#     4  11  25  40  58  94 130 181 213 262 318 396
#     4  12  25  41  63  93 133 171 225 263 330 388
#     4  12  23  41  64  93 125 169 218 283 319 388
#     4  11  22  43  65  98 131 169 217 269 334 393
#     4  11  23  40  67  98 132 173 222 274 329 390
#     4  10  24  38  66  86 140 174 216 258 322 394
#
# _framework density 19.945931999999999
#
# number of rings (size 3 to 8) (size 9 to 14) (size 15 to 20)
#    0.000    0.800    3.333    4.800    6.533    0.533 
#    0.000    0.000    0.000    0.800    0.000    0.000 
#    0.000    0.000    0.000    0.000    0.000    0.000 
#
# Total GULP energy -743825.011083 kJ/mol
# GULP energy per Si atom -12397.083518 kJ/mol
# Density = 1.990053 g / cm^3
# Si number density = 19.945932 Si / 1000 Ang^3
#
#
#
# Elastic Constant Matrix: (Units=GPa)
#
#
# Indices 1 2 3 4 5 6 
#
# 1 87.5527 28.2210 53.8455 0.0000 0.0000 0.0000
# 2 28.2210 110.2349 23.1135 0.0000 0.0000 0.0000
# 3 53.8455 23.1135 122.7794 0.0000 0.0000 0.0000
# 4 0.0000 0.0000 0.0000 31.4449 0.0000 0.0000
# 5 0.0000 0.0000 0.0000 0.0000 22.2591 0.0000
# 6 0.0000 0.0000 0.0000 0.0000 0.0000 27.3880
#
#
#
# Elastic Compliance Matrix: (Units=1/GPa)
#
#
# Indices 1 2 3 4 5 6 
#
# 1 0.016434 -0.002807 -0.006679 0.000000 0.000000 0.000000
# 2 -0.002807 0.009924 -0.000637 0.000000 0.000000 0.000000
# 3 -0.006679 -0.000637 0.011194 0.000000 0.000000 0.000000
# 4 0.000000 0.000000 0.000000 0.031802 0.000000 0.000000
# 5 0.000000 0.000000 0.000000 0.000000 0.044926 0.000000
# 6 0.000000 0.000000 0.000000 0.000000 0.000000 0.036512
#
#
# Mechanical properties :
#
#
# Convention : Reuss Voigt Hill
#
# Bulk Modulus (GPa) = 57.78464 58.99189 58.38827
# Shear Modulus (GPa) = 28.27974 30.57753 29.42863
#
# Velocity S-wave (km/s) = 3.76948 3.91963 3.84529
# Velocity P-wave (km/s) = 6.92668 7.07988 7.00370
#
# Compressibility (1/GPa) = 0.01730564
#
# Stress axis : x y z
#
# Youngs Moduli (GPa) = 60.84971 100.76868 89.33626
#
# Poissons Ratio (x) = 0.28284 0.59666
# Poissons Ratio (y) = 0.17079 0.05693
# Poissons Ratio (z) = 0.40640 0.06421
#
# Static dielectric constant tensor:
#      x y z
#    x 4.026040 0.000000 0.000000 
#    y 0.000000 3.773350 0.000000 
#    z 0.000000 0.000000 4.086110 
# 
# 
# High freq. dielectric constant tensor:
#      x y z
#    x 1.765410 0.000000 0.000000 
#    y 0.000000 1.795170 0.000000 
#    z 0.000000 0.000000 1.775920 
# 
# From -- ./inp_files/34799.got.cif
#   From: 2010.03.12/outbox.cif.g09.slc.cpg/sg73_18_cif.got.tgz:34799.got - 2010.04.16 15:25:48.
