data_PCOD8296637
_publ_section_title
;
Structure prediction by ZEFSAII (Michael W. Deem and Ramdas Pophale) SiO2 
 PCOD8296637
Probable space group: I B C A 
;
_chemical_formula_sum "Si O2"
_cell_formula_units_Z 80
_cell_length_a 22.420600
_cell_length_b 10.646888
_cell_length_c 14.753042
_cell_angle_alpha 90.000000
_cell_angle_beta 90.000000
_cell_angle_gamma 90.000000
_cell_volume 3521.693007
_symmetry_space_group_name_H-M "I B C A "
_symmetry_group_IT_number 73
_symmetry_cell_setting 'orthorhombic'
loop_
_space_group_symop_operation_xyz
x,y,z
-x,1/2-y,z
x,-y,1/2-z
1/2-x,y,-z
-x,-y,-z
x,1/2+y,-z
-x,y,1/2+z
1/2+x,-y,z
1/2+x,1/2+y,1/2+z
1/2-x,-y,1/2+z
1/2+x,1/2-y,-z
-x,1/2+y,1/2-z
1/2-x,1/2-y,1/2-z
1/2+x,y,1/2-z
1/2-x,1/2+y,z
x,1/2-y,1/2+z
loop_
_atom_site_type_symbol
_atom_site_label
_atom_site_fract_x
_atom_site_fract_y
_atom_site_fract_z
Si Si1 0.726552 0.162702 0.400327
Si Si2 0.616576 0.673688 0.046785
Si Si3 0.000000 0.750000 0.039757
Si Si4 0.565661 0.558745 0.345834
Si Si5 0.344643 0.783280 0.854347
Si Si6 0.684187 0.000000 0.250000
O O1 0.750000 0.123011 0.500000
O O2 0.663723 0.237934 0.400982
O O3 0.775154 0.248838 0.351174
O O4 0.722321 0.036558 0.339723
O O5 0.601281 0.545019 0.097055
O O6 0.555186 0.746882 0.028839
O O7 0.642747 0.644288 0.947949
O O8 0.009044 0.623801 0.102412
O O9 0.544218 0.500000 0.250000
O O10 0.613708 0.667139 0.331089
O O11 0.356985 0.881587 0.774245
#
# Coordination Sequence:
#
# PCOD8296637 Si02
#       6
#    16  16   8  16  16   8
#     4  10  24  42  68 106 142 189 233 287 363 428
#     4  10  23  46  72  95 142 182 231 297 352 429
#     4  10  24  46  68 108 124 192 246 280 368 420
#     4  11  24  45  69 101 142 184 233 304 352 422
#     4  10  25  40  66 106 138 184 236 274 368 425
#     4  12  24  40  68 104 142 184 230 290 328 452
#
# _framework density 22.716348
#
# number of rings (size 3 to 8) (size 9 to 14) (size 15 to 20)
#    0.000    1.600    0.000    2.400   12.600    1.600 
#    7.200    0.000    0.000    0.000    0.000    0.000 
#    0.000    0.000    0.000    0.000    0.000    0.000 
#
# Total GULP energy -495719.350254 kJ/mol
# GULP energy per Si atom -12392.983756 kJ/mol
# Density = 2.266464 g / cm^3
# Si number density = 22.716348 Si / 1000 Ang^3
#
#
#
# Elastic Constant Matrix: (Units=GPa)
#
#
# Indices 1 2 3 4 5 6 
#
# 1 118.2396 29.9720 10.1328 0.0000 0.0000 0.0000
# 2 29.9720 124.5605 60.5604 0.0000 0.0000 0.0000
# 3 10.1328 60.5604 66.1660 0.0000 0.0000 0.0000
# 4 0.0000 0.0000 0.0000 52.6969 0.0000 0.0000
# 5 0.0000 0.0000 0.0000 0.0000 9.2410 0.0000
# 6 0.0000 0.0000 0.0000 0.0000 0.0000 28.2858
#
#
#
# Elastic Compliance Matrix: (Units=1/GPa)
#
#
# Indices 1 2 3 4 5 6 
#
# 1 0.009051 -0.002710 0.001094 0.000000 0.000000 0.000000
# 2 -0.002710 0.015277 -0.013567 0.000000 0.000000 0.000000
# 3 0.001094 -0.013567 0.027364 0.000000 0.000000 0.000000
# 4 0.000000 0.000000 0.000000 0.018976 0.000000 0.000000
# 5 0.000000 0.000000 0.000000 0.000000 0.108214 0.000000
# 6 0.000000 0.000000 0.000000 0.000000 0.000000 0.035353
#
#
# Mechanical properties :
#
#
# Convention : Reuss Voigt Hill
#
# Bulk Modulus (GPa) = 46.89313 56.69962 51.79637
# Shear Modulus (GPa) = 19.86422 31.93147 25.89784
#
# Velocity S-wave (km/s) = 2.96031 3.75328 3.38013
# Velocity P-wave (km/s) = 5.68967 6.61792 6.17127
#
# Compressibility (1/GPa) = 0.02132509
#
# Stress axis : x y z
#
# Youngs Moduli (GPa) = 110.49093 65.45944 36.54442
#
# Poissons Ratio (x) = 0.17738 -0.03998
# Poissons Ratio (y) = 0.29940 0.49581
# Poissons Ratio (z) = -0.12089 0.88812
#
# Static dielectric constant tensor:
#      x y z
#    x 4.157720 0.000000 0.000000 
#    y 0.000000 4.054420 0.000000 
#    z 0.000000 0.000000 4.301250 
# 
# 
# High freq. dielectric constant tensor:
#      x y z
#    x 1.888620 0.000000 0.000000 
#    y 0.000000 1.898560 0.000000 
#    z 0.000000 0.000000 1.907030 
# 
# From -- ./inp_files/19218.got.cif
#   From: 2010.03.12/outbox.cif.g09.slc.cpg/sg73_10_cif.got.tgz:19218.got - 2010.04.16 15:25:48.
