data_PCOD8296325
_publ_section_title
;
Structure prediction by ZEFSAII (Michael W. Deem and Ramdas Pophale) SiO2 
 PCOD8296325
Probable space group: I B C A 
;
_chemical_formula_sum "Si O2"
_cell_formula_units_Z 88
_cell_length_a 16.722919
_cell_length_b 15.553418
_cell_length_c 16.303468
_cell_angle_alpha 90.000000
_cell_angle_beta 90.000000
_cell_angle_gamma 90.000000
_cell_volume 4240.508377
_symmetry_space_group_name_H-M "I B C A "
_symmetry_group_IT_number 73
_symmetry_cell_setting 'orthorhombic'
loop_
_space_group_symop_operation_xyz
x,y,z
-x,1/2-y,z
x,-y,1/2-z
1/2-x,y,-z
-x,-y,-z
x,1/2+y,-z
-x,y,1/2+z
1/2+x,-y,z
1/2+x,1/2+y,1/2+z
1/2-x,-y,1/2+z
1/2+x,1/2-y,-z
-x,1/2+y,1/2-z
1/2-x,1/2-y,1/2-z
1/2+x,y,1/2-z
1/2-x,1/2+y,z
x,1/2-y,1/2+z
loop_
_atom_site_type_symbol
_atom_site_label
_atom_site_fract_x
_atom_site_fract_y
_atom_site_fract_z
Si Si1 0.938623 0.031245 0.664752
Si Si2 0.050529 0.837717 0.916206
Si Si3 0.750000 0.451019 0.000000
Si Si4 0.647617 0.092800 0.057079
Si Si5 0.787109 0.664346 0.834235
Si Si6 0.721469 0.134486 0.330776
O O1 0.867190 0.098469 0.680770
O O2 0.997053 0.078428 0.600891
O O3 0.979211 0.000000 0.750000
O O4 0.908236 0.940613 0.629625
O O5 0.118969 0.844208 0.848491
O O6 0.000000 0.750000 0.910045
O O7 0.094577 0.840371 0.004691
O O8 0.670214 0.509163 0.997322
O O9 0.759784 0.396129 0.916683
O O10 0.731032 0.131406 0.091114
O O11 0.769521 0.608323 0.752018
O O12 0.770928 0.764293 0.828368
#
# Coordination Sequence:
#
# PCOD8296325 Si02
#       6
#    16  16   8  16  16  16
#     4  11  23  44  64  94 140 173 218 283 337 391
#     4  12  25  42  65  99 138 175 220 281 337 394
#     4  10  22  36  66 102 126 164 228 272 326 382
#     4  11  23  42  68  96 131 178 224 272 331 403
#     4  11  22  44  70  94 128 179 226 269 327 404
#     4  10  23  40  69  96 131 171 223 272 324 399
#
# _framework density 20.752229
#
# number of rings (size 3 to 8) (size 9 to 14) (size 15 to 20)
#    0.000    1.091    5.455    0.545    2.545    1.455 
#    0.000    4.545    0.000    0.000    0.000    0.000 
#    0.000    0.000    0.000    0.000    0.000    0.000 
#
# Total GULP energy -545222.539842 kJ/mol
# GULP energy per Si atom -12391.421360 kJ/mol
# Density = 2.070500 g / cm^3
# Si number density = 20.752229 Si / 1000 Ang^3
#
#
#
# Elastic Constant Matrix: (Units=GPa)
#
#
# Indices 1 2 3 4 5 6 
#
# 1 112.3317 32.0847 48.4166 0.0000 0.0000 0.0000
# 2 32.0847 67.0031 32.6329 0.0000 0.0000 0.0000
# 3 48.4166 32.6329 136.8000 0.0000 0.0000 0.0000
# 4 0.0000 0.0000 0.0000 35.2874 0.0000 0.0000
# 5 0.0000 0.0000 0.0000 0.0000 32.4513 0.0000
# 6 0.0000 0.0000 0.0000 0.0000 0.0000 28.1067
#
#
#
# Elastic Compliance Matrix: (Units=1/GPa)
#
#
# Indices 1 2 3 4 5 6 
#
# 1 0.011354 -0.003937 -0.003079 0.000000 0.000000 0.000000
# 2 -0.003937 0.018252 -0.002960 0.000000 0.000000 0.000000
# 3 -0.003079 -0.002960 0.009106 0.000000 0.000000 0.000000
# 4 0.000000 0.000000 0.000000 0.028339 0.000000 0.000000
# 5 0.000000 0.000000 0.000000 0.000000 0.030815 0.000000
# 6 0.000000 0.000000 0.000000 0.000000 0.000000 0.035579
#
#
# Mechanical properties :
#
#
# Convention : Reuss Voigt Hill
#
# Bulk Modulus (GPa) = 53.31034 60.26699 56.78867
# Shear Modulus (GPa) = 31.31833 32.70246 32.01039
#
# Velocity S-wave (km/s) = 3.88900 3.97401 3.93173
# Velocity P-wave (km/s) = 6.77573 7.08246 6.93079
#
# Compressibility (1/GPa) = 0.01875809
#
# Stress axis : x y z
#
# Youngs Moduli (GPa) = 88.07503 54.78893 109.81842
#
# Poissons Ratio (x) = 0.21571 0.33816
# Poissons Ratio (y) = 0.34677 0.32511
# Poissons Ratio (z) = 0.27120 0.16220
#
# Static dielectric constant tensor:
#      x y z
#    x 3.681740 0.000000 0.000000 
#    y 0.000000 3.739160 0.000000 
#    z 0.000000 0.000000 4.136620 
# 
# 
# High freq. dielectric constant tensor:
#      x y z
#    x 1.800900 0.000000 0.000000 
#    y 0.000000 1.812080 0.000000 
#    z 0.000000 0.000000 1.825460 
# 
# From -- ./inp_files/22470.got.cif
#   From: 2010.03.12/outbox.cif.g09.slc.cpg/sg73_12_cif.got.tgz:22470.got - 2010.04.16 15:25:48.
