data_PCOD8296791
_publ_section_title
;
Structure prediction by ZEFSAII (Michael W. Deem and Ramdas Pophale) SiO2 
 PCOD8296791
Probable space group: I B C A 
;
_chemical_formula_sum "Si O2"
_cell_formula_units_Z 112
_cell_length_a 22.266042
_cell_length_b 15.141228
_cell_length_c 14.840000
_cell_angle_alpha 90.000000
_cell_angle_beta 90.000000
_cell_angle_gamma 90.000000
_cell_volume 5003.086644
_symmetry_space_group_name_H-M "I B C A "
_symmetry_group_IT_number 73
_symmetry_cell_setting 'orthorhombic'
loop_
_space_group_symop_operation_xyz
x,y,z
-x,1/2-y,z
x,-y,1/2-z
1/2-x,y,-z
-x,-y,-z
x,1/2+y,-z
-x,y,1/2+z
1/2+x,-y,z
1/2+x,1/2+y,1/2+z
1/2-x,-y,1/2+z
1/2+x,1/2-y,-z
-x,1/2+y,1/2-z
1/2-x,1/2-y,1/2-z
1/2+x,y,1/2-z
1/2-x,1/2+y,z
x,1/2-y,1/2+z
loop_
_atom_site_type_symbol
_atom_site_label
_atom_site_fract_x
_atom_site_fract_y
_atom_site_fract_z
Si Si1 0.359992 0.245234 0.308260
Si Si2 0.994385 0.653574 0.069396
Si Si3 0.387120 0.056271 0.061548
Si Si4 0.202496 0.095917 0.792878
Si Si5 0.300242 0.372171 0.429407
Si Si6 0.565123 0.596193 0.754573
Si Si7 0.453196 0.883020 0.121456
O O1 0.305982 0.182985 0.269845
O O2 0.337539 0.284143 0.403796
O O3 0.382880 0.329381 0.249135
O O4 0.418769 0.185937 0.316685
O O5 0.056339 0.613764 0.034663
O O6 0.000000 0.750000 0.112063
O O7 0.966130 0.594650 0.147540
O O8 0.957134 0.658371 0.977663
O O9 0.349315 0.110486 0.134036
O O10 0.409586 0.966383 0.106786
O O11 0.344335 0.051588 0.971650
O O12 0.268573 0.093916 0.837688
O O13 0.192953 0.000000 0.750000
O O14 0.250000 0.342782 0.500000
O O15 0.596430 0.500000 0.750000
O O16 0.515780 0.600545 0.673446
#
# Coordination Sequence:
#
# PCOD8296791 Si02
#       7
#    16  16  16  16  16  16  16
#     4  12  25  45  71 102 141 186 232 297 358 421
#     4  12  24  40  67 103 141 185 229 281 350 437
#     4  11  22  42  70  94 140 182 228 284 359 415
#     4  11  23  46  72  98 130 183 240 296 354 419
#     4  10  25  46  67  97 133 177 238 306 349 417
#     4  12  26  42  69 107 149 188 236 284 351 443
#     4  12  24  43  68 103 145 187 234 281 356 436
#
# _framework density 22.38618
#
# number of rings (size 3 to 8) (size 9 to 14) (size 15 to 20)
#    0.000    0.571    2.857    6.429    2.000    1.714 
#    2.571    0.000    0.000    0.000    0.000    0.000 
#    0.000    0.000    0.000    0.000    0.000    0.000 
#
# Total GULP energy -693927.163489 kJ/mol
# GULP energy per Si atom -12391.556491 kJ/mol
# Density = 2.233523 g / cm^3
# Si number density = 22.386180 Si / 1000 Ang^3
#
#
#
# Elastic Constant Matrix: (Units=GPa)
#
#
# Indices 1 2 3 4 5 6 
#
# 1 78.2051 30.7525 23.2945 0.0000 0.0000 0.0000
# 2 30.7525 127.2966 23.1396 0.0000 0.0000 0.0000
# 3 23.2945 23.1396 97.1472 0.0000 0.0000 0.0000
# 4 0.0000 0.0000 0.0000 39.6462 0.0000 0.0000
# 5 0.0000 0.0000 0.0000 0.0000 104.9325 0.0000
# 6 0.0000 0.0000 0.0000 0.0000 0.0000 26.0662
#
#
#
# Elastic Compliance Matrix: (Units=1/GPa)
#
#
# Indices 1 2 3 4 5 6 
#
# 1 0.014836 -0.003070 -0.002826 0.000000 0.000000 0.000000
# 2 -0.003070 0.008847 -0.001371 0.000000 0.000000 0.000000
# 3 -0.002826 -0.001371 0.011298 0.000000 0.000000 0.000000
# 4 0.000000 0.000000 0.000000 0.025223 0.000000 0.000000
# 5 0.000000 0.000000 0.000000 0.000000 0.009530 0.000000
# 6 0.000000 0.000000 0.000000 0.000000 0.000000 0.038364
#
#
# Mechanical properties :
#
#
# Convention : Reuss Voigt Hill
#
# Bulk Modulus (GPa) = 48.91028 50.78024 49.84526
# Shear Modulus (GPa) = 38.62567 49.15980 43.89274
#
# Velocity S-wave (km/s) = 4.15833 4.69122 4.43279
# Velocity P-wave (km/s) = 6.70459 7.21640 6.96519
#
# Compressibility (1/GPa) = 0.02044560
#
# Stress axis : x y z
#
# Youngs Moduli (GPa) = 67.40339 113.03739 88.51226
#
# Poissons Ratio (x) = 0.34707 0.25015
# Poissons Ratio (y) = 0.20695 0.12135
# Poissons Ratio (z) = 0.19049 0.15497
#
# Static dielectric constant tensor:
#      x y z
#    x 4.109530 0.000000 0.000000 
#    y 0.000000 4.046720 0.000000 
#    z 0.000000 0.000000 4.073520 
# 
# 
# High freq. dielectric constant tensor:
#      x y z
#    x 1.883980 0.000000 0.000000 
#    y 0.000000 1.880060 0.000000 
#    z 0.000000 0.000000 1.887690 
# 
# From -- ./inp_files/19425.got.cif
#   From: 2010.03.12/outbox.cif.g09.slc.cpg/sg73_10_cif.got.tgz:19425.got - 2010.04.16 15:25:48.
