data_PCOD8296869
_publ_section_title
;
Structure prediction by ZEFSAII (Michael W. Deem and Ramdas Pophale) SiO2 
 PCOD8296869
Probable space group: I B C A 
;
_chemical_formula_sum "Si O2"
_cell_formula_units_Z 96
_cell_length_a 20.979350
_cell_length_b 9.756790
_cell_length_c 22.803493
_cell_angle_alpha 90.000000
_cell_angle_beta 90.000000
_cell_angle_gamma 90.000000
_cell_volume 4667.672346
_symmetry_space_group_name_H-M "I B C A "
_symmetry_group_IT_number 73
_symmetry_cell_setting 'orthorhombic'
loop_
_space_group_symop_operation_xyz
x,y,z
-x,1/2-y,z
x,-y,1/2-z
1/2-x,y,-z
-x,-y,-z
x,1/2+y,-z
-x,y,1/2+z
1/2+x,-y,z
1/2+x,1/2+y,1/2+z
1/2-x,-y,1/2+z
1/2+x,1/2-y,-z
-x,1/2+y,1/2-z
1/2-x,1/2-y,1/2-z
1/2+x,y,1/2-z
1/2-x,1/2+y,z
x,1/2-y,1/2+z
loop_
_atom_site_type_symbol
_atom_site_label
_atom_site_fract_x
_atom_site_fract_y
_atom_site_fract_z
Si Si1 0.000000 0.750000 0.815289
Si Si2 0.825352 0.363906 0.422477
Si Si3 0.175549 0.860171 0.942260
Si Si4 0.153724 0.911108 0.642515
Si Si5 0.879394 0.635216 0.374177
Si Si6 0.932156 0.000000 0.250000
Si Si7 0.276567 0.371279 0.288209
O O1 0.951669 0.828005 0.859112
O O2 0.972972 0.626733 0.775296
O O3 0.748716 0.362308 0.420544
O O4 0.839824 0.390288 0.490475
O O5 0.855609 0.227641 0.394546
O O6 0.862022 0.476791 0.383845
O O7 0.145071 0.711667 0.932198
O O8 0.137427 0.968444 0.902800
O O9 0.109478 0.928023 0.699282
O O10 0.226729 0.920077 0.662988
O O11 0.839352 0.689712 0.318387
O O12 0.297499 0.500000 0.250000
O O13 0.250000 0.250000 0.250000
#
# Coordination Sequence:
#
# PCOD8296869 Si02
#       7
#     8  16  16  16  16   8  16
#     4  12  30  48  66  92 136 190 228 282 334 400
#     4  11  23  38  74 103 137 175 222 275 352 411
#     4  11  21  43  66 107 141 171 216 285 344 404
#     4  12  22  42  66 104 136 173 215 282 352 403
#     4  12  24  44  63  95 135 178 229 275 334 407
#     4  12  28  48  70  96 140 178 230 288 340 410
#     4  12  22  35  61  97 130 166 209 274 343 410
#
# _framework density 20.566997000000001
#
# number of rings (size 3 to 8) (size 9 to 14) (size 15 to 20)
#    0.000    0.333    5.833    4.000    3.500    2.667 
#    0.000    0.833    0.000    0.000    0.000    0.000 
#    0.000    0.000    0.000    0.000    0.000    0.000 
#
# Total GULP energy -594991.314080 kJ/mol
# GULP energy per Si atom -12395.652377 kJ/mol
# Density = 2.052019 g / cm^3
# Si number density = 20.566997 Si / 1000 Ang^3
#
#
#
# Elastic Constant Matrix: (Units=GPa)
#
#
# Indices 1 2 3 4 5 6 
#
# 1 97.2156 29.6897 44.5721 0.0000 0.0000 0.0000
# 2 29.6897 103.7980 45.0998 0.0000 0.0000 0.0000
# 3 44.5721 45.0998 115.5713 0.0000 0.0000 0.0000
# 4 0.0000 0.0000 0.0000 41.8763 0.0000 0.0000
# 5 0.0000 0.0000 0.0000 0.0000 18.4362 0.0000
# 6 0.0000 0.0000 0.0000 0.0000 0.0000 29.9726
#
#
#
# Elastic Compliance Matrix: (Units=1/GPa)
#
#
# Indices 1 2 3 4 5 6 
#
# 1 0.012776 -0.001822 -0.004216 0.000000 0.000000 0.000000
# 2 -0.001822 0.011861 -0.003926 0.000000 0.000000 0.000000
# 3 -0.004216 -0.003926 0.011811 0.000000 0.000000 0.000000
# 4 0.000000 0.000000 0.000000 0.023880 0.000000 0.000000
# 5 0.000000 0.000000 0.000000 0.000000 0.054241 0.000000
# 6 0.000000 0.000000 0.000000 0.000000 0.000000 0.033364
#
#
# Mechanical properties :
#
#
# Convention : Reuss Voigt Hill
#
# Bulk Modulus (GPa) = 60.53588 61.70089 61.11838
# Shear Modulus (GPa) = 28.84046 31.20525 30.02285
#
# Velocity S-wave (km/s) = 3.74875 3.89941 3.82482
# Velocity P-wave (km/s) = 6.94514 7.09500 7.02047
#
# Compressibility (1/GPa) = 0.01651913
#
# Stress axis : x y z
#
# Youngs Moduli (GPa) = 78.27152 84.30919 84.66949
#
# Poissons Ratio (x) = 0.15365 0.35698
# Poissons Ratio (y) = 0.14265 0.33239
# Poissons Ratio (z) = 0.33000 0.33097
#
# Static dielectric constant tensor:
#      x y z
#    x 3.656620 0.000000 0.000000 
#    y 0.000000 4.000580 0.000000 
#    z 0.000000 0.000000 3.858570 
# 
# 
# High freq. dielectric constant tensor:
#      x y z
#    x 1.771310 0.000000 0.000000 
#    y 0.000000 1.826230 0.000000 
#    z 0.000000 0.000000 1.820290 
# 
# From -- ./inp_files/6478.got.cif
#   From: 2010.03.12/outbox.cif.g09.slc.cpg/sg73_4_cif.got.tgz:6478.got - 2010.04.16 15:25:48.
