data_PCOD8296292
_publ_section_title
;
Structure prediction by ZEFSAII (Michael W. Deem and Ramdas Pophale) SiO2 
 PCOD8296292
Probable space group: I B C A 
;
_chemical_formula_sum "Si O2"
_cell_formula_units_Z 96
_cell_length_a 17.823499
_cell_length_b 10.221831
_cell_length_c 25.766886
_cell_angle_alpha 90.000000
_cell_angle_beta 90.000000
_cell_angle_gamma 90.000000
_cell_volume 4694.437901
_symmetry_space_group_name_H-M "I B C A "
_symmetry_group_IT_number 73
_symmetry_cell_setting 'orthorhombic'
loop_
_space_group_symop_operation_xyz
x,y,z
-x,1/2-y,z
x,-y,1/2-z
1/2-x,y,-z
-x,-y,-z
x,1/2+y,-z
-x,y,1/2+z
1/2+x,-y,z
1/2+x,1/2+y,1/2+z
1/2-x,-y,1/2+z
1/2+x,1/2-y,-z
-x,1/2+y,1/2-z
1/2-x,1/2-y,1/2-z
1/2+x,y,1/2-z
1/2-x,1/2+y,z
x,1/2-y,1/2+z
loop_
_atom_site_type_symbol
_atom_site_label
_atom_site_fract_x
_atom_site_fract_y
_atom_site_fract_z
Si Si1 0.052057 0.876375 0.507847
Si Si2 0.209663 0.631803 0.276750
Si Si3 0.226639 0.140820 0.388964
Si Si4 0.703181 0.377366 0.949731
Si Si5 0.945996 0.371953 0.771519
Si Si6 0.417843 0.808310 0.382011
O O1 0.115012 0.869706 0.463369
O O2 0.093620 0.888006 0.564273
O O3 0.000000 0.750000 0.503880
O O4 0.000000 0.000000 0.500000
O O5 0.239817 0.500000 0.250000
O O6 0.250000 0.750000 0.250000
O O7 0.224906 0.630111 0.337445
O O8 0.121142 0.649949 0.268689
O O9 0.270448 0.237419 0.427785
O O10 0.143388 0.193952 0.377581
O O11 0.218382 0.994010 0.409743
O O12 0.750000 0.413223 0.000000
O O13 0.990031 0.500000 0.750000
O O14 0.912828 0.396366 0.829795
O O15 0.000000 0.250000 0.770856
O O16 0.500000 0.750000 0.384650
#
# Coordination Sequence:
#
# PCOD8296292 Si02
#       6
#    16  16  16  16  16  16
#     4  11  25  46  69 100 138 181 229 281 342 412
#     4  11  23  43  68  97 133 172 227 282 342 404
#     4  12  25  44  68 102 134 184 228 285 348 406
#     4  12  26  42  71 100 140 181 230 282 341 416
#     4  10  23  44  67  97 133 176 224 285 339 407
#     4  10  21  43  69  93 133 181 221 275 350 404
#
# _framework density 20.449732999999998
#
# number of rings (size 3 to 8) (size 9 to 14) (size 15 to 20)
#    0.000    1.000    3.333    3.500    4.667    0.667 
#    9.000    0.000    0.000    0.000    0.000    0.000 
#    0.000    0.000    0.000    0.000    0.000    0.000 
#
# Total GULP energy -595161.993080 kJ/mol
# GULP energy per Si atom -12399.208189 kJ/mol
# Density = 2.040319 g / cm^3
# Si number density = 20.449733 Si / 1000 Ang^3
#
#
#
# Elastic Constant Matrix: (Units=GPa)
#
#
# Indices 1 2 3 4 5 6 
#
# 1 101.8899 36.0809 41.4717 0.0000 0.0000 0.0000
# 2 36.0809 131.1490 41.8470 0.0000 0.0000 0.0000
# 3 41.4717 41.8470 136.0584 0.0000 0.0000 0.0000
# 4 0.0000 0.0000 0.0000 40.2196 0.0000 0.0000
# 5 0.0000 0.0000 0.0000 0.0000 36.2019 0.0000
# 6 0.0000 0.0000 0.0000 0.0000 0.0000 33.4766
#
#
#
# Elastic Compliance Matrix: (Units=1/GPa)
#
#
# Indices 1 2 3 4 5 6 
#
# 1 0.011813 -0.002330 -0.002884 0.000000 0.000000 0.000000
# 2 -0.002330 0.008914 -0.002032 0.000000 0.000000 0.000000
# 3 -0.002884 -0.002032 0.008854 0.000000 0.000000 0.000000
# 4 0.000000 0.000000 0.000000 0.024863 0.000000 0.000000
# 5 0.000000 0.000000 0.000000 0.000000 0.027623 0.000000
# 6 0.000000 0.000000 0.000000 0.000000 0.000000 0.029872
#
#
# Mechanical properties :
#
#
# Convention : Reuss Voigt Hill
#
# Bulk Modulus (GPa) = 66.26823 67.54406 66.90614
# Shear Modulus (GPa) = 38.03422 38.62613 38.33018
#
# Velocity S-wave (km/s) = 4.31732 4.35079 4.33409
# Velocity P-wave (km/s) = 7.57153 7.63807 7.60488
#
# Compressibility (1/GPa) = 0.01509019
#
# Stress axis : x y z
#
# Youngs Moduli (GPa) = 84.64901 112.18206 112.94611
#
# Poissons Ratio (x) = 0.26135 0.32577
# Poissons Ratio (y) = 0.19721 0.22946
# Poissons Ratio (z) = 0.24415 0.22790
#
# Static dielectric constant tensor:
#      x y z
#    x 3.763980 0.000000 0.000000 
#    y 0.000000 3.913230 0.000000 
#    z 0.000000 0.000000 4.408720 
# 
# 
# High freq. dielectric constant tensor:
#      x y z
#    x 1.809730 0.000000 0.000000 
#    y 0.000000 1.800670 0.000000 
#    z 0.000000 0.000000 1.815380 
# 
# From -- ./inp_files/27511.got.cif
#   From: 2010.03.12/outbox.cif.g09.slc.cpg/sg73_14_cif.got.tgz:27511.got - 2010.04.16 15:25:48.
