data_PCOD8296197
_publ_section_title
;
Structure prediction by ZEFSAII (Michael W. Deem and Ramdas Pophale) SiO2 
 PCOD8296197
Probable space group: I B C A 
;
_chemical_formula_sum "Si O2"
_cell_formula_units_Z 120
_cell_length_a 8.802198
_cell_length_b 26.195718
_cell_length_c 22.907219
_cell_angle_alpha 90.000000
_cell_angle_beta 90.000000
_cell_angle_gamma 90.000000
_cell_volume 5281.944188
_symmetry_space_group_name_H-M "I B C A "
_symmetry_group_IT_number 73
_symmetry_cell_setting 'orthorhombic'
loop_
_space_group_symop_operation_xyz
x,y,z
-x,1/2-y,z
x,-y,1/2-z
1/2-x,y,-z
-x,-y,-z
x,1/2+y,-z
-x,y,1/2+z
1/2+x,-y,z
1/2+x,1/2+y,1/2+z
1/2-x,-y,1/2+z
1/2+x,1/2-y,-z
-x,1/2+y,1/2-z
1/2-x,1/2-y,1/2-z
1/2+x,y,1/2-z
1/2-x,1/2+y,z
x,1/2-y,1/2+z
loop_
_atom_site_type_symbol
_atom_site_label
_atom_site_fract_x
_atom_site_fract_y
_atom_site_fract_z
Si Si1 0.250000 0.034439 0.000000
Si Si2 0.642253 0.617654 0.355743
Si Si3 0.067676 0.696968 0.387749
Si Si4 0.785888 0.489057 0.872567
Si Si5 0.002846 0.041463 0.200107
Si Si6 0.593640 0.301998 0.654832
Si Si7 0.892877 0.349003 0.219865
Si Si8 0.630361 0.369584 0.958306
O O1 0.218664 0.000181 0.942545
O O2 0.393301 0.073866 0.988069
O O3 0.596363 0.557655 0.356349
O O4 0.499385 0.651647 0.374995
O O5 0.715271 0.639389 0.295417
O O6 0.785646 0.621865 0.397741
O O7 0.247702 0.701444 0.379087
O O8 0.000000 0.750000 0.409676
O O9 0.984360 0.683052 0.327770
O O10 0.027628 0.658099 0.441556
O O11 0.625047 0.470326 0.849431
O O12 0.843884 0.538454 0.836378
O O13 0.021019 0.096841 0.229585
O O14 0.006600 0.000000 0.250000
O O15 0.500000 0.250000 0.647530
O O16 0.616275 0.315012 0.722507
O O17 0.750000 0.337924 0.000000
#
# Coordination Sequence:
#
# PCOD8296197 Si02
#       8
#     8  16  16  16  16  16  16  16
#     4   8  18  40  70  88 116 166 218 266 340 368
#     4   9  19  37  58  84 119 163 207 265 317 365
#     4  11  23  40  63  94 124 165 216 260 316 383
#     4  10  21  39  63  90 127 169 213 274 322 386
#     4  11  23  38  61  95 132 170 217 265 330 391
#     4  12  23  35  58  92 132 168 212 261 314 381
#     4  10  22  39  58  85 128 178 215 258 315 378
#     4   8  17  39  67  83 114 159 206 257 321 378
#
# _framework density 22.718907999999999
#
# number of rings (size 3 to 8) (size 9 to 14) (size 15 to 20)
#    0.400    1.600    0.000    4.800    0.000    6.400 
#    0.000    2.667    0.000    1.600    1.733    0.000 
#    0.000    0.000    0.000    0.000    0.000    0.000 
#
# Total GULP energy -743289.742321 kJ/mol
# GULP energy per Si atom -12388.162372 kJ/mol
# Density = 2.266720 g / cm^3
# Si number density = 22.718908 Si / 1000 Ang^3
#
#
#
# Elastic Constant Matrix: (Units=GPa)
#
#
# Indices 1 2 3 4 5 6 
#
# 1 96.1982 19.4990 17.1847 0.0001 0.0000 0.0000
# 2 19.4990 54.9697 11.0817 0.0001 0.0000 0.0000
# 3 17.1847 11.0817 84.8250 0.0003 0.0000 0.0000
# 4 0.0001 0.0001 0.0003 -56.4584 0.0000 0.0000
# 5 0.0000 0.0000 0.0000 0.0000 17.0246 0.0000
# 6 0.0000 0.0000 0.0000 0.0000 0.0000 28.3594
#
#
#
# Elastic Compliance Matrix: (Units=1/GPa)
#
#
# Indices 1 2 3 4 5 6 
#
# 1 0.011474 -0.003699 -0.001841 0.000000 0.000000 0.000000
# 2 -0.003699 0.019876 -0.001847 0.000000 0.000000 0.000000
# 3 -0.001841 -0.001847 0.012403 0.000000 0.000000 0.000000
# 4 0.000000 0.000000 0.000000 -0.017712 0.000000 0.000000
# 5 0.000000 0.000000 0.000000 0.000000 0.058739 0.000000
# 6 0.000000 0.000000 0.000000 0.000000 0.000000 0.035262
#
#
# Mechanical properties :
#
#
# Convention : Reuss Voigt Hill
#
# Bulk Modulus (GPa) = 34.50817 36.83596 35.67207
# Shear Modulus (GPa) = 34.60780 10.33362 22.47071
#
# Velocity S-wave (km/s) = 3.90719 2.13503 3.14837
# Velocity P-wave (km/s) = 5.96464 4.72512 5.38069
#
# Compressibility (1/GPa) = 0.02897865
#
# Stress axis : x y z
#
# Youngs Moduli (GPa) = 87.15461 50.31111 80.62347
#
# Poissons Ratio (x) = 0.18609 0.14845
# Poissons Ratio (y) = 0.32237 0.14894
# Poissons Ratio (z) = 0.16048 0.09294
#
# Static dielectric constant tensor:
#      x y z
#    x 4.090600 0.000000 0.000000 
#    y 0.000000 4.365860 0.000000 
#    z 0.000000 0.000000 4.192450 
# 
# 
# High freq. dielectric constant tensor:
#      x y z
#    x 1.878300 0.000000 0.000000 
#    y 0.000000 1.886650 0.000000 
#    z 0.000000 0.000000 1.895490 
# 
# From -- ./inp_files/28604.got.cif
#   From: 2010.03.12/outbox.cif.g09.slc.cpg/sg73_15_cif.got.tgz:28604.got - 2010.04.16 15:25:48.
