data_PCOD8296925
_publ_section_title
;
Structure prediction by ZEFSAII (Michael W. Deem and Ramdas Pophale) SiO2 
 PCOD8296925
Probable space group: I B C A 
;
_chemical_formula_sum "Si O2"
_cell_formula_units_Z 120
_cell_length_a 12.679002
_cell_length_b 24.236654
_cell_length_c 18.490457
_cell_angle_alpha 90.000000
_cell_angle_beta 90.000000
_cell_angle_gamma 90.000000
_cell_volume 5682.054283
_symmetry_space_group_name_H-M "I B C A "
_symmetry_group_IT_number 73
_symmetry_cell_setting 'orthorhombic'
loop_
_space_group_symop_operation_xyz
x,y,z
-x,1/2-y,z
x,-y,1/2-z
1/2-x,y,-z
-x,-y,-z
x,1/2+y,-z
-x,y,1/2+z
1/2+x,-y,z
1/2+x,1/2+y,1/2+z
1/2-x,-y,1/2+z
1/2+x,1/2-y,-z
-x,1/2+y,1/2-z
1/2-x,1/2-y,1/2-z
1/2+x,y,1/2-z
1/2-x,1/2+y,z
x,1/2-y,1/2+z
loop_
_atom_site_type_symbol
_atom_site_label
_atom_site_fract_x
_atom_site_fract_y
_atom_site_fract_z
Si Si1 0.633915 0.677209 0.014434
Si Si2 0.858066 0.552236 0.533975
Si Si3 0.481886 0.943787 0.211646
Si Si4 0.461816 0.310902 0.138478
Si Si5 0.000000 0.750000 0.379652
Si Si6 0.625260 0.339086 0.782532
Si Si7 0.563423 0.063894 0.950559
Si Si8 0.346567 0.886956 0.319572
O O1 0.577960 0.667381 0.937960
O O2 0.750000 0.700006 0.000000
O O3 0.582290 0.720594 0.068126
O O4 0.637008 0.617638 0.053426
O O5 0.750000 0.574338 0.500000
O O6 0.871452 0.487095 0.516449
O O7 0.845588 0.567223 0.617838
O O8 0.959287 0.580971 0.496648
O O9 0.573317 0.899016 0.219340
O O10 0.467868 0.957146 0.128209
O O11 0.372719 0.920574 0.246151
O O12 0.519678 0.000000 0.250000
O O13 0.500000 0.250000 0.125849
O O14 0.371446 0.315021 0.200641
O O15 0.560562 0.344994 0.165459
O O16 0.938867 0.704597 0.331804
O O17 0.742517 0.349360 0.812400
#
# Coordination Sequence:
#
# PCOD8296925 Si02
#       8
#    16  16  16  16   8  16  16  16
#     4  12  27  44  70 102 139 187 231 288 354 413
#     4  11  23  41  70  98 132 181 223 284 350 411
#     4  11  23  45  67  99 140 175 229 288 345 418
#     4  11  25  46  66 101 140 179 234 290 339 424
#     4  12  26  46  66 106 136 180 240 286 344 414
#     4  11  26  44  72 100 137 188 225 291 350 418
#     4  11  23  45  66  99 142 173 230 286 343 424
#     4  11  25  44  69 100 134 179 232 278 351 414
#
# _framework density 21.119122000000001
#
# number of rings (size 3 to 8) (size 9 to 14) (size 15 to 20)
#    0.000    0.800    5.333    1.200    3.733    1.067 
#    2.400    0.000    0.000    0.000    0.000    0.000 
#    0.000    0.000    0.000    0.000    0.000    0.000 
#
# Total GULP energy -743975.219097 kJ/mol
# GULP energy per Si atom -12399.586985 kJ/mol
# Density = 2.107105 g / cm^3
# Si number density = 21.119122 Si / 1000 Ang^3
#
#
#
# Elastic Constant Matrix: (Units=GPa)
#
#
# Indices 1 2 3 4 5 6 
#
# 1 100.6880 35.6132 31.4210 0.0000 0.0000 0.0000
# 2 35.6132 110.1823 31.8425 0.0000 0.0000 0.0000
# 3 31.4210 31.8425 119.0208 0.0000 0.0000 0.0000
# 4 0.0000 0.0000 0.0000 35.8839 0.0000 0.0000
# 5 0.0000 0.0000 0.0000 0.0000 31.6855 0.0000
# 6 0.0000 0.0000 0.0000 0.0000 0.0000 8.8664
#
#
#
# Elastic Compliance Matrix: (Units=1/GPa)
#
#
# Indices 1 2 3 4 5 6 
#
# 1 0.011749 -0.003144 -0.002261 0.000000 0.000000 0.000000
# 2 -0.003144 0.010678 -0.002027 0.000000 0.000000 0.000000
# 3 -0.002261 -0.002027 0.009541 0.000000 0.000000 0.000000
# 4 0.000000 0.000000 0.000000 0.027868 0.000000 0.000000
# 5 0.000000 0.000000 0.000000 0.000000 0.031560 0.000000
# 6 0.000000 0.000000 0.000000 0.000000 0.000000 0.112786
#
#
# Mechanical properties :
#
#
# Convention : Reuss Voigt Hill
#
# Bulk Modulus (GPa) = 58.46242 58.62718 58.54480
# Shear Modulus (GPa) = 22.24732 30.68811 26.46772
#
# Velocity S-wave (km/s) = 3.24917 3.81608 3.54398
# Velocity P-wave (km/s) = 6.46672 6.87293 6.67292
#
# Compressibility (1/GPa) = 0.01710501
#
# Stress axis : x y z
#
# Youngs Moduli (GPa) = 85.11193 93.65166 104.81224
#
# Poissons Ratio (x) = 0.29447 0.23693
# Poissons Ratio (y) = 0.26762 0.21242
# Poissons Ratio (z) = 0.19240 0.18980
#
# Static dielectric constant tensor:
#      x y z
#    x 3.732730 0.000000 0.000000 
#    y 0.000000 3.795210 0.000000 
#    z 0.000000 0.000000 4.170110 
# 
# 
# High freq. dielectric constant tensor:
#      x y z
#    x 1.817800 0.000000 0.000000 
#    y 0.000000 1.839440 0.000000 
#    z 0.000000 0.000000 1.843280 
# 
# From -- ./inp_files/21508.got.cif
#   From: 2010.03.12/outbox.cif.g09.slc.cpg/sg73_11_cif.got.tgz:21508.got - 2010.04.16 15:25:48.
