data_PCOD8296585
_publ_section_title
;
Structure prediction by ZEFSAII (Michael W. Deem and Ramdas Pophale) SiO2 
 PCOD8296585
Probable space group: I B C A 
;
_chemical_formula_sum "Si O2"
_cell_formula_units_Z 96
_cell_length_a 23.284779
_cell_length_b 13.988223
_cell_length_c 13.691118
_cell_angle_alpha 90.000000
_cell_angle_beta 90.000000
_cell_angle_gamma 90.000000
_cell_volume 4459.370752
_symmetry_space_group_name_H-M "I B C A "
_symmetry_group_IT_number 73
_symmetry_cell_setting 'orthorhombic'
loop_
_space_group_symop_operation_xyz
x,y,z
-x,1/2-y,z
x,-y,1/2-z
1/2-x,y,-z
-x,-y,-z
x,1/2+y,-z
-x,y,1/2+z
1/2+x,-y,z
1/2+x,1/2+y,1/2+z
1/2-x,-y,1/2+z
1/2+x,1/2-y,-z
-x,1/2+y,1/2-z
1/2-x,1/2-y,1/2-z
1/2+x,y,1/2-z
1/2-x,1/2+y,z
x,1/2-y,1/2+z
loop_
_atom_site_type_symbol
_atom_site_label
_atom_site_fract_x
_atom_site_fract_y
_atom_site_fract_z
Si Si1 0.313076 0.289862 0.760759
Si Si2 0.424912 0.394149 0.985901
Si Si3 0.981949 0.481193 0.138024
Si Si4 0.700046 0.569748 0.066890
Si Si5 0.899187 0.693170 0.403133
Si Si6 0.694522 0.855346 0.947362
O O1 0.250000 0.250000 0.750000
O O2 0.307414 0.383639 0.827305
O O3 0.361293 0.221654 0.808328
O O4 0.331536 0.306516 0.649158
O O5 0.454964 0.462411 0.905800
O O6 0.358021 0.418099 0.994558
O O7 0.431198 0.282885 0.954938
O O8 0.453938 0.423600 0.089296
O O9 0.991111 0.500000 0.250000
O O10 0.945742 0.384604 0.125505
O O11 0.715435 0.459918 0.085055
O O12 0.750000 0.617340 0.000000
O O13 0.857224 0.641205 0.477826
O O14 0.750000 0.804391 0.000000
#
# Coordination Sequence:
#
# PCOD8296585 Si02
#       6
#    16  16  16  16  16  16
#     4  11  24  37  63  97 137 177 226 280 348 416
#     4  10  24  46  67  99 138 174 223 290 335 413
#     4  11  25  47  71 100 137 181 234 285 344 408
#     4  10  23  42  68  95 131 177 221 280 346 410
#     4  11  24  43  69 101 134 179 240 278 349 411
#     4  11  22  42  61  95 141 180 222 285 346 413
#
# _framework density 21.527702000000001
#
# number of rings (size 3 to 8) (size 9 to 14) (size 15 to 20)
#    0.000    1.333    3.333    1.000    7.000    2.667 
#    0.000    3.333    0.000    0.000    0.000    0.000 
#    0.000    0.000    0.000    0.000    0.000    0.000 
#
# Total GULP energy -594985.028789 kJ/mol
# GULP energy per Si atom -12395.521433 kJ/mol
# Density = 2.147870 g / cm^3
# Si number density = 21.527702 Si / 1000 Ang^3
#
#
#
# Elastic Constant Matrix: (Units=GPa)
#
#
# Indices 1 2 3 4 5 6 
#
# 1 101.4873 1.9455 21.4345 0.0000 0.0000 0.0000
# 2 1.9455 64.0292 7.1164 0.0000 0.0000 0.0000
# 3 21.4345 7.1164 133.0095 0.0000 0.0000 0.0000
# 4 0.0000 0.0000 0.0000 18.3541 0.0000 0.0000
# 5 0.0000 0.0000 0.0000 0.0000 28.1499 0.0000
# 6 0.0000 0.0000 0.0000 0.0000 0.0000 26.1860
#
#
#
# Elastic Compliance Matrix: (Units=1/GPa)
#
#
# Indices 1 2 3 4 5 6 
#
# 1 0.010202 -0.000128 -0.001637 0.000000 0.000000 0.000000
# 2 -0.000128 0.015713 -0.000820 0.000000 0.000000 0.000000
# 3 -0.001637 -0.000820 0.007826 0.000000 0.000000 0.000000
# 4 0.000000 0.000000 0.000000 0.054484 0.000000 0.000000
# 5 0.000000 0.000000 0.000000 0.000000 0.035524 0.000000
# 6 0.000000 0.000000 0.000000 0.000000 0.000000 0.038188
#
#
# Mechanical properties :
#
#
# Convention : Reuss Voigt Hill
#
# Bulk Modulus (GPa) = 35.00163 39.94653 37.47408
# Shear Modulus (GPa) = 28.30768 32.40664 30.35716
#
# Velocity S-wave (km/s) = 3.63015 3.88409 3.75926
# Velocity P-wave (km/s) = 5.81935 6.22182 6.02394
#
# Compressibility (1/GPa) = 0.02857010
#
# Stress axis : x y z
#
# Youngs Moduli (GPa) = 98.02312 63.64193 127.77983
#
# Poissons Ratio (x) = 0.00815 0.20919
# Poissons Ratio (y) = 0.01255 0.10479
# Poissons Ratio (z) = 0.16048 0.05219
#
# Static dielectric constant tensor:
#      x y z
#    x 4.006260 0.000000 0.000000 
#    y 0.000000 4.096240 0.000000 
#    z 0.000000 0.000000 5.131230 
# 
# 
# High freq. dielectric constant tensor:
#      x y z
#    x 1.852590 0.000000 0.000000 
#    y 0.000000 1.846170 0.000000 
#    z 0.000000 0.000000 1.845280 
# 
# From -- ./inp_files/13618.got.cif
#   From: 2010.03.12/outbox.cif.g09.slc.cpg/sg73_7_cif.got.tgz:13618.got - 2010.04.16 15:25:48.
