data_PCOD8296391
_publ_section_title
;
Structure prediction by ZEFSAII (Michael W. Deem and Ramdas Pophale) SiO2 
 PCOD8296391
Probable space group: I B C A 
;
_chemical_formula_sum "Si O2"
_cell_formula_units_Z 80
_cell_length_a 12.529964
_cell_length_b 26.214594
_cell_length_c 9.933499
_cell_angle_alpha 90.000000
_cell_angle_beta 90.000000
_cell_angle_gamma 90.000000
_cell_volume 3262.835746
_symmetry_space_group_name_H-M "I B C A "
_symmetry_group_IT_number 73
_symmetry_cell_setting 'orthorhombic'
loop_
_space_group_symop_operation_xyz
x,y,z
-x,1/2-y,z
x,-y,1/2-z
1/2-x,y,-z
-x,-y,-z
x,1/2+y,-z
-x,y,1/2+z
1/2+x,-y,z
1/2+x,1/2+y,1/2+z
1/2-x,-y,1/2+z
1/2+x,1/2-y,-z
-x,1/2+y,1/2-z
1/2-x,1/2-y,1/2-z
1/2+x,y,1/2-z
1/2-x,1/2+y,z
x,1/2-y,1/2+z
loop_
_atom_site_type_symbol
_atom_site_label
_atom_site_fract_x
_atom_site_fract_y
_atom_site_fract_z
Si Si1 0.946829 0.634657 0.104675
Si Si2 0.975049 0.191844 0.152884
Si Si3 0.799514 0.456178 0.141704
Si Si4 0.468053 0.946240 0.204608
Si Si5 0.287451 0.624037 0.664689
O O1 0.818562 0.628591 0.069170
O O2 0.948149 0.675529 0.226267
O O3 0.003882 0.583432 0.155843
O O4 0.008072 0.659080 0.978677
O O5 0.849331 0.178272 0.188268
O O6 0.000000 0.250000 0.119909
O O7 0.775357 0.500000 0.250000
O O8 0.753103 0.402006 0.195577
O O9 0.926117 0.452672 0.116448
O O10 0.750000 0.471608 0.000000
O O11 0.382653 0.915125 0.113173
O O12 0.417722 0.000000 0.250000
#
# Coordination Sequence:
#
# PCOD8296391 Si02
#       5
#    16  16  16  16  16
#     4  10  23  44  69  99 135 176 227 286 350 422
#     4  11  24  44  69  98 133 175 227 290 358 423
#     4  10  22  41  67 103 145 189 233 279 338 411
#     4   9  20  39  65 100 140 180 224 275 334 408
#     4  10  22  40  65  98 136 181 231 283 342 410
#
# _framework density 24.518549
#
# number of rings (size 3 to 8) (size 9 to 14) (size 15 to 20)
#    0.000    2.000    0.000    1.800    0.000   16.000 
#    0.000   13.000    0.000    0.000    0.000    0.000 
#    0.000    0.000    0.000    0.000    0.000    0.000 
#
# Total GULP energy -495755.561821 kJ/mol
# GULP energy per Si atom -12393.889046 kJ/mol
# Density = 2.446274 g / cm^3
# Si number density = 24.518549 Si / 1000 Ang^3
#
#
#
# Elastic Constant Matrix: (Units=GPa)
#
#
# Indices 1 2 3 4 5 6 
#
# 1 150.3958 30.8896 36.8060 0.0002 -0.0002 -0.0001
# 2 30.8896 141.0091 25.8949 -0.0012 -0.0006 -0.0002
# 3 36.8060 25.8949 126.4341 -0.0131 -0.0015 0.0002
# 4 0.0002 -0.0012 -0.0131 28.4927 -0.0002 -0.0001
# 5 -0.0002 -0.0006 -0.0015 -0.0002 41.2542 0.0002
# 6 -0.0001 -0.0002 0.0002 -0.0001 0.0002 28.4626
#
#
#
# Elastic Compliance Matrix: (Units=1/GPa)
#
#
# Indices 1 2 3 4 5 6 
#
# 1 0.007371 -0.001268 -0.001886 -0.000001 0.000000 0.000000
# 2 -0.001268 0.007587 -0.001185 0.000000 0.000000 0.000000
# 3 -0.001886 -0.001185 0.008701 0.000004 0.000000 0.000000
# 4 -0.000001 0.000000 0.000004 0.035097 0.000000 0.000000
# 5 0.000000 0.000000 0.000000 0.000000 0.024240 0.000000
# 6 0.000000 0.000000 0.000000 0.000000 0.000000 0.035134
#
#
# Mechanical properties :
#
#
# Convention : Reuss Voigt Hill
#
# Bulk Modulus (GPa) = 66.75095 67.22446 66.98770
# Shear Modulus (GPa) = 37.93577 41.25846 39.59712
#
# Velocity S-wave (km/s) = 3.93775 4.10658 4.02305
# Velocity P-wave (km/s) = 6.92519 7.06842 6.99717
#
# Compressibility (1/GPa) = 0.01498106
#
# Stress axis : x y z
#
# Youngs Moduli (GPa) = 135.66310 131.80177 114.93023
#
# Poissons Ratio (x) = 0.16718 0.21676
# Poissons Ratio (y) = 0.17207 0.13616
# Poissons Ratio (z) = 0.25587 0.15614
#
# Static dielectric constant tensor:
#      x y z
#    x 4.827410 0.000000 0.000000 
#    y 0.000000 4.333480 0.000000 
#    z 0.000000 0.000000 4.337100 
# 
# 
# High freq. dielectric constant tensor:
#      x y z
#    x 1.993040 0.000000 0.000000 
#    y 0.000000 1.952300 0.000000 
#    z 0.000000 0.000000 1.987120 
# 
# From -- ./inp_files/11036.got.cif
#   From: 2010.03.12/outbox.cif.g09.slc.cpg/sg73_6_cif.got.tgz:11036.got - 2010.04.16 15:25:48.
