data_PCOD8296031
_publ_section_title
;
Structure prediction by ZEFSAII (Michael W. Deem and Ramdas Pophale) SiO2 
 PCOD8296031
Probable space group: I B C A 
;
_chemical_formula_sum "Si O2"
_cell_formula_units_Z 64
_cell_length_a 12.801769
_cell_length_b 8.788121
_cell_length_c 24.293600
_cell_angle_alpha 90.000000
_cell_angle_beta 90.000000
_cell_angle_gamma 90.000000
_cell_volume 2733.114906
_symmetry_space_group_name_H-M "I B C A "
_symmetry_group_IT_number 73
_symmetry_cell_setting 'orthorhombic'
loop_
_space_group_symop_operation_xyz
x,y,z
-x,1/2-y,z
x,-y,1/2-z
1/2-x,y,-z
-x,-y,-z
x,1/2+y,-z
-x,y,1/2+z
1/2+x,-y,z
1/2+x,1/2+y,1/2+z
1/2-x,-y,1/2+z
1/2+x,1/2-y,-z
-x,1/2+y,1/2-z
1/2-x,1/2-y,1/2-z
1/2+x,y,1/2-z
1/2-x,1/2+y,z
x,1/2-y,1/2+z
loop_
_atom_site_type_symbol
_atom_site_label
_atom_site_fract_x
_atom_site_fract_y
_atom_site_fract_z
Si Si1 0.439425 0.979837 0.074331
Si Si2 0.812412 0.819910 0.330459
Si Si3 0.558910 0.500000 0.250000
Si Si4 0.000000 0.250000 0.485867
Si Si5 0.392351 0.485266 0.158697
O O1 0.361233 0.919508 0.120254
O O2 0.557543 0.993952 0.098413
O O3 0.418003 0.151062 0.051482
O O4 0.433085 0.863617 0.023587
O O5 0.830979 0.641233 0.330869
O O6 0.864620 0.868481 0.272596
O O7 0.688771 0.847223 0.334661
O O8 0.484860 0.443961 0.200767
#
# Coordination Sequence:
#
# PCOD8296031 Si02
#       5
#    16  16   8   8  16
#     4  10  21  43  64  93 126 169 207 263 310 375
#     4  11  24  42  64  96 130 164 209 261 312 377
#     4  10  22  42  66  88 122 170 204 254 308 376
#     4  10  20  40  72  86 124 170 214 254 322 364
#     4  11  24  42  64  96 130 164 209 261 312 377
#
# _framework density 23.416506999999999
#
# number of rings (size 3 to 8) (size 9 to 14) (size 15 to 20)
#    0.000    1.500    2.500    3.000    3.500    6.000 
#    9.000    7.500    0.000    0.000    0.000    0.000 
#    0.000    0.000    0.000    0.000    0.000    0.000 
#
# Total GULP energy -396603.771648 kJ/mol
# GULP energy per Si atom -12393.867864 kJ/mol
# Density = 2.336321 g / cm^3
# Si number density = 23.416507 Si / 1000 Ang^3
#
#
#
# Elastic Constant Matrix: (Units=GPa)
#
#
# Indices 1 2 3 4 5 6 
#
# 1 86.3368 -5.6001 7.5033 0.0000 0.0000 0.0000
# 2 -5.6001 86.0844 22.9377 0.0000 0.0000 0.0000
# 3 7.5033 22.9377 87.8223 0.0000 0.0000 0.0000
# 4 0.0000 0.0000 0.0000 28.4794 0.0000 0.0000
# 5 0.0000 0.0000 0.0000 0.0000 12.4733 0.0000
# 6 0.0000 0.0000 0.0000 0.0000 0.0000 19.9864
#
#
#
# Elastic Compliance Matrix: (Units=1/GPa)
#
#
# Indices 1 2 3 4 5 6 
#
# 1 0.011767 0.001111 -0.001295 0.000000 0.000000 0.000000
# 2 0.001111 0.012590 -0.003383 0.000000 0.000000 0.000000
# 3 -0.001295 -0.003383 0.012381 0.000000 0.000000 0.000000
# 4 0.000000 0.000000 0.000000 0.035113 0.000000 0.000000
# 5 0.000000 0.000000 0.000000 0.000000 0.080171 0.000000
# 6 0.000000 0.000000 0.000000 0.000000 0.000000 0.050034
#
#
# Mechanical properties :
#
#
# Convention : Reuss Voigt Hill
#
# Bulk Modulus (GPa) = 33.78111 34.43614 34.10863
# Shear Modulus (GPa) = 22.82478 27.88133 25.35305
#
# Velocity S-wave (km/s) = 3.12545 3.45435 3.29401
# Velocity P-wave (km/s) = 5.24234 5.53606 5.39120
#
# Compressibility (1/GPa) = 0.02960234
#
# Stress axis : x y z
#
# Youngs Moduli (GPa) = 84.98215 79.42660 80.76919
#
# Poissons Ratio (x) = -0.08822 0.10463
# Poissons Ratio (y) = -0.09439 0.27326
# Poissons Ratio (z) = 0.11009 0.26872
#
# Static dielectric constant tensor:
#      x y z
#    x 3.984250 0.000000 0.000000 
#    y 0.000000 4.208210 0.000000 
#    z 0.000000 0.000000 4.654500 
# 
# 
# High freq. dielectric constant tensor:
#      x y z
#    x 1.897850 0.000000 0.000000 
#    y 0.000000 1.935230 0.000000 
#    z 0.000000 0.000000 1.944350 
# 
# From -- ./inp_files/4735.got.cif
#   From: 2010.03.12/outbox.cif.g09.slc.cpg/sg73_3_cif.got.tgz:4735.got - 2010.04.16 15:25:48.
