data_PCOD8296355
_publ_section_title
;
Structure prediction by ZEFSAII (Michael W. Deem and Ramdas Pophale) SiO2 
 PCOD8296355
Probable space group: I B C A 
;
_chemical_formula_sum "Si O2"
_cell_formula_units_Z 128
_cell_length_a 26.261664
_cell_length_b 9.993879
_cell_length_c 23.753197
_cell_angle_alpha 90.000000
_cell_angle_beta 90.000000
_cell_angle_gamma 90.000000
_cell_volume 6234.166515
_symmetry_space_group_name_H-M "I B C A "
_symmetry_group_IT_number 73
_symmetry_cell_setting 'orthorhombic'
loop_
_space_group_symop_operation_xyz
x,y,z
-x,1/2-y,z
x,-y,1/2-z
1/2-x,y,-z
-x,-y,-z
x,1/2+y,-z
-x,y,1/2+z
1/2+x,-y,z
1/2+x,1/2+y,1/2+z
1/2-x,-y,1/2+z
1/2+x,1/2-y,-z
-x,1/2+y,1/2-z
1/2-x,1/2-y,1/2-z
1/2+x,y,1/2-z
1/2-x,1/2+y,z
x,1/2-y,1/2+z
loop_
_atom_site_type_symbol
_atom_site_label
_atom_site_fract_x
_atom_site_fract_y
_atom_site_fract_z
Si Si1 0.044958 0.349692 0.737096
Si Si2 0.858206 0.843977 0.471390
Si Si3 0.548913 0.333026 0.986736
Si Si4 0.308346 0.606560 0.412711
Si Si5 0.072563 0.534570 0.096571
Si Si6 0.231929 0.833111 0.437649
Si Si7 0.098574 0.802055 0.157211
Si Si8 0.966510 0.462120 0.125018
O O1 0.025904 0.500000 0.750000
O O2 0.094974 0.307202 0.774071
O O3 0.056659 0.354742 0.670019
O O4 0.000000 0.250000 0.753339
O O5 0.903384 0.760702 0.499463
O O6 0.830609 0.914526 0.524101
O O7 0.820740 0.747371 0.437800
O O8 0.879560 0.949634 0.425894
O O9 0.500000 0.250000 0.969266
O O10 0.559907 0.429060 0.934277
O O11 0.539462 0.415277 0.043205
O O12 0.273974 0.739365 0.408233
O O13 0.275648 0.470842 0.402231
O O14 0.351017 0.622589 0.364659
O O15 0.096015 0.650977 0.134914
O O16 0.028664 0.450217 0.128517
O O17 0.250000 0.871816 0.500000
O O18 0.048807 0.884406 0.137281
#
# Coordination Sequence:
#
# PCOD8296355 Si02
#       8
#    16  16  16  16  16  16  16  16
#     4  10  22  41  63  87 123 170 226 268 311 367
#     4  11  22  36  55  88 131 171 210 252 318 399
#     4  12  22  34  52  86 130 175 206 248 314 382
#     4  11  23  39  62  89 125 168 212 265 327 396
#     4  12  23  34  58  90 134 175 210 258 315 384
#     4  10  22  39  61  85 124 169 211 261 323 396
#     4  11  22  38  59  87 124 165 215 268 326 370
#     4  11  22  38  58  86 128 174 218 258 307 377
#
# _framework density 20.532015000000001
#
# number of rings (size 3 to 8) (size 9 to 14) (size 15 to 20)
#    0.000    1.000    2.500    6.750    3.500    0.000 
#    0.000    0.000    0.000    0.000    0.000   14.000 
#    0.000    0.000    0.000    0.000    0.000    0.000 
#
# Total GULP energy -793522.682229 kJ/mol
# GULP energy per Si atom -12398.791910 kJ/mol
# Density = 2.048528 g / cm^3
# Si number density = 20.532015 Si / 1000 Ang^3
#
#
#
# Elastic Constant Matrix: (Units=GPa)
#
#
# Indices 1 2 3 4 5 6 
#
# 1 99.1553 41.0916 30.2866 0.0000 0.0000 0.0000
# 2 41.0916 101.2885 39.8007 0.0000 0.0000 0.0000
# 3 30.2866 39.8007 89.9213 0.0000 0.0000 0.0000
# 4 0.0000 0.0000 0.0000 19.9613 0.0000 0.0000
# 5 0.0000 0.0000 0.0000 0.0000 21.5280 0.0000
# 6 0.0000 0.0000 0.0000 0.0000 0.0000 40.9495
#
#
#
# Elastic Compliance Matrix: (Units=1/GPa)
#
#
# Indices 1 2 3 4 5 6 
#
# 1 0.012532 -0.004147 -0.002386 0.000000 0.000000 0.000000
# 2 -0.004147 0.013324 -0.004501 0.000000 0.000000 0.000000
# 3 -0.002386 -0.004501 0.013916 0.000000 0.000000 0.000000
# 4 0.000000 0.000000 0.000000 0.050097 0.000000 0.000000
# 5 0.000000 0.000000 0.000000 0.000000 0.046451 0.000000
# 6 0.000000 0.000000 0.000000 0.000000 0.000000 0.024420
#
#
# Mechanical properties :
#
#
# Convention : Reuss Voigt Hill
#
# Bulk Modulus (GPa) = 56.47689 56.96921 56.72305
# Shear Modulus (GPa) = 26.49587 28.43352 27.46470
#
# Velocity S-wave (km/s) = 3.59620 3.72538 3.66136
# Velocity P-wave (km/s) = 6.69403 6.80524 6.74987
#
# Compressibility (1/GPa) = 0.01770636
#
# Stress axis : x y z
#
# Youngs Moduli (GPa) = 79.79328 75.05490 71.85793
#
# Poissons Ratio (x) = 0.31124 0.17142
# Poissons Ratio (y) = 0.33089 0.32340
# Poissons Ratio (z) = 0.19035 0.33779
#
# Static dielectric constant tensor:
#      x y z
#    x 3.862340 0.000000 0.000000 
#    y 0.000000 3.876400 0.000000 
#    z 0.000000 0.000000 3.751260 
# 
# 
# High freq. dielectric constant tensor:
#      x y z
#    x 1.787260 0.000000 0.000000 
#    y 0.000000 1.817260 0.000000 
#    z 0.000000 0.000000 1.772700 
# 
# From -- ./inp_files/30567.got.cif
#   From: 2010.03.12/outbox.cif.g09.slc.cpg/sg73_16_cif.got.tgz:30567.got - 2010.04.16 15:25:48.
