data_PCOD8296423
_publ_section_title
;
Structure prediction by ZEFSAII (Michael W. Deem and Ramdas Pophale) SiO2 
 PCOD8296423
Probable space group: I B C A 
;
_chemical_formula_sum "Si O2"
_cell_formula_units_Z 120
_cell_length_a 10.839490
_cell_length_b 26.846496
_cell_length_c 19.466544
_cell_angle_alpha 90.000000
_cell_angle_beta 90.000000
_cell_angle_gamma 90.000000
_cell_volume 5664.809562
_symmetry_space_group_name_H-M "I B C A "
_symmetry_group_IT_number 73
_symmetry_cell_setting 'orthorhombic'
loop_
_space_group_symop_operation_xyz
x,y,z
-x,1/2-y,z
x,-y,1/2-z
1/2-x,y,-z
-x,-y,-z
x,1/2+y,-z
-x,y,1/2+z
1/2+x,-y,z
1/2+x,1/2+y,1/2+z
1/2-x,-y,1/2+z
1/2+x,1/2-y,-z
-x,1/2+y,1/2-z
1/2-x,1/2-y,1/2-z
1/2+x,y,1/2-z
1/2-x,1/2+y,z
x,1/2-y,1/2+z
loop_
_atom_site_type_symbol
_atom_site_label
_atom_site_fract_x
_atom_site_fract_y
_atom_site_fract_z
Si Si1 0.298053 0.706472 0.695657
Si Si2 0.570048 0.933811 0.945002
Si Si3 0.466986 0.912282 0.797354
Si Si4 0.312759 0.912109 0.196336
Si Si5 0.948273 0.807083 0.761146
Si Si6 0.139021 0.044913 0.548100
Si Si7 0.750000 0.645062 0.500000
Si Si8 0.613048 0.218684 0.403372
O O1 0.312667 0.647243 0.687234
O O2 0.176708 0.720634 0.737370
O O3 0.422551 0.724123 0.738355
O O4 0.293119 0.738195 0.624636
O O5 0.490735 0.927183 0.875898
O O6 0.642324 0.985578 0.942647
O O7 0.484995 0.934388 0.012791
O O8 0.668284 0.889122 0.949771
O O9 0.325601 0.930500 0.779101
O O10 0.579584 0.932140 0.748699
O O11 0.467615 0.853129 0.789467
O O12 0.348149 0.932890 0.122944
O O13 0.927240 0.819252 0.841974
O O14 0.250000 0.062427 0.500000
O O15 0.663866 0.682312 0.540398
O O16 0.500000 0.250000 0.435453
#
# Coordination Sequence:
#
# PCOD8296423 Si02
#       8
#    16  16  16  16  16  16   8  16
#     4   9  19  38  62  97 126 173 216 275 335 403
#     4  11  26  44  72 101 136 185 237 287 359 428
#     4  10  22  41  66 106 132 177 231 282 356 410
#     4  10  22  41  74 100 140 181 226 298 349 426
#     4   9  19  36  65  91 129 168 220 273 333 404
#     4  11  23  48  70 101 138 186 236 284 358 439
#     4  12  28  44  68 100 142 182 226 300 340 418
#     4  10  23  44  62  93 136 182 223 270 348 408
#
# _framework density 21.183413000000002
#
# number of rings (size 3 to 8) (size 9 to 14) (size 15 to 20)
#    0.000    1.867    2.000    0.400   11.200    0.533 
#    6.000    1.333    0.000    0.000    0.000    0.000 
#    0.000    0.000    0.000    0.000    0.000    0.000 
#
# Total GULP energy -743309.769473 kJ/mol
# GULP energy per Si atom -12388.496158 kJ/mol
# Density = 2.113520 g / cm^3
# Si number density = 21.183413 Si / 1000 Ang^3
#
#
#
# Elastic Constant Matrix: (Units=GPa)
#
#
# Indices 1 2 3 4 5 6 
#
# 1 147.4223 44.7183 68.0641 0.0000 0.0000 0.0000
# 2 44.7183 79.1871 46.3508 -0.0001 0.0000 0.0000
# 3 68.0641 46.3508 114.4908 -0.0003 0.0002 0.0000
# 4 0.0000 -0.0001 -0.0003 29.1242 0.0001 0.0000
# 5 0.0000 0.0000 0.0002 0.0001 35.2113 0.0000
# 6 0.0000 0.0000 0.0000 0.0000 0.0000 29.7277
#
#
#
# Elastic Compliance Matrix: (Units=1/GPa)
#
#
# Indices 1 2 3 4 5 6 
#
# 1 0.009796 -0.002783 -0.004697 0.000000 0.000000 0.000000
# 2 -0.002783 0.017341 -0.005366 0.000000 0.000000 0.000000
# 3 -0.004697 -0.005366 0.013699 0.000000 0.000000 0.000000
# 4 0.000000 0.000000 0.000000 0.034336 0.000000 0.000000
# 5 0.000000 0.000000 0.000000 0.000000 0.028400 0.000000
# 6 0.000000 0.000000 0.000000 0.000000 0.000000 0.033639
#
#
# Mechanical properties :
#
#
# Convention : Reuss Voigt Hill
#
# Bulk Modulus (GPa) = 66.03153 73.26295 69.64724
# Shear Modulus (GPa) = 29.77087 30.94376 30.35731
#
# Velocity S-wave (km/s) = 3.75291 3.82613 3.78970
# Velocity P-wave (km/s) = 7.07235 7.36065 7.21794
#
# Compressibility (1/GPa) = 0.01514428
#
# Stress axis : x y z
#
# Youngs Moduli (GPa) = 102.08343 57.66830 72.99741
#
# Poissons Ratio (x) = 0.16046 0.34288
# Poissons Ratio (y) = 0.28405 0.39170
# Poissons Ratio (z) = 0.47950 0.30945
#
# Static dielectric constant tensor:
#      x y z
#    x 4.552090 0.000000 0.000000 
#    y 0.000000 3.914570 0.000000 
#    z 0.000000 0.000000 3.799520 
# 
# 
# High freq. dielectric constant tensor:
#      x y z
#    x 1.861240 0.000000 0.000000 
#    y 0.000000 1.842110 0.000000 
#    z 0.000000 0.000000 1.808010 
# 
# From -- ./inp_files/21524.got.cif
#   From: 2010.03.12/outbox.cif.g09.slc.cpg/sg73_11_cif.got.tgz:21524.got - 2010.04.16 15:25:48.
