data_PCOD8296029
_publ_section_title
;
Structure prediction by ZEFSAII (Michael W. Deem and Ramdas Pophale) SiO2 
 PCOD8296029
Probable space group: I B C A 
;
_chemical_formula_sum "Si O2"
_cell_formula_units_Z 120
_cell_length_a 10.958411
_cell_length_b 20.832031
_cell_length_c 23.183946
_cell_angle_alpha 90.000000
_cell_angle_beta 90.000000
_cell_angle_gamma 90.000000
_cell_volume 5292.569315
_symmetry_space_group_name_H-M "I B C A "
_symmetry_group_IT_number 73
_symmetry_cell_setting 'orthorhombic'
loop_
_space_group_symop_operation_xyz
x,y,z
-x,1/2-y,z
x,-y,1/2-z
1/2-x,y,-z
-x,-y,-z
x,1/2+y,-z
-x,y,1/2+z
1/2+x,-y,z
1/2+x,1/2+y,1/2+z
1/2-x,-y,1/2+z
1/2+x,1/2-y,-z
-x,1/2+y,1/2-z
1/2-x,1/2-y,1/2-z
1/2+x,y,1/2-z
1/2-x,1/2+y,z
x,1/2-y,1/2+z
loop_
_atom_site_type_symbol
_atom_site_label
_atom_site_fract_x
_atom_site_fract_y
_atom_site_fract_z
Si Si1 0.471805 0.502660 0.111122
Si Si2 0.723095 0.446534 0.435471
Si Si3 0.416683 0.062089 0.212552
Si Si4 0.687484 0.606176 0.657030
Si Si5 0.153701 0.809894 0.902527
Si Si6 0.500000 0.750000 0.497089
Si Si7 0.200672 0.191892 0.936006
Si Si8 0.999434 0.318598 0.713320
O O1 0.594725 0.513695 0.072558
O O2 0.342653 0.487299 0.081238
O O3 0.497920 0.445647 0.156423
O O4 0.439957 0.570865 0.140875
O O5 0.750000 0.427524 0.500000
O O6 0.715470 0.379808 0.401387
O O7 0.275154 0.059891 0.193652
O O8 0.441176 0.128540 0.244736
O O9 0.442925 0.000000 0.250000
O O10 0.765303 0.630151 0.601885
O O11 0.639408 0.663604 0.697623
O O12 0.255115 0.754664 0.901297
O O13 0.071824 0.806065 0.846124
O O14 0.078944 0.796572 0.961746
O O15 0.559552 0.700670 0.451153
O O16 0.250000 0.183229 0.000000
O O17 0.000000 0.250000 0.746630
#
# Coordination Sequence:
#
# PCOD8296029 Si02
#       8
#    16  16  16  16  16   8  16  16
#     4  12  27  50  72 108 148 194 251 308 370 451
#     4  12  26  47  76 108 146 196 243 306 370 452
#     4  12  28  48  75 106 143 202 252 312 385 445
#     4  12  25  46  72 106 144 189 253 305 368 451
#     4  11  21  43  70 104 144 185 241 297 374 444
#     4  10  20  40  72 104 144 194 232 288 382 460
#     4  10  22  41  70 105 144 188 231 293 375 451
#     4  12  24  47  78 104 143 194 251 317 377 438
#
# _framework density 22.673296000000001
#
# number of rings (size 3 to 8) (size 9 to 14) (size 15 to 20)
#    0.000    0.533    6.000    2.400    1.867    3.200 
#    3.600    0.000    0.000    0.000    0.000    0.000 
#    0.000    0.000    0.000    0.000    0.000    0.000 
#
# Total GULP energy -743298.005169 kJ/mol
# GULP energy per Si atom -12388.300086 kJ/mol
# Density = 2.262169 g / cm^3
# Si number density = 22.673296 Si / 1000 Ang^3
#
#
#
# Elastic Constant Matrix: (Units=GPa)
#
#
# Indices 1 2 3 4 5 6 
#
# 1 96.9876 29.0249 18.5305 0.0000 0.0000 0.0000
# 2 29.0249 111.6043 23.1826 0.0000 0.0000 0.0000
# 3 18.5305 23.1826 56.2633 0.0000 0.0000 0.0000
# 4 0.0000 0.0000 0.0000 33.1536 0.0000 0.0000
# 5 0.0000 0.0000 0.0000 0.0000 16.6438 0.0000
# 6 0.0000 0.0000 0.0000 0.0000 0.0000 36.7672
#
#
#
# Elastic Compliance Matrix: (Units=1/GPa)
#
#
# Indices 1 2 3 4 5 6 
#
# 1 0.011574 -0.002426 -0.002812 0.000000 0.000000 0.000000
# 2 -0.002426 0.010307 -0.003448 0.000000 0.000000 0.000000
# 3 -0.002812 -0.003448 0.020121 0.000000 0.000000 0.000000
# 4 0.000000 0.000000 0.000000 0.030163 0.000000 0.000000
# 5 0.000000 0.000000 0.000000 0.000000 0.060082 0.000000
# 6 0.000000 0.000000 0.000000 0.000000 0.000000 0.027198
#
#
# Mechanical properties :
#
#
# Convention : Reuss Voigt Hill
#
# Bulk Modulus (GPa) = 40.60207 45.14791 42.87499
# Shear Modulus (GPa) = 27.02305 30.25407 28.63856
#
# Velocity S-wave (km/s) = 3.45606 3.65684 3.55786
# Velocity P-wave (km/s) = 5.81997 6.14699 5.98572
#
# Compressibility (1/GPa) = 0.02462928
#
# Stress axis : x y z
#
# Youngs Moduli (GPa) = 86.40133 97.01823 49.70041
#
# Poissons Ratio (x) = 0.23535 0.13978
# Poissons Ratio (y) = 0.20959 0.17137
# Poissons Ratio (z) = 0.24299 0.33452
#
# Static dielectric constant tensor:
#      x y z
#    x 3.958630 0.000000 0.000000 
#    y 0.000000 4.239830 0.000000 
#    z 0.000000 0.000000 4.117310 
# 
# 
# High freq. dielectric constant tensor:
#      x y z
#    x 1.898200 0.000000 0.000000 
#    y 0.000000 1.901940 0.000000 
#    z 0.000000 0.000000 1.883710 
# 
# From -- ./inp_files/29081.got.cif
#   From: 2010.03.12/outbox.cif.g09.slc.cpg/sg73_15_cif.got.tgz:29081.got - 2010.04.16 15:25:48.
