data_PCOD8296301
_publ_section_title
;
Structure prediction by ZEFSAII (Michael W. Deem and Ramdas Pophale) SiO2 
 PCOD8296301
Probable space group: I B C A 
;
_chemical_formula_sum "Si O2"
_cell_formula_units_Z 96
_cell_length_a 9.912071
_cell_length_b 16.306662
_cell_length_c 27.996266
_cell_angle_alpha 90.000000
_cell_angle_beta 90.000000
_cell_angle_gamma 90.000000
_cell_volume 4525.114626
_symmetry_space_group_name_H-M "I B C A "
_symmetry_group_IT_number 73
_symmetry_cell_setting 'orthorhombic'
loop_
_space_group_symop_operation_xyz
x,y,z
-x,1/2-y,z
x,-y,1/2-z
1/2-x,y,-z
-x,-y,-z
x,1/2+y,-z
-x,y,1/2+z
1/2+x,-y,z
1/2+x,1/2+y,1/2+z
1/2-x,-y,1/2+z
1/2+x,1/2-y,-z
-x,1/2+y,1/2-z
1/2-x,1/2-y,1/2-z
1/2+x,y,1/2-z
1/2-x,1/2+y,z
x,1/2-y,1/2+z
loop_
_atom_site_type_symbol
_atom_site_label
_atom_site_fract_x
_atom_site_fract_y
_atom_site_fract_z
Si Si1 0.000000 0.750000 0.545946
Si Si2 0.599019 0.115035 0.847519
Si Si3 0.381429 0.303813 0.750173
Si Si4 0.159800 0.575613 0.906606
Si Si5 0.750000 0.668846 0.500000
Si Si6 0.123662 0.109234 0.390489
Si Si7 0.616696 0.929816 0.829503
O O1 0.873390 0.726976 0.513668
O O2 0.956638 0.828142 0.576665
O O3 0.570046 0.175295 0.803746
O O4 0.477075 0.114394 0.885250
O O5 0.731666 0.146133 0.875726
O O6 0.628073 0.027042 0.823588
O O7 0.500000 0.250000 0.726084
O O8 0.250000 0.250000 0.750000
O O9 0.350027 0.385867 0.720234
O O10 0.142848 0.478581 0.916275
O O11 0.278967 0.598280 0.870179
O O12 0.197488 0.612698 0.957243
O O13 0.035522 0.094457 0.343131
#
# Coordination Sequence:
#
# PCOD8296301 Si02
#       7
#     8  16  16  16   8  16  16
#     4  12  28  44  66 102 134 172 210 280 354 388
#     4  10  23  42  67  96 126 178 227 271 326 401
#     4  12  25  37  62  99 134 174 216 273 341 390
#     4  10  23  46  70  94 128 178 234 273 322 402
#     4  12  28  46  68 100 136 176 224 280 336 414
#     4  10  23  43  70  94 131 178 218 280 336 390
#     4  10  21  44  65  90 132 177 225 273 325 393
#
# _framework density 21.214932999999998
#
# number of rings (size 3 to 8) (size 9 to 14) (size 15 to 20)
#    0.000    1.333    1.667    2.500    5.833    2.667 
#    0.000    6.667    0.000    0.000    0.000    0.000 
#    0.000    0.000    0.000    0.000    0.000    0.000 
#
# Total GULP energy -595342.132465 kJ/mol
# GULP energy per Si atom -12402.961093 kJ/mol
# Density = 2.116665 g / cm^3
# Si number density = 21.214933 Si / 1000 Ang^3
#
#
#
# Elastic Constant Matrix: (Units=GPa)
#
#
# Indices 1 2 3 4 5 6 
#
# 1 135.5438 42.7069 42.1132 0.0000 0.0000 0.0000
# 2 42.7069 76.6357 47.0540 0.0000 0.0000 0.0000
# 3 42.1132 47.0540 106.6386 0.0000 0.0000 0.0000
# 4 0.0000 0.0000 0.0000 2.8806 0.0000 0.0000
# 5 0.0000 0.0000 0.0000 0.0000 30.5419 0.0000
# 6 0.0000 0.0000 0.0000 0.0000 0.0000 32.2655
#
#
#
# Elastic Compliance Matrix: (Units=1/GPa)
#
#
# Indices 1 2 3 4 5 6 
#
# 1 0.009217 -0.003980 -0.001884 0.000000 0.000000 0.000000
# 2 -0.003980 0.019616 -0.007084 0.000000 0.000000 0.000000
# 3 -0.001884 -0.007084 0.013247 0.000000 0.000000 0.000000
# 4 0.000000 0.000000 0.000000 0.347144 0.000000 0.000000
# 5 0.000000 0.000000 0.000000 0.000000 0.032742 0.000000
# 6 0.000000 0.000000 0.000000 0.000000 0.000000 0.030993
#
#
# Mechanical properties :
#
#
# Convention : Reuss Voigt Hill
#
# Bulk Modulus (GPa) = 61.78460 64.72958 63.25709
# Shear Modulus (GPa) = 10.32528 25.60054 17.96291
#
# Velocity S-wave (km/s) = 2.20852 3.47756 2.91299
# Velocity P-wave (km/s) = 5.97409 6.83390 6.41841
#
# Compressibility (1/GPa) = 0.01618526
#
# Stress axis : x y z
#
# Youngs Moduli (GPa) = 108.49632 50.97900 75.48774
#
# Poissons Ratio (x) = 0.20288 0.14221
# Poissons Ratio (y) = 0.43177 0.53474
# Poissons Ratio (z) = 0.20440 0.36113
#
# Static dielectric constant tensor:
#      x y z
#    x 4.074200 0.000000 0.000000 
#    y 0.000000 3.922840 0.000000 
#    z 0.000000 0.000000 3.717260 
# 
# 
# High freq. dielectric constant tensor:
#      x y z
#    x 1.854250 0.000000 0.000000 
#    y 0.000000 1.837980 0.000000 
#    z 0.000000 0.000000 1.818780 
# 
# From -- ./inp_files/33986.got.cif
#   From: 2010.03.12/outbox.cif.g09.slc.cpg/sg73_17_cif.got.tgz:33986.got - 2010.04.16 15:25:48.
