data_PCOD8296951
_publ_section_title
;
Structure prediction by ZEFSAII (Michael W. Deem and Ramdas Pophale) SiO2 
 PCOD8296951
Probable space group: I B C A 
;
_chemical_formula_sum "Si O2"
_cell_formula_units_Z 120
_cell_length_a 25.165211
_cell_length_b 24.434298
_cell_length_c 9.267601
_cell_angle_alpha 90.000000
_cell_angle_beta 90.000000
_cell_angle_gamma 90.000000
_cell_volume 5698.594703
_symmetry_space_group_name_H-M "I B C A "
_symmetry_group_IT_number 73
_symmetry_cell_setting 'orthorhombic'
loop_
_space_group_symop_operation_xyz
x,y,z
-x,1/2-y,z
x,-y,1/2-z
1/2-x,y,-z
-x,-y,-z
x,1/2+y,-z
-x,y,1/2+z
1/2+x,-y,z
1/2+x,1/2+y,1/2+z
1/2-x,-y,1/2+z
1/2+x,1/2-y,-z
-x,1/2+y,1/2-z
1/2-x,1/2-y,1/2-z
1/2+x,y,1/2-z
1/2-x,1/2+y,z
x,1/2-y,1/2+z
loop_
_atom_site_type_symbol
_atom_site_label
_atom_site_fract_x
_atom_site_fract_y
_atom_site_fract_z
Si Si1 0.796023 0.363574 0.391246
Si Si2 0.959102 0.077724 0.000061
Si Si3 0.620867 0.558379 0.769698
Si Si4 0.921513 0.000000 0.250000
Si Si5 0.082718 0.088822 0.962867
Si Si6 0.765556 0.302637 0.837296
Si Si7 0.895672 0.691986 0.993388
Si Si8 0.389134 0.702060 0.831702
O O1 0.750000 0.381119 0.500000
O O2 0.836125 0.412407 0.367759
O O3 0.768695 0.350256 0.238017
O O4 0.833213 0.316921 0.464470
O O5 0.933886 0.139199 0.991358
O O6 0.951790 0.044741 0.149754
O O7 0.932370 0.047519 0.863709
O O8 0.021136 0.074784 0.973656
O O9 0.647521 0.500000 0.750000
O O10 0.610056 0.590096 0.619931
O O11 0.890072 0.958813 0.139392
O O12 0.083051 0.148816 0.895688
O O13 0.750000 0.250000 0.750000
O O14 0.827547 0.313111 0.838062
O O15 0.750000 0.295079 0.000000
O O16 0.903243 0.712818 0.832746
O O17 0.911908 0.743857 0.090673
#
# Coordination Sequence:
#
# PCOD8296951 Si02
#       8
#    16  16  16   8  16  16  16  16
#     4  11  23  45  69  96 134 180 232 291 346 416
#     4  11  25  44  71 102 139 183 232 287 346 414
#     4  11  25  44  69 101 135 178 230 288 350 415
#     4  12  22  44  72 100 132 180 236 286 338 410
#     4  12  26  43  69 103 140 182 230 291 348 416
#     4  12  22  38  67  98 128 177 227 279 338 407
#     4  11  25  43  66 100 138 182 227 282 350 418
#     4  12  25  42  66 101 140 178 227 284 348 418
#
# _framework density 21.057824
#
# number of rings (size 3 to 8) (size 9 to 14) (size 15 to 20)
#    0.000    0.533    5.333    3.200    5.600    0.533 
#    0.000    3.333    5.867    0.000    0.000    0.000 
#    0.000    0.000    0.000    0.000    0.000    0.000 
#
# Total GULP energy -743419.334616 kJ/mol
# GULP energy per Si atom -12390.322244 kJ/mol
# Density = 2.100990 g / cm^3
# Si number density = 21.057824 Si / 1000 Ang^3
#
#
#
# Elastic Constant Matrix: (Units=GPa)
#
#
# Indices 1 2 3 4 5 6 
#
# 1 50.0127 18.3852 20.2589 0.0000 0.0000 0.0000
# 2 18.3852 124.8670 48.9921 0.0000 0.0000 0.0000
# 3 20.2589 48.9921 160.6848 0.0000 0.0000 0.0000
# 4 0.0000 0.0000 0.0000 45.7781 0.0000 0.0000
# 5 0.0000 0.0000 0.0000 0.0000 26.8072 0.0000
# 6 0.0000 0.0000 0.0000 0.0000 0.0000 10.8064
#
#
#
# Elastic Compliance Matrix: (Units=1/GPa)
#
#
# Indices 1 2 3 4 5 6 
#
# 1 0.021691 -0.002409 -0.002000 0.000000 0.000000 0.000000
# 2 -0.002409 0.009364 -0.002551 0.000000 0.000000 0.000000
# 3 -0.002000 -0.002551 0.007253 0.000000 0.000000 0.000000
# 4 0.000000 0.000000 0.000000 0.021844 0.000000 0.000000
# 5 0.000000 0.000000 0.000000 0.000000 0.037303 0.000000
# 6 0.000000 0.000000 0.000000 0.000000 0.000000 0.092537
#
#
# Mechanical properties :
#
#
# Convention : Reuss Voigt Hill
#
# Bulk Modulus (GPa) = 41.00497 56.75966 48.88231
# Shear Modulus (GPa) = 23.58001 33.20690 28.39346
#
# Velocity S-wave (km/s) = 3.34993 3.97538 3.67598
# Velocity P-wave (km/s) = 5.87176 6.93428 6.42502
#
# Compressibility (1/GPa) = 0.02438729
#
# Stress axis : x y z
#
# Youngs Moduli (GPa) = 46.10268 106.78895 137.86496
#
# Poissons Ratio (x) = 0.25724 0.27577
# Poissons Ratio (y) = 0.11106 0.35175
# Poissons Ratio (z) = 0.09222 0.27246
#
# Static dielectric constant tensor:
#      x y z
#    x 3.389900 0.000000 0.000000 
#    y 0.000000 3.876580 0.000000 
#    z 0.000000 0.000000 3.604830 
# 
# 
# High freq. dielectric constant tensor:
#      x y z
#    x 1.802570 0.000000 0.000000 
#    y 0.000000 1.832690 0.000000 
#    z 0.000000 0.000000 1.853080 
# 
# From -- ./inp_files/8068.got.cif
#   From: 2010.03.12/outbox.cif.g09.slc.cpg/sg73_5_cif.got.tgz:8068.got - 2010.04.16 15:25:48.
