data_PCOD8296144
_publ_section_title
;
Structure prediction by ZEFSAII (Michael W. Deem and Ramdas Pophale) SiO2 
 PCOD8296144
Probable space group: I B C A 
;
_chemical_formula_sum "Si O2"
_cell_formula_units_Z 64
_cell_length_a 5.437549
_cell_length_b 24.142477
_cell_length_c 17.946573
_cell_angle_alpha 90.000000
_cell_angle_beta 90.000000
_cell_angle_gamma 90.000000
_cell_volume 2355.952552
_symmetry_space_group_name_H-M "I B C A "
_symmetry_group_IT_number 73
_symmetry_cell_setting 'orthorhombic'
loop_
_space_group_symop_operation_xyz
x,y,z
-x,1/2-y,z
x,-y,1/2-z
1/2-x,y,-z
-x,-y,-z
x,1/2+y,-z
-x,y,1/2+z
1/2+x,-y,z
1/2+x,1/2+y,1/2+z
1/2-x,-y,1/2+z
1/2+x,1/2-y,-z
-x,1/2+y,1/2-z
1/2-x,1/2-y,1/2-z
1/2+x,y,1/2-z
1/2-x,1/2+y,z
x,1/2-y,1/2+z
loop_
_atom_site_type_symbol
_atom_site_label
_atom_site_fract_x
_atom_site_fract_y
_atom_site_fract_z
Si Si1 0.799080 0.812508 0.776563
Si Si2 0.503033 0.919188 0.455642
Si Si3 0.980375 0.438920 0.782699
Si Si4 0.855726 0.800174 0.074213
O O1 0.750000 0.750000 0.750000
O O2 0.527419 0.841436 0.766651
O O3 0.854313 0.816631 0.865323
O O4 0.250000 0.936181 0.500000
O O5 0.503309 0.944052 0.372323
O O6 0.518161 0.852830 0.448842
O O7 0.750000 0.939367 0.500000
O O8 0.950085 0.500000 0.750000
O O9 0.720048 0.409644 0.757080
O O10 0.000000 0.750000 0.114185
O O11 0.750000 0.772835 0.000000
#
# Coordination Sequence:
#
# PCOD8296144 Si02
#       4
#    16  16  16  16
#     4  10  21  38  55  83 118 158 223 270 324 369
#     4  11  25  45  67 102 143 183 230 288 343 411
#     4  10  22  45  73 105 139 177 225 280 357 420
#     4  11  24  39  64  93 133 184 230 277 329 391
#
# _framework density 27.165230000000001
#
# number of rings (size 3 to 8) (size 9 to 14) (size 15 to 20)
#    0.000    1.500    2.500    2.250    3.500    6.000 
#    0.000   15.000    0.000    0.000    0.000    0.000 
#    0.000    0.000    0.000    0.000    0.000    0.000 
#
# Total GULP energy -396595.337492 kJ/mol
# GULP energy per Si atom -12393.604297 kJ/mol
# Density = 2.710340 g / cm^3
# Si number density = 27.165230 Si / 1000 Ang^3
#
#
#
# Elastic Constant Matrix: (Units=GPa)
#
#
# Indices 1 2 3 4 5 6 
#
# 1 232.9197 38.5036 92.3390 0.0000 0.0000 0.0000
# 2 38.5036 79.9732 15.5078 0.0000 0.0000 0.0000
# 3 92.3390 15.5078 256.2815 0.0000 0.0000 0.0000
# 4 0.0000 0.0000 0.0000 35.8088 0.0000 0.0000
# 5 0.0000 0.0000 0.0000 0.0000 52.3437 0.0000
# 6 0.0000 0.0000 0.0000 0.0000 0.0000 21.4043
#
#
#
# Elastic Compliance Matrix: (Units=1/GPa)
#
#
# Indices 1 2 3 4 5 6 
#
# 1 0.005378 -0.002240 -0.001802 0.000000 0.000000 0.000000
# 2 -0.002240 0.013585 -0.000015 0.000000 0.000000 0.000000
# 3 -0.001802 -0.000015 0.004552 0.000000 0.000000 0.000000
# 4 0.000000 0.000000 0.000000 0.027926 0.000000 0.000000
# 5 0.000000 0.000000 0.000000 0.000000 0.019105 0.000000
# 6 0.000000 0.000000 0.000000 0.000000 0.000000 0.046720
#
#
# Mechanical properties :
#
#
# Convention : Reuss Voigt Hill
#
# Bulk Modulus (GPa) = 64.92832 95.76390 80.34611
# Shear Modulus (GPa) = 38.31006 50.09960 44.20483
#
# Velocity S-wave (km/s) = 3.75942 4.29914 4.03830
# Velocity P-wave (km/s) = 6.54198 7.74418 7.16833
#
# Compressibility (1/GPa) = 0.01540160
#
# Stress axis : x y z
#
# Youngs Moduli (GPa) = 185.94085 73.60791 219.67364
#
# Poissons Ratio (x) = 0.16487 0.39589
# Poissons Ratio (y) = 0.41648 0.00331
# Poissons Ratio (z) = 0.33510 0.00111
#
# Static dielectric constant tensor:
#      x y z
#    x 5.684160 0.000000 0.000000 
#    y 0.000000 5.027470 0.000000 
#    z 0.000000 0.000000 5.103250 
# 
# 
# High freq. dielectric constant tensor:
#      x y z
#    x 2.106460 0.000000 0.000000 
#    y 0.000000 2.139160 0.000000 
#    z 0.000000 0.000000 2.102070 
# 
# From -- ./inp_files/20387.got.cif
#   From: 2010.03.12/outbox.cif.g09.slc.cpg/sg73_11_cif.got.tgz:20387.got - 2010.04.16 15:25:48.
