data_PCOD8296593
_publ_section_title
;
Structure prediction by ZEFSAII (Michael W. Deem and Ramdas Pophale) SiO2 
 PCOD8296593
Probable space group: I B C A 
;
_chemical_formula_sum "Si O2"
_cell_formula_units_Z 48
_cell_length_a 5.189398
_cell_length_b 14.226348
_cell_length_c 27.411195
_cell_angle_alpha 90.000000
_cell_angle_beta 90.000000
_cell_angle_gamma 90.000000
_cell_volume 2023.663867
_symmetry_space_group_name_H-M "I B C A "
_symmetry_group_IT_number 73
_symmetry_cell_setting 'orthorhombic'
loop_
_space_group_symop_operation_xyz
x,y,z
-x,1/2-y,z
x,-y,1/2-z
1/2-x,y,-z
-x,-y,-z
x,1/2+y,-z
-x,y,1/2+z
1/2+x,-y,z
1/2+x,1/2+y,1/2+z
1/2-x,-y,1/2+z
1/2+x,1/2-y,-z
-x,1/2+y,1/2-z
1/2-x,1/2-y,1/2-z
1/2+x,y,1/2-z
1/2-x,1/2+y,z
x,1/2-y,1/2+z
loop_
_atom_site_type_symbol
_atom_site_label
_atom_site_fract_x
_atom_site_fract_y
_atom_site_fract_z
Si Si1 0.194798 0.854643 0.770159
Si Si2 0.478844 0.058987 0.363811
Si Si3 0.497718 0.638660 0.528722
O O1 0.250000 0.750000 0.750000
O O2 0.471457 0.905793 0.762730
O O3 0.094922 0.857412 0.826003
O O4 0.470766 0.098877 0.417665
O O5 0.767804 0.022425 0.355093
O O6 0.500000 0.750000 0.532032
O O7 0.250000 0.601158 0.500000
O O8 0.750000 0.601703 0.500000
#
# Coordination Sequence:
#
# PCOD8296593 Si02
#       3
#    16  16  16
#     4  10  23  43  66  95 128 183 221 272 329 403
#     4  12  26  42  68 104 136 174 223 284 344 402
#     4  10  23  44  68  98 134 180 227 273 330 411
#
# _framework density 23.719352000000001
#
# number of rings (size 3 to 8) (size 9 to 14) (size 15 to 20)
#    0.000    1.333    0.000    4.000    4.667    8.000 
#   12.000    0.000    0.000    0.000    0.000    0.000 
#    0.000    0.000    0.000    0.000    0.000    0.000 
#
# Total GULP energy -297404.403676 kJ/mol
# GULP energy per Si atom -12391.850153 kJ/mol
# Density = 2.366537 g / cm^3
# Si number density = 23.719352 Si / 1000 Ang^3
#
#
#
# Elastic Constant Matrix: (Units=GPa)
#
#
# Indices 1 2 3 4 5 6 
#
# 1 224.2120 20.6143 71.4935 0.0000 0.0000 0.0000
# 2 20.6143 43.3838 58.3386 0.0000 0.0000 0.0000
# 3 71.4935 58.3386 199.6695 0.0000 0.0000 0.0000
# 4 0.0000 0.0000 0.0000 43.0514 0.0000 0.0000
# 5 0.0000 0.0000 0.0000 0.0000 45.0238 0.0000
# 6 0.0000 0.0000 0.0000 0.0000 0.0000 -100.9096
#
#
#
# Elastic Compliance Matrix: (Units=1/GPa)
#
#
# Indices 1 2 3 4 5 6 
#
# 1 0.005035 0.000052 -0.001818 0.000000 0.000000 0.000000
# 2 0.000052 0.037968 -0.011112 0.000000 0.000000 0.000000
# 3 -0.001818 -0.011112 0.008906 0.000000 0.000000 0.000000
# 4 0.000000 0.000000 0.000000 0.023228 0.000000 0.000000
# 5 0.000000 0.000000 0.000000 0.000000 0.022210 0.000000
# 6 0.000000 0.000000 0.000000 0.000000 0.000000 -0.009910
#
#
# Mechanical properties :
#
#
# Convention : Reuss Voigt Hill
#
# Bulk Modulus (GPa) = 38.23637 85.35090 61.79363
# Shear Modulus (GPa) = 41.01380 18.55437 29.78409
#
# Velocity S-wave (km/s) = 4.16279 2.79990 3.54741
# Velocity P-wave (km/s) = 6.26581 6.82014 6.54885
#
# Compressibility (1/GPa) = 0.02615311
#
# Stress axis : x y z
#
# Youngs Moduli (GPa) = 198.61024 26.33829 112.28472
#
# Poissons Ratio (x) = -0.00138 0.20415
# Poissons Ratio (y) = -0.01042 1.24770
# Poissons Ratio (z) = 0.36110 0.29267
#
# Static dielectric constant tensor:
#      x y z
#    x -402.928110 0.000000 0.000000 
#    y 0.000000 3.561760 0.000000 
#    z 0.000000 0.000000 4.425720 
# 
# 
# High freq. dielectric constant tensor:
#      x y z
#    x 1.977760 0.000000 0.000000 
#    y 0.000000 1.925820 0.000000 
#    z 0.000000 0.000000 1.950010 
# 
# From -- ./inp_files/613.got.cif
#   From: 2010.03.12/outbox.cif.g09.slc.cpg/sg73_1_cif.got.tgz:613.got - 2010.04.16 15:25:48.
