data_PCOD8296854
_publ_section_title
;
Structure prediction by ZEFSAII (Michael W. Deem and Ramdas Pophale) SiO2 
 PCOD8296854
Probable space group: I B C A 
;
_chemical_formula_sum "Si O2"
_cell_formula_units_Z 64
_cell_length_a 19.670472
_cell_length_b 9.978750
_cell_length_c 14.446900
_cell_angle_alpha 90.000000
_cell_angle_beta 90.000000
_cell_angle_gamma 90.000000
_cell_volume 2835.734651
_symmetry_space_group_name_H-M "I B C A "
_symmetry_group_IT_number 73
_symmetry_cell_setting 'orthorhombic'
loop_
_space_group_symop_operation_xyz
x,y,z
-x,1/2-y,z
x,-y,1/2-z
1/2-x,y,-z
-x,-y,-z
x,1/2+y,-z
-x,y,1/2+z
1/2+x,-y,z
1/2+x,1/2+y,1/2+z
1/2-x,-y,1/2+z
1/2+x,1/2-y,-z
-x,1/2+y,1/2-z
1/2-x,1/2-y,1/2-z
1/2+x,y,1/2-z
1/2-x,1/2+y,z
x,1/2-y,1/2+z
loop_
_atom_site_type_symbol
_atom_site_label
_atom_site_fract_x
_atom_site_fract_y
_atom_site_fract_z
Si Si1 0.592358 0.697113 0.587069
Si Si2 0.312842 0.347615 0.260184
Si Si3 0.972456 0.452407 0.651630
Si Si4 0.579376 0.776098 0.881303
O O1 0.663079 0.655043 0.632609
O O2 0.538830 0.571029 0.585473
O O3 0.565811 0.811139 0.658357
O O4 0.600435 0.763250 0.486088
O O5 0.288400 0.500000 0.250000
O O6 0.250000 0.250000 0.250000
O O7 0.372011 0.304726 0.188018
O O8 0.002133 0.500000 0.750000
O O9 0.915925 0.561758 0.620487
O O10 0.500000 0.750000 0.860098
#
# Coordination Sequence:
#
# PCOD8296854 Si02
#       4
#    16  16  16  16
#     4  11  24  42  70 109 141 184 235 295 364 437
#     4  12  30  51  71 101 146 199 246 298 365 440
#     4  11  21  39  70 108 147 179 227 295 369 420
#     4  12  24  43  76 108 143 182 237 306 368 432
#
# _framework density 22.569108
#
# number of rings (size 3 to 8) (size 9 to 14) (size 15 to 20)
#    0.000    0.500    5.000    4.500    7.000    1.000 
#    0.000    2.500    0.000    0.000    0.000    0.000 
#    0.000    0.000    0.000    0.000    0.000    0.000 
#
# Total GULP energy -396494.546350 kJ/mol
# GULP energy per Si atom -12390.454573 kJ/mol
# Density = 2.251774 g / cm^3
# Si number density = 22.569108 Si / 1000 Ang^3
#
#
#
# Elastic Constant Matrix: (Units=GPa)
#
#
# Indices 1 2 3 4 5 6 
#
# 1 115.6856 54.8722 42.5172 0.0000 0.0000 0.0000
# 2 54.8722 140.7020 33.6449 0.0000 0.0000 0.0000
# 3 42.5172 33.6449 101.0896 0.0000 0.0000 0.0000
# 4 0.0000 0.0000 0.0000 30.2299 0.0000 0.0000
# 5 0.0000 0.0000 0.0000 0.0000 22.3075 0.0000
# 6 0.0000 0.0000 0.0000 0.0000 0.0000 41.2832
#
#
#
# Elastic Compliance Matrix: (Units=1/GPa)
#
#
# Indices 1 2 3 4 5 6 
#
# 1 0.011765 -0.003699 -0.003717 0.000000 0.000000 0.000000
# 2 -0.003699 0.008885 -0.001401 0.000000 0.000000 0.000000
# 3 -0.003717 -0.001401 0.011922 0.000000 0.000000 0.000000
# 4 0.000000 0.000000 0.000000 0.033080 0.000000 0.000000
# 5 0.000000 0.000000 0.000000 0.000000 0.044828 0.000000
# 6 0.000000 0.000000 0.000000 0.000000 0.000000 0.024223
#
#
# Mechanical properties :
#
#
# Convention : Reuss Voigt Hill
#
# Bulk Modulus (GPa) = 66.94923 68.83842 67.89382
# Shear Modulus (GPa) = 31.78306 33.86030 32.82168
#
# Velocity S-wave (km/s) = 3.75674 3.87757 3.81763
# Velocity P-wave (km/s) = 6.96750 7.11440 7.04133
#
# Compressibility (1/GPa) = 0.01493669
#
# Stress axis : x y z
#
# Youngs Moduli (GPa) = 84.99878 112.54934 83.87943
#
# Poissons Ratio (x) = 0.41636 0.31178
# Poissons Ratio (y) = 0.31444 0.11753
# Poissons Ratio (z) = 0.31594 0.15771
#
# Static dielectric constant tensor:
#      x y z
#    x 3.713250 0.000000 0.000000 
#    y 0.000000 4.657270 0.000000 
#    z 0.000000 0.000000 4.123720 
# 
# 
# High freq. dielectric constant tensor:
#      x y z
#    x 1.843350 0.000000 0.000000 
#    y 0.000000 1.912870 0.000000 
#    z 0.000000 0.000000 1.897780 
# 
# From -- ./inp_files/17628.got.cif
#   From: 2010.03.12/outbox.cif.g09.slc.cpg/sg73_9_cif.got.tgz:17628.got - 2010.04.16 15:25:48.
