data_PCOD8296370
_publ_section_title
;
Structure prediction by ZEFSAII (Michael W. Deem and Ramdas Pophale) SiO2 
 PCOD8296370
Probable space group: I B C A 
;
_chemical_formula_sum "Si O2"
_cell_formula_units_Z 120
_cell_length_a 12.253066
_cell_length_b 25.680755
_cell_length_c 17.548232
_cell_angle_alpha 90.000000
_cell_angle_beta 90.000000
_cell_angle_gamma 90.000000
_cell_volume 5521.866820
_symmetry_space_group_name_H-M "I B C A "
_symmetry_group_IT_number 73
_symmetry_cell_setting 'orthorhombic'
loop_
_space_group_symop_operation_xyz
x,y,z
-x,1/2-y,z
x,-y,1/2-z
1/2-x,y,-z
-x,-y,-z
x,1/2+y,-z
-x,y,1/2+z
1/2+x,-y,z
1/2+x,1/2+y,1/2+z
1/2-x,-y,1/2+z
1/2+x,1/2-y,-z
-x,1/2+y,1/2-z
1/2-x,1/2-y,1/2-z
1/2+x,y,1/2-z
1/2-x,1/2+y,z
x,1/2-y,1/2+z
loop_
_atom_site_type_symbol
_atom_site_label
_atom_site_fract_x
_atom_site_fract_y
_atom_site_fract_z
Si Si1 0.822610 0.231918 0.176282
Si Si2 0.536422 0.177387 0.372972
Si Si3 0.163241 0.453711 0.064276
Si Si4 0.796300 0.134864 0.869468
Si Si5 0.617975 0.939507 0.857728
Si Si6 0.838439 0.407659 0.207975
Si Si7 0.014734 0.115706 0.483776
Si Si8 0.038209 0.500000 0.750000
O O1 0.750000 0.250000 0.250000
O O2 0.861139 0.282563 0.129896
O O3 0.742428 0.194660 0.129818
O O4 0.936628 0.197643 0.181937
O O5 0.580502 0.122593 0.346167
O O6 0.510195 0.165607 0.462122
O O7 0.197022 0.404976 0.117156
O O8 0.159178 0.505406 0.112871
O O9 0.250000 0.465752 0.000000
O O10 0.045793 0.437094 0.030051
O O11 0.851755 0.118561 0.790485
O O12 0.879327 0.133118 0.938239
O O13 0.712464 0.906508 0.817094
O O14 0.579825 0.900954 0.925252
O O15 0.526671 0.955667 0.796434
O O16 0.880226 0.466736 0.197862
#
# Coordination Sequence:
#
# PCOD8296370 Si02
#       8
#    16  16  16  16  16  16  16   8
#     4  11  24  48  80 104 134 184 246 305 370 436
#     4  11  26  46  77 104 142 182 238 308 373 432
#     4  10  22  39  67  98 145 188 236 286 356 436
#     4  11  22  46  74 102 138 192 241 296 370 431
#     4  12  26  40  69 104 149 196 247 293 362 441
#     4  12  26  43  69 104 149 187 244 304 354 435
#     4  11  24  45  69 106 146 194 236 299 375 444
#     4  12  24  42  66 106 142 196 248 294 352 432
#
# _framework density 21.731781000000002
#
# number of rings (size 3 to 8) (size 9 to 14) (size 15 to 20)
#    0.000    0.800    4.000    3.200    5.600    0.000 
#    0.000    5.333    0.000    0.000    0.000    0.000 
#    0.000    0.000    0.000    0.000    0.000    0.000 
#
# Total GULP energy -743354.518503 kJ/mol
# GULP energy per Si atom -12389.241975 kJ/mol
# Density = 2.168232 g / cm^3
# Si number density = 21.731781 Si / 1000 Ang^3
#
#
#
# Elastic Constant Matrix: (Units=GPa)
#
#
# Indices 1 2 3 4 5 6 
#
# 1 102.4715 52.2841 47.4343 0.0000 0.0000 0.0000
# 2 52.2841 123.9057 39.6797 0.0000 0.0000 0.0000
# 3 47.4343 39.6797 90.7474 0.0004 -0.0001 0.0000
# 4 0.0000 0.0000 0.0004 40.8215 0.0000 0.0000
# 5 0.0000 0.0000 -0.0001 0.0000 39.3336 0.0000
# 6 0.0000 0.0000 0.0000 0.0000 0.0000 40.6180
#
#
#
# Elastic Compliance Matrix: (Units=1/GPa)
#
#
# Indices 1 2 3 4 5 6 
#
# 1 0.014633 -0.004332 -0.005755 0.000000 0.000000 0.000000
# 2 -0.004332 0.010667 -0.002400 0.000000 0.000000 0.000000
# 3 -0.005755 -0.002400 0.015077 0.000000 0.000000 0.000000
# 4 0.000000 0.000000 0.000000 0.024497 0.000000 0.000000
# 5 0.000000 0.000000 0.000000 0.000000 0.025424 0.000000
# 6 0.000000 0.000000 0.000000 0.000000 0.000000 0.024620
#
#
# Mechanical properties :
#
#
# Convention : Reuss Voigt Hill
#
# Bulk Modulus (GPa) = 64.91732 66.21344 65.56538
# Shear Modulus (GPa) = 34.47698 36.00306 35.24002
#
# Velocity S-wave (km/s) = 3.98738 4.07467 4.03126
# Velocity P-wave (km/s) = 7.15093 7.25754 7.20444
#
# Compressibility (1/GPa) = 0.01540421
#
# Stress axis : x y z
#
# Youngs Moduli (GPa) = 68.33957 93.74643 66.32625
#
# Poissons Ratio (x) = 0.40608 0.38168
# Poissons Ratio (y) = 0.29603 0.15918
# Poissons Ratio (z) = 0.39327 0.22499
#
# Static dielectric constant tensor:
#      x y z
#    x 4.131280 0.000000 0.000000 
#    y 0.000000 4.002430 0.000000 
#    z 0.000000 0.000000 2.758390 
# 
# 
# High freq. dielectric constant tensor:
#      x y z
#    x 1.861620 0.000000 0.000000 
#    y 0.000000 1.858820 0.000000 
#    z 0.000000 0.000000 1.846990 
# 
# From -- ./inp_files/21521.got.cif
#   From: 2010.03.12/outbox.cif.g09.slc.cpg/sg73_11_cif.got.tgz:21521.got - 2010.04.16 15:25:48.
