data_PCOD8296497
_publ_section_title
;
Structure prediction by ZEFSAII (Michael W. Deem and Ramdas Pophale) SiO2 
 PCOD8296497
Probable space group: I B C A 
;
_chemical_formula_sum "Si O2"
_cell_formula_units_Z 96
_cell_length_a 26.070264
_cell_length_b 20.732647
_cell_length_c 9.016363
_cell_angle_alpha 90.000000
_cell_angle_beta 90.000000
_cell_angle_gamma 90.000000
_cell_volume 4873.394519
_symmetry_space_group_name_H-M "I B C A "
_symmetry_group_IT_number 73
_symmetry_cell_setting 'orthorhombic'
loop_
_space_group_symop_operation_xyz
x,y,z
-x,1/2-y,z
x,-y,1/2-z
1/2-x,y,-z
-x,-y,-z
x,1/2+y,-z
-x,y,1/2+z
1/2+x,-y,z
1/2+x,1/2+y,1/2+z
1/2-x,-y,1/2+z
1/2+x,1/2-y,-z
-x,1/2+y,1/2-z
1/2-x,1/2-y,1/2-z
1/2+x,y,1/2-z
1/2-x,1/2+y,z
x,1/2-y,1/2+z
loop_
_atom_site_type_symbol
_atom_site_label
_atom_site_fract_x
_atom_site_fract_y
_atom_site_fract_z
Si Si1 0.442415 0.326573 0.459208
Si Si2 0.750000 0.586962 0.000000
Si Si3 0.151426 0.999054 0.925938
Si Si4 0.000000 0.750000 0.208914
Si Si5 0.250882 0.324628 0.726321
Si Si6 0.448955 0.479649 0.419828
Si Si7 0.668084 0.856336 0.984772
O O1 0.459470 0.287407 0.313030
O O2 0.472806 0.303233 0.605370
O O3 0.447623 0.402551 0.434828
O O4 0.382419 0.313216 0.489646
O O5 0.800338 0.544543 0.970435
O O6 0.735391 0.633293 0.866336
O O7 0.144950 0.000000 0.750000
O O8 0.097205 0.979722 0.000683
O O9 0.159533 0.068206 0.998095
O O10 0.250000 0.250000 0.750000
O O11 0.209378 0.338247 0.604175
O O12 0.308685 0.342671 0.677822
O O13 0.449802 0.500000 0.250000
O O14 0.500000 0.500000 0.500000
#
# Coordination Sequence:
#
# PCOD8296497 Si02
#       7
#    16   8  16   8  16  16  16
#     4  10  23  42  66  95 127 170 212 266 312 383
#     4  12  24  40  70  94 124 172 218 260 326 388
#     4  11  24  41  66  95 127 171 214 268 323 378
#     4  10  22  44  66  94 126 174 220 254 314 376
#     4  11  24  43  60  95 128 168 210 264 313 388
#     4  11  24  43  67  99 134 167 211 270 328 381
#     4  10  23  42  63  89 135 161 211 265 323 372
#
# _framework density 19.698796999999999
#
# number of rings (size 3 to 8) (size 9 to 14) (size 15 to 20)
#    0.000    1.333    1.667    3.500    7.000    1.333 
#    0.000    0.000    0.000    0.000    0.000    0.000 
#    0.000    0.000    0.000    0.000    0.000    0.000 
#
# Total GULP energy -595001.407376 kJ/mol
# GULP energy per Si atom -12395.862654 kJ/mol
# Density = 1.965396 g / cm^3
# Si number density = 19.698797 Si / 1000 Ang^3
#
#
#
# Elastic Constant Matrix: (Units=GPa)
#
#
# Indices 1 2 3 4 5 6 
#
# 1 159.2753 47.0444 74.0877 0.0000 0.0000 0.0000
# 2 47.0444 91.1119 43.9789 0.0000 0.0000 0.0000
# 3 74.0877 43.9789 147.4531 0.0000 0.0000 0.0000
# 4 0.0000 0.0000 0.0000 41.5500 0.0000 0.0000
# 5 0.0000 0.0000 0.0000 0.0000 33.7502 0.0000
# 6 0.0000 0.0000 0.0000 0.0000 0.0000 29.7340
#
#
#
# Elastic Compliance Matrix: (Units=1/GPa)
#
#
# Indices 1 2 3 4 5 6 
#
# 1 0.008767 -0.002804 -0.003568 0.000000 0.000000 0.000000
# 2 -0.002804 0.013718 -0.002683 0.000000 0.000000 0.000000
# 3 -0.003568 -0.002683 0.009375 0.000000 0.000000 0.000000
# 4 0.000000 0.000000 0.000000 0.024067 0.000000 0.000000
# 5 0.000000 0.000000 0.000000 0.000000 0.029629 0.000000
# 6 0.000000 0.000000 0.000000 0.000000 0.000000 0.033632
#
#
# Mechanical properties :
#
#
# Convention : Reuss Voigt Hill
#
# Bulk Modulus (GPa) = 72.73037 80.89582 76.81310
# Shear Modulus (GPa) = 35.24071 36.52214 35.88142
#
# Velocity S-wave (km/s) = 4.23422 4.31051 4.27254
# Velocity P-wave (km/s) = 7.80424 8.11970 7.96353
#
# Compressibility (1/GPa) = 0.01374941
#
# Stress axis : x y z
#
# Youngs Moduli (GPa) = 114.07041 72.89558 106.66792
#
# Poissons Ratio (x) = 0.20440 0.38063
# Poissons Ratio (y) = 0.31986 0.28616
# Poissons Ratio (z) = 0.40705 0.19556
#
# Static dielectric constant tensor:
#      x y z
#    x 4.091890 0.000000 0.000000 
#    y 0.000000 3.609590 0.000000 
#    z 0.000000 0.000000 4.160540 
# 
# 
# High freq. dielectric constant tensor:
#      x y z
#    x 1.784760 0.000000 0.000000 
#    y 0.000000 1.772330 0.000000 
#    z 0.000000 0.000000 1.782350 
# 
# From -- ./inp_files/7842.got.cif
#   From: 2010.03.12/outbox.cif.g09.slc.cpg/sg73_4_cif.got.tgz:7842.got - 2010.04.16 15:25:48.
