data_PCOD8296943
_publ_section_title
;
Structure prediction by ZEFSAII (Michael W. Deem and Ramdas Pophale) SiO2 
 PCOD8296943
Probable space group: I B C A 
;
_chemical_formula_sum "Si O2"
_cell_formula_units_Z 48
_cell_length_a 9.766805
_cell_length_b 9.379441
_cell_length_c 23.801780
_cell_angle_alpha 90.000000
_cell_angle_beta 90.000000
_cell_angle_gamma 90.000000
_cell_volume 2180.413737
_symmetry_space_group_name_H-M "I B C A "
_symmetry_group_IT_number 73
_symmetry_cell_setting 'orthorhombic'
loop_
_space_group_symop_operation_xyz
x,y,z
-x,1/2-y,z
x,-y,1/2-z
1/2-x,y,-z
-x,-y,-z
x,1/2+y,-z
-x,y,1/2+z
1/2+x,-y,z
1/2+x,1/2+y,1/2+z
1/2-x,-y,1/2+z
1/2+x,1/2-y,-z
-x,1/2+y,1/2-z
1/2-x,1/2-y,1/2-z
1/2+x,y,1/2-z
1/2-x,1/2+y,z
x,1/2-y,1/2+z
loop_
_atom_site_type_symbol
_atom_site_label
_atom_site_fract_x
_atom_site_fract_y
_atom_site_fract_z
Si Si1 0.123145 0.160536 0.270644
Si Si2 0.892309 0.087962 0.898284
Si Si3 0.192535 0.123867 0.939370
O O1 0.250000 0.250000 0.250000
O O2 0.101441 0.157438 0.337191
O O3 0.000000 0.250000 0.243236
O O4 0.129112 0.000000 0.250000
O O5 0.812190 0.205331 0.935769
O O6 0.042680 0.059210 0.924569
O O7 0.803905 0.943024 0.896326
O O8 0.250000 0.077453 0.000000
#
# Coordination Sequence:
#
# PCOD8296943 Si02
#       3
#    16  16  16
#     4  12  26  46  73 103 145 187 236 295 359 424
#     4  11  25  45  66 104 140 175 242 279 349 426
#     4  11  23  43  69  97 139 182 226 288 345 415
#
# _framework density 22.01417
#
# number of rings (size 3 to 8) (size 9 to 14) (size 15 to 20)
#    0.000    0.667    3.333    5.000    4.667    4.000 
#    0.000    0.000    0.000    0.000    0.000    0.000 
#    0.000    0.000    0.000    0.000    0.000    0.000 
#
# Total GULP energy -297502.991854 kJ/mol
# GULP energy per Si atom -12395.957994 kJ/mol
# Density = 2.196406 g / cm^3
# Si number density = 22.014170 Si / 1000 Ang^3
#
#
#
# Elastic Constant Matrix: (Units=GPa)
#
#
# Indices 1 2 3 4 5 6 
#
# 1 203.1979 89.6312 66.1388 0.0000 0.0000 0.0000
# 2 89.6312 127.5288 30.8498 0.0000 0.0000 0.0000
# 3 66.1388 30.8498 95.8625 0.0000 0.0000 0.0000
# 4 0.0000 0.0000 0.0000 29.2002 0.0000 0.0000
# 5 0.0000 0.0000 0.0000 0.0000 32.6575 0.0000
# 6 0.0000 0.0000 0.0000 0.0000 0.0000 56.8889
#
#
#
# Elastic Compliance Matrix: (Units=1/GPa)
#
#
# Indices 1 2 3 4 5 6 
#
# 1 0.008486 -0.004932 -0.004268 0.000000 0.000000 0.000000
# 2 -0.004932 0.011370 -0.000256 0.000000 0.000000 0.000000
# 3 -0.004268 -0.000256 0.013458 0.000000 0.000000 0.000000
# 4 0.000000 0.000000 0.000000 0.034246 0.000000 0.000000
# 5 0.000000 0.000000 0.000000 0.000000 0.030621 0.000000
# 6 0.000000 0.000000 0.000000 0.000000 0.000000 0.017578
#
#
# Mechanical properties :
#
#
# Convention : Reuss Voigt Hill
#
# Bulk Modulus (GPa) = 69.43193 88.86986 79.15090
# Shear Modulus (GPa) = 35.84979 39.74728 37.79854
#
# Velocity S-wave (km/s) = 4.03983 4.25376 4.14818
# Velocity P-wave (km/s) = 7.30537 8.03636 7.67957
#
# Compressibility (1/GPa) = 0.01440259
#
# Stress axis : x y z
#
# Youngs Moduli (GPa) = 117.84495 87.95448 74.30312
#
# Poissons Ratio (x) = 0.43377 0.31709
# Poissons Ratio (y) = 0.58118 0.01905
# Poissons Ratio (z) = 0.50290 0.02254
#
# Static dielectric constant tensor:
#      x y z
#    x 4.093660 0.000000 0.000000 
#    y 0.000000 3.740720 0.000000 
#    z 0.000000 0.000000 4.179940 
# 
# 
# High freq. dielectric constant tensor:
#      x y z
#    x 1.879710 0.000000 0.000000 
#    y 0.000000 1.876160 0.000000 
#    z 0.000000 0.000000 1.865440 
# 
# From -- ./inp_files/3445.got.cif
#   From: 2010.03.12/outbox.cif.g09.slc.cpg/sg73_2_cif.got.tgz:3445.got - 2010.04.16 15:25:48.
