data_PCOD8296238
_publ_section_title
;
Structure prediction by ZEFSAII (Michael W. Deem and Ramdas Pophale) SiO2 
 PCOD8296238
Probable space group: I B C A 
;
_chemical_formula_sum "Si O2"
_cell_formula_units_Z 96
_cell_length_a 21.234737
_cell_length_b 24.714954
_cell_length_c 7.144971
_cell_angle_alpha 90.000000
_cell_angle_beta 90.000000
_cell_angle_gamma 90.000000
_cell_volume 3749.791872
_symmetry_space_group_name_H-M "I B C A "
_symmetry_group_IT_number 73
_symmetry_cell_setting 'orthorhombic'
loop_
_space_group_symop_operation_xyz
x,y,z
-x,1/2-y,z
x,-y,1/2-z
1/2-x,y,-z
-x,-y,-z
x,1/2+y,-z
-x,y,1/2+z
1/2+x,-y,z
1/2+x,1/2+y,1/2+z
1/2-x,-y,1/2+z
1/2+x,1/2-y,-z
-x,1/2+y,1/2-z
1/2-x,1/2-y,1/2-z
1/2+x,y,1/2-z
1/2-x,1/2+y,z
x,1/2-y,1/2+z
loop_
_atom_site_type_symbol
_atom_site_label
_atom_site_fract_x
_atom_site_fract_y
_atom_site_fract_z
Si Si1 0.176304 0.450471 0.985752
Si Si2 0.678987 0.429108 0.943694
Si Si3 0.320287 0.720780 0.449369
Si Si4 0.880278 0.679146 0.415746
Si Si5 0.102568 0.357446 0.148228
Si Si6 0.009269 0.687700 0.651846
O O1 0.162668 0.513104 0.037221
O O2 0.160733 0.434641 0.773990
O O3 0.250000 0.436836 0.000000
O O4 0.132255 0.417669 0.132784
O O5 0.636675 0.378811 0.016939
O O6 0.750000 0.414909 0.000000
O O7 0.250000 0.738260 0.500000
O O8 0.365043 0.773235 0.437171
O O9 0.331504 0.687185 0.258520
O O10 0.339564 0.683803 0.626431
O O11 0.954374 0.684742 0.355242
O O12 0.059553 0.342913 0.332811
O O13 0.055048 0.346873 0.977330
O O14 0.000000 0.750000 0.593882
#
# Coordination Sequence:
#
# PCOD8296238 Si02
#       6
#    16  16  16  16  16  16
#     4  10  21  43  67  92 122 161 206 260 318 366
#     4  10  21  40  67  91 126 159 201 256 316 373
#     4  11  22  37  58  89 129 158 194 257 311 369
#     4  11  23  39  59  93 124 163 204 251 306 373
#     4  11  23  39  62  88 121 165 207 254 302 368
#     4  11  22  39  59  86 125 170 211 247 303 366
#
# _framework density 25.601419
#
# number of rings (size 3 to 8) (size 9 to 14) (size 15 to 20)
#    0.000    1.333    5.000    2.000    2.333    0.000 
#    3.000    0.833    0.000    0.000    0.000    0.000 
#    0.000    0.000    0.000    0.000    0.000    0.000 
#
# Total GULP energy -595079.762198 kJ/mol
# GULP energy per Si atom -12397.495046 kJ/mol
# Density = 2.554315 g / cm^3
# Si number density = 25.601419 Si / 1000 Ang^3
#
#
#
# Elastic Constant Matrix: (Units=GPa)
#
#
# Indices 1 2 3 4 5 6 
#
# 1 161.2304 85.9804 11.7797 0.0000 0.0000 0.0000
# 2 85.9804 198.4047 16.4333 0.0000 0.0000 0.0000
# 3 11.7797 16.4333 53.2544 0.0000 0.0000 0.0000
# 4 0.0000 0.0000 0.0000 31.4723 0.0000 0.0000
# 5 0.0000 0.0000 0.0000 0.0000 44.5954 0.0000
# 6 0.0000 0.0000 0.0000 0.0000 0.0000 36.9960
#
#
#
# Elastic Compliance Matrix: (Units=1/GPa)
#
#
# Indices 1 2 3 4 5 6 
#
# 1 0.008094 -0.003447 -0.000727 0.000000 0.000000 0.000000
# 2 -0.003447 0.006641 -0.001287 0.000000 0.000000 0.000000
# 3 -0.000727 -0.001287 0.019336 0.000000 0.000000 0.000000
# 4 0.000000 0.000000 0.000000 0.031774 0.000000 0.000000
# 5 0.000000 0.000000 0.000000 0.000000 0.022424 0.000000
# 6 0.000000 0.000000 0.000000 0.000000 0.000000 0.027030
#
#
# Mechanical properties :
#
#
# Convention : Reuss Voigt Hill
#
# Bulk Modulus (GPa) = 43.19846 71.25292 57.22569
# Shear Modulus (GPa) = 37.33149 42.52580 39.92864
#
# Velocity S-wave (km/s) = 3.82276 4.08005 3.95349
# Velocity P-wave (km/s) = 6.03280 7.07727 6.57581
#
# Compressibility (1/GPa) = 0.02314897
#
# Stress axis : x y z
#
# Youngs Moduli (GPa) = 123.55190 150.58649 51.71822
#
# Poissons Ratio (x) = 0.51912 0.03758
# Poissons Ratio (y) = 0.42592 0.06654
# Poissons Ratio (z) = 0.08976 0.19375
#
# Static dielectric constant tensor:
#      x y z
#    x 4.747930 0.000000 0.000000 
#    y 0.000000 4.664140 0.000000 
#    z 0.000000 0.000000 5.397900 
# 
# 
# High freq. dielectric constant tensor:
#      x y z
#    x 2.031280 0.000000 0.000000 
#    y 0.000000 2.013180 0.000000 
#    z 0.000000 0.000000 2.073750 
# 
# From -- ./inp_files/7262.got.cif
#   From: 2010.03.12/outbox.cif.g09.slc.cpg/sg73_4_cif.got.tgz:7262.got - 2010.04.16 15:25:48.
