data_PCOD8296711
_publ_section_title
;
Structure prediction by ZEFSAII (Michael W. Deem and Ramdas Pophale) SiO2 
 PCOD8296711
Probable space group: I B C A 
;
_chemical_formula_sum "Si O2"
_cell_formula_units_Z 72
_cell_length_a 9.788631
_cell_length_b 17.970693
_cell_length_c 20.360265
_cell_angle_alpha 90.000000
_cell_angle_beta 90.000000
_cell_angle_gamma 90.000000
_cell_volume 3581.543321
_symmetry_space_group_name_H-M "I B C A "
_symmetry_group_IT_number 73
_symmetry_cell_setting 'orthorhombic'
loop_
_space_group_symop_operation_xyz
x,y,z
-x,1/2-y,z
x,-y,1/2-z
1/2-x,y,-z
-x,-y,-z
x,1/2+y,-z
-x,y,1/2+z
1/2+x,-y,z
1/2+x,1/2+y,1/2+z
1/2-x,-y,1/2+z
1/2+x,1/2-y,-z
-x,1/2+y,1/2-z
1/2-x,1/2-y,1/2-z
1/2+x,y,1/2-z
1/2-x,1/2+y,z
x,1/2-y,1/2+z
loop_
_atom_site_type_symbol
_atom_site_label
_atom_site_fract_x
_atom_site_fract_y
_atom_site_fract_z
Si Si1 0.695633 0.952842 0.687638
Si Si2 0.405059 0.889826 0.508489
Si Si3 0.500000 0.750000 0.582799
Si Si4 0.458208 0.475277 0.103498
Si Si5 0.365708 0.285175 0.792465
O O1 0.827080 0.942254 0.641087
O O2 0.638866 0.873978 0.712110
O O3 0.744629 0.000000 0.750000
O O4 0.572141 0.995180 0.652793
O O5 0.250000 0.863450 0.500000
O O6 0.490806 0.822474 0.538304
O O7 0.475651 0.909516 0.439459
O O8 0.404695 0.959527 0.556984
O O9 0.366523 0.740374 0.630424
O O10 0.500000 0.250000 0.758560
O O11 0.250000 0.250000 0.750000
#
# Coordination Sequence:
#
# PCOD8296711 Si02
#       5
#    16  16   8  16  16
#     4  12  26  43  73 102 139 183 236 289 348 421
#     4  11  23  44  68  97 140 180 231 288 342 417
#     4  10  24  44  68  98 140 184 236 276 350 420
#     4  11  24  44  69 101 134 180 229 288 351 404
#     4  10  25  46  67  97 145 180 226 288 350 418
#
# _framework density 20.103066999999999
#
# number of rings (size 3 to 8) (size 9 to 14) (size 15 to 20)
#    0.667    0.444    4.444    0.667    9.333    1.778 
#    0.000    0.000    0.000    0.000    0.000    0.000 
#    0.000    0.000    0.000    0.000    0.000    0.000 
#
# Total GULP energy -446349.601592 kJ/mol
# GULP energy per Si atom -12398.600044 kJ/mol
# Density = 2.005731 g / cm^3
# Si number density = 20.103067 Si / 1000 Ang^3
#
#
#
# Elastic Constant Matrix: (Units=GPa)
#
#
# Indices 1 2 3 4 5 6 
#
# 1 141.9584 49.6853 54.1768 0.0000 0.0000 0.0000
# 2 49.6853 140.2726 61.0854 0.0000 0.0000 0.0000
# 3 54.1768 61.0854 100.5058 0.0000 0.0000 0.0000
# 4 0.0000 0.0000 0.0000 39.8518 0.0000 0.0000
# 5 0.0000 0.0000 0.0000 0.0000 38.0670 0.0000
# 6 0.0000 0.0000 0.0000 0.0000 0.0000 22.5411
#
#
#
# Elastic Compliance Matrix: (Units=1/GPa)
#
#
# Indices 1 2 3 4 5 6 
#
# 1 0.009088 -0.001477 -0.004002 0.000000 0.000000 0.000000
# 2 -0.001477 0.009935 -0.005242 0.000000 0.000000 0.000000
# 3 -0.004002 -0.005242 0.015293 0.000000 0.000000 0.000000
# 4 0.000000 0.000000 0.000000 0.025093 0.000000 0.000000
# 5 0.000000 0.000000 0.000000 0.000000 0.026269 0.000000
# 6 0.000000 0.000000 0.000000 0.000000 0.000000 0.044363
#
#
# Mechanical properties :
#
#
# Convention : Reuss Voigt Hill
#
# Bulk Modulus (GPa) = 77.66861 79.18130 78.42495
# Shear Modulus (GPa) = 32.09772 34.61127 33.35450
#
# Velocity S-wave (km/s) = 4.00016 4.15383 4.07772
# Velocity P-wave (km/s) = 7.74946 7.90436 7.82729
#
# Compressibility (1/GPa) = 0.01287521
#
# Stress axis : x y z
#
# Youngs Moduli (GPa) = 110.03233 100.65562 65.39009
#
# Poissons Ratio (x) = 0.14862 0.26166
# Poissons Ratio (y) = 0.16247 0.34279
# Poissons Ratio (z) = 0.44030 0.52767
#
# Static dielectric constant tensor:
#      x y z
#    x 3.801040 0.000000 0.000000 
#    y 0.000000 3.797860 0.000000 
#    z 0.000000 0.000000 3.781520 
# 
# 
# High freq. dielectric constant tensor:
#      x y z
#    x 1.786780 0.000000 0.000000 
#    y 0.000000 1.786090 0.000000 
#    z 0.000000 0.000000 1.791760 
# 
# From -- ./inp_files/20611.got.cif
#   From: 2010.03.12/outbox.cif.g09.slc.cpg/sg73_11_cif.got.tgz:20611.got - 2010.04.16 15:25:48.
