data_PCOD8296639
_publ_section_title
;
Structure prediction by ZEFSAII (Michael W. Deem and Ramdas Pophale) SiO2 
 PCOD8296639
Probable space group: I B C A 
;
_chemical_formula_sum "Si O2"
_cell_formula_units_Z 56
_cell_length_a 14.543598
_cell_length_b 11.873358
_cell_length_c 11.904688
_cell_angle_alpha 90.000000
_cell_angle_beta 90.000000
_cell_angle_gamma 90.000000
_cell_volume 2055.717544
_symmetry_space_group_name_H-M "I B C A "
_symmetry_group_IT_number 73
_symmetry_cell_setting 'orthorhombic'
loop_
_space_group_symop_operation_xyz
x,y,z
-x,1/2-y,z
x,-y,1/2-z
1/2-x,y,-z
-x,-y,-z
x,1/2+y,-z
-x,y,1/2+z
1/2+x,-y,z
1/2+x,1/2+y,1/2+z
1/2-x,-y,1/2+z
1/2+x,1/2-y,-z
-x,1/2+y,1/2-z
1/2-x,1/2-y,1/2-z
1/2+x,y,1/2-z
1/2-x,1/2+y,z
x,1/2-y,1/2+z
loop_
_atom_site_type_symbol
_atom_site_label
_atom_site_fract_x
_atom_site_fract_y
_atom_site_fract_z
Si Si1 0.605038 0.235076 0.841192
Si Si2 0.117504 0.532726 0.897651
Si Si3 0.546869 0.131864 0.620954
Si Si4 0.750000 0.377884 0.500000
O O1 0.500000 0.250000 0.885831
O O2 0.635472 0.364155 0.809800
O O3 0.608534 0.152709 0.733430
O O4 0.668442 0.192327 0.942523
O O5 0.204786 0.451147 0.900830
O O6 0.026352 0.467557 0.859365
O O7 0.111412 0.590882 0.020683
O O8 0.500000 0.250000 0.590983
#
# Coordination Sequence:
#
# PCOD8296639 Si02
#       4
#    16  16  16   8
#     4  11  25  48  76 113 155 205 266 321 388 475
#     4  11  23  45  75 109 153 200 249 325 394 452
#     4  10  23  46  78 109 148 202 260 317 388 469
#     4  12  26  46  76 114 160 208 262 328 394 468
#
# _framework density 27.241097
#
# number of rings (size 3 to 8) (size 9 to 14) (size 15 to 20)
#    0.000    1.143    0.000    6.857    0.000   10.286 
#    0.000   31.429    0.000    0.000    0.000    0.000 
#    0.000    0.000    0.000    0.000    0.000    0.000 
#
# Total GULP energy -346974.570416 kJ/mol
# GULP energy per Si atom -12391.948943 kJ/mol
# Density = 2.717910 g / cm^3
# Si number density = 27.241097 Si / 1000 Ang^3
#
#
#
# Elastic Constant Matrix: (Units=GPa)
#
#
# Indices 1 2 3 4 5 6 
#
# 1 99.4309 31.0219 49.4045 0.0000 0.0000 0.0000
# 2 31.0219 166.1286 48.2852 0.0000 0.0000 0.0000
# 3 49.4045 48.2852 160.8011 0.0000 0.0000 0.0000
# 4 0.0000 0.0000 0.0000 43.1704 0.0000 0.0000
# 5 0.0000 0.0000 0.0000 0.0000 34.4920 0.0000
# 6 0.0000 0.0000 0.0000 0.0000 0.0000 30.9310
#
#
#
# Elastic Compliance Matrix: (Units=1/GPa)
#
#
# Indices 1 2 3 4 5 6 
#
# 1 0.012118 -0.001294 -0.003335 0.000000 0.000000 0.000000
# 2 -0.001294 0.006733 -0.001624 0.000000 0.000000 0.000000
# 3 -0.003335 -0.001624 0.007731 0.000000 0.000000 0.000000
# 4 0.000000 0.000000 0.000000 0.023164 0.000000 0.000000
# 5 0.000000 0.000000 0.000000 0.000000 0.028992 0.000000
# 6 0.000000 0.000000 0.000000 0.000000 0.000000 0.032330
#
#
# Mechanical properties :
#
#
# Convention : Reuss Voigt Hill
#
# Bulk Modulus (GPa) = 71.03867 75.97598 73.50733
# Shear Modulus (GPa) = 38.98161 41.56196 40.27179
#
# Velocity S-wave (km/s) = 3.78694 3.91027 3.84910
# Velocity P-wave (km/s) = 6.72723 6.95253 6.84081
#
# Compressibility (1/GPa) = 0.01407684
#
# Stress axis : x y z
#
# Youngs Moduli (GPa) = 82.52393 148.51975 129.34690
#
# Poissons Ratio (x) = 0.19212 0.43132
# Poissons Ratio (y) = 0.10675 0.21011
# Poissons Ratio (z) = 0.27518 0.24125
#
# Static dielectric constant tensor:
#      x y z
#    x 4.636950 0.000000 0.000000 
#    y 0.000000 5.782550 0.000000 
#    z 0.000000 0.000000 4.979070 
# 
# 
# High freq. dielectric constant tensor:
#      x y z
#    x 2.066560 0.000000 0.000000 
#    y 0.000000 2.128840 0.000000 
#    z 0.000000 0.000000 2.102740 
# 
# From -- ./inp_files/16538.got.cif
#   From: 2010.03.12/outbox.cif.g09.slc.cpg/sg73_9_cif.got.tgz:16538.got - 2010.04.16 15:25:48.
