data_PCOD8296508
_publ_section_title
;
Structure prediction by ZEFSAII (Michael W. Deem and Ramdas Pophale) SiO2 
 PCOD8296508
Probable space group: I B C A 
;
_chemical_formula_sum "Si O2"
_cell_formula_units_Z 56
_cell_length_a 20.142353
_cell_length_b 15.715964
_cell_length_c 7.603295
_cell_angle_alpha 90.000000
_cell_angle_beta 90.000000
_cell_angle_gamma 90.000000
_cell_volume 2406.872413
_symmetry_space_group_name_H-M "I B C A "
_symmetry_group_IT_number 73
_symmetry_cell_setting 'orthorhombic'
loop_
_space_group_symop_operation_xyz
x,y,z
-x,1/2-y,z
x,-y,1/2-z
1/2-x,y,-z
-x,-y,-z
x,1/2+y,-z
-x,y,1/2+z
1/2+x,-y,z
1/2+x,1/2+y,1/2+z
1/2-x,-y,1/2+z
1/2+x,1/2-y,-z
-x,1/2+y,1/2-z
1/2-x,1/2-y,1/2-z
1/2+x,y,1/2-z
1/2-x,1/2+y,z
x,1/2-y,1/2+z
loop_
_atom_site_type_symbol
_atom_site_label
_atom_site_fract_x
_atom_site_fract_y
_atom_site_fract_z
Si Si1 0.000000 0.250000 0.685758
Si Si2 0.677436 0.651457 0.965311
Si Si3 0.365837 0.675789 0.076646
Si Si4 0.419725 0.405834 0.737502
O O1 0.936298 0.224905 0.573332
O O2 0.978482 0.336003 0.791191
O O3 0.655740 0.637558 0.762978
O O4 0.750000 0.610670 0.000000
O O5 0.684501 0.752153 0.007614
O O6 0.623066 0.606799 0.086947
O O7 0.370715 0.600764 0.932075
O O8 0.451585 0.500000 0.750000
#
# Coordination Sequence:
#
# PCOD8296508 Si02
#       4
#     8  16  16  16
#     4  10  22  44  70 100 140 182 228 288 352 418
#     4  11  23  42  68  99 131 186 239 286 342 411
#     4  11  22  39  71  97 133 180 234 285 349 412
#     4  11  26  44  66 104 139 179 233 288 353 416
#
# _framework density 23.26671
#
# number of rings (size 3 to 8) (size 9 to 14) (size 15 to 20)
#    0.000    1.143    5.714    1.714    4.000    2.286 
#    5.143    0.000    0.000    0.000    0.000    0.000 
#    0.000    0.000    0.000    0.000    0.000    0.000 
#
# Total GULP energy -346937.859399 kJ/mol
# GULP energy per Si atom -12390.637836 kJ/mol
# Density = 2.321375 g / cm^3
# Si number density = 23.266710 Si / 1000 Ang^3
#
#
#
# Elastic Constant Matrix: (Units=GPa)
#
#
# Indices 1 2 3 4 5 6 
#
# 1 83.7082 29.1852 -0.0956 0.0000 0.0000 0.0000
# 2 29.1852 155.0384 42.1414 0.0000 0.0000 0.0000
# 3 -0.0956 42.1414 147.7295 0.0000 0.0000 0.0000
# 4 0.0000 0.0000 0.0000 16.8431 0.0000 0.0000
# 5 0.0000 0.0000 0.0000 0.0000 15.8602 0.0000
# 6 0.0000 0.0000 0.0000 0.0000 0.0000 20.9079
#
#
#
# Elastic Compliance Matrix: (Units=1/GPa)
#
#
# Indices 1 2 3 4 5 6 
#
# 1 0.012863 -0.002627 0.000758 0.000000 0.000000 0.000000
# 2 -0.002627 0.007529 -0.002149 0.000000 0.000000 0.000000
# 3 0.000758 -0.002149 0.007383 0.000000 0.000000 0.000000
# 4 0.000000 0.000000 0.000000 0.059371 0.000000 0.000000
# 5 0.000000 0.000000 0.000000 0.000000 0.063051 0.000000
# 6 0.000000 0.000000 0.000000 0.000000 0.000000 0.047829
#
#
# Mechanical properties :
#
#
# Convention : Reuss Voigt Hill
#
# Bulk Modulus (GPa) = 50.66669 58.77089 54.71879
# Shear Modulus (GPa) = 23.51359 31.73858 27.62609
#
# Velocity S-wave (km/s) = 3.18246 3.69741 3.44956
# Velocity P-wave (km/s) = 5.94372 6.59865 6.27973
#
# Compressibility (1/GPa) = 0.01973683
#
# Stress axis : x y z
#
# Youngs Moduli (GPa) = 77.74126 132.82262 135.45087
#
# Poissons Ratio (x) = 0.34898 -0.10265
# Poissons Ratio (y) = 0.20426 0.29114
# Poissons Ratio (z) = -0.05891 0.28549
#
# Static dielectric constant tensor:
#      x y z
#    x 4.103340 0.000000 0.000000 
#    y 0.000000 3.905780 0.000000 
#    z 0.000000 0.000000 4.131670 
# 
# 
# High freq. dielectric constant tensor:
#      x y z
#    x 1.909820 0.000000 0.000000 
#    y 0.000000 1.885870 0.000000 
#    z 0.000000 0.000000 1.934360 
# 
# From -- ./inp_files/4455.got.cif
#   From: 2010.03.12/outbox.cif.g09.slc.cpg/sg73_3_cif.got.tgz:4455.got - 2010.04.16 15:25:48.
