data_PCOD8296606
_publ_section_title
;
Structure prediction by ZEFSAII (Michael W. Deem and Ramdas Pophale) SiO2 
 PCOD8296606
Probable space group: I B C A 
;
_chemical_formula_sum "Si O2"
_cell_formula_units_Z 72
_cell_length_a 12.516861
_cell_length_b 12.611356
_cell_length_c 22.078695
_cell_angle_alpha 90.000000
_cell_angle_beta 90.000000
_cell_angle_gamma 90.000000
_cell_volume 3485.223349
_symmetry_space_group_name_H-M "I B C A "
_symmetry_group_IT_number 73
_symmetry_cell_setting 'orthorhombic'
loop_
_space_group_symop_operation_xyz
x,y,z
-x,1/2-y,z
x,-y,1/2-z
1/2-x,y,-z
-x,-y,-z
x,1/2+y,-z
-x,y,1/2+z
1/2+x,-y,z
1/2+x,1/2+y,1/2+z
1/2-x,-y,1/2+z
1/2+x,1/2-y,-z
-x,1/2+y,1/2-z
1/2-x,1/2-y,1/2-z
1/2+x,y,1/2-z
1/2-x,1/2+y,z
x,1/2-y,1/2+z
loop_
_atom_site_type_symbol
_atom_site_label
_atom_site_fract_x
_atom_site_fract_y
_atom_site_fract_z
Si Si1 0.174570 0.197638 0.678209
Si Si2 0.750000 0.079582 0.500000
Si Si3 0.075909 0.339658 0.585136
Si Si4 0.892261 0.689148 0.691780
Si Si5 0.391276 0.508819 0.601852
O O1 0.109557 0.299163 0.652207
O O2 0.297371 0.226426 0.686349
O O3 0.115658 0.152344 0.738287
O O4 0.176221 0.103173 0.630491
O O5 0.817491 0.152155 0.545616
O O6 0.664181 0.011280 0.537324
O O7 0.000000 0.250000 0.554599
O O8 0.013771 0.452006 0.591552
O O9 0.884767 0.592717 0.645135
O O10 0.000000 0.750000 0.676935
#
# Coordination Sequence:
#
# PCOD8296606 Si02
#       5
#    16   8  16  16  16
#     4  10  23  44  64  95 133 166 207 272 324 389
#     4  12  24  42  64  98 128 178 222 264 310 386
#     4  10  23  44  65  93 134 169 216 266 324 378
#     4  11  23  40  69  99 126 164 217 262 330 389
#     4  11  24  42  66  94 131 170 214 265 324 376
#
# _framework density 20.658649
#
# number of rings (size 3 to 8) (size 9 to 14) (size 15 to 20)
#    0.000    1.333    2.222    3.333    3.111    4.444 
#    0.000    2.222    0.000    0.000    0.000    0.000 
#    0.000    0.000    0.000    0.000    0.000    0.000 
#
# Total GULP energy -446323.680154 kJ/mol
# GULP energy per Si atom -12397.880004 kJ/mol
# Density = 2.061163 g / cm^3
# Si number density = 20.658649 Si / 1000 Ang^3
#
#
#
# Elastic Constant Matrix: (Units=GPa)
#
#
# Indices 1 2 3 4 5 6 
#
# 1 113.8012 31.1509 38.6557 0.0000 0.0000 0.0000
# 2 31.1509 70.0928 39.4207 0.0000 0.0000 0.0000
# 3 38.6557 39.4207 119.6378 0.0000 0.0000 0.0000
# 4 0.0000 0.0000 0.0000 21.6253 0.0000 0.0000
# 5 0.0000 0.0000 0.0000 0.0000 38.2954 0.0000
# 6 0.0000 0.0000 0.0000 0.0000 0.0000 33.1572
#
#
#
# Elastic Compliance Matrix: (Units=1/GPa)
#
#
# Indices 1 2 3 4 5 6 
#
# 1 0.010485 -0.003381 -0.002274 0.000000 0.000000 0.000000
# 2 -0.003381 0.018602 -0.005037 0.000000 0.000000 0.000000
# 3 -0.002274 -0.005037 0.010753 0.000000 0.000000 0.000000
# 4 0.000000 0.000000 0.000000 0.046242 0.000000 0.000000
# 5 0.000000 0.000000 0.000000 0.000000 0.026113 0.000000
# 6 0.000000 0.000000 0.000000 0.000000 0.000000 0.030159
#
#
# Mechanical properties :
#
#
# Convention : Reuss Voigt Hill
#
# Bulk Modulus (GPa) = 54.18099 57.99851 56.08975
# Shear Modulus (GPa) = 29.43073 31.56922 30.49998
#
# Velocity S-wave (km/s) = 3.77851 3.91338 3.84654
# Velocity P-wave (km/s) = 6.73201 6.96814 6.85109
#
# Compressibility (1/GPa) = 0.01845666
#
# Stress axis : x y z
#
# Youngs Moduli (GPa) = 95.37353 53.75689 92.99801
#
# Poissons Ratio (x) = 0.18176 0.21145
# Poissons Ratio (y) = 0.32246 0.46843
# Poissons Ratio (z) = 0.21685 0.27077
#
# Static dielectric constant tensor:
#      x y z
#    x 3.921070 0.000000 0.000000 
#    y 0.000000 3.679440 0.000000 
#    z 0.000000 0.000000 3.972490 
# 
# 
# High freq. dielectric constant tensor:
#      x y z
#    x 1.824240 0.000000 0.000000 
#    y 0.000000 1.795960 0.000000 
#    z 0.000000 0.000000 1.814730 
# 
# From -- ./inp_files/12546.got.cif
#   From: 2010.03.12/outbox.cif.g09.slc.cpg/sg73_7_cif.got.tgz:12546.got - 2010.04.16 15:25:48.
