data_PCOD8296734
_publ_section_title
;
Structure prediction by ZEFSAII (Michael W. Deem and Ramdas Pophale) SiO2 
 PCOD8296734
Probable space group: I B C A 
;
_chemical_formula_sum "Si O2"
_cell_formula_units_Z 72
_cell_length_a 13.029629
_cell_length_b 14.660380
_cell_length_c 16.231899
_cell_angle_alpha 90.000000
_cell_angle_beta 90.000000
_cell_angle_gamma 90.000000
_cell_volume 3100.606186
_symmetry_space_group_name_H-M "I B C A "
_symmetry_group_IT_number 73
_symmetry_cell_setting 'orthorhombic'
loop_
_space_group_symop_operation_xyz
x,y,z
-x,1/2-y,z
x,-y,1/2-z
1/2-x,y,-z
-x,-y,-z
x,1/2+y,-z
-x,y,1/2+z
1/2+x,-y,z
1/2+x,1/2+y,1/2+z
1/2-x,-y,1/2+z
1/2+x,1/2-y,-z
-x,1/2+y,1/2-z
1/2-x,1/2-y,1/2-z
1/2+x,y,1/2-z
1/2-x,1/2+y,z
x,1/2-y,1/2+z
loop_
_atom_site_type_symbol
_atom_site_label
_atom_site_fract_x
_atom_site_fract_y
_atom_site_fract_z
Si Si1 0.456911 0.852444 0.644542
Si Si2 0.164354 0.962710 0.841942
Si Si3 0.822055 0.678434 0.207005
Si Si4 0.500000 0.750000 0.894759
Si Si5 0.421269 0.922500 0.479191
O O1 0.500000 0.750000 0.639226
O O2 0.555026 0.916314 0.649652
O O3 0.388344 0.874309 0.724345
O O4 0.382846 0.880438 0.566921
O O5 0.258915 0.891501 0.851924
O O6 0.175542 0.000000 0.750000
O O7 0.166672 0.040556 0.914997
O O8 0.750000 0.750000 0.250000
O O9 0.896314 0.742986 0.156157
O O10 0.508133 0.842476 0.944426
O O11 0.500000 0.000000 0.500000
#
# Coordination Sequence:
#
# PCOD8296734 Si02
#       5
#    16  16  16   8  16
#     4  11  21  45  73 100 142 191 242 302 373 442
#     4  11  24  44  69 109 143 182 250 302 369 452
#     4  12  23  41  71 102 137 187 245 303 366 458
#     4  12  24  46  74  98 142 200 246 310 392 460
#     4  10  24  45  72 102 142 191 240 308 377 445
#
# _framework density 23.221267999999998
#
# number of rings (size 3 to 8) (size 9 to 14) (size 15 to 20)
#    0.000    0.889    4.444    2.667    0.000    4.444 
#    0.000   20.000    0.000    0.000    0.000    0.000 
#    0.000    0.000    0.000    0.000    0.000    0.000 
#
# Total GULP energy -446047.823260 kJ/mol
# GULP energy per Si atom -12390.217313 kJ/mol
# Density = 2.316842 g / cm^3
# Si number density = 23.221268 Si / 1000 Ang^3
#
#
#
# Elastic Constant Matrix: (Units=GPa)
#
#
# Indices 1 2 3 4 5 6 
#
# 1 106.7438 41.1647 32.1304 0.0000 0.0000 0.0000
# 2 41.1647 118.8220 34.3047 0.0000 0.0000 0.0000
# 3 32.1304 34.3047 96.3972 0.0000 0.0000 0.0000
# 4 0.0000 0.0000 0.0000 44.9277 0.0000 0.0000
# 5 0.0000 0.0000 0.0000 0.0000 9.7376 0.0000
# 6 0.0000 0.0000 0.0000 0.0000 0.0000 46.2672
#
#
#
# Elastic Compliance Matrix: (Units=1/GPa)
#
#
# Indices 1 2 3 4 5 6 
#
# 1 0.011397 -0.003178 -0.002668 0.000000 0.000000 0.000000
# 2 -0.003178 0.010266 -0.002594 0.000000 0.000000 0.000000
# 3 -0.002668 -0.002594 0.012186 0.000000 0.000000 0.000000
# 4 0.000000 0.000000 0.000000 0.022258 0.000000 0.000000
# 5 0.000000 0.000000 0.000000 0.000000 0.102695 0.000000
# 6 0.000000 0.000000 0.000000 0.000000 0.000000 0.021614
#
#
# Mechanical properties :
#
#
# Convention : Reuss Voigt Hill
#
# Bulk Modulus (GPa) = 58.93067 59.68474 59.30770
# Shear Modulus (GPa) = 24.63646 34.47738 29.55692
#
# Velocity S-wave (km/s) = 3.26075 3.85740 3.57156
# Velocity P-wave (km/s) = 6.29362 6.75262 6.52715
#
# Compressibility (1/GPa) = 0.01696909
#
# Stress axis : x y z
#
# Youngs Moduli (GPa) = 87.74360 97.41008 82.06107
#
# Poissons Ratio (x) = 0.30958 0.21892
# Poissons Ratio (y) = 0.27886 0.21287
# Poissons Ratio (z) = 0.23408 0.25268
#
# Static dielectric constant tensor:
#      x y z
#    x 4.000210 0.000000 0.000000 
#    y 0.000000 4.985900 0.000000 
#    z 0.000000 0.000000 6.114520 
# 
# 
# High freq. dielectric constant tensor:
#      x y z
#    x 1.906470 0.000000 0.000000 
#    y 0.000000 1.933890 0.000000 
#    z 0.000000 0.000000 1.928950 
# 
# From -- ./inp_files/21162.got.cif
#   From: 2010.03.12/outbox.cif.g09.slc.cpg/sg73_11_cif.got.tgz:21162.got - 2010.04.16 15:25:48.
