data_PCOD8296870
_publ_section_title
;
Structure prediction by ZEFSAII (Michael W. Deem and Ramdas Pophale) SiO2 
 PCOD8296870
Probable space group: I B C A 
;
_chemical_formula_sum "Si O2"
_cell_formula_units_Z 72
_cell_length_a 16.448178
_cell_length_b 15.469732
_cell_length_c 12.815048
_cell_angle_alpha 90.000000
_cell_angle_beta 90.000000
_cell_angle_gamma 90.000000
_cell_volume 3260.774938
_symmetry_space_group_name_H-M "I B C A "
_symmetry_group_IT_number 73
_symmetry_cell_setting 'orthorhombic'
loop_
_space_group_symop_operation_xyz
x,y,z
-x,1/2-y,z
x,-y,1/2-z
1/2-x,y,-z
-x,-y,-z
x,1/2+y,-z
-x,y,1/2+z
1/2+x,-y,z
1/2+x,1/2+y,1/2+z
1/2-x,-y,1/2+z
1/2+x,1/2-y,-z
-x,1/2+y,1/2-z
1/2-x,1/2-y,1/2-z
1/2+x,y,1/2-z
1/2-x,1/2+y,z
x,1/2-y,1/2+z
loop_
_atom_site_type_symbol
_atom_site_label
_atom_site_fract_x
_atom_site_fract_y
_atom_site_fract_z
Si Si1 0.103634 0.196103 0.603117
Si Si2 0.546006 0.594000 0.295900
Si Si3 0.750000 0.880272 0.500000
Si Si4 0.052004 0.376190 0.525143
Si Si5 0.880398 0.465332 0.354184
O O1 0.078597 0.169345 0.720254
O O2 0.197634 0.176977 0.579660
O O3 0.094360 0.298188 0.587145
O O4 0.045510 0.143021 0.522381
O O5 0.570887 0.500000 0.250000
O O6 0.587621 0.611607 0.408677
O O7 0.448236 0.603351 0.313322
O O8 0.810105 0.936798 0.568976
O O9 0.063943 0.462599 0.590437
O O10 0.835342 0.500000 0.250000
#
# Coordination Sequence:
#
# PCOD8296870 Si02
#       5
#    16  16   8  16  16
#     4  11  25  42  71 102 144 179 239 288 365 404
#     4  11  21  43  75 102 133 192 247 278 336 447
#     4  12  26  44  66 110 144 180 228 318 350 416
#     4  11  23  44  73 100 137 196 238 288 344 447
#     4  11  23  43  69  98 141 179 248 283 352 426
#
# _framework density 22.080641
#
# number of rings (size 3 to 8) (size 9 to 14) (size 15 to 20)
#    0.000    0.889    6.667    2.000    0.000    8.889 
#    0.000    2.222    0.000    0.000    0.000    0.000 
#    0.000    0.000    0.000    0.000    0.000    0.000 
#
# Total GULP energy -446251.542914 kJ/mol
# GULP energy per Si atom -12395.876192 kJ/mol
# Density = 2.203038 g / cm^3
# Si number density = 22.080641 Si / 1000 Ang^3
#
#
#
# Elastic Constant Matrix: (Units=GPa)
#
#
# Indices 1 2 3 4 5 6 
#
# 1 114.8107 39.6895 27.4513 0.0000 0.0000 0.0000
# 2 39.6895 69.0245 38.5228 0.0000 0.0000 0.0000
# 3 27.4513 38.5228 168.0202 0.0000 0.0000 0.0000
# 4 0.0000 0.0000 0.0000 36.3432 0.0000 0.0000
# 5 0.0000 0.0000 0.0000 0.0000 40.3615 0.0000
# 6 0.0000 0.0000 0.0000 0.0000 0.0000 11.7548
#
#
#
# Elastic Compliance Matrix: (Units=1/GPa)
#
#
# Indices 1 2 3 4 5 6 
#
# 1 0.010894 -0.006044 -0.000394 0.000000 0.000000 0.000000
# 2 -0.006044 0.019967 -0.003590 0.000000 0.000000 0.000000
# 3 -0.000394 -0.003590 0.006839 0.000000 0.000000 0.000000
# 4 0.000000 0.000000 0.000000 0.027515 0.000000 0.000000
# 5 0.000000 0.000000 0.000000 0.000000 0.024776 0.000000
# 6 0.000000 0.000000 0.000000 0.000000 0.000000 0.085072
#
#
# Mechanical properties :
#
#
# Convention : Reuss Voigt Hill
#
# Bulk Modulus (GPa) = 56.68064 62.57584 59.62824
# Shear Modulus (GPa) = 24.87554 34.10469 29.49011
#
# Velocity S-wave (km/s) = 3.36009 3.93434 3.65850
# Velocity P-wave (km/s) = 6.38586 7.00285 6.70146
#
# Compressibility (1/GPa) = 0.01764271
#
# Stress axis : x y z
#
# Youngs Moduli (GPa) = 91.79731 50.08334 146.21515
#
# Poissons Ratio (x) = 0.30270 0.05762
# Poissons Ratio (y) = 0.55482 0.52497
# Poissons Ratio (z) = 0.03618 0.17982
#
# Static dielectric constant tensor:
#      x y z
#    x 3.787280 0.000000 0.000000 
#    y 0.000000 3.842890 0.000000 
#    z 0.000000 0.000000 4.338160 
# 
# 
# High freq. dielectric constant tensor:
#      x y z
#    x 1.835520 0.000000 0.000000 
#    y 0.000000 1.859510 0.000000 
#    z 0.000000 0.000000 1.897660 
# 
# From -- ./inp_files/11634.got.cif
#   From: 2010.03.12/outbox.cif.g09.slc.cpg/sg73_6_cif.got.tgz:11634.got - 2010.04.16 15:25:48.
