data_PCOD8296921
_publ_section_title
;
Structure prediction by ZEFSAII (Michael W. Deem and Ramdas Pophale) SiO2 
 PCOD8296921
Probable space group: I B C A 
;
_chemical_formula_sum "Si O2"
_cell_formula_units_Z 64
_cell_length_a 8.514737
_cell_length_b 24.621221
_cell_length_c 13.052971
_cell_angle_alpha 90.000000
_cell_angle_beta 90.000000
_cell_angle_gamma 90.000000
_cell_volume 2736.466890
_symmetry_space_group_name_H-M "I B C A "
_symmetry_group_IT_number 73
_symmetry_cell_setting 'orthorhombic'
loop_
_space_group_symop_operation_xyz
x,y,z
-x,1/2-y,z
x,-y,1/2-z
1/2-x,y,-z
-x,-y,-z
x,1/2+y,-z
-x,y,1/2+z
1/2+x,-y,z
1/2+x,1/2+y,1/2+z
1/2-x,-y,1/2+z
1/2+x,1/2-y,-z
-x,1/2+y,1/2-z
1/2-x,1/2-y,1/2-z
1/2+x,y,1/2-z
1/2-x,1/2+y,z
x,1/2-y,1/2+z
loop_
_atom_site_type_symbol
_atom_site_label
_atom_site_fract_x
_atom_site_fract_y
_atom_site_fract_z
Si Si1 0.061364 0.378960 0.362502
Si Si2 0.869290 0.939607 0.787749
Si Si3 0.396328 0.388716 0.937626
Si Si4 0.624244 0.209500 0.792399
O O1 0.217521 0.414699 0.342915
O O2 0.065592 0.320438 0.310056
O O3 0.905435 0.407618 0.316636
O O4 0.034886 0.371827 0.483630
O O5 0.025254 0.932620 0.860093
O O6 0.837087 0.000000 0.750000
O O7 0.331630 0.335479 0.877570
O O8 0.250000 0.414782 0.000000
O O9 0.500000 0.250000 0.843722
O O10 0.750000 0.250000 0.750000
#
# Coordination Sequence:
#
# PCOD8296921 Si02
#       4
#    16  16  16  16
#     4  11  23  44  67  98 138 177 230 285 338 408
#     4  11  24  44  70  98 135 180 226 286 350 408
#     4  11  24  43  69 101 136 176 228 283 337 411
#     4  11  23  41  66  97 137 181 223 277 340 402
#
# _framework density 23.387820999999999
#
# number of rings (size 3 to 8) (size 9 to 14) (size 15 to 20)
#    0.000    1.000    0.000    9.000    0.000    4.000 
#    0.000    6.250    0.000    0.000    0.000    0.000 
#    0.000    0.000    0.000    0.000    0.000    0.000 
#
# Total GULP energy -396523.113526 kJ/mol
# GULP energy per Si atom -12391.347298 kJ/mol
# Density = 2.333459 g / cm^3
# Si number density = 23.387821 Si / 1000 Ang^3
#
#
#
# Elastic Constant Matrix: (Units=GPa)
#
#
# Indices 1 2 3 4 5 6 
#
# 1 91.2685 36.4058 27.4767 0.0001 0.0001 0.0000
# 2 36.4058 120.8511 37.1945 0.0002 0.0000 0.0000
# 3 27.4767 37.1945 128.3177 0.0015 -0.0002 -0.0001
# 4 0.0001 0.0002 0.0015 17.0344 -0.0002 -0.0001
# 5 0.0001 0.0000 -0.0002 -0.0002 46.1998 0.0001
# 6 0.0000 0.0000 -0.0001 -0.0001 0.0001 40.2364
#
#
#
# Elastic Compliance Matrix: (Units=1/GPa)
#
#
# Indices 1 2 3 4 5 6 
#
# 1 0.012815 -0.003311 -0.001784 0.000000 0.000000 0.000000
# 2 -0.003311 0.009941 -0.002172 0.000000 0.000000 0.000000
# 3 -0.001784 -0.002172 0.008805 -0.000001 0.000000 0.000000
# 4 0.000000 0.000000 -0.000001 0.058705 0.000000 0.000000
# 5 0.000000 0.000000 0.000000 0.000000 0.021645 0.000000
# 6 0.000000 0.000000 0.000000 0.000000 0.000000 0.024853
#
#
# Mechanical properties :
#
#
# Convention : Reuss Voigt Hill
#
# Bulk Modulus (GPa) = 58.73850 60.28790 59.51320
# Shear Modulus (GPa) = 31.85248 36.65148 34.25198
#
# Velocity S-wave (km/s) = 3.69443 3.96298 3.83106
# Velocity P-wave (km/s) = 6.58543 6.83913 6.71348
#
# Compressibility (1/GPa) = 0.01702461
#
# Stress axis : x y z
#
# Youngs Moduli (GPa) = 78.03593 100.59611 113.57294
#
# Poissons Ratio (x) = 0.33309 0.20264
# Poissons Ratio (y) = 0.25839 0.24673
# Poissons Ratio (z) = 0.13923 0.21854
#
# Static dielectric constant tensor:
#      x y z
#    x 4.415920 0.000000 0.000000 
#    y 0.000000 3.942730 0.000000 
#    z 0.000000 0.000000 4.424540 
# 
# 
# High freq. dielectric constant tensor:
#      x y z
#    x 1.944330 0.000000 0.000000 
#    y 0.000000 1.910860 0.000000 
#    z 0.000000 0.000000 1.934220 
# 
# From -- ./inp_files/4637.got.cif
#   From: 2010.03.12/outbox.cif.g09.slc.cpg/sg73_3_cif.got.tgz:4637.got - 2010.04.16 15:25:48.
