data_PCOD8296063
_publ_section_title
;
Structure prediction by ZEFSAII (Michael W. Deem and Ramdas Pophale) SiO2 
 PCOD8296063
Probable space group: I B C A 
;
_chemical_formula_sum "Si O2"
_cell_formula_units_Z 72
_cell_length_a 12.546816
_cell_length_b 11.444724
_cell_length_c 20.775352
_cell_angle_alpha 90.000000
_cell_angle_beta 90.000000
_cell_angle_gamma 90.000000
_cell_volume 2983.233475
_symmetry_space_group_name_H-M "I B C A "
_symmetry_group_IT_number 73
_symmetry_cell_setting 'orthorhombic'
loop_
_space_group_symop_operation_xyz
x,y,z
-x,1/2-y,z
x,-y,1/2-z
1/2-x,y,-z
-x,-y,-z
x,1/2+y,-z
-x,y,1/2+z
1/2+x,-y,z
1/2+x,1/2+y,1/2+z
1/2-x,-y,1/2+z
1/2+x,1/2-y,-z
-x,1/2+y,1/2-z
1/2-x,1/2-y,1/2-z
1/2+x,y,1/2-z
1/2-x,1/2+y,z
x,1/2-y,1/2+z
loop_
_atom_site_type_symbol
_atom_site_label
_atom_site_fract_x
_atom_site_fract_y
_atom_site_fract_z
Si Si1 0.546029 0.572959 0.356378
Si Si2 0.910448 0.000000 0.750000
Si Si3 0.400929 0.445831 0.038547
Si Si4 0.901865 0.329278 0.583611
Si Si5 0.287839 0.881864 0.634048
O O1 0.490262 0.588741 0.287028
O O2 0.460481 0.630181 0.406139
O O3 0.554264 0.433548 0.371728
O O4 0.661372 0.628749 0.359566
O O5 0.836229 0.930729 0.799925
O O6 0.320025 0.538475 0.072131
O O7 0.500000 0.500000 0.000000
O O8 0.342093 0.371299 0.982481
O O9 0.819102 0.253019 0.624482
O O10 0.000000 0.250000 0.562017
#
# Coordination Sequence:
#
# PCOD8296063 Si02
#       5
#    16   8  16  16  16
#     4  10  22  41  66 101 129 175 225 269 330 396
#     4  10  20  42  70  84 136 172 210 284 334 366
#     4   9  19  38  60  91 132 167 206 266 321 384
#     4  11  20  43  66  88 138 179 208 266 345 383
#     4  11  22  42  67  97 133 175 220 275 327 395
#
# _framework density 24.134886000000002
#
# number of rings (size 3 to 8) (size 9 to 14) (size 15 to 20)
#    0.000    1.778    6.667    0.667    0.000    3.556 
#    8.000    6.667    9.778    0.000    0.000    0.000 
#    0.000    0.000    0.000    0.000    0.000    0.000 
#
# Total GULP energy -445972.434633 kJ/mol
# GULP energy per Si atom -12388.123184 kJ/mol
# Density = 2.407995 g / cm^3
# Si number density = 24.134886 Si / 1000 Ang^3
#
#
#
# Elastic Constant Matrix: (Units=GPa)
#
#
# Indices 1 2 3 4 5 6 
#
# 1 49.3356 1.7377 -1.2393 0.0000 0.0000 0.0000
# 2 1.7377 80.4270 26.4568 0.0000 0.0000 0.0000
# 3 -1.2393 26.4568 128.2174 0.0000 0.0000 0.0000
# 4 0.0000 0.0000 0.0000 33.6544 0.0000 0.0000
# 5 0.0000 0.0000 0.0000 0.0000 14.3939 0.0000
# 6 0.0000 0.0000 0.0000 0.0000 0.0000 27.7169
#
#
#
# Elastic Compliance Matrix: (Units=1/GPa)
#
#
# Indices 1 2 3 4 5 6 
#
# 1 0.020296 -0.000540 0.000308 0.000000 0.000000 0.000000
# 2 -0.000540 0.013353 -0.002761 0.000000 0.000000 0.000000
# 3 0.000308 -0.002761 0.008372 0.000000 0.000000 0.000000
# 4 0.000000 0.000000 0.000000 0.029714 0.000000 0.000000
# 5 0.000000 0.000000 0.000000 0.000000 0.069474 0.000000
# 6 0.000000 0.000000 0.000000 0.000000 0.000000 0.036079
#
#
# Mechanical properties :
#
#
# Convention : Reuss Voigt Hill
#
# Bulk Modulus (GPa) = 27.75012 34.65446 31.20229
# Shear Modulus (GPa) = 25.60351 30.55469 28.07910
#
# Velocity S-wave (km/s) = 3.26060 3.56194 3.41460
# Velocity P-wave (km/s) = 5.06935 5.59522 5.33876
#
# Compressibility (1/GPa) = 0.03603588
#
# Stress axis : x y z
#
# Youngs Moduli (GPa) = 49.27059 74.88727 119.44785
#
# Poissons Ratio (x) = 0.04041 -0.03673
# Poissons Ratio (y) = 0.02659 0.32975
# Poissons Ratio (z) = -0.01515 0.20673
#
# Static dielectric constant tensor:
#      x y z
#    x 4.556960 0.000000 0.000000 
#    y 0.000000 4.332850 0.000000 
#    z 0.000000 0.000000 5.097390 
# 
# 
# High freq. dielectric constant tensor:
#      x y z
#    x 1.973170 0.000000 0.000000 
#    y 0.000000 1.923630 0.000000 
#    z 0.000000 0.000000 1.969410 
# 
# From -- ./inp_files/10648.got.cif
#   From: 2010.03.12/outbox.cif.g09.slc.cpg/sg73_6_cif.got.tgz:10648.got - 2010.04.16 15:25:48.
