data_PCOD8296060
_publ_section_title
;
Structure prediction by ZEFSAII (Michael W. Deem and Ramdas Pophale) SiO2 
 PCOD8296060
Probable space group: I B C A 
;
_chemical_formula_sum "Si O2"
_cell_formula_units_Z 104
_cell_length_a 17.726738
_cell_length_b 21.261576
_cell_length_c 13.662114
_cell_angle_alpha 90.000000
_cell_angle_beta 90.000000
_cell_angle_gamma 90.000000
_cell_volume 5149.228733
_symmetry_space_group_name_H-M "I B C A "
_symmetry_group_IT_number 73
_symmetry_cell_setting 'orthorhombic'
loop_
_space_group_symop_operation_xyz
x,y,z
-x,1/2-y,z
x,-y,1/2-z
1/2-x,y,-z
-x,-y,-z
x,1/2+y,-z
-x,y,1/2+z
1/2+x,-y,z
1/2+x,1/2+y,1/2+z
1/2-x,-y,1/2+z
1/2+x,1/2-y,-z
-x,1/2+y,1/2-z
1/2-x,1/2-y,1/2-z
1/2+x,y,1/2-z
1/2-x,1/2+y,z
x,1/2-y,1/2+z
loop_
_atom_site_type_symbol
_atom_site_label
_atom_site_fract_x
_atom_site_fract_y
_atom_site_fract_z
Si Si1 0.164232 0.759689 0.272462
Si Si2 0.621154 0.522642 0.536763
Si Si3 0.032205 0.024914 0.642127
Si Si4 0.250000 0.928234 0.000000
Si Si5 0.669233 0.162766 0.460739
Si Si6 0.623304 0.353940 0.400788
Si Si7 0.084590 0.237476 0.425188
O O1 0.250000 0.750000 0.250000
O O2 0.153969 0.814595 0.350993
O O3 0.129626 0.694412 0.311651
O O4 0.124793 0.782782 0.174258
O O5 0.581874 0.516824 0.431225
O O6 0.556875 0.517767 0.619911
O O7 0.686082 0.470265 0.554598
O O8 0.662730 0.588566 0.538539
O O9 0.058607 0.096998 0.630050
O O10 0.049075 0.000000 0.750000
O O11 0.205441 0.885659 0.920501
O O12 0.750000 0.184726 0.500000
O O13 0.611344 0.195693 0.533573
O O14 0.596291 0.319085 0.498832
O O15 0.000000 0.250000 0.396751
#
# Coordination Sequence:
#
# PCOD8296060 Si02
#       7
#    16  16  16   8  16  16  16
#     4  11  23  40  65 101 126 173 222 267 335 390
#     4  10  22  43  63  96 128 164 222 266 324 381
#     4  10  23  43  66  93 130 175 214 266 325 392
#     4  10  20  42  68  88 126 178 202 268 332 372
#     4  11  22  41  67  91 133 167 217 278 320 391
#     4  10  23  43  66  93 138 168 214 269 327 394
#     4  11  24  41  67  96 131 172 212 272 337 389
#
# _framework density 20.197199999999999
#
# number of rings (size 3 to 8) (size 9 to 14) (size 15 to 20)
#    0.000    1.538    2.308    1.846    4.308    3.692 
#   11.077    0.769    0.000    0.000    0.000    0.000 
#    0.000    0.000    0.000    0.000    0.000    0.000 
#
# Total GULP energy -644911.701625 kJ/mol
# GULP energy per Si atom -12402.148108 kJ/mol
# Density = 2.015123 g / cm^3
# Si number density = 20.197200 Si / 1000 Ang^3
#
#
#
# Elastic Constant Matrix: (Units=GPa)
#
#
# Indices 1 2 3 4 5 6 
#
# 1 120.3709 21.4281 35.9648 0.0000 0.0000 0.0000
# 2 21.4281 106.4456 38.2044 0.0000 0.0000 0.0000
# 3 35.9648 38.2044 130.3771 0.0000 0.0000 0.0000
# 4 0.0000 0.0000 0.0000 3050.1220 0.0000 0.0000
# 5 0.0000 0.0000 0.0000 0.0000 22.2067 0.0000
# 6 0.0000 0.0000 0.0000 0.0000 0.0000 32.8860
#
#
#
# Elastic Compliance Matrix: (Units=1/GPa)
#
#
# Indices 1 2 3 4 5 6 
#
# 1 0.009157 -0.001047 -0.002219 0.000000 0.000000 0.000000
# 2 -0.001047 0.010618 -0.002823 0.000000 0.000000 0.000000
# 3 -0.002219 -0.002823 0.009109 0.000000 0.000000 0.000000
# 4 0.000000 0.000000 0.000000 0.000328 0.000000 0.000000
# 5 0.000000 0.000000 0.000000 0.000000 0.045031 0.000000
# 6 0.000000 0.000000 0.000000 0.000000 0.000000 0.030408
#
#
# Mechanical properties :
#
#
# Convention : Reuss Voigt Hill
#
# Bulk Modulus (GPa) = 59.85458 60.93202 60.39330
# Shear Modulus (GPa) = 40.85006 638.48269 339.66638
#
# Velocity S-wave (km/s) = 4.50217 17.79918 12.98230
# Velocity P-wave (km/s) = 7.53163 21.27553 15.95891
#
# Compressibility (1/GPa) = 0.01670716
#
# Stress axis : x y z
#
# Youngs Moduli (GPa) = 109.20509 94.17701 109.77707
#
# Poissons Ratio (x) = 0.09859 0.24362
# Poissons Ratio (y) = 0.11432 0.30987
# Poissons Ratio (z) = 0.24235 0.26583
#
# Static dielectric constant tensor:
#      x y z
#    x 3.819720 0.000000 0.000000 
#    y 0.000000 3.823680 0.000000 
#    z 0.000000 0.000000 3.653500 
# 
# 
# High freq. dielectric constant tensor:
#      x y z
#    x 1.803710 0.000000 0.000000 
#    y 0.000000 1.796430 0.000000 
#    z 0.000000 0.000000 1.782250 
# 
# From -- ./inp_files/18154.got.cif
#   From: 2010.03.12/outbox.cif.g09.slc.cpg/sg73_10_cif.got.tgz:18154.got - 2010.04.16 15:25:48.
