data_PCOD8296717
_publ_section_title
;
Structure prediction by ZEFSAII (Michael W. Deem and Ramdas Pophale) SiO2 
 PCOD8296717
Probable space group: I B C A 
;
_chemical_formula_sum "Si O2"
_cell_formula_units_Z 120
_cell_length_a 20.244000
_cell_length_b 13.738089
_cell_length_c 21.721754
_cell_angle_alpha 90.000000
_cell_angle_beta 90.000000
_cell_angle_gamma 90.000000
_cell_volume 6041.121149
_symmetry_space_group_name_H-M "I B C A "
_symmetry_group_IT_number 73
_symmetry_cell_setting 'orthorhombic'
loop_
_space_group_symop_operation_xyz
x,y,z
-x,1/2-y,z
x,-y,1/2-z
1/2-x,y,-z
-x,-y,-z
x,1/2+y,-z
-x,y,1/2+z
1/2+x,-y,z
1/2+x,1/2+y,1/2+z
1/2-x,-y,1/2+z
1/2+x,1/2-y,-z
-x,1/2+y,1/2-z
1/2-x,1/2-y,1/2-z
1/2+x,y,1/2-z
1/2-x,1/2+y,z
x,1/2-y,1/2+z
loop_
_atom_site_type_symbol
_atom_site_label
_atom_site_fract_x
_atom_site_fract_y
_atom_site_fract_z
Si Si1 0.677394 0.985240 0.475898
Si Si2 0.268303 0.228333 0.320280
Si Si3 0.190789 0.518984 0.316189
Si Si4 0.018470 0.139806 0.348286
Si Si5 0.149261 0.800901 0.089257
Si Si6 0.932813 0.000000 0.750000
Si Si7 0.108676 0.912256 0.581512
Si Si8 0.173189 0.428717 0.656523
O O1 0.750000 0.016520 0.500000
O O2 0.677000 0.868144 0.466095
O O3 0.620140 0.016937 0.523595
O O4 0.659848 0.037251 0.412466
O O5 0.250000 0.250000 0.250000
O O6 0.314079 0.133558 0.330014
O O7 0.200600 0.213745 0.356191
O O8 0.310705 0.315124 0.348042
O O9 0.158136 0.500000 0.250000
O O10 0.154461 0.451189 0.364242
O O11 0.267459 0.489883 0.313986
O O12 0.088530 0.139476 0.381909
O O13 0.021118 0.077749 0.285416
O O14 0.000000 0.250000 0.330282
O O15 0.966656 0.090058 0.395486
O O16 0.129662 0.696610 0.061670
O O17 0.890145 0.942696 0.800544
#
# Coordination Sequence:
#
# PCOD8296717 Si02
#       8
#    16  16  16  16  16   8  16  16
#     4  12  23  40  64  97 133 171 219 273 341 401
#     4  12  20  34  63  97 130 165 209 279 338 399
#     4  12  21  37  60  94 129 161 216 271 337 387
#     4  10  24  44  70  91 126 184 227 267 330 402
#     4  11  21  42  64  89 127 177 223 261 333 400
#     4  12  22  46  68  96 134 172 224 282 338 404
#     4  11  25  42  62  94 132 173 225 274 323 400
#     4  12  22  38  65  97 130 170 211 274 344 396
#
# _framework density 19.863862000000001
#
# number of rings (size 3 to 8) (size 9 to 14) (size 15 to 20)
#    0.000    0.533    7.333    0.800    0.933    4.267 
#    0.000    0.000    0.000    0.000    0.000    0.000 
#    0.000    0.000    0.000    0.000    0.000    0.000 
#
# Total GULP energy -744140.554595 kJ/mol
# GULP energy per Si atom -12402.342577 kJ/mol
# Density = 1.981865 g / cm^3
# Si number density = 19.863862 Si / 1000 Ang^3
#
#
#
# Elastic Constant Matrix: (Units=GPa)
#
#
# Indices 1 2 3 4 5 6 
#
# 1 88.8603 36.5620 49.5153 0.0000 0.0000 0.0000
# 2 36.5620 134.4309 48.5042 0.0000 0.0000 0.0000
# 3 49.5153 48.5042 128.2675 0.0000 0.0000 0.0000
# 4 0.0000 0.0000 0.0000 38.1653 0.0000 0.0000
# 5 0.0000 0.0000 0.0000 0.0000 30.4308 0.0000
# 6 0.0000 0.0000 0.0000 0.0000 0.0000 20.3206
#
#
#
# Elastic Compliance Matrix: (Units=1/GPa)
#
#
# Indices 1 2 3 4 5 6 
#
# 1 0.014924 -0.002293 -0.004894 0.000000 0.000000 0.000000
# 2 -0.002293 0.008966 -0.002505 0.000000 0.000000 0.000000
# 3 -0.004894 -0.002505 0.010633 0.000000 0.000000 0.000000
# 4 0.000000 0.000000 0.000000 0.026202 0.000000 0.000000
# 5 0.000000 0.000000 0.000000 0.000000 0.032861 0.000000
# 6 0.000000 0.000000 0.000000 0.000000 0.000000 0.049211
#
#
# Mechanical properties :
#
#
# Convention : Reuss Voigt Hill
#
# Bulk Modulus (GPa) = 66.05783 68.96908 67.51345
# Shear Modulus (GPa) = 29.89905 32.24849 31.07377
#
# Velocity S-wave (km/s) = 3.88390 4.03361 3.95946
# Velocity P-wave (km/s) = 7.31029 7.51596 7.41384
#
# Compressibility (1/GPa) = 0.01513825
#
# Stress axis : x y z
#
# Youngs Moduli (GPa) = 67.00494 111.52699 94.04791
#
# Poissons Ratio (x) = 0.25576 0.46028
# Poissons Ratio (y) = 0.15366 0.23563
# Poissons Ratio (z) = 0.32793 0.27942
#
# Static dielectric constant tensor:
#      x y z
#    x 3.550540 0.000000 0.000000 
#    y 0.000000 3.986210 0.000000 
#    z 0.000000 0.000000 14.733050 
# 
# 
# High freq. dielectric constant tensor:
#      x y z
#    x 1.757300 0.000000 0.000000 
#    y 0.000000 1.792100 0.000000 
#    z 0.000000 0.000000 1.774170 
# 
# From -- ./inp_files/27020.got.cif
#   From: 2010.03.12/outbox.cif.g09.slc.cpg/sg73_14_cif.got.tgz:27020.got - 2010.04.16 15:25:48.
