data_PCOD8296010
_publ_section_title
;
Structure prediction by ZEFSAII (Michael W. Deem and Ramdas Pophale) SiO2 
 PCOD8296010
Probable space group: I B C A 
;
_chemical_formula_sum "Si O2"
_cell_formula_units_Z 64
_cell_length_a 18.213122
_cell_length_b 13.064182
_cell_length_c 10.903576
_cell_angle_alpha 90.000000
_cell_angle_beta 90.000000
_cell_angle_gamma 90.000000
_cell_volume 2594.391864
_symmetry_space_group_name_H-M "I B C A "
_symmetry_group_IT_number 73
_symmetry_cell_setting 'orthorhombic'
loop_
_space_group_symop_operation_xyz
x,y,z
-x,1/2-y,z
x,-y,1/2-z
1/2-x,y,-z
-x,-y,-z
x,1/2+y,-z
-x,y,1/2+z
1/2+x,-y,z
1/2+x,1/2+y,1/2+z
1/2-x,-y,1/2+z
1/2+x,1/2-y,-z
-x,1/2+y,1/2-z
1/2-x,1/2-y,1/2-z
1/2+x,y,1/2-z
1/2-x,1/2+y,z
x,1/2-y,1/2+z
loop_
_atom_site_type_symbol
_atom_site_label
_atom_site_fract_x
_atom_site_fract_y
_atom_site_fract_z
Si Si1 0.824041 0.366514 0.058470
Si Si2 0.177137 0.147335 0.636846
Si Si3 0.584474 0.277499 0.160289
Si Si4 0.332242 0.579805 0.362965
O O1 0.796325 0.264875 0.124683
O O2 0.853781 0.457013 0.153497
O O3 0.750000 0.415626 0.000000
O O4 0.887871 0.331708 0.964253
O O5 0.107584 0.143800 0.730190
O O6 0.249313 0.091630 0.687964
O O7 0.155557 0.096469 0.508730
O O8 0.500000 0.250000 0.150275
O O9 0.618427 0.167601 0.197710
#
# Coordination Sequence:
#
# PCOD8296010 Si02
#       4
#    16  16  16  16
#     4  11  21  41  68  96 123 168 219 270 315 377
#     4  10  20  40  64  94 125 164 218 270 319 373
#     4  11  25  42  63  96 135 170 209 265 337 396
#     4  10  21  40  66  95 123 169 218 270 315 380
#
# _framework density 24.668593999999999
#
# number of rings (size 3 to 8) (size 9 to 14) (size 15 to 20)
#    0.000    1.500    7.500    0.750    0.000    7.000 
#    0.000    2.500    0.000    0.000    0.000    0.000 
#    0.000    0.000    0.000    0.000    0.000    0.000 
#
# Total GULP energy -396469.223853 kJ/mol
# GULP energy per Si atom -12389.663245 kJ/mol
# Density = 2.461245 g / cm^3
# Si number density = 24.668594 Si / 1000 Ang^3
#
#
#
# Elastic Constant Matrix: (Units=GPa)
#
#
# Indices 1 2 3 4 5 6 
#
# 1 158.3618 21.1111 41.8759 0.0000 0.0000 0.0000
# 2 21.1111 132.9740 26.0636 0.0000 0.0000 0.0000
# 3 41.8759 26.0636 70.9706 0.0000 0.0000 0.0000
# 4 0.0000 0.0000 0.0000 56.9399 0.0000 0.0000
# 5 0.0000 0.0000 0.0000 0.0000 33.2810 0.0000
# 6 0.0000 0.0000 0.0000 0.0000 0.0000 17.2656
#
#
#
# Elastic Compliance Matrix: (Units=1/GPa)
#
#
# Indices 1 2 3 4 5 6 
#
# 1 0.007497 -0.000348 -0.004296 0.000000 0.000000 0.000000
# 2 -0.000348 0.008120 -0.002776 0.000000 0.000000 0.000000
# 3 -0.004296 -0.002776 0.017645 0.000000 0.000000 0.000000
# 4 0.000000 0.000000 0.000000 0.017562 0.000000 0.000000
# 5 0.000000 0.000000 0.000000 0.000000 0.030047 0.000000
# 6 0.000000 0.000000 0.000000 0.000000 0.000000 0.057919
#
#
# Mechanical properties :
#
#
# Convention : Reuss Voigt Hill
#
# Bulk Modulus (GPa) = 54.28705 60.04530 57.16618
# Shear Modulus (GPa) = 31.29486 39.71435 35.50461
#
# Velocity S-wave (km/s) = 3.56562 4.01673 3.79788
# Velocity P-wave (km/s) = 6.24547 6.77538 6.51581
#
# Compressibility (1/GPa) = 0.01842060
#
# Stress axis : x y z
#
# Youngs Moduli (GPa) = 133.38686 123.15645 56.67452
#
# Poissons Ratio (x) = 0.04289 0.24346
# Poissons Ratio (y) = 0.04645 0.15735
# Poissons Ratio (z) = 0.57299 0.34194
#
# Static dielectric constant tensor:
#      x y z
#    x 3.915850 0.000000 0.000000 
#    y 0.000000 4.868580 0.000000 
#    z 0.000000 0.000000 5.040800 
# 
# 
# High freq. dielectric constant tensor:
#      x y z
#    x 1.917610 0.000000 0.000000 
#    y 0.000000 2.008910 0.000000 
#    z 0.000000 0.000000 2.021700 
# 
# From -- ./inp_files/11517.got.cif
#   From: 2010.03.12/outbox.cif.g09.slc.cpg/sg73_6_cif.got.tgz:11517.got - 2010.04.16 15:25:48.
