data_PCOD8296827
_publ_section_title
;
Structure prediction by ZEFSAII (Michael W. Deem and Ramdas Pophale) SiO2 
 PCOD8296827
Probable space group: I B C A 
;
_chemical_formula_sum "Si O2"
_cell_formula_units_Z 48
_cell_length_a 22.308245
_cell_length_b 9.994653
_cell_length_c 7.870821
_cell_angle_alpha 90.000000
_cell_angle_beta 90.000000
_cell_angle_gamma 90.000000
_cell_volume 1754.903183
_symmetry_space_group_name_H-M "I B C A "
_symmetry_group_IT_number 73
_symmetry_cell_setting 'orthorhombic'
loop_
_space_group_symop_operation_xyz
x,y,z
-x,1/2-y,z
x,-y,1/2-z
1/2-x,y,-z
-x,-y,-z
x,1/2+y,-z
-x,y,1/2+z
1/2+x,-y,z
1/2+x,1/2+y,1/2+z
1/2-x,-y,1/2+z
1/2+x,1/2-y,-z
-x,1/2+y,1/2-z
1/2-x,1/2-y,1/2-z
1/2+x,y,1/2-z
1/2-x,1/2+y,z
x,1/2-y,1/2+z
loop_
_atom_site_type_symbol
_atom_site_label
_atom_site_fract_x
_atom_site_fract_y
_atom_site_fract_z
Si Si1 0.620180 0.305002 0.328529
Si Si2 0.805612 0.378049 0.377255
Si Si3 0.041572 0.373833 0.461506
O O1 0.637037 0.395055 0.494333
O O2 0.681146 0.255784 0.232811
O O3 0.584571 0.168970 0.381702
O O4 0.580882 0.399152 0.207596
O O5 0.795988 0.500000 0.250000
O O6 0.750000 0.355140 0.500000
O O7 0.000000 0.250000 0.416656
O O8 0.000000 0.500000 0.500000
#
# Coordination Sequence:
#
# PCOD8296827 Si02
#       3
#    16  16  16
#     4  10  26  50  79 115 167 206 269 345 411 493
#     4  11  26  51  81 116 153 214 270 346 418 493
#     4  11  26  48  79 118 161 216 267 329 403 492
#
# _framework density 27.351935999999998
#
# number of rings (size 3 to 8) (size 9 to 14) (size 15 to 20)
#    0.000    1.333    0.000    2.000    9.333   10.667 
#    6.000    1.667    0.000    0.000    0.000    0.000 
#    0.000    0.000    0.000    0.000    0.000    0.000 
#
# Total GULP energy -297506.131176 kJ/mol
# GULP energy per Si atom -12396.088799 kJ/mol
# Density = 2.728968 g / cm^3
# Si number density = 27.351936 Si / 1000 Ang^3
#
#
#
# Elastic Constant Matrix: (Units=GPa)
#
#
# Indices 1 2 3 4 5 6 
#
# 1 125.5692 57.8800 74.2279 0.0000 0.0000 0.0000
# 2 57.8800 138.4553 60.0564 0.0000 0.0000 0.0000
# 3 74.2279 60.0564 193.9102 0.0000 0.0000 0.0000
# 4 0.0000 0.0000 0.0000 38.2642 0.0000 0.0000
# 5 0.0000 0.0000 0.0000 0.0000 43.2569 0.0000
# 6 0.0000 0.0000 0.0000 0.0000 0.0000 27.1530
#
#
#
# Elastic Compliance Matrix: (Units=1/GPa)
#
#
# Indices 1 2 3 4 5 6 
#
# 1 0.011494 -0.003346 -0.003364 0.000000 0.000000 0.000000
# 2 -0.003346 0.009317 -0.001605 0.000000 0.000000 0.000000
# 3 -0.003364 -0.001605 0.006942 0.000000 0.000000 0.000000
# 4 0.000000 0.000000 0.000000 0.026134 0.000000 0.000000
# 5 0.000000 0.000000 0.000000 0.000000 0.023118 0.000000
# 6 0.000000 0.000000 0.000000 0.000000 0.000000 0.036828
#
#
# Mechanical properties :
#
#
# Convention : Reuss Voigt Hill
#
# Bulk Modulus (GPa) = 89.89341 93.58481 91.73911
# Shear Modulus (GPa) = 37.26583 39.45287 38.35935
#
# Velocity S-wave (km/s) = 3.69515 3.80204 3.74897
# Velocity P-wave (km/s) = 7.15139 7.31870 7.23552
#
# Compressibility (1/GPa) = 0.01112429
#
# Stress axis : x y z
#
# Youngs Moduli (GPa) = 86.99825 107.32506 144.05742
#
# Poissons Ratio (x) = 0.35912 0.48457
# Poissons Ratio (y) = 0.29111 0.23119
# Poissons Ratio (z) = 0.29264 0.17224
#
# Static dielectric constant tensor:
#      x y z
#    x 5.352320 0.000000 0.000000 
#    y 0.000000 4.247200 0.000000 
#    z 0.000000 0.000000 5.623140 
# 
# 
# High freq. dielectric constant tensor:
#      x y z
#    x 2.115630 0.000000 0.000000 
#    y 0.000000 2.088460 0.000000 
#    z 0.000000 0.000000 2.129510 
# 
# From -- ./inp_files/6747.got.cif
#   From: 2010.03.12/outbox.cif.g09.slc.cpg/sg73_4_cif.got.tgz:6747.got - 2010.04.16 15:25:48.
