data_PCOD8296237
_publ_section_title
;
Structure prediction by ZEFSAII (Michael W. Deem and Ramdas Pophale) SiO2 
 PCOD8296237
Probable space group: I B C A 
;
_chemical_formula_sum "Si O2"
_cell_formula_units_Z 88
_cell_length_a 16.635342
_cell_length_b 30.853699
_cell_length_c 8.227074
_cell_angle_alpha 90.000000
_cell_angle_beta 90.000000
_cell_angle_gamma 90.000000
_cell_volume 4222.643097
_symmetry_space_group_name_H-M "I B C A "
_symmetry_group_IT_number 73
_symmetry_cell_setting 'orthorhombic'
loop_
_space_group_symop_operation_xyz
x,y,z
-x,1/2-y,z
x,-y,1/2-z
1/2-x,y,-z
-x,-y,-z
x,1/2+y,-z
-x,y,1/2+z
1/2+x,-y,z
1/2+x,1/2+y,1/2+z
1/2-x,-y,1/2+z
1/2+x,1/2-y,-z
-x,1/2+y,1/2-z
1/2-x,1/2-y,1/2-z
1/2+x,y,1/2-z
1/2-x,1/2+y,z
x,1/2-y,1/2+z
loop_
_atom_site_type_symbol
_atom_site_label
_atom_site_fract_x
_atom_site_fract_y
_atom_site_fract_z
Si Si1 0.974348 0.580458 0.847356
Si Si2 0.044225 0.143095 0.919585
Si Si3 0.337243 0.521192 0.567614
Si Si4 0.341647 0.289806 0.452473
Si Si5 0.930370 0.719102 0.136299
Si Si6 0.927353 0.000000 0.750000
O O1 0.952336 0.625619 0.761699
O O2 0.890322 0.564222 0.921458
O O3 0.015684 0.542465 0.739462
O O4 0.035873 0.598010 0.982104
O O5 0.969812 0.176267 0.941958
O O6 0.127127 0.167480 0.955862
O O7 0.333833 0.500000 0.750000
O O8 0.250000 0.533693 0.500000
O O9 0.377353 0.493536 0.418645
O O10 0.250000 0.284849 0.500000
O O11 0.361504 0.295600 0.262838
O O12 0.386613 0.245473 0.495766
O O13 0.000000 0.750000 0.215384
#
# Coordination Sequence:
#
# PCOD8296237 Si02
#       6
#    16  16  16  16  16   8
#     4  12  23  45  69  98 129 178 233 276 331 409
#     4  11  23  41  68  93 133 171 223 276 324 404
#     4  12  25  45  69 102 136 175 227 290 353 404
#     4  11  23  41  63  97 131 167 213 273 337 396
#     4  10  21  40  67  91 124 174 218 260 328 410
#     4  12  24  46  78  98 132 188 238 284 338 416
#
# _framework density 20.840028
#
# number of rings (size 3 to 8) (size 9 to 14) (size 15 to 20)
#    0.000    0.727    5.455    3.818    2.545    0.000 
#    6.545    0.000    0.000    0.000    0.000    0.000 
#    0.000    0.000    0.000    0.000    0.000    0.000 
#
# Total GULP energy -545122.247688 kJ/mol
# GULP energy per Si atom -12389.141993 kJ/mol
# Density = 2.079260 g / cm^3
# Si number density = 20.840028 Si / 1000 Ang^3
#
#
#
# Elastic Constant Matrix: (Units=GPa)
#
#
# Indices 1 2 3 4 5 6 
#
# 1 101.4484 42.9335 38.0053 0.0042 -0.0037 -0.0012
# 2 42.9335 112.7746 27.0056 -0.0043 0.0030 -0.0012
# 3 38.0053 27.0056 88.1619 -0.0482 0.0100 -0.0199
# 4 0.0042 -0.0043 -0.0482 43.8638 0.0117 -0.0188
# 5 -0.0037 0.0030 0.0100 0.0117 32.8099 0.0038
# 6 -0.0012 -0.0012 -0.0199 -0.0188 0.0038 17.6145
#
#
#
# Elastic Compliance Matrix: (Units=1/GPa)
#
#
# Indices 1 2 3 4 5 6 
#
# 1 0.013211 -0.003956 -0.004483 -0.000007 0.000003 -0.000004
# 2 -0.003956 0.010754 -0.001589 0.000000 -0.000001 -0.000001
# 3 -0.004483 -0.001589 0.013762 0.000015 -0.000005 0.000015
# 4 -0.000007 0.000000 0.000015 0.022798 -0.000008 0.000024
# 5 0.000003 -0.000001 -0.000005 -0.000008 0.030479 -0.000007
# 6 -0.000004 -0.000001 0.000015 0.000024 -0.000007 0.056772
#
#
# Mechanical properties :
#
#
# Convention : Reuss Voigt Hill
#
# Bulk Modulus (GPa) = 56.58995 57.58597 57.08796
# Shear Modulus (GPa) = 28.78181 31.82034 30.30108
#
# Velocity S-wave (km/s) = 3.72032 3.91178 3.81725
# Velocity P-wave (km/s) = 6.75780 6.93506 6.84700
#
# Compressibility (1/GPa) = 0.01767098
#
# Stress axis : x y z
#
# Youngs Moduli (GPa) = 75.69496 92.99130 72.66325
#
# Poissons Ratio (x) = 0.36786 0.32577
# Poissons Ratio (y) = 0.29944 0.11544
# Poissons Ratio (z) = 0.33936 0.14774
#
# Static dielectric constant tensor:
#      x y z
#    x 3.679740 0.000010 0.000010 
#    y 0.000010 3.696140 -0.000010 
#    z 0.000010 -0.000010 3.894950 
# 
# 
# High freq. dielectric constant tensor:
#      x y z
#    x 1.798900 0.000000 0.000000 
#    y 0.000000 1.814790 0.000000 
#    z 0.000000 0.000000 1.830430 
# 
# From -- ./inp_files/5718.got.cif
#   From: 2010.03.12/outbox.cif.g09.slc.cpg/sg73_3_cif.got.tgz:5718.got - 2010.04.16 15:25:48.
