data_PCOD8296903
_publ_section_title
;
Structure prediction by ZEFSAII (Michael W. Deem and Ramdas Pophale) SiO2 
 PCOD8296903
Probable space group: I B C A 
;
_chemical_formula_sum "Si O2"
_cell_formula_units_Z 120
_cell_length_a 24.423627
_cell_length_b 9.194644
_cell_length_c 23.946437
_cell_angle_alpha 90.000000
_cell_angle_beta 90.000000
_cell_angle_gamma 90.000000
_cell_volume 5377.568872
_symmetry_space_group_name_H-M "I B C A "
_symmetry_group_IT_number 73
_symmetry_cell_setting 'orthorhombic'
loop_
_space_group_symop_operation_xyz
x,y,z
-x,1/2-y,z
x,-y,1/2-z
1/2-x,y,-z
-x,-y,-z
x,1/2+y,-z
-x,y,1/2+z
1/2+x,-y,z
1/2+x,1/2+y,1/2+z
1/2-x,-y,1/2+z
1/2+x,1/2-y,-z
-x,1/2+y,1/2-z
1/2-x,1/2-y,1/2-z
1/2+x,y,1/2-z
1/2-x,1/2+y,z
x,1/2-y,1/2+z
loop_
_atom_site_type_symbol
_atom_site_label
_atom_site_fract_x
_atom_site_fract_y
_atom_site_fract_z
Si Si1 0.993799 0.532081 0.689066
Si Si2 0.127188 0.630737 0.558602
Si Si3 0.308144 0.670886 0.741426
Si Si4 0.000000 0.750000 0.386364
Si Si5 0.694475 0.227757 0.885180
Si Si6 0.758079 0.981798 0.938144
Si Si7 0.907156 0.262075 0.322892
Si Si8 0.902608 0.324194 0.041648
O O1 0.969750 0.500000 0.750000
O O2 0.005112 0.390457 0.652486
O O3 0.050558 0.617392 0.700023
O O4 0.944152 0.622138 0.661122
O O5 0.190352 0.588427 0.555359
O O6 0.118953 0.677863 0.621547
O O7 0.087033 0.498290 0.539437
O O8 0.111722 0.766275 0.519558
O O9 0.299841 0.500000 0.750000
O O10 0.250000 0.750000 0.750000
O O11 0.324635 0.700213 0.677615
O O12 0.357492 0.733112 0.779450
O O13 0.950319 0.765384 0.429119
O O14 0.707617 0.077616 0.916240
O O15 0.741705 0.350885 0.892330
O O16 0.647782 0.310801 0.917441
O O17 0.750000 0.914490 0.000000
#
# Coordination Sequence:
#
# PCOD8296903 Si02
#       8
#    16  16  16   8  16  16  16  16
#     4  11  26  46  76 107 139 194 245 304 366 433
#     4  11  25  46  69 107 143 193 233 304 370 436
#     4  12  28  48  73 111 151 202 242 301 373 437
#     4  12  26  48  70 110 138 186 246 310 368 436
#     4  11  25  43  69 104 140 187 237 301 353 433
#     4  11  22  43  70 103 144 188 243 293 356 436
#     4  11  26  49  74 105 150 189 248 304 363 444
#     4  11  27  43  70 103 142 185 241 297 373 429
#
# _framework density 22.314916
#
# number of rings (size 3 to 8) (size 9 to 14) (size 15 to 20)
#    0.000    0.800    2.667    3.200    9.333    3.200 
#    0.000    0.000    0.000    0.000    0.000    0.000 
#    0.000    0.000    0.000    0.000    0.000    0.000 
#
# Total GULP energy -743789.752960 kJ/mol
# GULP energy per Si atom -12396.495883 kJ/mol
# Density = 2.226413 g / cm^3
# Si number density = 22.314916 Si / 1000 Ang^3
#
#
#
# Elastic Constant Matrix: (Units=GPa)
#
#
# Indices 1 2 3 4 5 6 
#
# 1 87.0184 34.9811 22.3207 0.0000 0.0000 0.0000
# 2 34.9811 127.8287 52.2682 0.0000 0.0000 0.0000
# 3 22.3207 52.2682 144.5176 0.0000 0.0000 0.0000
# 4 0.0000 0.0000 0.0000 47.4898 0.0000 0.0000
# 5 0.0000 0.0000 0.0000 0.0000 35.1686 0.0000
# 6 0.0000 0.0000 0.0000 0.0000 0.0000 2.5634
#
#
#
# Elastic Compliance Matrix: (Units=1/GPa)
#
#
# Indices 1 2 3 4 5 6 
#
# 1 0.013000 -0.003211 -0.000846 0.000000 0.000000 0.000000
# 2 -0.003211 0.009974 -0.003111 0.000000 0.000000 0.000000
# 3 -0.000846 -0.003111 0.008176 0.000000 0.000000 0.000000
# 4 0.000000 0.000000 0.000000 0.021057 0.000000 0.000000
# 5 0.000000 0.000000 0.000000 0.000000 0.028434 0.000000
# 6 0.000000 0.000000 0.000000 0.000000 0.000000 0.390111
#
#
# Mechanical properties :
#
#
# Convention : Reuss Voigt Hill
#
# Bulk Modulus (GPa) = 59.48392 64.27830 61.88111
# Shear Modulus (GPa) = 10.18965 33.69732 21.94348
#
# Velocity S-wave (km/s) = 2.13921 3.89019 3.13925
# Velocity P-wave (km/s) = 5.72853 7.00327 6.39773
#
# Compressibility (1/GPa) = 0.01681127
#
# Stress axis : x y z
#
# Youngs Moduli (GPa) = 76.92363 100.26067 122.31551
#
# Poissons Ratio (x) = 0.32198 0.10352
# Poissons Ratio (y) = 0.24704 0.38056
# Poissons Ratio (z) = 0.06510 0.31194
#
# Static dielectric constant tensor:
#      x y z
#    x 4.043300 0.000000 0.000000 
#    y 0.000000 4.229800 0.000000 
#    z 0.000000 0.000000 4.112900 
# 
# 
# High freq. dielectric constant tensor:
#      x y z
#    x 1.880030 0.000000 0.000000 
#    y 0.000000 1.895560 0.000000 
#    z 0.000000 0.000000 1.885660 
# 
# From -- ./inp_files/30519.got.cif
#   From: 2010.03.12/outbox.cif.g09.slc.cpg/sg73_16_cif.got.tgz:30519.got - 2010.04.16 15:25:48.
