data_PCOD8296436
_publ_section_title
;
Structure prediction by ZEFSAII (Michael W. Deem and Ramdas Pophale) SiO2 
 PCOD8296436
Probable space group: I B C A 
;
_chemical_formula_sum "Si O2"
_cell_formula_units_Z 96
_cell_length_a 13.642656
_cell_length_b 24.534617
_cell_length_c 13.776501
_cell_angle_alpha 90.000000
_cell_angle_beta 90.000000
_cell_angle_gamma 90.000000
_cell_volume 4611.233767
_symmetry_space_group_name_H-M "I B C A "
_symmetry_group_IT_number 73
_symmetry_cell_setting 'orthorhombic'
loop_
_space_group_symop_operation_xyz
x,y,z
-x,1/2-y,z
x,-y,1/2-z
1/2-x,y,-z
-x,-y,-z
x,1/2+y,-z
-x,y,1/2+z
1/2+x,-y,z
1/2+x,1/2+y,1/2+z
1/2-x,-y,1/2+z
1/2+x,1/2-y,-z
-x,1/2+y,1/2-z
1/2-x,1/2-y,1/2-z
1/2+x,y,1/2-z
1/2-x,1/2+y,z
x,1/2-y,1/2+z
loop_
_atom_site_type_symbol
_atom_site_label
_atom_site_fract_x
_atom_site_fract_y
_atom_site_fract_z
Si Si1 0.750000 0.347624 0.500000
Si Si2 0.500000 0.750000 0.364559
Si Si3 0.928724 0.575330 0.996611
Si Si4 0.293409 0.620154 0.141611
Si Si5 0.926197 0.019333 0.642471
Si Si6 0.400646 0.650983 0.959386
Si Si7 0.310550 0.202435 0.697790
O O1 0.838952 0.386282 0.533664
O O2 0.723801 0.306966 0.587659
O O3 0.569959 0.711754 0.429321
O O4 0.573869 0.783971 0.297467
O O5 0.893489 0.529669 0.072372
O O6 0.006872 0.612057 0.053103
O O7 0.977131 0.549106 0.900317
O O8 0.331178 0.558297 0.145487
O O9 0.181472 0.622868 0.107378
O O10 0.298613 0.645311 0.248109
O O11 0.362224 0.655242 0.069518
O O12 0.953686 0.000000 0.750000
O O13 0.250000 0.250000 0.750000
#
# Coordination Sequence:
#
# PCOD8296436 Si02
#       7
#     8   8  16  16  16  16  16
#     4  12  26  44  66  96 142 172 230 284 334 412
#     4  12  24  42  68  96 134 176 218 280 340 404
#     4  10  23  42  66  98 134 179 224 279 341 396
#     4  10  23  43  69  99 133 176 226 277 338 409
#     4  10  22  41  69  98 133 175 226 279 337 406
#     4  10  22  43  69  95 135 175 223 279 338 404
#     4  12  27  42  68 102 134 176 227 279 341 406
#
# _framework density 20.818724
#
# number of rings (size 3 to 8) (size 9 to 14) (size 15 to 20)
#    0.000    1.333    3.333    1.000    2.333    8.667 
#    0.000    1.667    0.000    0.000    0.000    0.000 
#    0.000    0.000    0.000    0.000    0.000    0.000 
#
# Total GULP energy -595345.997851 kJ/mol
# GULP energy per Si atom -12403.041622 kJ/mol
# Density = 2.077134 g / cm^3
# Si number density = 20.818724 Si / 1000 Ang^3
#
#
#
# Elastic Constant Matrix: (Units=GPa)
#
#
# Indices 1 2 3 4 5 6 
#
# 1 134.4038 50.6735 39.4034 0.0000 0.0000 0.0000
# 2 50.6735 102.8383 41.9020 0.0003 0.0000 0.0000
# 3 39.4034 41.9020 117.6712 0.0006 0.0000 0.0000
# 4 0.0000 0.0003 0.0006 22.8232 0.0000 0.0000
# 5 0.0000 0.0000 0.0000 0.0000 20.4984 0.0000
# 6 0.0000 0.0000 0.0000 0.0000 0.0000 47.6729
#
#
#
# Elastic Compliance Matrix: (Units=1/GPa)
#
#
# Indices 1 2 3 4 5 6 
#
# 1 0.009440 -0.003934 -0.001760 0.000000 0.000000 0.000000
# 2 -0.003934 0.013014 -0.003317 0.000000 0.000000 0.000000
# 3 -0.001760 -0.003317 0.010269 0.000000 0.000000 0.000000
# 4 0.000000 0.000000 0.000000 0.043815 0.000000 0.000000
# 5 0.000000 0.000000 0.000000 0.000000 0.048784 0.000000
# 6 0.000000 0.000000 0.000000 0.000000 0.000000 0.020976
#
#
# Mechanical properties :
#
#
# Convention : Reuss Voigt Hill
#
# Bulk Modulus (GPa) = 68.02593 68.76344 68.39469
# Shear Modulus (GPa) = 29.54736 33.06120 31.30428
#
# Velocity S-wave (km/s) = 3.77141 3.98936 3.88191
# Velocity P-wave (km/s) = 7.19103 7.37030 7.28122
#
# Compressibility (1/GPa) = 0.01470028
#
# Stress axis : x y z
#
# Youngs Moduli (GPa) = 105.93741 76.84018 97.38332
#
# Poissons Ratio (x) = 0.30231 0.17139
# Poissons Ratio (y) = 0.41678 0.32300
# Poissons Ratio (z) = 0.18645 0.25486
#
# Static dielectric constant tensor:
#      x y z
#    x 3.880200 0.000000 0.000000 
#    y 0.000000 3.853490 0.000000 
#    z 0.000000 0.000000 3.717600 
# 
# 
# High freq. dielectric constant tensor:
#      x y z
#    x 1.821300 0.000000 0.000000 
#    y 0.000000 1.825450 0.000000 
#    z 0.000000 0.000000 1.810130 
# 
# From -- ./inp_files/17214.got.cif
#   From: 2010.03.12/outbox.cif.g09.slc.cpg/sg73_9_cif.got.tgz:17214.got - 2010.04.16 15:25:48.
