data_PCOD8296611
_publ_section_title
;
Structure prediction by ZEFSAII (Michael W. Deem and Ramdas Pophale) SiO2 
 PCOD8296611
Probable space group: I B C A 
;
_chemical_formula_sum "Si O2"
_cell_formula_units_Z 112
_cell_length_a 11.203802
_cell_length_b 31.346127
_cell_length_c 14.278605
_cell_angle_alpha 90.000000
_cell_angle_beta 90.000000
_cell_angle_gamma 90.000000
_cell_volume 5014.586111
_symmetry_space_group_name_H-M "I B C A "
_symmetry_group_IT_number 73
_symmetry_cell_setting 'orthorhombic'
loop_
_space_group_symop_operation_xyz
x,y,z
-x,1/2-y,z
x,-y,1/2-z
1/2-x,y,-z
-x,-y,-z
x,1/2+y,-z
-x,y,1/2+z
1/2+x,-y,z
1/2+x,1/2+y,1/2+z
1/2-x,-y,1/2+z
1/2+x,1/2-y,-z
-x,1/2+y,1/2-z
1/2-x,1/2-y,1/2-z
1/2+x,y,1/2-z
1/2-x,1/2+y,z
x,1/2-y,1/2+z
loop_
_atom_site_type_symbol
_atom_site_label
_atom_site_fract_x
_atom_site_fract_y
_atom_site_fract_z
Si Si1 0.833612 0.000000 0.250000
Si Si2 0.750000 0.594493 0.500000
Si Si3 0.676846 0.361099 0.406116
Si Si4 0.576425 0.375523 0.852850
Si Si5 0.963551 0.963889 0.073881
Si Si6 0.244315 0.769144 0.892520
Si Si7 0.596418 0.785349 0.234566
Si Si8 0.162928 0.425324 0.810567
O O1 0.920997 0.014766 0.331092
O O2 0.748800 0.035668 0.208273
O O3 0.694037 0.624603 0.580955
O O4 0.642458 0.565122 0.465060
O O5 0.750000 0.368292 0.500000
O O6 0.544598 0.381694 0.413400
O O7 0.659487 0.310783 0.384519
O O8 0.753766 0.383843 0.325651
O O9 0.559359 0.332784 0.792341
O O10 0.583975 0.415241 0.781359
O O11 0.079307 0.935341 0.099874
O O12 0.000000 0.000000 0.000000
O O13 0.370309 0.783765 0.845515
O O14 0.205755 0.728077 0.832814
O O15 0.250000 0.754468 0.000000
O O16 0.500000 0.750000 0.210966
#
# Coordination Sequence:
#
# PCOD8296611 Si02
#       8
#     8   8  16  16  16  16  16  16
#     4  12  26  48  72 108 144 188 242 294 376 444
#     4  12  28  50  68 112 144 192 254 304 382 448
#     4  11  24  45  70 103 142 188 242 298 368 437
#     4  12  26  47  73 107 151 192 250 306 366 445
#     4  12  28  48  76 106 145 189 247 308 375 451
#     4  10  23  44  67 104 144 185 245 296 363 440
#     4  11  23  45  70 106 146 196 239 305 369 432
#     4  12  26  46  73 103 139 193 234 306 369 433
#
# _framework density 22.334844
#
# number of rings (size 3 to 8) (size 9 to 14) (size 15 to 20)
#    0.000    0.571    4.286    3.000    7.000    0.571 
#    0.000    0.000    0.000    0.000    0.000    0.000 
#    0.000    0.000    0.000    0.000    0.000    0.000 
#
# Total GULP energy -694341.719022 kJ/mol
# GULP energy per Si atom -12398.959268 kJ/mol
# Density = 2.228401 g / cm^3
# Si number density = 22.334844 Si / 1000 Ang^3
#
#
#
# Elastic Constant Matrix: (Units=GPa)
#
#
# Indices 1 2 3 4 5 6 
#
# 1 105.3795 17.0651 30.1309 0.0002 0.0001 -0.0001
# 2 17.0651 47.7623 13.2630 -0.0001 0.0002 -0.0004
# 3 30.1309 13.2630 109.5829 0.0012 0.0004 -0.0016
# 4 0.0002 -0.0001 0.0012 34.5584 0.0001 -0.0003
# 5 0.0001 0.0002 0.0004 0.0001 42.7497 0.0004
# 6 -0.0001 -0.0004 -0.0016 -0.0003 0.0004 26.0349
#
#
#
# Elastic Compliance Matrix: (Units=1/GPa)
#
#
# Indices 1 2 3 4 5 6 
#
# 1 0.010730 -0.003119 -0.002573 0.000000 0.000000 0.000000
# 2 -0.003119 0.022572 -0.001874 0.000000 0.000000 0.000000
# 3 -0.002573 -0.001874 0.010060 0.000000 0.000000 0.000001
# 4 0.000000 0.000000 0.000000 0.028937 0.000000 0.000000
# 5 0.000000 0.000000 0.000000 0.000000 0.023392 0.000000
# 6 0.000000 0.000000 0.000001 0.000000 0.000000 0.038410
#
#
# Mechanical properties :
#
#
# Convention : Reuss Voigt Hill
#
# Bulk Modulus (GPa) = 35.42442 42.62698 39.02570
# Shear Modulus (GPa) = 31.51724 34.15297 32.83511
#
# Velocity S-wave (km/s) = 3.76057 3.91466 3.83839
# Velocity P-wave (km/s) = 5.89499 6.28964 6.09551
#
# Compressibility (1/GPa) = 0.02822912
#
# Stress axis : x y z
#
# Youngs Moduli (GPa) = 93.19380 44.30271 99.40565
#
# Poissons Ratio (x) = 0.13820 0.25576
# Poissons Ratio (y) = 0.29071 0.18631
# Poissons Ratio (z) = 0.23978 0.08303
#
# Static dielectric constant tensor:
#      x y z
#    x 4.100730 0.000000 0.000000 
#    y 0.000000 4.107760 0.000000 
#    z 0.000000 0.000000 4.125180 
# 
# 
# High freq. dielectric constant tensor:
#      x y z
#    x 1.883210 0.000000 0.000000 
#    y 0.000000 1.885740 0.000000 
#    z 0.000000 0.000000 1.886030 
# 
# From -- ./inp_files/16382.got.cif
#   From: 2010.03.12/outbox.cif.g09.slc.cpg/sg73_9_cif.got.tgz:16382.got - 2010.04.16 15:25:48.
