data_PCOD8296171
_publ_section_title
;
Structure prediction by ZEFSAII (Michael W. Deem and Ramdas Pophale) SiO2 
 PCOD8296171
Probable space group: I B C A 
;
_chemical_formula_sum "Si O2"
_cell_formula_units_Z 96
_cell_length_a 18.185606
_cell_length_b 17.151906
_cell_length_c 14.541293
_cell_angle_alpha 90.000000
_cell_angle_beta 90.000000
_cell_angle_gamma 90.000000
_cell_volume 4535.688190
_symmetry_space_group_name_H-M "I B C A "
_symmetry_group_IT_number 73
_symmetry_cell_setting 'orthorhombic'
loop_
_space_group_symop_operation_xyz
x,y,z
-x,1/2-y,z
x,-y,1/2-z
1/2-x,y,-z
-x,-y,-z
x,1/2+y,-z
-x,y,1/2+z
1/2+x,-y,z
1/2+x,1/2+y,1/2+z
1/2-x,-y,1/2+z
1/2+x,1/2-y,-z
-x,1/2+y,1/2-z
1/2-x,1/2-y,1/2-z
1/2+x,y,1/2-z
1/2-x,1/2+y,z
x,1/2-y,1/2+z
loop_
_atom_site_type_symbol
_atom_site_label
_atom_site_fract_x
_atom_site_fract_y
_atom_site_fract_z
Si Si1 0.511594 0.590315 0.244846
Si Si2 0.679013 0.828886 0.940610
Si Si3 0.820198 0.910031 0.250098
Si Si4 0.213171 0.344117 0.902399
Si Si5 0.548380 0.606762 0.560787
Si Si6 0.935341 0.076596 0.922826
O O1 0.490721 0.500000 0.250000
O O2 0.596218 0.603124 0.217720
O O3 0.461691 0.633735 0.167115
O O4 0.489645 0.616512 0.346742
O O5 0.683801 0.887071 0.855980
O O6 0.679531 0.742325 0.898566
O O7 0.750000 0.845547 0.000000
O O8 0.609054 0.842965 0.007008
O O9 0.768591 0.859281 0.317509
O O10 0.796389 0.000000 0.250000
O O11 0.146925 0.403872 0.895036
O O12 0.250000 0.359631 0.000000
O O13 0.467609 0.616609 0.514578
O O14 0.567206 0.515621 0.561115
#
# Coordination Sequence:
#
# PCOD8296171 Si02
#       6
#    16  16  16  16  16  16
#     4   9  19  38  62 100 129 160 218 280 331 376
#     4  11  26  44  63  95 139 177 217 270 335 400
#     4  11  24  42  70  99 131 175 222 277 333 397
#     4  11  26  43  65  95 138 173 218 274 332 399
#     4  10  21  39  67  93 132 167 221 275 319 391
#     4  10  21  38  67  96 124 170 220 275 320 388
#
# _framework density 21.165475000000001
#
# number of rings (size 3 to 8) (size 9 to 14) (size 15 to 20)
#    0.000    1.667    1.667    1.500    9.333    1.333 
#    0.000    0.000    0.000    0.000    0.000    0.000 
#    0.000    0.000    0.000    0.000    0.000    0.000 
#
# Total GULP energy -594831.951618 kJ/mol
# GULP energy per Si atom -12392.332325 kJ/mol
# Density = 2.111730 g / cm^3
# Si number density = 21.165475 Si / 1000 Ang^3
#
#
#
# Elastic Constant Matrix: (Units=GPa)
#
#
# Indices 1 2 3 4 5 6 
#
# 1 89.2884 38.2423 18.5861 0.0000 0.0000 0.0000
# 2 38.2423 75.6272 45.1481 0.0000 0.0000 0.0000
# 3 18.5861 45.1481 97.8281 0.0000 0.0000 0.0000
# 4 0.0000 0.0000 0.0000 11.0080 0.0000 0.0000
# 5 0.0000 0.0000 0.0000 0.0000 41.3952 0.0000
# 6 0.0000 0.0000 0.0000 0.0000 0.0000 6.5188
#
#
#
# Elastic Compliance Matrix: (Units=1/GPa)
#
#
# Indices 1 2 3 4 5 6 
#
# 1 0.014348 -0.007768 0.000859 0.000000 0.000000 0.000000
# 2 -0.007768 0.022457 -0.008888 0.000000 0.000000 0.000000
# 3 0.000859 -0.008888 0.014161 0.000000 0.000000 0.000000
# 4 0.000000 0.000000 0.000000 0.090843 0.000000 0.000000
# 5 0.000000 0.000000 0.000000 0.000000 0.024157 0.000000
# 6 0.000000 0.000000 0.000000 0.000000 0.000000 0.153403
#
#
# Mechanical properties :
#
#
# Convention : Reuss Voigt Hill
#
# Bulk Modulus (GPa) = 51.62298 51.85518 51.73908
# Shear Modulus (GPa) = 13.98912 22.50220 18.24566
#
# Velocity S-wave (km/s) = 2.57367 3.26414 2.93925
# Velocity P-wave (km/s) = 5.76843 6.22569 6.00142
#
# Compressibility (1/GPa) = 0.01937122
#
# Stress axis : x y z
#
# Youngs Moduli (GPa) = 69.69639 44.52975 70.61803
#
# Poissons Ratio (x) = 0.34591 -0.06067
# Poissons Ratio (y) = 0.54141 0.62766
# Poissons Ratio (z) = -0.05988 0.39578
#
# Static dielectric constant tensor:
#      x y z
#    x 3.821450 0.000000 0.000000 
#    y 0.000000 3.608290 0.000000 
#    z 0.000000 0.000000 4.493530 
# 
# 
# High freq. dielectric constant tensor:
#      x y z
#    x 1.834610 0.000000 0.000000 
#    y 0.000000 1.803370 0.000000 
#    z 0.000000 0.000000 1.852110 
# 
# From -- ./inp_files/17046.got.cif
#   From: 2010.03.12/outbox.cif.g09.slc.cpg/sg73_9_cif.got.tgz:17046.got - 2010.04.16 15:25:48.
