data_PCOD8296818
_publ_section_title
;
Structure prediction by ZEFSAII (Michael W. Deem and Ramdas Pophale) SiO2 
 PCOD8296818
Probable space group: I B C A 
;
_chemical_formula_sum "Si O2"
_cell_formula_units_Z 112
_cell_length_a 14.819166
_cell_length_b 15.313131
_cell_length_c 21.730893
_cell_angle_alpha 90.000000
_cell_angle_beta 90.000000
_cell_angle_gamma 90.000000
_cell_volume 4931.344398
_symmetry_space_group_name_H-M "I B C A "
_symmetry_group_IT_number 73
_symmetry_cell_setting 'orthorhombic'
loop_
_space_group_symop_operation_xyz
x,y,z
-x,1/2-y,z
x,-y,1/2-z
1/2-x,y,-z
-x,-y,-z
x,1/2+y,-z
-x,y,1/2+z
1/2+x,-y,z
1/2+x,1/2+y,1/2+z
1/2-x,-y,1/2+z
1/2+x,1/2-y,-z
-x,1/2+y,1/2-z
1/2-x,1/2-y,1/2-z
1/2+x,y,1/2-z
1/2-x,1/2+y,z
x,1/2-y,1/2+z
loop_
_atom_site_type_symbol
_atom_site_label
_atom_site_fract_x
_atom_site_fract_y
_atom_site_fract_z
Si Si1 0.595555 0.253797 0.200414
Si Si2 0.466177 0.884126 0.959176
Si Si3 0.873354 0.856786 0.318055
Si Si4 0.198588 0.404025 0.749332
Si Si5 0.682331 0.319722 0.878906
Si Si6 0.989250 0.934321 0.908920
Si Si7 0.356823 0.216859 0.072130
O O1 0.500000 0.250000 0.165028
O O2 0.580219 0.318015 0.257335
O O3 0.624556 0.159385 0.222895
O O4 0.659371 0.287905 0.146717
O O5 0.568697 0.849236 0.952690
O O6 0.386196 0.814871 0.946464
O O7 0.454496 0.965431 0.912277
O O8 0.454080 0.914056 0.029417
O O9 0.785592 0.907845 0.293941
O O10 0.847478 0.778797 0.363728
O O11 0.943092 0.922288 0.351178
O O12 0.155438 0.500000 0.750000
O O13 0.221844 0.370219 0.681014
O O14 0.595191 0.369987 0.903995
O O15 0.752011 0.312626 0.938537
#
# Coordination Sequence:
#
# PCOD8296818 Si02
#       7
#    16  16  16  16  16  16  16
#     4  11  20  41  64  97 133 180 222 276 349 429
#     4  10  26  48  69 102 139 189 242 292 345 420
#     4  11  22  41  68  99 139 178 226 289 351 420
#     4  11  24  39  65 106 144 172 233 292 358 428
#     4  11  23  42  70 102 138 182 231 288 352 426
#     4  11  26  47  72 102 141 181 247 299 343 412
#     4  11  22  43  75  93 142 182 228 283 358 423
#
# _framework density 22.711859
#
# number of rings (size 3 to 8) (size 9 to 14) (size 15 to 20)
#    0.000    1.143    4.286    3.000    8.000    0.571 
#    0.000    0.714    0.000    0.000    0.000    0.000 
#    0.000    0.000    0.000    0.000    0.000    0.000 
#
# Total GULP energy -693963.522289 kJ/mol
# GULP energy per Si atom -12392.205755 kJ/mol
# Density = 2.266017 g / cm^3
# Si number density = 22.711859 Si / 1000 Ang^3
#
#
#
# Elastic Constant Matrix: (Units=GPa)
#
#
# Indices 1 2 3 4 5 6 
#
# 1 87.3567 12.8246 7.0415 0.0000 0.0000 0.0000
# 2 12.8246 88.7472 23.6207 0.0000 0.0000 0.0000
# 3 7.0415 23.6207 74.7943 0.0000 0.0000 0.0000
# 4 0.0000 0.0000 0.0000 -24.5691 0.0000 0.0000
# 5 0.0000 0.0000 0.0000 0.0000 -16.6316 0.0000
# 6 0.0000 0.0000 0.0000 0.0000 0.0000 18.6488
#
#
#
# Elastic Compliance Matrix: (Units=1/GPa)
#
#
# Indices 1 2 3 4 5 6 
#
# 1 0.011722 -0.001529 -0.000621 0.000000 0.000000 0.000000
# 2 -0.001529 0.012501 -0.003804 0.000000 0.000000 0.000000
# 3 -0.000621 -0.003804 0.014630 0.000000 0.000000 0.000000
# 4 0.000000 0.000000 0.000000 -0.040702 0.000000 0.000000
# 5 0.000000 0.000000 0.000000 0.000000 -0.060126 0.000000
# 6 0.000000 0.000000 0.000000 0.000000 0.000000 0.053623
#
#
# Mechanical properties :
#
#
# Convention : Reuss Voigt Hill
#
# Bulk Modulus (GPa) = 37.11150 37.54133 37.32641
# Shear Modulus (GPa) = 398.82293 9.31703 204.06998
#
# Velocity S-wave (km/s) = 13.26584 2.02761 9.48930
# Velocity P-wave (km/s) = 15.84357 4.69541 11.68473
#
# Compressibility (1/GPa) = 0.02694583
#
# Stress axis : x y z
#
# Youngs Moduli (GPa) = 85.31131 79.99133 68.35348
#
# Poissons Ratio (x) = 0.12228 0.04243
# Poissons Ratio (y) = 0.13041 0.26003
# Poissons Ratio (z) = 0.05296 0.30430
#
# Static dielectric constant tensor:
#      x y z
#    x 4.170490 0.000000 0.000000 
#    y 0.000000 3.904830 0.000000 
#    z 0.000000 0.000000 4.276510 
# 
# 
# High freq. dielectric constant tensor:
#      x y z
#    x 1.900980 0.000000 0.000000 
#    y 0.000000 1.887320 0.000000 
#    z 0.000000 0.000000 1.903600 
# 
# From -- ./inp_files/29558.got.cif
#   From: 2010.03.12/outbox.cif.g09.slc.cpg/sg73_15_cif.got.tgz:29558.got - 2010.04.16 15:25:48.
