data_PCOD8296246
_publ_section_title
;
Structure prediction by ZEFSAII (Michael W. Deem and Ramdas Pophale) SiO2 
 PCOD8296246
Probable space group: I B C A 
;
_chemical_formula_sum "Si O2"
_cell_formula_units_Z 96
_cell_length_a 22.171954
_cell_length_b 13.461388
_cell_length_c 14.982309
_cell_angle_alpha 90.000000
_cell_angle_beta 90.000000
_cell_angle_gamma 90.000000
_cell_volume 4471.698983
_symmetry_space_group_name_H-M "I B C A "
_symmetry_group_IT_number 73
_symmetry_cell_setting 'orthorhombic'
loop_
_space_group_symop_operation_xyz
x,y,z
-x,1/2-y,z
x,-y,1/2-z
1/2-x,y,-z
-x,-y,-z
x,1/2+y,-z
-x,y,1/2+z
1/2+x,-y,z
1/2+x,1/2+y,1/2+z
1/2-x,-y,1/2+z
1/2+x,1/2-y,-z
-x,1/2+y,1/2-z
1/2-x,1/2-y,1/2-z
1/2+x,y,1/2-z
1/2-x,1/2+y,z
x,1/2-y,1/2+z
loop_
_atom_site_type_symbol
_atom_site_label
_atom_site_fract_x
_atom_site_fract_y
_atom_site_fract_z
Si Si1 0.742778 0.140484 0.850668
Si Si2 0.151697 0.039738 0.425169
Si Si3 0.875669 0.959786 0.376264
Si Si4 0.185606 0.652026 0.831940
Si Si5 0.437443 0.363974 0.724821
Si Si6 0.074110 0.644110 0.716560
O O1 0.796116 0.124509 0.923332
O O2 0.695393 0.050356 0.856920
O O3 0.709217 0.244296 0.872908
O O4 0.772088 0.131141 0.753000
O O5 0.115223 0.041729 0.517501
O O6 0.101757 0.064505 0.351073
O O7 0.186881 0.936032 0.405132
O O8 0.910029 0.869887 0.325283
O O9 0.900550 0.063157 0.339099
O O10 0.115299 0.653991 0.804297
O O11 0.507117 0.394399 0.737048
O O12 0.429555 0.256705 0.679090
#
# Coordination Sequence:
#
# PCOD8296246 Si02
#       6
#    16  16  16  16  16  16
#     4  10  21  41  64  95 130 175 211 271 337 403
#     4  11  25  39  68 100 134 165 224 281 334 390
#     4  11  24  41  63  99 129 176 216 272 329 408
#     4  10  22  39  69  92 128 171 218 272 330 401
#     4  10  24  41  68  89 136 179 220 261 333 410
#     4  10  21  45  64  96 126 178 221 272 328 393
#
# _framework density 21.468350999999998
#
# number of rings (size 3 to 8) (size 9 to 14) (size 15 to 20)
#    0.000    1.667    1.667    2.500    9.333    2.000 
#    0.000    3.333    0.000    0.000    0.000    0.000 
#    0.000    0.000    0.000    0.000    0.000    0.000 
#
# Total GULP energy -594859.049867 kJ/mol
# GULP energy per Si atom -12392.896872 kJ/mol
# Density = 2.141949 g / cm^3
# Si number density = 21.468351 Si / 1000 Ang^3
#
#
#
# Elastic Constant Matrix: (Units=GPa)
#
#
# Indices 1 2 3 4 5 6 
#
# 1 122.3439 29.3253 34.3593 0.0000 0.0000 0.0000
# 2 29.3253 110.9143 41.3900 0.0000 0.0000 0.0000
# 3 34.3593 41.3900 100.0387 0.0000 0.0000 0.0000
# 4 0.0000 0.0000 0.0000 13.7381 0.0000 0.0000
# 5 0.0000 0.0000 0.0000 0.0000 16.7494 0.0000
# 6 0.0000 0.0000 0.0000 0.0000 0.0000 34.8999
#
#
#
# Elastic Compliance Matrix: (Units=1/GPa)
#
#
# Indices 1 2 3 4 5 6 
#
# 1 0.009250 -0.001490 -0.002560 0.000000 0.000000 0.000000
# 2 -0.001490 0.010902 -0.003999 0.000000 0.000000 0.000000
# 3 -0.002560 -0.003999 0.012530 0.000000 0.000000 0.000000
# 4 0.000000 0.000000 0.000000 0.072790 0.000000 0.000000
# 5 0.000000 0.000000 0.000000 0.000000 0.059704 0.000000
# 6 0.000000 0.000000 0.000000 0.000000 0.000000 0.028653
#
#
# Mechanical properties :
#
#
# Convention : Reuss Voigt Hill
#
# Bulk Modulus (GPa) = 60.30187 60.38292 60.34239
# Shear Modulus (GPa) = 23.20658 28.29229 25.74944
#
# Velocity S-wave (km/s) = 3.29137 3.63417 3.46701
# Velocity P-wave (km/s) = 6.52640 6.76736 6.64797
#
# Compressibility (1/GPa) = 0.01658323
#
# Stress axis : x y z
#
# Youngs Moduli (GPa) = 108.10873 91.72437 79.80824
#
# Poissons Ratio (x) = 0.13668 0.20434
# Poissons Ratio (y) = 0.16110 0.31914
# Poissons Ratio (z) = 0.27681 0.36679
#
# Static dielectric constant tensor:
#      x y z
#    x 4.085060 0.000000 0.000000 
#    y 0.000000 4.067980 0.000000 
#    z 0.000000 0.000000 3.589030 
# 
# 
# High freq. dielectric constant tensor:
#      x y z
#    x 1.858230 0.000000 0.000000 
#    y 0.000000 1.853620 0.000000 
#    z 0.000000 0.000000 1.805440 
# 
# From -- ./inp_files/17052.got.cif
#   From: 2010.03.12/outbox.cif.g09.slc.cpg/sg73_9_cif.got.tgz:17052.got - 2010.04.16 15:25:48.
