data_PCOD8296662
_publ_section_title
;
Structure prediction by ZEFSAII (Michael W. Deem and Ramdas Pophale) SiO2 
 PCOD8296662
Probable space group: I B C A 
;
_chemical_formula_sum "Si O2"
_cell_formula_units_Z 112
_cell_length_a 13.695878
_cell_length_b 29.572750
_cell_length_c 12.394381
_cell_angle_alpha 90.000000
_cell_angle_beta 90.000000
_cell_angle_gamma 90.000000
_cell_volume 5020.031390
_symmetry_space_group_name_H-M "I B C A "
_symmetry_group_IT_number 73
_symmetry_cell_setting 'orthorhombic'
loop_
_space_group_symop_operation_xyz
x,y,z
-x,1/2-y,z
x,-y,1/2-z
1/2-x,y,-z
-x,-y,-z
x,1/2+y,-z
-x,y,1/2+z
1/2+x,-y,z
1/2+x,1/2+y,1/2+z
1/2-x,-y,1/2+z
1/2+x,1/2-y,-z
-x,1/2+y,1/2-z
1/2-x,1/2-y,1/2-z
1/2+x,y,1/2-z
1/2-x,1/2+y,z
x,1/2-y,1/2+z
loop_
_atom_site_type_symbol
_atom_site_label
_atom_site_fract_x
_atom_site_fract_y
_atom_site_fract_z
Si Si1 0.644684 0.157197 0.130905
Si Si2 0.645722 0.113301 0.829239
Si Si3 0.914990 0.300370 0.590930
Si Si4 0.870576 0.431742 0.896953
Si Si5 0.082508 0.430874 0.954857
Si Si6 0.370875 0.793572 0.648562
Si Si7 0.250000 0.005779 0.500000
Si Si8 0.750000 0.355870 0.000000
O O1 0.748849 0.133216 0.140823
O O2 0.575343 0.113308 0.122552
O O3 0.614618 0.189354 0.229675
O O4 0.635566 0.186738 0.022254
O O5 0.582344 0.158862 0.821592
O O6 0.638406 0.082032 0.726335
O O7 0.601885 0.082042 0.922101
O O8 0.848465 0.260354 0.645016
O O9 0.030584 0.292220 0.576113
O O10 0.799343 0.474033 0.910797
O O11 0.840357 0.387608 0.966374
O O12 0.975137 0.451465 0.936111
O O13 0.171352 0.465373 0.929367
O O14 0.285765 0.823848 0.596855
#
# Coordination Sequence:
#
# PCOD8296662 Si02
#       8
#    16  16  16  16  16  16   8   8
#     4  11  22  43  70  93 138 189 231 285 352 421
#     4  11  22  44  68  97 134 187 230 271 357 419
#     4  10  24  40  64  98 138 183 242 288 337 411
#     4  11  25  42  69 101 139 175 228 284 355 419
#     4  11  22  46  72  97 137 182 225 286 343 429
#     4  11  24  40  64 101 137 184 238 290 343 399
#     4  11  24  46  69 104 138 168 227 298 348 417
#     4  11  22  40  61 100 142 176 225 296 340 403
#
# _framework density 22.310616
#
# number of rings (size 3 to 8) (size 9 to 14) (size 15 to 20)
#    0.000    1.143    2.857    4.286    2.000    4.571 
#    0.000    0.000    0.000    0.000    0.000    0.000 
#    0.000    0.000    0.000    0.000    0.000    0.000 
#
# Total GULP energy -693907.463274 kJ/mol
# GULP energy per Si atom -12391.204701 kJ/mol
# Density = 2.225984 g / cm^3
# Si number density = 22.310616 Si / 1000 Ang^3
#
#
#
# Elastic Constant Matrix: (Units=GPa)
#
#
# Indices 1 2 3 4 5 6 
#
# 1 113.5475 47.7846 49.3108 -0.0004 0.0007 0.0005
# 2 47.7846 147.3563 72.4884 0.0001 -0.0001 -0.0001
# 3 49.3108 72.4884 141.6060 -0.0033 0.0014 0.0005
# 4 -0.0004 0.0001 -0.0033 24.0976 0.0004 0.0003
# 5 0.0007 -0.0001 0.0014 0.0004 27.9325 -0.0002
# 6 0.0005 -0.0001 0.0005 0.0003 -0.0002 30.4699
#
#
#
# Elastic Compliance Matrix: (Units=1/GPa)
#
#
# Indices 1 2 3 4 5 6 
#
# 1 0.010897 -0.002228 -0.002654 0.000000 0.000000 0.000000
# 2 -0.002228 0.009526 -0.004100 -0.000001 0.000000 0.000000
# 3 -0.002654 -0.004100 0.010085 0.000001 0.000000 0.000000
# 4 0.000000 -0.000001 0.000001 0.041498 -0.000001 0.000000
# 5 0.000000 0.000000 0.000000 -0.000001 0.035801 0.000000
# 6 0.000000 0.000000 0.000000 0.000000 0.000000 0.032819
#
#
# Mechanical properties :
#
#
# Convention : Reuss Voigt Hill
#
# Bulk Modulus (GPa) = 79.72656 82.40858 81.06757
# Shear Modulus (GPa) = 30.71778 32.02840 31.37309
#
# Velocity S-wave (km/s) = 3.71458 3.79300 3.75400
# Velocity P-wave (km/s) = 7.36274 7.49664 7.42999
#
# Compressibility (1/GPa) = 0.01254287
#
# Stress axis : x y z
#
# Youngs Moduli (GPa) = 91.76705 104.97675 99.15611
#
# Poissons Ratio (x) = 0.23390 0.26317
# Poissons Ratio (y) = 0.20447 0.40659
# Poissons Ratio (z) = 0.24356 0.43045
#
# Static dielectric constant tensor:
#      x y z
#    x 4.110990 0.000000 0.000000 
#    y 0.000000 4.649900 0.000000 
#    z 0.000000 0.000000 3.758220 
# 
# 
# High freq. dielectric constant tensor:
#      x y z
#    x 1.885030 0.000000 0.000000 
#    y 0.000000 1.898340 0.000000 
#    z 0.000000 0.000000 1.858660 
# 
# From -- ./inp_files/11291.got.cif
#   From: 2010.03.12/outbox.cif.g09.slc.cpg/sg73_6_cif.got.tgz:11291.got - 2010.04.16 15:25:48.
