data_PCOD8296069
_publ_section_title
;
Structure prediction by ZEFSAII (Michael W. Deem and Ramdas Pophale) SiO2 
 PCOD8296069
Probable space group: I B C A 
;
_chemical_formula_sum "Si O2"
_cell_formula_units_Z 112
_cell_length_a 22.580750
_cell_length_b 15.089242
_cell_length_c 13.656437
_cell_angle_alpha 90.000000
_cell_angle_beta 90.000000
_cell_angle_gamma 90.000000
_cell_volume 4653.108633
_symmetry_space_group_name_H-M "I B C A "
_symmetry_group_IT_number 73
_symmetry_cell_setting 'orthorhombic'
loop_
_space_group_symop_operation_xyz
x,y,z
-x,1/2-y,z
x,-y,1/2-z
1/2-x,y,-z
-x,-y,-z
x,1/2+y,-z
-x,y,1/2+z
1/2+x,-y,z
1/2+x,1/2+y,1/2+z
1/2-x,-y,1/2+z
1/2+x,1/2-y,-z
-x,1/2+y,1/2-z
1/2-x,1/2-y,1/2-z
1/2+x,y,1/2-z
1/2-x,1/2+y,z
x,1/2-y,1/2+z
loop_
_atom_site_type_symbol
_atom_site_label
_atom_site_fract_x
_atom_site_fract_y
_atom_site_fract_z
Si Si1 0.708416 0.731856 0.591523
Si Si2 0.550069 0.000000 0.250000
Si Si3 0.858478 0.984172 0.097177
Si Si4 0.088640 0.667663 0.414967
Si Si5 0.500000 0.750000 0.946573
Si Si6 0.247623 0.911975 0.116763
Si Si7 0.052717 0.868921 0.704834
Si Si8 0.344505 0.445652 0.379264
O O1 0.750000 0.705505 0.500000
O O2 0.644873 0.771539 0.558035
O O3 0.741298 0.810619 0.656011
O O4 0.694055 0.641599 0.654186
O O5 0.508154 0.075342 0.204989
O O6 0.590656 0.048652 0.331688
O O7 0.890301 0.928408 0.181326
O O8 0.899203 0.065458 0.066090
O O9 0.798636 0.019396 0.147632
O O10 0.847833 0.930473 0.996486
O O11 0.034275 0.681838 0.486214
O O12 0.066274 0.683461 0.304336
O O13 0.451448 0.701994 0.880623
O O14 0.186954 0.960235 0.150534
O O15 0.250000 0.900601 0.000000
#
# Coordination Sequence:
#
# PCOD8296069 Si02
#       8
#    16   8  16  16   8  16  16  16
#     4  10  21  40  74 103 138 189 240 307 379 452
#     4  12  28  44  64 102 152 186 258 316 358 450
#     4  10  20  42  73  96 135 188 240 299 375 451
#     4  11  24  44  68 106 144 188 247 314 364 454
#     4  12  28  40  70  96 148 194 242 312 380 438
#     4   8  18  39  67 101 136 176 240 298 365 455
#     4  12  26  45  69 106 140 196 256 301 377 455
#     4  11  23  42  71 103 144 193 241 305 381 447
#
# _framework density 24.069931
#
# number of rings (size 3 to 8) (size 9 to 14) (size 15 to 20)
#    0.000    1.429    1.429    4.286    6.000    1.143 
#    5.143    0.714    0.000    0.000    0.000    0.000 
#    0.000    0.000    0.000    0.000    0.000    0.000 
#
# Total GULP energy -694202.260646 kJ/mol
# GULP energy per Si atom -12396.468940 kJ/mol
# Density = 2.401515 g / cm^3
# Si number density = 24.069931 Si / 1000 Ang^3
#
#
#
# Elastic Constant Matrix: (Units=GPa)
#
#
# Indices 1 2 3 4 5 6 
#
# 1 102.9608 22.1722 41.6978 0.0000 0.0000 0.0000
# 2 22.1722 98.1306 31.0473 0.0000 0.0000 0.0000
# 3 41.6978 31.0473 76.1416 0.0000 0.0000 0.0000
# 4 0.0000 0.0000 0.0000 86.9143 0.0000 0.0000
# 5 0.0000 0.0000 0.0000 0.0000 42.4266 0.0000
# 6 0.0000 0.0000 0.0000 0.0000 0.0000 30.9091
#
#
#
# Elastic Compliance Matrix: (Units=1/GPa)
#
#
# Indices 1 2 3 4 5 6 
#
# 1 0.012529 -0.000758 -0.006552 0.000000 0.000000 0.000000
# 2 -0.000758 0.011746 -0.004374 0.000000 0.000000 0.000000
# 3 -0.006552 -0.004374 0.018505 0.000000 0.000000 0.000000
# 4 0.000000 0.000000 0.000000 0.011506 0.000000 0.000000
# 5 0.000000 0.000000 0.000000 0.000000 0.023570 0.000000
# 6 0.000000 0.000000 0.000000 0.000000 0.000000 0.032353
#
#
# Mechanical properties :
#
#
# Convention : Reuss Voigt Hill
#
# Bulk Modulus (GPa) = 51.51686 51.89640 51.70663
# Shear Modulus (GPa) = 35.70185 44.20441 39.95313
#
# Velocity S-wave (km/s) = 3.85548 4.29009 4.07858
# Velocity P-wave (km/s) = 6.42411 6.79318 6.61122
#
# Compressibility (1/GPa) = 0.01941112
#
# Stress axis : x y z
#
# Youngs Moduli (GPa) = 79.81304 85.13733 54.03812
#
# Poissons Ratio (x) = 0.06452 0.35408
# Poissons Ratio (y) = 0.06048 0.23638
# Poissons Ratio (z) = 0.52297 0.37242
#
# Static dielectric constant tensor:
#      x y z
#    x 4.484090 0.000000 0.000000 
#    y 0.000000 4.701220 0.000000 
#    z 0.000000 0.000000 4.046190 
# 
# 
# High freq. dielectric constant tensor:
#      x y z
#    x 1.961670 0.000000 0.000000 
#    y 0.000000 1.963420 0.000000 
#    z 0.000000 0.000000 1.936260 
# 
# From -- ./inp_files/19443.got.cif
#   From: 2010.03.12/outbox.cif.g09.slc.cpg/sg73_10_cif.got.tgz:19443.got - 2010.04.16 15:25:48.
