data_PCOD8296351
_publ_section_title
;
Structure prediction by ZEFSAII (Michael W. Deem and Ramdas Pophale) SiO2 
 PCOD8296351
Probable space group: I B C A 
;
_chemical_formula_sum "Si O2"
_cell_formula_units_Z 120
_cell_length_a 25.275101
_cell_length_b 17.729096
_cell_length_c 12.594032
_cell_angle_alpha 90.000000
_cell_angle_beta 90.000000
_cell_angle_gamma 90.000000
_cell_volume 5643.444831
_symmetry_space_group_name_H-M "I B C A "
_symmetry_group_IT_number 73
_symmetry_cell_setting 'orthorhombic'
loop_
_space_group_symop_operation_xyz
x,y,z
-x,1/2-y,z
x,-y,1/2-z
1/2-x,y,-z
-x,-y,-z
x,1/2+y,-z
-x,y,1/2+z
1/2+x,-y,z
1/2+x,1/2+y,1/2+z
1/2-x,-y,1/2+z
1/2+x,1/2-y,-z
-x,1/2+y,1/2-z
1/2-x,1/2-y,1/2-z
1/2+x,y,1/2-z
1/2-x,1/2+y,z
x,1/2-y,1/2+z
loop_
_atom_site_type_symbol
_atom_site_label
_atom_site_fract_x
_atom_site_fract_y
_atom_site_fract_z
Si Si1 0.084032 0.408167 0.994542
Si Si2 0.250000 0.438409 0.000000
Si Si3 0.324261 0.175977 0.400251
Si Si4 0.840630 0.982863 0.874771
Si Si5 0.957815 0.809613 0.681554
Si Si6 0.809800 0.161039 0.520918
Si Si7 0.529399 0.417774 0.286315
Si Si8 0.879654 0.821523 0.188542
O O1 0.111592 0.480858 0.942062
O O2 0.046064 0.372316 0.908137
O O3 0.124802 0.342989 0.028666
O O4 0.048839 0.431016 0.094391
O O5 0.219389 0.386916 0.082856
O O6 0.286185 0.487488 0.076592
O O7 0.302395 0.257205 0.429693
O O8 0.334793 0.172350 0.276177
O O9 0.846707 0.000000 0.750000
O O10 0.839247 0.892982 0.893834
O O11 0.903821 0.763412 0.702228
O O12 0.000000 0.750000 0.639018
O O13 0.980792 0.856671 0.783473
O O14 0.750000 0.131099 0.500000
O O15 0.849022 0.163752 0.420283
O O16 0.510066 0.500000 0.250000
O O17 0.575969 0.385699 0.209644
#
# Coordination Sequence:
#
# PCOD8296351 Si02
#       8
#    16   8  16  16  16  16  16  16
#     4  10  22  44  64  94 134 172 211 274 350 398
#     4  10  22  42  58  94 132 172 226 284 336 388
#     4  10  22  38  67  88 128 175 216 281 329 398
#     4  11  26  42  63  97 139 178 227 286 346 411
#     4  10  22  41  66  98 127 166 222 278 331 409
#     4  12  24  41  64 102 130 178 236 278 337 411
#     4  10  22  43  67  96 130 176 218 268 346 419
#     4  10  23  42  65  95 132 177 224 276 338 407
#
# _framework density 21.263608999999999
#
# number of rings (size 3 to 8) (size 9 to 14) (size 15 to 20)
#    0.000    1.600    2.667    0.800    3.733    4.267 
#    0.000    0.000    0.000    0.000    0.000    0.000 
#    0.000    0.000    0.000    0.000    0.000    0.000 
#
# Total GULP energy -743794.589442 kJ/mol
# GULP energy per Si atom -12396.576491 kJ/mol
# Density = 2.121521 g / cm^3
# Si number density = 21.263609 Si / 1000 Ang^3
#
#
#
# Elastic Constant Matrix: (Units=GPa)
#
#
# Indices 1 2 3 4 5 6 
#
# 1 72.4780 21.5644 39.5969 0.0000 0.0000 0.0000
# 2 21.5644 97.6023 38.2679 0.0000 0.0000 0.0000
# 3 39.5969 38.2679 106.3061 0.0000 0.0000 0.0000
# 4 0.0000 0.0000 0.0000 22.4447 0.0000 0.0000
# 5 0.0000 0.0000 0.0000 0.0000 26.5917 0.0000
# 6 0.0000 0.0000 0.0000 0.0000 0.0000 -2.6624
#
#
#
# Elastic Compliance Matrix: (Units=1/GPa)
#
#
# Indices 1 2 3 4 5 6 
#
# 1 0.017516 -0.001528 -0.005974 0.000000 0.000000 0.000000
# 2 -0.001528 0.012063 -0.003773 0.000000 0.000000 0.000000
# 3 -0.005974 -0.003773 0.012990 0.000000 0.000000 0.000000
# 4 0.000000 0.000000 0.000000 0.044554 0.000000 0.000000
# 5 0.000000 0.000000 0.000000 0.000000 0.037606 0.000000
# 6 0.000000 0.000000 0.000000 0.000000 0.000000 -0.375599
#
#
# Mechanical properties :
#
#
# Convention : Reuss Voigt Hill
#
# Bulk Modulus (GPa) = 49.95413 52.80497 51.37955
# Shear Modulus (GPa) = -22.55840 21.07195 -0.74323
#
# Velocity S-wave (km/s) = -3.26067 3.15141 -0.59185
# Velocity P-wave (km/s) = 3.06069 6.17489 4.87325
#
# Compressibility (1/GPa) = 0.02001836
#
# Stress axis : x y z
#
# Youngs Moduli (GPa) = 57.09147 82.90093 76.97973
#
# Poissons Ratio (x) = 0.12663 0.45991
# Poissons Ratio (y) = 0.08721 0.29047
# Poissons Ratio (z) = 0.34109 0.31281
#
# Static dielectric constant tensor:
#      x y z
#    x 3.933240 0.000000 0.000000 
#    y 0.000000 3.992010 0.000000 
#    z 0.000000 0.000000 3.697140 
# 
# 
# High freq. dielectric constant tensor:
#      x y z
#    x 1.835320 0.000000 0.000000 
#    y 0.000000 1.848260 0.000000 
#    z 0.000000 0.000000 1.825910 
# 
# From -- ./inp_files/14374.got.cif
#   From: 2010.03.12/outbox.cif.g09.slc.cpg/sg73_8_cif.got.tgz:14374.got - 2010.04.16 15:25:48.
