data_PCOD8296563
_publ_section_title
;
Structure prediction by ZEFSAII (Michael W. Deem and Ramdas Pophale) SiO2 
 PCOD8296563
Probable space group: I B C A 
;
_chemical_formula_sum "Si O2"
_cell_formula_units_Z 112
_cell_length_a 11.556812
_cell_length_b 15.276036
_cell_length_c 29.215717
_cell_angle_alpha 90.000000
_cell_angle_beta 90.000000
_cell_angle_gamma 90.000000
_cell_volume 5157.809179
_symmetry_space_group_name_H-M "I B C A "
_symmetry_group_IT_number 73
_symmetry_cell_setting 'orthorhombic'
loop_
_space_group_symop_operation_xyz
x,y,z
-x,1/2-y,z
x,-y,1/2-z
1/2-x,y,-z
-x,-y,-z
x,1/2+y,-z
-x,y,1/2+z
1/2+x,-y,z
1/2+x,1/2+y,1/2+z
1/2-x,-y,1/2+z
1/2+x,1/2-y,-z
-x,1/2+y,1/2-z
1/2-x,1/2-y,1/2-z
1/2+x,y,1/2-z
1/2-x,1/2+y,z
x,1/2-y,1/2+z
loop_
_atom_site_type_symbol
_atom_site_label
_atom_site_fract_x
_atom_site_fract_y
_atom_site_fract_z
Si Si1 0.961315 0.088911 0.221661
Si Si2 0.820119 0.231397 0.857979
Si Si3 0.846801 0.386036 0.149313
Si Si4 0.000000 0.250000 0.283395
Si Si5 0.304253 0.443995 0.862011
Si Si6 0.618227 0.900058 0.481831
Si Si7 0.500000 0.250000 0.571850
Si Si8 0.490276 0.447378 0.429005
O O1 0.079495 0.101522 0.194624
O O2 0.943384 0.171953 0.254337
O O3 0.856366 0.086843 0.186109
O O4 0.965699 0.000000 0.250000
O O5 0.716585 0.294563 0.844123
O O6 0.897322 0.208362 0.813812
O O7 0.771924 0.139539 0.879403
O O8 0.899100 0.286229 0.894426
O O9 0.768870 0.470811 0.146933
O O10 0.920318 0.378517 0.102235
O O11 0.398813 0.475948 0.899119
O O12 0.750000 0.898787 0.500000
O O13 0.574291 0.812236 0.459665
O O14 0.532176 0.906068 0.524281
O O15 0.597292 0.974292 0.443229
#
# Coordination Sequence:
#
# PCOD8296563 Si02
#       8
#    16  16  16   8  16  16   8  16
#     4  11  24  39  61  93 123 158 209 258 305 369
#     4  11  24  41  64  88 123 168 205 254 319 368
#     4  11  23  40  63  89 123 165 206 253 313 373
#     4  11  24  42  59  90 128 158 207 260 306 375
#     4  11  23  42  64  89 125 165 207 257 311 372
#     4  11  23  41  65  92 125 164 204 257 317 373
#     4  11  24  40  61  92 122 156 209 258 300 369
#     4  10  23  41  63  90 123 160 206 254 308 375
#
# _framework density 21.714645000000001
#
# number of rings (size 3 to 8) (size 9 to 14) (size 15 to 20)
#    0.000    1.143    0.000    6.000    0.000   14.857 
#    0.000    0.714    0.000    0.000    0.000    0.000 
#    0.000    0.000    0.000    0.000    0.000    0.000 
#
# Total GULP energy -694149.794267 kJ/mol
# GULP energy per Si atom -12395.532040 kJ/mol
# Density = 2.166522 g / cm^3
# Si number density = 21.714645 Si / 1000 Ang^3
#
#
#
# Elastic Constant Matrix: (Units=GPa)
#
#
# Indices 1 2 3 4 5 6 
#
# 1 93.3184 16.3109 35.7887 0.0000 0.0000 0.0000
# 2 16.3109 78.1880 32.3530 0.0000 0.0000 0.0000
# 3 35.7887 32.3530 99.6381 0.0000 0.0000 0.0000
# 4 0.0000 0.0000 0.0000 295.0610 0.0000 0.0000
# 5 0.0000 0.0000 0.0000 0.0000 -31.4022 0.0000
# 6 0.0000 0.0000 0.0000 0.0000 0.0000 34.7794
#
#
#
# Elastic Compliance Matrix: (Units=1/GPa)
#
#
# Indices 1 2 3 4 5 6 
#
# 1 0.012478 -0.000865 -0.004201 0.000000 0.000000 0.000000
# 2 -0.000865 0.014835 -0.004506 0.000000 0.000000 0.000000
# 3 -0.004201 -0.004506 0.013009 0.000000 0.000000 0.000000
# 4 0.000000 0.000000 0.000000 0.003389 0.000000 0.000000
# 5 0.000000 0.000000 0.000000 0.000000 -0.031845 0.000000
# 6 0.000000 0.000000 0.000000 0.000000 0.000000 0.028753
#
#
# Mechanical properties :
#
#
# Convention : Reuss Voigt Hill
#
# Bulk Modulus (GPa) = 47.22089 48.89440 48.05765
# Shear Modulus (GPa) = 74.82546 72.13378 73.47962
#
# Velocity S-wave (km/s) = 5.87651 5.76984 5.82342
# Velocity P-wave (km/s) = 8.23637 8.18253 8.20949
#
# Compressibility (1/GPa) = 0.02117707
#
# Stress axis : x y z
#
# Youngs Moduli (GPa) = 80.13857 67.40943 76.87227
#
# Poissons Ratio (x) = 0.05829 0.32296
# Poissons Ratio (y) = 0.06930 0.34641
# Poissons Ratio (z) = 0.33669 0.30377
#
# Static dielectric constant tensor:
#      x y z
#    x 4.174550 0.000000 0.000000 
#    y 0.000000 4.260970 0.000000 
#    z 0.000000 0.000000 4.423500 
# 
# 
# High freq. dielectric constant tensor:
#      x y z
#    x 1.868670 0.000000 0.000000 
#    y 0.000000 1.839810 0.000000 
#    z 0.000000 0.000000 1.876800 
# 
# From -- ./inp_files/11307.got.cif
#   From: 2010.03.12/outbox.cif.g09.slc.cpg/sg73_6_cif.got.tgz:11307.got - 2010.04.16 15:25:48.
