data_PCOD8296837
_publ_section_title
;
Structure prediction by ZEFSAII (Michael W. Deem and Ramdas Pophale) SiO2 
 PCOD8296837
Probable space group: I B C A 
;
_chemical_formula_sum "Si O2"
_cell_formula_units_Z 72
_cell_length_a 4.905107
_cell_length_b 28.725111
_cell_length_c 22.714476
_cell_angle_alpha 90.000000
_cell_angle_beta 90.000000
_cell_angle_gamma 90.000000
_cell_volume 3200.463832
_symmetry_space_group_name_H-M "I B C A "
_symmetry_group_IT_number 73
_symmetry_cell_setting 'orthorhombic'
loop_
_space_group_symop_operation_xyz
x,y,z
-x,1/2-y,z
x,-y,1/2-z
1/2-x,y,-z
-x,-y,-z
x,1/2+y,-z
-x,y,1/2+z
1/2+x,-y,z
1/2+x,1/2+y,1/2+z
1/2-x,-y,1/2+z
1/2+x,1/2-y,-z
-x,1/2+y,1/2-z
1/2-x,1/2-y,1/2-z
1/2+x,y,1/2-z
1/2-x,1/2+y,z
x,1/2-y,1/2+z
loop_
_atom_site_type_symbol
_atom_site_label
_atom_site_fract_x
_atom_site_fract_y
_atom_site_fract_z
Si Si1 0.299997 0.640490 0.912595
Si Si2 0.919197 0.630674 0.285817
Si Si3 0.318951 0.919780 0.063022
Si Si4 0.250000 0.218986 0.000000
Si Si5 0.945812 0.969912 0.323033
O O1 0.178733 0.651225 0.847773
O O2 0.563995 0.607182 0.907047
O O3 0.365337 0.688680 0.945234
O O4 0.059691 0.616783 0.950747
O O5 0.717344 0.647838 0.233865
O O6 0.943883 0.574659 0.288483
O O7 0.436814 0.958689 0.106952
O O8 0.250000 0.942879 0.000000
O O9 0.500000 0.250000 0.977066
O O10 0.642140 0.986834 0.307047
#
# Coordination Sequence:
#
# PCOD8296837 Si02
#       5
#    16  16  16   8  16
#     4  11  22  41  63  94 128 159 211 258 303 394
#     4  11  23  40  63  85 115 171 219 255 306 361
#     4  11  20  37  61  83 123 175 209 252 320 379
#     4  12  24  40  70 104 130 156 190 254 336 382
#     4  11  23  36  53  86 122 158 213 271 314 350
#
# _framework density 22.496739999999999
#
# number of rings (size 3 to 8) (size 9 to 14) (size 15 to 20)
#    0.000    0.889    2.222    8.000    0.000    3.556 
#    0.000    0.000    0.000    4.000    0.000    0.000 
#    0.000    0.000    0.000    0.000    0.000    0.000 
#
# Total GULP energy -446323.385601 kJ/mol
# GULP energy per Si atom -12397.871822 kJ/mol
# Density = 2.244554 g / cm^3
# Si number density = 22.496740 Si / 1000 Ang^3
#
#
#
# Elastic Constant Matrix: (Units=GPa)
#
#
# Indices 1 2 3 4 5 6 
#
# 1 126.0922 14.8836 11.9617 0.0000 0.0000 0.0000
# 2 14.8836 51.9124 17.6526 0.0000 0.0000 0.0000
# 3 11.9617 17.6526 100.0323 0.0000 0.0000 0.0000
# 4 0.0000 0.0000 0.0000 18.8944 0.0000 0.0000
# 5 0.0000 0.0000 0.0000 0.0000 38.4825 0.0000
# 6 0.0000 0.0000 0.0000 0.0000 0.0000 23.2990
#
#
#
# Elastic Compliance Matrix: (Units=1/GPa)
#
#
# Indices 1 2 3 4 5 6 
#
# 1 0.008243 -0.002158 -0.000605 0.000000 0.000000 0.000000
# 2 -0.002158 0.021058 -0.003458 0.000000 0.000000 0.000000
# 3 -0.000605 -0.003458 0.010679 0.000000 0.000000 0.000000
# 4 0.000000 0.000000 0.000000 0.052926 0.000000 0.000000
# 5 0.000000 0.000000 0.000000 0.000000 0.025986 0.000000
# 6 0.000000 0.000000 0.000000 0.000000 0.000000 0.042920
#
#
# Mechanical properties :
#
#
# Convention : Reuss Voigt Hill
#
# Bulk Modulus (GPa) = 36.31241 40.78142 38.54691
# Shear Modulus (GPa) = 27.25799 31.70443 29.48121
#
# Velocity S-wave (km/s) = 3.48464 3.75812 3.62396
# Velocity P-wave (km/s) = 5.68916 6.08263 5.88918
#
# Compressibility (1/GPa) = 0.02753879
#
# Stress axis : x y z
#
# Youngs Moduli (GPa) = 121.31860 47.48857 93.63872
#
# Poissons Ratio (x) = 0.10246 0.05664
# Poissons Ratio (y) = 0.26175 0.32381
# Poissons Ratio (z) = 0.07339 0.16422
#
# Static dielectric constant tensor:
#      x y z
#    x 4.283470 0.000000 0.000000 
#    y 0.000000 3.569750 0.000000 
#    z 0.000000 0.000000 4.122330 
# 
# 
# High freq. dielectric constant tensor:
#      x y z
#    x 1.910690 0.000000 0.000000 
#    y 0.000000 1.825400 0.000000 
#    z 0.000000 0.000000 1.903570 
# 
# From -- ./inp_files/1671.got.cif
#   From: 2010.03.12/outbox.cif.g09.slc.cpg/sg73_1_cif.got.tgz:1671.got - 2010.04.16 15:25:48.
