data_PCOD8296858
_publ_section_title
;
Structure prediction by ZEFSAII (Michael W. Deem and Ramdas Pophale) SiO2 
 PCOD8296858
Probable space group: I B C A 
;
_chemical_formula_sum "Si O2"
_cell_formula_units_Z 88
_cell_length_a 8.639012
_cell_length_b 22.430268
_cell_length_c 19.197589
_cell_angle_alpha 90.000000
_cell_angle_beta 90.000000
_cell_angle_gamma 90.000000
_cell_volume 3720.019612
_symmetry_space_group_name_H-M "I B C A "
_symmetry_group_IT_number 73
_symmetry_cell_setting 'orthorhombic'
loop_
_space_group_symop_operation_xyz
x,y,z
-x,1/2-y,z
x,-y,1/2-z
1/2-x,y,-z
-x,-y,-z
x,1/2+y,-z
-x,y,1/2+z
1/2+x,-y,z
1/2+x,1/2+y,1/2+z
1/2-x,-y,1/2+z
1/2+x,1/2-y,-z
-x,1/2+y,1/2-z
1/2-x,1/2-y,1/2-z
1/2+x,y,1/2-z
1/2-x,1/2+y,z
x,1/2-y,1/2+z
loop_
_atom_site_type_symbol
_atom_site_label
_atom_site_fract_x
_atom_site_fract_y
_atom_site_fract_z
Si Si1 0.161379 0.419857 0.115295
Si Si2 0.022295 0.813425 0.421456
Si Si3 0.679814 0.309357 0.783019
Si Si4 0.992101 0.537936 0.597440
Si Si5 0.434335 0.892313 0.271818
Si Si6 0.250000 0.105838 0.000000
O O1 0.030601 0.466800 0.087974
O O2 0.328644 0.442824 0.088959
O O3 0.135017 0.413793 0.198062
O O4 0.130275 0.355666 0.078803
O O5 0.059845 0.793178 0.342817
O O6 0.166720 0.850232 0.447302
O O7 0.000000 0.750000 0.462377
O O8 0.750000 0.250000 0.750000
O O9 0.594067 0.354852 0.729822
O O10 0.821898 0.347183 0.812131
O O11 0.948010 0.551125 0.677600
O O12 0.878822 0.568085 0.541390
#
# Coordination Sequence:
#
# PCOD8296858 Si02
#       6
#    16  16  16  16  16   8
#     4  11  26  45  74 106 139 184 238 300 357 417
#     4  11  26  48  70 103 143 188 239 293 349 421
#     4  11  21  41  68 104 142 185 232 294 357 421
#     4  12  26  45  72 103 143 189 235 291 357 423
#     4  11  22  40  69 105 142 178 234 296 362 413
#     4  12  28  50  72 102 144 192 242 286 350 430
#
# _framework density 23.655788000000001
#
# number of rings (size 3 to 8) (size 9 to 14) (size 15 to 20)
#    0.000    0.727    3.636    4.364    2.545    6.545 
#    0.000    0.000    0.000    0.000    0.000    0.000 
#    0.000    0.000    0.000    0.000    0.000    0.000 
#
# Total GULP energy -545120.925472 kJ/mol
# GULP energy per Si atom -12389.111943 kJ/mol
# Density = 2.360195 g / cm^3
# Si number density = 23.655788 Si / 1000 Ang^3
#
#
#
# Elastic Constant Matrix: (Units=GPa)
#
#
# Indices 1 2 3 4 5 6 
#
# 1 148.3496 71.4460 34.1211 0.0000 0.0000 0.0000
# 2 71.4460 178.5851 36.2257 0.0000 0.0000 0.0000
# 3 34.1211 36.2257 62.9980 0.0000 0.0000 0.0000
# 4 0.0000 0.0000 0.0000 16.5613 0.0000 0.0000
# 5 0.0000 0.0000 0.0000 0.0000 28.8073 0.0000
# 6 0.0000 0.0000 0.0000 0.0000 0.0000 42.0908
#
#
#
# Elastic Compliance Matrix: (Units=1/GPa)
#
#
# Indices 1 2 3 4 5 6 
#
# 1 0.008862 -0.002911 -0.003126 0.000000 0.000000 0.000000
# 2 -0.002911 0.007295 -0.002618 0.000000 0.000000 0.000000
# 3 -0.003126 -0.002618 0.019072 0.000000 0.000000 0.000000
# 4 0.000000 0.000000 0.000000 0.060382 0.000000 0.000000
# 5 0.000000 0.000000 0.000000 0.000000 0.034713 0.000000
# 6 0.000000 0.000000 0.000000 0.000000 0.000000 0.023758
#
#
# Mechanical properties :
#
#
# Convention : Reuss Voigt Hill
#
# Bulk Modulus (GPa) = 55.80724 74.83534 65.32129
# Shear Modulus (GPa) = 28.19028 34.03454 31.11241
#
# Velocity S-wave (km/s) = 3.45583 3.79719 3.63052
# Velocity P-wave (km/s) = 6.29017 7.13643 6.72662
#
# Compressibility (1/GPa) = 0.01791882
#
# Stress axis : x y z
#
# Youngs Moduli (GPa) = 112.84323 137.07287 52.43276
#
# Poissons Ratio (x) = 0.39906 0.16389
# Poissons Ratio (y) = 0.32852 0.13728
# Poissons Ratio (z) = 0.35271 0.35889
#
# Static dielectric constant tensor:
#      x y z
#    x 4.353340 0.000000 0.000000 
#    y 0.000000 4.492930 0.000000 
#    z 0.000000 0.000000 4.167300 
# 
# 
# High freq. dielectric constant tensor:
#      x y z
#    x 1.948230 0.000000 0.000000 
#    y 0.000000 1.956170 0.000000 
#    z 0.000000 0.000000 1.918550 
# 
# From -- ./inp_files/24802.got.cif
#   From: 2010.03.12/outbox.cif.g09.slc.cpg/sg73_13_cif.got.tgz:24802.got - 2010.04.16 15:25:48.
