data_PCOD8296020
_publ_section_title
;
Structure prediction by ZEFSAII (Michael W. Deem and Ramdas Pophale) SiO2 
 PCOD8296020
Probable space group: I B C A 
;
_chemical_formula_sum "Si O2"
_cell_formula_units_Z 120
_cell_length_a 22.192126
_cell_length_b 27.206717
_cell_length_c 9.706311
_cell_angle_alpha 90.000000
_cell_angle_beta 90.000000
_cell_angle_gamma 90.000000
_cell_volume 5860.426873
_symmetry_space_group_name_H-M "I B C A "
_symmetry_group_IT_number 73
_symmetry_cell_setting 'orthorhombic'
loop_
_space_group_symop_operation_xyz
x,y,z
-x,1/2-y,z
x,-y,1/2-z
1/2-x,y,-z
-x,-y,-z
x,1/2+y,-z
-x,y,1/2+z
1/2+x,-y,z
1/2+x,1/2+y,1/2+z
1/2-x,-y,1/2+z
1/2+x,1/2-y,-z
-x,1/2+y,1/2-z
1/2-x,1/2-y,1/2-z
1/2+x,y,1/2-z
1/2-x,1/2+y,z
x,1/2-y,1/2+z
loop_
_atom_site_type_symbol
_atom_site_label
_atom_site_fract_x
_atom_site_fract_y
_atom_site_fract_z
Si Si1 0.000000 0.250000 0.319268
Si Si2 0.896641 0.394723 0.485233
Si Si3 0.491925 0.466140 0.131989
Si Si4 0.876419 0.445686 0.758524
Si Si5 0.316232 0.259067 0.557539
Si Si6 0.210512 0.658458 0.635127
Si Si7 0.925798 0.709776 0.931899
Si Si8 0.704707 0.364423 0.123291
O O1 0.962960 0.283946 0.425084
O O2 0.956528 0.221024 0.214548
O O3 0.950564 0.419017 0.398770
O O4 0.871578 0.431403 0.598910
O O5 0.844708 0.379204 0.378573
O O6 0.915357 0.347859 0.575719
O O7 0.461252 0.500000 0.250000
O O8 0.555283 0.446164 0.187413
O O9 0.500000 0.500000 0.000000
O O10 0.847860 0.500000 0.750000
O O11 0.840676 0.409914 0.861857
O O12 0.250000 0.268875 0.500000
O O13 0.313654 0.214144 0.669526
O O14 0.364879 0.242555 0.441658
O O15 0.333834 0.313031 0.616722
O O16 0.250000 0.664701 0.500000
O O17 0.253135 0.636008 0.746168
O O18 0.750000 0.374759 0.000000
#
# Coordination Sequence:
#
# PCOD8296020 Si02
#       8
#     8  16  16  16  16  16  16  16
#     4  10  24  42  54  96 140 168 214 258 324 392
#     4  11  23  42  69  96 126 175 220 267 332 391
#     4  11  23  43  68  95 126 168 224 277 327 385
#     4  11  24  45  68  92 130 167 218 274 329 382
#     4   9  21  39  66  95 131 168 214 262 311 386
#     4  10  20  40  66  96 129 172 211 254 324 396
#     4  10  24  39  66  94 133 176 213 265 326 390
#     4  11  24  42  66  99 129 169 213 270 324 380
#
# _framework density 20.476324000000002
#
# number of rings (size 3 to 8) (size 9 to 14) (size 15 to 20)
#    0.000    1.600    4.000    0.400    3.733    6.400 
#    2.400    0.000    0.000    0.000    0.000    0.000 
#    0.000    0.000    0.000    0.000    0.000    0.000 
#
# Total GULP energy -743520.682267 kJ/mol
# GULP energy per Si atom -12392.011371 kJ/mol
# Density = 2.042972 g / cm^3
# Si number density = 20.476324 Si / 1000 Ang^3
#
#
#
# Elastic Constant Matrix: (Units=GPa)
#
#
# Indices 1 2 3 4 5 6 
#
# 1 77.5031 54.0199 17.2014 0.0000 0.0000 0.0000
# 2 54.0199 158.3823 36.6991 0.0000 0.0000 0.0000
# 3 17.2014 36.6991 96.0393 0.0000 0.0000 0.0000
# 4 0.0000 0.0000 0.0000 23.5049 0.0000 0.0000
# 5 0.0000 0.0000 0.0000 0.0000 30.0807 0.0000
# 6 0.0000 0.0000 0.0000 0.0000 0.0000 41.9299
#
#
#
# Elastic Compliance Matrix: (Units=1/GPa)
#
#
# Indices 1 2 3 4 5 6 
#
# 1 0.016999 -0.005587 -0.000910 0.000000 0.000000 0.000000
# 2 -0.005587 0.008764 -0.002348 0.000000 0.000000 0.000000
# 3 -0.000910 -0.002348 0.011473 0.000000 0.000000 0.000000
# 4 0.000000 0.000000 0.000000 0.042544 0.000000 0.000000
# 5 0.000000 0.000000 0.000000 0.000000 0.033244 0.000000
# 6 0.000000 0.000000 0.000000 0.000000 0.000000 0.023849
#
#
# Mechanical properties :
#
#
# Convention : Reuss Voigt Hill
#
# Bulk Modulus (GPa) = 51.16314 60.86283 56.01299
# Shear Modulus (GPa) = 31.04106 34.03675 32.53891
#
# Velocity S-wave (km/s) = 3.89774 4.08149 3.99068
# Velocity P-wave (km/s) = 6.73032 7.21107 6.97484
#
# Compressibility (1/GPa) = 0.01954532
#
# Stress axis : x y z
#
# Youngs Moduli (GPa) = 58.82774 114.10963 87.16428
#
# Poissons Ratio (x) = 0.63754 0.07929
# Poissons Ratio (y) = 0.32867 0.20467
# Poissons Ratio (z) = 0.05351 0.26794
#
# Static dielectric constant tensor:
#      x y z
#    x 3.906930 0.000000 0.000000 
#    y 0.000000 3.934760 0.000000 
#    z 0.000000 0.000000 3.611980 
# 
# 
# High freq. dielectric constant tensor:
#      x y z
#    x 1.800900 0.000000 0.000000 
#    y 0.000000 1.806310 0.000000 
#    z 0.000000 0.000000 1.799730 
# 
# From -- ./inp_files/7361.got.cif
#   From: 2010.03.12/outbox.cif.g09.slc.cpg/sg73_4_cif.got.tgz:7361.got - 2010.04.16 15:25:48.
