data_PCOD8296807
_publ_section_title
;
Structure prediction by ZEFSAII (Michael W. Deem and Ramdas Pophale) SiO2 
 PCOD8296807
Probable space group: I B C A 
;
_chemical_formula_sum "Si O2"
_cell_formula_units_Z 104
_cell_length_a 10.899843
_cell_length_b 26.120540
_cell_length_c 16.690135
_cell_angle_alpha 90.000000
_cell_angle_beta 90.000000
_cell_angle_gamma 90.000000
_cell_volume 4751.844749
_symmetry_space_group_name_H-M "I B C A "
_symmetry_group_IT_number 73
_symmetry_cell_setting 'orthorhombic'
loop_
_space_group_symop_operation_xyz
x,y,z
-x,1/2-y,z
x,-y,1/2-z
1/2-x,y,-z
-x,-y,-z
x,1/2+y,-z
-x,y,1/2+z
1/2+x,-y,z
1/2+x,1/2+y,1/2+z
1/2-x,-y,1/2+z
1/2+x,1/2-y,-z
-x,1/2+y,1/2-z
1/2-x,1/2-y,1/2-z
1/2+x,y,1/2-z
1/2-x,1/2+y,z
x,1/2-y,1/2+z
loop_
_atom_site_type_symbol
_atom_site_label
_atom_site_fract_x
_atom_site_fract_y
_atom_site_fract_z
Si Si1 0.341009 0.951874 0.397595
Si Si2 0.105193 0.089307 0.170985
Si Si3 0.473753 0.000000 0.250000
Si Si4 0.750000 0.459015 0.500000
Si Si5 0.049539 0.382793 0.948892
Si Si6 0.855014 0.332634 0.306845
Si Si7 0.000000 0.750000 0.277475
Si Si8 0.903913 0.339167 0.612679
O O1 0.211459 0.921926 0.393627
O O2 0.425430 0.915885 0.453708
O O3 0.393152 0.964506 0.309159
O O4 0.329078 0.006558 0.440147
O O5 0.163806 0.130352 0.231778
O O6 0.976129 0.109335 0.136088
O O7 0.071518 0.035126 0.206194
O O8 0.838486 0.422878 0.448303
O O9 0.036700 0.353569 0.863687
O O10 0.071076 0.338781 0.017023
O O11 0.892149 0.274950 0.277903
O O12 0.738445 0.337380 0.365301
O O13 0.956185 0.792589 0.337922
#
# Coordination Sequence:
#
# PCOD8296807 Si02
#       8
#    16  16   8   8  16  16   8  16
#     4  12  25  39  64  99 141 189 238 280 332 410
#     4  11  24  39  65  98 138 183 234 283 333 403
#     4  12  22  38  62 100 136 190 238 280 338 402
#     4  12  24  42  62  98 142 188 234 272 346 406
#     4  12  24  43  68  97 138 185 222 285 343 409
#     4  11  23  45  69 101 131 174 226 282 351 414
#     4  10  26  44  76 102 124 168 224 294 354 420
#     4  11  23  46  69  96 134 173 222 285 353 418
#
# _framework density 21.886237000000001
#
# number of rings (size 3 to 8) (size 9 to 14) (size 15 to 20)
#    0.000    0.615    3.077    5.077    4.308    0.615 
#    0.000    0.000    0.000    0.000    0.000    0.000 
#    0.000    0.000    0.000    0.000    0.000    0.000 
#
# Total GULP energy -644448.297341 kJ/mol
# GULP energy per Si atom -12393.236487 kJ/mol
# Density = 2.183642 g / cm^3
# Si number density = 21.886237 Si / 1000 Ang^3
#
#
#
# Elastic Constant Matrix: (Units=GPa)
#
#
# Indices 1 2 3 4 5 6 
#
# 1 105.5372 44.4982 19.6511 0.0000 0.0001 0.0000
# 2 44.4982 109.9909 25.7467 0.0000 0.0001 0.0000
# 3 19.6511 25.7467 60.0279 0.0005 0.0001 0.0001
# 4 0.0000 0.0000 0.0005 43.9511 0.0000 0.0000
# 5 0.0001 0.0001 0.0001 0.0000 44.5283 0.0000
# 6 0.0000 0.0000 0.0001 0.0000 0.0000 15.4115
#
#
#
# Elastic Compliance Matrix: (Units=1/GPa)
#
#
# Indices 1 2 3 4 5 6 
#
# 1 0.011634 -0.004241 -0.001990 0.000000 0.000000 0.000000
# 2 -0.004241 0.011652 -0.003609 0.000000 0.000000 0.000000
# 3 -0.001990 -0.003609 0.018858 0.000000 0.000000 0.000000
# 4 0.000000 0.000000 0.000000 0.022753 0.000000 0.000000
# 5 0.000000 0.000000 0.000000 0.000000 0.022458 0.000000
# 6 0.000000 0.000000 0.000000 0.000000 0.000000 0.064887
#
#
# Mechanical properties :
#
#
# Convention : Reuss Voigt Hill
#
# Bulk Modulus (GPa) = 44.51436 50.59423 47.55430
# Shear Modulus (GPa) = 27.86921 33.15551 30.51236
#
# Velocity S-wave (km/s) = 3.57230 3.89640 3.73786
# Velocity P-wave (km/s) = 6.11541 6.58860 6.35641
#
# Compressibility (1/GPa) = 0.02246466
#
# Stress axis : x y z
#
# Youngs Moduli (GPa) = 85.95563 85.82010 53.02681
#
# Poissons Ratio (x) = 0.36396 0.10550
# Poissons Ratio (y) = 0.36453 0.19140
# Poissons Ratio (z) = 0.17101 0.30976
#
# Static dielectric constant tensor:
#      x y z
#    x 4.074950 0.000000 0.000000 
#    y 0.000000 5.586340 0.000000 
#    z 0.000000 0.000000 4.176670 
# 
# 
# High freq. dielectric constant tensor:
#      x y z
#    x 1.865890 0.000000 0.000000 
#    y 0.000000 1.855120 0.000000 
#    z 0.000000 0.000000 1.869330 
# 
# From -- ./inp_files/21485.got.cif
#   From: 2010.03.12/outbox.cif.g09.slc.cpg/sg73_11_cif.got.tgz:21485.got - 2010.04.16 15:25:48.
