data_PCOD8296455
_publ_section_title
;
Structure prediction by ZEFSAII (Michael W. Deem and Ramdas Pophale) SiO2 
 PCOD8296455
Probable space group: I B C A 
;
_chemical_formula_sum "Si O2"
_cell_formula_units_Z 72
_cell_length_a 10.662872
_cell_length_b 22.013797
_cell_length_c 14.012828
_cell_angle_alpha 90.000000
_cell_angle_beta 90.000000
_cell_angle_gamma 90.000000
_cell_volume 3289.235315
_symmetry_space_group_name_H-M "I B C A "
_symmetry_group_IT_number 73
_symmetry_cell_setting 'orthorhombic'
loop_
_space_group_symop_operation_xyz
x,y,z
-x,1/2-y,z
x,-y,1/2-z
1/2-x,y,-z
-x,-y,-z
x,1/2+y,-z
-x,y,1/2+z
1/2+x,-y,z
1/2+x,1/2+y,1/2+z
1/2-x,-y,1/2+z
1/2+x,1/2-y,-z
-x,1/2+y,1/2-z
1/2-x,1/2-y,1/2-z
1/2+x,y,1/2-z
1/2-x,1/2+y,z
x,1/2-y,1/2+z
loop_
_atom_site_type_symbol
_atom_site_label
_atom_site_fract_x
_atom_site_fract_y
_atom_site_fract_z
Si Si1 0.750000 0.708124 0.500000
Si Si2 0.874069 0.490939 0.938153
Si Si3 0.337400 0.120393 0.368854
Si Si4 0.092308 0.319544 0.958053
Si Si5 0.634730 0.637070 0.348608
O O1 0.627005 0.750521 0.488993
O O2 0.755577 0.664185 0.406176
O O3 0.847798 0.547683 0.868428
O O4 0.891833 0.433080 0.870582
O O5 0.750000 0.480895 0.000000
O O6 0.000000 0.500000 0.000000
O O7 0.443044 0.145627 0.442787
O O8 0.206105 0.144765 0.408271
O O9 0.352395 0.146911 0.263487
O O10 0.980437 0.321666 0.883532
#
# Coordination Sequence:
#
# PCOD8296455 Si02
#       5
#     8  16  16  16  16
#     4  10  24  42  64  96 128 172 226 278 328 406
#     4  12  22  42  68  99 141 180 225 291 354 414
#     4  10  22  42  66  96 135 181 222 280 349 411
#     4  10  23  45  64  93 146 175 224 289 344 400
#     4  12  23  40  71  99 132 182 232 280 347 421
#
# _framework density 21.889585
#
# number of rings (size 3 to 8) (size 9 to 14) (size 15 to 20)
#    0.000    1.333    5.556    1.333    0.000    7.111 
#    0.000    8.889    0.000    0.000    0.000    0.000 
#    0.000    0.000    0.000    0.000    0.000    0.000 
#
# Total GULP energy -446093.983772 kJ/mol
# GULP energy per Si atom -12391.499549 kJ/mol
# Density = 2.183976 g / cm^3
# Si number density = 21.889585 Si / 1000 Ang^3
#
#
#
# Elastic Constant Matrix: (Units=GPa)
#
#
# Indices 1 2 3 4 5 6 
#
# 1 94.7873 16.0411 51.2057 0.0000 0.0000 0.0000
# 2 16.0411 132.9382 59.8877 -0.0001 0.0000 0.0000
# 3 51.2057 59.8877 207.3716 0.0001 0.0000 0.0000
# 4 0.0000 -0.0001 0.0001 27.0247 0.0000 0.0000
# 5 0.0000 0.0000 0.0000 0.0000 23.5822 0.0000
# 6 0.0000 0.0000 0.0000 0.0000 0.0000 16.8712
#
#
#
# Elastic Compliance Matrix: (Units=1/GPa)
#
#
# Indices 1 2 3 4 5 6 
#
# 1 0.012176 -0.000132 -0.002968 0.000000 0.000000 0.000000
# 2 -0.000132 0.008649 -0.002465 0.000000 0.000000 0.000000
# 3 -0.002968 -0.002465 0.006267 0.000000 0.000000 0.000000
# 4 0.000000 0.000000 0.000000 0.037003 0.000000 0.000000
# 5 0.000000 0.000000 0.000000 0.000000 0.042405 0.000000
# 6 0.000000 0.000000 0.000000 0.000000 0.000000 0.059273
#
#
# Mechanical properties :
#
#
# Convention : Reuss Voigt Hill
#
# Bulk Modulus (GPa) = 62.65372 76.59622 69.62497
# Shear Modulus (GPa) = 27.43878 34.02645 30.73262
#
# Velocity S-wave (km/s) = 3.54433 3.94694 3.75104
# Velocity P-wave (km/s) = 6.74051 7.47256 7.11596
#
# Compressibility (1/GPa) = 0.01596074
#
# Stress axis : x y z
#
# Youngs Moduli (GPa) = 82.12959 115.62382 159.56171
#
# Poissons Ratio (x) = 0.01526 0.47365
# Poissons Ratio (y) = 0.01084 0.39334
# Poissons Ratio (z) = 0.24380 0.28503
#
# Static dielectric constant tensor:
#      x y z
#    x 4.044790 0.000000 0.000000 
#    y 0.000000 4.330030 0.000000 
#    z 0.000000 0.000000 3.916360 
# 
# 
# High freq. dielectric constant tensor:
#      x y z
#    x 1.853850 0.000000 0.000000 
#    y 0.000000 1.888510 0.000000 
#    z 0.000000 0.000000 1.849210 
# 
# From -- ./inp_files/10614.got.cif
#   From: 2010.03.12/outbox.cif.g09.slc.cpg/sg73_6_cif.got.tgz:10614.got - 2010.04.16 15:25:48.
