data_PCOD8296935
_publ_section_title
;
Structure prediction by ZEFSAII (Michael W. Deem and Ramdas Pophale) SiO2 
 PCOD8296935
Probable space group: I B C A 
;
_chemical_formula_sum "Si O2"
_cell_formula_units_Z 96
_cell_length_a 21.555111
_cell_length_b 16.598168
_cell_length_c 11.460386
_cell_angle_alpha 90.000000
_cell_angle_beta 90.000000
_cell_angle_gamma 90.000000
_cell_volume 4100.243654
_symmetry_space_group_name_H-M "I B C A "
_symmetry_group_IT_number 73
_symmetry_cell_setting 'orthorhombic'
loop_
_space_group_symop_operation_xyz
x,y,z
-x,1/2-y,z
x,-y,1/2-z
1/2-x,y,-z
-x,-y,-z
x,1/2+y,-z
-x,y,1/2+z
1/2+x,-y,z
1/2+x,1/2+y,1/2+z
1/2-x,-y,1/2+z
1/2+x,1/2-y,-z
-x,1/2+y,1/2-z
1/2-x,1/2-y,1/2-z
1/2+x,y,1/2-z
1/2-x,1/2+y,z
x,1/2-y,1/2+z
loop_
_atom_site_type_symbol
_atom_site_label
_atom_site_fract_x
_atom_site_fract_y
_atom_site_fract_z
Si Si1 0.617335 0.290571 0.504785
Si Si2 0.896751 0.057995 0.399562
Si Si3 0.162940 0.605675 0.311359
Si Si4 0.983709 0.156007 0.831527
Si Si5 0.787292 0.325204 0.298445
Si Si6 0.105136 0.366019 0.625048
O O1 0.634168 0.317064 0.374067
O O2 0.563942 0.345775 0.560462
O O3 0.677673 0.297034 0.585725
O O4 0.594538 0.199867 0.479665
O O5 0.849424 0.116238 0.327523
O O6 0.889470 0.056131 0.540482
O O7 0.964673 0.089248 0.359508
O O8 0.876607 0.968933 0.360300
O O9 0.237640 0.603808 0.330408
O O10 0.953310 0.127107 0.709877
O O11 0.000000 0.250000 0.812013
O O12 0.750000 0.250000 0.250000
O O13 0.832493 0.357542 0.198353
#
# Coordination Sequence:
#
# PCOD8296935 Si02
#       6
#    16  16  16  16  16  16
#     4  11  23  42  72 107 142 188 243 308 366 420
#     4  11  26  46  67 102 144 193 236 292 372 432
#     4  11  25  46  66 101 146 187 239 295 368 433
#     4  11  24  41  71 107 142 184 247 307 354 437
#     4  11  23  43  73 106 141 182 249 306 354 430
#     4  11  24  43  73 105 139 188 246 297 365 428
#
# _framework density 23.413243000000001
#
# number of rings (size 3 to 8) (size 9 to 14) (size 15 to 20)
#    0.000    1.000    3.333    2.500    4.667    2.667 
#   15.000    1.667    0.000    0.000    0.000    0.000 
#    0.000    0.000    0.000    0.000    0.000    0.000 
#
# Total GULP energy -594724.138868 kJ/mol
# GULP energy per Si atom -12390.086226 kJ/mol
# Density = 2.335995 g / cm^3
# Si number density = 23.413243 Si / 1000 Ang^3
#
#
#
# Elastic Constant Matrix: (Units=GPa)
#
#
# Indices 1 2 3 4 5 6 
#
# 1 130.3449 47.6697 22.7839 0.0000 0.0000 0.0000
# 2 47.6697 61.6511 12.9399 0.0000 0.0000 0.0000
# 3 22.7839 12.9399 105.7666 0.0000 0.0000 0.0000
# 4 0.0000 0.0000 0.0000 30.7865 0.0000 0.0000
# 5 0.0000 0.0000 0.0000 0.0000 27.9964 0.0000
# 6 0.0000 0.0000 0.0000 0.0000 0.0000 37.2046
#
#
#
# Elastic Compliance Matrix: (Units=1/GPa)
#
#
# Indices 1 2 3 4 5 6 
#
# 1 0.010881 -0.008130 -0.001349 0.000000 0.000000 0.000000
# 2 -0.008130 0.022723 -0.001029 0.000000 0.000000 0.000000
# 3 -0.001349 -0.001029 0.009871 0.000000 0.000000 0.000000
# 4 0.000000 0.000000 0.000000 0.032482 0.000000 0.000000
# 5 0.000000 0.000000 0.000000 0.000000 0.035719 0.000000
# 6 0.000000 0.000000 0.000000 0.000000 0.000000 0.026878
#
#
# Mechanical properties :
#
#
# Convention : Reuss Voigt Hill
#
# Bulk Modulus (GPa) = 44.52601 51.61663 48.07132
# Shear Modulus (GPa) = 29.92990 33.48878 31.70934
#
# Velocity S-wave (km/s) = 3.57926 3.78608 3.68412
# Velocity P-wave (km/s) = 6.01167 6.41921 6.21878
#
# Compressibility (1/GPa) = 0.02245878
#
# Stress axis : x y z
#
# Youngs Moduli (GPa) = 91.90127 44.00878 101.30393
#
# Poissons Ratio (x) = 0.35781 0.13669
# Poissons Ratio (y) = 0.74719 0.10420
# Poissons Ratio (z) = 0.12400 0.04527
#
# Static dielectric constant tensor:
#      x y z
#    x 4.592970 0.000000 0.000000 
#    y 0.000000 4.133020 0.000000 
#    z 0.000000 0.000000 4.777640 
# 
# 
# High freq. dielectric constant tensor:
#      x y z
#    x 1.931810 0.000000 0.000000 
#    y 0.000000 1.907140 0.000000 
#    z 0.000000 0.000000 1.950310 
# 
# From -- ./inp_files/13620.got.cif
#   From: 2010.03.12/outbox.cif.g09.slc.cpg/sg73_7_cif.got.tgz:13620.got - 2010.04.16 15:25:48.
