data_PCOD8296378
_publ_section_title
;
Structure prediction by ZEFSAII (Michael W. Deem and Ramdas Pophale) SiO2 
 PCOD8296378
Probable space group: I B C A 
;
_chemical_formula_sum "Si O2"
_cell_formula_units_Z 56
_cell_length_a 5.029991
_cell_length_b 33.227944
_cell_length_c 15.012894
_cell_angle_alpha 90.000000
_cell_angle_beta 90.000000
_cell_angle_gamma 90.000000
_cell_volume 2509.198944
_symmetry_space_group_name_H-M "I B C A "
_symmetry_group_IT_number 73
_symmetry_cell_setting 'orthorhombic'
loop_
_space_group_symop_operation_xyz
x,y,z
-x,1/2-y,z
x,-y,1/2-z
1/2-x,y,-z
-x,-y,-z
x,1/2+y,-z
-x,y,1/2+z
1/2+x,-y,z
1/2+x,1/2+y,1/2+z
1/2-x,-y,1/2+z
1/2+x,1/2-y,-z
-x,1/2+y,1/2-z
1/2-x,1/2-y,1/2-z
1/2+x,y,1/2-z
1/2-x,1/2+y,z
x,1/2-y,1/2+z
loop_
_atom_site_type_symbol
_atom_site_label
_atom_site_fract_x
_atom_site_fract_y
_atom_site_fract_z
Si Si1 0.500000 0.250000 0.812218
Si Si2 0.748423 0.474448 0.103071
Si Si3 0.009204 0.823891 0.440805
Si Si4 0.172728 0.608936 0.807911
O O1 0.750000 0.250000 0.750000
O O2 0.455106 0.289546 0.869918
O O3 0.452214 0.489476 0.125342
O O4 0.834989 0.437380 0.163743
O O5 0.750000 0.461353 0.000000
O O6 0.250000 0.807519 0.500000
O O7 0.105326 0.864715 0.393906
O O8 0.750000 0.832933 0.500000
O O9 0.464824 0.618859 0.770699
#
# Coordination Sequence:
#
# PCOD8296378 Si02
#       4
#     8  16  16  16
#     4  12  24  44  70 100 134 164 206 262 318 370
#     4  10  22  40  62  88 122 165 211 259 316 381
#     4  12  25  44  68  95 129 171 215 255 310 381
#     4  12  25  41  63  94 129 166 212 267 323 372
#
# _framework density 22.317879000000001
#
# number of rings (size 3 to 8) (size 9 to 14) (size 15 to 20)
#    0.000    0.571    0.000    8.571    0.000    6.857 
#    0.000    0.000    0.000    0.000    0.000    0.000 
#    0.000    0.000    0.000    0.000    0.000    0.000 
#
# Total GULP energy -347367.934547 kJ/mol
# GULP energy per Si atom -12405.997662 kJ/mol
# Density = 2.226708 g / cm^3
# Si number density = 22.317879 Si / 1000 Ang^3
#
#
#
# Elastic Constant Matrix: (Units=GPa)
#
#
# Indices 1 2 3 4 5 6 
#
# 1 143.2938 24.0897 52.5994 0.0000 0.0000 0.0000
# 2 24.0897 94.8613 46.6532 0.0000 0.0000 0.0000
# 3 52.5994 46.6532 108.9462 -0.0007 0.0000 0.0000
# 4 0.0000 0.0000 -0.0007 -126.6847 0.0000 -0.0001
# 5 0.0000 0.0000 0.0000 0.0000 53.5175 0.0000
# 6 0.0000 0.0000 0.0000 -0.0001 0.0000 27.3145
#
#
#
# Elastic Compliance Matrix: (Units=1/GPa)
#
#
# Indices 1 2 3 4 5 6 
#
# 1 0.008484 -0.000177 -0.004020 0.000000 0.000000 0.000000
# 2 -0.000177 0.013358 -0.005634 0.000000 0.000000 0.000000
# 3 -0.004020 -0.005634 0.013533 0.000000 0.000000 0.000000
# 4 0.000000 0.000000 0.000000 -0.007894 0.000000 0.000000
# 5 0.000000 0.000000 0.000000 0.000000 0.018685 0.000000
# 6 0.000000 0.000000 0.000000 0.000000 0.000000 0.036611
#
#
# Mechanical properties :
#
#
# Convention : Reuss Voigt Hill
#
# Bulk Modulus (GPa) = 63.65178 65.97621 64.81400
# Shear Modulus (GPa) = 46.43469 5.74671 26.09070
#
# Velocity S-wave (km/s) = 4.56631 1.60640 3.42285
# Velocity P-wave (km/s) = 7.50893 5.75038 6.68771
#
# Compressibility (1/GPa) = 0.01571048
#
# Stress axis : x y z
#
# Youngs Moduli (GPa) = 117.86596 74.86259 73.89545
#
# Poissons Ratio (x) = 0.01328 0.29708
# Poissons Ratio (y) = 0.02091 0.41636
# Poissons Ratio (z) = 0.47385 0.42181
#
# Static dielectric constant tensor:
#      x y z
#    x 4.193690 0.000000 0.000000 
#    y 0.000000 3.934080 0.000000 
#    z 0.000000 0.000000 4.257430 
# 
# 
# High freq. dielectric constant tensor:
#      x y z
#    x 1.898590 0.000000 0.000000 
#    y 0.000000 1.881930 0.000000 
#    z 0.000000 0.000000 1.894830 
# 
# From -- ./inp_files/708.got.cif
#   From: 2010.03.12/outbox.cif.g09.slc.cpg/sg73_1_cif.got.tgz:708.got - 2010.04.16 15:25:48.
