data_PCOD8296722
_publ_section_title
;
Structure prediction by ZEFSAII (Michael W. Deem and Ramdas Pophale) SiO2 
 PCOD8296722
Probable space group: I B C A 
;
_chemical_formula_sum "Si O2"
_cell_formula_units_Z 72
_cell_length_a 13.550154
_cell_length_b 28.951162
_cell_length_c 8.214809
_cell_angle_alpha 90.000000
_cell_angle_beta 90.000000
_cell_angle_gamma 90.000000
_cell_volume 3222.609632
_symmetry_space_group_name_H-M "I B C A "
_symmetry_group_IT_number 73
_symmetry_cell_setting 'orthorhombic'
loop_
_space_group_symop_operation_xyz
x,y,z
-x,1/2-y,z
x,-y,1/2-z
1/2-x,y,-z
-x,-y,-z
x,1/2+y,-z
-x,y,1/2+z
1/2+x,-y,z
1/2+x,1/2+y,1/2+z
1/2-x,-y,1/2+z
1/2+x,1/2-y,-z
-x,1/2+y,1/2-z
1/2-x,1/2-y,1/2-z
1/2+x,y,1/2-z
1/2-x,1/2+y,z
x,1/2-y,1/2+z
loop_
_atom_site_type_symbol
_atom_site_label
_atom_site_fract_x
_atom_site_fract_y
_atom_site_fract_z
Si Si1 0.991890 0.000000 0.750000
Si Si2 0.471199 0.197393 0.659648
Si Si3 0.377340 0.150677 0.362445
Si Si4 0.720418 0.299811 0.816168
Si Si5 0.367465 0.548811 0.499590
O O1 0.917672 0.960055 0.678464
O O2 0.068705 0.983536 0.884907
O O3 0.500000 0.250000 0.640709
O O4 0.414011 0.187015 0.494255
O O5 0.558543 0.161122 0.698538
O O6 0.396514 0.193254 0.812029
O O7 0.266002 0.161291 0.305246
O O8 0.384553 0.100101 0.435514
O O9 0.750000 0.250000 0.750000
O O10 0.750000 0.307769 0.000000
O O11 0.250000 0.536517 0.500000
#
# Coordination Sequence:
#
# PCOD8296722 Si02
#       5
#     8  16  16  16  16
#     4  10  24  44  74 102 136 174 224 292 364 436
#     4  12  24  40  62  91 129 178 228 277 333 394
#     4  12  25  42  67  97 133 176 228 283 337 415
#     4  12  25  42  62  89 129 180 233 282 338 400
#     4  11  23  45  71 103 137 177 226 286 363 434
#
# _framework density 22.342140000000001
#
# number of rings (size 3 to 8) (size 9 to 14) (size 15 to 20)
#    0.000    0.444    2.222    7.333    0.000    0.000 
#    0.000    3.333    0.000    0.000    0.000    0.000 
#    0.000    0.000    0.000    0.000    0.000    0.000 
#
# Total GULP energy -446227.532243 kJ/mol
# GULP energy per Si atom -12395.209229 kJ/mol
# Density = 2.229129 g / cm^3
# Si number density = 22.342140 Si / 1000 Ang^3
#
#
#
# Elastic Constant Matrix: (Units=GPa)
#
#
# Indices 1 2 3 4 5 6 
#
# 1 140.9346 42.7260 24.1080 -0.0016 -0.0005 0.0005
# 2 42.7260 120.1993 31.3978 -0.0014 -0.0043 -0.0008
# 3 24.1080 31.3978 89.1684 -0.0034 -0.0025 0.0048
# 4 -0.0016 -0.0014 -0.0034 24.4969 -0.0022 0.0000
# 5 -0.0005 -0.0043 -0.0025 -0.0022 29.2702 -0.0045
# 6 0.0005 -0.0008 0.0048 0.0000 -0.0045 35.9451
#
#
#
# Elastic Compliance Matrix: (Units=1/GPa)
#
#
# Indices 1 2 3 4 5 6 
#
# 1 0.008086 -0.002536 -0.001293 0.000000 0.000000 0.000000
# 2 -0.002536 0.009958 -0.002821 0.000000 0.000001 0.000001
# 3 -0.001293 -0.002821 0.012557 0.000002 0.000001 -0.000002
# 4 0.000000 0.000000 0.000002 0.040822 0.000003 0.000000
# 5 0.000000 0.000001 0.000001 0.000003 0.034164 0.000004
# 6 0.000000 0.000001 -0.000002 0.000000 0.000004 0.027820
#
#
# Mechanical properties :
#
#
# Convention : Reuss Voigt Hill
#
# Bulk Modulus (GPa) = 57.79975 60.75174 59.27575
# Shear Modulus (GPa) = 32.79248 34.74715 33.76982
#
# Velocity S-wave (km/s) = 3.83527 3.94792 3.89200
# Velocity P-wave (km/s) = 6.74825 6.93051 6.83999
#
# Compressibility (1/GPa) = 0.01730111
#
# Stress axis : x y z
#
# Youngs Moduli (GPa) = 123.67689 100.42310 79.63372
#
# Poissons Ratio (x) = 0.25471 0.10296
# Poissons Ratio (y) = 0.31369 0.22462
# Poissons Ratio (z) = 0.15991 0.28325
#
# Static dielectric constant tensor:
#      x y z
#    x 4.787930 0.000010 0.000040 
#    y 0.000010 3.735120 -0.000030 
#    z 0.000040 -0.000030 4.302340 
# 
# 
# High freq. dielectric constant tensor:
#      x y z
#    x 1.909060 0.000000 0.000000 
#    y 0.000000 1.854370 0.000000 
#    z 0.000000 0.000000 1.897020 
# 
# From -- ./inp_files/4774.got.cif
#   From: 2010.03.12/outbox.cif.g09.slc.cpg/sg73_3_cif.got.tgz:4774.got - 2010.04.16 15:25:48.
