data_PCOD8296668
_publ_section_title
;
Structure prediction by ZEFSAII (Michael W. Deem and Ramdas Pophale) SiO2 
 PCOD8296668
Probable space group: I B C A 
;
_chemical_formula_sum "Si O2"
_cell_formula_units_Z 104
_cell_length_a 19.666903
_cell_length_b 17.149801
_cell_length_c 15.028565
_cell_angle_alpha 90.000000
_cell_angle_beta 90.000000
_cell_angle_gamma 90.000000
_cell_volume 5068.886593
_symmetry_space_group_name_H-M "I B C A "
_symmetry_group_IT_number 73
_symmetry_cell_setting 'orthorhombic'
loop_
_space_group_symop_operation_xyz
x,y,z
-x,1/2-y,z
x,-y,1/2-z
1/2-x,y,-z
-x,-y,-z
x,1/2+y,-z
-x,y,1/2+z
1/2+x,-y,z
1/2+x,1/2+y,1/2+z
1/2-x,-y,1/2+z
1/2+x,1/2-y,-z
-x,1/2+y,1/2-z
1/2-x,1/2-y,1/2-z
1/2+x,y,1/2-z
1/2-x,1/2+y,z
x,1/2-y,1/2+z
loop_
_atom_site_type_symbol
_atom_site_label
_atom_site_fract_x
_atom_site_fract_y
_atom_site_fract_z
Si Si1 0.764106 0.824024 0.686018
Si Si2 0.416051 0.667490 0.356912
Si Si3 0.494585 0.909134 0.012596
Si Si4 0.518393 0.663187 0.199049
Si Si5 0.148443 0.911650 0.734621
Si Si6 0.379287 0.671249 0.932943
Si Si7 0.250000 0.752081 0.000000
O O1 0.750000 0.750000 0.750000
O O2 0.841925 0.852874 0.682389
O O3 0.721065 0.897852 0.719263
O O4 0.740652 0.804638 0.586632
O O5 0.433991 0.623199 0.449230
O O6 0.469672 0.641077 0.281750
O O7 0.416785 0.760004 0.376952
O O8 0.565481 0.867901 0.994076
O O9 0.484285 0.895216 0.116575
O O10 0.500000 0.000000 0.000000
O O11 0.500000 0.750000 0.166263
O O12 0.595724 0.653160 0.230053
O O13 0.154029 0.894485 0.629935
O O14 0.123965 0.000000 0.750000
O O15 0.318421 0.701664 0.994272
#
# Coordination Sequence:
#
# PCOD8296668 Si02
#       7
#    16  16  16  16  16  16   8
#     4  11  23  45  71  98 136 176 236 281 334 416
#     4  11  23  46  69 101 128 177 238 284 321 416
#     4  12  27  42  63 103 139 173 221 291 349 403
#     4  12  23  41  74  94 126 182 230 267 346 407
#     4  12  25  44  66 101 141 180 219 293 358 399
#     4  11  22  45  68  94 140 171 232 284 331 407
#     4  10  24  40  74 100 124 176 234 278 316 404
#
# _framework density 20.517326000000001
#
# number of rings (size 3 to 8) (size 9 to 14) (size 15 to 20)
#    0.000    0.615    6.154    2.308    8.615    0.000 
#    5.538    0.000    0.000    0.000    0.000    0.000 
#    0.000    0.000    0.000    0.000    0.000    0.000 
#
# Total GULP energy -644716.802950 kJ/mol
# GULP energy per Si atom -12398.400057 kJ/mol
# Density = 2.047063 g / cm^3
# Si number density = 20.517326 Si / 1000 Ang^3
#
#
#
# Elastic Constant Matrix: (Units=GPa)
#
#
# Indices 1 2 3 4 5 6 
#
# 1 114.7721 16.3435 24.8050 0.0000 0.0000 0.0000
# 2 16.3435 88.3986 11.0146 0.0000 0.0000 0.0000
# 3 24.8050 11.0146 112.1033 0.0000 0.0000 0.0000
# 4 0.0000 0.0000 0.0000 19.6969 0.0000 0.0000
# 5 0.0000 0.0000 0.0000 0.0000 39.1140 0.0000
# 6 0.0000 0.0000 0.0000 0.0000 0.0000 19.2727
#
#
#
# Elastic Compliance Matrix: (Units=1/GPa)
#
#
# Indices 1 2 3 4 5 6 
#
# 1 0.009340 -0.001487 -0.001920 0.000000 0.000000 0.000000
# 2 -0.001487 0.011690 -0.000819 0.000000 0.000000 0.000000
# 3 -0.001920 -0.000819 0.009426 0.000000 0.000000 0.000000
# 4 0.000000 0.000000 0.000000 0.050769 0.000000 0.000000
# 5 0.000000 0.000000 0.000000 0.000000 0.025566 0.000000
# 6 0.000000 0.000000 0.000000 0.000000 0.000000 0.051887
#
#
# Mechanical properties :
#
#
# Convention : Reuss Voigt Hill
#
# Bulk Modulus (GPa) = 45.45376 46.62227 46.03801
# Shear Modulus (GPa) = 28.65892 33.15745 30.90819
#
# Velocity S-wave (km/s) = 3.74145 4.02440 3.88550
# Velocity P-wave (km/s) = 6.39270 6.66086 6.52816
#
# Compressibility (1/GPa) = 0.02200038
#
# Stress axis : x y z
#
# Youngs Moduli (GPa) = 107.06876 85.54680 106.09188
#
# Poissons Ratio (x) = 0.12725 0.20374
# Poissons Ratio (y) = 0.15926 0.08693
# Poissons Ratio (z) = 0.20562 0.07010
#
# Static dielectric constant tensor:
#      x y z
#    x 3.935930 0.000000 0.000000 
#    y 0.000000 3.683200 0.000000 
#    z 0.000000 0.000000 3.924220 
# 
# 
# High freq. dielectric constant tensor:
#      x y z
#    x 1.813710 0.000000 0.000000 
#    y 0.000000 1.781490 0.000000 
#    z 0.000000 0.000000 1.818310 
# 
# From -- ./inp_files/18788.got.cif
#   From: 2010.03.12/outbox.cif.g09.slc.cpg/sg73_10_cif.got.tgz:18788.got - 2010.04.16 15:25:48.
