data_PCOD8296517
_publ_section_title
;
Structure prediction by ZEFSAII (Michael W. Deem and Ramdas Pophale) SiO2 
 PCOD8296517
Probable space group: I B C A 
;
_chemical_formula_sum "Si O2"
_cell_formula_units_Z 88
_cell_length_a 9.959642
_cell_length_b 15.854445
_cell_length_c 28.355064
_cell_angle_alpha 90.000000
_cell_angle_beta 90.000000
_cell_angle_gamma 90.000000
_cell_volume 4477.394934
_symmetry_space_group_name_H-M "I B C A "
_symmetry_group_IT_number 73
_symmetry_cell_setting 'orthorhombic'
loop_
_space_group_symop_operation_xyz
x,y,z
-x,1/2-y,z
x,-y,1/2-z
1/2-x,y,-z
-x,-y,-z
x,1/2+y,-z
-x,y,1/2+z
1/2+x,-y,z
1/2+x,1/2+y,1/2+z
1/2-x,-y,1/2+z
1/2+x,1/2-y,-z
-x,1/2+y,1/2-z
1/2-x,1/2-y,1/2-z
1/2+x,y,1/2-z
1/2-x,1/2+y,z
x,1/2-y,1/2+z
loop_
_atom_site_type_symbol
_atom_site_label
_atom_site_fract_x
_atom_site_fract_y
_atom_site_fract_z
Si Si1 0.616121 0.552922 0.442149
Si Si2 0.709896 0.183905 0.822860
Si Si3 0.000000 0.250000 0.104300
Si Si4 0.086662 0.408430 0.548050
Si Si5 0.017747 0.850245 0.141708
Si Si6 0.116129 0.683041 0.227616
O O1 0.547297 0.461213 0.439532
O O2 0.776578 0.546111 0.432981
O O3 0.592566 0.599810 0.491703
O O4 0.540078 0.608888 0.404438
O O5 0.601260 0.199512 0.862855
O O6 0.825202 0.130377 0.849389
O O7 0.757888 0.271222 0.798201
O O8 0.652534 0.134306 0.776554
O O9 0.077696 0.183851 0.070967
O O10 0.000000 0.750000 0.137495
O O11 0.938937 0.883116 0.188485
O O12 0.000000 0.750000 0.240138
#
# Coordination Sequence:
#
# PCOD8296517 Si02
#       6
#    16  16   8  16  16  16
#     4  10  22  45  59  88 121 162 194 253 302 374
#     4   9  17  28  52  87 118 147 197 241 298 343
#     4  12  22  36  58  98 114 160 202 260 280 370
#     4  10  24  41  64  86 125 156 205 244 311 346
#     4   9  18  31  58  86 111 158 196 240 298 357
#     4   8  14  29  48  83 117 151 188 250 288 351
#
# _framework density 19.654285999999999
#
# number of rings (size 3 to 8) (size 9 to 14) (size 15 to 20)
#    0.000    2.909    0.909    2.182    3.818    0.000 
#    0.000    0.000    0.000    1.091    4.727    0.000 
#    0.000    0.000    0.000    0.000    0.000    0.000 
#
# Total GULP energy -545077.997251 kJ/mol
# GULP energy per Si atom -12388.136301 kJ/mol
# Density = 1.960955 g / cm^3
# Si number density = 19.654286 Si / 1000 Ang^3
#
#
#
# Elastic Constant Matrix: (Units=GPa)
#
#
# Indices 1 2 3 4 5 6 
#
# 1 121.7956 22.8759 54.1837 0.0000 0.0000 0.0000
# 2 22.8759 37.5367 34.0122 0.0000 0.0000 0.0000
# 3 54.1837 34.0122 126.8000 0.0000 0.0000 0.0000
# 4 0.0000 0.0000 0.0000 -236.5539 0.0000 0.0000
# 5 0.0000 0.0000 0.0000 0.0000 39.3129 0.0000
# 6 0.0000 0.0000 0.0000 0.0000 0.0000 19.5720
#
#
#
# Elastic Compliance Matrix: (Units=1/GPa)
#
#
# Indices 1 2 3 4 5 6 
#
# 1 0.010396 -0.003052 -0.003624 0.000000 0.000000 0.000000
# 2 -0.003052 0.036091 -0.008377 0.000000 0.000000 0.000000
# 3 -0.003624 -0.008377 0.011682 0.000000 0.000000 0.000000
# 4 0.000000 0.000000 0.000000 -0.004227 0.000000 0.000000
# 5 0.000000 0.000000 0.000000 0.000000 0.025437 0.000000
# 6 0.000000 0.000000 0.000000 0.000000 0.000000 0.051093
#
#
# Mechanical properties :
#
#
# Convention : Reuss Voigt Hill
#
# Bulk Modulus (GPa) = 35.63330 56.47512 46.05421
# Shear Modulus (GPa) = 29.42382 -23.86310 2.78036
#
# Velocity S-wave (km/s) = 3.87340 -3.48824 1.19067
# Velocity P-wave (km/s) = 6.17848 3.54583 5.03719
#
# Compressibility (1/GPa) = 0.02806364
#
# Stress axis : x y z
#
# Youngs Moduli (GPa) = 96.19285 27.70798 85.60350
#
# Poissons Ratio (x) = 0.08457 0.31019
# Poissons Ratio (y) = 0.29359 0.71707
# Poissons Ratio (z) = 0.34857 0.23210
#
# Static dielectric constant tensor:
#      x y z
#    x 3.985570 0.000000 0.000000 
#    y 0.000000 2.922970 0.000000 
#    z 0.000000 0.000000 4.018080 
# 
# 
# High freq. dielectric constant tensor:
#      x y z
#    x 1.786740 0.000000 0.000000 
#    y 0.000000 1.690950 0.000000 
#    z 0.000000 0.000000 1.790150 
# 
# From -- ./inp_files/33958.got.cif
#   From: 2010.03.12/outbox.cif.g09.slc.cpg/sg73_17_cif.got.tgz:33958.got - 2010.04.16 15:25:48.
