data_PCOD8296647
_publ_section_title
;
Structure prediction by ZEFSAII (Michael W. Deem and Ramdas Pophale) SiO2 
 PCOD8296647
Probable space group: I B C A 
;
_chemical_formula_sum "Si O2"
_cell_formula_units_Z 96
_cell_length_a 13.626686
_cell_length_b 18.745595
_cell_length_c 14.920549
_cell_angle_alpha 90.000000
_cell_angle_beta 90.000000
_cell_angle_gamma 90.000000
_cell_volume 3811.310064
_symmetry_space_group_name_H-M "I B C A "
_symmetry_group_IT_number 73
_symmetry_cell_setting 'orthorhombic'
loop_
_space_group_symop_operation_xyz
x,y,z
-x,1/2-y,z
x,-y,1/2-z
1/2-x,y,-z
-x,-y,-z
x,1/2+y,-z
-x,y,1/2+z
1/2+x,-y,z
1/2+x,1/2+y,1/2+z
1/2-x,-y,1/2+z
1/2+x,1/2-y,-z
-x,1/2+y,1/2-z
1/2-x,1/2-y,1/2-z
1/2+x,y,1/2-z
1/2-x,1/2+y,z
x,1/2-y,1/2+z
loop_
_atom_site_type_symbol
_atom_site_label
_atom_site_fract_x
_atom_site_fract_y
_atom_site_fract_z
Si Si1 0.124404 0.293970 0.428533
Si Si2 0.908027 0.889784 0.338345
Si Si3 0.141517 0.543830 0.516051
Si Si4 0.286091 0.814707 0.808056
Si Si5 0.500000 0.250000 0.910896
Si Si6 0.472703 0.117998 0.677021
Si Si7 0.250000 0.408347 0.500000
O O1 0.175208 0.219300 0.401755
O O2 0.205457 0.357423 0.422879
O O3 0.087017 0.283390 0.529367
O O4 0.033762 0.316789 0.365974
O O5 0.920276 0.941768 0.424270
O O6 0.793010 0.876977 0.320238
O O7 0.955350 0.811866 0.350125
O O8 0.958812 0.924210 0.249140
O O9 0.250000 0.580455 0.500000
O O10 0.076456 0.570269 0.598882
O O11 0.160128 0.459209 0.533180
O O12 0.250000 0.750000 0.750000
O O13 0.382264 0.850768 0.764435
#
# Coordination Sequence:
#
# PCOD8296647 Si02
#       7
#    16  16  16  16   8  16   8
#     4  12  23  43  71 108 146 194 249 312 383 450
#     4  12  24  42  74 109 149 201 248 309 389 449
#     4  10  23  51  74  97 148 203 257 309 368 441
#     4  12  22  39  69 106 157 190 236 316 385 457
#     4  12  24  40  74 112 148 186 250 306 396 460
#     4  12  24  44  73 110 147 197 254 313 377 457
#     4  10  26  46  80 102 140 206 264 304 368 452
#
# _framework density 25.188188
#
# number of rings (size 3 to 8) (size 9 to 14) (size 15 to 20)
#    0.500    0.000    6.667    2.000    0.000    0.667 
#    0.000    0.833    7.333    0.000    0.000    0.000 
#    0.000    0.000    0.000    0.000    0.000    0.000 
#
# Total GULP energy -594783.412946 kJ/mol
# GULP energy per Si atom -12391.321103 kJ/mol
# Density = 2.513086 g / cm^3
# Si number density = 25.188188 Si / 1000 Ang^3
#
#
#
# Elastic Constant Matrix: (Units=GPa)
#
#
# Indices 1 2 3 4 5 6 
#
# 1 153.7099 38.9381 60.2364 0.0001 0.0000 0.0000
# 2 38.9381 70.2015 11.2605 0.0008 0.0000 0.0001
# 3 60.2364 11.2605 113.2676 0.0016 0.0000 0.0002
# 4 0.0001 0.0008 0.0016 0.4718 0.0000 0.0001
# 5 0.0000 0.0000 0.0000 0.0000 48.9428 0.0000
# 6 0.0000 0.0001 0.0002 0.0001 0.0000 33.8482
#
#
#
# Elastic Compliance Matrix: (Units=1/GPa)
#
#
# Indices 1 2 3 4 5 6 
#
# 1 0.009438 -0.004501 -0.004571 0.000020 0.000000 0.000000
# 2 -0.004501 0.016623 0.000741 -0.000028 0.000000 0.000000
# 3 -0.004571 0.000741 0.011186 -0.000037 0.000000 0.000000
# 4 0.000020 -0.000028 -0.000037 2.119704 0.000001 -0.000007
# 5 0.000000 0.000000 0.000000 0.000001 0.020432 0.000000
# 6 0.000000 0.000000 0.000000 -0.000007 0.000000 0.029544
#
#
# Mechanical properties :
#
#
# Convention : Reuss Voigt Hill
#
# Bulk Modulus (GPa) = 48.58337 62.00546 55.29441
# Shear Modulus (GPa) = 2.24170 31.76884 17.00527
#
# Velocity S-wave (km/s) = 0.94441 3.55527 2.60114
# Velocity P-wave (km/s) = 4.52982 6.44388 5.56969
#
# Compressibility (1/GPa) = 0.02058318
#
# Stress axis : x y z
#
# Youngs Moduli (GPa) = 105.96004 60.15930 89.39696
#
# Poissons Ratio (x) = 0.27080 0.40867
# Poissons Ratio (y) = 0.47696 -0.06627
# Poissons Ratio (z) = 0.48439 -0.04460
#
# Static dielectric constant tensor:
#      x y z
#    x 5.392160 0.000000 0.000000 
#    y 0.000000 4.279940 0.000000 
#    z 0.000000 0.000000 4.368410 
# 
# 
# High freq. dielectric constant tensor:
#      x y z
#    x 2.029250 0.000000 0.000000 
#    y 0.000000 1.984150 0.000000 
#    z 0.000000 0.000000 1.986660 
# 
# From -- ./inp_files/17108.got.cif
#   From: 2010.03.12/outbox.cif.g09.slc.cpg/sg73_9_cif.got.tgz:17108.got - 2010.04.16 15:25:48.
