data_PCOD8296100
_publ_section_title
;
Structure prediction by ZEFSAII (Michael W. Deem and Ramdas Pophale) SiO2 
 PCOD8296100
Probable space group: I B C A 
;
_chemical_formula_sum "Si O2"
_cell_formula_units_Z 96
_cell_length_a 22.168662
_cell_length_b 10.950380
_cell_length_c 19.006654
_cell_angle_alpha 90.000000
_cell_angle_beta 90.000000
_cell_angle_gamma 90.000000
_cell_volume 4613.965480
_symmetry_space_group_name_H-M "I B C A "
_symmetry_group_IT_number 73
_symmetry_cell_setting 'orthorhombic'
loop_
_space_group_symop_operation_xyz
x,y,z
-x,1/2-y,z
x,-y,1/2-z
1/2-x,y,-z
-x,-y,-z
x,1/2+y,-z
-x,y,1/2+z
1/2+x,-y,z
1/2+x,1/2+y,1/2+z
1/2-x,-y,1/2+z
1/2+x,1/2-y,-z
-x,1/2+y,1/2-z
1/2-x,1/2-y,1/2-z
1/2+x,y,1/2-z
1/2-x,1/2+y,z
x,1/2-y,1/2+z
loop_
_atom_site_type_symbol
_atom_site_label
_atom_site_fract_x
_atom_site_fract_y
_atom_site_fract_z
Si Si1 0.165254 0.086317 0.564939
Si Si2 0.600089 0.965136 0.150590
Si Si3 0.432642 0.787551 0.537698
Si Si4 0.937671 0.808718 0.725388
Si Si5 0.201800 0.110984 0.410017
Si Si6 0.121555 0.330987 0.393351
O O1 0.116729 0.194413 0.569019
O O2 0.184289 0.053596 0.485517
O O3 0.227180 0.117630 0.606038
O O4 0.136749 0.972457 0.605086
O O5 0.579363 0.918506 0.074187
O O6 0.599847 0.853225 0.206162
O O7 0.553818 0.072797 0.174490
O O8 0.666701 0.026844 0.147001
O O9 0.500000 0.750000 0.557828
O O10 0.427577 0.800340 0.453755
O O11 0.903383 0.701891 0.683578
O O12 0.000000 0.750000 0.751242
O O13 0.181185 0.251753 0.408355
#
# Coordination Sequence:
#
# PCOD8296100 Si02
#       6
#    16  16  16  16  16  16
#     4  10  21  35  62  93 123 165 204 265 315 373
#     4  10  21  41  63  87 124 163 212 260 304 375
#     4  11  23  36  60  96 126 160 210 263 321 377
#     4  10  22  40  63  86 121 172 205 251 325 382
#     4   9  20  37  61  88 121 166 212 257 314 367
#     4  10  21  38  58  90 124 161 209 262 315 378
#
# _framework density 20.806398999999999
#
# number of rings (size 3 to 8) (size 9 to 14) (size 15 to 20)
#    0.000    2.000    1.667    1.000    4.667    2.000 
#    0.000    0.833    7.333    0.000    0.000    0.000 
#    0.000    0.000    0.000    0.000    0.000    0.000 
#
# Total GULP energy -595060.536296 kJ/mol
# GULP energy per Si atom -12397.094506 kJ/mol
# Density = 2.075904 g / cm^3
# Si number density = 20.806399 Si / 1000 Ang^3
#
#
#
# Elastic Constant Matrix: (Units=GPa)
#
#
# Indices 1 2 3 4 5 6 
#
# 1 139.3603 36.5271 20.2836 0.0000 0.0000 0.0000
# 2 36.5271 65.0138 13.1116 0.0000 0.0000 0.0000
# 3 20.2836 13.1116 52.7600 0.0000 0.0000 0.0000
# 4 0.0000 0.0000 0.0000 38.9619 0.0000 0.0000
# 5 0.0000 0.0000 0.0000 0.0000 19.5848 0.0000
# 6 0.0000 0.0000 0.0000 0.0000 0.0000 25.3814
#
#
#
# Elastic Compliance Matrix: (Units=1/GPa)
#
#
# Indices 1 2 3 4 5 6 
#
# 1 0.008657 -0.004414 -0.002231 0.000000 0.000000 0.000000
# 2 -0.004414 0.018443 -0.002886 0.000000 0.000000 0.000000
# 3 -0.002231 -0.002886 0.020529 0.000000 0.000000 0.000000
# 4 0.000000 0.000000 0.000000 0.025666 0.000000 0.000000
# 5 0.000000 0.000000 0.000000 0.000000 0.051060 0.000000
# 6 0.000000 0.000000 0.000000 0.000000 0.000000 0.039399
#
#
# Mechanical properties :
#
#
# Convention : Reuss Voigt Hill
#
# Bulk Modulus (GPa) = 35.00665 44.10872 39.55769
# Shear Modulus (GPa) = 25.99557 29.26640 27.63098
#
# Velocity S-wave (km/s) = 3.53852 3.75454 3.64813
# Velocity P-wave (km/s) = 5.79278 6.32780 6.06619
#
# Compressibility (1/GPa) = 0.02856600
#
# Stress axis : x y z
#
# Youngs Moduli (GPa) = 115.50872 54.21982 48.71171
#
# Poissons Ratio (x) = 0.23933 0.10869
# Poissons Ratio (y) = 0.50986 0.14061
# Poissons Ratio (z) = 0.25774 0.15650
#
# Static dielectric constant tensor:
#      x y z
#    x 3.670100 0.000000 0.000000 
#    y 0.000000 3.725450 0.000000 
#    z 0.000000 0.000000 3.676650 
# 
# 
# High freq. dielectric constant tensor:
#      x y z
#    x 1.802930 0.000000 0.000000 
#    y 0.000000 1.817380 0.000000 
#    z 0.000000 0.000000 1.798420 
# 
# From -- ./inp_files/12860.got.cif
#   From: 2010.03.12/outbox.cif.g09.slc.cpg/sg73_7_cif.got.tgz:12860.got - 2010.04.16 15:25:48.
