data_PCOD8296452
_publ_section_title
;
Structure prediction by ZEFSAII (Michael W. Deem and Ramdas Pophale) SiO2 
 PCOD8296452
Probable space group: I B C A 
;
_chemical_formula_sum "Si O2"
_cell_formula_units_Z 88
_cell_length_a 14.145220
_cell_length_b 17.934256
_cell_length_c 15.231375
_cell_angle_alpha 90.000000
_cell_angle_beta 90.000000
_cell_angle_gamma 90.000000
_cell_volume 3863.956085
_symmetry_space_group_name_H-M "I B C A "
_symmetry_group_IT_number 73
_symmetry_cell_setting 'orthorhombic'
loop_
_space_group_symop_operation_xyz
x,y,z
-x,1/2-y,z
x,-y,1/2-z
1/2-x,y,-z
-x,-y,-z
x,1/2+y,-z
-x,y,1/2+z
1/2+x,-y,z
1/2+x,1/2+y,1/2+z
1/2-x,-y,1/2+z
1/2+x,1/2-y,-z
-x,1/2+y,1/2-z
1/2-x,1/2-y,1/2-z
1/2+x,y,1/2-z
1/2-x,1/2+y,z
x,1/2-y,1/2+z
loop_
_atom_site_type_symbol
_atom_site_label
_atom_site_fract_x
_atom_site_fract_y
_atom_site_fract_z
Si Si1 0.654272 0.640851 0.185888
Si Si2 0.500000 0.750000 0.748767
Si Si3 0.790311 0.882177 0.126905
Si Si4 0.884893 0.065083 0.539016
Si Si5 0.340238 0.713874 0.374999
Si Si6 0.907996 0.095530 0.008859
O O1 0.561077 0.693105 0.189836
O O2 0.670450 0.595895 0.276869
O O3 0.747396 0.690386 0.177245
O O4 0.645253 0.585788 0.102812
O O5 0.570717 0.703139 0.810778
O O6 0.676969 0.896136 0.116284
O O7 0.822506 0.799380 0.098973
O O8 0.836562 0.936010 0.056064
O O9 0.982797 0.109594 0.532748
O O10 0.898951 0.976179 0.555203
O O11 0.361050 0.666995 0.462683
#
# Coordination Sequence:
#
# PCOD8296452 Si02
#       6
#    16   8  16  16  16  16
#     4  11  25  38  73 101 136 171 231 283 335 396
#     4  10  22  42  66 104 138 170 228 288 332 404
#     4  10  23  45  67  97 132 175 224 285 334 405
#     4  10  25  45  69  91 141 182 225 266 353 407
#     4  11  24  43  67 102 134 175 224 281 341 398
#     4  11  25  44  67 100 133 183 224 279 335 422
#
# _framework density 22.774588000000001
#
# number of rings (size 3 to 8) (size 9 to 14) (size 15 to 20)
#    0.000    1.455    0.000    4.909   15.273    1.455 
#    0.000    0.000    0.000    0.000    0.000    0.000 
#    0.000    0.000    0.000    0.000    0.000    0.000 
#
# Total GULP energy -545484.411778 kJ/mol
# GULP energy per Si atom -12397.372995 kJ/mol
# Density = 2.272275 g / cm^3
# Si number density = 22.774588 Si / 1000 Ang^3
#
#
#
# Elastic Constant Matrix: (Units=GPa)
#
#
# Indices 1 2 3 4 5 6 
#
# 1 147.7650 28.0963 22.2036 0.0000 0.0000 0.0000
# 2 28.0963 72.0825 24.2361 0.0000 0.0000 0.0000
# 3 22.2036 24.2361 101.0561 -0.0001 -0.0001 -0.0001
# 4 0.0000 0.0000 -0.0001 21.9592 0.0000 0.0000
# 5 0.0000 0.0000 -0.0001 0.0000 21.6600 0.0000
# 6 0.0000 0.0000 -0.0001 0.0000 0.0000 29.6830
#
#
#
# Elastic Compliance Matrix: (Units=1/GPa)
#
#
# Indices 1 2 3 4 5 6 
#
# 1 0.007404 -0.002544 -0.001017 0.000000 0.000000 0.000000
# 2 -0.002544 0.015964 -0.003270 0.000000 0.000000 0.000000
# 3 -0.001017 -0.003270 0.010903 0.000000 0.000000 0.000000
# 4 0.000000 0.000000 0.000000 0.045539 0.000000 0.000000
# 5 0.000000 0.000000 0.000000 0.000000 0.046168 0.000000
# 6 0.000000 0.000000 0.000000 0.000000 0.000000 0.033689
#
#
# Mechanical properties :
#
#
# Convention : Reuss Voigt Hill
#
# Bulk Modulus (GPa) = 48.51953 52.21951 50.36952
# Shear Modulus (GPa) = 27.74722 31.08494 29.41608
#
# Velocity S-wave (km/s) = 3.49426 3.69846 3.59781
# Velocity P-wave (km/s) = 6.13435 6.42003 6.27882
#
# Compressibility (1/GPa) = 0.02061026
#
# Stress axis : x y z
#
# Youngs Moduli (GPa) = 135.06195 62.64097 91.71773
#
# Poissons Ratio (x) = 0.15937 0.09324
# Poissons Ratio (y) = 0.34361 0.29988
# Poissons Ratio (z) = 0.13731 0.20481
#
# Static dielectric constant tensor:
#      x y z
#    x 4.486910 0.000000 0.000000 
#    y 0.000000 3.725660 0.000000 
#    z 0.000000 0.000000 3.947720 
# 
# 
# High freq. dielectric constant tensor:
#      x y z
#    x 1.922070 0.000000 0.000000 
#    y 0.000000 1.878880 0.000000 
#    z 0.000000 0.000000 1.891520 
# 
# From -- ./inp_files/16915.got.cif
#   From: 2010.03.12/outbox.cif.g09.slc.cpg/sg73_9_cif.got.tgz:16915.got - 2010.04.16 15:25:48.
