data_PCOD8296486
_publ_section_title
;
Structure prediction by ZEFSAII (Michael W. Deem and Ramdas Pophale) SiO2 
 PCOD8296486
Probable space group: I B C A 
;
_chemical_formula_sum "Si O2"
_cell_formula_units_Z 104
_cell_length_a 25.597969
_cell_length_b 20.971755
_cell_length_c 9.745337
_cell_angle_alpha 90.000000
_cell_angle_beta 90.000000
_cell_angle_gamma 90.000000
_cell_volume 5231.631502
_symmetry_space_group_name_H-M "I B C A "
_symmetry_group_IT_number 73
_symmetry_cell_setting 'orthorhombic'
loop_
_space_group_symop_operation_xyz
x,y,z
-x,1/2-y,z
x,-y,1/2-z
1/2-x,y,-z
-x,-y,-z
x,1/2+y,-z
-x,y,1/2+z
1/2+x,-y,z
1/2+x,1/2+y,1/2+z
1/2-x,-y,1/2+z
1/2+x,1/2-y,-z
-x,1/2+y,1/2-z
1/2-x,1/2-y,1/2-z
1/2+x,y,1/2-z
1/2-x,1/2+y,z
x,1/2-y,1/2+z
loop_
_atom_site_type_symbol
_atom_site_label
_atom_site_fract_x
_atom_site_fract_y
_atom_site_fract_z
Si Si1 0.685287 0.910476 0.614928
Si Si2 0.295232 0.931207 0.806906
Si Si3 0.116581 0.657632 0.814031
Si Si4 0.388035 0.698307 0.653288
Si Si5 0.430633 0.617921 0.905364
Si Si6 0.896626 0.000000 0.250000
Si Si7 0.531910 0.686504 0.907272
O O1 0.701468 0.935830 0.468733
O O2 0.734118 0.913428 0.722185
O O3 0.663228 0.839030 0.603122
O O4 0.638082 0.954302 0.659501
O O5 0.333894 0.878599 0.747636
O O6 0.310255 0.000000 0.750000
O O7 0.133344 0.730757 0.828125
O O8 0.066100 0.657263 0.715616
O O9 0.104317 0.624140 0.958648
O O10 0.409774 0.669308 0.794855
O O11 0.433731 0.699880 0.540850
O O12 0.430703 0.545394 0.849066
O O13 0.490197 0.632312 0.945474
O O14 0.500000 0.750000 0.862018
#
# Coordination Sequence:
#
# PCOD8296486 Si02
#       7
#    16  16  16  16  16   8  16
#     4  10  22  43  68  91 129 171 216 280 334 392
#     4  11  23  42  68  94 127 174 224 272 333 397
#     4  12  23  40  67 101 130 171 229 273 324 399
#     4  11  22  41  65  97 134 170 218 274 334 386
#     4  11  24  38  66  95 133 175 222 267 321 397
#     4  10  22  46  62  92 132 178 214 266 336 398
#     4  12  22  41  65  97 131 180 214 268 331 393
#
# _framework density 19.879076999999999
#
# number of rings (size 3 to 8) (size 9 to 14) (size 15 to 20)
#    0.000    0.923    5.385    1.846    0.000    0.615 
#    1.385    3.846    0.000    0.000    0.000    0.000 
#    0.000    0.000    0.000    0.000    0.000    0.000 
#
# Total GULP energy -644748.285471 kJ/mol
# GULP energy per Si atom -12399.005490 kJ/mol
# Density = 1.983383 g / cm^3
# Si number density = 19.879077 Si / 1000 Ang^3
#
#
#
# Elastic Constant Matrix: (Units=GPa)
#
#
# Indices 1 2 3 4 5 6 
#
# 1 109.5908 67.2976 28.8942 0.0000 0.0000 0.0000
# 2 67.2976 145.4525 32.7457 0.0000 0.0000 0.0000
# 3 28.8942 32.7457 97.7754 0.0000 0.0000 0.0000
# 4 0.0000 0.0000 0.0000 23.8220 0.0000 0.0000
# 5 0.0000 0.0000 0.0000 0.0000 -140.2278 0.0000
# 6 0.0000 0.0000 0.0000 0.0000 0.0000 25.5116
#
#
#
# Elastic Compliance Matrix: (Units=1/GPa)
#
#
# Indices 1 2 3 4 5 6 
#
# 1 0.013095 -0.005611 -0.001991 0.000000 0.000000 0.000000
# 2 -0.005611 0.009840 -0.001637 0.000000 0.000000 0.000000
# 3 -0.001991 -0.001637 0.011364 0.000000 0.000000 0.000000
# 4 0.000000 0.000000 0.000000 0.041978 0.000000 0.000000
# 5 0.000000 0.000000 0.000000 0.000000 -0.007131 0.000000
# 6 0.000000 0.000000 0.000000 0.000000 0.000000 0.039198
#
#
# Mechanical properties :
#
#
# Convention : Reuss Voigt Hill
#
# Bulk Modulus (GPa) = 63.20538 67.85488 65.53013
# Shear Modulus (GPa) = 37.85161 -3.25342 17.29909
#
# Velocity S-wave (km/s) = 4.36832 -1.28069 2.95314
# Velocity P-wave (km/s) = 7.57014 5.65871 6.68311
#
# Compressibility (1/GPa) = 0.01582144
#
# Stress axis : x y z
#
# Youngs Moduli (GPa) = 76.36433 101.62983 87.99581
#
# Poissons Ratio (x) = 0.57021 0.17518
# Poissons Ratio (y) = 0.42845 0.14408
# Poissons Ratio (z) = 0.15202 0.16640
#
# Static dielectric constant tensor:
#      x y z
#    x 4.047400 0.000000 0.000000 
#    y 0.000000 3.895610 0.000000 
#    z 0.000000 0.000000 3.713130 
# 
# 
# High freq. dielectric constant tensor:
#      x y z
#    x 1.778490 0.000000 0.000000 
#    y 0.000000 1.777970 0.000000 
#    z 0.000000 0.000000 1.782560 
# 
# From -- ./inp_files/7895.got.cif
#   From: 2010.03.12/outbox.cif.g09.slc.cpg/sg73_4_cif.got.tgz:7895.got - 2010.04.16 15:25:48.
