data_PCOD8296976
_publ_section_title
;
Structure prediction by ZEFSAII (Michael W. Deem and Ramdas Pophale) SiO2 
 PCOD8296976
Probable space group: I B C A 
;
_chemical_formula_sum "Si O2"
_cell_formula_units_Z 64
_cell_length_a 13.317671
_cell_length_b 12.819008
_cell_length_c 15.798416
_cell_angle_alpha 90.000000
_cell_angle_beta 90.000000
_cell_angle_gamma 90.000000
_cell_volume 2697.095012
_symmetry_space_group_name_H-M "I B C A "
_symmetry_group_IT_number 73
_symmetry_cell_setting 'orthorhombic'
loop_
_space_group_symop_operation_xyz
x,y,z
-x,1/2-y,z
x,-y,1/2-z
1/2-x,y,-z
-x,-y,-z
x,1/2+y,-z
-x,y,1/2+z
1/2+x,-y,z
1/2+x,1/2+y,1/2+z
1/2-x,-y,1/2+z
1/2+x,1/2-y,-z
-x,1/2+y,1/2-z
1/2-x,1/2-y,1/2-z
1/2+x,y,1/2-z
1/2-x,1/2+y,z
x,1/2-y,1/2+z
loop_
_atom_site_type_symbol
_atom_site_label
_atom_site_fract_x
_atom_site_fract_y
_atom_site_fract_z
Si Si1 0.930548 0.500000 0.250000
Si Si2 0.750000 0.929183 0.000000
Si Si3 0.561901 0.346317 0.343577
Si Si4 0.393135 0.254361 0.022823
Si Si5 0.226592 0.398578 0.860857
O O1 0.860912 0.586258 0.206654
O O2 0.998829 0.550146 0.323383
O O3 0.851576 0.859349 0.996658
O O4 0.750545 0.997446 0.085344
O O5 0.500000 0.250000 0.302730
O O6 0.578170 0.328805 0.443622
O O7 0.674938 0.361860 0.307714
O O8 0.500000 0.250000 0.073477
O O9 0.305003 0.305515 0.077045
#
# Coordination Sequence:
#
# PCOD8296976 Si02
#       5
#     8   8  16  16  16
#     4  12  30  42  72 106 152 198 224 302 374 452
#     4  12  22  46  80 102 140 188 244 316 340 430
#     4  11  24  50  70 104 148 186 241 302 357 435
#     4  11  24  44  75 107 138 186 247 306 356 420
#     4  12  25  48  71 109 138 192 246 293 372 430
#
# _framework density 23.729234999999999
#
# number of rings (size 3 to 8) (size 9 to 14) (size 15 to 20)
#    0.000    0.500    5.000    3.750    3.500    4.000 
#    0.000    0.000    0.000    0.000    0.000    0.000 
#    0.000    0.000    0.000    0.000    0.000    0.000 
#
# Total GULP energy -396737.600230 kJ/mol
# GULP energy per Si atom -12398.050007 kJ/mol
# Density = 2.367523 g / cm^3
# Si number density = 23.729235 Si / 1000 Ang^3
#
#
#
# Elastic Constant Matrix: (Units=GPa)
#
#
# Indices 1 2 3 4 5 6 
#
# 1 214.9681 72.4721 29.1472 0.0000 0.0000 0.0000
# 2 72.4721 106.2120 23.6374 0.0000 0.0000 0.0000
# 3 29.1472 23.6374 60.3992 0.0000 0.0000 0.0000
# 4 0.0000 0.0000 0.0000 7.0589 0.0000 0.0000
# 5 0.0000 0.0000 0.0000 0.0000 27.3406 0.0000
# 6 0.0000 0.0000 0.0000 0.0000 0.0000 51.9108
#
#
#
# Elastic Compliance Matrix: (Units=1/GPa)
#
#
# Indices 1 2 3 4 5 6 
#
# 1 0.006156 -0.003877 -0.001453 0.000000 0.000000 0.000000
# 2 -0.003877 0.012755 -0.003121 0.000000 0.000000 0.000000
# 3 -0.001453 -0.003121 0.018479 0.000000 0.000000 0.000000
# 4 0.000000 0.000000 0.000000 0.141664 0.000000 0.000000
# 5 0.000000 0.000000 0.000000 0.000000 0.036576 0.000000
# 6 0.000000 0.000000 0.000000 0.000000 0.000000 0.019264
#
#
# Mechanical properties :
#
#
# Convention : Reuss Voigt Hill
#
# Bulk Modulus (GPa) = 48.80948 70.23252 59.52100
# Shear Modulus (GPa) = 19.33295 34.35024 26.84160
#
# Velocity S-wave (km/s) = 2.85745 3.80885 3.36692
# Velocity P-wave (km/s) = 5.61255 7.00035 6.34451
#
# Compressibility (1/GPa) = 0.02048782
#
# Stress axis : x y z
#
# Youngs Moduli (GPa) = 162.44414 78.40034 54.11478
#
# Poissons Ratio (x) = 0.30396 0.07865
# Poissons Ratio (y) = 0.62979 0.16888
# Poissons Ratio (z) = 0.23611 0.24467
#
# Static dielectric constant tensor:
#      x y z
#    x 5.238620 0.000000 0.000000 
#    y 0.000000 4.278190 0.000000 
#    z 0.000000 0.000000 3.924460 
# 
# 
# High freq. dielectric constant tensor:
#      x y z
#    x 1.978380 0.000000 0.000000 
#    y 0.000000 1.937190 0.000000 
#    z 0.000000 0.000000 1.903880 
# 
# From -- ./inp_files/10516.got.cif
#   From: 2010.03.12/outbox.cif.g09.slc.cpg/sg73_6_cif.got.tgz:10516.got - 2010.04.16 15:25:48.
