data_PCOD8296516
_publ_section_title
;
Structure prediction by ZEFSAII (Michael W. Deem and Ramdas Pophale) SiO2 
 PCOD8296516
Probable space group: I B C A 
;
_chemical_formula_sum "Si O2"
_cell_formula_units_Z 96
_cell_length_a 11.113236
_cell_length_b 21.869803
_cell_length_c 17.239948
_cell_angle_alpha 90.000000
_cell_angle_beta 90.000000
_cell_angle_gamma 90.000000
_cell_volume 4190.070784
_symmetry_space_group_name_H-M "I B C A "
_symmetry_group_IT_number 73
_symmetry_cell_setting 'orthorhombic'
loop_
_space_group_symop_operation_xyz
x,y,z
-x,1/2-y,z
x,-y,1/2-z
1/2-x,y,-z
-x,-y,-z
x,1/2+y,-z
-x,y,1/2+z
1/2+x,-y,z
1/2+x,1/2+y,1/2+z
1/2-x,-y,1/2+z
1/2+x,1/2-y,-z
-x,1/2+y,1/2-z
1/2-x,1/2-y,1/2-z
1/2+x,y,1/2-z
1/2-x,1/2+y,z
x,1/2-y,1/2+z
loop_
_atom_site_type_symbol
_atom_site_label
_atom_site_fract_x
_atom_site_fract_y
_atom_site_fract_z
Si Si1 0.632953 0.732335 0.053760
Si Si2 0.368807 0.567825 0.283733
Si Si3 0.913490 0.904843 0.118517
Si Si4 0.012610 0.888680 0.953722
Si Si5 0.298909 0.973521 0.086220
Si Si6 0.309212 0.158807 0.852063
O O1 0.500000 0.750000 0.016871
O O2 0.617990 0.660267 0.067888
O O3 0.652053 0.769629 0.135716
O O4 0.750000 0.746493 0.000000
O O5 0.358712 0.500000 0.250000
O O6 0.505960 0.580262 0.307311
O O7 0.280282 0.568205 0.357107
O O8 0.337023 0.625903 0.229355
O O9 0.834142 0.844103 0.132493
O O10 0.809020 0.956351 0.111888
O O11 0.999880 0.896945 0.045462
O O12 0.062135 0.950488 0.914644
O O13 0.881776 0.875814 0.920031
O O14 0.250000 0.967204 0.000000
#
# Coordination Sequence:
#
# PCOD8296516 Si02
#       6
#    16  16  16  16  16  16
#     4  10  22  44  75 105 140 188 249 312 369 440
#     4  12  27  43  64 104 150 195 232 300 375 448
#     4  12  25  42  71 105 141 188 244 296 374 449
#     4  11  23  43  75 100 140 182 242 306 363 440
#     4  12  24  42  67 105 143 185 241 296 360 449
#     4  11  24  43  70  99 142 187 235 300 373 435
#
# _framework density 22.911308999999999
#
# number of rings (size 3 to 8) (size 9 to 14) (size 15 to 20)
#    0.000    0.667    3.333    5.500    4.667    0.000 
#    0.000    0.833    3.667    0.000    0.000    0.000 
#    0.000    0.000    0.000    0.000    0.000    0.000 
#
# Total GULP energy -594765.888345 kJ/mol
# GULP energy per Si atom -12390.956007 kJ/mol
# Density = 2.285916 g / cm^3
# Si number density = 22.911309 Si / 1000 Ang^3
#
#
#
# Elastic Constant Matrix: (Units=GPa)
#
#
# Indices 1 2 3 4 5 6 
#
# 1 126.0204 32.0775 43.5895 0.0000 0.0000 0.0000
# 2 32.0775 78.6172 34.5155 -0.0001 0.0000 0.0000
# 3 43.5895 34.5155 110.7097 -0.0002 0.0000 0.0000
# 4 0.0000 -0.0001 -0.0002 34.5523 0.0000 0.0000
# 5 0.0000 0.0000 0.0000 0.0000 11.6946 0.0000
# 6 0.0000 0.0000 0.0000 0.0000 0.0000 35.1639
#
#
#
# Elastic Compliance Matrix: (Units=1/GPa)
#
#
# Indices 1 2 3 4 5 6 
#
# 1 0.009632 -0.002624 -0.002974 0.000000 0.000000 0.000000
# 2 -0.002624 0.015452 -0.003784 0.000000 0.000000 0.000000
# 3 -0.002974 -0.003784 0.011383 0.000000 0.000000 0.000000
# 4 0.000000 0.000000 0.000000 0.028942 0.000000 0.000000
# 5 0.000000 0.000000 0.000000 0.000000 0.085509 0.000000
# 6 0.000000 0.000000 0.000000 0.000000 0.000000 0.028438
#
#
# Mechanical properties :
#
#
# Convention : Reuss Voigt Hill
#
# Bulk Modulus (GPa) = 56.49046 59.52360 58.00703
# Shear Modulus (GPa) = 24.50709 29.95982 27.23345
#
# Velocity S-wave (km/s) = 3.27410 3.62006 3.45142
# Velocity P-wave (km/s) = 6.24521 6.59617 6.42309
#
# Compressibility (1/GPa) = 0.01770210
#
# Stress axis : x y z
#
# Youngs Moduli (GPa) = 103.82087 64.71659 87.84687
#
# Poissons Ratio (x) = 0.16983 0.26128
# Poissons Ratio (y) = 0.27245 0.33243
# Poissons Ratio (z) = 0.30879 0.24490
#
# Static dielectric constant tensor:
#      x y z
#    x 4.259140 0.000000 0.000000 
#    y 0.000000 4.372470 0.000000 
#    z 0.000000 0.000000 3.940610 
# 
# 
# High freq. dielectric constant tensor:
#      x y z
#    x 1.925020 0.000000 0.000000 
#    y 0.000000 1.902130 0.000000 
#    z 0.000000 0.000000 1.881410 
# 
# From -- ./inp_files/12007.got.cif
#   From: 2010.03.12/outbox.cif.g09.slc.cpg/sg73_7_cif.got.tgz:12007.got - 2010.04.16 15:25:48.
