data_PCOD8296271
_publ_section_title
;
Structure prediction by ZEFSAII (Michael W. Deem and Ramdas Pophale) SiO2 
 PCOD8296271
Probable space group: I B C A 
;
_chemical_formula_sum "Si O2"
_cell_formula_units_Z 80
_cell_length_a 12.463438
_cell_length_b 21.341342
_cell_length_c 13.687260
_cell_angle_alpha 90.000000
_cell_angle_beta 90.000000
_cell_angle_gamma 90.000000
_cell_volume 3640.626284
_symmetry_space_group_name_H-M "I B C A "
_symmetry_group_IT_number 73
_symmetry_cell_setting 'orthorhombic'
loop_
_space_group_symop_operation_xyz
x,y,z
-x,1/2-y,z
x,-y,1/2-z
1/2-x,y,-z
-x,-y,-z
x,1/2+y,-z
-x,y,1/2+z
1/2+x,-y,z
1/2+x,1/2+y,1/2+z
1/2-x,-y,1/2+z
1/2+x,1/2-y,-z
-x,1/2+y,1/2-z
1/2-x,1/2-y,1/2-z
1/2+x,y,1/2-z
1/2-x,1/2+y,z
x,1/2-y,1/2+z
loop_
_atom_site_type_symbol
_atom_site_label
_atom_site_fract_x
_atom_site_fract_y
_atom_site_fract_z
Si Si1 0.000000 0.250000 0.121115
Si Si2 0.629367 0.173021 0.022214
Si Si3 0.660464 0.194672 0.239491
Si Si4 0.947574 0.053425 0.062173
Si Si5 0.750000 0.511914 0.500000
Si Si6 0.640574 0.438862 0.814799
O O1 0.941611 0.299556 0.190231
O O2 0.903141 0.225265 0.055497
O O3 0.616200 0.199534 0.130299
O O4 0.750000 0.152454 0.000000
O O5 0.549149 0.115402 0.004949
O O6 0.750000 0.250000 0.250000
O O7 0.695022 0.122257 0.262340
O O8 0.823761 0.031380 0.071657
O O9 0.010371 0.064868 0.165246
O O10 0.000000 0.000000 0.000000
O O11 0.686960 0.556281 0.575484
O O12 0.665449 0.500000 0.750000
#
# Coordination Sequence:
#
# PCOD8296271 Si02
#       6
#     8  16  16  16   8  16
#     4  12  26  48  70 102 140 192 236 306 364 440
#     4  12  24  46  74  98 145 186 238 301 367 431
#     4  12  26  47  72 106 142 191 245 295 374 447
#     4  10  21  42  67  99 138 181 228 294 359 422
#     4  10  22  42  72 104 138 186 232 302 370 424
#     4  11  25  45  69 108 146 188 248 299 366 438
#
# _framework density 21.974240000000002
#
# number of rings (size 3 to 8) (size 9 to 14) (size 15 to 20)
#    0.000    0.800    5.000    3.000    0.000    2.400 
#   10.800    0.000    0.000    0.000    0.000    0.000 
#    0.000    0.000    0.000    0.000    0.000    0.000 
#
# Total GULP energy -495535.903495 kJ/mol
# GULP energy per Si atom -12388.397587 kJ/mol
# Density = 2.192423 g / cm^3
# Si number density = 21.974240 Si / 1000 Ang^3
#
#
#
# Elastic Constant Matrix: (Units=GPa)
#
#
# Indices 1 2 3 4 5 6 
#
# 1 78.6543 35.1665 36.2473 0.0000 0.0000 0.0000
# 2 35.1665 144.3556 52.3027 -0.0006 0.0000 0.0002
# 3 36.2473 52.3027 145.9255 -0.0004 0.0000 0.0001
# 4 0.0000 -0.0006 -0.0004 29.0083 0.0000 0.0001
# 5 0.0000 0.0000 0.0000 0.0000 41.7648 0.0000
# 6 0.0000 0.0002 0.0001 0.0001 0.0000 38.0358
#
#
#
# Elastic Compliance Matrix: (Units=1/GPa)
#
#
# Indices 1 2 3 4 5 6 
#
# 1 0.015212 -0.002686 -0.002816 0.000000 0.000000 0.000000
# 2 -0.002686 0.008435 -0.002356 0.000000 0.000000 0.000000
# 3 -0.002816 -0.002356 0.008397 0.000000 0.000000 0.000000
# 4 0.000000 0.000000 0.000000 0.034473 0.000000 0.000000
# 5 0.000000 0.000000 0.000000 0.000000 0.023944 0.000000
# 6 0.000000 0.000000 0.000000 0.000000 0.000000 0.026291
#
#
# Mechanical properties :
#
#
# Convention : Reuss Voigt Hill
#
# Bulk Modulus (GPa) = 61.24237 68.48538 64.86388
# Shear Modulus (GPa) = 36.25528 38.10970 37.18249
#
# Velocity S-wave (km/s) = 4.06630 4.16900 4.11797
# Velocity P-wave (km/s) = 7.06944 7.37617 7.22444
#
# Compressibility (1/GPa) = 0.01632857
#
# Stress axis : x y z
#
# Youngs Moduli (GPa) = 65.73595 118.54942 119.09184
#
# Poissons Ratio (x) = 0.31837 0.33538
# Poissons Ratio (y) = 0.17654 0.28062
# Poissons Ratio (z) = 0.18512 0.27934
#
# Static dielectric constant tensor:
#      x y z
#    x 4.643000 0.000000 0.000000 
#    y 0.000000 4.020500 0.000000 
#    z 0.000000 0.000000 3.998240 
# 
# 
# High freq. dielectric constant tensor:
#      x y z
#    x 1.861610 0.000000 0.000000 
#    y 0.000000 1.872570 0.000000 
#    z 0.000000 0.000000 1.862320 
# 
# From -- ./inp_files/16085.got.cif
#   From: 2010.03.12/outbox.cif.g09.slc.cpg/sg73_9_cif.got.tgz:16085.got - 2010.04.16 15:25:48.
