data_PCOD8296660
_publ_section_title
;
Structure prediction by ZEFSAII (Michael W. Deem and Ramdas Pophale) SiO2 
 PCOD8296660
Probable space group: I B C A 
;
_chemical_formula_sum "Si O2"
_cell_formula_units_Z 104
_cell_length_a 8.599831
_cell_length_b 19.682075
_cell_length_c 28.853304
_cell_angle_alpha 90.000000
_cell_angle_beta 90.000000
_cell_angle_gamma 90.000000
_cell_volume 4883.782909
_symmetry_space_group_name_H-M "I B C A "
_symmetry_group_IT_number 73
_symmetry_cell_setting 'orthorhombic'
loop_
_space_group_symop_operation_xyz
x,y,z
-x,1/2-y,z
x,-y,1/2-z
1/2-x,y,-z
-x,-y,-z
x,1/2+y,-z
-x,y,1/2+z
1/2+x,-y,z
1/2+x,1/2+y,1/2+z
1/2-x,-y,1/2+z
1/2+x,1/2-y,-z
-x,1/2+y,1/2-z
1/2-x,1/2-y,1/2-z
1/2+x,y,1/2-z
1/2-x,1/2+y,z
x,1/2-y,1/2+z
loop_
_atom_site_type_symbol
_atom_site_label
_atom_site_fract_x
_atom_site_fract_y
_atom_site_fract_z
Si Si1 0.318722 0.444949 0.950150
Si Si2 0.648792 0.293382 0.785234
Si Si3 0.853547 0.593626 0.214817
Si Si4 0.295346 0.310660 0.617743
Si Si5 0.353110 0.842193 0.883294
Si Si6 0.321069 0.086086 0.951330
Si Si7 0.905535 0.000000 0.250000
O O1 0.240907 0.395509 0.913302
O O2 0.502160 0.437385 0.955120
O O3 0.280926 0.521827 0.934477
O O4 0.250000 0.427955 0.000000
O O5 0.500000 0.250000 0.802201
O O6 0.750000 0.250000 0.750000
O O7 0.595660 0.360903 0.758707
O O8 0.751484 0.318498 0.828462
O O9 0.830974 0.641153 0.170584
O O10 0.692035 0.555532 0.222433
O O11 0.988689 0.536989 0.210746
O O12 0.283615 0.231507 0.605028
O O13 0.463802 0.342048 0.606691
O O14 0.178677 0.352863 0.585573
O O15 0.250000 0.112501 0.000000
#
# Coordination Sequence:
#
# PCOD8296660 Si02
#       7
#    16  16  16  16  16  16   8
#     4  11  24  44  72  99 135 181 226 278 350 421
#     4  12  24  41  68  93 132 181 234 280 340 413
#     4  11  23  41  62  93 130 175 222 280 340 399
#     4  11  25  42  66 102 134 176 227 287 344 407
#     4  11  24  42  66  95 138 172 229 282 348 407
#     4  11  24  45  72 100 137 177 229 284 345 417
#     4  10  24  40  60  90 132 170 222 278 340 400
#
# _framework density 21.294968000000001
#
# number of rings (size 3 to 8) (size 9 to 14) (size 15 to 20)
#    0.000    0.923    1.538    6.462    2.154    5.538 
#    0.000    0.000    0.000    0.000    0.000    0.000 
#    0.000    0.000    0.000    0.000    0.000    0.000 
#
# Total GULP energy -644962.548817 kJ/mol
# GULP energy per Si atom -12403.125939 kJ/mol
# Density = 2.124650 g / cm^3
# Si number density = 21.294968 Si / 1000 Ang^3
#
#
#
# Elastic Constant Matrix: (Units=GPa)
#
#
# Indices 1 2 3 4 5 6 
#
# 1 122.2809 49.9977 33.4812 0.0000 0.0000 0.0000
# 2 49.9977 117.2580 61.7485 0.0000 0.0000 0.0000
# 3 33.4812 61.7485 103.9716 0.0000 0.0000 0.0000
# 4 0.0000 0.0000 0.0000 45.2743 0.0000 0.0000
# 5 0.0000 0.0000 0.0000 0.0000 30.9614 0.0000
# 6 0.0000 0.0000 0.0000 0.0000 0.0000 35.2016
#
#
#
# Elastic Compliance Matrix: (Units=1/GPa)
#
#
# Indices 1 2 3 4 5 6 
#
# 1 0.009975 -0.003728 -0.000998 0.000000 0.000000 0.000000
# 2 -0.003728 0.013802 -0.006997 0.000000 0.000000 0.000000
# 3 -0.000998 -0.006997 0.014095 0.000000 0.000000 0.000000
# 4 0.000000 0.000000 0.000000 0.022088 0.000000 0.000000
# 5 0.000000 0.000000 0.000000 0.000000 0.032298 0.000000
# 6 0.000000 0.000000 0.000000 0.000000 0.000000 0.028408
#
#
# Mechanical properties :
#
#
# Convention : Reuss Voigt Hill
#
# Bulk Modulus (GPa) = 69.31529 70.44061 69.87795
# Shear Modulus (GPa) = 33.57497 35.50634 34.54065
#
# Velocity S-wave (km/s) = 3.97503 4.08776 4.03179
# Velocity P-wave (km/s) = 7.32725 7.44514 7.38643
#
# Compressibility (1/GPa) = 0.01442683
#
# Stress axis : x y z
#
# Youngs Moduli (GPa) = 100.24644 72.45282 70.94792
#
# Poissons Ratio (x) = 0.27008 0.07084
# Poissons Ratio (y) = 0.37368 0.49640
# Poissons Ratio (z) = 0.10010 0.50693
#
# Static dielectric constant tensor:
#      x y z
#    x 4.028310 0.000000 0.000000 
#    y 0.000000 4.087110 0.000000 
#    z 0.000000 0.000000 3.696530 
# 
# 
# High freq. dielectric constant tensor:
#      x y z
#    x 1.851460 0.000000 0.000000 
#    y 0.000000 1.851200 0.000000 
#    z 0.000000 0.000000 1.822060 
# 
# From -- ./inp_files/31283.got.cif
#   From: 2010.03.12/outbox.cif.g09.slc.cpg/sg73_16_cif.got.tgz:31283.got - 2010.04.16 15:25:48.
