data_PCOD8296162
_publ_section_title
;
Structure prediction by ZEFSAII (Michael W. Deem and Ramdas Pophale) SiO2 
 PCOD8296162
Probable space group: I B C A 
;
_chemical_formula_sum "Si O2"
_cell_formula_units_Z 88
_cell_length_a 15.358958
_cell_length_b 9.920176
_cell_length_c 29.184593
_cell_angle_alpha 90.000000
_cell_angle_beta 90.000000
_cell_angle_gamma 90.000000
_cell_volume 4446.668677
_symmetry_space_group_name_H-M "I B C A "
_symmetry_group_IT_number 73
_symmetry_cell_setting 'orthorhombic'
loop_
_space_group_symop_operation_xyz
x,y,z
-x,1/2-y,z
x,-y,1/2-z
1/2-x,y,-z
-x,-y,-z
x,1/2+y,-z
-x,y,1/2+z
1/2+x,-y,z
1/2+x,1/2+y,1/2+z
1/2-x,-y,1/2+z
1/2+x,1/2-y,-z
-x,1/2+y,1/2-z
1/2-x,1/2-y,1/2-z
1/2+x,y,1/2-z
1/2-x,1/2+y,z
x,1/2-y,1/2+z
loop_
_atom_site_type_symbol
_atom_site_label
_atom_site_fract_x
_atom_site_fract_y
_atom_site_fract_z
Si Si1 0.596691 0.748796 0.850765
Si Si2 0.750000 0.163626 0.000000
Si Si3 0.731470 0.373298 0.718249
Si Si4 0.160883 0.459079 0.916705
Si Si5 0.164578 0.544696 0.363667
Si Si6 0.598377 0.759457 0.064953
O O1 0.500000 0.750000 0.831864
O O2 0.651339 0.668440 0.813373
O O3 0.606025 0.669266 0.898907
O O4 0.617855 0.903207 0.859867
O O5 0.692336 0.068681 0.031949
O O6 0.821899 0.249917 0.028416
O O7 0.706975 0.500000 0.750000
O O8 0.750000 0.250000 0.750000
O O9 0.817761 0.398567 0.687395
O O10 0.242911 0.487725 0.885198
O O11 0.101684 0.591405 0.914081
O O12 0.109981 0.649852 0.394509
O O13 0.500000 0.750000 0.043820
#
# Coordination Sequence:
#
# PCOD8296162 Si02
#       6
#    16   8  16  16  16  16
#     4  11  23  40  60  91 124 157 201 254 315 365
#     4  10  22  38  62  92 128 164 210 260 314 370
#     4  11  22  41  65  87 118 162 206 247 308 377
#     4  10  21  38  63  86 121 165 206 252 307 373
#     4  10  21  40  63  85 122 161 204 250 308 382
#     4  11  23  39  62  94 123 164 214 259 314 370
#
# _framework density 19.790095000000001
#
# number of rings (size 3 to 8) (size 9 to 14) (size 15 to 20)
#    0.000    1.455    1.818    4.909    2.545    2.909 
#    3.273    0.000    0.000    0.000    0.000    0.000 
#    0.000    0.000    0.000    0.000    0.000    0.000 
#
# Total GULP energy -545420.922724 kJ/mol
# GULP energy per Si atom -12395.930062 kJ/mol
# Density = 1.974505 g / cm^3
# Si number density = 19.790095 Si / 1000 Ang^3
#
#
#
# Elastic Constant Matrix: (Units=GPa)
#
#
# Indices 1 2 3 4 5 6 
#
# 1 116.1419 60.1989 32.9150 0.0000 0.0000 0.0000
# 2 60.1989 174.0031 68.7868 0.0000 0.0000 0.0000
# 3 32.9150 68.7868 109.5338 0.0000 0.0000 0.0000
# 4 0.0000 0.0000 0.0000 -118.4442 0.0000 0.0000
# 5 0.0000 0.0000 0.0000 0.0000 14.5923 0.0000
# 6 0.0000 0.0000 0.0000 0.0000 0.0000 15.9503
#
#
#
# Elastic Compliance Matrix: (Units=1/GPa)
#
#
# Indices 1 2 3 4 5 6 
#
# 1 0.010604 -0.003204 -0.001174 0.000000 0.000000 0.000000
# 2 -0.003204 0.008613 -0.004446 0.000000 0.000000 0.000000
# 3 -0.001174 -0.004446 0.012275 0.000000 0.000000 0.000000
# 4 0.000000 0.000000 0.000000 -0.008443 0.000000 0.000000
# 5 0.000000 0.000000 0.000000 0.000000 0.068529 0.000000
# 6 0.000000 0.000000 0.000000 0.000000 0.000000 0.062695
#
#
# Mechanical properties :
#
#
# Convention : Reuss Voigt Hill
#
# Bulk Modulus (GPa) = 72.24216 80.38669 76.31442
# Shear Modulus (GPa) = 28.32280 -1.72843 13.29718
#
# Velocity S-wave (km/s) = 3.78717 -0.93556 2.59494
# Velocity P-wave (km/s) = 7.46371 6.28815 6.90101
#
# Compressibility (1/GPa) = 0.01384233
#
# Stress axis : x y z
#
# Youngs Moduli (GPa) = 94.30575 116.09953 81.46893
#
# Poissons Ratio (x) = 0.37203 0.09565
# Poissons Ratio (y) = 0.30219 0.36223
# Poissons Ratio (z) = 0.11072 0.51620
#
# Static dielectric constant tensor:
#      x y z
#    x 3.680310 0.000000 0.000000 
#    y 0.000000 3.736130 0.000000 
#    z 0.000000 0.000000 3.799830 
# 
# 
# High freq. dielectric constant tensor:
#      x y z
#    x 1.763010 0.000000 0.000000 
#    y 0.000000 1.790540 0.000000 
#    z 0.000000 0.000000 1.771810 
# 
# From -- ./inp_files/14210.got.cif
#   From: 2010.03.12/outbox.cif.g09.slc.cpg/sg73_8_cif.got.tgz:14210.got - 2010.04.16 15:25:48.
