data_PCOD8296359
_publ_section_title
;
Structure prediction by ZEFSAII (Michael W. Deem and Ramdas Pophale) SiO2 
 PCOD8296359
Probable space group: I B C A 
;
_chemical_formula_sum "Si O2"
_cell_formula_units_Z 120
_cell_length_a 26.141733
_cell_length_b 9.025769
_cell_length_c 24.445158
_cell_angle_alpha 90.000000
_cell_angle_beta 90.000000
_cell_angle_gamma 90.000000
_cell_volume 5767.816533
_symmetry_space_group_name_H-M "I B C A "
_symmetry_group_IT_number 73
_symmetry_cell_setting 'orthorhombic'
loop_
_space_group_symop_operation_xyz
x,y,z
-x,1/2-y,z
x,-y,1/2-z
1/2-x,y,-z
-x,-y,-z
x,1/2+y,-z
-x,y,1/2+z
1/2+x,-y,z
1/2+x,1/2+y,1/2+z
1/2-x,-y,1/2+z
1/2+x,1/2-y,-z
-x,1/2+y,1/2-z
1/2-x,1/2-y,1/2-z
1/2+x,y,1/2-z
1/2-x,1/2+y,z
x,1/2-y,1/2+z
loop_
_atom_site_type_symbol
_atom_site_label
_atom_site_fract_x
_atom_site_fract_y
_atom_site_fract_z
Si Si1 0.910727 0.981073 0.074072
Si Si2 0.016130 0.410327 0.612759
Si Si3 0.900261 0.809215 0.968489
Si Si4 0.246466 0.633455 0.644419
Si Si5 0.816969 0.122285 0.611313
Si Si6 0.151080 0.177467 0.837197
Si Si7 0.600896 0.026825 0.186303
Si Si8 0.707786 0.000000 0.750000
O O1 0.898574 0.133768 0.042639
O O2 0.968185 0.987052 0.097242
O O3 0.871410 0.951115 0.123659
O O4 0.904650 0.842375 0.032770
O O5 0.051263 0.387746 0.559450
O O6 0.045990 0.488009 0.661717
O O7 0.000000 0.250000 0.635380
O O8 0.847967 0.881268 0.945376
O O9 0.231887 0.487907 0.609033
O O10 0.297861 0.709907 0.621894
O O11 0.200602 0.748121 0.635948
O O12 0.255164 0.586589 0.707729
O O13 0.854197 0.074024 0.660776
O O14 0.108302 0.300074 0.826109
O O15 0.169435 0.110041 0.780263
O O16 0.600313 0.000000 0.250000
#
# Coordination Sequence:
#
# PCOD8296359 Si02
#       8
#    16  16  16  16  16  16  16   8
#     4  11  24  44  68  98 133 169 227 274 336 394
#     4   9  21  44  67  98 127 170 220 274 329 402
#     4  10  23  42  71  95 128 174 214 281 334 393
#     4  11  22  38  65  96 128 172 220 266 322 397
#     4  10  22  39  65  93 133 167 219 271 320 396
#     4  11  25  38  64 100 132 173 224 276 328 392
#     4  10  22  41  65  96 138 176 215 269 335 392
#     4  12  22  40  66  94 132 176 224 268 326 396
#
# _framework density 20.805101000000001
#
# number of rings (size 3 to 8) (size 9 to 14) (size 15 to 20)
#    0.000    1.600    1.333    2.400    9.333    2.667 
#    3.600    0.667    2.933    0.000    0.000    0.000 
#    0.000    0.000    0.000    0.000    0.000    0.000 
#
# Total GULP energy -744018.059034 kJ/mol
# GULP energy per Si atom -12400.300984 kJ/mol
# Density = 2.075775 g / cm^3
# Si number density = 20.805101 Si / 1000 Ang^3
#
#
#
# Elastic Constant Matrix: (Units=GPa)
#
#
# Indices 1 2 3 4 5 6 
#
# 1 111.0936 65.9839 51.2751 0.0000 0.0000 0.0000
# 2 65.9839 103.3644 38.2322 0.0000 0.0000 0.0000
# 3 51.2751 38.2322 70.1778 0.0000 0.0000 0.0000
# 4 0.0000 0.0000 0.0000 34.4600 0.0000 0.0000
# 5 0.0000 0.0000 0.0000 0.0000 23.6755 0.0000
# 6 0.0000 0.0000 0.0000 0.0000 0.0000 48.9893
#
#
#
# Elastic Compliance Matrix: (Units=1/GPa)
#
#
# Indices 1 2 3 4 5 6 
#
# 1 0.017829 -0.008219 -0.008549 0.000000 0.000000 0.000000
# 2 -0.008219 0.015905 -0.002660 0.000000 0.000000 0.000000
# 3 -0.008549 -0.002660 0.021945 0.000000 0.000000 0.000000
# 4 0.000000 0.000000 0.000000 0.029019 0.000000 0.000000
# 5 0.000000 0.000000 0.000000 0.000000 0.042238 0.000000
# 6 0.000000 0.000000 0.000000 0.000000 0.000000 0.020413
#
#
# Mechanical properties :
#
#
# Convention : Reuss Voigt Hill
#
# Bulk Modulus (GPa) = 59.44156 66.17979 62.81067
# Shear Modulus (GPa) = 26.06727 30.03461 28.05094
#
# Velocity S-wave (km/s) = 3.54351 3.80362 3.67587
# Velocity P-wave (km/s) = 6.73607 7.15321 6.94777
#
# Compressibility (1/GPa) = 0.01682325
#
# Stress axis : x y z
#
# Youngs Moduli (GPa) = 56.08848 62.87292 45.56931
#
# Poissons Ratio (x) = 0.51677 0.38957
# Poissons Ratio (y) = 0.46101 0.12119
# Poissons Ratio (z) = 0.47949 0.16721
#
# Static dielectric constant tensor:
#      x y z
#    x 3.871890 0.000000 0.000000 
#    y 0.000000 4.435460 0.000000 
#    z 0.000000 0.000000 3.478610 
# 
# 
# High freq. dielectric constant tensor:
#      x y z
#    x 1.821720 0.000000 0.000000 
#    y 0.000000 1.826670 0.000000 
#    z 0.000000 0.000000 1.790910 
# 
# From -- ./inp_files/30530.got.cif
#   From: 2010.03.12/outbox.cif.g09.slc.cpg/sg73_16_cif.got.tgz:30530.got - 2010.04.16 15:25:48.
