data_PCOD8296398
_publ_section_title
;
Structure prediction by ZEFSAII (Michael W. Deem and Ramdas Pophale) SiO2 
 PCOD8296398
Probable space group: I B C A 
;
_chemical_formula_sum "Si O2"
_cell_formula_units_Z 88
_cell_length_a 14.829715
_cell_length_b 13.109724
_cell_length_c 20.179279
_cell_angle_alpha 90.000000
_cell_angle_beta 90.000000
_cell_angle_gamma 90.000000
_cell_volume 3923.123666
_symmetry_space_group_name_H-M "I B C A "
_symmetry_group_IT_number 73
_symmetry_cell_setting 'orthorhombic'
loop_
_space_group_symop_operation_xyz
x,y,z
-x,1/2-y,z
x,-y,1/2-z
1/2-x,y,-z
-x,-y,-z
x,1/2+y,-z
-x,y,1/2+z
1/2+x,-y,z
1/2+x,1/2+y,1/2+z
1/2-x,-y,1/2+z
1/2+x,1/2-y,-z
-x,1/2+y,1/2-z
1/2-x,1/2-y,1/2-z
1/2+x,y,1/2-z
1/2-x,1/2+y,z
x,1/2-y,1/2+z
loop_
_atom_site_type_symbol
_atom_site_label
_atom_site_fract_x
_atom_site_fract_y
_atom_site_fract_z
Si Si1 0.354268 0.784878 0.146607
Si Si2 0.520815 0.890179 0.101887
Si Si3 0.660584 0.258318 0.620114
Si Si4 0.067877 0.433959 0.808353
Si Si5 0.000000 0.250000 0.982087
Si Si6 0.631859 0.891172 0.773641
O O1 0.417210 0.879483 0.124879
O O2 0.409822 0.680950 0.141488
O O3 0.264217 0.782457 0.100391
O O4 0.331130 0.805241 0.223111
O O5 0.549865 0.004856 0.121606
O O6 0.520414 0.852562 0.025158
O O7 0.630272 0.339063 0.675423
O O8 0.590800 0.264954 0.559790
O O9 0.663360 0.145210 0.653235
O O10 0.115835 0.500000 0.750000
O O11 0.976446 0.393545 0.774753
O O12 0.671942 0.000000 0.750000
#
# Coordination Sequence:
#
# PCOD8296398 Si02
#       6
#    16  16  16  16   8  16
#     4  10  22  40  66  93 131 167 224 268 344 387
#     4  10  23  43  65  91 128 182 215 278 326 410
#     4  12  24  40  64 100 130 177 217 283 331 414
#     4  11  21  40  68  92 132 168 220 275 356 398
#     4  10  24  42  66  90 138 176 234 268 342 398
#     4  11  21  38  64  95 131 168 211 281 337 404
#
# _framework density 22.431104999999999
#
# number of rings (size 3 to 8) (size 9 to 14) (size 15 to 20)
#    0.000    1.455    5.455    1.636    2.545    5.818 
#    0.000    0.000    0.000    4.364    0.000    0.000 
#    0.000    0.000    0.000    0.000    0.000    0.000 
#
# Total GULP energy -545135.726556 kJ/mol
# GULP energy per Si atom -12389.448331 kJ/mol
# Density = 2.238005 g / cm^3
# Si number density = 22.431105 Si / 1000 Ang^3
#
#
#
# Elastic Constant Matrix: (Units=GPa)
#
#
# Indices 1 2 3 4 5 6 
#
# 1 129.3018 31.0612 33.3178 0.0000 0.0000 0.0000
# 2 31.0612 84.8292 39.5757 0.0000 0.0000 0.0000
# 3 33.3178 39.5757 111.8486 0.0000 0.0000 0.0000
# 4 0.0000 0.0000 0.0000 36.9395 0.0000 0.0000
# 5 0.0000 0.0000 0.0000 0.0000 -3.8604 0.0000
# 6 0.0000 0.0000 0.0000 0.0000 0.0000 10.3702
#
#
#
# Elastic Compliance Matrix: (Units=1/GPa)
#
#
# Indices 1 2 3 4 5 6 
#
# 1 0.008762 -0.002384 -0.001766 0.000000 0.000000 0.000000
# 2 -0.002384 0.014768 -0.004515 0.000000 0.000000 0.000000
# 3 -0.001766 -0.004515 0.011064 0.000000 0.000000 0.000000
# 4 0.000000 0.000000 0.000000 0.027071 0.000000 0.000000
# 5 0.000000 0.000000 0.000000 0.000000 -0.259041 0.000000
# 6 0.000000 0.000000 0.000000 0.000000 0.000000 0.096430
#
#
# Mechanical properties :
#
#
# Convention : Reuss Voigt Hill
#
# Bulk Modulus (GPa) = 57.92846 59.32099 58.62473
# Shear Modulus (GPa) = -64.21797 23.49151 -20.36323
#
# Velocity S-wave (km/s) = -5.35641 3.23967 -3.01626
# Velocity P-wave (km/s) = 3.51763 6.36374 3.74990
#
# Compressibility (1/GPa) = 0.01726267
#
# Stress axis : x y z
#
# Youngs Moduli (GPa) = 114.13284 67.71467 90.37955
#
# Poissons Ratio (x) = 0.16144 0.15965
# Poissons Ratio (y) = 0.27211 0.40808
# Poissons Ratio (z) = 0.20160 0.30574
#
# Static dielectric constant tensor:
#      x y z
#    x 3.965610 0.000000 0.000000 
#    y 0.000000 4.129730 0.000000 
#    z 0.000000 0.000000 3.966420 
# 
# 
# High freq. dielectric constant tensor:
#      x y z
#    x 1.877620 0.000000 0.000000 
#    y 0.000000 1.876380 0.000000 
#    z 0.000000 0.000000 1.867570 
# 
# From -- ./inp_files/25920.got.cif
#   From: 2010.03.12/outbox.cif.g09.slc.cpg/sg73_13_cif.got.tgz:25920.got - 2010.04.16 15:25:48.
