data_PCOD8296953
_publ_section_title
;
Structure prediction by ZEFSAII (Michael W. Deem and Ramdas Pophale) SiO2 
 PCOD8296953
Probable space group: I B C A 
;
_chemical_formula_sum "Si O2"
_cell_formula_units_Z 112
_cell_length_a 11.867927
_cell_length_b 31.455665
_cell_length_c 13.293951
_cell_angle_alpha 90.000000
_cell_angle_beta 90.000000
_cell_angle_gamma 90.000000
_cell_volume 4962.811855
_symmetry_space_group_name_H-M "I B C A "
_symmetry_group_IT_number 73
_symmetry_cell_setting 'orthorhombic'
loop_
_space_group_symop_operation_xyz
x,y,z
-x,1/2-y,z
x,-y,1/2-z
1/2-x,y,-z
-x,-y,-z
x,1/2+y,-z
-x,y,1/2+z
1/2+x,-y,z
1/2+x,1/2+y,1/2+z
1/2-x,-y,1/2+z
1/2+x,1/2-y,-z
-x,1/2+y,1/2-z
1/2-x,1/2-y,1/2-z
1/2+x,y,1/2-z
1/2-x,1/2+y,z
x,1/2-y,1/2+z
loop_
_atom_site_type_symbol
_atom_site_label
_atom_site_fract_x
_atom_site_fract_y
_atom_site_fract_z
Si Si1 0.342490 0.864129 0.630727
Si Si2 0.894924 0.323315 0.851973
Si Si3 0.864593 0.957478 0.960532
Si Si4 0.000000 0.250000 0.981300
Si Si5 0.422462 0.318581 0.881828
Si Si6 0.086408 0.109181 0.337978
Si Si7 0.497438 0.022552 0.157874
Si Si8 0.750000 0.626056 0.000000
O O1 0.226029 0.839574 0.606254
O O2 0.346045 0.909573 0.576367
O O3 0.453150 0.838124 0.596945
O O4 0.342635 0.867969 0.751216
O O5 0.897058 0.310629 0.734923
O O6 0.926674 0.281022 0.911886
O O7 0.983968 0.360861 0.873450
O O8 0.910548 0.987333 0.872336
O O9 0.750000 0.978036 0.000000
O O10 0.939778 0.958836 0.059889
O O11 0.085046 0.275210 0.054762
O O12 0.322252 0.347379 0.921412
O O13 0.048215 0.064592 0.290901
O O14 0.165152 0.097980 0.433622
O O15 0.426361 0.000000 0.250000
#
# Coordination Sequence:
#
# PCOD8296953 Si02
#       8
#    16  16  16   8  16  16  16   8
#     4  11  24  47  73 105 143 190 247 304 364 450
#     4  11  25  48  74 105 145 192 247 312 369 457
#     4  11  25  43  69 105 143 188 244 296 360 432
#     4  12  26  48  70 106 142 190 242 310 380 440
#     4  11  26  44  71 107 139 190 239 298 381 442
#     4  11  23  45  72 103 144 196 243 293 382 434
#     4  11  24  46  68 106 149 189 241 307 355 438
#     4  12  22  46  70 104 144 192 236 298 366 458
#
# _framework density 22.567852999999999
#
# number of rings (size 3 to 8) (size 9 to 14) (size 15 to 20)
#    0.000    0.857    4.286    2.143    3.000    1.714 
#    2.571    2.857    0.000    0.000    0.000    0.000 
#    0.000    0.000    0.000    0.000    0.000    0.000 
#
# Total GULP energy -694078.423557 kJ/mol
# GULP energy per Si atom -12394.257564 kJ/mol
# Density = 2.251649 g / cm^3
# Si number density = 22.567853 Si / 1000 Ang^3
#
#
#
# Elastic Constant Matrix: (Units=GPa)
#
#
# Indices 1 2 3 4 5 6 
#
# 1 115.7752 48.0942 33.1939 0.0029 -0.0003 -0.0001
# 2 48.0942 133.7072 46.9510 0.0003 -0.0002 -0.0003
# 3 33.1939 46.9510 79.1558 0.0071 -0.0016 -0.0009
# 4 0.0029 0.0003 0.0071 59.0008 -0.0010 -0.0001
# 5 -0.0003 -0.0002 -0.0016 -0.0010 34.2515 0.0007
# 6 -0.0001 -0.0003 -0.0009 -0.0001 0.0007 23.0413
#
#
#
# Elastic Compliance Matrix: (Units=1/GPa)
#
#
# Indices 1 2 3 4 5 6 
#
# 1 0.010612 -0.002848 -0.002761 0.000000 0.000000 0.000000
# 2 -0.002848 0.010211 -0.004862 0.000001 0.000000 0.000000
# 3 -0.002761 -0.004862 0.016675 -0.000002 0.000001 0.000001
# 4 0.000000 0.000001 -0.000002 0.016949 0.000000 0.000000
# 5 0.000000 0.000000 0.000001 0.000000 0.029196 -0.000001
# 6 0.000000 0.000000 0.000001 0.000000 -0.000001 0.043400
#
#
# Mechanical properties :
#
#
# Convention : Reuss Voigt Hill
#
# Bulk Modulus (GPa) = 60.40122 65.01293 62.70707
# Shear Modulus (GPa) = 32.57256 36.61868 34.59562
#
# Velocity S-wave (km/s) = 3.80322 4.03253 3.91955
# Velocity P-wave (km/s) = 6.79032 7.10999 6.95199
#
# Compressibility (1/GPa) = 0.01655596
#
# Stress axis : x y z
#
# Youngs Moduli (GPa) = 94.23328 97.93679 59.96918
#
# Poissons Ratio (x) = 0.27888 0.16558
# Poissons Ratio (y) = 0.26833 0.29159
# Poissons Ratio (z) = 0.26019 0.47620
#
# Static dielectric constant tensor:
#      x y z
#    x 4.162230 0.000000 -0.000060 
#    y 0.000000 4.020350 -0.000010 
#    z -0.000060 -0.000010 3.849100 
# 
# 
# High freq. dielectric constant tensor:
#      x y z
#    x 1.879840 0.000000 0.000000 
#    y 0.000000 1.888390 0.000000 
#    z 0.000000 0.000000 1.924280 
# 
# From -- ./inp_files/16377.got.cif
#   From: 2010.03.12/outbox.cif.g09.slc.cpg/sg73_9_cif.got.tgz:16377.got - 2010.04.16 15:25:48.
