data_PCOD8296320
_publ_section_title
;
Structure prediction by ZEFSAII (Michael W. Deem and Ramdas Pophale) SiO2 
 PCOD8296320
Probable space group: I B C A 
;
_chemical_formula_sum "Si O2"
_cell_formula_units_Z 120
_cell_length_a 10.589114
_cell_length_b 20.984837
_cell_length_c 27.615380
_cell_angle_alpha 90.000000
_cell_angle_beta 90.000000
_cell_angle_gamma 90.000000
_cell_volume 6136.436545
_symmetry_space_group_name_H-M "I B C A "
_symmetry_group_IT_number 73
_symmetry_cell_setting 'orthorhombic'
loop_
_space_group_symop_operation_xyz
x,y,z
-x,1/2-y,z
x,-y,1/2-z
1/2-x,y,-z
-x,-y,-z
x,1/2+y,-z
-x,y,1/2+z
1/2+x,-y,z
1/2+x,1/2+y,1/2+z
1/2-x,-y,1/2+z
1/2+x,1/2-y,-z
-x,1/2+y,1/2-z
1/2-x,1/2-y,1/2-z
1/2+x,y,1/2-z
1/2-x,1/2+y,z
x,1/2-y,1/2+z
loop_
_atom_site_type_symbol
_atom_site_label
_atom_site_fract_x
_atom_site_fract_y
_atom_site_fract_z
Si Si1 0.130017 0.399369 0.186188
Si Si2 0.872972 0.003384 0.030324
Si Si3 0.467625 0.064073 0.895096
Si Si4 0.871662 0.710734 0.737728
Si Si5 0.428424 0.182965 0.133984
Si Si6 0.985734 0.500000 0.750000
Si Si7 0.900085 0.435799 0.341072
Si Si8 0.263727 0.871949 0.446156
O O1 0.118880 0.341536 0.221816
O O2 0.261990 0.404970 0.158690
O O3 0.014231 0.391665 0.148672
O O4 0.109811 0.463881 0.215305
O O5 0.904060 0.049955 0.074736
O O6 0.851680 0.933330 0.050727
O O7 0.750000 0.027364 0.000000
O O8 0.000000 0.000000 0.000000
O O9 0.371723 0.105079 0.926839
O O10 0.404968 0.998173 0.875507
O O11 0.750000 0.750000 0.750000
O O12 0.851390 0.682201 0.684276
O O13 0.000000 0.750000 0.738191
O O14 0.500000 0.250000 0.126584
O O15 0.515670 0.120340 0.136051
O O16 0.328533 0.178076 0.090041
O O17 0.067900 0.546590 0.715153
O O18 0.250000 0.841127 0.500000
#
# Coordination Sequence:
#
# PCOD8296320 Si02
#       8
#    16  16  16  16  16   8  16  16
#     4  11  23  37  61  93 134 163 212 267 328 390
#     4  11  20  36  62  96 134 173 219 271 339 409
#     4  11  23  37  62 105 132 170 212 276 344 403
#     4  11  25  44  67  93 125 173 224 268 315 390
#     4  11  24  43  70  90 125 183 225 265 321 400
#     4  10  22  36  58  94 130 166 208 256 332 390
#     4  11  22  38  61  96 134 171 214 266 332 400
#     4  11  23  41  69  95 132 173 219 277 342 392
#
# _framework density 19.555323000000001
#
# number of rings (size 3 to 8) (size 9 to 14) (size 15 to 20)
#    0.000    1.067    5.333    2.800    3.733    1.067 
#    0.000    0.000    5.867    0.000    0.000    0.000 
#    0.000    0.000    0.000    0.000    0.000    0.000 
#
# Total GULP energy -743724.279368 kJ/mol
# GULP energy per Si atom -12395.404656 kJ/mol
# Density = 1.951081 g / cm^3
# Si number density = 19.555323 Si / 1000 Ang^3
#
#
#
# Elastic Constant Matrix: (Units=GPa)
#
#
# Indices 1 2 3 4 5 6 
#
# 1 112.0408 30.7809 61.6981 0.0000 0.0000 0.0000
# 2 30.7809 69.6911 53.5469 0.0000 0.0000 0.0000
# 3 61.6981 53.5469 147.1569 0.0000 0.0000 0.0000
# 4 0.0000 0.0000 0.0000 18.7304 0.0000 0.0000
# 5 0.0000 0.0000 0.0000 0.0000 36.6687 0.0000
# 6 0.0000 0.0000 0.0000 0.0000 0.0000 -27.3970
#
#
#
# Elastic Compliance Matrix: (Units=1/GPa)
#
#
# Indices 1 2 3 4 5 6 
#
# 1 0.011794 -0.001957 -0.004233 0.000000 0.000000 0.000000
# 2 -0.001957 0.020242 -0.006545 0.000000 0.000000 0.000000
# 3 -0.004233 -0.006545 0.010952 0.000000 0.000000 0.000000
# 4 0.000000 0.000000 0.000000 0.053389 0.000000 0.000000
# 5 0.000000 0.000000 0.000000 0.000000 0.027271 0.000000
# 6 0.000000 0.000000 0.000000 0.000000 0.000000 -0.036500
#
#
# Mechanical properties :
#
#
# Convention : Reuss Voigt Hill
#
# Bulk Modulus (GPa) = 57.08328 68.99341 63.03834
# Shear Modulus (GPa) = 42.20946 17.79128 30.00037
#
# Velocity S-wave (km/s) = 4.65097 3.01955 3.92104
# Velocity P-wave (km/s) = 7.62207 6.89309 7.26673
#
# Compressibility (1/GPa) = 0.01751826
#
# Stress axis : x y z
#
# Youngs Moduli (GPa) = 84.79063 49.40141 91.30951
#
# Poissons Ratio (x) = 0.09667 0.38649
# Poissons Ratio (y) = 0.16592 0.59764
# Poissons Ratio (z) = 0.35889 0.32335
#
# Static dielectric constant tensor:
#      x y z
#    x 3.485510 0.000000 0.000000 
#    y 0.000000 3.191120 0.000000 
#    z 0.000000 0.000000 3.790880 
# 
# 
# High freq. dielectric constant tensor:
#      x y z
#    x 1.769180 0.000000 0.000000 
#    y 0.000000 1.735690 0.000000 
#    z 0.000000 0.000000 1.782260 
# 
# From -- ./inp_files/31415.got.cif
#   From: 2010.03.12/outbox.cif.g09.slc.cpg/sg73_16_cif.got.tgz:31415.got - 2010.04.16 15:25:48.
