data_PCOD8296899
_publ_section_title
;
Structure prediction by ZEFSAII (Michael W. Deem and Ramdas Pophale) SiO2 
 PCOD8296899
Probable space group: I B C A 
;
_chemical_formula_sum "Si O2"
_cell_formula_units_Z 120
_cell_length_a 24.324452
_cell_length_b 9.386205
_cell_length_c 24.084489
_cell_angle_alpha 90.000000
_cell_angle_beta 90.000000
_cell_angle_gamma 90.000000
_cell_volume 5498.833078
_symmetry_space_group_name_H-M "I B C A "
_symmetry_group_IT_number 73
_symmetry_cell_setting 'orthorhombic'
loop_
_space_group_symop_operation_xyz
x,y,z
-x,1/2-y,z
x,-y,1/2-z
1/2-x,y,-z
-x,-y,-z
x,1/2+y,-z
-x,y,1/2+z
1/2+x,-y,z
1/2+x,1/2+y,1/2+z
1/2-x,-y,1/2+z
1/2+x,1/2-y,-z
-x,1/2+y,1/2-z
1/2-x,1/2-y,1/2-z
1/2+x,y,1/2-z
1/2-x,1/2+y,z
x,1/2-y,1/2+z
loop_
_atom_site_type_symbol
_atom_site_label
_atom_site_fract_x
_atom_site_fract_y
_atom_site_fract_z
Si Si1 0.986017 0.529811 0.689482
Si Si2 0.119873 0.661727 0.556181
Si Si3 0.307727 0.831384 0.739725
Si Si4 0.000000 0.750000 0.384345
Si Si5 0.694367 0.299687 0.887255
Si Si6 0.761306 0.055190 0.938986
Si Si7 0.909216 0.284389 0.320855
Si Si8 0.907530 0.361905 0.038038
O O1 0.962574 0.500000 0.750000
O O2 0.987723 0.386759 0.653475
O O3 0.046401 0.598079 0.698093
O O4 0.940562 0.637120 0.665382
O O5 0.184727 0.648397 0.548807
O O6 0.114345 0.665872 0.621509
O O7 0.082605 0.531219 0.532068
O O8 0.097401 0.799595 0.523965
O O9 0.250000 0.750000 0.750000
O O10 0.325182 0.796042 0.676570
O O11 0.358116 0.773314 0.777721
O O12 0.299672 0.000000 0.750000
O O13 0.950613 0.722328 0.425541
O O14 0.714908 0.149904 0.909969
O O15 0.738502 0.425976 0.894848
O O16 0.647970 0.351634 0.928290
O O17 0.750000 0.992031 0.000000
#
# Coordination Sequence:
#
# PCOD8296899 Si02
#       8
#    16  16  16   8  16  16  16  16
#     4  11  26  45  76 105 134 188 239 295 358 424
#     4  11  24  45  67 103 138 190 226 292 361 418
#     4  12  26  47  70 105 149 193 234 292 360 425
#     4  12  26  48  68 108 136 180 238 302 362 424
#     4  11  24  42  68  99 135 184 228 294 345 419
#     4  11  22  42  67 100 140 183 241 285 344 425
#     4  11  25  49  73 101 147 187 240 296 354 433
#     4  11  26  42  69  98 140 179 232 289 360 418
#
# _framework density 21.822811999999999
#
# number of rings (size 3 to 8) (size 9 to 14) (size 15 to 20)
#    0.000    0.800    2.667    4.800    7.467    2.133 
#    2.400    0.000    0.000    0.000    0.000    0.000 
#    0.000    0.000    0.000    0.000    0.000    0.000 
#
# Total GULP energy -743685.983285 kJ/mol
# GULP energy per Si atom -12394.766388 kJ/mol
# Density = 2.177314 g / cm^3
# Si number density = 21.822812 Si / 1000 Ang^3
#
#
#
# Elastic Constant Matrix: (Units=GPa)
#
#
# Indices 1 2 3 4 5 6 
#
# 1 70.2894 20.7091 13.4116 0.0000 0.0000 0.0000
# 2 20.7091 73.1350 42.2779 0.0000 0.0000 0.0000
# 3 13.4116 42.2779 115.5348 0.0000 0.0000 0.0000
# 4 0.0000 0.0000 0.0000 39.0344 0.0000 0.0000
# 5 0.0000 0.0000 0.0000 0.0000 21.0307 0.0000
# 6 0.0000 0.0000 0.0000 0.0000 0.0000 71.0695
#
#
#
# Elastic Compliance Matrix: (Units=1/GPa)
#
#
# Indices 1 2 3 4 5 6 
#
# 1 0.015527 -0.004255 -0.000245 0.000000 0.000000 0.000000
# 2 -0.004255 0.018508 -0.006279 0.000000 0.000000 0.000000
# 3 -0.000245 -0.006279 0.010981 0.000000 0.000000 0.000000
# 4 0.000000 0.000000 0.000000 0.025618 0.000000 0.000000
# 5 0.000000 0.000000 0.000000 0.000000 0.047550 0.000000
# 6 0.000000 0.000000 0.000000 0.000000 0.000000 0.014071
#
#
# Mechanical properties :
#
#
# Convention : Reuss Voigt Hill
#
# Bulk Modulus (GPa) = 42.62838 45.75071 44.18955
# Shear Modulus (GPa) = 30.93432 38.39763 34.66597
#
# Velocity S-wave (km/s) = 3.76908 4.19921 3.98995
# Velocity P-wave (km/s) = 6.20625 6.67243 6.44356
#
# Compressibility (1/GPa) = 0.02345855
#
# Stress axis : x y z
#
# Youngs Moduli (GPa) = 64.40262 54.03141 91.06257
#
# Poissons Ratio (x) = 0.22990 0.02235
# Poissons Ratio (y) = 0.27402 0.57175
# Poissons Ratio (z) = 0.01581 0.33925
#
# Static dielectric constant tensor:
#      x y z
#    x 3.728530 0.000000 0.000000 
#    y 0.000000 4.816260 0.000000 
#    z 0.000000 0.000000 4.027210 
# 
# 
# High freq. dielectric constant tensor:
#      x y z
#    x 1.856210 0.000000 0.000000 
#    y 0.000000 1.868900 0.000000 
#    z 0.000000 0.000000 1.871990 
# 
# From -- ./inp_files/30518.got.cif
#   From: 2010.03.12/outbox.cif.g09.slc.cpg/sg73_16_cif.got.tgz:30518.got - 2010.04.16 15:25:48.
