data_PCOD8296040
_publ_section_title
;
Structure prediction by ZEFSAII (Michael W. Deem and Ramdas Pophale) SiO2 
 PCOD8296040
Probable space group: I B C A 
;
_chemical_formula_sum "Si O2"
_cell_formula_units_Z 64
_cell_length_a 31.791255
_cell_length_b 5.226219
_cell_length_c 19.048934
_cell_angle_alpha 90.000000
_cell_angle_beta 90.000000
_cell_angle_gamma 90.000000
_cell_volume 3164.943447
_symmetry_space_group_name_H-M "I B C A "
_symmetry_group_IT_number 73
_symmetry_cell_setting 'orthorhombic'
loop_
_space_group_symop_operation_xyz
x,y,z
-x,1/2-y,z
x,-y,1/2-z
1/2-x,y,-z
-x,-y,-z
x,1/2+y,-z
-x,y,1/2+z
1/2+x,-y,z
1/2+x,1/2+y,1/2+z
1/2-x,-y,1/2+z
1/2+x,1/2-y,-z
-x,1/2+y,1/2-z
1/2-x,1/2-y,1/2-z
1/2+x,y,1/2-z
1/2-x,1/2+y,z
x,1/2-y,1/2+z
loop_
_atom_site_type_symbol
_atom_site_label
_atom_site_fract_x
_atom_site_fract_y
_atom_site_fract_z
Si Si1 0.000000 0.750000 0.546912
Si Si2 0.231871 0.732652 0.922084
Si Si3 0.617324 0.500000 0.750000
Si Si4 0.088022 0.747347 0.619213
Si Si5 0.362460 0.267455 0.387074
O O1 0.040155 0.758267 0.596680
O O2 0.000000 0.500000 0.500000
O O3 0.246360 0.472768 0.882453
O O4 0.181890 0.763518 0.925248
O O5 0.250000 0.697268 0.000000
O O6 0.588585 0.308645 0.703145
O O7 0.645161 0.673445 0.696389
O O8 0.112035 0.510099 0.579873
O O9 0.111002 0.011425 0.600677
#
# Coordination Sequence:
#
# PCOD8296040 Si02
#       5
#     8  16   8  16  16
#     4  12  26  48  62 102 140 168 220 262 324 388
#     4  10  21  39  58  91 127 162 217 266 314 391
#     4   8  22  40  68  98 118 176 218 268 322 384
#     4  10  22  43  67  94 128 173 213 267 323 387
#     4  10  20  41  63  95 128 164 216 267 331 379
#
# _framework density 20.221532
#
# number of rings (size 3 to 8) (size 9 to 14) (size 15 to 20)
#    1.500    0.500    0.000    3.750    0.000    0.000 
#   31.500    1.250    0.000    0.000    0.000    0.000 
#    0.000    0.000    0.000    0.000    0.000    0.000 
#
# Total GULP energy -396455.037900 kJ/mol
# GULP energy per Si atom -12389.219934 kJ/mol
# Density = 2.017551 g / cm^3
# Si number density = 20.221532 Si / 1000 Ang^3
#
#
#
# Elastic Constant Matrix: (Units=GPa)
#
#
# Indices 1 2 3 4 5 6 
#
# 1 172.7840 56.8850 39.8574 0.0000 0.0000 0.0000
# 2 56.8850 184.1109 8.1034 0.0000 0.0000 0.0000
# 3 39.8574 8.1034 59.3258 0.0000 0.0000 0.0000
# 4 0.0000 0.0000 0.0000 11.4382 0.0000 0.0000
# 5 0.0000 0.0000 0.0000 0.0000 26.1757 0.0000
# 6 0.0000 0.0000 0.0000 0.0000 0.0000 38.6978
#
#
#
# Elastic Compliance Matrix: (Units=1/GPa)
#
#
# Indices 1 2 3 4 5 6 
#
# 1 0.007602 -0.002137 -0.004815 0.000000 0.000000 0.000000
# 2 -0.002137 0.006065 0.000607 0.000000 0.000000 0.000000
# 3 -0.004815 0.000607 0.020008 0.000000 0.000000 0.000000
# 4 0.000000 0.000000 0.000000 0.087426 0.000000 0.000000
# 5 0.000000 0.000000 0.000000 0.000000 0.038203 0.000000
# 6 0.000000 0.000000 0.000000 0.000000 0.000000 0.025841
#
#
# Mechanical properties :
#
#
# Convention : Reuss Voigt Hill
#
# Bulk Modulus (GPa) = 47.65276 69.54581 58.59929
# Shear Modulus (GPa) = 24.41037 36.02067 30.21552
#
# Velocity S-wave (km/s) = 3.47817 4.22513 3.86971
# Velocity P-wave (km/s) = 6.30450 7.63341 7.00056
#
# Compressibility (1/GPa) = 0.02098514
#
# Stress axis : x y z
#
# Youngs Moduli (GPa) = 131.54671 164.88044 49.97928
#
# Poissons Ratio (x) = 0.35232 0.24067
# Poissons Ratio (y) = 0.28109 -0.03035
# Poissons Ratio (z) = 0.63344 -0.10011
#
# Static dielectric constant tensor:
#      x y z
#    x 3.475660 0.000000 0.000000 
#    y 0.000000 5.038860 0.000000 
#    z 0.000000 0.000000 3.347230 
# 
# 
# High freq. dielectric constant tensor:
#      x y z
#    x 1.779290 0.000000 0.000000 
#    y 0.000000 1.821400 0.000000 
#    z 0.000000 0.000000 1.758410 
# 
# From -- ./inp_files/27727.got.cif
#   From: 2010.03.12/outbox.cif.g09.slc.cpg/sg73_14_cif.got.tgz:27727.got - 2010.04.16 15:25:48.
