data_PCOD8296458
_publ_section_title
;
Structure prediction by ZEFSAII (Michael W. Deem and Ramdas Pophale) SiO2 
 PCOD8296458
Probable space group: I B C A 
;
_chemical_formula_sum "Si O2"
_cell_formula_units_Z 112
_cell_length_a 15.475555
_cell_length_b 22.771787
_cell_length_c 15.622563
_cell_angle_alpha 90.000000
_cell_angle_beta 90.000000
_cell_angle_gamma 90.000000
_cell_volume 5505.485595
_symmetry_space_group_name_H-M "I B C A "
_symmetry_group_IT_number 73
_symmetry_cell_setting 'orthorhombic'
loop_
_space_group_symop_operation_xyz
x,y,z
-x,1/2-y,z
x,-y,1/2-z
1/2-x,y,-z
-x,-y,-z
x,1/2+y,-z
-x,y,1/2+z
1/2+x,-y,z
1/2+x,1/2+y,1/2+z
1/2-x,-y,1/2+z
1/2+x,1/2-y,-z
-x,1/2+y,1/2-z
1/2-x,1/2-y,1/2-z
1/2+x,y,1/2-z
1/2-x,1/2+y,z
x,1/2-y,1/2+z
loop_
_atom_site_type_symbol
_atom_site_label
_atom_site_fract_x
_atom_site_fract_y
_atom_site_fract_z
Si Si1 0.943168 0.424425 0.568334
Si Si2 0.837408 0.676086 0.628949
Si Si3 0.250000 0.907541 0.500000
Si Si4 0.888030 0.505807 0.425351
Si Si5 0.792584 0.000000 0.750000
Si Si6 0.010427 0.814675 0.024980
Si Si7 0.301345 0.805421 0.911326
Si Si8 0.693437 0.610990 0.206550
O O1 0.892506 0.447210 0.483775
O O2 0.988741 0.361806 0.551145
O O3 0.878021 0.418067 0.646310
O O4 0.015903 0.471110 0.593692
O O5 0.772176 0.633006 0.580410
O O6 0.793790 0.740214 0.627522
O O7 0.849545 0.655665 0.726542
O O8 0.931957 0.673728 0.588514
O O9 0.167712 0.946885 0.476998
O O10 0.848552 0.489524 0.334486
O O11 0.735585 0.941748 0.760817
O O12 0.098529 0.820521 0.077529
O O13 0.000000 0.750000 0.983101
O O14 0.263569 0.853310 0.847327
O O15 0.250000 0.808626 0.000000
#
# Coordination Sequence:
#
# PCOD8296458 Si02
#       8
#    16  16   8  16   8  16  16  16
#     4  11  24  43  67  97 133 178 224 273 342 404
#     4  11  24  43  69  97 137 170 227 278 342 400
#     4  12  20  44  68  92 122 180 222 270 336 412
#     4  11  25  42  66  95 131 177 223 277 336 402
#     4  12  26  42  64  98 134 174 226 282 328 398
#     4  10  22  42  67  99 131 176 219 274 338 407
#     4  11  22  42  72  99 132 181 221 278 340 410
#     4  12  26  42  67 103 133 174 228 285 332 404
#
# _framework density 20.343347000000001
#
# number of rings (size 3 to 8) (size 9 to 14) (size 15 to 20)
#    0.000    0.857    5.000    2.143    0.000    2.857 
#    0.000    2.143    0.000    0.000    0.000    0.000 
#    0.000    0.000    0.000    0.000    0.000    0.000 
#
# Total GULP energy -694635.247097 kJ/mol
# GULP energy per Si atom -12404.200841 kJ/mol
# Density = 2.029704 g / cm^3
# Si number density = 20.343347 Si / 1000 Ang^3
#
#
#
# Elastic Constant Matrix: (Units=GPa)
#
#
# Indices 1 2 3 4 5 6 
#
# 1 92.3869 29.3106 27.7408 0.0001 0.0000 -0.0001
# 2 29.3106 109.9687 36.2695 -0.0012 0.0000 -0.0002
# 3 27.7408 36.2695 96.9078 -0.0027 -0.0002 -0.0002
# 4 0.0001 -0.0012 -0.0027 34.3237 -0.0002 -0.0002
# 5 0.0000 0.0000 -0.0002 -0.0002 17.5626 0.0003
# 6 -0.0001 -0.0002 -0.0002 -0.0002 0.0003 32.0316
#
#
#
# Elastic Compliance Matrix: (Units=1/GPa)
#
#
# Indices 1 2 3 4 5 6 
#
# 1 0.012387 -0.002432 -0.002636 0.000000 0.000000 0.000000
# 2 -0.002432 0.010852 -0.003365 0.000000 0.000000 0.000000
# 3 -0.002636 -0.003365 0.012333 0.000001 0.000000 0.000000
# 4 0.000000 0.000000 0.000001 0.029134 0.000000 0.000000
# 5 0.000000 0.000000 0.000000 0.000000 0.056939 0.000000
# 6 0.000000 0.000000 0.000000 0.000000 0.000000 0.031219
#
#
# Mechanical properties :
#
#
# Convention : Reuss Voigt Hill
#
# Bulk Modulus (GPa) = 53.45981 53.98947 53.72464
# Shear Modulus (GPa) = 28.41459 30.51308 29.46384
#
# Velocity S-wave (km/s) = 3.74137 3.87706 3.80982
# Velocity P-wave (km/s) = 6.70817 6.82927 6.76899
#
# Compressibility (1/GPa) = 0.01870564
#
# Stress axis : x y z
#
# Youngs Moduli (GPa) = 80.72902 92.15158 81.08321
#
# Poissons Ratio (x) = 0.22415 0.21370
# Poissons Ratio (y) = 0.19636 0.27286
# Poissons Ratio (z) = 0.21277 0.31010
#
# Static dielectric constant tensor:
#      x y z
#    x 3.742950 0.000000 0.000000 
#    y 0.000000 4.008640 0.000000 
#    z 0.000000 0.000000 3.697060 
# 
# 
# High freq. dielectric constant tensor:
#      x y z
#    x 1.803140 0.000000 0.000000 
#    y 0.000000 1.818150 0.000000 
#    z 0.000000 0.000000 1.783360 
# 
# From -- ./inp_files/17299.got.cif
#   From: 2010.03.12/outbox.cif.g09.slc.cpg/sg73_9_cif.got.tgz:17299.got - 2010.04.16 15:25:48.
