data_PCOD8296889
_publ_section_title
;
Structure prediction by ZEFSAII (Michael W. Deem and Ramdas Pophale) SiO2 
 PCOD8296889
Probable space group: I B C A 
;
_chemical_formula_sum "Si O2"
_cell_formula_units_Z 88
_cell_length_a 21.056665
_cell_length_b 18.090530
_cell_length_c 10.397263
_cell_angle_alpha 90.000000
_cell_angle_beta 90.000000
_cell_angle_gamma 90.000000
_cell_volume 3960.590196
_symmetry_space_group_name_H-M "I B C A "
_symmetry_group_IT_number 73
_symmetry_cell_setting 'orthorhombic'
loop_
_space_group_symop_operation_xyz
x,y,z
-x,1/2-y,z
x,-y,1/2-z
1/2-x,y,-z
-x,-y,-z
x,1/2+y,-z
-x,y,1/2+z
1/2+x,-y,z
1/2+x,1/2+y,1/2+z
1/2-x,-y,1/2+z
1/2+x,1/2-y,-z
-x,1/2+y,1/2-z
1/2-x,1/2-y,1/2-z
1/2+x,y,1/2-z
1/2-x,1/2+y,z
x,1/2-y,1/2+z
loop_
_atom_site_type_symbol
_atom_site_label
_atom_site_fract_x
_atom_site_fract_y
_atom_site_fract_z
Si Si1 0.826535 0.323430 0.842602
Si Si2 0.032242 0.579356 0.496899
Si Si3 0.773566 0.325182 0.370889
Si Si4 0.250000 0.559023 0.000000
Si Si5 0.151662 0.042142 0.365489
Si Si6 0.027172 0.667739 0.231518
O O1 0.788544 0.309182 0.711618
O O2 0.812384 0.247502 0.918659
O O3 0.801376 0.392738 0.922231
O O4 0.900133 0.332011 0.812068
O O5 0.106985 0.561816 0.513910
O O6 0.019236 0.621937 0.363859
O O7 0.000000 0.500000 0.500000
O O8 0.011473 0.628896 0.617762
O O9 0.750000 0.365869 0.500000
O O10 0.821455 0.382038 0.302190
O O11 0.289250 0.509053 0.097290
O O12 0.114048 0.000000 0.250000
O O13 0.000000 0.750000 0.254136
#
# Coordination Sequence:
#
# PCOD8296889 Si02
#       6
#    16  16  16   8  16  16
#     4  11  25  43  68 101 140 180 231 298 360 435
#     4  12  27  48  73 106 148 199 250 312 377 451
#     4  11  22  41  65 100 138 180 229 289 363 428
#     4  12  24  42  68 108 144 184 230 294 366 444
#     4  12  24  41  69 103 145 186 240 294 370 445
#     4  12  27  50  76 106 145 200 260 311 376 451
#
# _framework density 22.218910999999999
#
# number of rings (size 3 to 8) (size 9 to 14) (size 15 to 20)
#    0.000    0.364    3.636    5.455    0.000    1.455 
#    0.000    0.000    0.000    0.000    0.000    0.000 
#    0.000    0.000    0.000    0.000    0.000    0.000 
#
# Total GULP energy -545483.513326 kJ/mol
# GULP energy per Si atom -12397.352576 kJ/mol
# Density = 2.216834 g / cm^3
# Si number density = 22.218911 Si / 1000 Ang^3
#
#
#
# Elastic Constant Matrix: (Units=GPa)
#
#
# Indices 1 2 3 4 5 6 
#
# 1 126.4746 55.6417 30.0285 0.0000 0.0000 0.0000
# 2 55.6417 153.8844 42.9734 0.0000 0.0000 0.0000
# 3 30.0285 42.9734 114.3043 0.0000 0.0000 0.0000
# 4 0.0000 0.0000 0.0000 42.6647 0.0000 0.0000
# 5 0.0000 0.0000 0.0000 0.0000 32.7668 0.0000
# 6 0.0000 0.0000 0.0000 0.0000 0.0000 30.5957
#
#
#
# Elastic Compliance Matrix: (Units=1/GPa)
#
#
# Indices 1 2 3 4 5 6 
#
# 1 0.009587 -0.003087 -0.001358 0.000000 0.000000 0.000000
# 2 -0.003087 0.008255 -0.002292 0.000000 0.000000 0.000000
# 3 -0.001358 -0.002292 0.009967 0.000000 0.000000 0.000000
# 4 0.000000 0.000000 0.000000 0.023439 0.000000 0.000000
# 5 0.000000 0.000000 0.000000 0.000000 0.030519 0.000000
# 6 0.000000 0.000000 0.000000 0.000000 0.000000 0.032684
#
#
# Mechanical properties :
#
#
# Convention : Reuss Voigt Hill
#
# Bulk Modulus (GPa) = 69.76434 72.43895 71.10165
# Shear Modulus (GPa) = 37.67767 38.94009 38.30888
#
# Velocity S-wave (km/s) = 4.12241 4.19091 4.15680
# Velocity P-wave (km/s) = 7.35703 7.48942 7.42352
#
# Compressibility (1/GPa) = 0.01433397
#
# Stress axis : x y z
#
# Youngs Moduli (GPa) = 104.30320 121.14011 100.32949
#
# Poissons Ratio (x) = 0.37401 0.13624
# Poissons Ratio (y) = 0.32203 0.22999
# Poissons Ratio (z) = 0.14164 0.27770
#
# Static dielectric constant tensor:
#      x y z
#    x 4.074130 0.000000 0.000000 
#    y 0.000000 4.509450 0.000000 
#    z 0.000000 0.000000 4.101670 
# 
# 
# High freq. dielectric constant tensor:
#      x y z
#    x 1.877910 0.000000 0.000000 
#    y 0.000000 1.902680 0.000000 
#    z 0.000000 0.000000 1.875980 
# 
# From -- ./inp_files/12721.got.cif
#   From: 2010.03.12/outbox.cif.g09.slc.cpg/sg73_7_cif.got.tgz:12721.got - 2010.04.16 15:25:48.
