data_PCOD8296780
_publ_section_title
;
Structure prediction by ZEFSAII (Michael W. Deem and Ramdas Pophale) SiO2 
 PCOD8296780
Probable space group: I B C A 
;
_chemical_formula_sum "Si O2"
_cell_formula_units_Z 64
_cell_length_a 27.165861
_cell_length_b 5.443783
_cell_length_c 17.311505
_cell_angle_alpha 90.000000
_cell_angle_beta 90.000000
_cell_angle_gamma 90.000000
_cell_volume 2560.112822
_symmetry_space_group_name_H-M "I B C A "
_symmetry_group_IT_number 73
_symmetry_cell_setting 'orthorhombic'
loop_
_space_group_symop_operation_xyz
x,y,z
-x,1/2-y,z
x,-y,1/2-z
1/2-x,y,-z
-x,-y,-z
x,1/2+y,-z
-x,y,1/2+z
1/2+x,-y,z
1/2+x,1/2+y,1/2+z
1/2-x,-y,1/2+z
1/2+x,1/2-y,-z
-x,1/2+y,1/2-z
1/2-x,1/2-y,1/2-z
1/2+x,y,1/2-z
1/2-x,1/2+y,z
x,1/2-y,1/2+z
loop_
_atom_site_type_symbol
_atom_site_label
_atom_site_fract_x
_atom_site_fract_y
_atom_site_fract_z
Si Si1 0.573109 0.000000 0.750000
Si Si2 0.805156 0.730087 0.531948
Si Si3 0.500000 0.750000 0.132574
Si Si4 0.085129 0.541047 0.953224
Si Si5 0.351500 0.872912 0.823658
O O1 0.538786 0.105633 0.816364
O O2 0.606571 0.198250 0.708611
O O3 0.750000 0.728473 0.500000
O O4 0.831336 0.480334 0.501492
O O5 0.809062 0.735365 0.625334
O O6 0.470898 0.559982 0.077358
O O7 0.121346 0.570519 0.878801
O O8 0.095016 0.765125 0.013057
O O9 0.325132 0.000000 0.750000
#
# Coordination Sequence:
#
# PCOD8296780 Si02
#       5
#     8  16   8  16  16
#     4  12  26  46  70 108 160 204 262 324 388 436
#     4  10  24  49  80 111 149 191 242 313 388 462
#     4  12  24  46  68 104 152 208 264 320 370 442
#     4  12  26  45  69 103 144 199 254 314 367 436
#     4  12  26  46  73 110 149 201 254 312 385 466
#
# _framework density 24.998895000000001
#
# number of rings (size 3 to 8) (size 9 to 14) (size 15 to 20)
#    0.000    0.500    2.500    5.250    3.500    2.000 
#    0.000    5.000    0.000    0.000    0.000    0.000 
#    0.000    0.000    0.000    0.000    0.000    0.000 
#
# Total GULP energy -396656.008261 kJ/mol
# GULP energy per Si atom -12395.500258 kJ/mol
# Density = 2.494200 g / cm^3
# Si number density = 24.998895 Si / 1000 Ang^3
#
#
#
# Elastic Constant Matrix: (Units=GPa)
#
#
# Indices 1 2 3 4 5 6 
#
# 1 81.1654 23.6615 50.8612 0.0000 0.0000 0.0000
# 2 23.6615 130.1647 43.3676 0.0000 0.0000 0.0000
# 3 50.8612 43.3676 176.1403 0.0000 0.0000 0.0000
# 4 0.0000 0.0000 0.0000 31.7483 0.0000 0.0000
# 5 0.0000 0.0000 0.0000 0.0000 26.0861 0.0000
# 6 0.0000 0.0000 0.0000 0.0000 0.0000 -97.0668
#
#
#
# Elastic Compliance Matrix: (Units=1/GPa)
#
#
# Indices 1 2 3 4 5 6 
#
# 1 0.015281 -0.001425 -0.004062 0.000000 0.000000 0.000000
# 2 -0.001425 0.008502 -0.001682 0.000000 0.000000 0.000000
# 3 -0.004062 -0.001682 0.007264 0.000000 0.000000 0.000000
# 4 0.000000 0.000000 0.000000 0.031498 0.000000 0.000000
# 5 0.000000 0.000000 0.000000 0.000000 0.038335 0.000000
# 6 0.000000 0.000000 0.000000 0.000000 0.000000 -0.010302
#
#
# Mechanical properties :
#
#
# Convention : Reuss Voigt Hill
#
# Bulk Modulus (GPa) = 59.84149 69.25012 64.54581
# Shear Modulus (GPa) = 45.25547 10.12554 27.69050
#
# Velocity S-wave (km/s) = 4.25938 2.01474 3.33178
# Velocity P-wave (km/s) = 6.94113 5.75966 6.37781
#
# Compressibility (1/GPa) = 0.01671081
#
# Stress axis : x y z
#
# Youngs Moduli (GPa) = 65.44063 117.62074 137.66067
#
# Poissons Ratio (x) = 0.16755 0.55914
# Poissons Ratio (y) = 0.09322 0.23153
# Poissons Ratio (z) = 0.26580 0.19783
#
# Static dielectric constant tensor:
#      x y z
#    x 4.743030 0.000000 0.000000 
#    y 0.000000 5.534040 0.000000 
#    z 0.000000 0.000000 5.335380 
# 
# 
# High freq. dielectric constant tensor:
#      x y z
#    x 2.012020 0.000000 0.000000 
#    y 0.000000 2.003070 0.000000 
#    z 0.000000 0.000000 2.012680 
# 
# From -- ./inp_files/2935.got.cif
#   From: 2010.03.12/outbox.cif.g09.slc.cpg/sg73_2_cif.got.tgz:2935.got - 2010.04.16 15:25:48.
