data_PCOD8296084
_publ_section_title
;
Structure prediction by ZEFSAII (Michael W. Deem and Ramdas Pophale) SiO2 
 PCOD8296084
Probable space group: I B C A 
;
_chemical_formula_sum "Si O2"
_cell_formula_units_Z 88
_cell_length_a 13.013583
_cell_length_b 26.680293
_cell_length_c 10.849933
_cell_angle_alpha 90.000000
_cell_angle_beta 90.000000
_cell_angle_gamma 90.000000
_cell_volume 3767.164088
_symmetry_space_group_name_H-M "I B C A "
_symmetry_group_IT_number 73
_symmetry_cell_setting 'orthorhombic'
loop_
_space_group_symop_operation_xyz
x,y,z
-x,1/2-y,z
x,-y,1/2-z
1/2-x,y,-z
-x,-y,-z
x,1/2+y,-z
-x,y,1/2+z
1/2+x,-y,z
1/2+x,1/2+y,1/2+z
1/2-x,-y,1/2+z
1/2+x,1/2-y,-z
-x,1/2+y,1/2-z
1/2-x,1/2-y,1/2-z
1/2+x,y,1/2-z
1/2-x,1/2+y,z
x,1/2-y,1/2+z
loop_
_atom_site_type_symbol
_atom_site_label
_atom_site_fract_x
_atom_site_fract_y
_atom_site_fract_z
Si Si1 0.540917 0.366683 0.672158
Si Si2 0.613996 0.944803 0.800476
Si Si3 0.750000 0.598894 0.500000
Si Si4 0.273374 0.629123 0.630801
Si Si5 0.190706 0.740869 0.377764
Si Si6 0.438537 0.331098 0.426763
O O1 0.495600 0.422939 0.651095
O O2 0.662854 0.363788 0.694612
O O3 0.504990 0.333218 0.554229
O O4 0.497291 0.348703 0.805498
O O5 0.651691 0.909657 0.691942
O O6 0.597365 0.000000 0.750000
O O7 0.700481 0.940317 0.904633
O O8 0.663590 0.634792 0.557724
O O9 0.250000 0.604663 0.500000
O O10 0.333762 0.681856 0.616290
O O11 0.250000 0.758000 0.500000
O O12 0.250000 0.750000 0.250000
O O13 0.088093 0.773772 0.389864
#
# Coordination Sequence:
#
# PCOD8296084 Si02
#       6
#    16  16   8  16  16  16
#     4  11  24  45  72 110 147 187 250 309 361 443
#     4  11  25  44  73 105 141 194 248 310 378 431
#     4  10  20  44  74  98 140 196 250 296 368 444
#     4  11  24  46  71 104 146 190 238 301 369 442
#     4  11  22  42  75 100 138 193 235 288 359 435
#     4  11  22  45  74 104 148 193 241 303 364 440
#
# _framework density 23.359749000000001
#
# number of rings (size 3 to 8) (size 9 to 14) (size 15 to 20)
#    0.000    1.091    4.545    1.091    3.818    0.727 
#    0.000   14.545    0.000    0.000    0.000    0.000 
#    0.000    0.000    0.000    0.000    0.000    0.000 
#
# Total GULP energy -545075.851441 kJ/mol
# GULP energy per Si atom -12388.087533 kJ/mol
# Density = 2.330658 g / cm^3
# Si number density = 23.359749 Si / 1000 Ang^3
#
#
#
# Elastic Constant Matrix: (Units=GPa)
#
#
# Indices 1 2 3 4 5 6 
#
# 1 64.0852 48.6856 8.9295 0.0001 0.0000 0.0000
# 2 48.6856 141.6160 34.3811 0.0000 0.0002 0.0000
# 3 8.9295 34.3811 172.4624 0.0005 0.0003 -0.0004
# 4 0.0001 0.0000 0.0005 38.3822 0.0000 0.0000
# 5 0.0000 0.0002 0.0003 0.0000 31.6253 0.0001
# 6 0.0000 0.0000 -0.0004 0.0000 0.0001 34.5288
#
#
#
# Elastic Compliance Matrix: (Units=1/GPa)
#
#
# Indices 1 2 3 4 5 6 
#
# 1 0.021143 -0.007359 0.000372 0.000000 0.000000 0.000000
# 2 -0.007359 0.009982 -0.001609 0.000000 0.000000 0.000000
# 3 0.000372 -0.001609 0.006100 0.000000 0.000000 0.000000
# 4 0.000000 0.000000 0.000000 0.026054 0.000000 0.000000
# 5 0.000000 0.000000 0.000000 0.000000 0.031620 0.000000
# 6 0.000000 0.000000 0.000000 0.000000 0.000000 0.028961
#
#
# Mechanical properties :
#
#
# Convention : Reuss Voigt Hill
#
# Bulk Modulus (GPa) = 49.91639 62.46178 56.18909
# Shear Modulus (GPa) = 33.84570 39.98508 36.91539
#
# Velocity S-wave (km/s) = 3.81056 4.14177 3.97961
# Velocity P-wave (km/s) = 6.38556 7.04765 6.72476
#
# Compressibility (1/GPa) = 0.02003350
#
# Stress axis : x y z
#
# Youngs Moduli (GPa) = 47.29686 100.18123 163.93904
#
# Poissons Ratio (x) = 0.73724 -0.06104
# Poissons Ratio (y) = 0.34806 0.26376
# Poissons Ratio (z) = -0.01761 0.16118
#
# Static dielectric constant tensor:
#      x y z
#    x 4.503030 0.000000 0.000000 
#    y 0.000000 4.118970 -0.000010 
#    z 0.000000 -0.000010 4.557670 
# 
# 
# High freq. dielectric constant tensor:
#      x y z
#    x 1.934440 0.000000 0.000000 
#    y 0.000000 1.895180 0.000000 
#    z 0.000000 0.000000 1.951210 
# 
# From -- ./inp_files/10929.got.cif
#   From: 2010.03.12/outbox.cif.g09.slc.cpg/sg73_6_cif.got.tgz:10929.got - 2010.04.16 15:25:48.
