data_PCOD8296572
_publ_section_title
;
Structure prediction by ZEFSAII (Michael W. Deem and Ramdas Pophale) SiO2 
 PCOD8296572
Probable space group: I B C A 
;
_chemical_formula_sum "Si O2"
_cell_formula_units_Z 96
_cell_length_a 9.053274
_cell_length_b 21.942738
_cell_length_c 20.715461
_cell_angle_alpha 90.000000
_cell_angle_beta 90.000000
_cell_angle_gamma 90.000000
_cell_volume 4115.201306
_symmetry_space_group_name_H-M "I B C A "
_symmetry_group_IT_number 73
_symmetry_cell_setting 'orthorhombic'
loop_
_space_group_symop_operation_xyz
x,y,z
-x,1/2-y,z
x,-y,1/2-z
1/2-x,y,-z
-x,-y,-z
x,1/2+y,-z
-x,y,1/2+z
1/2+x,-y,z
1/2+x,1/2+y,1/2+z
1/2-x,-y,1/2+z
1/2+x,1/2-y,-z
-x,1/2+y,1/2-z
1/2-x,1/2-y,1/2-z
1/2+x,y,1/2-z
1/2-x,1/2+y,z
x,1/2-y,1/2+z
loop_
_atom_site_type_symbol
_atom_site_label
_atom_site_fract_x
_atom_site_fract_y
_atom_site_fract_z
Si Si1 0.177530 0.354212 0.060708
Si Si2 0.405640 0.311619 0.801105
Si Si3 0.324572 0.468685 0.104976
Si Si4 0.903022 0.026338 0.312253
Si Si5 0.151760 0.606985 0.940050
Si Si6 0.206182 0.862879 0.301933
O O1 0.182273 0.320927 0.130994
O O2 0.282498 0.414075 0.057945
O O3 0.011032 0.371046 0.044020
O O4 0.250000 0.315658 0.000000
O O5 0.500000 0.250000 0.805148
O O6 0.289896 0.311321 0.741095
O O7 0.529646 0.364001 0.786979
O O8 0.186363 0.471876 0.153593
O O9 0.474996 0.446743 0.139796
O O10 0.347101 0.533964 0.070779
O O11 0.780234 0.073144 0.285773
O O12 0.987452 0.000000 0.250000
O O13 0.219133 0.645075 0.879556
O O14 0.250000 0.625050 0.000000
#
# Coordination Sequence:
#
# PCOD8296572 Si02
#       6
#    16  16  16  16  16  16
#     4  11  25  41  68  98 131 178 226 275 339 406
#     4  11  25  49  71  97 128 170 231 297 345 398
#     4  11  22  38  59  94 139 180 220 261 320 403
#     4  11  23  35  60  97 141 179 214 264 320 403
#     4  10  23  42  61  99 142 180 219 262 320 411
#     4  10  25  41  68  98 130 171 222 278 337 394
#
# _framework density 23.328143000000001
#
# number of rings (size 3 to 8) (size 9 to 14) (size 15 to 20)
#    0.000    1.333    1.667    2.500   14.000    1.333 
#    0.000    3.333    0.000    1.000    0.000    0.000 
#    0.000    0.000    0.000    0.000    0.000    0.000 
#
# Total GULP energy -594727.648462 kJ/mol
# GULP energy per Si atom -12390.159343 kJ/mol
# Density = 2.327505 g / cm^3
# Si number density = 23.328143 Si / 1000 Ang^3
#
#
#
# Elastic Constant Matrix: (Units=GPa)
#
#
# Indices 1 2 3 4 5 6 
#
# 1 115.8762 13.0603 73.6633 0.0000 0.0000 0.0000
# 2 13.0603 38.5541 33.4336 0.0000 0.0000 0.0000
# 3 73.6633 33.4336 168.1242 0.0000 0.0000 0.0000
# 4 0.0000 0.0000 0.0000 16.2037 0.0000 0.0000
# 5 0.0000 0.0000 0.0000 0.0000 45.4768 0.0000
# 6 0.0000 0.0000 0.0000 0.0000 0.0000 22.5009
#
#
#
# Elastic Compliance Matrix: (Units=1/GPa)
#
#
# Indices 1 2 3 4 5 6 
#
# 1 0.011973 0.000596 -0.005364 0.000000 0.000000 0.000000
# 2 0.000596 0.031372 -0.006500 0.000000 0.000000 0.000000
# 3 -0.005364 -0.006500 0.009591 0.000000 0.000000 0.000000
# 4 0.000000 0.000000 0.000000 0.061714 0.000000 0.000000
# 5 0.000000 0.000000 0.000000 0.000000 0.021989 0.000000
# 6 0.000000 0.000000 0.000000 0.000000 0.000000 0.044443
#
#
# Mechanical properties :
#
#
# Convention : Reuss Voigt Hill
#
# Bulk Modulus (GPa) = 32.89511 62.54100 47.71806
# Shear Modulus (GPa) = 23.39155 30.32944 26.86049
#
# Velocity S-wave (km/s) = 3.17001 3.60963 3.39694
# Velocity P-wave (km/s) = 5.24693 6.65132 5.99042
#
# Compressibility (1/GPa) = 0.03039965
#
# Stress axis : x y z
#
# Youngs Moduli (GPa) = 83.52165 31.87523 104.26427
#
# Poissons Ratio (x) = -0.01900 0.55932
# Poissons Ratio (y) = -0.04979 0.67771
# Poissons Ratio (z) = 0.44805 0.20719
#
# Static dielectric constant tensor:
#      x y z
#    x 4.510610 0.000000 0.000000 
#    y 0.000000 3.829230 0.000000 
#    z 0.000000 0.000000 4.460720 
# 
# 
# High freq. dielectric constant tensor:
#      x y z
#    x 1.936910 0.000000 0.000000 
#    y 0.000000 1.880420 0.000000 
#    z 0.000000 0.000000 1.936490 
# 
# From -- ./inp_files/24869.got.cif
#   From: 2010.03.12/outbox.cif.g09.slc.cpg/sg73_13_cif.got.tgz:24869.got - 2010.04.16 15:25:48.
