data_PCOD8296967
_publ_section_title
;
Structure prediction by ZEFSAII (Michael W. Deem and Ramdas Pophale) SiO2 
 PCOD8296967
Probable space group: I B C A 
;
_chemical_formula_sum "Si O2"
_cell_formula_units_Z 104
_cell_length_a 26.845262
_cell_length_b 18.938423
_cell_length_c 9.498273
_cell_angle_alpha 90.000000
_cell_angle_beta 90.000000
_cell_angle_gamma 90.000000
_cell_volume 4828.987791
_symmetry_space_group_name_H-M "I B C A "
_symmetry_group_IT_number 73
_symmetry_cell_setting 'orthorhombic'
loop_
_space_group_symop_operation_xyz
x,y,z
-x,1/2-y,z
x,-y,1/2-z
1/2-x,y,-z
-x,-y,-z
x,1/2+y,-z
-x,y,1/2+z
1/2+x,-y,z
1/2+x,1/2+y,1/2+z
1/2-x,-y,1/2+z
1/2+x,1/2-y,-z
-x,1/2+y,1/2-z
1/2-x,1/2-y,1/2-z
1/2+x,y,1/2-z
1/2-x,1/2+y,z
x,1/2-y,1/2+z
loop_
_atom_site_type_symbol
_atom_site_label
_atom_site_fract_x
_atom_site_fract_y
_atom_site_fract_z
Si Si1 0.514202 0.106112 0.852198
Si Si2 0.365602 0.264154 0.004702
Si Si3 0.785891 0.558283 0.863086
Si Si4 0.564562 0.500000 0.750000
Si Si5 0.698546 0.711440 0.255445
Si Si6 0.964036 0.187829 0.413333
Si Si7 0.888792 0.072637 0.004511
O O1 0.472625 0.064908 0.767439
O O2 0.534312 0.169912 0.753083
O O3 0.485674 0.124175 0.995726
O O4 0.563834 0.063289 0.892430
O O5 0.320216 0.230782 0.090368
O O6 0.410233 0.209897 0.030488
O O7 0.380474 0.345297 0.043213
O O8 0.345788 0.260894 0.845511
O O9 0.767500 0.500000 0.750000
O O10 0.788873 0.630399 0.775626
O O11 0.750000 0.563621 0.000000
O O12 0.841002 0.540298 0.917990
O O13 0.601860 0.478930 0.625974
O O14 0.750000 0.750000 0.250000
O O15 0.000000 0.250000 0.449156
#
# Coordination Sequence:
#
# PCOD8296967 Si02
#       7
#    16  16  16   8  16  16  16
#     4  12  25  43  64  99 141 187 231 286 347 412
#     4  11  24  42  70 104 133 184 228 288 362 396
#     4  11  27  50  75 107 141 182 231 293 350 424
#     4  12  26  42  68  98 140 198 232 286 346 420
#     4  11  24  47  74 103 142 176 230 295 349 421
#     4  12  24  39  66  97 138 174 231 285 340 415
#     4  11  25  45  68  99 144 180 238 293 343 420
#
# _framework density 21.536605000000002
#
# number of rings (size 3 to 8) (size 9 to 14) (size 15 to 20)
#    0.000    0.615    3.077    5.077    6.462    2.462 
#    0.000    0.000    0.000    0.000    0.000    0.000 
#    0.000    0.000    0.000    0.000    0.000    0.000 
#
# Total GULP energy -644544.674489 kJ/mol
# GULP energy per Si atom -12395.089894 kJ/mol
# Density = 2.148759 g / cm^3
# Si number density = 21.536605 Si / 1000 Ang^3
#
#
#
# Elastic Constant Matrix: (Units=GPa)
#
#
# Indices 1 2 3 4 5 6 
#
# 1 99.3585 13.9168 2.0916 0.0000 0.0000 0.0000
# 2 13.9168 60.7717 23.5084 0.0000 0.0000 0.0000
# 3 2.0916 23.5084 63.1417 0.0000 0.0000 0.0000
# 4 0.0000 0.0000 0.0000 41.2425 0.0000 0.0000
# 5 0.0000 0.0000 0.0000 0.0000 51.4543 0.0000
# 6 0.0000 0.0000 0.0000 0.0000 0.0000 24.6569
#
#
#
# Elastic Compliance Matrix: (Units=1/GPa)
#
#
# Indices 1 2 3 4 5 6 
#
# 1 0.010420 -0.002632 0.000635 0.000000 0.000000 0.000000
# 2 -0.002632 0.019888 -0.007317 0.000000 0.000000 0.000000
# 3 0.000635 -0.007317 0.018541 0.000000 0.000000 0.000000
# 4 0.000000 0.000000 0.000000 0.024247 0.000000 0.000000
# 5 0.000000 0.000000 0.000000 0.000000 0.019435 0.000000
# 6 0.000000 0.000000 0.000000 0.000000 0.000000 0.040557
#
#
# Mechanical properties :
#
#
# Convention : Reuss Voigt Hill
#
# Bulk Modulus (GPa) = 33.09078 33.58949 33.34014
# Shear Modulus (GPa) = 30.90439 35.72108 33.31273
#
# Velocity S-wave (km/s) = 3.79221 4.07704 3.93720
# Velocity P-wave (km/s) = 5.87986 6.14762 6.01523
#
# Compressibility (1/GPa) = 0.03021990
#
# Stress axis : x y z
#
# Youngs Moduli (GPa) = 95.97108 50.28080 53.93531
#
# Poissons Ratio (x) = 0.13232 -0.03423
# Poissons Ratio (y) = 0.25256 0.39467
# Poissons Ratio (z) = -0.06091 0.36793
#
# Static dielectric constant tensor:
#      x y z
#    x 3.968760 0.000000 0.000000 
#    y 0.000000 3.664590 0.000000 
#    z 0.000000 0.000000 3.863320 
# 
# 
# High freq. dielectric constant tensor:
#      x y z
#    x 1.865480 0.000000 0.000000 
#    y 0.000000 1.835550 0.000000 
#    z 0.000000 0.000000 1.854480 
# 
# From -- ./inp_files/7888.got.cif
#   From: 2010.03.12/outbox.cif.g09.slc.cpg/sg73_4_cif.got.tgz:7888.got - 2010.04.16 15:25:48.
