data_PCOD8296184
_publ_section_title
;
Structure prediction by ZEFSAII (Michael W. Deem and Ramdas Pophale) SiO2 
 PCOD8296184
Probable space group: I B C A 
;
_chemical_formula_sum "Si O2"
_cell_formula_units_Z 120
_cell_length_a 26.688790
_cell_length_b 22.716609
_cell_length_c 9.088384
_cell_angle_alpha 90.000000
_cell_angle_beta 90.000000
_cell_angle_gamma 90.000000
_cell_volume 5510.094610
_symmetry_space_group_name_H-M "I B C A "
_symmetry_group_IT_number 73
_symmetry_cell_setting 'orthorhombic'
loop_
_space_group_symop_operation_xyz
x,y,z
-x,1/2-y,z
x,-y,1/2-z
1/2-x,y,-z
-x,-y,-z
x,1/2+y,-z
-x,y,1/2+z
1/2+x,-y,z
1/2+x,1/2+y,1/2+z
1/2-x,-y,1/2+z
1/2+x,1/2-y,-z
-x,1/2+y,1/2-z
1/2-x,1/2-y,1/2-z
1/2+x,y,1/2-z
1/2-x,1/2+y,z
x,1/2-y,1/2+z
loop_
_atom_site_type_symbol
_atom_site_label
_atom_site_fract_x
_atom_site_fract_y
_atom_site_fract_z
Si Si1 0.162894 0.096534 0.281330
Si Si2 0.136624 0.285521 0.218424
Si Si3 0.568593 0.896545 0.720241
Si Si4 0.306865 0.511710 0.032309
Si Si5 0.997155 0.637456 0.533634
Si Si6 0.696463 0.287349 0.572463
Si Si7 0.930661 0.827762 0.775623
Si Si8 0.637094 0.500000 0.250000
O O1 0.195816 0.153409 0.328513
O O2 0.105049 0.114911 0.249584
O O3 0.164769 0.045826 0.404867
O O4 0.188126 0.068858 0.135650
O O5 0.102254 0.340157 0.262279
O O6 0.182381 0.271136 0.331733
O O7 0.102767 0.228793 0.225993
O O8 0.155860 0.297115 0.054748
O O9 0.535858 0.893651 0.573699
O O10 0.533225 0.908568 0.862519
O O11 0.603534 0.949991 0.680095
O O12 0.329974 0.529460 0.876631
O O13 0.250000 0.494504 0.000000
O O14 0.028187 0.678805 0.646078
O O15 0.957651 0.672698 0.433773
O O16 0.750000 0.275897 0.500000
#
# Coordination Sequence:
#
# PCOD8296184 Si02
#       8
#    16  16  16  16  16  16  16   8
#     4  10  22  42  64  90 132 168 208 261 321 375
#     4  11  23  40  63  91 127 162 211 260 325 384
#     4  11  24  40  60  89 122 164 204 261 316 377
#     4  11  23  40  66  96 123 166 218 263 310 372
#     4  10  22  39  62  89 122 158 212 253 311 384
#     4  11  23  41  64  93 130 172 210 260 320 388
#     4  10  21  39  61  91 122 163 202 259 317 373
#     4  12  24  42  64  90 128 162 208 264 322 372
#
# _framework density 21.778210999999999
#
# number of rings (size 3 to 8) (size 9 to 14) (size 15 to 20)
#    0.000    1.333    0.000    6.400    0.000    5.867 
#    0.000    8.667    0.000    0.000    0.000    0.000 
#    0.000    0.000    0.000    0.000    0.000    0.000 
#
# Total GULP energy -743900.485712 kJ/mol
# GULP energy per Si atom -12398.341429 kJ/mol
# Density = 2.172864 g / cm^3
# Si number density = 21.778211 Si / 1000 Ang^3
#
#
#
# Elastic Constant Matrix: (Units=GPa)
#
#
# Indices 1 2 3 4 5 6 
#
# 1 84.1473 55.5648 44.2891 0.0000 0.0000 0.0000
# 2 55.5648 87.0649 38.7386 0.0000 0.0000 0.0000
# 3 44.2891 38.7386 146.6235 0.0000 0.0000 0.0000
# 4 0.0000 0.0000 0.0000 -23.6491 0.0000 0.0000
# 5 0.0000 0.0000 0.0000 0.0000 39.8550 0.0000
# 6 0.0000 0.0000 0.0000 0.0000 0.0000 13.7579
#
#
#
# Elastic Compliance Matrix: (Units=1/GPa)
#
#
# Indices 1 2 3 4 5 6 
#
# 1 0.021869 -0.012485 -0.003307 0.000000 0.000000 0.000000
# 2 -0.012485 0.020144 -0.001551 0.000000 0.000000 0.000000
# 3 -0.003307 -0.001551 0.008229 0.000000 0.000000 0.000000
# 4 0.000000 0.000000 0.000000 -0.042285 0.000000 0.000000
# 5 0.000000 0.000000 0.000000 0.000000 0.025091 0.000000
# 6 0.000000 0.000000 0.000000 0.000000 0.000000 0.072686
#
#
# Mechanical properties :
#
#
# Convention : Reuss Voigt Hill
#
# Bulk Modulus (GPa) = 64.28676 66.11342 65.20009
# Shear Modulus (GPa) = 34.33958 17.94229 26.14093
#
# Velocity S-wave (km/s) = 3.97518 2.87342 3.46833
# Velocity P-wave (km/s) = 7.11705 6.43679 6.78545
#
# Compressibility (1/GPa) = 0.01555530
#
# Stress axis : x y z
#
# Youngs Moduli (GPa) = 45.72703 49.64303 121.52380
#
# Poissons Ratio (x) = 0.61981 0.40189
# Poissons Ratio (y) = 0.57092 0.18846
# Poissons Ratio (z) = 0.15122 0.07699
#
# Static dielectric constant tensor:
#      x y z
#    x 4.229620 0.000000 0.000000 
#    y 0.000000 3.192360 0.000000 
#    z 0.000000 0.000000 5.208880 
# 
# 
# High freq. dielectric constant tensor:
#      x y z
#    x 1.870660 0.000000 0.000000 
#    y 0.000000 1.831110 0.000000 
#    z 0.000000 0.000000 1.878270 
# 
# From -- ./inp_files/7367.got.cif
#   From: 2010.03.12/outbox.cif.g09.slc.cpg/sg73_4_cif.got.tgz:7367.got - 2010.04.16 15:25:48.
