data_PCOD8296498
_publ_section_title
;
Structure prediction by ZEFSAII (Michael W. Deem and Ramdas Pophale) SiO2 
 PCOD8296498
Probable space group: I B C A 
;
_chemical_formula_sum "Si O2"
_cell_formula_units_Z 64
_cell_length_a 11.355138
_cell_length_b 24.353909
_cell_length_c 10.531071
_cell_angle_alpha 90.000000
_cell_angle_beta 90.000000
_cell_angle_gamma 90.000000
_cell_volume 2912.283411
_symmetry_space_group_name_H-M "I B C A "
_symmetry_group_IT_number 73
_symmetry_cell_setting 'orthorhombic'
loop_
_space_group_symop_operation_xyz
x,y,z
-x,1/2-y,z
x,-y,1/2-z
1/2-x,y,-z
-x,-y,-z
x,1/2+y,-z
-x,y,1/2+z
1/2+x,-y,z
1/2+x,1/2+y,1/2+z
1/2-x,-y,1/2+z
1/2+x,1/2-y,-z
-x,1/2+y,1/2-z
1/2-x,1/2-y,1/2-z
1/2+x,y,1/2-z
1/2-x,1/2+y,z
x,1/2-y,1/2+z
loop_
_atom_site_type_symbol
_atom_site_label
_atom_site_fract_x
_atom_site_fract_y
_atom_site_fract_z
Si Si1 0.415801 0.145162 0.992919
Si Si2 0.234350 0.689016 0.201694
Si Si3 0.250000 0.048961 0.000000
Si Si4 0.185843 0.500000 0.250000
Si Si5 0.656999 0.603437 0.102337
O O1 0.352001 0.172724 0.873490
O O2 0.552861 0.136899 0.966777
O O3 0.384581 0.183099 0.115452
O O4 0.366248 0.084759 0.021333
O O5 0.250000 0.750000 0.250000
O O6 0.228330 0.648104 0.318799
O O7 0.231446 0.015947 0.130994
O O8 0.111979 0.447417 0.193220
O O9 0.750000 0.579778 0.000000
#
# Coordination Sequence:
#
# PCOD8296498 Si02
#       5
#    16  16   8   8  16
#     4  10  24  47  69 100 142 185 234 299 364 437
#     4  10  24  49  71  99 140 184 236 298 369 438
#     4  10  22  44  66  98 144 186 242 296 360 430
#     4  12  22  44  70 104 144 194 244 302 362 448
#     4  12  27  43  71 108 142 188 246 299 369 440
#
# _framework density 21.975884000000001
#
# number of rings (size 3 to 8) (size 9 to 14) (size 15 to 20)
#    0.000    1.500    6.250    0.000    7.000    3.000 
#    0.000    0.000    0.000    0.000    0.000    0.000 
#    0.000    0.000    0.000    0.000    0.000    0.000 
#
# Total GULP energy -396462.917003 kJ/mol
# GULP energy per Si atom -12389.466156 kJ/mol
# Density = 2.192587 g / cm^3
# Si number density = 21.975884 Si / 1000 Ang^3
#
#
#
# Elastic Constant Matrix: (Units=GPa)
#
#
# Indices 1 2 3 4 5 6 
#
# 1 87.8704 27.4914 47.4673 -0.0003 -0.0001 0.0000
# 2 27.4914 151.4181 69.0930 -0.0001 0.0000 0.0001
# 3 47.4673 69.0930 157.5136 0.0011 -0.0003 0.0001
# 4 -0.0003 -0.0001 0.0011 51.8957 0.0000 0.0003
# 5 -0.0001 0.0000 -0.0003 0.0000 24.6948 0.0000
# 6 0.0000 0.0001 0.0001 0.0003 0.0000 10.6539
#
#
#
# Elastic Compliance Matrix: (Units=1/GPa)
#
#
# Indices 1 2 3 4 5 6 
#
# 1 0.013661 -0.000752 -0.003787 0.000000 0.000000 0.000000
# 2 -0.000752 0.008298 -0.003413 0.000000 0.000000 0.000000
# 3 -0.003787 -0.003413 0.008987 0.000000 0.000000 0.000000
# 4 0.000000 0.000000 0.000000 0.019269 0.000000 0.000000
# 5 0.000000 0.000000 0.000000 0.000000 0.040494 0.000000
# 6 0.000000 0.000000 0.000000 0.000000 0.000000 0.093862
#
#
# Mechanical properties :
#
#
# Convention : Reuss Voigt Hill
#
# Bulk Modulus (GPa) = 66.48181 76.10060 71.29121
# Shear Modulus (GPa) = 24.33183 34.29891 29.31537
#
# Velocity S-wave (km/s) = 3.33108 3.95492 3.65633
# Velocity P-wave (km/s) = 6.71659 7.45383 7.09479
#
# Compressibility (1/GPa) = 0.01504171
#
# Stress axis : x y z
#
# Youngs Moduli (GPa) = 73.19863 120.50582 111.27067
#
# Poissons Ratio (x) = 0.09067 0.42137
# Poissons Ratio (y) = 0.05507 0.37980
# Poissons Ratio (z) = 0.27720 0.41132
#
# Static dielectric constant tensor:
#      x y z
#    x 3.483660 0.000000 0.000000 
#    y 0.000000 4.095580 0.000000 
#    z 0.000000 0.000000 4.412830 
# 
# 
# High freq. dielectric constant tensor:
#      x y z
#    x 1.815300 0.000000 0.000000 
#    y 0.000000 1.874610 0.000000 
#    z 0.000000 0.000000 1.890380 
# 
# From -- ./inp_files/9590.got.cif
#   From: 2010.03.12/outbox.cif.g09.slc.cpg/sg73_5_cif.got.tgz:9590.got - 2010.04.16 15:25:48.
