data_PCOD8296143
_publ_section_title
;
Structure prediction by ZEFSAII (Michael W. Deem and Ramdas Pophale) SiO2 
 PCOD8296143
Probable space group: I B C A 
;
_chemical_formula_sum "Si O2"
_cell_formula_units_Z 64
_cell_length_a 35.934843
_cell_length_b 5.180229
_cell_length_c 15.361523
_cell_angle_alpha 90.000000
_cell_angle_beta 90.000000
_cell_angle_gamma 90.000000
_cell_volume 2859.558503
_symmetry_space_group_name_H-M "I B C A "
_symmetry_group_IT_number 73
_symmetry_cell_setting 'orthorhombic'
loop_
_space_group_symop_operation_xyz
x,y,z
-x,1/2-y,z
x,-y,1/2-z
1/2-x,y,-z
-x,-y,-z
x,1/2+y,-z
-x,y,1/2+z
1/2+x,-y,z
1/2+x,1/2+y,1/2+z
1/2-x,-y,1/2+z
1/2+x,1/2-y,-z
-x,1/2+y,1/2-z
1/2-x,1/2-y,1/2-z
1/2+x,y,1/2-z
1/2-x,1/2+y,z
x,1/2-y,1/2+z
loop_
_atom_site_type_symbol
_atom_site_label
_atom_site_fract_x
_atom_site_fract_y
_atom_site_fract_z
Si Si1 0.457460 0.264339 0.446895
Si Si2 0.109582 0.526697 0.851255
Si Si3 0.650789 0.476775 0.145793
Si Si4 0.733698 0.591590 0.402501
O O1 0.500000 0.250000 0.414882
O O2 0.448963 0.470949 0.524020
O O3 0.432297 0.372397 0.368577
O O4 0.114629 0.500000 0.750000
O O5 0.121655 0.245144 0.887149
O O6 0.136606 0.748066 0.890179
O O7 0.655163 0.500000 0.250000
O O8 0.689356 0.413020 0.099104
O O9 0.750000 0.604201 0.500000
O O10 0.751037 0.344917 0.352903
#
# Coordination Sequence:
#
# PCOD8296143 Si02
#       4
#    16  16  16  16
#     4  10  21  40  61  90 127 161 198 244 298 353
#     4  10  21  40  61  90 122 156 204 247 295 361
#     4  10  21  38  60  83 116 156 197 248 303 358
#     4  10  21  38  53  79 115 148 191 252 295 360
#
# _framework density 22.381074999999999
#
# number of rings (size 3 to 8) (size 9 to 14) (size 15 to 20)
#    0.000    2.000    0.000    3.000    0.000    1.000 
#   27.000    7.500    0.000    0.000    0.000    0.000 
#    0.000    0.000    0.000    0.000    0.000    0.000 
#
# Total GULP energy -396421.793980 kJ/mol
# GULP energy per Si atom -12388.181062 kJ/mol
# Density = 2.233014 g / cm^3
# Si number density = 22.381075 Si / 1000 Ang^3
#
#
#
# Elastic Constant Matrix: (Units=GPa)
#
#
# Indices 1 2 3 4 5 6 
#
# 1 144.6964 49.9655 19.5567 0.0000 0.0000 0.0000
# 2 49.9655 163.1923 13.5075 0.0000 0.0000 0.0000
# 3 19.5567 13.5075 8.7397 0.0000 0.0000 0.0000
# 4 0.0000 0.0000 0.0000 16.1199 0.0000 0.0000
# 5 0.0000 0.0000 0.0000 0.0000 29.1385 0.0000
# 6 0.0000 0.0000 0.0000 0.0000 0.0000 44.4423
#
#
#
# Elastic Compliance Matrix: (Units=1/GPa)
#
#
# Indices 1 2 3 4 5 6 
#
# 1 0.010184 -0.001413 -0.020605 0.000000 0.000000 0.000000
# 2 -0.001413 0.007223 -0.008002 0.000000 0.000000 0.000000
# 3 -0.020605 -0.008002 0.172894 0.000000 0.000000 0.000000
# 4 0.000000 0.000000 0.000000 0.062035 0.000000 0.000000
# 5 0.000000 0.000000 0.000000 0.000000 0.034319 0.000000
# 6 0.000000 0.000000 0.000000 0.000000 0.000000 0.022501
#
#
# Mechanical properties :
#
#
# Convention : Reuss Voigt Hill
#
# Bulk Modulus (GPa) = 7.67683 53.63197 30.65440
# Shear Modulus (GPa) = 12.11785 33.51338 22.81562
#
# Velocity S-wave (km/s) = 2.32940 3.87382 3.19629
# Velocity P-wave (km/s) = 3.26685 6.63504 5.22953
#
# Compressibility (1/GPa) = 0.13026217
#
# Stress axis : x y z
#
# Youngs Moduli (GPa) = 98.19661 138.45545 5.78389
#
# Poissons Ratio (x) = 0.19557 0.11918
# Poissons Ratio (y) = 0.13871 0.04628
# Poissons Ratio (z) = 2.02331 1.10790
#
# Static dielectric constant tensor:
#      x y z
#    x 0.000000 0.000000 0.000000 
#    y 0.000000 0.000000 0.000000 
#    z 0.000000 0.000000 0.000000 
# 
# 
# High freq. dielectric constant tensor:
#      x y z
#    x 1.885300 0.000000 0.000000 
#    y 0.000000 1.920840 0.000000 
#    z 0.000000 0.000000 1.835110 
# 
# From -- ./inp_files/1133.got.cif
#   From: 2010.03.12/outbox.cif.g09.slc.cpg/sg73_1_cif.got.tgz:1133.got - 2010.04.16 15:25:48.
