data_PCOD8296001
_publ_section_title
;
Structure prediction by ZEFSAII (Michael W. Deem and Ramdas Pophale) SiO2 
 PCOD8296001
Probable space group: I B C A 
;
_chemical_formula_sum "Si O2"
_cell_formula_units_Z 104
_cell_length_a 17.442897
_cell_length_b 14.331532
_cell_length_c 22.698848
_cell_angle_alpha 90.000000
_cell_angle_beta 90.000000
_cell_angle_gamma 90.000000
_cell_volume 5674.336028
_symmetry_space_group_name_H-M "I B C A "
_symmetry_group_IT_number 73
_symmetry_cell_setting 'orthorhombic'
loop_
_space_group_symop_operation_xyz
x,y,z
-x,1/2-y,z
x,-y,1/2-z
1/2-x,y,-z
-x,-y,-z
x,1/2+y,-z
-x,y,1/2+z
1/2+x,-y,z
1/2+x,1/2+y,1/2+z
1/2-x,-y,1/2+z
1/2+x,1/2-y,-z
-x,1/2+y,1/2-z
1/2-x,1/2-y,1/2-z
1/2+x,y,1/2-z
1/2-x,1/2+y,z
x,1/2-y,1/2+z
loop_
_atom_site_type_symbol
_atom_site_label
_atom_site_fract_x
_atom_site_fract_y
_atom_site_fract_z
Si Si1 0.273520 0.100638 0.724727
Si Si2 0.000000 0.750000 0.715901
Si Si3 0.915154 0.274924 0.077802
Si Si4 0.596667 0.118935 0.133973
Si Si5 0.855409 0.759291 0.296140
Si Si6 0.162654 0.851669 0.015533
Si Si7 0.927603 0.482118 0.040448
O O1 0.332412 0.083350 0.672143
O O2 0.194977 0.147193 0.702864
O O3 0.311650 0.169644 0.771504
O O4 0.252064 0.000000 0.750000
O O5 0.032233 0.669848 0.672879
O O6 0.068761 0.784430 0.758121
O O7 0.867148 0.270035 0.136942
O O8 0.889794 0.198652 0.031441
O O9 0.906912 0.374648 0.046597
O O10 0.000000 0.250000 0.097130
O O11 0.555730 0.028197 0.104936
O O12 0.634612 0.182510 0.081135
O O13 0.250000 0.829158 0.000000
O O14 0.145401 0.963208 0.011715
O O15 0.000000 0.500000 0.000000
#
# Coordination Sequence:
#
# PCOD8296001 Si02
#       7
#    16   8  16  16  16  16  16
#     4  10  20  41  62  87 124 164 201 258 305 368
#     4  10  20  40  60  94 124 164 202 254 302 374
#     4  12  21  39  65  88 127 160 201 267 305 374
#     4   9  21  38  63  85 128 159 206 250 309 364
#     4  10  22  38  62  92 120 159 212 245 315 362
#     4  10  23  40  62  93 123 164 211 251 315 371
#     4  10  22  38  60  92 119 167 205 252 314 371
#
# _framework density 18.328135
#
# number of rings (size 3 to 8) (size 9 to 14) (size 15 to 20)
#    0.923    0.923    2.308    1.846    3.231    0.615 
#    2.769    0.769    0.000    0.000    0.000    0.000 
#    0.000    0.000    0.000    0.000    0.000    0.000 
#
# Total GULP energy -644375.107168 kJ/mol
# GULP energy per Si atom -12391.828984 kJ/mol
# Density = 1.828642 g / cm^3
# Si number density = 18.328135 Si / 1000 Ang^3
#
#
#
# Elastic Constant Matrix: (Units=GPa)
#
#
# Indices 1 2 3 4 5 6 
#
# 1 84.8497 46.8385 26.2214 0.0000 0.0000 0.0000
# 2 46.8385 102.7053 45.7033 0.0000 0.0000 0.0000
# 3 26.2214 45.7033 99.2836 0.0000 0.0000 0.0000
# 4 0.0000 0.0000 0.0000 33.3276 0.0000 0.0000
# 5 0.0000 0.0000 0.0000 0.0000 29.0585 0.0000
# 6 0.0000 0.0000 0.0000 0.0000 0.0000 26.3954
#
#
#
# Elastic Compliance Matrix: (Units=1/GPa)
#
#
# Indices 1 2 3 4 5 6 
#
# 1 0.015842 -0.006744 -0.001079 0.000000 0.000000 0.000000
# 2 -0.006744 0.015116 -0.005177 0.000000 0.000000 0.000000
# 3 -0.001079 -0.005177 0.012740 0.000000 0.000000 0.000000
# 4 0.000000 0.000000 0.000000 0.030005 0.000000 0.000000
# 5 0.000000 0.000000 0.000000 0.000000 0.034413 0.000000
# 6 0.000000 0.000000 0.000000 0.000000 0.000000 0.037885
#
#
# Mechanical properties :
#
#
# Convention : Reuss Voigt Hill
#
# Bulk Modulus (GPa) = 56.50736 58.26278 57.38507
# Shear Modulus (GPa) = 28.10509 28.96133 28.53321
#
# Velocity S-wave (km/s) = 3.92016 3.97943 3.94991
# Velocity P-wave (km/s) = 7.16855 7.27820 7.22358
#
# Compressibility (1/GPa) = 0.01769681
#
# Stress axis : x y z
#
# Youngs Moduli (GPa) = 63.12269 66.15401 78.49025
#
# Poissons Ratio (x) = 0.44618 0.08472
# Poissons Ratio (y) = 0.42573 0.40636
# Poissons Ratio (z) = 0.06813 0.34249
#
# Static dielectric constant tensor:
#      x y z
#    x 3.549450 0.000000 0.000000 
#    y 0.000000 3.220500 0.000000 
#    z 0.000000 0.000000 3.501140 
# 
# 
# High freq. dielectric constant tensor:
#      x y z
#    x 1.712290 0.000000 0.000000 
#    y 0.000000 1.698410 0.000000 
#    z 0.000000 0.000000 1.724470 
# 
# From -- ./inp_files/32398.got.cif
#   From: 2010.03.12/outbox.cif.g09.slc.cpg/sg73_17_cif.got.tgz:32398.got - 2010.04.16 15:25:48.
