data_PCOD8296697
_publ_section_title
;
Structure prediction by ZEFSAII (Michael W. Deem and Ramdas Pophale) SiO2 
 PCOD8296697
Probable space group: I B C A 
;
_chemical_formula_sum "Si O2"
_cell_formula_units_Z 96
_cell_length_a 27.275528
_cell_length_b 19.823314
_cell_length_c 8.813588
_cell_angle_alpha 90.000000
_cell_angle_beta 90.000000
_cell_angle_gamma 90.000000
_cell_volume 4765.430847
_symmetry_space_group_name_H-M "I B C A "
_symmetry_group_IT_number 73
_symmetry_cell_setting 'orthorhombic'
loop_
_space_group_symop_operation_xyz
x,y,z
-x,1/2-y,z
x,-y,1/2-z
1/2-x,y,-z
-x,-y,-z
x,1/2+y,-z
-x,y,1/2+z
1/2+x,-y,z
1/2+x,1/2+y,1/2+z
1/2-x,-y,1/2+z
1/2+x,1/2-y,-z
-x,1/2+y,1/2-z
1/2-x,1/2-y,1/2-z
1/2+x,y,1/2-z
1/2-x,1/2+y,z
x,1/2-y,1/2+z
loop_
_atom_site_type_symbol
_atom_site_label
_atom_site_fract_x
_atom_site_fract_y
_atom_site_fract_z
Si Si1 0.053306 0.175761 0.854778
Si Si2 0.850108 0.619482 0.508451
Si Si3 0.546501 0.323301 0.507825
Si Si4 0.141511 0.358339 0.846089
Si Si5 0.197892 0.985228 0.074214
Si Si6 0.212447 0.758970 0.616493
O O1 0.047404 0.179412 0.673845
O O2 0.100396 0.130248 0.894985
O O3 0.057605 0.249712 0.925075
O O4 0.004417 0.144694 0.931755
O O5 0.861374 0.635524 0.334089
O O6 0.833601 0.541571 0.516107
O O7 0.805631 0.664986 0.576669
O O8 0.588830 0.369425 0.577503
O O9 0.173205 0.412607 0.936917
O O10 0.163002 0.284209 0.876018
O O11 0.204016 0.000000 0.250000
O O12 0.250000 0.980008 0.000000
O O13 0.250000 0.727949 0.500000
O O14 0.250000 0.750000 0.750000
#
# Coordination Sequence:
#
# PCOD8296697 Si02
#       6
#    16  16  16  16  16  16
#     4  11  22  38  63  93 125 160 201 260 317 374
#     4  11  23  41  63  91 127 165 209 259 314 370
#     4  11  22  38  63  93 126 159 204 258 319 373
#     4  11  23  41  62  93 125 165 211 257 315 372
#     4  10  24  43  64  87 127 173 211 257 310 373
#     4  12  24  37  61  93 126 162 209 267 310 365
#
# _framework density 20.145083
#
# number of rings (size 3 to 8) (size 9 to 14) (size 15 to 20)
#    0.000    1.000    3.333    5.000    4.667    1.333 
#    0.000    0.833    0.000    0.000    0.000    0.000 
#    0.000    0.000    0.000    0.000    0.000    0.000 
#
# Total GULP energy -594781.299123 kJ/mol
# GULP energy per Si atom -12391.277065 kJ/mol
# Density = 2.009923 g / cm^3
# Si number density = 20.145083 Si / 1000 Ang^3
#
#
#
# Elastic Constant Matrix: (Units=GPa)
#
#
# Indices 1 2 3 4 5 6 
#
# 1 161.3001 34.2451 65.2018 0.0000 0.0000 0.0000
# 2 34.2451 76.5841 31.0571 0.0000 0.0000 0.0000
# 3 65.2018 31.0571 139.3925 0.0000 0.0000 0.0000
# 4 0.0000 0.0000 0.0000 23.7494 0.0000 0.0000
# 5 0.0000 0.0000 0.0000 0.0000 44.9743 0.0000
# 6 0.0000 0.0000 0.0000 0.0000 0.0000 29.0715
#
#
#
# Elastic Compliance Matrix: (Units=1/GPa)
#
#
# Indices 1 2 3 4 5 6 
#
# 1 0.007986 -0.002260 -0.003232 0.000000 0.000000 0.000000
# 2 -0.002260 0.014994 -0.002283 0.000000 0.000000 0.000000
# 3 -0.003232 -0.002283 0.009194 0.000000 0.000000 0.000000
# 4 0.000000 0.000000 0.000000 0.042106 0.000000 0.000000
# 5 0.000000 0.000000 0.000000 0.000000 0.022235 0.000000
# 6 0.000000 0.000000 0.000000 0.000000 0.000000 0.034398
#
#
# Mechanical properties :
#
#
# Convention : Reuss Voigt Hill
#
# Bulk Modulus (GPa) = 60.15645 70.92051 65.53848
# Shear Modulus (GPa) = 32.89336 36.01056 34.45196
#
# Velocity S-wave (km/s) = 4.04520 4.23254 4.13993
# Velocity P-wave (km/s) = 7.19338 7.69202 7.44687
#
# Compressibility (1/GPa) = 0.01662332
#
# Stress axis : x y z
#
# Youngs Moduli (GPa) = 125.22049 66.69204 108.76102
#
# Poissons Ratio (x) = 0.15075 0.35150
# Poissons Ratio (y) = 0.28304 0.24835
# Poissons Ratio (z) = 0.40469 0.15229
#
# Static dielectric constant tensor:
#      x y z
#    x 4.032170 0.000000 0.000000 
#    y 0.000000 3.684220 0.000000 
#    z 0.000000 0.000000 3.749590 
# 
# 
# High freq. dielectric constant tensor:
#      x y z
#    x 1.808220 0.000000 0.000000 
#    y 0.000000 1.759120 0.000000 
#    z 0.000000 0.000000 1.803640 
# 
# From -- ./inp_files/6459.got.cif
#   From: 2010.03.12/outbox.cif.g09.slc.cpg/sg73_4_cif.got.tgz:6459.got - 2010.04.16 15:25:48.
