data_PCOD8296159
_publ_section_title
;
Structure prediction by ZEFSAII (Michael W. Deem and Ramdas Pophale) SiO2 
 PCOD8296159
Probable space group: I B C A 
;
_chemical_formula_sum "Si O2"
_cell_formula_units_Z 104
_cell_length_a 13.600233
_cell_length_b 22.375364
_cell_length_c 17.871970
_cell_angle_alpha 90.000000
_cell_angle_beta 90.000000
_cell_angle_gamma 90.000000
_cell_volume 5438.622119
_symmetry_space_group_name_H-M "I B C A "
_symmetry_group_IT_number 73
_symmetry_cell_setting 'orthorhombic'
loop_
_space_group_symop_operation_xyz
x,y,z
-x,1/2-y,z
x,-y,1/2-z
1/2-x,y,-z
-x,-y,-z
x,1/2+y,-z
-x,y,1/2+z
1/2+x,-y,z
1/2+x,1/2+y,1/2+z
1/2-x,-y,1/2+z
1/2+x,1/2-y,-z
-x,1/2+y,1/2-z
1/2-x,1/2-y,1/2-z
1/2+x,y,1/2-z
1/2-x,1/2+y,z
x,1/2-y,1/2+z
loop_
_atom_site_type_symbol
_atom_site_label
_atom_site_fract_x
_atom_site_fract_y
_atom_site_fract_z
Si Si1 0.355824 0.054094 0.306550
Si Si2 0.637079 0.548358 0.814158
Si Si3 0.965201 0.834845 0.914391
Si Si4 0.000000 0.250000 0.868771
Si Si5 0.996650 0.148389 0.252619
Si Si6 0.519975 0.030003 0.422785
Si Si7 0.134513 0.270091 0.004856
O O1 0.246694 0.069690 0.333493
O O2 0.398138 0.112004 0.265228
O O3 0.419215 0.035336 0.377574
O O4 0.356444 0.000000 0.250000
O O5 0.632911 0.500000 0.750000
O O6 0.578464 0.606078 0.788251
O O7 0.595343 0.516032 0.886514
O O8 0.883247 0.793178 0.953283
O O9 0.964143 0.822622 0.825013
O O10 0.935214 0.903367 0.931236
O O11 0.073710 0.820452 0.948932
O O12 0.968101 0.303646 0.814813
O O13 0.906859 0.232994 0.920308
O O14 0.500000 0.000000 0.500000
O O15 0.250000 0.285657 0.000000
#
# Coordination Sequence:
#
# PCOD8296159 Si02
#       7
#    16  16  16   8  16  16  16
#     4  10  21  38  62  89 120 161 199 246 302 366
#     4  11  21  39  62  90 121 161 201 250 309 366
#     4   9  21  41  61  86 119 165 196 252 308 355
#     4  10  24  36  66  90 110 164 206 256 300 366
#     4  11  20  42  63  88 122 155 208 257 304 358
#     4  11  22  39  61  89 129 160 198 252 308 365
#     4  10  23  43  60  86 126 159 204 250 307 362
#
# _framework density 19.122489999999999
#
# number of rings (size 3 to 8) (size 9 to 14) (size 15 to 20)
#    0.000    1.846    4.615    0.923    4.308    4.308 
#    2.769    2.308    0.000    0.000    0.000    0.000 
#    0.000    0.000    0.000    0.000    0.000    0.000 
#
# Total GULP energy -644696.106047 kJ/mol
# GULP energy per Si atom -12398.002039 kJ/mol
# Density = 1.907897 g / cm^3
# Si number density = 19.122490 Si / 1000 Ang^3
#
#
#
# Elastic Constant Matrix: (Units=GPa)
#
#
# Indices 1 2 3 4 5 6 
#
# 1 125.7766 42.2988 39.6885 0.0000 0.0000 0.0000
# 2 42.2988 84.7228 63.1364 0.0000 0.0000 0.0000
# 3 39.6885 63.1364 128.5049 0.0001 0.0000 0.0000
# 4 0.0000 0.0000 0.0001 44.9699 0.0000 0.0000
# 5 0.0000 0.0000 0.0000 0.0000 31.3069 0.0000
# 6 0.0000 0.0000 0.0000 0.0000 0.0000 5.1809
#
#
#
# Elastic Compliance Matrix: (Units=1/GPa)
#
#
# Indices 1 2 3 4 5 6 
#
# 1 0.009630 -0.004088 -0.000966 0.000000 0.000000 0.000000
# 2 -0.004088 0.020357 -0.008739 0.000000 0.000000 0.000000
# 3 -0.000966 -0.008739 0.012374 0.000000 0.000000 0.000000
# 4 0.000000 0.000000 0.000000 0.022237 0.000000 0.000000
# 5 0.000000 0.000000 0.000000 0.000000 0.031942 0.000000
# 6 0.000000 0.000000 0.000000 0.000000 0.000000 0.193016
#
#
# Mechanical properties :
#
#
# Convention : Reuss Voigt Hill
#
# Bulk Modulus (GPa) = 67.68302 69.91687 68.79995
# Shear Modulus (GPa) = 15.52476 29.21692 22.37084
#
# Velocity S-wave (km/s) = 2.85240 3.91305 3.42405
# Velocity P-wave (km/s) = 6.80585 7.55367 7.18949
#
# Compressibility (1/GPa) = 0.01477475
#
# Stress axis : x y z
#
# Youngs Moduli (GPa) = 103.83957 49.12398 80.81772
#
# Poissons Ratio (x) = 0.20084 0.07803
# Poissons Ratio (y) = 0.42454 0.70625
# Poissons Ratio (z) = 0.10026 0.42929
#
# Static dielectric constant tensor:
#      x y z
#    x 3.721160 0.000000 0.000000 
#    y 0.000000 3.537510 0.000000 
#    z 0.000000 0.000000 3.611920 
# 
# 
# High freq. dielectric constant tensor:
#      x y z
#    x 1.728170 0.000000 0.000000 
#    y 0.000000 1.752060 0.000000 
#    z 0.000000 0.000000 1.755780 
# 
# From -- ./inp_files/18223.got.cif
#   From: 2010.03.12/outbox.cif.g09.slc.cpg/sg73_10_cif.got.tgz:18223.got - 2010.04.16 15:25:48.
