data_PCOD8296673
_publ_section_title
;
Structure prediction by ZEFSAII (Michael W. Deem and Ramdas Pophale) SiO2 
 PCOD8296673
Probable space group: I B C A 
;
_chemical_formula_sum "Si O2"
_cell_formula_units_Z 104
_cell_length_a 25.836036
_cell_length_b 8.161967
_cell_length_c 22.975057
_cell_angle_alpha 90.000000
_cell_angle_beta 90.000000
_cell_angle_gamma 90.000000
_cell_volume 4844.816283
_symmetry_space_group_name_H-M "I B C A "
_symmetry_group_IT_number 73
_symmetry_cell_setting 'orthorhombic'
loop_
_space_group_symop_operation_xyz
x,y,z
-x,1/2-y,z
x,-y,1/2-z
1/2-x,y,-z
-x,-y,-z
x,1/2+y,-z
-x,y,1/2+z
1/2+x,-y,z
1/2+x,1/2+y,1/2+z
1/2-x,-y,1/2+z
1/2+x,1/2-y,-z
-x,1/2+y,1/2-z
1/2-x,1/2-y,1/2-z
1/2+x,y,1/2-z
1/2-x,1/2+y,z
x,1/2-y,1/2+z
loop_
_atom_site_type_symbol
_atom_site_label
_atom_site_fract_x
_atom_site_fract_y
_atom_site_fract_z
Si Si1 0.686455 0.681034 0.936723
Si Si2 0.727981 0.000000 0.250000
Si Si3 0.076303 0.458466 0.961494
Si Si4 0.188781 0.307961 0.310613
Si Si5 0.500000 0.750000 0.886723
Si Si6 0.558061 0.193293 0.919261
Si Si7 0.250000 0.069399 0.000000
Si Si8 0.922436 0.466415 0.814823
O O1 0.626694 0.644944 0.946665
O O2 0.697526 0.732168 0.872397
O O3 0.726661 0.535281 0.947535
O O4 0.700419 0.829553 0.979217
O O5 0.766131 0.058605 0.301573
O O6 0.691955 0.154205 0.233706
O O7 0.087974 0.645120 0.942230
O O8 0.027180 0.386394 0.926734
O O9 0.063650 0.446877 0.030734
O O10 0.134239 0.395910 0.304372
O O11 0.458270 0.666561 0.845328
O O12 0.500000 0.250000 0.908859
O O13 0.580350 0.125978 0.857635
O O14 0.945298 0.500000 0.750000
#
# Coordination Sequence:
#
# PCOD8296673 Si02
#       8
#    16   8  16  16   8  16   8  16
#     4  11  23  42  66 101 134 180 217 282 343 423
#     4  10  24  46  72  98 132 184 238 302 342 424
#     4  12  24  43  74 106 138 183 233 282 358 424
#     4  11  23  46  71  99 134 178 237 291 354 416
#     4  12  24  46  70 100 144 180 230 296 344 422
#     4  12  25  44  70 102 143 185 230 292 346 421
#     4  10  24  42  62  96 146 172 212 278 352 404
#     4  12  28  47  68 100 142 186 234 290 353 422
#
# _framework density 21.466241
#
# number of rings (size 3 to 8) (size 9 to 14) (size 15 to 20)
#    0.000    0.615    4.615    3.231    3.231    1.231 
#    4.154    0.000    0.000    0.000    0.000    0.000 
#    0.000    0.000    0.000    0.000    0.000    0.000 
#
# Total GULP energy -644812.193203 kJ/mol
# GULP energy per Si atom -12400.234485 kJ/mol
# Density = 2.141738 g / cm^3
# Si number density = 21.466241 Si / 1000 Ang^3
#
#
#
# Elastic Constant Matrix: (Units=GPa)
#
#
# Indices 1 2 3 4 5 6 
#
# 1 109.2312 38.3756 45.2427 0.0000 0.0000 0.0000
# 2 38.3756 110.2369 51.2862 0.0000 0.0000 0.0000
# 3 45.2427 51.2862 154.0048 0.0000 0.0000 0.0000
# 4 0.0000 0.0000 0.0000 35.2989 0.0000 0.0000
# 5 0.0000 0.0000 0.0000 0.0000 38.8838 0.0000
# 6 0.0000 0.0000 0.0000 0.0000 0.0000 29.9950
#
#
#
# Elastic Compliance Matrix: (Units=1/GPa)
#
#
# Indices 1 2 3 4 5 6 
#
# 1 0.011098 -0.002777 -0.002336 0.000000 0.000000 0.000000
# 2 -0.002777 0.011429 -0.002990 0.000000 0.000000 0.000000
# 3 -0.002336 -0.002990 0.008175 0.000000 0.000000 0.000000
# 4 0.000000 0.000000 0.000000 0.028329 0.000000 0.000000
# 5 0.000000 0.000000 0.000000 0.000000 0.025718 0.000000
# 6 0.000000 0.000000 0.000000 0.000000 0.000000 0.033339
#
#
# Mechanical properties :
#
#
# Convention : Reuss Voigt Hill
#
# Bulk Modulus (GPa) = 68.98016 71.47578 70.22797
# Shear Modulus (GPa) = 35.93861 36.74009 36.33935
#
# Velocity S-wave (km/s) = 4.09613 4.14155 4.11890
# Velocity P-wave (km/s) = 7.38749 7.49927 7.44359
#
# Compressibility (1/GPa) = 0.01449692
#
# Stress axis : x y z
#
# Youngs Moduli (GPa) = 90.10788 87.49474 122.31996
#
# Poissons Ratio (x) = 0.24295 0.28568
# Poissons Ratio (y) = 0.25021 0.36578
# Poissons Ratio (z) = 0.21045 0.26164
#
# Static dielectric constant tensor:
#      x y z
#    x 3.715840 0.000000 0.000000 
#    y 0.000000 4.273640 0.000000 
#    z 0.000000 0.000000 3.921680 
# 
# 
# High freq. dielectric constant tensor:
#      x y z
#    x 1.847200 0.000000 0.000000 
#    y 0.000000 1.857050 0.000000 
#    z 0.000000 0.000000 1.844610 
# 
# From -- ./inp_files/27620.got.cif
#   From: 2010.03.12/outbox.cif.g09.slc.cpg/sg73_14_cif.got.tgz:27620.got - 2010.04.16 15:25:48.
