data_PCOD8296064
_publ_section_title
;
Structure prediction by ZEFSAII (Michael W. Deem and Ramdas Pophale) SiO2 
 PCOD8296064
Probable space group: I B C A 
;
_chemical_formula_sum "Si O2"
_cell_formula_units_Z 120
_cell_length_a 11.734802
_cell_length_b 25.207767
_cell_length_c 18.201109
_cell_angle_alpha 90.000000
_cell_angle_beta 90.000000
_cell_angle_gamma 90.000000
_cell_volume 5384.036465
_symmetry_space_group_name_H-M "I B C A "
_symmetry_group_IT_number 73
_symmetry_cell_setting 'orthorhombic'
loop_
_space_group_symop_operation_xyz
x,y,z
-x,1/2-y,z
x,-y,1/2-z
1/2-x,y,-z
-x,-y,-z
x,1/2+y,-z
-x,y,1/2+z
1/2+x,-y,z
1/2+x,1/2+y,1/2+z
1/2-x,-y,1/2+z
1/2+x,1/2-y,-z
-x,1/2+y,1/2-z
1/2-x,1/2-y,1/2-z
1/2+x,y,1/2-z
1/2-x,1/2+y,z
x,1/2-y,1/2+z
loop_
_atom_site_type_symbol
_atom_site_label
_atom_site_fract_x
_atom_site_fract_y
_atom_site_fract_z
Si Si1 0.337640 0.048886 0.305553
Si Si2 0.432433 0.168917 0.137465
Si Si3 0.307379 0.509359 0.426696
Si Si4 0.750000 0.669957 0.000000
Si Si5 0.258329 0.642688 0.233002
Si Si6 0.673245 0.281551 0.647831
Si Si7 0.034941 0.100449 0.485248
Si Si8 0.572135 0.916665 0.140273
O O1 0.301761 0.036863 0.389189
O O2 0.239783 0.092309 0.286708
O O3 0.464832 0.072606 0.307611
O O4 0.334531 0.000000 0.250000
O O5 0.367157 0.133969 0.197235
O O6 0.346293 0.219426 0.134706
O O7 0.556380 0.187113 0.161260
O O8 0.446822 0.134162 0.064563
O O9 0.250000 0.484587 0.500000
O O10 0.414568 0.548407 0.444479
O O11 0.345381 0.467515 0.364530
O O12 0.740256 0.703816 0.925921
O O13 0.639402 0.635340 0.012244
O O14 0.260966 0.698929 0.278103
O O15 0.360282 0.634654 0.173282
O O16 0.959505 0.089013 0.555374
#
# Coordination Sequence:
#
# PCOD8296064 Si02
#       8
#    16  16  16   8  16  16  16  16
#     4  12  26  43  63  97 136 181 232 275 335 416
#     4  10  24  42  69  99 130 174 222 287 341 402
#     4  12  25  44  66  94 132 186 225 282 337 410
#     4  10  20  42  70  90 122 172 222 272 338 408
#     4  12  25  43  65  95 139 176 220 279 342 409
#     4  10  22  44  70  97 130 174 225 278 346 411
#     4  11  22  42  68  95 134 173 230 278 341 410
#     4  12  27  39  67  99 134 185 221 285 341 404
#
# _framework density 22.288112000000002
#
# number of rings (size 3 to 8) (size 9 to 14) (size 15 to 20)
#    0.000    0.800    3.333    4.000    5.600    1.067 
#    0.000    0.000    0.000    1.600    0.000    0.000 
#    0.000    0.000    0.000    0.000    0.000    0.000 
#
# Total GULP energy -743494.677095 kJ/mol
# GULP energy per Si atom -12391.577952 kJ/mol
# Density = 2.223738 g / cm^3
# Si number density = 22.288112 Si / 1000 Ang^3
#
#
#
# Elastic Constant Matrix: (Units=GPa)
#
#
# Indices 1 2 3 4 5 6 
#
# 1 80.1690 16.8693 46.0217 0.0000 0.0000 0.0000
# 2 16.8693 81.7644 29.0266 0.0001 0.0000 0.0000
# 3 46.0217 29.0266 104.4471 0.0003 0.0000 0.0000
# 4 0.0000 0.0001 0.0003 23.7116 0.0000 0.0000
# 5 0.0000 0.0000 0.0000 0.0000 45.4616 0.0000
# 6 0.0000 0.0000 0.0000 0.0000 0.0000 31.9263
#
#
#
# Elastic Compliance Matrix: (Units=1/GPa)
#
#
# Indices 1 2 3 4 5 6 
#
# 1 0.016760 -0.000928 -0.007127 0.000000 0.000000 0.000000
# 2 -0.000928 0.013620 -0.003376 0.000000 0.000000 0.000000
# 3 -0.007127 -0.003376 0.013653 0.000000 0.000000 0.000000
# 4 0.000000 0.000000 0.000000 0.042173 0.000000 0.000000
# 5 0.000000 0.000000 0.000000 0.000000 0.021997 0.000000
# 6 0.000000 0.000000 0.000000 0.000000 0.000000 0.031322
#
#
# Mechanical properties :
#
#
# Convention : Reuss Voigt Hill
#
# Bulk Modulus (GPa) = 47.23454 50.02397 48.62926
# Shear Modulus (GPa) = 29.50808 31.85076 30.67942
#
# Velocity S-wave (km/s) = 3.64254 3.78438 3.71414
# Velocity P-wave (km/s) = 6.23935 6.44890 6.34499
#
# Compressibility (1/GPa) = 0.02117095
#
# Stress axis : x y z
#
# Youngs Moduli (GPa) = 59.66502 73.41976 73.24444
#
# Poissons Ratio (x) = 0.06812 0.52202
# Poissons Ratio (y) = 0.05535 0.24730
# Poissons Ratio (z) = 0.42524 0.24789
#
# Static dielectric constant tensor:
#      x y z
#    x 3.997320 0.000000 0.000000 
#    y 0.000000 4.087790 0.000000 
#    z 0.000000 0.000000 3.982330 
# 
# 
# High freq. dielectric constant tensor:
#      x y z
#    x 1.883760 0.000000 0.000000 
#    y 0.000000 1.872310 0.000000 
#    z 0.000000 0.000000 1.888340 
# 
# From -- ./inp_files/21523.got.cif
#   From: 2010.03.12/outbox.cif.g09.slc.cpg/sg73_11_cif.got.tgz:21523.got - 2010.04.16 15:25:48.
