data_PCOD8296742
_publ_section_title
;
Structure prediction by ZEFSAII (Michael W. Deem and Ramdas Pophale) SiO2 
 PCOD8296742
Probable space group: I B C A 
;
_chemical_formula_sum "Si O2"
_cell_formula_units_Z 88
_cell_length_a 16.684453
_cell_length_b 17.340756
_cell_length_c 12.985292
_cell_angle_alpha 90.000000
_cell_angle_beta 90.000000
_cell_angle_gamma 90.000000
_cell_volume 3756.918036
_symmetry_space_group_name_H-M "I B C A "
_symmetry_group_IT_number 73
_symmetry_cell_setting 'orthorhombic'
loop_
_space_group_symop_operation_xyz
x,y,z
-x,1/2-y,z
x,-y,1/2-z
1/2-x,y,-z
-x,-y,-z
x,1/2+y,-z
-x,y,1/2+z
1/2+x,-y,z
1/2+x,1/2+y,1/2+z
1/2-x,-y,1/2+z
1/2+x,1/2-y,-z
-x,1/2+y,1/2-z
1/2-x,1/2-y,1/2-z
1/2+x,y,1/2-z
1/2-x,1/2+y,z
x,1/2-y,1/2+z
loop_
_atom_site_type_symbol
_atom_site_label
_atom_site_fract_x
_atom_site_fract_y
_atom_site_fract_z
Si Si1 0.580906 0.289136 0.334834
Si Si2 0.472355 0.610391 0.854531
Si Si3 0.819248 0.144411 0.745193
Si Si4 0.119144 0.688919 0.553604
Si Si5 0.081062 0.500000 0.750000
Si Si6 0.187051 0.642941 0.086904
O O1 0.500000 0.250000 0.377775
O O2 0.558434 0.353917 0.252899
O O3 0.636905 0.223037 0.286694
O O4 0.625899 0.330232 0.431934
O O5 0.527594 0.674182 0.910236
O O6 0.524014 0.533100 0.839907
O O7 0.390242 0.586147 0.914185
O O8 0.820375 0.140389 0.871089
O O9 0.865406 0.068921 0.702272
O O10 0.729879 0.144328 0.699039
O O11 0.144688 0.776908 0.563983
O O12 0.250000 0.618279 0.000000
#
# Coordination Sequence:
#
# PCOD8296742 Si02
#       6
#    16  16  16  16   8  16
#     4  12  20  37  69  99 127 170 224 281 324 395
#     4  11  24  44  68  97 136 177 227 268 333 406
#     4  11  24  42  65  99 138 169 223 276 338 385
#     4  11  23  39  66 102 129 167 223 277 332 396
#     4  10  24  46  66  92 132 194 218 266 332 406
#     4  12  23  40  68 102 133 170 216 287 341 381
#
# _framework density 23.423455000000001
#
# number of rings (size 3 to 8) (size 9 to 14) (size 15 to 20)
#    0.000    0.727    7.273    2.182    0.000    0.727 
#    0.000    8.182    0.000    4.364    0.000    0.000 
#    0.000    0.000    0.000    0.000    0.000    0.000 
#
# Total GULP energy -545147.311335 kJ/mol
# GULP energy per Si atom -12389.711621 kJ/mol
# Density = 2.337014 g / cm^3
# Si number density = 23.423455 Si / 1000 Ang^3
#
#
#
# Elastic Constant Matrix: (Units=GPa)
#
#
# Indices 1 2 3 4 5 6 
#
# 1 97.4218 2.0765 8.8732 0.0000 0.0000 0.0000
# 2 2.0765 69.0398 18.0063 0.0000 0.0000 0.0000
# 3 8.8732 18.0063 111.0027 0.0000 0.0000 0.0000
# 4 0.0000 0.0000 0.0000 12.3183 0.0000 0.0000
# 5 0.0000 0.0000 0.0000 0.0000 36.9602 0.0000
# 6 0.0000 0.0000 0.0000 0.0000 0.0000 15.0362
#
#
#
# Elastic Compliance Matrix: (Units=1/GPa)
#
#
# Indices 1 2 3 4 5 6 
#
# 1 0.010341 -0.000100 -0.000810 0.000000 0.000000 0.000000
# 2 -0.000100 0.015125 -0.002446 0.000000 0.000000 0.000000
# 3 -0.000810 -0.002446 0.009470 0.000000 0.000000 0.000000
# 4 0.000000 0.000000 0.000000 0.081180 0.000000 0.000000
# 5 0.000000 0.000000 0.000000 0.000000 0.027056 0.000000
# 6 0.000000 0.000000 0.000000 0.000000 0.000000 0.066506
#
#
# Mechanical properties :
#
#
# Convention : Reuss Voigt Hill
#
# Bulk Modulus (GPa) = 35.42983 37.26403 36.34693
# Shear Modulus (GPa) = 22.14367 29.43015 25.78691
#
# Velocity S-wave (km/s) = 3.07801 3.54847 3.32158
# Velocity P-wave (km/s) = 5.27170 5.72121 5.50105
#
# Compressibility (1/GPa) = 0.02822480
#
# Stress axis : x y z
#
# Youngs Moduli (GPa) = 96.70635 66.11465 105.59343
#
# Poissons Ratio (x) = 0.00659 0.08558
# Poissons Ratio (y) = 0.00964 0.25824
# Poissons Ratio (z) = 0.07837 0.16169
#
# Static dielectric constant tensor:
#      x y z
#    x 4.919790 0.000000 0.000000 
#    y 0.000000 3.840430 0.000000 
#    z 0.000000 0.000000 4.525180 
# 
# 
# High freq. dielectric constant tensor:
#      x y z
#    x 1.945480 0.000000 0.000000 
#    y 0.000000 1.880670 0.000000 
#    z 0.000000 0.000000 1.922170 
# 
# From -- ./inp_files/17974.got.cif
#   From: 2010.03.12/outbox.cif.g09.slc.cpg/sg73_9_cif.got.tgz:17974.got - 2010.04.16 15:25:48.
