data_PCOD8296119
_publ_section_title
;
Structure prediction by ZEFSAII (Michael W. Deem and Ramdas Pophale) SiO2 
 PCOD8296119
Probable space group: I B C A 
;
_chemical_formula_sum "Si O2"
_cell_formula_units_Z 88
_cell_length_a 21.420175
_cell_length_b 17.211984
_cell_length_c 12.149584
_cell_angle_alpha 90.000000
_cell_angle_beta 90.000000
_cell_angle_gamma 90.000000
_cell_volume 4479.353697
_symmetry_space_group_name_H-M "I B C A "
_symmetry_group_IT_number 73
_symmetry_cell_setting 'orthorhombic'
loop_
_space_group_symop_operation_xyz
x,y,z
-x,1/2-y,z
x,-y,1/2-z
1/2-x,y,-z
-x,-y,-z
x,1/2+y,-z
-x,y,1/2+z
1/2+x,-y,z
1/2+x,1/2+y,1/2+z
1/2-x,-y,1/2+z
1/2+x,1/2-y,-z
-x,1/2+y,1/2-z
1/2-x,1/2-y,1/2-z
1/2+x,y,1/2-z
1/2-x,1/2+y,z
x,1/2-y,1/2+z
loop_
_atom_site_type_symbol
_atom_site_label
_atom_site_fract_x
_atom_site_fract_y
_atom_site_fract_z
Si Si1 0.750000 0.372278 0.500000
Si Si2 0.084352 0.689498 0.836938
Si Si3 0.309813 0.230586 0.679808
Si Si4 0.651000 0.028422 0.868234
Si Si5 0.615627 0.865466 0.923740
Si Si6 0.044956 0.861157 0.786759
O O1 0.705253 0.319246 0.572885
O O2 0.794351 0.422414 0.577597
O O3 0.141657 0.680037 0.752403
O O4 0.062524 0.777774 0.834044
O O5 0.029291 0.628584 0.805920
O O6 0.104310 0.674195 0.960909
O O7 0.250000 0.250000 0.750000
O O8 0.334984 0.314606 0.644461
O O9 0.586120 0.075561 0.852447
O O10 0.675750 0.000000 0.750000
O O11 0.639441 0.953039 0.944191
O O12 0.554477 0.867982 0.845214
#
# Coordination Sequence:
#
# PCOD8296119 Si02
#       6
#     8  16  16  16  16  16
#     4  12  24  38  62  88 122 160 198 256 314 366
#     4  10  21  36  61  89 110 150 204 242 284 361
#     4  11  22  39  61  88 118 154 203 252 302 367
#     4  10  22  40  58  83 121 160 194 243 314 371
#     4  10  21  38  60  82 115 157 192 245 305 354
#     4   9  20  38  57  83 118 150 192 243 297 357
#
# _framework density 19.645692
#
# number of rings (size 3 to 8) (size 9 to 14) (size 15 to 20)
#    0.000    1.818    0.000    5.455    0.000   11.636 
#    0.000    3.636    0.000    0.000    0.000    0.000 
#    0.000    0.000    0.000    0.000    0.000    0.000 
#
# Total GULP energy -545546.185685 kJ/mol
# GULP energy per Si atom -12398.776947 kJ/mol
# Density = 1.960098 g / cm^3
# Si number density = 19.645692 Si / 1000 Ang^3
#
#
#
# Elastic Constant Matrix: (Units=GPa)
#
#
# Indices 1 2 3 4 5 6 
#
# 1 135.9519 33.4453 50.2686 0.0000 0.0000 0.0000
# 2 33.4453 82.2869 28.1778 0.0000 0.0000 0.0000
# 3 50.2686 28.1778 99.4553 0.0000 0.0000 0.0000
# 4 0.0000 0.0000 0.0000 36.3355 0.0000 0.0000
# 5 0.0000 0.0000 0.0000 0.0000 28.3323 0.0000
# 6 0.0000 0.0000 0.0000 0.0000 0.0000 24.5870
#
#
#
# Elastic Compliance Matrix: (Units=1/GPa)
#
#
# Indices 1 2 3 4 5 6 
#
# 1 0.009471 -0.002448 -0.004094 0.000000 0.000000 0.000000
# 2 -0.002448 0.014091 -0.002755 0.000000 0.000000 0.000000
# 3 -0.004094 -0.002755 0.012904 0.000000 0.000000 0.000000
# 4 0.000000 0.000000 0.000000 0.027521 0.000000 0.000000
# 5 0.000000 0.000000 0.000000 0.000000 0.035295 0.000000
# 6 0.000000 0.000000 0.000000 0.000000 0.000000 0.040672
#
#
# Mechanical properties :
#
#
# Convention : Reuss Voigt Hill
#
# Bulk Modulus (GPa) = 55.94822 60.16419 58.05621
# Shear Modulus (GPa) = 30.39397 31.57111 30.98254
#
# Velocity S-wave (km/s) = 3.93759 4.01312 3.97554
# Velocity P-wave (km/s) = 7.01522 7.22251 7.11962
#
# Compressibility (1/GPa) = 0.01787367
#
# Stress axis : x y z
#
# Youngs Moduli (GPa) = 105.58126 70.96762 77.49268
#
# Poissons Ratio (x) = 0.17371 0.31723
# Poissons Ratio (y) = 0.25844 0.21350
# Poissons Ratio (z) = 0.43222 0.19552
#
# Static dielectric constant tensor:
#      x y z
#    x 3.895010 0.000000 0.000000 
#    y 0.000000 3.894320 0.000000 
#    z 0.000000 0.000000 3.694250 
# 
# 
# High freq. dielectric constant tensor:
#      x y z
#    x 1.765950 0.000000 0.000000 
#    y 0.000000 1.767180 0.000000 
#    z 0.000000 0.000000 1.770010 
# 
# From -- ./inp_files/12756.got.cif
#   From: 2010.03.12/outbox.cif.g09.slc.cpg/sg73_7_cif.got.tgz:12756.got - 2010.04.16 15:25:48.
