data_PCOD8296409
_publ_section_title
;
Structure prediction by ZEFSAII (Michael W. Deem and Ramdas Pophale) SiO2 
 PCOD8296409
Probable space group: I B C A 
;
_chemical_formula_sum "Si O2"
_cell_formula_units_Z 88
_cell_length_a 17.165806
_cell_length_b 7.728508
_cell_length_c 30.245050
_cell_angle_alpha 90.000000
_cell_angle_beta 90.000000
_cell_angle_gamma 90.000000
_cell_volume 4012.491890
_symmetry_space_group_name_H-M "I B C A "
_symmetry_group_IT_number 73
_symmetry_cell_setting 'orthorhombic'
loop_
_space_group_symop_operation_xyz
x,y,z
-x,1/2-y,z
x,-y,1/2-z
1/2-x,y,-z
-x,-y,-z
x,1/2+y,-z
-x,y,1/2+z
1/2+x,-y,z
1/2+x,1/2+y,1/2+z
1/2-x,-y,1/2+z
1/2+x,1/2-y,-z
-x,1/2+y,1/2-z
1/2-x,1/2-y,1/2-z
1/2+x,y,1/2-z
1/2-x,1/2+y,z
x,1/2-y,1/2+z
loop_
_atom_site_type_symbol
_atom_site_label
_atom_site_fract_x
_atom_site_fract_y
_atom_site_fract_z
Si Si1 0.151107 0.293191 0.310334
Si Si2 0.833423 0.711079 0.938993
Si Si3 0.944124 0.500000 0.750000
Si Si4 0.686661 0.825485 0.661113
Si Si5 0.941535 0.537373 0.330482
Si Si6 0.000000 0.250000 0.593986
Si Si7 0.750000 0.034913 0.500000
O O1 0.112743 0.335913 0.262193
O O2 0.236383 0.206151 0.308932
O O3 0.153596 0.480636 0.333757
O O4 0.094108 0.155799 0.334453
O O5 0.793736 0.692308 0.890783
O O6 0.926161 0.722002 0.936751
O O7 0.795625 0.877394 0.960438
O O8 0.817087 0.563272 0.974079
O O9 0.997797 0.446581 0.709291
O O10 0.624888 0.681925 0.676157
O O11 0.988036 0.579524 0.375418
#
# Coordination Sequence:
#
# PCOD8296409 Si02
#       7
#    16  16   8  16  16   8   8
#     4  12  26  43  71 100 132 185 236 292 351 403
#     4  10  22  42  69 101 138 176 225 282 343 425
#     4  12  28  42  66  96 142 182 230 292 356 408
#     4  11  24  47  70 101 134 181 240 285 341 428
#     4  11  26  46  68  98 137 185 233 288 355 410
#     4  10  24  46  72  98 142 182 228 290 348 420
#     4  10  22  40  72 102 134 182 220 278 354 410
#
# _framework density 21.931509999999999
#
# number of rings (size 3 to 8) (size 9 to 14) (size 15 to 20)
#    0.000    1.091    1.818    3.818   10.182    2.182 
#    0.000    0.000    0.000    0.000    0.000    0.000 
#    0.000    0.000    0.000    0.000    0.000    0.000 
#
# Total GULP energy -545225.444244 kJ/mol
# GULP energy per Si atom -12391.487369 kJ/mol
# Density = 2.188159 g / cm^3
# Si number density = 21.931510 Si / 1000 Ang^3
#
#
#
# Elastic Constant Matrix: (Units=GPa)
#
#
# Indices 1 2 3 4 5 6 
#
# 1 124.2459 50.1909 67.7454 0.0000 0.0000 0.0000
# 2 50.1909 158.3729 55.9386 0.0000 0.0000 0.0000
# 3 67.7454 55.9386 113.7590 0.0000 0.0000 0.0000
# 4 0.0000 0.0000 0.0000 -120.2982 0.0000 0.0000
# 5 0.0000 0.0000 0.0000 0.0000 47.8583 0.0000
# 6 0.0000 0.0000 0.0000 0.0000 0.0000 41.9250
#
#
#
# Elastic Compliance Matrix: (Units=1/GPa)
#
#
# Indices 1 2 3 4 5 6 
#
# 1 0.012236 -0.001578 -0.006511 0.000000 0.000000 0.000000
# 2 -0.001578 0.007845 -0.002918 0.000000 0.000000 0.000000
# 3 -0.006511 -0.002918 0.014103 0.000000 0.000000 0.000000
# 4 0.000000 0.000000 0.000000 -0.008313 0.000000 0.000000
# 5 0.000000 0.000000 0.000000 0.000000 0.020895 0.000000
# 6 0.000000 0.000000 0.000000 0.000000 0.000000 0.023852
#
#
# Mechanical properties :
#
#
# Convention : Reuss Voigt Hill
#
# Bulk Modulus (GPa) = 82.16805 82.68083 82.42444
# Shear Modulus (GPa) = 51.71268 8.73055 30.22161
#
# Velocity S-wave (km/s) = 4.86111 1.99736 3.71617
# Velocity P-wave (km/s) = 8.30989 6.56511 7.48849
#
# Compressibility (1/GPa) = 0.01217018
#
# Stress axis : x y z
#
# Youngs Moduli (GPa) = 81.72545 127.47081 70.90924
#
# Poissons Ratio (x) = 0.20117 0.46167
# Poissons Ratio (y) = 0.12898 0.20690
# Poissons Ratio (z) = 0.53210 0.37193
#
# Static dielectric constant tensor:
#      x y z
#    x 4.288570 0.000000 0.000000 
#    y 0.000000 4.206100 0.000000 
#    z 0.000000 0.000000 4.017140 
# 
# 
# High freq. dielectric constant tensor:
#      x y z
#    x 1.882370 0.000000 0.000000 
#    y 0.000000 1.871290 0.000000 
#    z 0.000000 0.000000 1.850900 
# 
# From -- ./inp_files/34525.got.cif
#   From: 2010.03.12/outbox.cif.g09.slc.cpg/sg73_18_cif.got.tgz:34525.got - 2010.04.16 15:25:48.
