data_PCOD8296328
_publ_section_title
;
Structure prediction by ZEFSAII (Michael W. Deem and Ramdas Pophale) SiO2 
 PCOD8296328
Probable space group: I B C A 
;
_chemical_formula_sum "Si O2"
_cell_formula_units_Z 72
_cell_length_a 13.606648
_cell_length_b 8.632037
_cell_length_c 27.894533
_cell_angle_alpha 90.000000
_cell_angle_beta 90.000000
_cell_angle_gamma 90.000000
_cell_volume 3276.299067
_symmetry_space_group_name_H-M "I B C A "
_symmetry_group_IT_number 73
_symmetry_cell_setting 'orthorhombic'
loop_
_space_group_symop_operation_xyz
x,y,z
-x,1/2-y,z
x,-y,1/2-z
1/2-x,y,-z
-x,-y,-z
x,1/2+y,-z
-x,y,1/2+z
1/2+x,-y,z
1/2+x,1/2+y,1/2+z
1/2-x,-y,1/2+z
1/2+x,1/2-y,-z
-x,1/2+y,1/2-z
1/2-x,1/2-y,1/2-z
1/2+x,y,1/2-z
1/2-x,1/2+y,z
x,1/2-y,1/2+z
loop_
_atom_site_type_symbol
_atom_site_label
_atom_site_fract_x
_atom_site_fract_y
_atom_site_fract_z
Si Si1 0.239742 0.258779 0.347415
Si Si2 0.335522 0.898109 0.062481
Si Si3 0.750000 0.841207 0.000000
Si Si4 0.045027 0.909641 0.622255
Si Si5 0.380266 0.498560 0.304841
O O1 0.267342 0.171653 0.396147
O O2 0.155012 0.385000 0.357758
O O3 0.333852 0.337194 0.322596
O O4 0.198964 0.134170 0.310065
O O5 0.338612 0.770905 0.019715
O O6 0.443215 0.953696 0.081951
O O7 0.286374 0.056906 0.044079
O O8 0.000000 0.750000 0.600619
O O9 0.977343 0.971109 0.664490
O O10 0.414047 0.500000 0.250000
#
# Coordination Sequence:
#
# PCOD8296328 Si02
#       5
#    16  16   8  16  16
#     4  11  21  44  70  92 139 183 216 278 349 395
#     4  11  20  43  68 102 131 178 215 277 349 390
#     4  10  22  36  80 102 124 174 238 272 320 436
#     4  10  23  42  66  97 142 174 217 284 337 399
#     4  11  24  42  68 101 133 182 235 278 324 404
#
# _framework density 21.976016000000001
#
# number of rings (size 3 to 8) (size 9 to 14) (size 15 to 20)
#    0.000    1.333    4.444    0.667    0.000    1.778 
#   12.000    1.111    0.000    0.000    0.000    0.000 
#    0.000    0.000    0.000    0.000    0.000    0.000 
#
# Total GULP energy -446237.398484 kJ/mol
# GULP energy per Si atom -12395.483291 kJ/mol
# Density = 2.192600 g / cm^3
# Si number density = 21.976016 Si / 1000 Ang^3
#
#
#
# Elastic Constant Matrix: (Units=GPa)
#
#
# Indices 1 2 3 4 5 6 
#
# 1 105.7773 58.7649 63.4265 0.0000 0.0000 0.0000
# 2 58.7649 133.1836 83.1040 0.0000 0.0000 0.0000
# 3 63.4265 83.1040 138.5310 0.0000 0.0000 0.0000
# 4 0.0000 0.0000 0.0000 41.2600 0.0000 0.0000
# 5 0.0000 0.0000 0.0000 0.0000 36.0661 0.0000
# 6 0.0000 0.0000 0.0000 0.0000 0.0000 31.8904
#
#
#
# Elastic Compliance Matrix: (Units=1/GPa)
#
#
# Indices 1 2 3 4 5 6 
#
# 1 0.013969 -0.003473 -0.004312 0.000000 0.000000 0.000000
# 2 -0.003473 0.012864 -0.006127 0.000000 0.000000 0.000000
# 3 -0.004312 -0.006127 0.012869 0.000000 0.000000 0.000000
# 4 0.000000 0.000000 0.000000 0.024237 0.000000 0.000000
# 5 0.000000 0.000000 0.000000 0.000000 0.027727 0.000000
# 6 0.000000 0.000000 0.000000 0.000000 0.000000 0.031357
#
#
# Mechanical properties :
#
#
# Convention : Reuss Voigt Hill
#
# Bulk Modulus (GPa) = 84.19517 87.56474 85.87995
# Shear Modulus (GPa) = 32.29865 33.32308 32.81086
#
# Velocity S-wave (km/s) = 3.83786 3.89824 3.86817
# Velocity P-wave (km/s) = 7.61803 7.75847 7.68857
#
# Compressibility (1/GPa) = 0.01187717
#
# Stress axis : x y z
#
# Youngs Moduli (GPa) = 71.58754 77.73769 77.70856
#
# Poissons Ratio (x) = 0.26995 0.33511
# Poissons Ratio (y) = 0.24860 0.47612
# Poissons Ratio (z) = 0.30872 0.47630
#
# Static dielectric constant tensor:
#      x y z
#    x 3.734560 0.000000 0.000000 
#    y 0.000000 4.353440 0.000000 
#    z 0.000000 0.000000 3.906360 
# 
# 
# High freq. dielectric constant tensor:
#      x y z
#    x 1.838570 0.000000 0.000000 
#    y 0.000000 1.888760 0.000000 
#    z 0.000000 0.000000 1.860680 
# 
# From -- ./inp_files/4767.got.cif
#   From: 2010.03.12/outbox.cif.g09.slc.cpg/sg73_3_cif.got.tgz:4767.got - 2010.04.16 15:25:48.
