data_PCOD8296048
_publ_section_title
;
Structure prediction by ZEFSAII (Michael W. Deem and Ramdas Pophale) SiO2 
 PCOD8296048
Probable space group: I B C A 
;
_chemical_formula_sum "Si O2"
_cell_formula_units_Z 120
_cell_length_a 24.799030
_cell_length_b 15.947543
_cell_length_c 15.564035
_cell_angle_alpha 90.000000
_cell_angle_beta 90.000000
_cell_angle_gamma 90.000000
_cell_volume 6155.320550
_symmetry_space_group_name_H-M "I B C A "
_symmetry_group_IT_number 73
_symmetry_cell_setting 'orthorhombic'
loop_
_space_group_symop_operation_xyz
x,y,z
-x,1/2-y,z
x,-y,1/2-z
1/2-x,y,-z
-x,-y,-z
x,1/2+y,-z
-x,y,1/2+z
1/2+x,-y,z
1/2+x,1/2+y,1/2+z
1/2-x,-y,1/2+z
1/2+x,1/2-y,-z
-x,1/2+y,1/2-z
1/2-x,1/2-y,1/2-z
1/2+x,y,1/2-z
1/2-x,1/2+y,z
x,1/2-y,1/2+z
loop_
_atom_site_type_symbol
_atom_site_label
_atom_site_fract_x
_atom_site_fract_y
_atom_site_fract_z
Si Si1 0.864525 0.364743 0.595758
Si Si2 0.157476 0.637127 0.137528
Si Si3 0.688569 0.516039 0.497038
Si Si4 0.834832 0.051918 0.831417
Si Si5 0.440791 0.904108 0.252907
Si Si6 0.500000 0.750000 0.828713
Si Si7 0.392345 0.198514 0.586783
Si Si8 0.268481 0.161833 0.286056
O O1 0.846154 0.453988 0.561085
O O2 0.912519 0.377445 0.663770
O O3 0.885256 0.308982 0.515951
O O4 0.812457 0.320774 0.639263
O O5 0.178089 0.605960 0.044988
O O6 0.101530 0.595750 0.168347
O O7 0.150971 0.736528 0.125647
O O8 0.202572 0.613317 0.207753
O O9 0.750000 0.487144 0.500000
O O10 0.670268 0.518434 0.595345
O O11 0.882232 0.113174 0.861475
O O12 0.779596 0.103136 0.818480
O O13 0.854228 0.000000 0.750000
O O14 0.486083 0.832309 0.270601
O O15 0.464544 0.000000 0.250000
O O16 0.452173 0.771766 0.893484
O O17 0.250000 0.250000 0.250000
#
# Coordination Sequence:
#
# PCOD8296048 Si02
#       8
#    16  16  16  16  16   8  16  16
#     4  10  22  37  64  90 126 167 208 255 312 380
#     4  10  21  37  59  86 124 170 207 248 311 376
#     4  11  20  35  57  91 124 167 208 241 295 371
#     4  11  23  38  58  90 133 166 201 256 307 371
#     4  10  20  41  69  91 120 162 215 265 326 388
#     4  10  24  44  68  92 118 166 216 282 334 372
#     4  10  23  43  61  87 127 159 212 276 316 373
#     4  11  21  36  58  91 131 168 206 243 308 379
#
# _framework density 19.495329999999999
#
# number of rings (size 3 to 8) (size 9 to 14) (size 15 to 20)
#    0.000    1.600    4.000    0.800    0.000    3.200 
#    0.000    0.667    0.000    0.000    0.000    0.000 
#    0.000    0.000    0.000    0.000    0.000    0.000 
#
# Total GULP energy -743768.827529 kJ/mol
# GULP energy per Si atom -12396.147125 kJ/mol
# Density = 1.945096 g / cm^3
# Si number density = 19.495330 Si / 1000 Ang^3
#
#
#
# Elastic Constant Matrix: (Units=GPa)
#
#
# Indices 1 2 3 4 5 6 
#
# 1 70.1298 26.7496 41.7699 0.0000 0.0000 0.0000
# 2 26.7496 86.7518 51.1329 0.0000 0.0000 0.0000
# 3 41.7699 51.1329 145.2639 0.0000 0.0000 0.0000
# 4 0.0000 0.0000 0.0000 30.2160 0.0000 0.0000
# 5 0.0000 0.0000 0.0000 0.0000 27.0899 0.0000
# 6 0.0000 0.0000 0.0000 0.0000 0.0000 19.5117
#
#
#
# Elastic Compliance Matrix: (Units=1/GPa)
#
#
# Indices 1 2 3 4 5 6 
#
# 1 0.017854 -0.003128 -0.004033 0.000000 0.000000 0.000000
# 2 -0.003128 0.015093 -0.004413 0.000000 0.000000 0.000000
# 3 -0.004033 -0.004413 0.009597 0.000000 0.000000 0.000000
# 4 0.000000 0.000000 0.000000 0.033095 0.000000 0.000000
# 5 0.000000 0.000000 0.000000 0.000000 0.036914 0.000000
# 6 0.000000 0.000000 0.000000 0.000000 0.000000 0.051251
#
#
# Mechanical properties :
#
#
# Convention : Reuss Voigt Hill
#
# Bulk Modulus (GPa) = 51.55743 60.16114 55.85929
# Shear Modulus (GPa) = 25.85064 27.52974 26.69019
#
# Velocity S-wave (km/s) = 3.64537 3.76190 3.70409
# Velocity P-wave (km/s) = 6.64994 7.05659 6.85628
#
# Compressibility (1/GPa) = 0.01939585
#
# Stress axis : x y z
#
# Youngs Moduli (GPa) = 56.00835 66.25605 104.19861
#
# Poissons Ratio (x) = 0.20727 0.42021
# Poissons Ratio (y) = 0.17522 0.45985
# Poissons Ratio (z) = 0.22587 0.29240
#
# Static dielectric constant tensor:
#      x y z
#    x 3.411310 0.000000 0.000000 
#    y 0.000000 3.564460 0.000000 
#    z 0.000000 0.000000 3.740810 
# 
# 
# High freq. dielectric constant tensor:
#      x y z
#    x 1.741550 0.000000 0.000000 
#    y 0.000000 1.758390 0.000000 
#    z 0.000000 0.000000 1.769300 
# 
# From -- ./inp_files/23660.got.cif
#   From: 2010.03.12/outbox.cif.g09.slc.cpg/sg73_12_cif.got.tgz:23660.got - 2010.04.16 15:25:48.
