data_PCOD8296610
_publ_section_title
;
Structure prediction by ZEFSAII (Michael W. Deem and Ramdas Pophale) SiO2 
 PCOD8296610
Probable space group: I B C A 
;
_chemical_formula_sum "Si O2"
_cell_formula_units_Z 88
_cell_length_a 17.861919
_cell_length_b 13.245313
_cell_length_c 17.769279
_cell_angle_alpha 90.000000
_cell_angle_beta 90.000000
_cell_angle_gamma 90.000000
_cell_volume 4203.975221
_symmetry_space_group_name_H-M "I B C A "
_symmetry_group_IT_number 73
_symmetry_cell_setting 'orthorhombic'
loop_
_space_group_symop_operation_xyz
x,y,z
-x,1/2-y,z
x,-y,1/2-z
1/2-x,y,-z
-x,-y,-z
x,1/2+y,-z
-x,y,1/2+z
1/2+x,-y,z
1/2+x,1/2+y,1/2+z
1/2-x,-y,1/2+z
1/2+x,1/2-y,-z
-x,1/2+y,1/2-z
1/2-x,1/2-y,1/2-z
1/2+x,y,1/2-z
1/2-x,1/2+y,z
x,1/2-y,1/2+z
loop_
_atom_site_type_symbol
_atom_site_label
_atom_site_fract_x
_atom_site_fract_y
_atom_site_fract_z
Si Si1 0.218657 0.799873 0.323776
Si Si2 0.187842 0.136612 0.556403
Si Si3 0.960122 0.000000 0.250000
Si Si4 0.949089 0.844459 0.843103
Si Si5 0.148942 0.931796 0.631344
Si Si6 0.423863 0.209769 0.008968
O O1 0.250000 0.750000 0.250000
O O2 0.226094 0.719207 0.390385
O O3 0.133677 0.833466 0.308642
O O4 0.268202 0.897400 0.344571
O O5 0.250000 0.091718 0.500000
O O6 0.122689 0.190038 0.509649
O O7 0.151989 0.047507 0.605084
O O8 0.907268 0.924299 0.202245
O O9 0.012894 0.943205 0.309166
O O10 0.000000 0.750000 0.819742
O O11 0.943066 0.853544 0.933453
O O12 0.120645 0.861833 0.564411
O O13 0.500000 0.250000 0.047471
#
# Coordination Sequence:
#
# PCOD8296610 Si02
#       6
#    16  16   8  16  16  16
#     4  11  24  44  69  99 134 178 226 278 340 406
#     4  11  24  42  67  98 134 175 225 282 339 401
#     4  12  26  44  62 100 136 180 220 280 352 410
#     4  10  23  44  66  90 138 174 218 279 338 403
#     4  12  25  43  70  98 139 175 226 287 341 409
#     4  10  23  45  68  99 130 178 225 279 338 407
#
# _framework density 20.932569000000001
#
# number of rings (size 3 to 8) (size 9 to 14) (size 15 to 20)
#    0.000    1.091    1.818    5.455    5.091    7.273 
#    0.000    0.000    0.000    0.000    0.000    0.000 
#    0.000    0.000    0.000    0.000    0.000    0.000 
#
# Total GULP energy -545805.920393 kJ/mol
# GULP energy per Si atom -12404.680009 kJ/mol
# Density = 2.088493 g / cm^3
# Si number density = 20.932569 Si / 1000 Ang^3
#
#
#
# Elastic Constant Matrix: (Units=GPa)
#
#
# Indices 1 2 3 4 5 6 
#
# 1 164.2911 50.1998 55.9562 0.0000 0.0000 0.0000
# 2 50.1998 97.3008 29.8517 0.0000 0.0000 0.0000
# 3 55.9562 29.8517 67.3006 0.0000 0.0000 0.0000
# 4 0.0000 0.0000 0.0000 25.1268 0.0000 0.0000
# 5 0.0000 0.0000 0.0000 0.0000 34.3049 0.0000
# 6 0.0000 0.0000 0.0000 0.0000 0.0000 34.2273
#
#
#
# Elastic Compliance Matrix: (Units=1/GPa)
#
#
# Indices 1 2 3 4 5 6 
#
# 1 0.009082 -0.002742 -0.006335 0.000000 0.000000 0.000000
# 2 -0.002742 0.012724 -0.003364 0.000000 0.000000 0.000000
# 3 -0.006335 -0.003364 0.021618 0.000000 0.000000 0.000000
# 4 0.000000 0.000000 0.000000 0.039798 0.000000 0.000000
# 5 0.000000 0.000000 0.000000 0.000000 0.029150 0.000000
# 6 0.000000 0.000000 0.000000 0.000000 0.000000 0.029216
#
#
# Mechanical properties :
#
#
# Convention : Reuss Voigt Hill
#
# Bulk Modulus (GPa) = 53.93120 66.76753 60.34936
# Shear Modulus (GPa) = 28.95986 31.59077 30.27532
#
# Velocity S-wave (km/s) = 3.72356 3.88902 3.80719
# Velocity P-wave (km/s) = 6.65633 7.22023 6.94400
#
# Compressibility (1/GPa) = 0.01854214
#
# Stress axis : x y z
#
# Youngs Moduli (GPa) = 110.10416 78.59022 46.25768
#
# Poissons Ratio (x) = 0.21551 0.29304
# Poissons Ratio (y) = 0.30193 0.15561
# Poissons Ratio (z) = 0.69752 0.26437
#
# Static dielectric constant tensor:
#      x y z
#    x 4.175350 0.000000 0.000000 
#    y 0.000000 3.592620 0.000000 
#    z 0.000000 0.000000 4.220790 
# 
# 
# High freq. dielectric constant tensor:
#      x y z
#    x 1.842210 0.000000 0.000000 
#    y 0.000000 1.809230 0.000000 
#    z 0.000000 0.000000 1.823070 
# 
# From -- ./inp_files/12730.got.cif
#   From: 2010.03.12/outbox.cif.g09.slc.cpg/sg73_7_cif.got.tgz:12730.got - 2010.04.16 15:25:48.
