data_PCOD8296017
_publ_section_title
;
Structure prediction by ZEFSAII (Michael W. Deem and Ramdas Pophale) SiO2 
 PCOD8296017
Probable space group: I B C A 
;
_chemical_formula_sum "Si O2"
_cell_formula_units_Z 96
_cell_length_a 23.775531
_cell_length_b 21.495333
_cell_length_c 9.860412
_cell_angle_alpha 90.000000
_cell_angle_beta 90.000000
_cell_angle_gamma 90.000000
_cell_volume 5039.291305
_symmetry_space_group_name_H-M "I B C A "
_symmetry_group_IT_number 73
_symmetry_cell_setting 'orthorhombic'
loop_
_space_group_symop_operation_xyz
x,y,z
-x,1/2-y,z
x,-y,1/2-z
1/2-x,y,-z
-x,-y,-z
x,1/2+y,-z
-x,y,1/2+z
1/2+x,-y,z
1/2+x,1/2+y,1/2+z
1/2-x,-y,1/2+z
1/2+x,1/2-y,-z
-x,1/2+y,1/2-z
1/2-x,1/2-y,1/2-z
1/2+x,y,1/2-z
1/2-x,1/2+y,z
x,1/2-y,1/2+z
loop_
_atom_site_type_symbol
_atom_site_label
_atom_site_fract_x
_atom_site_fract_y
_atom_site_fract_z
Si Si1 0.562713 0.958775 0.877832
Si Si2 0.342639 0.119056 0.251829
Si Si3 0.240583 0.454423 0.856303
Si Si4 0.350026 0.142597 0.560524
Si Si5 0.937400 0.543409 0.119275
Si Si6 0.790344 0.263349 0.872217
O O1 0.604654 0.904409 0.835775
O O2 0.500616 0.933864 0.919331
O O3 0.550579 0.000000 0.750000
O O4 0.588461 0.001726 0.997125
O O5 0.298051 0.064065 0.278818
O O6 0.360676 0.145634 0.398671
O O7 0.318498 0.170580 0.151642
O O8 0.208323 0.500000 0.750000
O O9 0.206658 0.392901 0.896300
O O10 0.250000 0.490221 0.000000
O O11 0.401577 0.107012 0.633802
O O12 0.340769 0.212658 0.613638
O O13 0.933155 0.500000 0.250000
O O14 0.750000 0.250000 0.750000
O O15 0.750000 0.264284 0.000000
#
# Coordination Sequence:
#
# PCOD8296017 Si02
#       6
#    16  16  16  16  16  16
#     4  10  20  40  66  92 122 166 199 246 321 373
#     4  11  22  39  63  85 122 167 207 247 310 371
#     4  10  21  34  55  88 122 155 199 253 308 368
#     4  11  21  40  61  85 124 163 204 257 307 358
#     4  10  22  38  65  96 125 156 206 257 308 373
#     4  12  23  42  61  87 124 170 210 248 303 367
#
# _framework density 19.050298000000002
#
# number of rings (size 3 to 8) (size 9 to 14) (size 15 to 20)
#    0.000    1.333    5.000    1.500    2.333    2.000 
#    0.000    0.833    0.000    2.000    0.000    0.000 
#    0.000    0.000    0.000    0.000    0.000    0.000 
#
# Total GULP energy -594961.684833 kJ/mol
# GULP energy per Si atom -12395.035101 kJ/mol
# Density = 1.900694 g / cm^3
# Si number density = 19.050298 Si / 1000 Ang^3
#
#
#
# Elastic Constant Matrix: (Units=GPa)
#
#
# Indices 1 2 3 4 5 6 
#
# 1 99.0834 50.6725 32.4702 0.0000 0.0000 0.0000
# 2 50.6725 101.8572 53.9405 0.0000 0.0000 0.0000
# 3 32.4702 53.9405 119.5103 0.0000 0.0000 0.0000
# 4 0.0000 0.0000 0.0000 32.5205 0.0000 0.0000
# 5 0.0000 0.0000 0.0000 0.0000 29.3589 0.0000
# 6 0.0000 0.0000 0.0000 0.0000 0.0000 40.7956
#
#
#
# Elastic Compliance Matrix: (Units=1/GPa)
#
#
# Indices 1 2 3 4 5 6 
#
# 1 0.013601 -0.006320 -0.000843 0.000000 0.000000 0.000000
# 2 -0.006320 0.015838 -0.005431 0.000000 0.000000 0.000000
# 3 -0.000843 -0.005431 0.011048 0.000000 0.000000 0.000000
# 4 0.000000 0.000000 0.000000 0.030750 0.000000 0.000000
# 5 0.000000 0.000000 0.000000 0.000000 0.034061 0.000000
# 6 0.000000 0.000000 0.000000 0.000000 0.000000 0.024512
#
#
# Mechanical properties :
#
#
# Convention : Reuss Voigt Hill
#
# Bulk Modulus (GPa) = 65.36540 66.06858 65.71699
# Shear Modulus (GPa) = 31.23094 32.75952 31.99523
#
# Velocity S-wave (km/s) = 4.05334 4.15134 4.10263
# Velocity P-wave (km/s) = 7.50284 7.59833 7.55073
#
# Compressibility (1/GPa) = 0.01529861
#
# Stress axis : x y z
#
# Youngs Moduli (GPa) = 73.52526 63.13936 90.51511
#
# Poissons Ratio (x) = 0.39903 0.07629
# Poissons Ratio (y) = 0.46467 0.49162
# Poissons Ratio (z) = 0.06197 0.34293
#
# Static dielectric constant tensor:
#      x y z
#    x 3.740300 0.000000 0.000000 
#    y 0.000000 3.227860 0.000000 
#    z 0.000000 0.000000 3.650250 
# 
# 
# High freq. dielectric constant tensor:
#      x y z
#    x 1.734670 0.000000 0.000000 
#    y 0.000000 1.718830 0.000000 
#    z 0.000000 0.000000 1.757370 
# 
# From -- ./inp_files/7172.got.cif
#   From: 2010.03.12/outbox.cif.g09.slc.cpg/sg73_4_cif.got.tgz:7172.got - 2010.04.16 15:25:48.
