data_PCOD8296715
_publ_section_title
;
Structure prediction by ZEFSAII (Michael W. Deem and Ramdas Pophale) SiO2 
 PCOD8296715
Probable space group: I B C A 
;
_chemical_formula_sum "Si O2"
_cell_formula_units_Z 80
_cell_length_a 10.535342
_cell_length_b 10.084109
_cell_length_c 30.293127
_cell_angle_alpha 90.000000
_cell_angle_beta 90.000000
_cell_angle_gamma 90.000000
_cell_volume 3218.327789
_symmetry_space_group_name_H-M "I B C A "
_symmetry_group_IT_number 73
_symmetry_cell_setting 'orthorhombic'
loop_
_space_group_symop_operation_xyz
x,y,z
-x,1/2-y,z
x,-y,1/2-z
1/2-x,y,-z
-x,-y,-z
x,1/2+y,-z
-x,y,1/2+z
1/2+x,-y,z
1/2+x,1/2+y,1/2+z
1/2-x,-y,1/2+z
1/2+x,1/2-y,-z
-x,1/2+y,1/2-z
1/2-x,1/2-y,1/2-z
1/2+x,y,1/2-z
1/2-x,1/2+y,z
x,1/2-y,1/2+z
loop_
_atom_site_type_symbol
_atom_site_label
_atom_site_fract_x
_atom_site_fract_y
_atom_site_fract_z
Si Si1 0.837675 0.072173 0.171318
Si Si2 0.500000 0.750000 0.535950
Si Si3 0.882163 0.999397 0.421124
Si Si4 0.500000 0.250000 0.779669
Si Si5 0.081677 0.413815 0.800763
Si Si6 0.500000 0.250000 0.626202
Si Si7 0.750000 0.631523 0.500000
O O1 0.877660 0.216452 0.190217
O O2 0.718666 0.013374 0.199135
O O3 0.805200 0.067294 0.119361
O O4 0.966912 0.992124 0.178169
O O5 0.481003 0.613979 0.563333
O O6 0.627159 0.725099 0.507435
O O7 0.780108 0.036464 0.458546
O O8 0.953601 0.132974 0.405771
O O9 0.453895 0.127960 0.749065
O O10 0.107714 0.295676 0.837325
#
# Coordination Sequence:
#
# PCOD8296715 Si02
#       7
#    16   8  16   8  16   8   8
#     4  11  25  43  73 105 150 196 258 319 384 475
#     4  12  28  50  80 118 152 212 262 332 398 488
#     4  11  26  47  77 112 156 203 267 317 403 460
#     4  11  23  42  69 107 146 198 259 317 382 472
#     4  10  24  44  70 108 150 201 253 319 398 459
#     4   9  23  46  73 105 160 204 251 333 386 470
#     4  12  28  48  82 116 162 200 270 336 404 480
#
# _framework density 24.857628999999999
#
# number of rings (size 3 to 8) (size 9 to 14) (size 15 to 20)
#    0.000    1.200    0.000    3.600    8.400    8.000 
#    0.000    0.000    0.000    0.000    0.000    0.000 
#    0.000    0.000    0.000    0.000    0.000    0.000 
#
# Total GULP energy -495553.763277 kJ/mol
# GULP energy per Si atom -12388.844082 kJ/mol
# Density = 2.480105 g / cm^3
# Si number density = 24.857629 Si / 1000 Ang^3
#
#
#
# Elastic Constant Matrix: (Units=GPa)
#
#
# Indices 1 2 3 4 5 6 
#
# 1 152.4776 23.0680 46.7354 0.0000 0.0000 0.0000
# 2 23.0680 94.8955 37.6849 0.0000 0.0000 0.0000
# 3 46.7354 37.6849 171.7455 0.0000 0.0000 0.0000
# 4 0.0000 0.0000 0.0000 21.0090 0.0000 0.0000
# 5 0.0000 0.0000 0.0000 0.0000 11.3001 0.0000
# 6 0.0000 0.0000 0.0000 0.0000 0.0000 33.9891
#
#
#
# Elastic Compliance Matrix: (Units=1/GPa)
#
#
# Indices 1 2 3 4 5 6 
#
# 1 0.007253 -0.001073 -0.001738 0.000000 0.000000 0.000000
# 2 -0.001073 0.011703 -0.002276 0.000000 0.000000 0.000000
# 3 -0.001738 -0.002276 0.006795 0.000000 0.000000 0.000000
# 4 0.000000 0.000000 0.000000 0.047599 0.000000 0.000000
# 5 0.000000 0.000000 0.000000 0.000000 0.088494 0.000000
# 6 0.000000 0.000000 0.000000 0.000000 0.000000 0.029421
#
#
# Mechanical properties :
#
#
# Convention : Reuss Voigt Hill
#
# Bulk Modulus (GPa) = 64.19838 70.45502 67.32670
# Shear Modulus (GPa) = 24.19764 34.03500 29.11632
#
# Velocity S-wave (km/s) = 3.12340 3.70428 3.42617
# Velocity P-wave (km/s) = 6.23618 6.83378 6.54181
#
# Compressibility (1/GPa) = 0.01557672
#
# Stress axis : x y z
#
# Youngs Moduli (GPa) = 137.86477 85.45182 147.16715
#
# Poissons Ratio (x) = 0.09168 0.25584
# Poissons Ratio (y) = 0.14791 0.33493
# Poissons Ratio (z) = 0.23966 0.19447
#
# Static dielectric constant tensor:
#      x y z
#    x 4.640960 0.000000 0.000000 
#    y 0.000000 5.065920 0.000000 
#    z 0.000000 0.000000 5.046710 
# 
# 
# High freq. dielectric constant tensor:
#      x y z
#    x 1.987390 0.000000 0.000000 
#    y 0.000000 1.996910 0.000000 
#    z 0.000000 0.000000 2.008540 
# 
# From -- ./inp_files/9827.got.cif
#   From: 2010.03.12/outbox.cif.g09.slc.cpg/sg73_5_cif.got.tgz:9827.got - 2010.04.16 15:25:48.
