data_PCOD8296708
_publ_section_title
;
Structure prediction by ZEFSAII (Michael W. Deem and Ramdas Pophale) SiO2 
 PCOD8296708
Probable space group: I B C A 
;
_chemical_formula_sum "Si O2"
_cell_formula_units_Z 104
_cell_length_a 9.089960
_cell_length_b 24.683865
_cell_length_c 20.553891
_cell_angle_alpha 90.000000
_cell_angle_beta 90.000000
_cell_angle_gamma 90.000000
_cell_volume 4611.786394
_symmetry_space_group_name_H-M "I B C A "
_symmetry_group_IT_number 73
_symmetry_cell_setting 'orthorhombic'
loop_
_space_group_symop_operation_xyz
x,y,z
-x,1/2-y,z
x,-y,1/2-z
1/2-x,y,-z
-x,-y,-z
x,1/2+y,-z
-x,y,1/2+z
1/2+x,-y,z
1/2+x,1/2+y,1/2+z
1/2-x,-y,1/2+z
1/2+x,1/2-y,-z
-x,1/2+y,1/2-z
1/2-x,1/2-y,1/2-z
1/2+x,y,1/2-z
1/2-x,1/2+y,z
x,1/2-y,1/2+z
loop_
_atom_site_type_symbol
_atom_site_label
_atom_site_fract_x
_atom_site_fract_y
_atom_site_fract_z
Si Si1 0.826066 0.625755 0.632673
Si Si2 0.750000 0.505438 0.000000
Si Si3 0.770220 0.294022 0.695208
Si Si4 0.000597 0.855331 0.247480
Si Si5 0.827221 0.264069 0.932835
Si Si6 0.993098 0.961478 0.586111
Si Si7 0.395459 0.459753 0.306471
O O1 0.861990 0.656069 0.699513
O O2 0.786122 0.672155 0.580530
O O3 0.981053 0.598166 0.613700
O O4 0.712190 0.576572 0.647553
O O5 0.625793 0.469430 0.034633
O O6 0.833643 0.542137 0.052616
O O7 0.750000 0.250000 0.750000
O O8 0.940111 0.317165 0.693685
O O9 0.652463 0.340656 0.713328
O O10 0.742621 0.272029 0.623500
O O11 0.999895 0.917914 0.268998
O O12 0.000000 0.250000 0.936573
O O13 0.750000 0.247819 0.000000
O O14 0.994523 0.006145 0.643250
O O15 0.325927 0.500000 0.250000
#
# Coordination Sequence:
#
# PCOD8296708 Si02
#       7
#    16   8  16  16  16  16  16
#     4  12  25  44  69 105 145 190 228 302 366 428
#     4  10  24  44  68  94 136 202 240 284 348 426
#     4  12  23  46  74 105 140 184 244 299 367 432
#     4  12  24  42  76 105 141 185 235 297 373 429
#     4  12  28  51  75 105 146 190 247 311 370 440
#     4  11  24  45  69  99 145 187 245 290 351 426
#     4  12  26  41  72 114 148 184 237 301 358 432
#
# _framework density 22.550913999999999
#
# number of rings (size 3 to 8) (size 9 to 14) (size 15 to 20)
#    0.000    0.308    7.692    0.462    3.231    3.692 
#    1.385    0.000    0.000    0.000    0.000    0.000 
#    0.000    0.000    0.000    0.000    0.000    0.000 
#
# Total GULP energy -644188.582658 kJ/mol
# GULP energy per Si atom -12388.241974 kJ/mol
# Density = 2.249959 g / cm^3
# Si number density = 22.550914 Si / 1000 Ang^3
#
#
#
# Elastic Constant Matrix: (Units=GPa)
#
#
# Indices 1 2 3 4 5 6 
#
# 1 68.5392 35.2180 41.4611 0.0000 0.0000 0.0000
# 2 35.2180 115.3769 48.5821 0.0000 0.0000 0.0000
# 3 41.4611 48.5821 137.1366 -0.0001 0.0000 0.0000
# 4 0.0000 0.0000 -0.0001 27.9404 0.0000 0.0000
# 5 0.0000 0.0000 0.0000 0.0000 50.0340 0.0000
# 6 0.0000 0.0000 0.0000 0.0000 0.0000 38.3741
#
#
#
# Elastic Compliance Matrix: (Units=1/GPa)
#
#
# Indices 1 2 3 4 5 6 
#
# 1 0.019338 -0.004044 -0.004414 0.000000 0.000000 0.000000
# 2 -0.004044 0.011033 -0.002686 0.000000 0.000000 0.000000
# 3 -0.004414 -0.002686 0.009578 0.000000 0.000000 0.000000
# 4 0.000000 0.000000 0.000000 0.035791 0.000000 0.000000
# 5 0.000000 0.000000 0.000000 0.000000 0.019986 0.000000
# 6 0.000000 0.000000 0.000000 0.000000 0.000000 0.026059
#
#
# Mechanical properties :
#
#
# Convention : Reuss Voigt Hill
#
# Bulk Modulus (GPa) = 56.62170 63.50833 60.06502
# Shear Modulus (GPa) = 33.34224 36.32247 34.83235
#
# Velocity S-wave (km/s) = 3.84934 4.01769 3.93442
# Velocity P-wave (km/s) = 6.70220 7.05307 6.87987
#
# Compressibility (1/GPa) = 0.01766107
#
# Stress axis : x y z
#
# Youngs Moduli (GPa) = 51.71061 90.64028 104.40694
#
# Poissons Ratio (x) = 0.36658 0.46084
# Poissons Ratio (y) = 0.20913 0.28040
# Poissons Ratio (z) = 0.22825 0.24343
#
# Static dielectric constant tensor:
#      x y z
#    x 4.344360 0.000000 0.000000 
#    y 0.000000 4.319200 0.000000 
#    z 0.000000 0.000000 4.426210 
# 
# 
# High freq. dielectric constant tensor:
#      x y z
#    x 1.885610 0.000000 0.000000 
#    y 0.000000 1.892620 0.000000 
#    z 0.000000 0.000000 1.898730 
# 
# From -- ./inp_files/24949.got.cif
#   From: 2010.03.12/outbox.cif.g09.slc.cpg/sg73_13_cif.got.tgz:24949.got - 2010.04.16 15:25:48.
