data_PCOD8296302
_publ_section_title
;
Structure prediction by ZEFSAII (Michael W. Deem and Ramdas Pophale) SiO2 
 PCOD8296302
Probable space group: I B C A 
;
_chemical_formula_sum "Si O2"
_cell_formula_units_Z 88
_cell_length_a 13.862392
_cell_length_b 17.093458
_cell_length_c 17.426784
_cell_angle_alpha 90.000000
_cell_angle_beta 90.000000
_cell_angle_gamma 90.000000
_cell_volume 4129.384784
_symmetry_space_group_name_H-M "I B C A "
_symmetry_group_IT_number 73
_symmetry_cell_setting 'orthorhombic'
loop_
_space_group_symop_operation_xyz
x,y,z
-x,1/2-y,z
x,-y,1/2-z
1/2-x,y,-z
-x,-y,-z
x,1/2+y,-z
-x,y,1/2+z
1/2+x,-y,z
1/2+x,1/2+y,1/2+z
1/2-x,-y,1/2+z
1/2+x,1/2-y,-z
-x,1/2+y,1/2-z
1/2-x,1/2-y,1/2-z
1/2+x,y,1/2-z
1/2-x,1/2+y,z
x,1/2-y,1/2+z
loop_
_atom_site_type_symbol
_atom_site_label
_atom_site_fract_x
_atom_site_fract_y
_atom_site_fract_z
Si Si1 0.500000 0.250000 0.424060
Si Si2 0.006899 0.385491 0.695206
Si Si3 0.829561 0.000000 0.750000
Si Si4 0.750000 0.417298 0.500000
Si Si5 0.108095 0.194376 0.435665
Si Si6 0.837073 0.507247 0.863914
Si Si7 0.576815 0.843407 0.851429
O O1 0.471279 0.325138 0.373108
O O2 0.409047 0.228570 0.478385
O O3 0.105317 0.427844 0.720971
O O4 0.931409 0.452320 0.670715
O O5 0.961130 0.336417 0.764764
O O6 0.760008 0.030237 0.818140
O O7 0.803020 0.364079 0.437013
O O8 0.825568 0.469569 0.547052
O O9 0.131350 0.263170 0.374550
O O10 0.013363 0.146614 0.409297
O O11 0.849792 0.414356 0.860792
#
# Coordination Sequence:
#
# PCOD8296302 Si02
#       7
#     8  16   8   8  16  16  16
#     4  10  22  42  66  96 128 182 216 260 346 392
#     4  12  22  44  70  95 135 172 221 281 330 397
#     4  12  24  42  70 100 132 176 224 282 330 388
#     4  12  26  42  64 104 138 174 220 272 332 400
#     4  10  24  43  66  95 137 177 216 273 330 403
#     4  12  25  43  67 103 134 171 227 275 331 399
#     4  10  21  44  68  93 132 176 221 273 333 387
#
# _framework density 21.310680000000001
#
# number of rings (size 3 to 8) (size 9 to 14) (size 15 to 20)
#    0.000    1.091    5.455    2.182    0.000    5.818 
#    0.000    1.818    0.000    0.000    0.000    0.000 
#    0.000    0.000    0.000    0.000    0.000    0.000 
#
# Total GULP energy -545634.443560 kJ/mol
# GULP energy per Si atom -12400.782808 kJ/mol
# Density = 2.126218 g / cm^3
# Si number density = 21.310680 Si / 1000 Ang^3
#
#
#
# Elastic Constant Matrix: (Units=GPa)
#
#
# Indices 1 2 3 4 5 6 
#
# 1 79.7296 31.1072 27.5311 0.0000 0.0000 0.0000
# 2 31.1072 86.9455 46.7734 0.0000 0.0000 0.0000
# 3 27.5311 46.7734 115.1464 0.0000 0.0000 0.0000
# 4 0.0000 0.0000 0.0000 43.2193 0.0000 0.0000
# 5 0.0000 0.0000 0.0000 0.0000 30.5272 0.0000
# 6 0.0000 0.0000 0.0000 0.0000 0.0000 25.8020
#
#
#
# Elastic Compliance Matrix: (Units=1/GPa)
#
#
# Indices 1 2 3 4 5 6 
#
# 1 0.014858 -0.004357 -0.001783 0.000000 0.000000 0.000000
# 2 -0.004357 0.015995 -0.005456 0.000000 0.000000 0.000000
# 3 -0.001783 -0.005456 0.011327 0.000000 0.000000 0.000000
# 4 0.000000 0.000000 0.000000 0.023138 0.000000 0.000000
# 5 0.000000 0.000000 0.000000 0.000000 0.032758 0.000000
# 6 0.000000 0.000000 0.000000 0.000000 0.000000 0.038757
#
#
# Mechanical properties :
#
#
# Convention : Reuss Voigt Hill
#
# Bulk Modulus (GPa) = 52.66026 54.73833 53.69929
# Shear Modulus (GPa) = 30.05670 31.67036 30.86353
#
# Velocity S-wave (km/s) = 3.75961 3.85921 3.80974
# Velocity P-wave (km/s) = 6.60383 6.75275 6.67871
#
# Compressibility (1/GPa) = 0.01898965
#
# Stress axis : x y z
#
# Youngs Moduli (GPa) = 67.30475 62.51892 88.28485
#
# Poissons Ratio (x) = 0.27238 0.15738
# Poissons Ratio (y) = 0.29323 0.48165
# Poissons Ratio (z) = 0.11998 0.34108
#
# Static dielectric constant tensor:
#      x y z
#    x 3.639870 0.000000 0.000000 
#    y 0.000000 3.849830 0.000000 
#    z 0.000000 0.000000 4.050950 
# 
# 
# High freq. dielectric constant tensor:
#      x y z
#    x 1.819280 0.000000 0.000000 
#    y 0.000000 1.839320 0.000000 
#    z 0.000000 0.000000 1.850040 
# 
# From -- ./inp_files/21975.got.cif
#   From: 2010.03.12/outbox.cif.g09.slc.cpg/sg73_11_cif.got.tgz:21975.got - 2010.04.16 15:25:48.
