data_PCOD8296042
_publ_section_title
;
Structure prediction by ZEFSAII (Michael W. Deem and Ramdas Pophale) SiO2 
 PCOD8296042
Probable space group: I B C A 
;
_chemical_formula_sum "Si O2"
_cell_formula_units_Z 72
_cell_length_a 13.907581
_cell_length_b 26.035570
_cell_length_c 8.899963
_cell_angle_alpha 90.000000
_cell_angle_beta 90.000000
_cell_angle_gamma 90.000000
_cell_volume 3222.603611
_symmetry_space_group_name_H-M "I B C A "
_symmetry_group_IT_number 73
_symmetry_cell_setting 'orthorhombic'
loop_
_space_group_symop_operation_xyz
x,y,z
-x,1/2-y,z
x,-y,1/2-z
1/2-x,y,-z
-x,-y,-z
x,1/2+y,-z
-x,y,1/2+z
1/2+x,-y,z
1/2+x,1/2+y,1/2+z
1/2-x,-y,1/2+z
1/2+x,1/2-y,-z
-x,1/2+y,1/2-z
1/2-x,1/2-y,1/2-z
1/2+x,y,1/2-z
1/2-x,1/2+y,z
x,1/2-y,1/2+z
loop_
_atom_site_type_symbol
_atom_site_label
_atom_site_fract_x
_atom_site_fract_y
_atom_site_fract_z
Si Si1 0.599109 0.809420 0.299997
Si Si2 0.721726 0.000000 0.250000
Si Si3 0.124397 0.935672 0.913413
Si Si4 0.500000 0.750000 0.051689
Si Si5 0.435180 0.073509 0.740491
Si Si6 0.250000 0.156524 0.500000
O O1 0.585645 0.770159 0.161249
O O2 0.533160 0.796202 0.444667
O O3 0.574638 0.865804 0.240321
O O4 0.707855 0.808331 0.364812
O O5 0.787844 0.026185 0.123190
O O6 0.652149 0.043913 0.326763
O O7 0.042144 0.941472 0.789005
O O8 0.075729 0.948467 0.071998
O O9 0.166357 0.877863 0.924591
#
# Coordination Sequence:
#
# PCOD8296042 Si02
#       6
#    16   8  16   8  16   8
#     4  10  20  41  64  97 128 172 209 277 326 389
#     4  12  22  40  66 100 130 178 224 264 322 402
#     4  11  23  43  65  96 134 182 217 269 328 393
#     4  10  22  38  70  94 126 166 226 264 336 398
#     4  11  24  42  69  96 138 178 218 275 332 388
#     4  10  20  42  66  90 136 170 218 270 336 384
#
# _framework density 22.342184
#
# number of rings (size 3 to 8) (size 9 to 14) (size 15 to 20)
#    0.000    1.333    4.444    3.333    0.000    6.222 
#    0.000    0.000    0.000    0.000    0.000    0.000 
#    0.000    0.000    0.000    0.000    0.000    0.000 
#
# Total GULP energy -446077.594759 kJ/mol
# GULP energy per Si atom -12391.044299 kJ/mol
# Density = 2.229133 g / cm^3
# Si number density = 22.342184 Si / 1000 Ang^3
#
#
#
# Elastic Constant Matrix: (Units=GPa)
#
#
# Indices 1 2 3 4 5 6 
#
# 1 140.8336 28.3080 29.4504 -0.0068 0.0023 -0.0007
# 2 28.3080 97.5899 15.2280 -0.0071 0.0030 -0.0006
# 3 29.4504 15.2280 53.9630 -0.0252 0.0110 0.0014
# 4 -0.0068 -0.0071 -0.0252 29.2876 0.0047 0.0000
# 5 0.0023 0.0030 0.0110 0.0047 31.3875 0.0005
# 6 -0.0007 -0.0006 0.0014 0.0000 0.0005 36.4207
#
#
#
# Elastic Compliance Matrix: (Units=1/GPa)
#
#
# Indices 1 2 3 4 5 6 
#
# 1 0.008301 -0.001779 -0.004028 -0.000002 0.000001 0.000000
# 2 -0.001779 0.011100 -0.002161 0.000000 0.000000 0.000000
# 3 -0.004028 -0.002161 0.021339 0.000017 -0.000007 -0.000001
# 4 -0.000002 0.000000 0.000017 0.034144 -0.000005 0.000000
# 5 0.000001 0.000000 -0.000007 -0.000005 0.031860 0.000000
# 6 0.000000 0.000000 -0.000001 0.000000 0.000000 0.027457
#
#
# Mechanical properties :
#
#
# Convention : Reuss Voigt Hill
#
# Bulk Modulus (GPa) = 40.31756 48.70660 44.51208
# Shear Modulus (GPa) = 31.56446 34.04584 32.80515
#
# Velocity S-wave (km/s) = 3.76277 3.90787 3.83600
# Velocity P-wave (km/s) = 6.07968 6.49689 6.29174
#
# Compressibility (1/GPa) = 0.02480309
#
# Stress axis : x y z
#
# Youngs Moduli (GPa) = 120.47456 90.08742 46.86164
#
# Poissons Ratio (x) = 0.16028 0.18876
# Poissons Ratio (y) = 0.21435 0.10129
# Poissons Ratio (z) = 0.48526 0.19472
#
# Static dielectric constant tensor:
#      x y z
#    x 4.288160 0.000000 0.000000 
#    y 0.000000 4.084220 0.000000 
#    z 0.000000 0.000000 4.019000 
# 
# 
# High freq. dielectric constant tensor:
#      x y z
#    x 1.883870 0.000000 0.000000 
#    y 0.000000 1.882490 0.000000 
#    z 0.000000 0.000000 1.867750 
# 
# From -- ./inp_files/4857.got.cif
#   From: 2010.03.12/outbox.cif.g09.slc.cpg/sg73_3_cif.got.tgz:4857.got - 2010.04.16 15:25:48.
