data_PCOD8296706
_publ_section_title
;
Structure prediction by ZEFSAII (Michael W. Deem and Ramdas Pophale) SiO2 
 PCOD8296706
Probable space group: I B C A 
;
_chemical_formula_sum "Si O2"
_cell_formula_units_Z 88
_cell_length_a 11.867277
_cell_length_b 18.807866
_cell_length_c 17.942313
_cell_angle_alpha 90.000000
_cell_angle_beta 90.000000
_cell_angle_gamma 90.000000
_cell_volume 4004.691169
_symmetry_space_group_name_H-M "I B C A "
_symmetry_group_IT_number 73
_symmetry_cell_setting 'orthorhombic'
loop_
_space_group_symop_operation_xyz
x,y,z
-x,1/2-y,z
x,-y,1/2-z
1/2-x,y,-z
-x,-y,-z
x,1/2+y,-z
-x,y,1/2+z
1/2+x,-y,z
1/2+x,1/2+y,1/2+z
1/2-x,-y,1/2+z
1/2+x,1/2-y,-z
-x,1/2+y,1/2-z
1/2-x,1/2-y,1/2-z
1/2+x,y,1/2-z
1/2-x,1/2+y,z
x,1/2-y,1/2+z
loop_
_atom_site_type_symbol
_atom_site_label
_atom_site_fract_x
_atom_site_fract_y
_atom_site_fract_z
Si Si1 0.750000 0.370746 0.500000
Si Si2 0.136815 0.448303 0.313283
Si Si3 0.539749 0.452823 0.433912
Si Si4 0.809898 0.877234 0.922367
Si Si5 0.094527 0.697629 0.245407
Si Si6 0.260950 0.769484 0.871469
O O1 0.655486 0.416361 0.458786
O O2 0.805467 0.323076 0.434815
O O3 0.185940 0.500000 0.250000
O O4 0.055130 0.495321 0.364061
O O5 0.244256 0.417217 0.356489
O O6 0.062566 0.383363 0.277351
O O7 0.500000 0.500000 0.500000
O O8 0.441807 0.396158 0.417204
O O9 0.809591 0.792769 0.911309
O O10 0.750000 0.899107 0.000000
O O11 0.132317 0.736333 0.169592
O O12 0.187931 0.689366 0.309482
O O13 0.000000 0.750000 0.278806
#
# Coordination Sequence:
#
# PCOD8296706 Si02
#       6
#     8  16  16  16  16  16
#     4  12  26  42  72 108 138 178 242 282 356 422
#     4  11  25  46  68 105 143 191 238 295 368 433
#     4  12  26  43  70 102 144 188 234 294 352 435
#     4  11  23  46  69 102 144 182 241 293 357 423
#     4  10  24  45  70  97 142 181 238 290 354 420
#     4  10  24  44  68 103 134 181 231 295 347 420
#
# _framework density 21.974229000000001
#
# number of rings (size 3 to 8) (size 9 to 14) (size 15 to 20)
#    0.000    1.091    2.727    2.182    7.636    0.727 
#    3.273    0.000    0.000    0.000    0.000    0.000 
#    0.000    0.000    0.000    0.000    0.000    0.000 
#
# Total GULP energy -545541.960663 kJ/mol
# GULP energy per Si atom -12398.680924 kJ/mol
# Density = 2.192421 g / cm^3
# Si number density = 21.974229 Si / 1000 Ang^3
#
#
#
# Elastic Constant Matrix: (Units=GPa)
#
#
# Indices 1 2 3 4 5 6 
#
# 1 74.7948 31.5804 4.2367 0.0000 0.0000 0.0000
# 2 31.5804 131.2898 51.3994 0.0000 0.0000 0.0000
# 3 4.2367 51.3994 109.3262 0.0000 0.0000 0.0000
# 4 0.0000 0.0000 0.0000 50.2814 0.0000 0.0000
# 5 0.0000 0.0000 0.0000 0.0000 24.2386 0.0000
# 6 0.0000 0.0000 0.0000 0.0000 0.0000 26.7286
#
#
#
# Elastic Compliance Matrix: (Units=1/GPa)
#
#
# Indices 1 2 3 4 5 6 
#
# 1 0.015047 -0.004156 0.001371 0.000000 0.000000 0.000000
# 2 -0.004156 0.010483 -0.004767 0.000000 0.000000 0.000000
# 3 0.001371 -0.004767 0.011335 0.000000 0.000000 0.000000
# 4 0.000000 0.000000 0.000000 0.019888 0.000000 0.000000
# 5 0.000000 0.000000 0.000000 0.000000 0.041257 0.000000
# 6 0.000000 0.000000 0.000000 0.000000 0.000000 0.037413
#
#
# Mechanical properties :
#
#
# Convention : Reuss Voigt Hill
#
# Bulk Modulus (GPa) = 45.95629 54.42710 50.19169
# Shear Modulus (GPa) = 31.68941 35.46268 33.57604
#
# Velocity S-wave (km/s) = 3.80164 4.02161 3.91317
# Velocity P-wave (km/s) = 6.34264 6.81079 6.58088
#
# Compressibility (1/GPa) = 0.02175981
#
# Stress axis : x y z
#
# Youngs Moduli (GPa) = 66.45811 95.39370 88.22068
#
# Poissons Ratio (x) = 0.39647 -0.12094
# Poissons Ratio (y) = 0.27621 0.42059
# Poissons Ratio (z) = -0.09110 0.45478
#
# Static dielectric constant tensor:
#      x y z
#    x 3.464650 0.000000 0.000000 
#    y 0.000000 4.181190 0.000000 
#    z 0.000000 0.000000 4.254980 
# 
# 
# High freq. dielectric constant tensor:
#      x y z
#    x 1.835190 0.000000 0.000000 
#    y 0.000000 1.882980 0.000000 
#    z 0.000000 0.000000 1.886750 
# 
# From -- ./inp_files/11862.got.cif
#   From: 2010.03.12/outbox.cif.g09.slc.cpg/sg73_6_cif.got.tgz:11862.got - 2010.04.16 15:25:48.
