data_PCOD8296326
_publ_section_title
;
Structure prediction by ZEFSAII (Michael W. Deem and Ramdas Pophale) SiO2 
 PCOD8296326
Probable space group: I B C A 
;
_chemical_formula_sum "Si O2"
_cell_formula_units_Z 120
_cell_length_a 16.500585
_cell_length_b 20.967570
_cell_length_c 16.356591
_cell_angle_alpha 90.000000
_cell_angle_beta 90.000000
_cell_angle_gamma 90.000000
_cell_volume 5659.007082
_symmetry_space_group_name_H-M "I B C A "
_symmetry_group_IT_number 73
_symmetry_cell_setting 'orthorhombic'
loop_
_space_group_symop_operation_xyz
x,y,z
-x,1/2-y,z
x,-y,1/2-z
1/2-x,y,-z
-x,-y,-z
x,1/2+y,-z
-x,y,1/2+z
1/2+x,-y,z
1/2+x,1/2+y,1/2+z
1/2-x,-y,1/2+z
1/2+x,1/2-y,-z
-x,1/2+y,1/2-z
1/2-x,1/2-y,1/2-z
1/2+x,y,1/2-z
1/2-x,1/2+y,z
x,1/2-y,1/2+z
loop_
_atom_site_type_symbol
_atom_site_label
_atom_site_fract_x
_atom_site_fract_y
_atom_site_fract_z
Si Si1 0.574583 0.010218 0.560885
Si Si2 0.110701 0.613428 0.800835
Si Si3 0.787897 0.799144 0.685519
Si Si4 0.157388 0.122707 0.018724
Si Si5 0.791364 0.500000 0.250000
Si Si6 0.448071 0.397861 0.711128
Si Si7 0.918279 0.716367 0.603212
Si Si8 0.821949 0.415085 0.657229
O O1 0.640777 0.050578 0.510671
O O2 0.541265 0.048999 0.640172
O O3 0.500000 0.000000 0.500000
O O4 0.617326 0.942278 0.586477
O O5 0.146992 0.658873 0.732641
O O6 0.128315 0.640504 0.890418
O O7 0.154376 0.546618 0.801954
O O8 0.017250 0.600274 0.780242
O O9 0.750000 0.750000 0.750000
O O10 0.840725 0.762261 0.617674
O O11 0.720108 0.845183 0.641031
O O12 0.250000 0.139221 0.000000
O O13 0.101217 0.169192 0.968749
O O14 0.744976 0.468188 0.325927
O O15 0.441160 0.325036 0.682415
O O16 0.364370 0.412487 0.754983
O O17 0.000000 0.750000 0.574549
#
# Coordination Sequence:
#
# PCOD8296326 Si02
#       8
#    16  16  16  16   8  16  16  16
#     4  11  24  42  64  98 146 179 220 285 356 420
#     4  11  24  40  68 101 124 175 230 274 340 417
#     4  11  22  41  72  97 128 171 237 287 334 407
#     4  11  25  44  68  96 136 182 220 276 365 412
#     4  10  22  36  66  98 132 158 226 280 326 406
#     4  11  22  40  68  95 135 178 227 280 343 404
#     4  11  23  47  64  97 141 178 222 292 348 405
#     4  11  21  39  67  99 129 179 228 275 346 412
#
# _framework density 21.205134000000001
#
# number of rings (size 3 to 8) (size 9 to 14) (size 15 to 20)
#    0.000    1.067    4.000    2.400    7.467    0.000 
#    2.400    4.000    0.000    0.000    0.000    0.000 
#    0.000    0.000    0.000    0.000    0.000    0.000 
#
# Total GULP energy -743667.987097 kJ/mol
# GULP energy per Si atom -12394.466452 kJ/mol
# Density = 2.115687 g / cm^3
# Si number density = 21.205134 Si / 1000 Ang^3
#
#
#
# Elastic Constant Matrix: (Units=GPa)
#
#
# Indices 1 2 3 4 5 6 
#
# 1 114.5547 47.7596 36.1900 0.0000 0.0000 0.0000
# 2 47.7596 98.4191 7.5673 0.0000 0.0000 0.0000
# 3 36.1900 7.5673 72.3782 0.0001 0.0001 0.0000
# 4 0.0000 0.0000 0.0001 19.9442 0.0001 0.0000
# 5 0.0000 0.0000 0.0001 0.0001 34.7200 0.0000
# 6 0.0000 0.0000 0.0000 0.0000 0.0000 63.6504
#
#
#
# Elastic Compliance Matrix: (Units=1/GPa)
#
#
# Indices 1 2 3 4 5 6 
#
# 1 0.013046 -0.005877 -0.005909 0.000000 0.000000 0.000000
# 2 -0.005877 0.012890 0.001591 0.000000 0.000000 0.000000
# 3 -0.005909 0.001591 0.016605 0.000000 0.000000 0.000000
# 4 0.000000 0.000000 0.000000 0.050140 0.000000 0.000000
# 5 0.000000 0.000000 0.000000 0.000000 0.028802 0.000000
# 6 0.000000 0.000000 0.000000 0.000000 0.000000 0.015711
#
#
# Mechanical properties :
#
#
# Convention : Reuss Voigt Hill
#
# Bulk Modulus (GPa) = 45.14420 52.04288 48.59354
# Shear Modulus (GPa) = 30.30916 36.58526 33.44721
#
# Velocity S-wave (km/s) = 3.78475 4.15818 3.97585
# Velocity P-wave (km/s) = 6.35882 6.90289 6.63643
#
# Compressibility (1/GPa) = 0.02215124
#
# Stress axis : x y z
#
# Youngs Moduli (GPa) = 76.65052 77.57928 60.22461
#
# Poissons Ratio (x) = 0.45590 0.35586
# Poissons Ratio (y) = 0.45044 -0.09580
# Poissons Ratio (z) = 0.45292 -0.12341
#
# Static dielectric constant tensor:
#      x y z
#    x 3.952250 0.000000 0.000000 
#    y 0.000000 4.233250 0.000000 
#    z 0.000000 0.000000 3.628470 
# 
# 
# High freq. dielectric constant tensor:
#      x y z
#    x 1.845070 0.000000 0.000000 
#    y 0.000000 1.840580 0.000000 
#    z 0.000000 0.000000 1.815700 
# 
# From -- ./inp_files/18263.got.cif
#   From: 2010.03.12/outbox.cif.g09.slc.cpg/sg73_10_cif.got.tgz:18263.got - 2010.04.16 15:25:48.
