data_PCOD8296180
_publ_section_title
;
Structure prediction by ZEFSAII (Michael W. Deem and Ramdas Pophale) SiO2 
 PCOD8296180
Probable space group: I B C A 
;
_chemical_formula_sum "Si O2"
_cell_formula_units_Z 112
_cell_length_a 17.081935
_cell_length_b 17.526010
_cell_length_c 19.406437
_cell_angle_alpha 90.000000
_cell_angle_beta 90.000000
_cell_angle_gamma 90.000000
_cell_volume 5809.863472
_symmetry_space_group_name_H-M "I B C A "
_symmetry_group_IT_number 73
_symmetry_cell_setting 'orthorhombic'
loop_
_space_group_symop_operation_xyz
x,y,z
-x,1/2-y,z
x,-y,1/2-z
1/2-x,y,-z
-x,-y,-z
x,1/2+y,-z
-x,y,1/2+z
1/2+x,-y,z
1/2+x,1/2+y,1/2+z
1/2-x,-y,1/2+z
1/2+x,1/2-y,-z
-x,1/2+y,1/2-z
1/2-x,1/2-y,1/2-z
1/2+x,y,1/2-z
1/2-x,1/2+y,z
x,1/2-y,1/2+z
loop_
_atom_site_type_symbol
_atom_site_label
_atom_site_fract_x
_atom_site_fract_y
_atom_site_fract_z
Si Si1 0.601364 0.053114 0.049909
Si Si2 0.177879 0.564385 0.134846
Si Si3 0.968883 0.333351 0.707320
Si Si4 0.672713 0.713973 0.281870
Si Si5 0.597530 0.869915 0.310208
Si Si6 0.250000 0.520656 0.000000
Si Si7 0.459845 0.455810 0.905898
Si Si8 0.209514 0.000000 0.250000
O O1 0.589059 0.115592 0.108689
O O2 0.691879 0.029102 0.047435
O O3 0.544724 0.984292 0.070984
O O4 0.581731 0.081106 0.972740
O O5 0.181146 0.652289 0.157796
O O6 0.203843 0.571201 0.055269
O O7 0.093443 0.520743 0.132359
O O8 0.236407 0.518078 0.184469
O O9 0.876303 0.329104 0.722492
O O10 0.980442 0.386539 0.642745
O O11 0.000000 0.250000 0.688038
O O12 0.013856 0.372055 0.771988
O O13 0.750000 0.750000 0.250000
O O14 0.623990 0.783301 0.311174
O O15 0.656125 0.927652 0.270756
#
# Coordination Sequence:
#
# PCOD8296180 Si02
#       8
#    16  16  16  16  16   8  16   8
#     4  10  21  39  61  90 122 164 206 267 313 388
#     4  11  22  38  61  90 119 166 207 263 315 387
#     4  10  23  40  61  91 124 162 205 265 322 389
#     4  11  23  39  58  89 129 160 208 269 322 381
#     4  11  22  38  62  90 121 161 210 258 323 383
#     4  10  22  38  60  88 128 156 214 256 320 382
#     4  10  22  40  63  89 124 161 215 259 323 385
#     4  12  20  34  70  90 112 164 216 260 324 380
#
# _framework density 19.277562
#
# number of rings (size 3 to 8) (size 9 to 14) (size 15 to 20)
#    0.000    1.429    2.857    2.571    0.000    1.143 
#    0.000    8.571    0.000    0.000    0.000    0.000 
#    0.000    0.000    0.000    0.000    0.000    0.000 
#
# Total GULP energy -694002.105299 kJ/mol
# GULP energy per Si atom -12392.894737 kJ/mol
# Density = 1.923369 g / cm^3
# Si number density = 19.277562 Si / 1000 Ang^3
#
#
#
# Elastic Constant Matrix: (Units=GPa)
#
#
# Indices 1 2 3 4 5 6 
#
# 1 112.1081 28.7057 39.1826 0.0000 0.0000 0.0000
# 2 28.7057 87.2070 54.7044 0.0000 0.0000 0.0000
# 3 39.1826 54.7044 123.1373 0.0000 0.0000 0.0000
# 4 0.0000 0.0000 0.0000 16.2716 0.0000 0.0000
# 5 0.0000 0.0000 0.0000 0.0000 26.9857 0.0000
# 6 0.0000 0.0000 0.0000 0.0000 0.0000 23.4265
#
#
#
# Elastic Compliance Matrix: (Units=1/GPa)
#
#
# Indices 1 2 3 4 5 6 
#
# 1 0.010245 -0.001840 -0.002442 0.000000 0.000000 0.000000
# 2 -0.001840 0.016228 -0.006624 0.000000 0.000000 0.000000
# 3 -0.002442 -0.006624 0.011841 0.000000 0.000000 0.000000
# 4 0.000000 0.000000 0.000000 0.061457 0.000000 0.000000
# 5 0.000000 0.000000 0.000000 0.000000 0.037057 0.000000
# 6 0.000000 0.000000 0.000000 0.000000 0.000000 0.042687
#
#
# Mechanical properties :
#
#
# Convention : Reuss Voigt Hill
#
# Bulk Modulus (GPa) = 60.60324 63.07087 61.83706
# Shear Modulus (GPa) = 24.17490 26.66075 25.41783
#
# Velocity S-wave (km/s) = 3.54509 3.72290 3.63508
# Velocity P-wave (km/s) = 6.94711 7.16018 7.05445
#
# Compressibility (1/GPa) = 0.01650077
#
# Stress axis : x y z
#
# Youngs Moduli (GPa) = 97.61072 61.62310 84.45360
#
# Poissons Ratio (x) = 0.11339 0.20627
# Poissons Ratio (y) = 0.17962 0.55940
# Poissons Ratio (z) = 0.23841 0.40817
#
# Static dielectric constant tensor:
#      x y z
#    x 3.908300 0.000000 0.000000 
#    y 0.000000 3.425580 0.000000 
#    z 0.000000 0.000000 3.683420 
# 
# 
# High freq. dielectric constant tensor:
#      x y z
#    x 1.768430 0.000000 0.000000 
#    y 0.000000 1.736510 0.000000 
#    z 0.000000 0.000000 1.757660 
# 
# From -- ./inp_files/26628.got.cif
#   From: 2010.03.12/outbox.cif.g09.slc.cpg/sg73_14_cif.got.tgz:26628.got - 2010.04.16 15:25:48.
