data_PCOD8296890
_publ_section_title
;
Structure prediction by ZEFSAII (Michael W. Deem and Ramdas Pophale) SiO2 
 PCOD8296890
Probable space group: I B C A 
;
_chemical_formula_sum "Si O2"
_cell_formula_units_Z 104
_cell_length_a 21.949683
_cell_length_b 22.954735
_cell_length_c 9.108375
_cell_angle_alpha 90.000000
_cell_angle_beta 90.000000
_cell_angle_gamma 90.000000
_cell_volume 4589.247062
_symmetry_space_group_name_H-M "I B C A "
_symmetry_group_IT_number 73
_symmetry_cell_setting 'orthorhombic'
loop_
_space_group_symop_operation_xyz
x,y,z
-x,1/2-y,z
x,-y,1/2-z
1/2-x,y,-z
-x,-y,-z
x,1/2+y,-z
-x,y,1/2+z
1/2+x,-y,z
1/2+x,1/2+y,1/2+z
1/2-x,-y,1/2+z
1/2+x,1/2-y,-z
-x,1/2+y,1/2-z
1/2-x,1/2-y,1/2-z
1/2+x,y,1/2-z
1/2-x,1/2+y,z
x,1/2-y,1/2+z
loop_
_atom_site_type_symbol
_atom_site_label
_atom_site_fract_x
_atom_site_fract_y
_atom_site_fract_z
Si Si1 0.437760 0.217518 0.786375
Si Si2 0.152055 0.541769 0.979779
Si Si3 0.539063 0.585878 0.680041
Si Si4 0.250000 0.146569 0.500000
Si Si5 0.623983 0.696155 0.012527
Si Si6 0.736366 0.563297 0.278680
Si Si7 0.420224 0.569483 0.513343
O O1 0.500000 0.250000 0.804418
O O2 0.452639 0.154167 0.848665
O O3 0.418070 0.215416 0.619969
O O4 0.384289 0.253026 0.868133
O O5 0.085199 0.561378 0.939356
O O6 0.195965 0.550074 0.840131
O O7 0.138364 0.473928 0.026586
O O8 0.184983 0.583035 0.102450
O O9 0.474197 0.558541 0.631304
O O10 0.553571 0.567507 0.846766
O O11 0.194751 0.190772 0.470470
O O12 0.240417 0.106791 0.643247
O O13 0.604496 0.632053 0.063750
O O14 0.708803 0.500000 0.250000
#
# Coordination Sequence:
#
# PCOD8296890 Si02
#       7
#    16  16  16   8  16  16  16
#     4  11  23  44  70  97 133 179 233 283 351 414
#     4  11  24  42  65  97 136 183 224 279 345 419
#     4  11  24  40  65  98 138 178 229 294 349 413
#     4  12  26  46  68 106 138 178 238 296 346 408
#     4  11  25  43  70  99 136 180 233 291 343 415
#     4  11  22  41  67  91 134 182 226 273 340 416
#     4  11  23  41  65 100 139 181 233 287 347 416
#
# _framework density 22.661670000000001
#
# number of rings (size 3 to 8) (size 9 to 14) (size 15 to 20)
#    0.000    0.923    1.538    6.923    2.154    4.308 
#    0.000    1.538    0.000    0.000    0.000    0.000 
#    0.000    0.000    0.000    0.000    0.000    0.000 
#
# Total GULP energy -644293.349715 kJ/mol
# GULP energy per Si atom -12390.256725 kJ/mol
# Density = 2.261009 g / cm^3
# Si number density = 22.661670 Si / 1000 Ang^3
#
#
#
# Elastic Constant Matrix: (Units=GPa)
#
#
# Indices 1 2 3 4 5 6 
#
# 1 82.5878 3.8242 25.3396 0.0000 0.0000 0.0000
# 2 3.8242 80.9371 32.3940 0.0000 0.0000 0.0000
# 3 25.3396 32.3940 77.9160 0.0000 0.0000 0.0000
# 4 0.0000 0.0000 0.0000 15.2689 0.0000 0.0000
# 5 0.0000 0.0000 0.0000 0.0000 29.9386 0.0000
# 6 0.0000 0.0000 0.0000 0.0000 0.0000 -28.1645
#
#
#
# Elastic Compliance Matrix: (Units=1/GPa)
#
#
# Indices 1 2 3 4 5 6 
#
# 1 0.013572 0.001350 -0.004975 0.000000 0.000000 0.000000
# 2 0.001350 0.014956 -0.006657 0.000000 0.000000 0.000000
# 3 -0.004975 -0.006657 0.017220 0.000000 0.000000 0.000000
# 4 0.000000 0.000000 0.000000 0.065492 0.000000 0.000000
# 5 0.000000 0.000000 0.000000 0.000000 0.033402 0.000000
# 6 0.000000 0.000000 0.000000 0.000000 0.000000 -0.035506
#
#
# Mechanical properties :
#
#
# Convention : Reuss Voigt Hill
#
# Bulk Modulus (GPa) = 39.70816 40.50628 40.10722
# Shear Modulus (GPa) = 36.20675 15.40080 25.80378
#
# Velocity S-wave (km/s) = 4.00147 2.60974 3.37805
# Velocity P-wave (km/s) = 6.23773 5.19559 5.74036
#
# Compressibility (1/GPa) = 0.02518374
#
# Stress axis : x y z
#
# Youngs Moduli (GPa) = 73.67948 66.86331 58.07188
#
# Poissons Ratio (x) = -0.09026 0.28892
# Poissons Ratio (y) = -0.09947 0.38659
# Poissons Ratio (z) = 0.36657 0.44511
#
# Static dielectric constant tensor:
#      x y z
#    x 4.239410 0.000000 0.000000 
#    y 0.000000 3.040100 0.000000 
#    z 0.000000 0.000000 3.328080 
# 
# 
# High freq. dielectric constant tensor:
#      x y z
#    x 1.913220 0.000000 0.000000 
#    y 0.000000 1.885560 0.000000 
#    z 0.000000 0.000000 1.895510 
# 
# From -- ./inp_files/6543.got.cif
#   From: 2010.03.12/outbox.cif.g09.slc.cpg/sg73_4_cif.got.tgz:6543.got - 2010.04.16 15:25:48.
