data_PCOD8296203
_publ_section_title
;
Structure prediction by ZEFSAII (Michael W. Deem and Ramdas Pophale) SiO2 
 PCOD8296203
Probable space group: I B C A 
;
_chemical_formula_sum "Si O2"
_cell_formula_units_Z 40
_cell_length_a 5.143805
_cell_length_b 12.865877
_cell_length_c 25.502164
_cell_angle_alpha 90.000000
_cell_angle_beta 90.000000
_cell_angle_gamma 90.000000
_cell_volume 1687.722055
_symmetry_space_group_name_H-M "I B C A "
_symmetry_group_IT_number 73
_symmetry_cell_setting 'orthorhombic'
loop_
_space_group_symop_operation_xyz
x,y,z
-x,1/2-y,z
x,-y,1/2-z
1/2-x,y,-z
-x,-y,-z
x,1/2+y,-z
-x,y,1/2+z
1/2+x,-y,z
1/2+x,1/2+y,1/2+z
1/2-x,-y,1/2+z
1/2+x,1/2-y,-z
-x,1/2+y,1/2-z
1/2-x,1/2-y,1/2-z
1/2+x,y,1/2-z
1/2-x,1/2+y,z
x,1/2-y,1/2+z
loop_
_atom_site_type_symbol
_atom_site_label
_atom_site_fract_x
_atom_site_fract_y
_atom_site_fract_z
Si Si1 0.500000 0.250000 0.533418
Si Si2 0.627669 0.929887 0.387139
Si Si3 0.794094 0.864882 0.727263
O O1 0.250000 0.285960 0.500000
O O2 0.405958 0.152441 0.567008
O O3 0.615833 0.866383 0.332765
O O4 0.407671 0.016950 0.391734
O O5 0.750000 0.750000 0.750000
O O6 0.516227 0.921162 0.736788
#
# Coordination Sequence:
#
# PCOD8296203 Si02
#       3
#     8  16  16
#     4  12  28  50  76 102 136 184 238 306 372 422
#     4  12  27  46  72 107 144 186 239 294 354 426
#     4  10  21  39  65  97 141 183 222 272 330 405
#
# _framework density 23.700583000000002
#
# number of rings (size 3 to 8) (size 9 to 14) (size 15 to 20)
#    0.000    0.800    0.000    7.200    0.000   16.000 
#    0.000    0.000    0.000    0.000    0.000    0.000 
#    0.000    0.000    0.000    0.000    0.000    0.000 
#
# Total GULP energy -247894.679024 kJ/mol
# GULP energy per Si atom -12394.733951 kJ/mol
# Density = 2.364664 g / cm^3
# Si number density = 23.700583 Si / 1000 Ang^3
#
#
#
# Elastic Constant Matrix: (Units=GPa)
#
#
# Indices 1 2 3 4 5 6 
#
# 1 198.5992 2.0415 55.4342 0.0000 0.0000 0.0000
# 2 2.0415 117.0205 53.5984 0.0000 0.0000 0.0000
# 3 55.4342 53.5984 161.7984 0.0000 0.0000 0.0000
# 4 0.0000 0.0000 0.0000 18.3689 0.0000 0.0000
# 5 0.0000 0.0000 0.0000 0.0000 45.1035 0.0000
# 6 0.0000 0.0000 0.0000 0.0000 0.0000 12.8316
#
#
#
# Elastic Compliance Matrix: (Units=1/GPa)
#
#
# Indices 1 2 3 4 5 6 
#
# 1 0.005652 0.000929 -0.002244 0.000000 0.000000 0.000000
# 2 0.000929 0.010227 -0.003706 0.000000 0.000000 0.000000
# 3 -0.002244 -0.003706 0.008177 0.000000 0.000000 0.000000
# 4 0.000000 0.000000 0.000000 0.054440 0.000000 0.000000
# 5 0.000000 0.000000 0.000000 0.000000 0.022171 0.000000
# 6 0.000000 0.000000 0.000000 0.000000 0.000000 0.077933
#
#
# Mechanical properties :
#
#
# Convention : Reuss Voigt Hill
#
# Bulk Modulus (GPa) = 71.35824 77.72957 74.54390
# Shear Modulus (GPa) = 25.86471 39.68374 32.77422
#
# Velocity S-wave (km/s) = 3.30708 4.09636 3.72270
# Velocity P-wave (km/s) = 6.68999 7.43244 7.07097
#
# Compressibility (1/GPa) = 0.01401380
#
# Stress axis : x y z
#
# Youngs Moduli (GPa) = 176.92289 97.78189 122.29073
#
# Poissons Ratio (x) = -0.09088 0.27447
# Poissons Ratio (y) = -0.16443 0.45324
# Poissons Ratio (z) = 0.39708 0.36240
#
# Static dielectric constant tensor:
#      x y z
#    x -13.757610 0.000000 0.000000 
#    y 0.000000 3.943380 0.000000 
#    z 0.000000 0.000000 4.369650 
# 
# 
# High freq. dielectric constant tensor:
#      x y z
#    x 1.978460 0.000000 0.000000 
#    y 0.000000 1.960620 0.000000 
#    z 0.000000 0.000000 1.933560 
# 
# From -- ./inp_files/488.got.cif
#   From: 2010.03.12/outbox.cif.g09.slc.cpg/sg73_1_cif.got.tgz:488.got - 2010.04.16 15:25:48.
