data_PCOD8296134
_publ_section_title
;
Structure prediction by ZEFSAII (Michael W. Deem and Ramdas Pophale) SiO2 
 PCOD8296134
Probable space group: I B C A 
;
_chemical_formula_sum "Si O2"
_cell_formula_units_Z 80
_cell_length_a 17.858871
_cell_length_b 22.035437
_cell_length_c 9.141873
_cell_angle_alpha 90.000000
_cell_angle_beta 90.000000
_cell_angle_gamma 90.000000
_cell_volume 3597.583243
_symmetry_space_group_name_H-M "I B C A "
_symmetry_group_IT_number 73
_symmetry_cell_setting 'orthorhombic'
loop_
_space_group_symop_operation_xyz
x,y,z
-x,1/2-y,z
x,-y,1/2-z
1/2-x,y,-z
-x,-y,-z
x,1/2+y,-z
-x,y,1/2+z
1/2+x,-y,z
1/2+x,1/2+y,1/2+z
1/2-x,-y,1/2+z
1/2+x,1/2-y,-z
-x,1/2+y,1/2-z
1/2-x,1/2-y,1/2-z
1/2+x,y,1/2-z
1/2-x,1/2+y,z
x,1/2-y,1/2+z
loop_
_atom_site_type_symbol
_atom_site_label
_atom_site_fract_x
_atom_site_fract_y
_atom_site_fract_z
Si Si1 0.856634 0.932388 0.387720
Si Si2 0.769037 0.000000 0.750000
Si Si3 0.983923 0.000000 0.250000
Si Si4 0.827284 0.319131 0.803637
Si Si5 0.344308 0.298977 0.363645
Si Si6 0.611921 0.909336 0.293923
O O1 0.930736 0.974163 0.378257
O O2 0.854493 0.884311 0.254130
O O3 0.855091 0.899054 0.543362
O O4 0.784440 0.976614 0.380349
O O5 0.825954 0.053579 0.698010
O O6 0.033906 0.944548 0.192266
O O7 0.737934 0.319109 0.812089
O O8 0.858569 0.269504 0.689062
O O9 0.859566 0.304139 0.963829
O O10 0.401732 0.344550 0.282498
#
# Coordination Sequence:
#
# PCOD8296134 Si02
#       6
#    16   8   8  16  16  16
#     4  11  22  40  63  89 124 165 207 256 307 364
#     4  10  22  34  58  92 122 154 206 250 308 362
#     4  10  26  42  58  92 126 170 208 254 306 370
#     4  10  21  37  61  93 126 159 202 254 310 367
#     4  10  21  37  61  93 126 159 202 254 310 367
#     4  11  22  40  63  89 124 165 207 256 307 364
#
# _framework density 22.23715
#
# number of rings (size 3 to 8) (size 9 to 14) (size 15 to 20)
#    0.000    1.600    2.000    2.400    0.000   11.200 
#    0.000    1.000    0.000    4.800    0.000    0.000 
#    0.000    0.000    0.000    0.000    0.000    0.000 
#
# Total GULP energy -495902.866224 kJ/mol
# GULP energy per Si atom -12397.571656 kJ/mol
# Density = 2.218654 g / cm^3
# Si number density = 22.237150 Si / 1000 Ang^3
#
#
#
# Elastic Constant Matrix: (Units=GPa)
#
#
# Indices 1 2 3 4 5 6 
#
# 1 88.6827 37.3120 20.7162 0.0000 0.0000 0.0000
# 2 37.3120 117.8838 50.0230 0.0000 0.0000 0.0000
# 3 20.7162 50.0230 133.9063 0.0000 0.0000 0.0000
# 4 0.0000 0.0000 0.0000 28.8333 0.0000 0.0000
# 5 0.0000 0.0000 0.0000 0.0000 14.6393 0.0000
# 6 0.0000 0.0000 0.0000 0.0000 0.0000 28.9086
#
#
#
# Elastic Compliance Matrix: (Units=1/GPa)
#
#
# Indices 1 2 3 4 5 6 
#
# 1 0.013044 -0.003889 -0.000565 0.000000 0.000000 0.000000
# 2 -0.003889 0.011240 -0.003597 0.000000 0.000000 0.000000
# 3 -0.000565 -0.003597 0.008899 0.000000 0.000000 0.000000
# 4 0.000000 0.000000 0.000000 0.034682 0.000000 0.000000
# 5 0.000000 0.000000 0.000000 0.000000 0.068309 0.000000
# 6 0.000000 0.000000 0.000000 0.000000 0.000000 0.034592
#
#
# Mechanical properties :
#
#
# Convention : Reuss Voigt Hill
#
# Bulk Modulus (GPa) = 58.54512 61.84171 60.19342
# Shear Modulus (GPa) = 25.96538 29.97100 27.96819
#
# Velocity S-wave (km/s) = 3.42081 3.67521 3.55029
# Velocity P-wave (km/s) = 6.47976 6.77348 6.62825
#
# Compressibility (1/GPa) = 0.01708084
#
# Stress axis : x y z
#
# Youngs Moduli (GPa) = 76.66124 88.96523 112.36925
#
# Poissons Ratio (x) = 0.34597 0.06352
# Poissons Ratio (y) = 0.29813 0.40424
# Poissons Ratio (z) = 0.04334 0.32004
#
# Static dielectric constant tensor:
#      x y z
#    x 3.828350 0.000000 0.000000 
#    y 0.000000 4.050660 0.000000 
#    z 0.000000 0.000000 3.782820 
# 
# 
# High freq. dielectric constant tensor:
#      x y z
#    x 1.852460 0.000000 0.000000 
#    y 0.000000 1.878590 0.000000 
#    z 0.000000 0.000000 1.869070 
# 
# From -- ./inp_files/6209.got.cif
#   From: 2010.03.12/outbox.cif.g09.slc.cpg/sg73_4_cif.got.tgz:6209.got - 2010.04.16 15:25:48.
