data_PCOD8296651
_publ_section_title
;
Structure prediction by ZEFSAII (Michael W. Deem and Ramdas Pophale) SiO2 
 PCOD8296651
Probable space group: I B C A 
;
_chemical_formula_sum "Si O2"
_cell_formula_units_Z 88
_cell_length_a 24.628746
_cell_length_b 19.187017
_cell_length_c 9.131051
_cell_angle_alpha 90.000000
_cell_angle_beta 90.000000
_cell_angle_gamma 90.000000
_cell_volume 4314.897948
_symmetry_space_group_name_H-M "I B C A "
_symmetry_group_IT_number 73
_symmetry_cell_setting 'orthorhombic'
loop_
_space_group_symop_operation_xyz
x,y,z
-x,1/2-y,z
x,-y,1/2-z
1/2-x,y,-z
-x,-y,-z
x,1/2+y,-z
-x,y,1/2+z
1/2+x,-y,z
1/2+x,1/2+y,1/2+z
1/2-x,-y,1/2+z
1/2+x,1/2-y,-z
-x,1/2+y,1/2-z
1/2-x,1/2-y,1/2-z
1/2+x,y,1/2-z
1/2-x,1/2+y,z
x,1/2-y,1/2+z
loop_
_atom_site_type_symbol
_atom_site_label
_atom_site_fract_x
_atom_site_fract_y
_atom_site_fract_z
Si Si1 0.688785 0.175419 0.679046
Si Si2 0.606845 0.567746 0.676459
Si Si3 0.188900 0.313625 0.660683
Si Si4 0.000000 0.250000 0.037028
Si Si5 0.906245 0.427002 0.833582
Si Si6 0.017037 0.348001 0.788309
O O1 0.751847 0.160787 0.716331
O O2 0.684933 0.196809 0.511321
O O3 0.669066 0.241020 0.772231
O O4 0.650746 0.108778 0.714125
O O5 0.632869 0.500000 0.750000
O O6 0.648345 0.628026 0.714079
O O7 0.593836 0.556952 0.505976
O O8 0.552517 0.582845 0.771412
O O9 0.967006 0.301352 0.144921
O O10 0.965806 0.198689 0.929570
O O11 0.913633 0.500000 0.750000
O O12 0.954190 0.372019 0.796154
#
# Coordination Sequence:
#
# PCOD8296651 Si02
#       6
#    16  16  16   8  16  16
#     4   9  20  39  62  88 116 149 194 246 293 343
#     4  11  25  40  59  86 122 160 195 240 292 351
#     4   9  20  39  62  88 116 149 194 246 293 343
#     4  10  24  38  62  90 114 158 194 242 292 344
#     4  11  25  40  59  86 122 160 195 240 292 351
#     4  11  23  40  60  90 120 152 194 244 292 350
#
# _framework density 20.394458
#
# number of rings (size 3 to 8) (size 9 to 14) (size 15 to 20)
#    0.000    1.818    1.818    0.545    7.636    3.636 
#    0.000    0.000    0.000    0.000    0.000    0.000 
#    0.000    0.000    0.000    0.000    0.000    0.000 
#
# Total GULP energy -545365.022501 kJ/mol
# GULP energy per Si atom -12394.659602 kJ/mol
# Density = 2.034804 g / cm^3
# Si number density = 20.394458 Si / 1000 Ang^3
#
#
#
# Elastic Constant Matrix: (Units=GPa)
#
#
# Indices 1 2 3 4 5 6 
#
# 1 80.1794 40.6276 31.6787 0.0000 0.0000 0.0000
# 2 40.6276 114.1145 54.5678 0.0000 0.0000 0.0000
# 3 31.6787 54.5678 91.7821 0.0000 0.0000 0.0000
# 4 0.0000 0.0000 0.0000 41.1056 0.0000 0.0000
# 5 0.0000 0.0000 0.0000 0.0000 22.5631 0.0000
# 6 0.0000 0.0000 0.0000 0.0000 0.0000 26.0532
#
#
#
# Elastic Compliance Matrix: (Units=1/GPa)
#
#
# Indices 1 2 3 4 5 6 
#
# 1 0.015765 -0.004207 -0.002940 0.000000 0.000000 0.000000
# 2 -0.004207 0.013367 -0.006495 0.000000 0.000000 0.000000
# 3 -0.002940 -0.006495 0.015772 0.000000 0.000000 0.000000
# 4 0.000000 0.000000 0.000000 0.024328 0.000000 0.000000
# 5 0.000000 0.000000 0.000000 0.000000 0.044320 0.000000
# 6 0.000000 0.000000 0.000000 0.000000 0.000000 0.038383
#
#
# Mechanical properties :
#
#
# Convention : Reuss Voigt Hill
#
# Bulk Modulus (GPa) = 56.75530 59.98047 58.36788
# Shear Modulus (GPa) = 27.01361 28.55786 27.78574
#
# Velocity S-wave (km/s) = 3.64339 3.74609 3.69510
# Velocity P-wave (km/s) = 6.75191 6.94153 6.84738
#
# Compressibility (1/GPa) = 0.01761950
#
# Stress axis : x y z
#
# Youngs Moduli (GPa) = 63.43013 74.81298 63.40468
#
# Poissons Ratio (x) = 0.31473 0.18643
# Poissons Ratio (y) = 0.26684 0.41181
# Poissons Ratio (z) = 0.18650 0.48591
#
# Static dielectric constant tensor:
#      x y z
#    x 3.760800 0.000000 0.000000 
#    y 0.000000 3.739780 0.000000 
#    z 0.000000 0.000000 3.774780 
# 
# 
# High freq. dielectric constant tensor:
#      x y z
#    x 1.787030 0.000000 0.000000 
#    y 0.000000 1.803460 0.000000 
#    z 0.000000 0.000000 1.803160 
# 
# From -- ./inp_files/7081.got.cif
#   From: 2010.03.12/outbox.cif.g09.slc.cpg/sg73_4_cif.got.tgz:7081.got - 2010.04.16 15:25:48.
