data_PCOD8296784
_publ_section_title
;
Structure prediction by ZEFSAII (Michael W. Deem and Ramdas Pophale) SiO2 
 PCOD8296784
Probable space group: I B C A 
;
_chemical_formula_sum "Si O2"
_cell_formula_units_Z 112
_cell_length_a 24.682877
_cell_length_b 13.866335
_cell_length_c 14.749686
_cell_angle_alpha 90.000000
_cell_angle_beta 90.000000
_cell_angle_gamma 90.000000
_cell_volume 5048.242888
_symmetry_space_group_name_H-M "I B C A "
_symmetry_group_IT_number 73
_symmetry_cell_setting 'orthorhombic'
loop_
_space_group_symop_operation_xyz
x,y,z
-x,1/2-y,z
x,-y,1/2-z
1/2-x,y,-z
-x,-y,-z
x,1/2+y,-z
-x,y,1/2+z
1/2+x,-y,z
1/2+x,1/2+y,1/2+z
1/2-x,-y,1/2+z
1/2+x,1/2-y,-z
-x,1/2+y,1/2-z
1/2-x,1/2-y,1/2-z
1/2+x,y,1/2-z
1/2-x,1/2+y,z
x,1/2-y,1/2+z
loop_
_atom_site_type_symbol
_atom_site_label
_atom_site_fract_x
_atom_site_fract_y
_atom_site_fract_z
Si Si1 0.155447 0.116360 0.128077
Si Si2 0.232241 0.100079 0.792829
Si Si3 0.964181 0.345174 0.727481
Si Si4 0.455208 0.455564 0.391513
Si Si5 0.694580 0.504355 0.461012
Si Si6 0.654850 0.671581 0.151297
Si Si7 0.988232 0.139212 0.427595
O O1 0.202343 0.106884 0.204305
O O2 0.097446 0.079161 0.166442
O O3 0.156461 0.227903 0.096784
O O4 0.160495 0.047547 0.042049
O O5 0.202380 0.178384 0.728903
O O6 0.214417 0.000000 0.750000
O O7 0.208586 0.094952 0.894803
O O8 0.903493 0.333806 0.695197
O O9 0.955956 0.368210 0.833444
O O10 0.000000 0.250000 0.712533
O O11 0.992526 0.429885 0.669826
O O12 0.453774 0.400484 0.488152
O O13 0.458283 0.570795 0.413036
O O14 0.750000 0.458932 0.500000
O O15 0.661652 0.417212 0.416588
O O16 0.000000 0.250000 0.451093
#
# Coordination Sequence:
#
# PCOD8296784 Si02
#       7
#    16  16  16  16  16  16  16
#     4  11  23  40  65  97 136 172 222 289 348 398
#     4   9  21  42  64  94 131 173 230 277 337 412
#     4  11  23  44  65 100 137 175 231 282 338 419
#     4  11  24  41  66  97 139 178 223 288 348 404
#     4   9  22  41  63  97 132 171 223 284 338 408
#     4  11  23  41  73  94 130 185 227 279 346 419
#     4  10  25  42  65  95 137 181 231 277 340 422
#
# _framework density 22.185939000000001
#
# number of rings (size 3 to 8) (size 9 to 14) (size 15 to 20)
#    0.000    1.714    1.429    1.286    6.000    5.143 
#    0.000    1.429    0.000    0.000    0.000    0.000 
#    0.000    0.000    0.000    0.000    0.000    0.000 
#
# Total GULP energy -693958.475017 kJ/mol
# GULP energy per Si atom -12392.115625 kJ/mol
# Density = 2.213544 g / cm^3
# Si number density = 22.185939 Si / 1000 Ang^3
#
#
#
# Elastic Constant Matrix: (Units=GPa)
#
#
# Indices 1 2 3 4 5 6 
#
# 1 144.3674 43.8855 41.8744 0.0000 0.0000 0.0000
# 2 43.8855 138.3197 27.5416 0.0000 0.0000 0.0000
# 3 41.8744 27.5416 95.2725 0.0000 0.0000 0.0000
# 4 0.0000 0.0000 0.0000 18.6067 0.0000 0.0000
# 5 0.0000 0.0000 0.0000 0.0000 25.4492 0.0000
# 6 0.0000 0.0000 0.0000 0.0000 0.0000 41.6960
#
#
#
# Elastic Compliance Matrix: (Units=1/GPa)
#
#
# Indices 1 2 3 4 5 6 
#
# 1 0.008459 -0.002062 -0.003122 0.000000 0.000000 0.000000
# 2 -0.002062 0.008174 -0.001457 0.000000 0.000000 0.000000
# 3 -0.003122 -0.001457 0.012289 0.000000 0.000000 0.000000
# 4 0.000000 0.000000 0.000000 0.053744 0.000000 0.000000
# 5 0.000000 0.000000 0.000000 0.000000 0.039294 0.000000
# 6 0.000000 0.000000 0.000000 0.000000 0.000000 0.023983
#
#
# Mechanical properties :
#
#
# Convention : Reuss Voigt Hill
#
# Bulk Modulus (GPa) = 63.93359 67.17362 65.55360
# Shear Modulus (GPa) = 30.40648 34.79426 32.60037
#
# Velocity S-wave (km/s) = 3.70608 3.96448 3.83745
# Velocity P-wave (km/s) = 6.86972 7.16236 7.01757
#
# Compressibility (1/GPa) = 0.01564123
#
# Stress axis : x y z
#
# Youngs Moduli (GPa) = 118.21485 122.33974 81.37111
#
# Poissons Ratio (x) = 0.25230 0.25403
# Poissons Ratio (y) = 0.24379 0.11852
# Poissons Ratio (z) = 0.36905 0.17819
#
# Static dielectric constant tensor:
#      x y z
#    x 3.931530 0.000000 0.000000 
#    y 0.000000 4.141670 0.000000 
#    z 0.000000 0.000000 4.171580 
# 
# 
# High freq. dielectric constant tensor:
#      x y z
#    x 1.870020 0.000000 0.000000 
#    y 0.000000 1.876190 0.000000 
#    z 0.000000 0.000000 1.872830 
# 
# From -- ./inp_files/19407.got.cif
#   From: 2010.03.12/outbox.cif.g09.slc.cpg/sg73_10_cif.got.tgz:19407.got - 2010.04.16 15:25:48.
