data_PCOD8296250
_publ_section_title
;
Structure prediction by ZEFSAII (Michael W. Deem and Ramdas Pophale) SiO2 
 PCOD8296250
Probable space group: I B C A 
;
_chemical_formula_sum "Si O2"
_cell_formula_units_Z 72
_cell_length_a 7.935520
_cell_length_b 27.771309
_cell_length_c 14.089155
_cell_angle_alpha 90.000000
_cell_angle_beta 90.000000
_cell_angle_gamma 90.000000
_cell_volume 3104.964851
_symmetry_space_group_name_H-M "I B C A "
_symmetry_group_IT_number 73
_symmetry_cell_setting 'orthorhombic'
loop_
_space_group_symop_operation_xyz
x,y,z
-x,1/2-y,z
x,-y,1/2-z
1/2-x,y,-z
-x,-y,-z
x,1/2+y,-z
-x,y,1/2+z
1/2+x,-y,z
1/2+x,1/2+y,1/2+z
1/2-x,-y,1/2+z
1/2+x,1/2-y,-z
-x,1/2+y,1/2-z
1/2-x,1/2-y,1/2-z
1/2+x,y,1/2-z
1/2-x,1/2+y,z
x,1/2-y,1/2+z
loop_
_atom_site_type_symbol
_atom_site_label
_atom_site_fract_x
_atom_site_fract_y
_atom_site_fract_z
Si Si1 0.959220 0.694445 0.859144
Si Si2 0.056080 0.618823 0.002119
Si Si3 0.123298 0.562249 0.345141
Si Si4 0.141624 0.853971 0.183378
Si Si5 0.638180 0.000000 0.250000
O O1 0.755466 0.689817 0.858754
O O2 0.000000 0.750000 0.853213
O O3 0.037295 0.671160 0.953654
O O4 0.042365 0.664524 0.773702
O O5 0.938335 0.578715 0.949589
O O6 0.250000 0.602094 0.000000
O O7 0.990576 0.624215 0.108604
O O8 0.218181 0.605675 0.291519
O O9 0.248271 0.515858 0.341763
O O10 0.963981 0.547393 0.280973
#
# Coordination Sequence:
#
# PCOD8296250 Si02
#       5
#    16  16  16  16   8
#     4  11  23  40  67  98 128 172 219 267 322 382
#     4  11  25  43  64  92 131 175 216 266 325 390
#     4  10  21  41  65  94 127 167 209 266 335 389
#     4  11  23  43  65  93 132 171 213 265 326 394
#     4  10  22  40  70  98 124 162 218 276 324 398
#
# _framework density 23.188666999999999
#
# number of rings (size 3 to 8) (size 9 to 14) (size 15 to 20)
#    0.000    1.333    0.000    7.333    0.000    8.000 
#    0.000    7.778    0.000    0.000    0.000    0.000 
#    0.000    0.000    0.000    0.000    0.000    0.000 
#
# Total GULP energy -446137.001579 kJ/mol
# GULP energy per Si atom -12392.694488 kJ/mol
# Density = 2.313589 g / cm^3
# Si number density = 23.188667 Si / 1000 Ang^3
#
#
#
# Elastic Constant Matrix: (Units=GPa)
#
#
# Indices 1 2 3 4 5 6 
#
# 1 138.1066 55.5199 28.9830 0.0010 0.0001 -0.0001
# 2 55.5199 102.6428 30.7852 0.0017 0.0001 -0.0001
# 3 28.9830 30.7852 70.8345 0.0048 0.0001 -0.0005
# 4 0.0010 0.0017 0.0048 10.0434 0.0004 0.0000
# 5 0.0001 0.0001 0.0001 0.0004 36.1583 0.0000
# 6 -0.0001 -0.0001 -0.0005 0.0000 0.0000 29.5558
#
#
#
# Elastic Compliance Matrix: (Units=1/GPa)
#
#
# Indices 1 2 3 4 5 6 
#
# 1 0.009469 -0.004553 -0.001895 0.000001 0.000000 0.000000
# 2 -0.004553 0.013392 -0.003957 0.000000 0.000000 0.000000
# 3 -0.001895 -0.003957 0.016613 -0.000007 0.000000 0.000000
# 4 0.000001 0.000000 -0.000007 0.099568 -0.000001 0.000000
# 5 0.000000 0.000000 0.000000 -0.000001 0.027656 0.000000
# 6 0.000000 0.000000 0.000000 0.000000 0.000000 0.033834
#
#
# Mechanical properties :
#
#
# Convention : Reuss Voigt Hill
#
# Bulk Modulus (GPa) = 53.58505 60.24001 56.91253
# Shear Modulus (GPa) = 21.97168 28.23787 25.10478
#
# Velocity S-wave (km/s) = 3.08152 3.49341 3.29391
# Velocity P-wave (km/s) = 5.98494 6.50434 6.25004
#
# Compressibility (1/GPa) = 0.01866192
#
# Stress axis : x y z
#
# Youngs Moduli (GPa) = 105.60726 74.66946 60.19424
#
# Poissons Ratio (x) = 0.34000 0.11410
# Poissons Ratio (y) = 0.48087 0.23821
# Poissons Ratio (z) = 0.20018 0.29549
#
# Static dielectric constant tensor:
#      x y z
#    x 4.722430 0.000000 0.000000 
#    y 0.000000 4.191310 0.000000 
#    z 0.000000 0.000000 3.805870 
# 
# 
# High freq. dielectric constant tensor:
#      x y z
#    x 1.945460 0.000000 0.000000 
#    y 0.000000 1.912780 0.000000 
#    z 0.000000 0.000000 1.893730 
# 
# From -- ./inp_files/15536.got.cif
#   From: 2010.03.12/outbox.cif.g09.slc.cpg/sg73_8_cif.got.tgz:15536.got - 2010.04.16 15:25:48.
