data_PCOD8296507
_publ_section_title
;
Structure prediction by ZEFSAII (Michael W. Deem and Ramdas Pophale) SiO2 
 PCOD8296507
Probable space group: I B C A 
;
_chemical_formula_sum "Si O2"
_cell_formula_units_Z 112
_cell_length_a 12.952691
_cell_length_b 11.983045
_cell_length_c 30.731455
_cell_angle_alpha 90.000000
_cell_angle_beta 90.000000
_cell_angle_gamma 90.000000
_cell_volume 4769.911464
_symmetry_space_group_name_H-M "I B C A "
_symmetry_group_IT_number 73
_symmetry_cell_setting 'orthorhombic'
loop_
_space_group_symop_operation_xyz
x,y,z
-x,1/2-y,z
x,-y,1/2-z
1/2-x,y,-z
-x,-y,-z
x,1/2+y,-z
-x,y,1/2+z
1/2+x,-y,z
1/2+x,1/2+y,1/2+z
1/2-x,-y,1/2+z
1/2+x,1/2-y,-z
-x,1/2+y,1/2-z
1/2-x,1/2-y,1/2-z
1/2+x,y,1/2-z
1/2-x,1/2+y,z
x,1/2-y,1/2+z
loop_
_atom_site_type_symbol
_atom_site_label
_atom_site_fract_x
_atom_site_fract_y
_atom_site_fract_z
Si Si1 0.316557 0.728929 0.056478
Si Si2 0.617567 0.958225 0.582189
Si Si3 0.278079 0.221523 0.700558
Si Si4 0.909494 0.334074 0.971857
Si Si5 0.410150 0.977252 0.797261
Si Si6 0.272555 0.103357 0.863435
Si Si7 0.437823 0.364636 0.830817
O O1 0.341226 0.859805 0.051162
O O2 0.196158 0.714175 0.047109
O O3 0.336116 0.689890 0.105946
O O4 0.391381 0.657973 0.024132
O O5 0.544579 0.904972 0.619200
O O6 0.562278 0.046608 0.549869
O O7 0.711304 0.018395 0.606697
O O8 0.250000 0.250000 0.750000
O O9 0.386712 0.154018 0.696030
O O10 0.299587 0.329813 0.670766
O O11 0.182853 0.150770 0.680404
O O12 0.000000 0.250000 0.959363
O O13 0.361390 0.000000 0.750000
O O14 0.358042 0.043566 0.835904
O O15 0.525405 0.030136 0.800038
O O16 0.500000 0.250000 0.820535
#
# Coordination Sequence:
#
# PCOD8296507 Si02
#       7
#    16  16  16  16  16  16  16
#     4  10  22  44  69  99 145 179 233 287 356 428
#     4  11  24  43  72 102 139 189 229 291 367 426
#     4  12  24  45  69 102 145 186 239 302 352 418
#     4  10  25  44  69 107 140 180 235 295 351 427
#     4  12  24  41  69 102 138 191 236 293 356 411
#     4  11  21  42  70  97 135 186 233 286 354 416
#     4  12  24  43  68 105 140 187 244 290 356 433
#
# _framework density 23.480519999999999
#
# number of rings (size 3 to 8) (size 9 to 14) (size 15 to 20)
#    0.000    0.857    5.714    0.000    0.000   12.000 
#    0.000    1.429    0.000    0.000    0.000    0.000 
#    0.000    0.000    0.000    0.000    0.000    0.000 
#
# Total GULP energy -693981.309942 kJ/mol
# GULP energy per Si atom -12392.523392 kJ/mol
# Density = 2.342708 g / cm^3
# Si number density = 23.480520 Si / 1000 Ang^3
#
#
#
# Elastic Constant Matrix: (Units=GPa)
#
#
# Indices 1 2 3 4 5 6 
#
# 1 50.6946 19.4105 -0.8627 0.0000 0.0000 0.0000
# 2 19.4105 110.7916 49.9488 0.0000 0.0000 0.0000
# 3 -0.8627 49.9488 147.7159 0.0000 0.0000 0.0000
# 4 0.0000 0.0000 0.0000 48.4116 0.0000 0.0000
# 5 0.0000 0.0000 0.0000 0.0000 0.3518 0.0000
# 6 0.0000 0.0000 0.0000 0.0000 0.0000 34.9072
#
#
#
# Elastic Compliance Matrix: (Units=1/GPa)
#
#
# Indices 1 2 3 4 5 6 
#
# 1 0.021480 -0.004507 0.001649 0.000000 0.000000 0.000000
# 2 -0.004507 0.011595 -0.003947 0.000000 0.000000 0.000000
# 3 0.001649 -0.003947 0.008114 0.000000 0.000000 0.000000
# 4 0.000000 0.000000 0.000000 0.020656 0.000000 0.000000
# 5 0.000000 0.000000 0.000000 0.000000 2.842345 0.000000
# 6 0.000000 0.000000 0.000000 0.000000 0.000000 0.028647
#
#
# Mechanical properties :
#
#
# Convention : Reuss Voigt Hill
#
# Bulk Modulus (GPa) = 36.25851 49.57725 42.91788
# Shear Modulus (GPa) = 1.69168 32.78116 17.23642
#
# Velocity S-wave (km/s) = 0.84972 3.74050 2.71232
# Velocity P-wave (km/s) = 4.05440 6.30992 5.30346
#
# Compressibility (1/GPa) = 0.02757973
#
# Stress axis : x y z
#
# Youngs Moduli (GPa) = 46.55573 86.24391 123.24297
#
# Poissons Ratio (x) = 0.38868 -0.20328
# Poissons Ratio (y) = 0.20982 0.48645
# Poissons Ratio (z) = -0.07679 0.34041
#
# Static dielectric constant tensor:
#      x y z
#    x 4.132570 0.000000 0.000000 
#    y 0.000000 4.637240 0.000000 
#    z 0.000000 0.000000 4.717170 
# 
# 
# High freq. dielectric constant tensor:
#      x y z
#    x 1.906020 0.000000 0.000000 
#    y 0.000000 1.936740 0.000000 
#    z 0.000000 0.000000 1.948600 
# 
# From -- ./inp_files/34312.got.cif
#   From: 2010.03.12/outbox.cif.g09.slc.cpg/sg73_18_cif.got.tgz:34312.got - 2010.04.16 15:25:48.
