data_PCOD8296860
_publ_section_title
;
Structure prediction by ZEFSAII (Michael W. Deem and Ramdas Pophale) SiO2 
 PCOD8296860
Probable space group: I B C A 
;
_chemical_formula_sum "Si O2"
_cell_formula_units_Z 112
_cell_length_a 25.825283
_cell_length_b 13.037624
_cell_length_c 14.297144
_cell_angle_alpha 90.000000
_cell_angle_beta 90.000000
_cell_angle_gamma 90.000000
_cell_volume 4813.853095
_symmetry_space_group_name_H-M "I B C A "
_symmetry_group_IT_number 73
_symmetry_cell_setting 'orthorhombic'
loop_
_space_group_symop_operation_xyz
x,y,z
-x,1/2-y,z
x,-y,1/2-z
1/2-x,y,-z
-x,-y,-z
x,1/2+y,-z
-x,y,1/2+z
1/2+x,-y,z
1/2+x,1/2+y,1/2+z
1/2-x,-y,1/2+z
1/2+x,1/2-y,-z
-x,1/2+y,1/2-z
1/2-x,1/2-y,1/2-z
1/2+x,y,1/2-z
1/2-x,1/2+y,z
x,1/2-y,1/2+z
loop_
_atom_site_type_symbol
_atom_site_label
_atom_site_fract_x
_atom_site_fract_y
_atom_site_fract_z
Si Si1 0.235627 0.685664 0.840306
Si Si2 0.129119 0.937937 0.341509
Si Si3 0.250000 0.833480 0.000000
Si Si4 0.553020 0.120091 0.734083
Si Si5 0.000000 0.250000 0.918124
Si Si6 0.146960 0.572965 0.493465
Si Si7 0.161331 0.074687 0.830651
Si Si8 0.576376 0.735689 0.087124
O O1 0.250000 0.750000 0.750000
O O2 0.187867 0.606342 0.829818
O O3 0.289380 0.633765 0.870155
O O4 0.222997 0.766643 0.920107
O O5 0.090455 0.845799 0.368920
O O6 0.111837 0.000000 0.250000
O O7 0.118541 0.026361 0.417382
O O8 0.295400 0.908666 0.966690
O O9 0.514120 0.156057 0.651986
O O10 0.613450 0.144304 0.706822
O O11 0.542871 0.177226 0.833022
O O12 0.544660 0.000000 0.750000
O O13 0.952535 0.233139 0.987749
O O14 0.139123 0.486077 0.417105
O O15 0.127530 0.676166 0.444201
O O16 0.182316 0.000000 0.750000
#
# Coordination Sequence:
#
# PCOD8296860 Si02
#       8
#    16  16   8  16   8  16  16  16
#     4  12  23  40  69 107 150 204 251 302 365 446
#     4  12  27  48  74 113 156 202 254 308 374 454
#     4  12  24  38  66 108 148 200 252 298 364 452
#     4  11  25  52  78 111 148 198 252 316 387 454
#     4  12  30  50  82 108 148 188 250 332 380 464
#     4  12  24  46  70 107 150 199 246 309 373 447
#     4  11  21  41  70 102 147 195 248 304 369 441
#     4  12  27  52  75 114 144 195 256 307 395 449
#
# _framework density 23.266186000000001
#
# number of rings (size 3 to 8) (size 9 to 14) (size 15 to 20)
#    0.000    0.286    4.286    6.000    4.000    0.571 
#    2.571    0.000    0.000    0.000    0.000    0.000 
#    0.000    0.000    0.000    0.000    0.000    0.000 
#
# Total GULP energy -693950.218950 kJ/mol
# GULP energy per Si atom -12391.968196 kJ/mol
# Density = 2.321323 g / cm^3
# Si number density = 23.266186 Si / 1000 Ang^3
#
#
#
# Elastic Constant Matrix: (Units=GPa)
#
#
# Indices 1 2 3 4 5 6 
#
# 1 80.0192 39.5995 32.7458 0.0000 0.0000 0.0000
# 2 39.5995 117.3136 64.7166 0.0000 0.0000 0.0000
# 3 32.7458 64.7166 171.6218 0.0000 0.0000 0.0000
# 4 0.0000 0.0000 0.0000 40.4286 0.0000 0.0000
# 5 0.0000 0.0000 0.0000 0.0000 44.0373 0.0000
# 6 0.0000 0.0000 0.0000 0.0000 0.0000 23.9911
#
#
#
# Elastic Compliance Matrix: (Units=1/GPa)
#
#
# Indices 1 2 3 4 5 6 
#
# 1 0.015203 -0.004459 -0.001219 0.000000 0.000000 0.000000
# 2 -0.004459 0.012071 -0.003701 0.000000 0.000000 0.000000
# 3 -0.001219 -0.003701 0.007455 0.000000 0.000000 0.000000
# 4 0.000000 0.000000 0.000000 0.024735 0.000000 0.000000
# 5 0.000000 0.000000 0.000000 0.000000 0.022708 0.000000
# 6 0.000000 0.000000 0.000000 0.000000 0.000000 0.041682
#
#
# Mechanical properties :
#
#
# Convention : Reuss Voigt Hill
#
# Bulk Modulus (GPa) = 62.61753 71.45313 67.03533
# Shear Modulus (GPa) = 33.79843 37.15091 35.47467
#
# Velocity S-wave (km/s) = 3.81555 4.00030 3.90902
# Velocity P-wave (km/s) = 6.81052 7.21903 7.01775
#
# Compressibility (1/GPa) = 0.01596997
#
# Stress axis : x y z
#
# Youngs Moduli (GPa) = 65.77805 82.84291 134.13787
#
# Poissons Ratio (x) = 0.36941 0.16354
# Poissons Ratio (y) = 0.29331 0.49645
# Poissons Ratio (z) = 0.08020 0.30661
#
# Static dielectric constant tensor:
#      x y z
#    x 3.664020 0.000000 0.000000 
#    y 0.000000 3.964550 0.000000 
#    z 0.000000 0.000000 4.197970 
# 
# 
# High freq. dielectric constant tensor:
#      x y z
#    x 1.914030 0.000000 0.000000 
#    y 0.000000 1.920810 0.000000 
#    z 0.000000 0.000000 1.940160 
# 
# From -- ./inp_files/20097.got.cif
#   From: 2010.03.12/outbox.cif.g09.slc.cpg/sg73_11_cif.got.tgz:20097.got - 2010.04.16 15:25:48.
