data_PCOD8296545
_publ_section_title
;
Structure prediction by ZEFSAII (Michael W. Deem and Ramdas Pophale) SiO2 
 PCOD8296545
Probable space group: I B C A 
;
_chemical_formula_sum "Si O2"
_cell_formula_units_Z 72
_cell_length_a 21.428862
_cell_length_b 15.715632
_cell_length_c 10.700796
_cell_angle_alpha 90.000000
_cell_angle_beta 90.000000
_cell_angle_gamma 90.000000
_cell_volume 3603.686838
_symmetry_space_group_name_H-M "I B C A "
_symmetry_group_IT_number 73
_symmetry_cell_setting 'orthorhombic'
loop_
_space_group_symop_operation_xyz
x,y,z
-x,1/2-y,z
x,-y,1/2-z
1/2-x,y,-z
-x,-y,-z
x,1/2+y,-z
-x,y,1/2+z
1/2+x,-y,z
1/2+x,1/2+y,1/2+z
1/2-x,-y,1/2+z
1/2+x,1/2-y,-z
-x,1/2+y,1/2-z
1/2-x,1/2-y,1/2-z
1/2+x,y,1/2-z
1/2-x,1/2+y,z
x,1/2-y,1/2+z
loop_
_atom_site_type_symbol
_atom_site_label
_atom_site_fract_x
_atom_site_fract_y
_atom_site_fract_z
Si Si1 0.049186 0.865257 0.405194
Si Si2 0.406625 0.683232 0.628644
Si Si3 0.885574 0.500000 0.250000
Si Si4 0.601290 0.068558 0.653562
Si Si5 0.822214 0.446589 0.498151
O O1 0.095534 0.783986 0.394110
O O2 0.069030 0.924654 0.291618
O O3 0.055036 0.910568 0.539913
O O4 0.977527 0.844528 0.390211
O O5 0.384421 0.655245 0.768889
O O6 0.361495 0.637872 0.530185
O O7 0.839844 0.473189 0.359852
O O8 0.570231 0.000000 0.750000
O O9 0.663214 0.023663 0.595746
O O10 0.750000 0.423477 0.500000
#
# Coordination Sequence:
#
# PCOD8296545 Si02
#       5
#    16  16   8  16  16
#     4  10  23  39  62  98 127 160 213 263 329 376
#     4  10  23  38  65  91 130 166 204 271 316 381
#     4  10  24  38  64  92 124 162 214 264 314 386
#     4   9  21  39  61  87 123 165 203 260 319 368
#     4  10  23  41  63  89 126 170 211 252 314 387
#
# _framework density 19.979537000000001
#
# number of rings (size 3 to 8) (size 9 to 14) (size 15 to 20)
#    0.000    2.222    0.000    0.000   15.556    6.222 
#    0.000    5.556    0.000    0.000    0.000    0.000 
#    0.000    0.000    0.000    0.000    0.000    0.000 
#
# Total GULP energy -446266.540090 kJ/mol
# GULP energy per Si atom -12396.292780 kJ/mol
# Density = 1.993406 g / cm^3
# Si number density = 19.979537 Si / 1000 Ang^3
#
#
#
# Elastic Constant Matrix: (Units=GPa)
#
#
# Indices 1 2 3 4 5 6 
#
# 1 106.2495 57.9699 32.1234 0.0000 0.0000 0.0000
# 2 57.9699 130.3223 61.2732 0.0000 0.0000 0.0000
# 3 32.1234 61.2732 126.5052 0.0000 0.0000 0.0000
# 4 0.0000 0.0000 0.0000 27.1228 0.0000 0.0000
# 5 0.0000 0.0000 0.0000 0.0000 18.2683 0.0000
# 6 0.0000 0.0000 0.0000 0.0000 0.0000 25.0027
#
#
#
# Elastic Compliance Matrix: (Units=1/GPa)
#
#
# Indices 1 2 3 4 5 6 
#
# 1 0.012466 -0.005253 -0.000621 0.000000 0.000000 0.000000
# 2 -0.005253 0.012150 -0.004551 0.000000 0.000000 0.000000
# 3 -0.000621 -0.004551 0.010267 0.000000 0.000000 0.000000
# 4 0.000000 0.000000 0.000000 0.036869 0.000000 0.000000
# 5 0.000000 0.000000 0.000000 0.000000 0.054739 0.000000
# 6 0.000000 0.000000 0.000000 0.000000 0.000000 0.039996
#
#
# Mechanical properties :
#
#
# Convention : Reuss Voigt Hill
#
# Bulk Modulus (GPa) = 71.26467 73.97888 72.62177
# Shear Modulus (GPa) = 26.03987 28.19282 27.11634
#
# Velocity S-wave (km/s) = 3.61408 3.76052 3.68802
# Velocity P-wave (km/s) = 7.29121 7.48084 7.38663
#
# Compressibility (1/GPa) = 0.01403220
#
# Stress axis : x y z
#
# Youngs Moduli (GPa) = 80.22087 82.30785 97.40210
#
# Poissons Ratio (x) = 0.43236 0.06050
# Poissons Ratio (y) = 0.42139 0.44326
# Poissons Ratio (z) = 0.04983 0.37457
#
# Static dielectric constant tensor:
#      x y z
#    x 3.263270 0.000000 0.000000 
#    y 0.000000 4.043900 0.000000 
#    z 0.000000 0.000000 116.984010 
# 
# 
# High freq. dielectric constant tensor:
#      x y z
#    x 1.750450 0.000000 0.000000 
#    y 0.000000 1.782200 0.000000 
#    z 0.000000 0.000000 1.798690 
# 
# From -- ./inp_files/12548.got.cif
#   From: 2010.03.12/outbox.cif.g09.slc.cpg/sg73_7_cif.got.tgz:12548.got - 2010.04.16 15:25:48.
