data_PCOD8296721
_publ_section_title
;
Structure prediction by ZEFSAII (Michael W. Deem and Ramdas Pophale) SiO2 
 PCOD8296721
Probable space group: I B C A 
;
_chemical_formula_sum "Si O2"
_cell_formula_units_Z 96
_cell_length_a 23.918791
_cell_length_b 8.342798
_cell_length_c 21.881589
_cell_angle_alpha 90.000000
_cell_angle_beta 90.000000
_cell_angle_gamma 90.000000
_cell_volume 4366.463245
_symmetry_space_group_name_H-M "I B C A "
_symmetry_group_IT_number 73
_symmetry_cell_setting 'orthorhombic'
loop_
_space_group_symop_operation_xyz
x,y,z
-x,1/2-y,z
x,-y,1/2-z
1/2-x,y,-z
-x,-y,-z
x,1/2+y,-z
-x,y,1/2+z
1/2+x,-y,z
1/2+x,1/2+y,1/2+z
1/2-x,-y,1/2+z
1/2+x,1/2-y,-z
-x,1/2+y,1/2-z
1/2-x,1/2-y,1/2-z
1/2+x,y,1/2-z
1/2-x,1/2+y,z
x,1/2-y,1/2+z
loop_
_atom_site_type_symbol
_atom_site_label
_atom_site_fract_x
_atom_site_fract_y
_atom_site_fract_z
Si Si1 0.778931 0.416457 0.313719
Si Si2 0.568876 0.058526 0.815294
Si Si3 0.058014 0.563738 0.816303
Si Si4 0.321188 0.074923 0.140658
Si Si5 0.312403 0.725457 0.983326
Si Si6 0.646692 0.020431 0.413453
O O1 0.794798 0.500000 0.250000
O O2 0.712181 0.427054 0.327275
O O3 0.804446 0.237567 0.321002
O O4 0.803219 0.534149 0.365247
O O5 0.569349 0.248634 0.818771
O O6 0.505282 0.003947 0.827702
O O7 0.589286 0.000000 0.750000
O O8 0.612990 0.970599 0.859621
O O9 0.078956 0.500000 0.750000
O O10 0.090426 0.494212 0.874584
O O11 0.306086 0.088655 0.068878
O O12 0.348732 0.866583 0.955929
O O13 0.250000 0.782817 0.000000
O O14 0.348334 0.673301 0.042501
#
# Coordination Sequence:
#
# PCOD8296721 Si02
#       6
#    16  16  16  16  16  16
#     4  11  24  40  64 104 140 171 215 290 352 414
#     4  10  24  44  73 102 139 180 226 287 361 427
#     4  10  24  47  72 102 138 180 231 293 357 413
#     4  11  25  41  67 103 134 181 227 279 345 427
#     4  11  24  43  63  99 136 185 234 274 346 408
#     4  11  25  40  70  94 133 182 224 285 331 415
#
# _framework density 21.985757
#
# number of rings (size 3 to 8) (size 9 to 14) (size 15 to 20)
#    0.000    1.333    1.667    2.000   14.000    0.000 
#    0.000    0.833    0.000    0.000    0.000    0.000 
#    0.000    0.000    0.000    0.000    0.000    0.000 
#
# Total GULP energy -594874.264819 kJ/mol
# GULP energy per Si atom -12393.213850 kJ/mol
# Density = 2.193572 g / cm^3
# Si number density = 21.985757 Si / 1000 Ang^3
#
#
#
# Elastic Constant Matrix: (Units=GPa)
#
#
# Indices 1 2 3 4 5 6 
#
# 1 128.0316 43.6152 58.4155 0.0000 0.0000 0.0000
# 2 43.6152 71.4060 47.2579 0.0000 0.0000 0.0000
# 3 58.4155 47.2579 143.8098 0.0000 0.0000 0.0000
# 4 0.0000 0.0000 0.0000 41.2245 0.0000 0.0000
# 5 0.0000 0.0000 0.0000 0.0000 66.6345 0.0000
# 6 0.0000 0.0000 0.0000 0.0000 0.0000 34.2614
#
#
#
# Elastic Compliance Matrix: (Units=1/GPa)
#
#
# Indices 1 2 3 4 5 6 
#
# 1 0.010680 -0.004667 -0.002804 0.000000 0.000000 0.000000
# 2 -0.004667 0.019936 -0.004655 0.000000 0.000000 0.000000
# 3 -0.002804 -0.004655 0.009623 0.000000 0.000000 0.000000
# 4 0.000000 0.000000 0.000000 0.024257 0.000000 0.000000
# 5 0.000000 0.000000 0.000000 0.000000 0.015007 0.000000
# 6 0.000000 0.000000 0.000000 0.000000 0.000000 0.029187
#
#
# Mechanical properties :
#
#
# Convention : Reuss Voigt Hill
#
# Bulk Modulus (GPa) = 62.56085 71.31383 66.93734
# Shear Modulus (GPa) = 36.16004 41.35466 38.75735
#
# Velocity S-wave (km/s) = 4.05989 4.34173 4.20317
# Velocity P-wave (km/s) = 7.10591 7.59216 7.35305
#
# Compressibility (1/GPa) = 0.01598444
#
# Stress axis : x y z
#
# Youngs Moduli (GPa) = 93.63167 50.15952 103.92141
#
# Poissons Ratio (x) = 0.23412 0.29145
# Poissons Ratio (y) = 0.43702 0.48380
# Poissons Ratio (z) = 0.26259 0.23352
#
# Static dielectric constant tensor:
#      x y z
#    x 4.071780 0.000000 0.000000 
#    y 0.000000 3.880540 0.000000 
#    z 0.000000 0.000000 4.280130 
# 
# 
# High freq. dielectric constant tensor:
#      x y z
#    x 1.857000 0.000000 0.000000 
#    y 0.000000 1.864850 0.000000 
#    z 0.000000 0.000000 1.872560 
# 
# From -- ./inp_files/27527.got.cif
#   From: 2010.03.12/outbox.cif.g09.slc.cpg/sg73_14_cif.got.tgz:27527.got - 2010.04.16 15:25:48.
