data_PCOD8296183
_publ_section_title
;
Structure prediction by ZEFSAII (Michael W. Deem and Ramdas Pophale) SiO2 
 PCOD8296183
Probable space group: I B C A 
;
_chemical_formula_sum "Si O2"
_cell_formula_units_Z 96
_cell_length_a 19.701676
_cell_length_b 8.654609
_cell_length_c 28.565733
_cell_angle_alpha 90.000000
_cell_angle_beta 90.000000
_cell_angle_gamma 90.000000
_cell_volume 4870.751773
_symmetry_space_group_name_H-M "I B C A "
_symmetry_group_IT_number 73
_symmetry_cell_setting 'orthorhombic'
loop_
_space_group_symop_operation_xyz
x,y,z
-x,1/2-y,z
x,-y,1/2-z
1/2-x,y,-z
-x,-y,-z
x,1/2+y,-z
-x,y,1/2+z
1/2+x,-y,z
1/2+x,1/2+y,1/2+z
1/2-x,-y,1/2+z
1/2+x,1/2-y,-z
-x,1/2+y,1/2-z
1/2-x,1/2-y,1/2-z
1/2+x,y,1/2-z
1/2-x,1/2+y,z
x,1/2-y,1/2+z
loop_
_atom_site_type_symbol
_atom_site_label
_atom_site_fract_x
_atom_site_fract_y
_atom_site_fract_z
Si Si1 0.816359 0.808723 0.368098
Si Si2 0.327454 0.829959 0.375262
Si Si3 0.071913 0.195835 0.555574
Si Si4 0.876438 0.118867 0.714543
Si Si5 0.930220 0.165316 0.456653
Si Si6 0.570991 0.684655 0.806244
O O1 0.743360 0.753455 0.384921
O O2 0.871852 0.761262 0.406348
O O3 0.831755 0.727790 0.318235
O O4 0.815205 0.991750 0.363809
O O5 0.371289 0.790089 0.420847
O O6 0.365415 0.764420 0.330509
O O7 0.092394 0.284339 0.508312
O O8 0.000000 0.250000 0.576055
O O9 0.061857 0.017460 0.543680
O O10 0.922204 0.221775 0.750224
O O11 0.833572 0.000000 0.750000
O O12 0.924791 0.001718 0.684339
O O13 0.000000 0.250000 0.441835
O O14 0.500000 0.750000 0.825818
#
# Coordination Sequence:
#
# PCOD8296183 Si02
#       6
#    16  16  16  16  16  16
#     4  11  24  41  58  88 120 156 205 243 300 364
#     4  11  24  38  61  86 120 160 197 246 300 354
#     4  10  22  38  62  91 117 158 194 246 300 349
#     4   8  22  40  59  83 119 151 199 246 304 347
#     4  10  21  39  61  91 120 154 199 243 295 360
#     4   9  20  39  60  88 114 153 196 241 301 350
#
# _framework density 19.709482000000001
#
# number of rings (size 3 to 8) (size 9 to 14) (size 15 to 20)
#    1.000    1.000    0.000    3.500    0.000   13.333 
#    0.000    3.333    0.000    0.000    0.000    0.000 
#    0.000    0.000    0.000    0.000    0.000    0.000 
#
# Total GULP energy -594724.883267 kJ/mol
# GULP energy per Si atom -12390.101735 kJ/mol
# Density = 1.966462 g / cm^3
# Si number density = 19.709482 Si / 1000 Ang^3
#
#
#
# Elastic Constant Matrix: (Units=GPa)
#
#
# Indices 1 2 3 4 5 6 
#
# 1 146.7210 62.3036 69.2944 0.0000 0.0000 0.0000
# 2 62.3036 87.5863 57.7675 0.0000 0.0000 0.0000
# 3 69.2944 57.7675 96.3688 0.0000 0.0000 0.0000
# 4 0.0000 0.0000 0.0000 29.2755 0.0000 0.0000
# 5 0.0000 0.0000 0.0000 0.0000 286.6156 0.0000
# 6 0.0000 0.0000 0.0000 0.0000 0.0000 27.3213
#
#
#
# Elastic Compliance Matrix: (Units=1/GPa)
#
#
# Indices 1 2 3 4 5 6 
#
# 1 0.011267 -0.004418 -0.005453 0.000000 0.000000 0.000000
# 2 -0.004418 0.020615 -0.009181 0.000000 0.000000 0.000000
# 3 -0.005453 -0.009181 0.019801 0.000000 0.000000 0.000000
# 4 0.000000 0.000000 0.000000 0.034158 0.000000 0.000000
# 5 0.000000 0.000000 0.000000 0.000000 0.003489 0.000000
# 6 0.000000 0.000000 0.000000 0.000000 0.000000 0.036602
#
#
# Mechanical properties :
#
#
# Convention : Reuss Voigt Hill
#
# Bulk Modulus (GPa) = 73.64090 78.82303 76.23196
# Shear Modulus (GPa) = 29.66230 78.06316 53.86273
#
# Velocity S-wave (km/s) = 3.88361 6.30023 5.23332
# Velocity P-wave (km/s) = 7.58645 9.64381 8.67633
#
# Compressibility (1/GPa) = 0.01357941
#
# Stress axis : x y z
#
# Youngs Moduli (GPa) = 88.75202 48.50770 50.50123
#
# Poissons Ratio (x) = 0.21431 0.27541
# Poissons Ratio (y) = 0.39211 0.46364
# Poissons Ratio (z) = 0.48400 0.44534
#
# Static dielectric constant tensor:
#      x y z
#    x 3.489490 0.000000 0.000000 
#    y 0.000000 3.668560 0.000000 
#    z 0.000000 0.000000 3.609370 
# 
# 
# High freq. dielectric constant tensor:
#      x y z
#    x 1.756410 0.000000 0.000000 
#    y 0.000000 1.778340 0.000000 
#    z 0.000000 0.000000 1.771060 
# 
# From -- ./inp_files/32616.got.cif
#   From: 2010.03.12/outbox.cif.g09.slc.cpg/sg73_17_cif.got.tgz:32616.got - 2010.04.16 15:25:48.
