data_PCOD8296948
_publ_section_title
;
Structure prediction by ZEFSAII (Michael W. Deem and Ramdas Pophale) SiO2 
 PCOD8296948
Probable space group: I B C A 
;
_chemical_formula_sum "Si O2"
_cell_formula_units_Z 88
_cell_length_a 9.502707
_cell_length_b 26.098438
_cell_length_c 16.001460
_cell_angle_alpha 90.000000
_cell_angle_beta 90.000000
_cell_angle_gamma 90.000000
_cell_volume 3968.455040
_symmetry_space_group_name_H-M "I B C A "
_symmetry_group_IT_number 73
_symmetry_cell_setting 'orthorhombic'
loop_
_space_group_symop_operation_xyz
x,y,z
-x,1/2-y,z
x,-y,1/2-z
1/2-x,y,-z
-x,-y,-z
x,1/2+y,-z
-x,y,1/2+z
1/2+x,-y,z
1/2+x,1/2+y,1/2+z
1/2-x,-y,1/2+z
1/2+x,1/2-y,-z
-x,1/2+y,1/2-z
1/2-x,1/2-y,1/2-z
1/2+x,y,1/2-z
1/2-x,1/2+y,z
x,1/2-y,1/2+z
loop_
_atom_site_type_symbol
_atom_site_label
_atom_site_fract_x
_atom_site_fract_y
_atom_site_fract_z
Si Si1 0.821078 0.836177 0.586980
Si Si2 0.533343 0.476026 0.409672
Si Si3 0.897603 0.607789 0.305328
Si Si4 0.500000 0.750000 0.346775
Si Si5 0.164638 0.444668 0.853575
Si Si6 0.342449 0.830071 0.256190
O O1 0.750000 0.823434 0.500000
O O2 0.872387 0.895314 0.588520
O O3 0.712733 0.827017 0.661986
O O4 0.949323 0.796658 0.595277
O O5 0.500000 0.500000 0.500000
O O6 0.458181 0.420828 0.387956
O O7 0.698990 0.472129 0.393742
O O8 0.467195 0.517393 0.347855
O O9 0.811146 0.569918 0.242902
O O10 0.774915 0.649418 0.323521
O O11 0.019202 0.633804 0.248546
O O12 0.379597 0.772982 0.286672
#
# Coordination Sequence:
#
# PCOD8296948 Si02
#       6
#    16  16  16   8  16  16
#     4  11  24  45  68 102 150 185 233 307 366 410
#     4  12  25  43  69 103 140 180 235 292 359 422
#     4  11  23  44  71 101 137 190 234 288 352 426
#     4  12  24  46  72 110 138 190 256 296 354 436
#     4  11  25  44  66  99 139 186 232 288 351 429
#     4  11  23  45  76 103 139 189 245 295 352 433
#
# _framework density 22.174878
#
# number of rings (size 3 to 8) (size 9 to 14) (size 15 to 20)
#    0.000    0.727    7.273    2.727    2.545    2.182 
#    0.000    0.000    0.000    0.000    0.000    0.000 
#    0.000    0.000    0.000    0.000    0.000    0.000 
#
# Total GULP energy -545265.010495 kJ/mol
# GULP energy per Si atom -12392.386602 kJ/mol
# Density = 2.212441 g / cm^3
# Si number density = 22.174878 Si / 1000 Ang^3
#
#
#
# Elastic Constant Matrix: (Units=GPa)
#
#
# Indices 1 2 3 4 5 6 
#
# 1 115.9370 60.3817 16.5847 -0.0004 -0.0001 0.0000
# 2 60.3817 118.8323 17.0228 -0.0004 -0.0001 0.0000
# 3 16.5847 17.0228 76.3899 -0.0024 -0.0001 -0.0001
# 4 -0.0004 -0.0004 -0.0024 24.2969 -0.0001 -0.0001
# 5 -0.0001 -0.0001 -0.0001 -0.0001 29.3958 -0.0002
# 6 0.0000 0.0000 -0.0001 -0.0001 -0.0002 58.7322
#
#
#
# Elastic Compliance Matrix: (Units=1/GPa)
#
#
# Indices 1 2 3 4 5 6 
#
# 1 0.011848 -0.005838 -0.001271 0.000000 0.000000 0.000000
# 2 -0.005838 0.011569 -0.001311 0.000000 0.000000 0.000000
# 3 -0.001271 -0.001311 0.013659 0.000001 0.000000 0.000000
# 4 0.000000 0.000000 0.000001 0.041157 0.000000 0.000000
# 5 0.000000 0.000000 0.000000 0.000000 0.034018 0.000000
# 6 0.000000 0.000000 0.000000 0.000000 0.000000 0.017026
#
#
# Mechanical properties :
#
#
# Convention : Reuss Voigt Hill
#
# Bulk Modulus (GPa) = 49.41675 55.45973 52.43824
# Shear Modulus (GPa) = 32.70888 36.96298 34.83593
#
# Velocity S-wave (km/s) = 3.84479 4.08718 3.96784
# Velocity P-wave (km/s) = 6.48408 6.88025 6.68510
#
# Compressibility (1/GPa) = 0.02023605
#
# Stress axis : x y z
#
# Youngs Moduli (GPa) = 84.40412 86.43465 73.21279
#
# Poissons Ratio (x) = 0.50461 0.09307
# Poissons Ratio (y) = 0.49275 0.09596
# Poissons Ratio (z) = 0.10730 0.11329
#
# Static dielectric constant tensor:
#      x y z
#    x 4.252910 0.000000 0.000000 
#    y 0.000000 4.463280 0.000000 
#    z 0.000000 0.000000 3.761490 
# 
# 
# High freq. dielectric constant tensor:
#      x y z
#    x 1.878190 0.000000 0.000000 
#    y 0.000000 1.886070 0.000000 
#    z 0.000000 0.000000 1.846940 
# 
# From -- ./inp_files/20823.got.cif
#   From: 2010.03.12/outbox.cif.g09.slc.cpg/sg73_11_cif.got.tgz:20823.got - 2010.04.16 15:25:48.
