data_PCOD8296626
_publ_section_title
;
Structure prediction by ZEFSAII (Michael W. Deem and Ramdas Pophale) SiO2 
 PCOD8296626
Probable space group: I B C A 
;
_chemical_formula_sum "Si O2"
_cell_formula_units_Z 120
_cell_length_a 11.646532
_cell_length_b 16.152866
_cell_length_c 27.452588
_cell_angle_alpha 90.000000
_cell_angle_beta 90.000000
_cell_angle_gamma 90.000000
_cell_volume 5164.514570
_symmetry_space_group_name_H-M "I B C A "
_symmetry_group_IT_number 73
_symmetry_cell_setting 'orthorhombic'
loop_
_space_group_symop_operation_xyz
x,y,z
-x,1/2-y,z
x,-y,1/2-z
1/2-x,y,-z
-x,-y,-z
x,1/2+y,-z
-x,y,1/2+z
1/2+x,-y,z
1/2+x,1/2+y,1/2+z
1/2-x,-y,1/2+z
1/2+x,1/2-y,-z
-x,1/2+y,1/2-z
1/2-x,1/2-y,1/2-z
1/2+x,y,1/2-z
1/2-x,1/2+y,z
x,1/2-y,1/2+z
loop_
_atom_site_type_symbol
_atom_site_label
_atom_site_fract_x
_atom_site_fract_y
_atom_site_fract_z
Si Si1 0.273869 0.161013 0.686907
Si Si2 0.858296 0.496007 0.807642
Si Si3 0.512913 0.591217 0.978888
Si Si4 0.663780 0.414858 0.862322
Si Si5 0.250000 0.168817 0.500000
Si Si6 0.389895 0.697798 0.214031
Si Si7 0.389285 0.295067 0.444088
Si Si8 0.048961 0.923415 0.127225
O O1 0.187503 0.085526 0.675826
O O2 0.331771 0.154121 0.739892
O O3 0.202925 0.246015 0.684285
O O4 0.378400 0.155250 0.647510
O O5 0.869673 0.500000 0.750000
O O6 0.775776 0.423645 0.828240
O O7 0.978715 0.468266 0.829897
O O8 0.476713 0.597763 0.921572
O O9 0.500000 0.500000 0.000000
O O10 0.647681 0.612245 0.980219
O O11 0.434011 0.655826 0.007986
O O12 0.571560 0.373264 0.824425
O O13 0.678490 0.354233 0.907842
O O14 0.634117 0.501912 0.886900
O O15 0.296328 0.225880 0.456659
O O16 0.500000 0.750000 0.231548
O O17 0.500000 0.250000 0.419638
#
# Coordination Sequence:
#
# PCOD8296626 Si02
#       8
#    16  16  16  16   8  16  16  16
#     4  10  25  43  63 100 136 178 236 281 355 417
#     4  11  24  43  68  95 138 181 232 288 346 413
#     4  11  24  48  70 106 139 182 245 290 364 436
#     4  11  23  42  67 101 130 184 231 283 348 430
#     4  10  26  44  76  96 148 188 218 318 364 432
#     4  11  23  41  68  98 138 182 227 291 350 426
#     4  10  23  45  70 105 142 183 231 290 372 439
#     4  11  26  41  70 101 135 183 234 295 348 422
#
# _framework density 23.235484
#
# number of rings (size 3 to 8) (size 9 to 14) (size 15 to 20)
#    0.000    1.333    2.667    1.200    7.467    2.667 
#    0.000    2.000    0.000    0.000    0.000    0.000 
#    0.000    0.000    0.000    0.000    0.000    0.000 
#
# Total GULP energy -743603.822392 kJ/mol
# GULP energy per Si atom -12393.397040 kJ/mol
# Density = 2.318260 g / cm^3
# Si number density = 23.235484 Si / 1000 Ang^3
#
#
#
# Elastic Constant Matrix: (Units=GPa)
#
#
# Indices 1 2 3 4 5 6 
#
# 1 83.6287 36.5571 38.5252 0.0000 0.0000 0.0000
# 2 36.5571 98.6808 41.1451 0.0000 0.0000 0.0000
# 3 38.5252 41.1451 136.3165 0.0000 0.0000 0.0000
# 4 0.0000 0.0000 0.0000 43.6170 0.0000 0.0000
# 5 0.0000 0.0000 0.0000 0.0000 26.8502 0.0000
# 6 0.0000 0.0000 0.0000 0.0000 0.0000 36.1698
#
#
#
# Elastic Compliance Matrix: (Units=1/GPa)
#
#
# Indices 1 2 3 4 5 6 
#
# 1 0.015259 -0.004410 -0.002981 0.000000 0.000000 0.000000
# 2 -0.004410 0.012867 -0.002637 0.000000 0.000000 0.000000
# 3 -0.002981 -0.002637 0.008975 0.000000 0.000000 0.000000
# 4 0.000000 0.000000 0.000000 0.022927 0.000000 0.000000
# 5 0.000000 0.000000 0.000000 0.000000 0.037244 0.000000
# 6 0.000000 0.000000 0.000000 0.000000 0.000000 0.027647
#
#
# Mechanical properties :
#
#
# Convention : Reuss Voigt Hill
#
# Bulk Modulus (GPa) = 58.67426 61.23119 59.95273
# Shear Modulus (GPa) = 33.18819 34.82063 34.00441
#
# Velocity S-wave (km/s) = 3.78344 3.87537 3.82968
# Velocity P-wave (km/s) = 6.66279 6.81427 6.73896
#
# Compressibility (1/GPa) = 0.01704325
#
# Stress axis : x y z
#
# Youngs Moduli (GPa) = 65.53662 77.71842 111.42645
#
# Poissons Ratio (x) = 0.34271 0.33220
# Poissons Ratio (y) = 0.28899 0.29388
# Poissons Ratio (z) = 0.19539 0.20498
#
# Static dielectric constant tensor:
#      x y z
#    x 4.171480 0.000000 0.000000 
#    y 0.000000 4.307080 0.000000 
#    z 0.000000 0.000000 4.105510 
# 
# 
# High freq. dielectric constant tensor:
#      x y z
#    x 1.909400 0.000000 0.000000 
#    y 0.000000 1.928730 0.000000 
#    z 0.000000 0.000000 1.918960 
# 
# From -- ./inp_files/31822.got.cif
#   From: 2010.03.12/outbox.cif.g09.slc.cpg/sg73_16_cif.got.tgz:31822.got - 2010.04.16 15:25:48.
