data_PCOD8296114
_publ_section_title
;
Structure prediction by ZEFSAII (Michael W. Deem and Ramdas Pophale) SiO2 
 PCOD8296114
Probable space group: I B C A 
;
_chemical_formula_sum "Si O2"
_cell_formula_units_Z 88
_cell_length_a 10.224963
_cell_length_b 13.984590
_cell_length_c 28.090596
_cell_angle_alpha 90.000000
_cell_angle_beta 90.000000
_cell_angle_gamma 90.000000
_cell_volume 4016.728125
_symmetry_space_group_name_H-M "I B C A "
_symmetry_group_IT_number 73
_symmetry_cell_setting 'orthorhombic'
loop_
_space_group_symop_operation_xyz
x,y,z
-x,1/2-y,z
x,-y,1/2-z
1/2-x,y,-z
-x,-y,-z
x,1/2+y,-z
-x,y,1/2+z
1/2+x,-y,z
1/2+x,1/2+y,1/2+z
1/2-x,-y,1/2+z
1/2+x,1/2-y,-z
-x,1/2+y,1/2-z
1/2-x,1/2-y,1/2-z
1/2+x,y,1/2-z
1/2-x,1/2+y,z
x,1/2-y,1/2+z
loop_
_atom_site_type_symbol
_atom_site_label
_atom_site_fract_x
_atom_site_fract_y
_atom_site_fract_z
Si Si1 0.103865 0.325023 0.495893
Si Si2 0.895223 0.174828 0.695042
Si Si3 0.502942 0.000000 0.250000
Si Si4 0.894098 0.831554 0.188359
Si Si5 0.139088 0.440087 0.404444
Si Si6 0.572608 0.407247 0.902405
O O1 0.250000 0.280333 0.500000
O O2 0.105856 0.411394 0.458459
O O3 0.052066 0.358746 0.546792
O O4 0.000000 0.250000 0.475688
O O5 0.747120 0.210347 0.704408
O O6 0.920542 0.172400 0.638491
O O7 0.000000 0.250000 0.717669
O O8 0.908969 0.068458 0.716850
O O9 0.417308 0.069433 0.216641
O O10 0.891773 0.854045 0.132060
O O11 0.000000 0.750000 0.199235
O O12 0.292488 0.468640 0.401632
O O13 0.052829 0.529882 0.390189
#
# Coordination Sequence:
#
# PCOD8296114 Si02
#       6
#    16  16   8  16  16  16
#     4  10  21  36  58  88 124 160 203 249 301 367
#     4  11  25  43  66  95 127 165 210 260 316 376
#     4  12  24  44  68  90 126 164 214 262 322 368
#     4  11  25  43  66  95 127 165 210 260 316 376
#     4  10  21  39  61  90 123 161 205 252 306 368
#     4  10  21  39  61  90 123 161 205 252 306 368
#
# _framework density 21.908379
#
# number of rings (size 3 to 8) (size 9 to 14) (size 15 to 20)
#    0.000    1.455    1.818    2.727    0.000    7.273 
#    0.000    0.000    0.000    0.000    0.000    0.000 
#    0.000    0.000    0.000    0.000    0.000    0.000 
#
# Total GULP energy -545552.192075 kJ/mol
# GULP energy per Si atom -12398.913456 kJ/mol
# Density = 2.185851 g / cm^3
# Si number density = 21.908379 Si / 1000 Ang^3
#
#
#
# Elastic Constant Matrix: (Units=GPa)
#
#
# Indices 1 2 3 4 5 6 
#
# 1 152.6276 55.9758 4.6900 0.0000 0.0000 0.0000
# 2 55.9758 86.6700 12.2632 0.0000 0.0000 0.0000
# 3 4.6900 12.2632 106.2361 0.0000 0.0000 0.0000
# 4 0.0000 0.0000 0.0000 23.1137 0.0000 0.0000
# 5 0.0000 0.0000 0.0000 0.0000 112.9152 0.0000
# 6 0.0000 0.0000 0.0000 0.0000 0.0000 42.1652
#
#
#
# Elastic Compliance Matrix: (Units=1/GPa)
#
#
# Indices 1 2 3 4 5 6 
#
# 1 0.008593 -0.005587 0.000266 0.000000 0.000000 0.000000
# 2 -0.005587 0.015363 -0.001527 0.000000 0.000000 0.000000
# 3 0.000266 -0.001527 0.009578 0.000000 0.000000 0.000000
# 4 0.000000 0.000000 0.000000 0.043264 0.000000 0.000000
# 5 0.000000 0.000000 0.000000 0.000000 0.008856 0.000000
# 6 0.000000 0.000000 0.000000 0.000000 0.000000 0.023716
#
#
# Mechanical properties :
#
#
# Convention : Reuss Voigt Hill
#
# Bulk Modulus (GPa) = 50.41284 54.59907 52.50596
# Shear Modulus (GPa) = 38.55688 53.81247 46.18467
#
# Velocity S-wave (km/s) = 4.19968 4.96143 4.59637
# Velocity P-wave (km/s) = 6.82475 7.60242 7.22406
#
# Compressibility (1/GPa) = 0.01983622
#
# Stress axis : x y z
#
# Youngs Moduli (GPa) = 116.37580 65.09326 104.41135
#
# Poissons Ratio (x) = 0.36369 -0.02773
# Poissons Ratio (y) = 0.65022 0.15940
# Poissons Ratio (z) = -0.03091 0.09938
#
# Static dielectric constant tensor:
#      x y z
#    x 4.061910 0.000000 0.000000 
#    y 0.000000 3.479750 0.000000 
#    z 0.000000 0.000000 4.215140 
# 
# 
# High freq. dielectric constant tensor:
#      x y z
#    x 1.870850 0.000000 0.000000 
#    y 0.000000 1.826950 0.000000 
#    z 0.000000 0.000000 1.891920 
# 
# From -- ./inp_files/14692.got.cif
#   From: 2010.03.12/outbox.cif.g09.slc.cpg/sg73_8_cif.got.tgz:14692.got - 2010.04.16 15:25:48.
