data_PCOD8296382
_publ_section_title
;
Structure prediction by ZEFSAII (Michael W. Deem and Ramdas Pophale) SiO2 
 PCOD8296382
Probable space group: I B C A 
;
_chemical_formula_sum "Si O2"
_cell_formula_units_Z 88
_cell_length_a 24.729409
_cell_length_b 11.680300
_cell_length_c 13.677745
_cell_angle_alpha 90.000000
_cell_angle_beta 90.000000
_cell_angle_gamma 90.000000
_cell_volume 3950.774460
_symmetry_space_group_name_H-M "I B C A "
_symmetry_group_IT_number 73
_symmetry_cell_setting 'orthorhombic'
loop_
_space_group_symop_operation_xyz
x,y,z
-x,1/2-y,z
x,-y,1/2-z
1/2-x,y,-z
-x,-y,-z
x,1/2+y,-z
-x,y,1/2+z
1/2+x,-y,z
1/2+x,1/2+y,1/2+z
1/2-x,-y,1/2+z
1/2+x,1/2-y,-z
-x,1/2+y,1/2-z
1/2-x,1/2-y,1/2-z
1/2+x,y,1/2-z
1/2-x,1/2+y,z
x,1/2-y,1/2+z
loop_
_atom_site_type_symbol
_atom_site_label
_atom_site_fract_x
_atom_site_fract_y
_atom_site_fract_z
Si Si1 0.778375 0.038571 0.411206
Si Si2 0.877206 0.189373 0.355073
Si Si3 0.059886 0.452408 0.506369
Si Si4 0.883254 0.315665 0.167579
Si Si5 0.195800 0.000000 0.250000
Si Si6 0.853314 0.857726 0.491664
O O1 0.750000 0.113375 0.500000
O O2 0.825586 0.103183 0.350405
O O3 0.734620 0.980949 0.341541
O O4 0.801448 0.933121 0.473173
O O5 0.926250 0.139584 0.421156
O O6 0.902881 0.221287 0.248529
O O7 0.853256 0.306154 0.399862
O O8 0.071016 0.394703 0.614055
O O9 0.094094 0.564080 0.484138
O O10 0.000000 0.500000 0.500000
O O11 0.840631 0.391234 0.226128
O O12 0.853171 0.247906 0.082824
#
# Coordination Sequence:
#
# PCOD8296382 Si02
#       6
#    16  16  16  16   8  16
#     4  11  22  36  59  92 131 176 221 264 314 377
#     4  10  22  40  63  93 129 169 213 264 320 379
#     4  10  23  45  68  92 126 164 210 269 324 385
#     4  11  23  41  63  92 128 166 211 266 322 384
#     4  12  24  38  60  94 130 170 220 266 316 378
#     4  10  22  41  62  89 130 170 214 267 318 378
#
# _framework density 22.274114000000001
#
# number of rings (size 3 to 8) (size 9 to 14) (size 15 to 20)
#    0.000    1.455    0.000    6.545    0.000   11.636 
#    0.000    9.091    0.000    0.000    0.000    0.000 
#    0.000    0.000    0.000    0.000    0.000    0.000 
#
# Total GULP energy -545093.958845 kJ/mol
# GULP energy per Si atom -12388.499065 kJ/mol
# Density = 2.222342 g / cm^3
# Si number density = 22.274114 Si / 1000 Ang^3
#
#
#
# Elastic Constant Matrix: (Units=GPa)
#
#
# Indices 1 2 3 4 5 6 
#
# 1 121.5057 41.0411 65.2680 0.0000 0.0000 0.0000
# 2 41.0411 85.3183 34.0638 0.0000 0.0000 0.0000
# 3 65.2680 34.0638 140.7617 0.0000 0.0000 0.0000
# 4 0.0000 0.0000 0.0000 41.1683 0.0000 0.0000
# 5 0.0000 0.0000 0.0000 0.0000 23.6618 0.0000
# 6 0.0000 0.0000 0.0000 0.0000 0.0000 4.6918
#
#
#
# Elastic Compliance Matrix: (Units=1/GPa)
#
#
# Indices 1 2 3 4 5 6 
#
# 1 0.012052 -0.003948 -0.004633 0.000000 0.000000 0.000000
# 2 -0.003948 0.014267 -0.001622 0.000000 0.000000 0.000000
# 3 -0.004633 -0.001622 0.009645 0.000000 0.000000 0.000000
# 4 0.000000 0.000000 0.000000 0.024291 0.000000 0.000000
# 5 0.000000 0.000000 0.000000 0.000000 0.042262 0.000000
# 6 0.000000 0.000000 0.000000 0.000000 0.000000 0.213139
#
#
# Mechanical properties :
#
#
# Convention : Reuss Voigt Hill
#
# Bulk Modulus (GPa) = 64.27243 69.81462 67.04353
# Shear Modulus (GPa) = 14.65210 27.71858 21.18534
#
# Velocity S-wave (km/s) = 2.56756 3.53147 3.08737
# Velocity P-wave (km/s) = 6.14066 6.93108 6.54781
#
# Compressibility (1/GPa) = 0.01555877
#
# Stress axis : x y z
#
# Youngs Moduli (GPa) = 82.97274 70.08940 103.68097
#
# Poissons Ratio (x) = 0.27670 0.48035
# Poissons Ratio (y) = 0.32756 0.16819
# Poissons Ratio (z) = 0.38441 0.11370
#
# Static dielectric constant tensor:
#      x y z
#    x 3.853450 0.000000 0.000000 
#    y 0.000000 4.208620 0.000000 
#    z 0.000000 0.000000 4.312600 
# 
# 
# High freq. dielectric constant tensor:
#      x y z
#    x 1.850830 0.000000 0.000000 
#    y 0.000000 1.884650 0.000000 
#    z 0.000000 0.000000 1.896200 
# 
# From -- ./inp_files/19228.got.cif
#   From: 2010.03.12/outbox.cif.g09.slc.cpg/sg73_10_cif.got.tgz:19228.got - 2010.04.16 15:25:48.
