data_PCOD8296679
_publ_section_title
;
Structure prediction by ZEFSAII (Michael W. Deem and Ramdas Pophale) SiO2 
 PCOD8296679
Probable space group: I B C A 
;
_chemical_formula_sum "Si O2"
_cell_formula_units_Z 120
_cell_length_a 12.109624
_cell_length_b 26.195375
_cell_length_c 17.575401
_cell_angle_alpha 90.000000
_cell_angle_beta 90.000000
_cell_angle_gamma 90.000000
_cell_volume 5575.200896
_symmetry_space_group_name_H-M "I B C A "
_symmetry_group_IT_number 73
_symmetry_cell_setting 'orthorhombic'
loop_
_space_group_symop_operation_xyz
x,y,z
-x,1/2-y,z
x,-y,1/2-z
1/2-x,y,-z
-x,-y,-z
x,1/2+y,-z
-x,y,1/2+z
1/2+x,-y,z
1/2+x,1/2+y,1/2+z
1/2-x,-y,1/2+z
1/2+x,1/2-y,-z
-x,1/2+y,1/2-z
1/2-x,1/2-y,1/2-z
1/2+x,y,1/2-z
1/2-x,1/2+y,z
x,1/2-y,1/2+z
loop_
_atom_site_type_symbol
_atom_site_label
_atom_site_fract_x
_atom_site_fract_y
_atom_site_fract_z
Si Si1 0.397092 0.395944 0.676426
Si Si2 0.158488 0.373037 0.612063
Si Si3 0.750000 0.442348 0.000000
Si Si4 0.552734 0.301711 0.679603
Si Si5 0.426704 0.408073 0.843473
Si Si6 0.882280 0.732688 0.347694
Si Si7 0.063775 0.512773 0.077144
Si Si8 0.759324 0.672513 0.909594
O O1 0.271473 0.391393 0.649575
O O2 0.451609 0.340719 0.687393
O O3 0.381956 0.418284 0.760025
O O4 0.469217 0.434930 0.622993
O O5 0.152788 0.405393 0.533649
O O6 0.164472 0.312403 0.598623
O O7 0.046501 0.380808 0.660383
O O8 0.693665 0.479856 0.060160
O O9 0.500000 0.250000 0.643575
O O10 0.610134 0.286289 0.759966
O O11 0.636092 0.331867 0.623763
O O12 0.450027 0.464224 0.871776
O O13 0.337427 0.376516 0.893738
O O14 0.802449 0.780066 0.359903
O O15 0.000000 0.750000 0.379306
O O16 0.000000 0.500000 0.000000
O O17 0.750000 0.681856 0.000000
#
# Coordination Sequence:
#
# PCOD8296679 Si02
#       8
#    16  16   8  16  16  16  16  16
#     4  11  25  45  72 106 132 191 243 285 368 437
#     4  11  22  43  70  97 139 178 234 284 350 435
#     4  10  24  42  66  98 126 198 216 284 372 416
#     4  11  23  45  72 101 140 185 233 294 351 433
#     4  12  24  47  69 101 144 183 237 303 359 423
#     4  11  21  43  69  98 137 186 225 285 348 420
#     4  11  25  44  71  97 143 182 239 299 363 434
#     4  12  28  41  68 110 143 188 235 294 368 426
#
# _framework density 21.523889
#
# number of rings (size 3 to 8) (size 9 to 14) (size 15 to 20)
#    0.000    0.800    4.000    3.200    3.733    0.533 
#    0.000    1.333    0.000    0.000    0.000    0.000 
#    0.000    0.000    0.000    0.000    0.000    0.000 
#
# Total GULP energy -743432.698158 kJ/mol
# GULP energy per Si atom -12390.544969 kJ/mol
# Density = 2.147490 g / cm^3
# Si number density = 21.523889 Si / 1000 Ang^3
#
#
#
# Elastic Constant Matrix: (Units=GPa)
#
#
# Indices 1 2 3 4 5 6 
#
# 1 94.0811 28.9296 32.7446 0.0000 0.0000 0.0000
# 2 28.9296 118.7450 38.0127 0.0001 0.0000 0.0000
# 3 32.7446 38.0127 103.1009 0.0002 0.0000 0.0000
# 4 0.0000 0.0001 0.0002 34.2836 0.0000 0.0000
# 5 0.0000 0.0000 0.0000 0.0000 29.5897 0.0000
# 6 0.0000 0.0000 0.0000 0.0000 0.0000 39.4941
#
#
#
# Elastic Compliance Matrix: (Units=1/GPa)
#
#
# Indices 1 2 3 4 5 6 
#
# 1 0.012351 -0.001988 -0.003190 0.000000 0.000000 0.000000
# 2 -0.001988 0.009868 -0.003007 0.000000 0.000000 0.000000
# 3 -0.003190 -0.003007 0.011821 0.000000 0.000000 0.000000
# 4 0.000000 0.000000 0.000000 0.029168 0.000000 0.000000
# 5 0.000000 0.000000 0.000000 0.000000 0.033796 0.000000
# 6 0.000000 0.000000 0.000000 0.000000 0.000000 0.025320
#
#
# Mechanical properties :
#
#
# Convention : Reuss Voigt Hill
#
# Bulk Modulus (GPa) = 56.59068 57.25564 56.92316
# Shear Modulus (GPa) = 34.58214 35.08948 34.83581
#
# Velocity S-wave (km/s) = 4.01270 4.04203 4.02739
# Velocity P-wave (km/s) = 6.91506 6.96008 6.93761
#
# Compressibility (1/GPa) = 0.01767075
#
# Stress axis : x y z
#
# Youngs Moduli (GPa) = 80.96832 101.33431 84.59578
#
# Poissons Ratio (x) = 0.20144 0.26982
# Poissons Ratio (y) = 0.16096 0.25438
# Poissons Ratio (z) = 0.25825 0.30472
#
# Static dielectric constant tensor:
#      x y z
#    x 4.001220 0.000000 0.000000 
#    y 0.000000 4.233980 0.000000 
#    z 0.000000 0.000000 4.056660 
# 
# 
# High freq. dielectric constant tensor:
#      x y z
#    x 1.846580 0.000000 0.000000 
#    y 0.000000 1.860350 0.000000 
#    z 0.000000 0.000000 1.838700 
# 
# From -- ./inp_files/21499.got.cif
#   From: 2010.03.12/outbox.cif.g09.slc.cpg/sg73_11_cif.got.tgz:21499.got - 2010.04.16 15:25:48.
