data_PCOD8296231
_publ_section_title
;
Structure prediction by ZEFSAII (Michael W. Deem and Ramdas Pophale) SiO2 
 PCOD8296231
Probable space group: I B C A 
;
_chemical_formula_sum "Si O2"
_cell_formula_units_Z 80
_cell_length_a 9.957197
_cell_length_b 26.251995
_cell_length_c 14.590462
_cell_angle_alpha 90.000000
_cell_angle_beta 90.000000
_cell_angle_gamma 90.000000
_cell_volume 3813.892576
_symmetry_space_group_name_H-M "I B C A "
_symmetry_group_IT_number 73
_symmetry_cell_setting 'orthorhombic'
loop_
_space_group_symop_operation_xyz
x,y,z
-x,1/2-y,z
x,-y,1/2-z
1/2-x,y,-z
-x,-y,-z
x,1/2+y,-z
-x,y,1/2+z
1/2+x,-y,z
1/2+x,1/2+y,1/2+z
1/2-x,-y,1/2+z
1/2+x,1/2-y,-z
-x,1/2+y,1/2-z
1/2-x,1/2-y,1/2-z
1/2+x,y,1/2-z
1/2-x,1/2+y,z
x,1/2-y,1/2+z
loop_
_atom_site_type_symbol
_atom_site_label
_atom_site_fract_x
_atom_site_fract_y
_atom_site_fract_z
Si Si1 0.265155 0.550643 0.647073
Si Si2 0.410003 0.200433 0.495750
Si Si3 0.509953 0.380927 0.855579
Si Si4 0.468312 0.621476 0.356847
Si Si5 0.262795 0.061612 0.140101
O O1 0.415503 0.570166 0.635378
O O2 0.156956 0.588959 0.603339
O O3 0.230484 0.551162 0.754200
O O4 0.257178 0.495385 0.597936
O O5 0.500000 0.250000 0.483193
O O6 0.250000 0.212641 0.500000
O O7 0.443087 0.165911 0.407797
O O8 0.462960 0.174241 0.588598
O O9 0.534045 0.364226 0.750346
O O10 0.649711 0.400262 0.900385
O O11 0.597247 0.588040 0.381132
#
# Coordination Sequence:
#
# PCOD8296231 Si02
#       5
#    16  16  16  16  16
#     4   9  16  35  59  96 133 173 200 244 300 370
#     4  12  28  48  67  89 122 162 213 275 327 372
#     4  10  21  40  65  94 129 167 207 254 309 372
#     4  10  21  40  65  94 129 167 207 254 309 372
#     4   9  18  31  63  96 133 167 206 240 302 374
#
# _framework density 20.975943999999998
#
# number of rings (size 3 to 8) (size 9 to 14) (size 15 to 20)
#    0.000    2.000    2.000    1.200    2.800    5.600 
#    0.000    8.000    0.000    0.000    0.000    0.000 
#    0.000    0.000    0.000    0.000    0.000    0.000 
#
# Total GULP energy -495824.206505 kJ/mol
# GULP energy per Si atom -12395.605163 kJ/mol
# Density = 2.092820 g / cm^3
# Si number density = 20.975944 Si / 1000 Ang^3
#
#
#
# Elastic Constant Matrix: (Units=GPa)
#
#
# Indices 1 2 3 4 5 6 
#
# 1 116.2595 35.8545 20.6749 -0.0001 0.0000 0.0000
# 2 35.8545 113.9492 33.0891 0.0002 0.0000 0.0000
# 3 20.6749 33.0891 71.8119 0.0026 0.0005 0.0003
# 4 -0.0001 0.0002 0.0026 34.9579 -0.0003 -0.0002
# 5 0.0000 0.0000 0.0005 -0.0003 18.3879 0.0000
# 6 0.0000 0.0000 0.0003 -0.0002 0.0000 28.7424
#
#
#
# Elastic Compliance Matrix: (Units=1/GPa)
#
#
# Indices 1 2 3 4 5 6 
#
# 1 0.009682 -0.002583 -0.001597 0.000000 0.000000 0.000000
# 2 -0.002583 0.010820 -0.004242 0.000000 0.000000 0.000000
# 3 -0.001597 -0.004242 0.016340 -0.000001 0.000000 0.000000
# 4 0.000000 0.000000 -0.000001 0.028606 0.000001 0.000000
# 5 0.000000 0.000000 0.000000 0.000001 0.054383 0.000000
# 6 0.000000 0.000000 0.000000 0.000000 0.000000 0.034792
#
#
# Mechanical properties :
#
#
# Convention : Reuss Voigt Hill
#
# Bulk Modulus (GPa) = 50.00583 53.47308 51.73945
# Shear Modulus (GPa) = 28.06879 30.57779 29.32329
#
# Velocity S-wave (km/s) = 3.66203 3.82220 3.74297
# Velocity P-wave (km/s) = 6.46313 6.71020 6.58782
#
# Compressibility (1/GPa) = 0.01999767
#
# Stress axis : x y z
#
# Youngs Moduli (GPa) = 103.28435 92.41865 61.19996
#
# Poissons Ratio (x) = 0.23868 0.09777
# Poissons Ratio (y) = 0.26674 0.25962
# Poissons Ratio (z) = 0.16500 0.39206
#
# Static dielectric constant tensor:
#      x y z
#    x 3.956300 0.000000 0.000000 
#    y 0.000000 3.730970 0.000000 
#    z 0.000000 0.000000 3.619100 
# 
# 
# High freq. dielectric constant tensor:
#      x y z
#    x 1.840470 0.000000 0.000000 
#    y 0.000000 1.809010 0.000000 
#    z 0.000000 0.000000 1.810450 
# 
# From -- ./inp_files/7714.got.cif
#   From: 2010.03.12/outbox.cif.g09.slc.cpg/sg73_4_cif.got.tgz:7714.got - 2010.04.16 15:25:48.
