data_PCOD8296239
_publ_section_title
;
Structure prediction by ZEFSAII (Michael W. Deem and Ramdas Pophale) SiO2 
 PCOD8296239
Probable space group: I B C A 
;
_chemical_formula_sum "Si O2"
_cell_formula_units_Z 72
_cell_length_a 5.312630
_cell_length_b 19.584921
_cell_length_c 25.498621
_cell_angle_alpha 90.000000
_cell_angle_beta 90.000000
_cell_angle_gamma 90.000000
_cell_volume 2653.066209
_symmetry_space_group_name_H-M "I B C A "
_symmetry_group_IT_number 73
_symmetry_cell_setting 'orthorhombic'
loop_
_space_group_symop_operation_xyz
x,y,z
-x,1/2-y,z
x,-y,1/2-z
1/2-x,y,-z
-x,-y,-z
x,1/2+y,-z
-x,y,1/2+z
1/2+x,-y,z
1/2+x,1/2+y,1/2+z
1/2-x,-y,1/2+z
1/2+x,1/2-y,-z
-x,1/2+y,1/2-z
1/2-x,1/2-y,1/2-z
1/2+x,y,1/2-z
1/2-x,1/2+y,z
x,1/2-y,1/2+z
loop_
_atom_site_type_symbol
_atom_site_label
_atom_site_fract_x
_atom_site_fract_y
_atom_site_fract_z
Si Si1 0.500000 0.250000 0.136719
Si Si2 0.103447 0.970421 0.439585
Si Si3 0.170130 0.685565 0.941066
Si Si4 0.336449 0.526503 0.322767
Si Si5 0.781321 0.169937 0.216115
O O1 0.593277 0.312261 0.099135
O O2 0.733844 0.229554 0.174062
O O3 0.043263 0.889398 0.437291
O O4 0.373867 0.987093 0.467394
O O5 0.131337 0.002279 0.382068
O O6 0.000000 0.750000 0.923856
O O7 0.250000 0.699471 0.000000
O O8 0.611207 0.518171 0.295168
O O9 0.243325 0.603062 0.318937
O O10 0.561346 0.175120 0.260198
#
# Coordination Sequence:
#
# PCOD8296239 Si02
#       5
#     8  16  16  16  16
#     4  12  28  50  76 108 160 218 260 340 404 492
#     4  10  24  46  78 115 156 206 263 326 404 482
#     4  12  29  50  83 121 164 214 278 341 418 498
#     4  10  21  40  68 102 144 193 250 316 386 461
#     4  12  28  47  74 111 155 207 268 327 399 483
#
# _framework density 27.138408999999999
#
# number of rings (size 3 to 8) (size 9 to 14) (size 15 to 20)
#    0.000    0.889    1.111    4.667   12.444    3.556 
#    0.000    0.000    0.000    0.000    0.000    0.000 
#    0.000    0.000    0.000    0.000    0.000    0.000 
#
# Total GULP energy -446145.427950 kJ/mol
# GULP energy per Si atom -12392.928554 kJ/mol
# Density = 2.707664 g / cm^3
# Si number density = 27.138409 Si / 1000 Ang^3
#
#
#
# Elastic Constant Matrix: (Units=GPa)
#
#
# Indices 1 2 3 4 5 6 
#
# 1 164.8365 15.8992 39.0863 0.0000 0.0000 0.0000
# 2 15.8992 118.9162 32.6259 0.0000 0.0000 0.0000
# 3 39.0863 32.6259 119.4524 0.0000 0.0000 0.0000
# 4 0.0000 0.0000 0.0000 45.2733 0.0000 0.0000
# 5 0.0000 0.0000 0.0000 0.0000 75.2936 0.0000
# 6 0.0000 0.0000 0.0000 0.0000 0.0000 39.2947
#
#
#
# Elastic Compliance Matrix: (Units=1/GPa)
#
#
# Indices 1 2 3 4 5 6 
#
# 1 0.006588 -0.000313 -0.002070 0.000000 0.000000 0.000000
# 2 -0.000313 0.009105 -0.002385 0.000000 0.000000 0.000000
# 3 -0.002070 -0.002385 0.009700 0.000000 0.000000 0.000000
# 4 0.000000 0.000000 0.000000 0.022088 0.000000 0.000000
# 5 0.000000 0.000000 0.000000 0.000000 0.013281 0.000000
# 6 0.000000 0.000000 0.000000 0.000000 0.000000 0.025449
#
#
# Mechanical properties :
#
#
# Convention : Reuss Voigt Hill
#
# Bulk Modulus (GPa) = 63.05897 64.26977 63.66437
# Shear Modulus (GPa) = 49.48905 53.01188 51.25047
#
# Velocity S-wave (km/s) = 4.27497 4.42451 4.35038
# Velocity P-wave (km/s) = 6.90316 7.05942 6.98173
#
# Compressibility (1/GPa) = 0.01585817
#
# Stress axis : x y z
#
# Youngs Moduli (GPa) = 151.79891 109.82561 103.09061
#
# Poissons Ratio (x) = 0.03436 0.21341
# Poissons Ratio (y) = 0.04749 0.24583
# Poissons Ratio (z) = 0.31424 0.26189
#
# Static dielectric constant tensor:
#      x y z
#    x 25.069870 0.000000 0.000000 
#    y 0.000000 5.012910 0.000000 
#    z 0.000000 0.000000 8.659510 
# 
# 
# High freq. dielectric constant tensor:
#      x y z
#    x 2.111900 0.000000 0.000000 
#    y 0.000000 2.084440 0.000000 
#    z 0.000000 0.000000 2.133220 
# 
# From -- ./inp_files/30858.got.cif
#   From: 2010.03.12/outbox.cif.g09.slc.cpg/sg73_16_cif.got.tgz:30858.got - 2010.04.16 15:25:48.
