data_PCOD8296086
_publ_section_title
;
Structure prediction by ZEFSAII (Michael W. Deem and Ramdas Pophale) SiO2 
 PCOD8296086
Probable space group: I B C A 
;
_chemical_formula_sum "Si O2"
_cell_formula_units_Z 88
_cell_length_a 26.114167
_cell_length_b 17.249288
_cell_length_c 9.668687
_cell_angle_alpha 90.000000
_cell_angle_beta 90.000000
_cell_angle_gamma 90.000000
_cell_volume 4355.267673
_symmetry_space_group_name_H-M "I B C A "
_symmetry_group_IT_number 73
_symmetry_cell_setting 'orthorhombic'
loop_
_space_group_symop_operation_xyz
x,y,z
-x,1/2-y,z
x,-y,1/2-z
1/2-x,y,-z
-x,-y,-z
x,1/2+y,-z
-x,y,1/2+z
1/2+x,-y,z
1/2+x,1/2+y,1/2+z
1/2-x,-y,1/2+z
1/2+x,1/2-y,-z
-x,1/2+y,1/2-z
1/2-x,1/2-y,1/2-z
1/2+x,y,1/2-z
1/2-x,1/2+y,z
x,1/2-y,1/2+z
loop_
_atom_site_type_symbol
_atom_site_label
_atom_site_fract_x
_atom_site_fract_y
_atom_site_fract_z
Si Si1 0.110931 0.596852 0.983403
Si Si2 0.660617 0.000000 0.250000
Si Si3 0.007846 0.162725 0.071054
Si Si4 0.526338 0.923048 0.818866
Si Si5 0.295017 0.309829 0.607743
Si Si6 0.770044 0.361185 0.351711
O O1 0.127807 0.527014 0.882866
O O2 0.068713 0.648655 0.901094
O O3 0.083518 0.561527 0.121444
O O4 0.155642 0.652221 0.038199
O O5 0.694258 0.072860 0.208117
O O6 0.000000 0.250000 0.023533
O O7 0.973065 0.144361 0.203577
O O8 0.990096 0.106172 0.944673
O O9 0.502599 0.000000 0.750000
O O10 0.250000 0.322195 0.500000
O O11 0.279246 0.350269 0.751982
O O12 0.303078 0.218164 0.636052
O O13 0.750000 0.388837 0.500000
#
# Coordination Sequence:
#
# PCOD8296086 Si02
#       6
#    16   8  16  16  16  16
#     4  10  26  40  70 101 135 181 231 285 349 429
#     4  12  24  44  64 112 136 184 222 292 350 414
#     4  10  23  45  69  98 131 182 238 288 348 417
#     4  10  23  44  66  97 137 174 222 293 350 409
#     4  10  20  48  65  97 140 181 230 277 341 414
#     4  10  24  39  70  94 139 184 222 286 338 403
#
# _framework density 20.205418000000002
#
# number of rings (size 3 to 8) (size 9 to 14) (size 15 to 20)
#    1.091    0.727    1.818    1.091    3.818    2.909 
#    3.273    0.000    0.000    0.000    0.000    0.000 
#    0.000    0.000    0.000    0.000    0.000    0.000 
#
# Total GULP energy -545259.454607 kJ/mol
# GULP energy per Si atom -12392.260332 kJ/mol
# Density = 2.015943 g / cm^3
# Si number density = 20.205418 Si / 1000 Ang^3
#
#
#
# Elastic Constant Matrix: (Units=GPa)
#
#
# Indices 1 2 3 4 5 6 
#
# 1 74.5683 49.4878 51.6729 0.0000 0.0000 0.0000
# 2 49.4878 92.5463 55.0883 0.0000 0.0000 0.0000
# 3 51.6729 55.0883 150.6960 0.0000 0.0000 0.0000
# 4 0.0000 0.0000 0.0000 39.9473 0.0000 0.0000
# 5 0.0000 0.0000 0.0000 0.0000 35.3495 0.0000
# 6 0.0000 0.0000 0.0000 0.0000 0.0000 11.9661
#
#
#
# Elastic Compliance Matrix: (Units=1/GPa)
#
#
# Indices 1 2 3 4 5 6 
#
# 1 0.022769 -0.009622 -0.004290 0.000000 0.000000 0.000000
# 2 -0.009622 0.017877 -0.003236 0.000000 0.000000 0.000000
# 3 -0.004290 -0.003236 0.009290 0.000000 0.000000 0.000000
# 4 0.000000 0.000000 0.000000 0.025033 0.000000 0.000000
# 5 0.000000 0.000000 0.000000 0.000000 0.028289 0.000000
# 6 0.000000 0.000000 0.000000 0.000000 0.000000 0.083569
#
#
# Mechanical properties :
#
#
# Convention : Reuss Voigt Hill
#
# Bulk Modulus (GPa) = 63.93739 70.03427 66.98583
# Shear Modulus (GPa) = 22.09120 28.22337 25.15728
#
# Velocity S-wave (km/s) = 3.31014 3.74146 3.53239
# Velocity P-wave (km/s) = 6.80601 7.30761 7.06126
#
# Compressibility (1/GPa) = 0.01564030
#
# Stress axis : x y z
#
# Youngs Moduli (GPa) = 43.91965 55.93930 107.64561
#
# Poissons Ratio (x) = 0.53823 0.46180
# Poissons Ratio (y) = 0.42258 0.34831
# Poissons Ratio (z) = 0.18842 0.18100
#
# Static dielectric constant tensor:
#      x y z
#    x 3.461310 0.000000 0.000000 
#    y 0.000000 3.744630 0.000000 
#    z 0.000000 0.000000 4.031110 
# 
# 
# High freq. dielectric constant tensor:
#      x y z
#    x 1.761210 0.000000 0.000000 
#    y 0.000000 1.790260 0.000000 
#    z 0.000000 0.000000 1.809960 
# 
# From -- ./inp_files/8376.got.cif
#   From: 2010.03.12/outbox.cif.g09.slc.cpg/sg73_5_cif.got.tgz:8376.got - 2010.04.16 15:25:48.
