data_PCOD8296170
_publ_section_title
;
Structure prediction by ZEFSAII (Michael W. Deem and Ramdas Pophale) SiO2 
 PCOD8296170
Probable space group: I B C A 
;
_chemical_formula_sum "Si O2"
_cell_formula_units_Z 80
_cell_length_a 19.000706
_cell_length_b 13.094273
_cell_length_c 14.570828
_cell_angle_alpha 90.000000
_cell_angle_beta 90.000000
_cell_angle_gamma 90.000000
_cell_volume 3625.228295
_symmetry_space_group_name_H-M "I B C A "
_symmetry_group_IT_number 73
_symmetry_cell_setting 'orthorhombic'
loop_
_space_group_symop_operation_xyz
x,y,z
-x,1/2-y,z
x,-y,1/2-z
1/2-x,y,-z
-x,-y,-z
x,1/2+y,-z
-x,y,1/2+z
1/2+x,-y,z
1/2+x,1/2+y,1/2+z
1/2-x,-y,1/2+z
1/2+x,1/2-y,-z
-x,1/2+y,1/2-z
1/2-x,1/2-y,1/2-z
1/2+x,y,1/2-z
1/2-x,1/2+y,z
x,1/2-y,1/2+z
loop_
_atom_site_type_symbol
_atom_site_label
_atom_site_fract_x
_atom_site_fract_y
_atom_site_fract_z
Si Si1 0.568824 0.514177 0.642106
Si Si2 0.657937 0.204791 0.683797
Si Si3 0.800534 0.396784 0.198516
Si Si4 0.074284 0.303465 0.966696
Si Si5 0.946050 0.338175 0.662737
O O1 0.581176 0.500000 0.750000
O O2 0.638624 0.583828 0.619858
O O3 0.569062 0.411677 0.584020
O O4 0.493041 0.565828 0.629702
O O5 0.671731 0.313606 0.729624
O O6 0.727772 0.143589 0.656371
O O7 0.623859 0.224873 0.585539
O O8 0.605896 0.140068 0.751647
O O9 0.779766 0.500000 0.250000
O O10 0.000000 0.250000 0.972899
O O11 0.100858 0.313759 0.072283
O O12 0.000000 0.250000 0.694740
#
# Coordination Sequence:
#
# PCOD8296170 Si02
#       5
#    16  16  16  16  16
#     4  11  19  39  66  91 127 169 205 263 329 373
#     4  11  21  40  65  88 125 170 211 254 319 377
#     4  10  21  38  66  87 122 172 209 251 319 378
#     4  11  23  38  65  97 128 162 216 269 315 379
#     4  11  22  38  65  97 127 162 214 268 317 373
#
# _framework density 22.067574
#
# number of rings (size 3 to 8) (size 9 to 14) (size 15 to 20)
#    0.000    1.200    6.000    2.400    0.000    2.400 
#    0.000    4.000    4.400    0.000    0.000    0.000 
#    0.000    0.000    0.000    0.000    0.000    0.000 
#
# Total GULP energy -495679.487903 kJ/mol
# GULP energy per Si atom -12391.987198 kJ/mol
# Density = 2.201735 g / cm^3
# Si number density = 22.067574 Si / 1000 Ang^3
#
#
#
# Elastic Constant Matrix: (Units=GPa)
#
#
# Indices 1 2 3 4 5 6 
#
# 1 115.7497 23.0239 53.3152 0.0000 0.0000 0.0000
# 2 23.0239 75.2636 5.5754 0.0000 0.0000 0.0000
# 3 53.3152 5.5754 90.5035 0.0000 0.0000 0.0000
# 4 0.0000 0.0000 0.0000 8.4872 0.0000 0.0000
# 5 0.0000 0.0000 0.0000 0.0000 -6.0310 0.0000
# 6 0.0000 0.0000 0.0000 0.0000 0.0000 29.6141
#
#
#
# Elastic Compliance Matrix: (Units=1/GPa)
#
#
# Indices 1 2 3 4 5 6 
#
# 1 0.012636 -0.003329 -0.007239 0.000000 0.000000 0.000000
# 2 -0.003329 0.014225 0.001085 0.000000 0.000000 0.000000
# 3 -0.007239 0.001085 0.015247 0.000000 0.000000 0.000000
# 4 0.000000 0.000000 0.000000 0.117825 0.000000 0.000000
# 5 0.000000 0.000000 0.000000 0.000000 -0.165809 0.000000
# 6 0.000000 0.000000 0.000000 0.000000 0.000000 0.033768
#
#
# Mechanical properties :
#
#
# Convention : Reuss Voigt Hill
#
# Bulk Modulus (GPa) = 43.21257 49.48287 46.34772
# Shear Modulus (GPa) = 91.62474 19.72086 55.67280
#
# Velocity S-wave (km/s) = 6.45060 2.99265 5.02823
# Velocity P-wave (km/s) = 8.66630 5.86629 7.39993
#
# Compressibility (1/GPa) = 0.02314141
#
# Stress axis : x y z
#
# Youngs Moduli (GPa) = 79.14109 70.30031 65.58823
#
# Poissons Ratio (x) = 0.23404 0.47476
# Poissons Ratio (y) = 0.26347 -0.07116
# Poissons Ratio (z) = 0.57286 -0.07627
#
# Static dielectric constant tensor:
#      x y z
#    x 4.425810 0.000000 0.000000 
#    y 0.000000 4.177180 0.000000 
#    z 0.000000 0.000000 4.102690 
# 
# 
# High freq. dielectric constant tensor:
#      x y z
#    x 1.871670 0.000000 0.000000 
#    y 0.000000 1.875070 0.000000 
#    z 0.000000 0.000000 1.845990 
# 
# From -- ./inp_files/18521.got.cif
#   From: 2010.03.12/outbox.cif.g09.slc.cpg/sg73_10_cif.got.tgz:18521.got - 2010.04.16 15:25:48.
