data_PCOD8296983
_publ_section_title
;
Structure prediction by ZEFSAII (Michael W. Deem and Ramdas Pophale) SiO2 
 PCOD8296983
Probable space group: I B C A 
;
_chemical_formula_sum "Si O2"
_cell_formula_units_Z 88
_cell_length_a 20.294703
_cell_length_b 14.310168
_cell_length_c 14.023618
_cell_angle_alpha 90.000000
_cell_angle_beta 90.000000
_cell_angle_gamma 90.000000
_cell_volume 4072.747686
_symmetry_space_group_name_H-M "I B C A "
_symmetry_group_IT_number 73
_symmetry_cell_setting 'orthorhombic'
loop_
_space_group_symop_operation_xyz
x,y,z
-x,1/2-y,z
x,-y,1/2-z
1/2-x,y,-z
-x,-y,-z
x,1/2+y,-z
-x,y,1/2+z
1/2+x,-y,z
1/2+x,1/2+y,1/2+z
1/2-x,-y,1/2+z
1/2+x,1/2-y,-z
-x,1/2+y,1/2-z
1/2-x,1/2-y,1/2-z
1/2+x,y,1/2-z
1/2-x,1/2+y,z
x,1/2-y,1/2+z
loop_
_atom_site_type_symbol
_atom_site_label
_atom_site_fract_x
_atom_site_fract_y
_atom_site_fract_z
Si Si1 0.700596 0.680519 0.413513
Si Si2 0.198826 0.910108 0.299680
Si Si3 0.176014 0.499737 0.994062
Si Si4 0.000000 0.750000 0.384947
Si Si5 0.441583 0.891522 0.763809
Si Si6 0.407350 0.673726 0.456309
O O1 0.750000 0.701340 0.500000
O O2 0.746307 0.670469 0.318136
O O3 0.665825 0.578640 0.424644
O O4 0.647283 0.761170 0.405805
O O5 0.164247 0.946022 0.395904
O O6 0.137330 0.871976 0.238750
O O7 0.232983 0.000000 0.250000
O O8 0.124291 0.417257 0.004950
O O9 0.250000 0.457820 0.000000
O O10 0.018933 0.836010 0.317051
O O11 0.060063 0.725849 0.454798
O O12 0.458871 0.856172 0.872020
O O13 0.459444 0.000000 0.750000
#
# Coordination Sequence:
#
# PCOD8296983 Si02
#       6
#    16  16  16   8  16  16
#     4   9  20  36  61  99 130 162 211 260 328 410
#     4   9  16  37  62  90 135 161 198 267 333 399
#     4   9  18  36  62  94 128 162 205 257 335 401
#     4  12  28  46  64  96 126 174 248 274 316 398
#     4  11  24  46  68  96 132 177 222 280 344 386
#     4  12  23  42  69  90 129 179 218 276 333 388
#
# _framework density 21.607033000000001
#
# number of rings (size 3 to 8) (size 9 to 14) (size 15 to 20)
#    0.000    2.182    3.636    3.273    0.000    1.455 
#    9.818    0.000    0.000    0.000    0.000    0.000 
#    0.000    0.000    0.000    0.000    0.000    0.000 
#
# Total GULP energy -545208.029073 kJ/mol
# GULP energy per Si atom -12391.091570 kJ/mol
# Density = 2.155785 g / cm^3
# Si number density = 21.607033 Si / 1000 Ang^3
#
#
#
# Elastic Constant Matrix: (Units=GPa)
#
#
# Indices 1 2 3 4 5 6 
#
# 1 49.0061 39.2802 15.9967 0.0000 0.0000 0.0000
# 2 39.2802 115.7117 35.4128 0.0000 0.0000 0.0000
# 3 15.9967 35.4128 81.7616 0.0000 0.0000 0.0000
# 4 0.0000 0.0000 0.0000 32.4788 0.0000 0.0000
# 5 0.0000 0.0000 0.0000 0.0000 25.7895 0.0000
# 6 0.0000 0.0000 0.0000 0.0000 0.0000 -16.4905
#
#
#
# Elastic Compliance Matrix: (Units=1/GPa)
#
#
# Indices 1 2 3 4 5 6 
#
# 1 0.028210 -0.009092 -0.001581 0.000000 0.000000 0.000000
# 2 -0.009092 0.012893 -0.003805 0.000000 0.000000 0.000000
# 3 -0.001581 -0.003805 0.014188 0.000000 0.000000 0.000000
# 4 0.000000 0.000000 0.000000 0.030789 0.000000 0.000000
# 5 0.000000 0.000000 0.000000 0.000000 0.038776 0.000000
# 6 0.000000 0.000000 0.000000 0.000000 0.000000 -0.060641
#
#
# Mechanical properties :
#
#
# Convention : Reuss Voigt Hill
#
# Bulk Modulus (GPa) = 37.97466 47.53986 42.75726
# Shear Modulus (GPa) = 49.04330 18.74152 33.89241
#
# Velocity S-wave (km/s) = 4.76939 2.94833 3.96483
# Velocity P-wave (km/s) = 6.92407 5.80000 6.38681
#
# Compressibility (1/GPa) = 0.02633335
#
# Stress axis : x y z
#
# Youngs Moduli (GPa) = 35.44897 77.55936 70.48077
#
# Poissons Ratio (x) = 0.70519 0.11144
# Poissons Ratio (y) = 0.32231 0.26821
# Poissons Ratio (z) = 0.05605 0.29515
#
# Static dielectric constant tensor:
#      x y z
#    x 3.634860 0.000000 0.000000 
#    y 0.000000 3.930940 0.000000 
#    z 0.000000 0.000000 4.106540 
# 
# 
# High freq. dielectric constant tensor:
#      x y z
#    x 1.813370 0.000000 0.000000 
#    y 0.000000 1.852700 0.000000 
#    z 0.000000 0.000000 1.851760 
# 
# From -- ./inp_files/19328.got.cif
#   From: 2010.03.12/outbox.cif.g09.slc.cpg/sg73_10_cif.got.tgz:19328.got - 2010.04.16 15:25:48.
