data_PCOD8296303
_publ_section_title
;
Structure prediction by ZEFSAII (Michael W. Deem and Ramdas Pophale) SiO2 
 PCOD8296303
Probable space group: I B C A 
;
_chemical_formula_sum "Si O2"
_cell_formula_units_Z 120
_cell_length_a 14.092351
_cell_length_b 22.974058
_cell_length_c 17.545373
_cell_angle_alpha 90.000000
_cell_angle_beta 90.000000
_cell_angle_gamma 90.000000
_cell_volume 5680.463455
_symmetry_space_group_name_H-M "I B C A "
_symmetry_group_IT_number 73
_symmetry_cell_setting 'orthorhombic'
loop_
_space_group_symop_operation_xyz
x,y,z
-x,1/2-y,z
x,-y,1/2-z
1/2-x,y,-z
-x,-y,-z
x,1/2+y,-z
-x,y,1/2+z
1/2+x,-y,z
1/2+x,1/2+y,1/2+z
1/2-x,-y,1/2+z
1/2+x,1/2-y,-z
-x,1/2+y,1/2-z
1/2-x,1/2-y,1/2-z
1/2+x,y,1/2-z
1/2-x,1/2+y,z
x,1/2-y,1/2+z
loop_
_atom_site_type_symbol
_atom_site_label
_atom_site_fract_x
_atom_site_fract_y
_atom_site_fract_z
Si Si1 0.784957 0.294481 0.813770
Si Si2 0.096102 0.655148 0.873193
Si Si3 0.545414 0.526571 0.827039
Si Si4 0.500000 0.250000 0.469241
Si Si5 0.495037 0.554002 0.557814
Si Si6 0.981526 0.850290 0.220284
Si Si7 0.661593 0.918895 0.454077
Si Si8 0.617340 0.200077 0.098969
O O1 0.750000 0.250000 0.750000
O O2 0.702410 0.339213 0.839510
O O3 0.871729 0.331982 0.780493
O O4 0.817270 0.256270 0.886477
O O5 0.073201 0.713892 0.918140
O O6 0.085316 0.597739 0.927580
O O7 0.019161 0.649350 0.805983
O O8 0.590332 0.500000 0.750000
O O9 0.473613 0.477426 0.860858
O O10 0.488035 0.585762 0.816282
O O11 0.629423 0.534850 0.889505
O O12 0.440309 0.206630 0.521516
O O13 0.500000 0.500000 0.500000
O O14 0.413712 0.593916 0.521953
O O15 0.044887 0.806471 0.169862
O O16 0.750000 0.944784 0.500000
O O17 0.682053 0.857661 0.411311
#
# Coordination Sequence:
#
# PCOD8296303 Si02
#       8
#    16  16  16   8  16  16  16  16
#     4  12  25  41  69 106 140 184 235 286 352 432
#     4  12  25  42  70 103 138 191 231 292 356 434
#     4  10  21  44  73  93 128 182 235 293 353 413
#     4  12  24  40  68  94 136 186 222 276 356 424
#     4  10  22  45  68  93 136 179 232 292 362 409
#     4  11  23  46  67  97 141 182 232 293 348 413
#     4  10  23  42  68 100 133 180 228 288 352 430
#     4  11  23  43  66  93 142 182 224 279 350 416
#
# _framework density 21.125038
#
# number of rings (size 3 to 8) (size 9 to 14) (size 15 to 20)
#    0.000    1.067    5.333    0.800    1.867    1.067 
#    4.800    0.667    0.000    0.000    0.000    0.000 
#    0.000    0.000    0.000    0.000    0.000    0.000 
#
# Total GULP energy -743511.436585 kJ/mol
# GULP energy per Si atom -12391.857276 kJ/mol
# Density = 2.107696 g / cm^3
# Si number density = 21.125038 Si / 1000 Ang^3
#
#
#
# Elastic Constant Matrix: (Units=GPa)
#
#
# Indices 1 2 3 4 5 6 
#
# 1 121.8401 46.8860 49.8486 0.0000 0.0000 0.0000
# 2 46.8860 110.5569 36.5321 0.0000 0.0000 0.0000
# 3 49.8486 36.5321 114.6190 -0.0003 0.0000 0.0000
# 4 0.0000 0.0000 -0.0003 44.7189 0.0000 0.0000
# 5 0.0000 0.0000 0.0000 0.0000 34.2906 0.0000
# 6 0.0000 0.0000 0.0000 0.0000 0.0000 23.1838
#
#
#
# Elastic Compliance Matrix: (Units=1/GPa)
#
#
# Indices 1 2 3 4 5 6 
#
# 1 0.011056 -0.003465 -0.003704 0.000000 0.000000 0.000000
# 2 -0.003465 0.011196 -0.002061 0.000000 0.000000 0.000000
# 3 -0.003704 -0.002061 0.010993 0.000000 0.000000 0.000000
# 4 0.000000 0.000000 0.000000 0.022362 0.000000 0.000000
# 5 0.000000 0.000000 0.000000 0.000000 0.029162 0.000000
# 6 0.000000 0.000000 0.000000 0.000000 0.000000 0.043134
#
#
# Mechanical properties :
#
#
# Convention : Reuss Voigt Hill
#
# Bulk Modulus (GPa) = 67.64235 68.17215 67.90725
# Shear Modulus (GPa) = 33.04881 34.68861 33.86871
#
# Velocity S-wave (km/s) = 3.95959 4.05663 4.00840
# Velocity P-wave (km/s) = 7.27969 7.36767 7.32381
#
# Compressibility (1/GPa) = 0.01478364
#
# Stress axis : x y z
#
# Youngs Moduli (GPa) = 90.44624 89.31982 90.97073
#
# Poissons Ratio (x) = 0.30948 0.33697
# Poissons Ratio (y) = 0.31339 0.18753
# Poissons Ratio (z) = 0.33502 0.18413
#
# Static dielectric constant tensor:
#      x y z
#    x 3.699470 0.000000 0.000000 
#    y 0.000000 4.016310 0.000000 
#    z 0.000000 0.000000 4.226020 
# 
# 
# High freq. dielectric constant tensor:
#      x y z
#    x 1.789890 0.000000 0.000000 
#    y 0.000000 1.844750 0.000000 
#    z 0.000000 0.000000 1.844440 
# 
# From -- ./inp_files/22156.got.cif
#   From: 2010.03.12/outbox.cif.g09.slc.cpg/sg73_12_cif.got.tgz:22156.got - 2010.04.16 15:25:48.
