data_PCOD8296068
_publ_section_title
;
Structure prediction by ZEFSAII (Michael W. Deem and Ramdas Pophale) SiO2 
 PCOD8296068
Probable space group: I B C A 
;
_chemical_formula_sum "Si O2"
_cell_formula_units_Z 64
_cell_length_a 14.909921
_cell_length_b 8.773102
_cell_length_c 24.009191
_cell_angle_alpha 90.000000
_cell_angle_beta 90.000000
_cell_angle_gamma 90.000000
_cell_volume 3140.552426
_symmetry_space_group_name_H-M "I B C A "
_symmetry_group_IT_number 73
_symmetry_cell_setting 'orthorhombic'
loop_
_space_group_symop_operation_xyz
x,y,z
-x,1/2-y,z
x,-y,1/2-z
1/2-x,y,-z
-x,-y,-z
x,1/2+y,-z
-x,y,1/2+z
1/2+x,-y,z
1/2+x,1/2+y,1/2+z
1/2-x,-y,1/2+z
1/2+x,1/2-y,-z
-x,1/2+y,1/2-z
1/2-x,1/2-y,1/2-z
1/2+x,y,1/2-z
1/2-x,1/2+y,z
x,1/2-y,1/2+z
loop_
_atom_site_type_symbol
_atom_site_label
_atom_site_fract_x
_atom_site_fract_y
_atom_site_fract_z
Si Si1 0.662304 0.601290 0.402203
Si Si2 0.543433 0.093211 0.695542
Si Si3 0.491057 0.930603 0.590819
Si Si4 0.812793 0.431621 0.446716
O O1 0.633673 0.635934 0.338623
O O2 0.584162 0.501325 0.433005
O O3 0.754744 0.507397 0.397119
O O4 0.674042 0.753416 0.438066
O O5 0.500000 0.250000 0.715264
O O6 0.569467 0.000000 0.750000
O O7 0.477998 0.995616 0.654168
O O8 0.500000 0.750000 0.590848
O O9 0.590972 0.015553 0.448247
O O10 0.750000 0.466129 0.500000
#
# Coordination Sequence:
#
# PCOD8296068 Si02
#       4
#    16  16  16  16
#     4  10  23  42  64 100 137 170 230 282 332 414
#     4  10  20  42  71  99 132 176 227 278 350 403
#     4  10  21  42  69  94 136 175 223 284 334 409
#     4  12  23  42  68  97 137 182 226 283 336 405
#
# _framework density 20.378579999999999
#
# number of rings (size 3 to 8) (size 9 to 14) (size 15 to 20)
#    1.500    0.000    2.500    3.750    0.000    1.000 
#    0.000    7.500    0.000    0.000    0.000    0.000 
#    0.000    0.000    0.000    0.000    0.000    0.000 
#
# Total GULP energy -396521.606957 kJ/mol
# GULP energy per Si atom -12391.300217 kJ/mol
# Density = 2.033220 g / cm^3
# Si number density = 20.378580 Si / 1000 Ang^3
#
#
#
# Elastic Constant Matrix: (Units=GPa)
#
#
# Indices 1 2 3 4 5 6 
#
# 1 101.6588 49.2958 -5.4092 0.0000 0.0000 0.0000
# 2 49.2958 167.7133 16.5241 0.0000 0.0000 0.0000
# 3 -5.4092 16.5241 56.9492 0.0000 0.0000 0.0000
# 4 0.0000 0.0000 0.0000 28.6854 0.0000 0.0000
# 5 0.0000 0.0000 0.0000 0.0000 11.4352 0.0000
# 6 0.0000 0.0000 0.0000 0.0000 0.0000 43.1424
#
#
#
# Elastic Compliance Matrix: (Units=1/GPa)
#
#
# Indices 1 2 3 4 5 6 
#
# 1 0.011728 -0.003662 0.002176 0.000000 0.000000 0.000000
# 2 -0.003662 0.007281 -0.002461 0.000000 0.000000 0.000000
# 3 0.002176 -0.002461 0.018480 0.000000 0.000000 0.000000
# 4 0.000000 0.000000 0.000000 0.034861 0.000000 0.000000
# 5 0.000000 0.000000 0.000000 0.000000 0.087449 0.000000
# 6 0.000000 0.000000 0.000000 0.000000 0.000000 0.023179
#
#
# Mechanical properties :
#
#
# Convention : Reuss Voigt Hill
#
# Bulk Modulus (GPa) = 33.78589 49.68254 41.73421
# Shear Modulus (GPa) = 24.90828 34.37996 29.64412
#
# Velocity S-wave (km/s) = 3.49990 4.11184 3.81815
# Velocity P-wave (km/s) = 5.73999 6.85388 6.32152
#
# Compressibility (1/GPa) = 0.02959816
#
# Stress axis : x y z
#
# Youngs Moduli (GPa) = 85.26425 137.33881 54.11205
#
# Poissons Ratio (x) = 0.50289 -0.11777
# Poissons Ratio (y) = 0.31221 0.13314
# Poissons Ratio (z) = -0.18557 0.33792
#
# Static dielectric constant tensor:
#      x y z
#    x 3.810730 0.000000 0.000000 
#    y 0.000000 3.628020 0.000000 
#    z 0.000000 0.000000 3.407440 
# 
# 
# High freq. dielectric constant tensor:
#      x y z
#    x 1.792030 0.000000 0.000000 
#    y 0.000000 1.812500 0.000000 
#    z 0.000000 0.000000 1.773880 
# 
# From -- ./inp_files/34212.got.cif
#   From: 2010.03.12/outbox.cif.g09.slc.cpg/sg73_18_cif.got.tgz:34212.got - 2010.04.16 15:25:48.
