data_PCOD8296169
_publ_section_title
;
Structure prediction by ZEFSAII (Michael W. Deem and Ramdas Pophale) SiO2 
 PCOD8296169
Probable space group: I B C A 
;
_chemical_formula_sum "Si O2"
_cell_formula_units_Z 80
_cell_length_a 20.450754
_cell_length_b 13.324255
_cell_length_c 13.860318
_cell_angle_alpha 90.000000
_cell_angle_beta 90.000000
_cell_angle_gamma 90.000000
_cell_volume 3776.812761
_symmetry_space_group_name_H-M "I B C A "
_symmetry_group_IT_number 73
_symmetry_cell_setting 'orthorhombic'
loop_
_space_group_symop_operation_xyz
x,y,z
-x,1/2-y,z
x,-y,1/2-z
1/2-x,y,-z
-x,-y,-z
x,1/2+y,-z
-x,y,1/2+z
1/2+x,-y,z
1/2+x,1/2+y,1/2+z
1/2-x,-y,1/2+z
1/2+x,1/2-y,-z
-x,1/2+y,1/2-z
1/2-x,1/2-y,1/2-z
1/2+x,y,1/2-z
1/2-x,1/2+y,z
x,1/2-y,1/2+z
loop_
_atom_site_type_symbol
_atom_site_label
_atom_site_fract_x
_atom_site_fract_y
_atom_site_fract_z
Si Si1 0.421758 0.594008 0.020952
Si Si2 0.703800 0.996563 0.407428
Si Si3 0.301087 0.338094 0.252934
Si Si4 0.956716 0.473062 0.644477
Si Si5 0.076550 0.260934 0.155829
O O1 0.368817 0.515995 0.057287
O O2 0.486726 0.566843 0.077573
O O3 0.409527 0.710666 0.049286
O O4 0.427160 0.573770 0.905621
O O5 0.750000 0.990050 0.500000
O O6 0.724058 0.087403 0.336848
O O7 0.701807 0.891975 0.350462
O O8 0.250000 0.250000 0.250000
O O9 0.374943 0.296553 0.270379
O O10 0.982644 0.500000 0.750000
O O11 0.905181 0.379580 0.651355
O O12 0.000000 0.250000 0.188706
#
# Coordination Sequence:
#
# PCOD8296169 Si02
#       5
#    16  16  16  16  16
#     4   9  21  41  60  91 128 164 208 261 320 386
#     4  10  23  42  66  87 128 174 211 258 325 389
#     4  10  23  42  65  96 127 166 218 268 318 380
#     4  10  21  38  65  94 127 162 210 265 319 384
#     4   9  20  40  64  95 128 161 213 262 323 393
#
# _framework density 21.181881000000001
#
# number of rings (size 3 to 8) (size 9 to 14) (size 15 to 20)
#    0.000    2.400    0.000    0.000   11.200    2.400 
#    7.200    5.000    0.000    0.000    0.000    0.000 
#    0.000    0.000    0.000    0.000    0.000    0.000 
#
# Total GULP energy -495548.122994 kJ/mol
# GULP energy per Si atom -12388.703075 kJ/mol
# Density = 2.113367 g / cm^3
# Si number density = 21.181881 Si / 1000 Ang^3
#
#
#
# Elastic Constant Matrix: (Units=GPa)
#
#
# Indices 1 2 3 4 5 6 
#
# 1 78.3422 37.9328 27.5076 0.0000 0.0000 0.0000
# 2 37.9328 96.6616 40.8559 0.0000 0.0000 0.0000
# 3 27.5076 40.8559 125.9482 0.0000 0.0000 0.0000
# 4 0.0000 0.0000 0.0000 26.7433 0.0000 0.0000
# 5 0.0000 0.0000 0.0000 0.0000 16.5074 0.0000
# 6 0.0000 0.0000 0.0000 0.0000 0.0000 43.7680
#
#
#
# Elastic Compliance Matrix: (Units=1/GPa)
#
#
# Indices 1 2 3 4 5 6 
#
# 1 0.016066 -0.005588 -0.001696 0.000000 0.000000 0.000000
# 2 -0.005588 0.013933 -0.003299 0.000000 0.000000 0.000000
# 3 -0.001696 -0.003299 0.009380 0.000000 0.000000 0.000000
# 4 0.000000 0.000000 0.000000 0.037392 0.000000 0.000000
# 5 0.000000 0.000000 0.000000 0.000000 0.060579 0.000000
# 6 0.000000 0.000000 0.000000 0.000000 0.000000 0.022848
#
#
# Mechanical properties :
#
#
# Convention : Reuss Voigt Hill
#
# Bulk Modulus (GPa) = 54.90732 57.06050 55.98391
# Shear Modulus (GPa) = 26.67596 30.38080 28.52838
#
# Velocity S-wave (km/s) = 3.55262 3.79130 3.67390
# Velocity P-wave (km/s) = 6.54265 6.79427 6.66965
#
# Compressibility (1/GPa) = 0.01821251
#
# Stress axis : x y z
#
# Youngs Moduli (GPa) = 62.24476 71.77419 106.60480
#
# Poissons Ratio (x) = 0.40105 0.18083
# Poissons Ratio (y) = 0.34780 0.35171
# Poissons Ratio (z) = 0.10558 0.23680
#
# Static dielectric constant tensor:
#      x y z
#    x 4.067590 0.000000 0.000000 
#    y 0.000000 4.635070 0.000000 
#    z 0.000000 0.000000 3.778010 
# 
# 
# High freq. dielectric constant tensor:
#      x y z
#    x 1.819650 0.000000 0.000000 
#    y 0.000000 1.838610 0.000000 
#    z 0.000000 0.000000 1.822380 
# 
# From -- ./inp_files/16854.got.cif
#   From: 2010.03.12/outbox.cif.g09.slc.cpg/sg73_9_cif.got.tgz:16854.got - 2010.04.16 15:25:48.
