data_PCOD8296865
_publ_section_title
;
Structure prediction by ZEFSAII (Michael W. Deem and Ramdas Pophale) SiO2 
 PCOD8296865
Probable space group: I B C A 
;
_chemical_formula_sum "Si O2"
_cell_formula_units_Z 88
_cell_length_a 22.135341
_cell_length_b 13.587403
_cell_length_c 13.332784
_cell_angle_alpha 90.000000
_cell_angle_beta 90.000000
_cell_angle_gamma 90.000000
_cell_volume 4009.992098
_symmetry_space_group_name_H-M "I B C A "
_symmetry_group_IT_number 73
_symmetry_cell_setting 'orthorhombic'
loop_
_space_group_symop_operation_xyz
x,y,z
-x,1/2-y,z
x,-y,1/2-z
1/2-x,y,-z
-x,-y,-z
x,1/2+y,-z
-x,y,1/2+z
1/2+x,-y,z
1/2+x,1/2+y,1/2+z
1/2-x,-y,1/2+z
1/2+x,1/2-y,-z
-x,1/2+y,1/2-z
1/2-x,1/2-y,1/2-z
1/2+x,y,1/2-z
1/2-x,1/2+y,z
x,1/2-y,1/2+z
loop_
_atom_site_type_symbol
_atom_site_label
_atom_site_fract_x
_atom_site_fract_y
_atom_site_fract_z
Si Si1 0.856893 0.801859 0.625704
Si Si2 0.699689 0.366861 0.817417
Si Si3 0.906210 0.993151 0.899743
Si Si4 0.800120 0.500000 0.750000
Si Si5 0.750000 0.757665 0.500000
Si Si6 0.101426 0.082792 0.883543
Si Si7 0.504487 0.000000 0.750000
O O1 0.836765 0.796021 0.742176
O O2 0.801289 0.825324 0.550050
O O3 0.882476 0.695692 0.597673
O O4 0.905835 0.887810 0.608661
O O5 0.657648 0.456102 0.855835
O O6 0.756340 0.405120 0.750598
O O7 0.721413 0.310435 0.914648
O O8 0.961177 0.949727 0.833199
O O9 0.920333 0.961534 0.012036
O O10 0.842690 0.486340 0.847553
O O11 0.047064 0.080966 0.803121
#
# Coordination Sequence:
#
# PCOD8296865 Si02
#       7
#    16  16  16   8   8  16   8
#     4  12  25  40  72 104 142 181 228 279 349 427
#     4  12  22  43  67 101 146 184 218 285 351 416
#     4  12  24  49  69  99 140 185 231 289 359 409
#     4  11  21  42  66 100 147 183 216 282 344 419
#     4  12  26  38  68 106 148 178 234 276 344 444
#     4  11  27  44  70 104 135 182 239 287 352 413
#     4  11  25  52  72  88 137 179 236 310 332 413
#
# _framework density 21.945181000000002
#
# number of rings (size 3 to 8) (size 9 to 14) (size 15 to 20)
#    0.000    0.364    7.273    1.091    2.545    2.909 
#    0.000    0.000    0.000    0.000    0.000    0.000 
#    0.000    0.000    0.000    0.000    0.000    0.000 
#
# Total GULP energy -545520.231216 kJ/mol
# GULP energy per Si atom -12398.187073 kJ/mol
# Density = 2.189523 g / cm^3
# Si number density = 21.945181 Si / 1000 Ang^3
#
#
#
# Elastic Constant Matrix: (Units=GPa)
#
#
# Indices 1 2 3 4 5 6 
#
# 1 102.8775 22.8738 42.4901 0.0000 0.0000 0.0000
# 2 22.8738 71.0538 50.7070 0.0000 0.0000 0.0000
# 3 42.4901 50.7070 144.9739 0.0000 0.0000 0.0000
# 4 0.0000 0.0000 0.0000 32.3602 0.0000 0.0000
# 5 0.0000 0.0000 0.0000 0.0000 37.9432 0.0000
# 6 0.0000 0.0000 0.0000 0.0000 0.0000 12.9158
#
#
#
# Elastic Compliance Matrix: (Units=1/GPa)
#
#
# Indices 1 2 3 4 5 6 
#
# 1 0.011208 -0.001684 -0.002696 0.000000 0.000000 0.000000
# 2 -0.001684 0.019008 -0.006155 0.000000 0.000000 0.000000
# 3 -0.002696 -0.006155 0.009841 0.000000 0.000000 0.000000
# 4 0.000000 0.000000 0.000000 0.030902 0.000000 0.000000
# 5 0.000000 0.000000 0.000000 0.000000 0.026355 0.000000
# 6 0.000000 0.000000 0.000000 0.000000 0.000000 0.077425
#
#
# Mechanical properties :
#
#
# Convention : Reuss Voigt Hill
#
# Bulk Modulus (GPa) = 52.66683 61.22742 56.94712
# Shear Modulus (GPa) = 24.73552 30.16612 27.45082
#
# Velocity S-wave (km/s) = 3.36095 3.71160 3.54062
# Velocity P-wave (km/s) = 6.25401 6.80652 6.53611
#
# Compressibility (1/GPa) = 0.01898728
#
# Stress axis : x y z
#
# Youngs Moduli (GPa) = 89.22014 52.60828 101.61883
#
# Poissons Ratio (x) = 0.08861 0.27395
# Poissons Ratio (y) = 0.15027 0.62545
# Poissons Ratio (z) = 0.24053 0.32380
#
# Static dielectric constant tensor:
#      x y z
#    x 4.176750 0.000000 0.000000 
#    y 0.000000 3.655520 0.000000 
#    z 0.000000 0.000000 4.196730 
# 
# 
# High freq. dielectric constant tensor:
#      x y z
#    x 1.866550 0.000000 0.000000 
#    y 0.000000 1.838270 0.000000 
#    z 0.000000 0.000000 1.881720 
# 
# From -- ./inp_files/13577.got.cif
#   From: 2010.03.12/outbox.cif.g09.slc.cpg/sg73_7_cif.got.tgz:13577.got - 2010.04.16 15:25:48.
