data_PCOD8296176
_publ_section_title
;
Structure prediction by ZEFSAII (Michael W. Deem and Ramdas Pophale) SiO2 
 PCOD8296176
Probable space group: I B C A 
;
_chemical_formula_sum "Si O2"
_cell_formula_units_Z 80
_cell_length_a 13.097572
_cell_length_b 24.700889
_cell_length_c 11.516548
_cell_angle_alpha 90.000000
_cell_angle_beta 90.000000
_cell_angle_gamma 90.000000
_cell_volume 3725.852866
_symmetry_space_group_name_H-M "I B C A "
_symmetry_group_IT_number 73
_symmetry_cell_setting 'orthorhombic'
loop_
_space_group_symop_operation_xyz
x,y,z
-x,1/2-y,z
x,-y,1/2-z
1/2-x,y,-z
-x,-y,-z
x,1/2+y,-z
-x,y,1/2+z
1/2+x,-y,z
1/2+x,1/2+y,1/2+z
1/2-x,-y,1/2+z
1/2+x,1/2-y,-z
-x,1/2+y,1/2-z
1/2-x,1/2-y,1/2-z
1/2+x,y,1/2-z
1/2-x,1/2+y,z
x,1/2-y,1/2+z
loop_
_atom_site_type_symbol
_atom_site_label
_atom_site_fract_x
_atom_site_fract_y
_atom_site_fract_z
Si Si1 0.855307 0.373618 0.545848
Si Si2 0.805915 0.806377 0.239765
Si Si3 0.033659 0.148887 0.902715
Si Si4 0.325951 0.608714 0.094965
Si Si5 0.009358 0.439422 0.211614
O O1 0.750000 0.399260 0.500000
O O2 0.832318 0.324463 0.631381
O O3 0.915010 0.344954 0.437487
O O4 0.919261 0.422901 0.602492
O O5 0.750000 0.750000 0.250000
O O6 0.913324 0.801431 0.167462
O O7 0.736676 0.851336 0.177376
O O8 0.042452 0.096336 0.820939
O O9 0.091684 0.143672 0.024953
O O10 0.389607 0.566547 0.174627
O O11 0.250000 0.580335 0.000000
O O12 0.031621 0.500000 0.250000
#
# Coordination Sequence:
#
# PCOD8296176 Si02
#       5
#    16  16  16  16  16
#     4  10  21  39  60  88 125 160 202 252 302 364
#     4  10  21  40  64  90 121 160 205 250 306 368
#     4   9  20  40  60  85 122 156 197 253 301 357
#     4   9  19  38  59  85 122 157 196 250 304 360
#     4  10  21  40  62  87 121 160 204 253 305 363
#
# _framework density 21.471595000000001
#
# number of rings (size 3 to 8) (size 9 to 14) (size 15 to 20)
#    0.000    2.400    0.000    1.200    0.000    5.600 
#    0.000   46.000    0.000    0.000    0.000    0.000 
#    0.000    0.000    0.000    0.000    0.000    0.000 
#
# Total GULP energy -495652.892704 kJ/mol
# GULP energy per Si atom -12391.322318 kJ/mol
# Density = 2.142272 g / cm^3
# Si number density = 21.471595 Si / 1000 Ang^3
#
#
#
# Elastic Constant Matrix: (Units=GPa)
#
#
# Indices 1 2 3 4 5 6 
#
# 1 156.9777 55.3518 56.2762 -0.0002 0.0000 0.0000
# 2 55.3518 109.7554 43.6587 0.0002 0.0000 0.0000
# 3 56.2762 43.6587 97.2211 0.0001 -0.0002 -0.0003
# 4 -0.0002 0.0002 0.0001 14.4693 -0.0001 -0.0001
# 5 0.0000 0.0000 -0.0002 -0.0001 58.0735 0.0000
# 6 0.0000 0.0000 -0.0003 -0.0001 0.0000 23.8700
#
#
#
# Elastic Compliance Matrix: (Units=1/GPa)
#
#
# Indices 1 2 3 4 5 6 
#
# 1 0.008744 -0.002918 -0.003751 0.000000 0.000000 0.000000
# 2 -0.002918 0.012066 -0.003730 0.000000 0.000000 0.000000
# 3 -0.003751 -0.003730 0.014132 0.000000 0.000000 0.000000
# 4 0.000000 0.000000 0.000000 0.069112 0.000000 0.000000
# 5 0.000000 0.000000 0.000000 0.000000 0.017220 0.000000
# 6 0.000000 0.000000 0.000000 0.000000 0.000000 0.041894
#
#
# Mechanical properties :
#
#
# Convention : Reuss Voigt Hill
#
# Bulk Modulus (GPa) = 70.69512 74.94749 72.82131
# Shear Modulus (GPa) = 26.49999 33.19371 29.84685
#
# Velocity S-wave (km/s) = 3.51691 3.93610 3.73240
# Velocity P-wave (km/s) = 7.03477 7.45912 7.25005
#
# Compressibility (1/GPa) = 0.01414525
#
# Stress axis : x y z
#
# Youngs Moduli (GPa) = 114.36560 82.87648 70.76100
#
# Poissons Ratio (x) = 0.24180 0.26544
# Poissons Ratio (y) = 0.33367 0.26392
# Poissons Ratio (z) = 0.42901 0.30910
#
# Static dielectric constant tensor:
#      x y z
#    x 4.508380 0.000000 0.000000 
#    y 0.000000 3.267470 0.000000 
#    z 0.000000 0.000000 4.233180 
# 
# 
# High freq. dielectric constant tensor:
#      x y z
#    x 1.867450 0.000000 0.000000 
#    y 0.000000 1.782200 0.000000 
#    z 0.000000 0.000000 1.866480 
# 
# From -- ./inp_files/10817.got.cif
#   From: 2010.03.12/outbox.cif.g09.slc.cpg/sg73_6_cif.got.tgz:10817.got - 2010.04.16 15:25:48.
