data_PCOD8296868
_publ_section_title
;
Structure prediction by ZEFSAII (Michael W. Deem and Ramdas Pophale) SiO2 
 PCOD8296868
Probable space group: I B C A 
;
_chemical_formula_sum "Si O2"
_cell_formula_units_Z 96
_cell_length_a 14.978758
_cell_length_b 13.177258
_cell_length_c 21.247784
_cell_angle_alpha 90.000000
_cell_angle_beta 90.000000
_cell_angle_gamma 90.000000
_cell_volume 4193.865480
_symmetry_space_group_name_H-M "I B C A "
_symmetry_group_IT_number 73
_symmetry_cell_setting 'orthorhombic'
loop_
_space_group_symop_operation_xyz
x,y,z
-x,1/2-y,z
x,-y,1/2-z
1/2-x,y,-z
-x,-y,-z
x,1/2+y,-z
-x,y,1/2+z
1/2+x,-y,z
1/2+x,1/2+y,1/2+z
1/2-x,-y,1/2+z
1/2+x,1/2-y,-z
-x,1/2+y,1/2-z
1/2-x,1/2-y,1/2-z
1/2+x,y,1/2-z
1/2-x,1/2+y,z
x,1/2-y,1/2+z
loop_
_atom_site_type_symbol
_atom_site_label
_atom_site_fract_x
_atom_site_fract_y
_atom_site_fract_z
Si Si1 0.101603 0.757047 0.627281
Si Si2 0.904441 0.227768 0.608253
Si Si3 0.218006 0.416176 0.832523
Si Si4 0.643130 0.377092 0.006497
Si Si5 0.329056 0.910425 0.048427
Si Si6 0.761038 0.355338 0.195945
O O1 0.137267 0.641170 0.631909
O O2 0.105550 0.794282 0.555362
O O3 0.161761 0.835656 0.668691
O O4 0.000000 0.750000 0.651860
O O5 0.900122 0.128725 0.563434
O O6 0.890370 0.311806 0.553090
O O7 0.829490 0.223157 0.662419
O O8 0.000000 0.250000 0.640616
O O9 0.300214 0.424325 0.879309
O O10 0.197673 0.532356 0.815010
O O11 0.240860 0.344161 0.771769
O O12 0.616688 0.489597 0.029347
O O13 0.750000 0.366559 0.000000
O O14 0.250000 0.887321 0.000000
#
# Coordination Sequence:
#
# PCOD8296868 Si02
#       6
#    16  16  16  16  16  16
#     4  12  24  41  70 102 132 179 234 288 352 427
#     4  12  25  40  66 101 136 183 232 290 353 430
#     4  11  23  44  70  92 133 188 225 292 360 418
#     4  11  21  42  67  96 138 175 229 288 350 426
#     4  11  22  40  70  95 131 182 226 286 359 414
#     4  11  24  46  65  96 139 182 233 288 358 428
#
# _framework density 22.890575999999999
#
# number of rings (size 3 to 8) (size 9 to 14) (size 15 to 20)
#    0.000    0.667    5.000    3.500    0.000    2.667 
#    0.000    1.667    0.000    0.000    0.000    0.000 
#    0.000    0.000    0.000    0.000    0.000    0.000 
#
# Total GULP energy -594906.823142 kJ/mol
# GULP energy per Si atom -12393.892149 kJ/mol
# Density = 2.283848 g / cm^3
# Si number density = 22.890576 Si / 1000 Ang^3
#
#
#
# Elastic Constant Matrix: (Units=GPa)
#
#
# Indices 1 2 3 4 5 6 
#
# 1 113.2505 39.1085 25.7651 0.0000 0.0000 0.0000
# 2 39.1085 101.6992 32.5246 0.0000 0.0000 0.0000
# 3 25.7651 32.5246 124.6673 0.0000 0.0000 0.0000
# 4 0.0000 0.0000 0.0000 32.8011 0.0000 0.0000
# 5 0.0000 0.0000 0.0000 0.0000 14.5353 0.0000
# 6 0.0000 0.0000 0.0000 0.0000 0.0000 10.4081
#
#
#
# Elastic Compliance Matrix: (Units=1/GPa)
#
#
# Indices 1 2 3 4 5 6 
#
# 1 0.010344 -0.003594 -0.001200 0.000000 0.000000 0.000000
# 2 -0.003594 0.011977 -0.002382 0.000000 0.000000 0.000000
# 3 -0.001200 -0.002382 0.008891 0.000000 0.000000 0.000000
# 4 0.000000 0.000000 0.000000 0.030487 0.000000 0.000000
# 5 0.000000 0.000000 0.000000 0.000000 0.068798 0.000000
# 6 0.000000 0.000000 0.000000 0.000000 0.000000 0.096079
#
#
# Mechanical properties :
#
#
# Convention : Reuss Voigt Hill
#
# Bulk Modulus (GPa) = 59.31345 59.37927 59.34636
# Shear Modulus (GPa) = 20.28007 27.69683 23.98845
#
# Velocity S-wave (km/s) = 2.97973 3.48223 3.24074
# Velocity P-wave (km/s) = 6.14869 6.49344 6.32341
#
# Compressibility (1/GPa) = 0.01685958
#
# Stress axis : x y z
#
# Youngs Moduli (GPa) = 96.67305 83.49519 112.47591
#
# Poissons Ratio (x) = 0.30008 0.13499
# Poissons Ratio (y) = 0.34744 0.26790
# Poissons Ratio (z) = 0.11603 0.19887
#
# Static dielectric constant tensor:
#      x y z
#    x 3.699830 0.000000 0.000000 
#    y 0.000000 4.592180 0.000000 
#    z 0.000000 0.000000 4.301500 
# 
# 
# High freq. dielectric constant tensor:
#      x y z
#    x 1.858740 0.000000 0.000000 
#    y 0.000000 1.927720 0.000000 
#    z 0.000000 0.000000 1.916520 
# 
# From -- ./inp_files/26000.got.cif
#   From: 2010.03.12/outbox.cif.g09.slc.cpg/sg73_13_cif.got.tgz:26000.got - 2010.04.16 15:25:48.
