data_PCOD8296236
_publ_section_title
;
Structure prediction by ZEFSAII (Michael W. Deem and Ramdas Pophale) SiO2 
 PCOD8296236
Probable space group: I B C A 
;
_chemical_formula_sum "Si O2"
_cell_formula_units_Z 96
_cell_length_a 29.572409
_cell_length_b 5.008402
_cell_length_c 30.271159
_cell_angle_alpha 90.000000
_cell_angle_beta 90.000000
_cell_angle_gamma 90.000000
_cell_volume 4483.476870
_symmetry_space_group_name_H-M "I B C A "
_symmetry_group_IT_number 73
_symmetry_cell_setting 'orthorhombic'
loop_
_space_group_symop_operation_xyz
x,y,z
-x,1/2-y,z
x,-y,1/2-z
1/2-x,y,-z
-x,-y,-z
x,1/2+y,-z
-x,y,1/2+z
1/2+x,-y,z
1/2+x,1/2+y,1/2+z
1/2-x,-y,1/2+z
1/2+x,1/2-y,-z
-x,1/2+y,1/2-z
1/2-x,1/2-y,1/2-z
1/2+x,y,1/2-z
1/2-x,1/2+y,z
x,1/2-y,1/2+z
loop_
_atom_site_type_symbol
_atom_site_label
_atom_site_fract_x
_atom_site_fract_y
_atom_site_fract_z
Si Si1 0.097524 0.721985 0.524915
Si Si2 0.781336 0.512443 0.654398
Si Si3 0.626255 0.669433 0.375444
Si Si4 0.000000 0.250000 0.602723
Si Si5 0.000000 0.250000 0.952743
Si Si6 0.031156 0.500000 0.750000
Si Si7 0.218631 0.000000 0.750000
Si Si8 0.581237 0.841656 0.162580
O O1 0.118191 0.442023 0.508506
O O2 0.108988 0.795153 0.574914
O O3 0.043485 0.669943 0.518337
O O4 0.759289 0.222993 0.647696
O O5 0.821358 0.579438 0.620457
O O6 0.807189 0.515124 0.702922
O O7 0.598400 0.457189 0.346302
O O8 0.620942 0.950836 0.350029
O O9 0.038605 0.390766 0.631357
O O10 0.981242 0.496377 0.574646
O O11 0.064337 0.387864 0.712266
O O12 0.000000 0.750000 0.733915
O O13 0.250000 0.750000 0.750000
#
# Coordination Sequence:
#
# PCOD8296236 Si02
#       8
#    16  16  16   8   8   8   8  16
#     4  12  24  40  61  92 126 161 208 267 325 381
#     4  10  21  40  66  94 124 162 203 256 327 392
#     4  12  25  43  66  92 128 165 212 270 326 385
#     4  12  20  39  61  84 126 166 214 250 309 371
#     4  12  22  39  63  90 120 168 212 262 323 387
#     4  12  26  40  62  90 130 184 230 260 288 358
#     4   8  16  32  58  90 118 146 186 242 302 362
#     4  12  24  41  61  91 126 176 216 257 310 364
#
# _framework density 21.411954999999999
#
# number of rings (size 3 to 8) (size 9 to 14) (size 15 to 20)
#    0.000    0.667    4.167    4.500    1.167    1.333 
#    0.000    1.667    0.000    3.000    0.000    0.000 
#    0.000    0.000    0.000    0.000    0.000    0.000 
#
# Total GULP energy -594853.495029 kJ/mol
# GULP energy per Si atom -12392.781146 kJ/mol
# Density = 2.136322 g / cm^3
# Si number density = 21.411955 Si / 1000 Ang^3
#
#
#
# Elastic Constant Matrix: (Units=GPa)
#
#
# Indices 1 2 3 4 5 6 
#
# 1 64.5558 1.1146 21.8387 0.0000 0.0000 0.0000
# 2 1.1146 113.8704 35.2909 0.0000 0.0000 0.0000
# 3 21.8387 35.2909 98.0464 0.0000 0.0000 0.0000
# 4 0.0000 0.0000 0.0000 32.2772 0.0000 0.0000
# 5 0.0000 0.0000 0.0000 0.0000 14.1271 0.0000
# 6 0.0000 0.0000 0.0000 0.0000 0.0000 27.6288
#
#
#
# Elastic Compliance Matrix: (Units=1/GPa)
#
#
# Indices 1 2 3 4 5 6 
#
# 1 0.016880 0.001126 -0.004165 0.000000 0.000000 0.000000
# 2 0.001126 0.009960 -0.003836 0.000000 0.000000 0.000000
# 3 -0.004165 -0.003836 0.012508 0.000000 0.000000 0.000000
# 4 0.000000 0.000000 0.000000 0.030982 0.000000 0.000000
# 5 0.000000 0.000000 0.000000 0.000000 0.070786 0.000000
# 6 0.000000 0.000000 0.000000 0.000000 0.000000 0.036194
#
#
# Mechanical properties :
#
#
# Convention : Reuss Voigt Hill
#
# Bulk Modulus (GPa) = 39.06673 43.66234 41.36454
# Shear Modulus (GPa) = 25.05123 29.35519 27.20321
#
# Velocity S-wave (km/s) = 3.42419 3.70668 3.56823
# Velocity P-wave (km/s) = 5.82394 6.22536 6.02799
#
# Compressibility (1/GPa) = 0.02559722
#
# Stress axis : x y z
#
# Youngs Moduli (GPa) = 59.24169 100.40531 79.95180
#
# Poissons Ratio (x) = -0.11301 0.33300
# Poissons Ratio (y) = -0.06668 0.30666
# Poissons Ratio (z) = 0.24674 0.38511
#
# Static dielectric constant tensor:
#      x y z
#    x 3.549280 0.000000 0.000000 
#    y 0.000000 4.112930 0.000000 
#    z 0.000000 0.000000 3.957930 
# 
# 
# High freq. dielectric constant tensor:
#      x y z
#    x 1.802120 0.000000 0.000000 
#    y 0.000000 1.871400 0.000000 
#    z 0.000000 0.000000 1.835380 
# 
# From -- ./inp_files/34916.got.cif
#   From: 2010.03.12/outbox.cif.g09.slc.cpg/sg73_18_cif.got.tgz:34916.got - 2010.04.16 15:25:48.
