data_PCOD8296910
_publ_section_title
;
Structure prediction by ZEFSAII (Michael W. Deem and Ramdas Pophale) SiO2 
 PCOD8296910
Probable space group: I B C A 
;
_chemical_formula_sum "Si O2"
_cell_formula_units_Z 112
_cell_length_a 13.757341
_cell_length_b 29.691245
_cell_length_c 12.194869
_cell_angle_alpha 90.000000
_cell_angle_beta 90.000000
_cell_angle_gamma 90.000000
_cell_volume 4981.269630
_symmetry_space_group_name_H-M "I B C A "
_symmetry_group_IT_number 73
_symmetry_cell_setting 'orthorhombic'
loop_
_space_group_symop_operation_xyz
x,y,z
-x,1/2-y,z
x,-y,1/2-z
1/2-x,y,-z
-x,-y,-z
x,1/2+y,-z
-x,y,1/2+z
1/2+x,-y,z
1/2+x,1/2+y,1/2+z
1/2-x,-y,1/2+z
1/2+x,1/2-y,-z
-x,1/2+y,1/2-z
1/2-x,1/2-y,1/2-z
1/2+x,y,1/2-z
1/2-x,1/2+y,z
x,1/2-y,1/2+z
loop_
_atom_site_type_symbol
_atom_site_label
_atom_site_fract_x
_atom_site_fract_y
_atom_site_fract_z
Si Si1 0.860539 0.836135 0.298175
Si Si2 0.859710 0.178243 0.460785
Si Si3 0.976680 0.525020 0.352518
Si Si4 0.552431 0.877091 0.147421
Si Si5 0.362519 0.451969 0.030177
Si Si6 0.136508 0.774985 0.984679
Si Si7 0.646350 0.143815 0.136516
O O1 0.860352 0.831029 0.168279
O O2 0.885776 0.788460 0.357893
O O3 0.762436 0.854371 0.353957
O O4 0.937184 0.873544 0.334744
O O5 0.750000 0.176869 0.500000
O O6 0.917847 0.139735 0.526232
O O7 0.912109 0.226485 0.487332
O O8 0.026997 0.500000 0.250000
O O9 0.918030 0.571248 0.331755
O O10 0.890684 0.491224 0.386418
O O11 0.064990 0.538085 0.430726
O O12 0.605289 0.848175 0.241602
O O13 0.385682 0.403073 0.081616
O O14 0.250000 0.456718 0.000000
O O15 0.101750 0.815262 0.064871
O O16 0.250000 0.766677 0.000000
#
# Coordination Sequence:
#
# PCOD8296910 Si02
#       7
#    16  16  16  16  16  16  16
#     4  11  25  44  70  98 139 194 232 287 361 421
#     4  11  25  45  69 102 140 184 241 297 351 413
#     4  11  25  46  67 103 140 175 228 295 347 413
#     4  12  26  43  69 100 144 181 232 293 354 414
#     4  11  24  45  74 101 136 181 234 282 349 426
#     4   9  22  41  69  98 136 181 237 288 351 416
#     4  11  22  46  72  98 139 186 232 289 348 428
#
# _framework density 22.484228999999999
#
# number of rings (size 3 to 8) (size 9 to 14) (size 15 to 20)
#    0.000    1.143    2.857    3.000    6.000    3.429 
#    2.571    0.000    0.000    0.000    0.000    0.000 
#    0.000    0.000    0.000    0.000    0.000    0.000 
#
# Total GULP energy -694238.144499 kJ/mol
# GULP energy per Si atom -12397.109723 kJ/mol
# Density = 2.243305 g / cm^3
# Si number density = 22.484229 Si / 1000 Ang^3
#
#
#
# Elastic Constant Matrix: (Units=GPa)
#
#
# Indices 1 2 3 4 5 6 
#
# 1 62.5399 29.6985 22.1241 -0.0005 0.0005 0.0003
# 2 29.6985 174.2423 70.0663 -0.0009 0.0004 0.0000
# 3 22.1241 70.0663 166.2000 -0.0083 0.0028 0.0007
# 4 -0.0005 -0.0009 -0.0083 34.7595 0.0008 -0.0001
# 5 0.0005 0.0004 0.0028 0.0008 33.2013 -0.0002
# 6 0.0003 0.0000 0.0007 -0.0001 -0.0002 35.5643
#
#
#
# Elastic Compliance Matrix: (Units=1/GPa)
#
#
# Indices 1 2 3 4 5 6 
#
# 1 0.017628 -0.002482 -0.001300 0.000000 0.000000 0.000000
# 2 -0.002482 0.007260 -0.002730 0.000000 0.000000 0.000000
# 3 -0.001300 -0.002730 0.007341 0.000002 -0.000001 0.000000
# 4 0.000000 0.000000 0.000002 0.028769 -0.000001 0.000000
# 5 0.000000 0.000000 -0.000001 -0.000001 0.030119 0.000000
# 6 0.000000 0.000000 0.000000 0.000000 0.000000 0.028118
#
#
# Mechanical properties :
#
#
# Convention : Reuss Voigt Hill
#
# Bulk Modulus (GPa) = 52.07117 71.86222 61.96669
# Shear Modulus (GPa) = 36.05885 39.44457 37.75171
#
# Velocity S-wave (km/s) = 4.00902 4.19301 4.10204
# Velocity P-wave (km/s) = 6.68123 7.44797 7.07500
#
# Compressibility (1/GPa) = 0.01920448
#
# Stress axis : x y z
#
# Youngs Moduli (GPa) = 56.72695 137.74023 136.22132
#
# Poissons Ratio (x) = 0.34183 0.17714
# Poissons Ratio (y) = 0.14078 0.37193
# Poissons Ratio (z) = 0.07377 0.37607
#
# Static dielectric constant tensor:
#      x y z
#    x 3.956380 0.000000 -0.000010 
#    y 0.000000 4.307280 0.000000 
#    z -0.000010 0.000000 4.708290 
# 
# 
# High freq. dielectric constant tensor:
#      x y z
#    x 1.886100 0.000000 0.000000 
#    y 0.000000 1.892580 0.000000 
#    z 0.000000 0.000000 1.899570 
# 
# From -- ./inp_files/11265.got.cif
#   From: 2010.03.12/outbox.cif.g09.slc.cpg/sg73_6_cif.got.tgz:11265.got - 2010.04.16 15:25:48.
