data_PCOD8296418
_publ_section_title
;
Structure prediction by ZEFSAII (Michael W. Deem and Ramdas Pophale) SiO2 
 PCOD8296418
Probable space group: I B C A 
;
_chemical_formula_sum "Si O2"
_cell_formula_units_Z 88
_cell_length_a 31.651558
_cell_length_b 24.683714
_cell_length_c 5.122065
_cell_angle_alpha 90.000000
_cell_angle_beta 90.000000
_cell_angle_gamma 90.000000
_cell_volume 4001.756726
_symmetry_space_group_name_H-M "I B C A "
_symmetry_group_IT_number 73
_symmetry_cell_setting 'orthorhombic'
loop_
_space_group_symop_operation_xyz
x,y,z
-x,1/2-y,z
x,-y,1/2-z
1/2-x,y,-z
-x,-y,-z
x,1/2+y,-z
-x,y,1/2+z
1/2+x,-y,z
1/2+x,1/2+y,1/2+z
1/2-x,-y,1/2+z
1/2+x,1/2-y,-z
-x,1/2+y,1/2-z
1/2-x,1/2-y,1/2-z
1/2+x,y,1/2-z
1/2-x,1/2+y,z
x,1/2-y,1/2+z
loop_
_atom_site_type_symbol
_atom_site_label
_atom_site_fract_x
_atom_site_fract_y
_atom_site_fract_z
Si Si1 0.277238 0.104272 0.748867
Si Si2 0.974179 0.616926 0.117663
Si Si3 0.576952 0.282128 0.567136
Si Si4 0.086356 0.471153 0.995671
Si Si5 0.671664 0.713208 0.853573
Si Si6 0.331859 0.500000 0.250000
O O1 0.250000 0.085373 0.500000
O O2 0.302719 0.157457 0.662363
O O3 0.304818 0.052092 0.836984
O O4 0.250000 0.120539 0.000000
O O5 0.962328 0.679617 0.129118
O O6 0.929798 0.590098 0.026822
O O7 0.990254 0.601329 0.405316
O O8 0.572669 0.269062 0.260474
O O9 0.623067 0.306420 0.635380
O O10 0.064091 0.500000 0.750000
O O11 0.137457 0.478012 0.983108
O O12 0.068303 0.500000 0.250000
O O13 0.682778 0.752152 0.610763
#
# Coordination Sequence:
#
# PCOD8296418 Si02
#       6
#    16  16  16  16  16   8
#     4  12  26  41  67  99 133 168 207 269 329 384
#     4  12  25  40  63  95 131 164 207 269 323 374
#     4  10  22  41  63  91 124 171 216 253 309 378
#     4  10  24  43  67  90 117 172 208 264 304 379
#     4  10  22  43  67  93 128 171 216 261 309 382
#     4  10  26  46  68  92 130 170 224 258 318 382
#
# _framework density 21.990341000000001
#
# number of rings (size 3 to 8) (size 9 to 14) (size 15 to 20)
#    0.545    0.727    0.000    4.909    2.545    6.545 
#    6.545    0.000    0.000    0.000    0.000    0.000 
#    0.000    0.000    0.000    0.000    0.000    0.000 
#
# Total GULP energy -545266.908371 kJ/mol
# GULP energy per Si atom -12392.429736 kJ/mol
# Density = 2.194029 g / cm^3
# Si number density = 21.990341 Si / 1000 Ang^3
#
#
#
# Elastic Constant Matrix: (Units=GPa)
#
#
# Indices 1 2 3 4 5 6 
#
# 1 81.8765 47.6619 30.7845 0.0000 0.0000 0.0000
# 2 47.6619 102.0294 21.4152 0.0000 0.0000 0.0000
# 3 30.7845 21.4152 135.7404 0.0000 0.0000 0.0000
# 4 0.0000 0.0000 0.0000 23.3751 0.0000 0.0000
# 5 0.0000 0.0000 0.0000 0.0000 459.2137 0.0000
# 6 0.0000 0.0000 0.0000 0.0000 0.0000 52.5372
#
#
#
# Elastic Compliance Matrix: (Units=1/GPa)
#
#
# Indices 1 2 3 4 5 6 
#
# 1 0.017755 -0.007704 -0.002811 0.000000 0.000000 0.000000
# 2 -0.007704 0.013480 -0.000379 0.000000 0.000000 0.000000
# 3 -0.002811 -0.000379 0.008064 0.000000 0.000000 0.000000
# 4 0.000000 0.000000 0.000000 0.042781 0.000000 0.000000
# 5 0.000000 0.000000 0.000000 0.000000 0.002178 0.000000
# 6 0.000000 0.000000 0.000000 0.000000 0.000000 0.019034
#
#
# Mechanical properties :
#
#
# Convention : Reuss Voigt Hill
#
# Bulk Modulus (GPa) = 57.11110 57.70773 57.40941
# Shear Modulus (GPa) = 38.19193 121.67752 79.93473
#
# Velocity S-wave (km/s) = 4.17197 7.44664 6.03563
# Velocity P-wave (km/s) = 7.01673 10.01178 8.64495
#
# Compressibility (1/GPa) = 0.01750973
#
# Stress axis : x y z
#
# Youngs Moduli (GPa) = 56.32152 74.18607 124.00141
#
# Poissons Ratio (x) = 0.57154 0.34860
# Poissons Ratio (y) = 0.43391 0.04705
# Poissons Ratio (z) = 0.15833 0.02815
#
# Static dielectric constant tensor:
#      x y z
#    x 3.927750 0.000000 0.000000 
#    y 0.000000 3.771760 0.000000 
#    z 0.000000 0.000000 4.223780 
# 
# 
# High freq. dielectric constant tensor:
#      x y z
#    x 1.864930 0.000000 0.000000 
#    y 0.000000 1.861040 0.000000 
#    z 0.000000 0.000000 1.873100 
# 
# From -- ./inp_files/3120.got.cif
#   From: 2010.03.12/outbox.cif.g09.slc.cpg/sg73_2_cif.got.tgz:3120.got - 2010.04.16 15:25:48.
