data_PCOD8296944
_publ_section_title
;
Structure prediction by ZEFSAII (Michael W. Deem and Ramdas Pophale) SiO2 
 PCOD8296944
Probable space group: I B C A 
;
_chemical_formula_sum "Si O2"
_cell_formula_units_Z 104
_cell_length_a 20.873499
_cell_length_b 27.711695
_cell_length_c 7.642824
_cell_angle_alpha 90.000000
_cell_angle_beta 90.000000
_cell_angle_gamma 90.000000
_cell_volume 4420.915404
_symmetry_space_group_name_H-M "I B C A "
_symmetry_group_IT_number 73
_symmetry_cell_setting 'orthorhombic'
loop_
_space_group_symop_operation_xyz
x,y,z
-x,1/2-y,z
x,-y,1/2-z
1/2-x,y,-z
-x,-y,-z
x,1/2+y,-z
-x,y,1/2+z
1/2+x,-y,z
1/2+x,1/2+y,1/2+z
1/2-x,-y,1/2+z
1/2+x,1/2-y,-z
-x,1/2+y,1/2-z
1/2-x,1/2-y,1/2-z
1/2+x,y,1/2-z
1/2-x,1/2+y,z
x,1/2-y,1/2+z
loop_
_atom_site_type_symbol
_atom_site_label
_atom_site_fract_x
_atom_site_fract_y
_atom_site_fract_z
Si Si1 0.063763 0.476373 0.433723
Si Si2 0.844051 0.000000 0.750000
Si Si3 0.050450 0.136376 0.915129
Si Si4 0.411915 0.660539 0.530179
Si Si5 0.815611 0.736011 0.078238
Si Si6 0.802230 0.898940 0.644926
Si Si7 0.832007 0.674924 0.404769
O O1 0.086722 0.500000 0.250000
O O2 0.116663 0.483807 0.581137
O O3 0.046482 0.420910 0.414111
O O4 0.000000 0.500000 0.500000
O O5 0.800164 0.044852 0.806940
O O6 0.096270 0.154372 0.072519
O O7 0.981353 0.160415 0.938647
O O8 0.082010 0.150137 0.733162
O O9 0.378306 0.712555 0.514306
O O10 0.370168 0.619197 0.431452
O O11 0.811722 0.795597 0.079736
O O12 0.750000 0.713341 0.000000
O O13 0.825241 0.721649 0.279091
O O14 0.750000 0.887671 0.500000
O O15 0.788173 0.868251 0.824940
#
# Coordination Sequence:
#
# PCOD8296944 Si02
#       7
#    16   8  16  16  16  16  16
#     4  12  24  40  72 109 148 196 249 302 370 452
#     4  12  24  48  72 104 156 196 252 312 372 450
#     4  12  24  43  69 108 142 187 239 304 380 442
#     4  11  24  43  70 104 146 184 242 305 371 447
#     4  11  24  44  71 103 140 190 240 295 360 447
#     4  11  25  49  72 102 149 199 250 311 375 444
#     4  11  23  43  70 103 142 183 242 303 371 442
#
# _framework density 23.524539999999998
#
# number of rings (size 3 to 8) (size 9 to 14) (size 15 to 20)
#    0.000    0.615    2.308    7.846    0.000    1.846 
#    4.154    5.385    0.000    0.000    0.000    0.000 
#    0.000    0.000    0.000    0.000    0.000    0.000 
#
# Total GULP energy -644349.450995 kJ/mol
# GULP energy per Si atom -12391.335596 kJ/mol
# Density = 2.347100 g / cm^3
# Si number density = 23.524540 Si / 1000 Ang^3
#
#
#
# Elastic Constant Matrix: (Units=GPa)
#
#
# Indices 1 2 3 4 5 6 
#
# 1 90.1948 45.6981 28.8983 0.0000 0.0000 0.0000
# 2 45.6981 118.3623 16.4043 0.0000 0.0000 0.0000
# 3 28.8983 16.4043 90.1840 0.0000 0.0000 0.0000
# 4 0.0000 0.0000 0.0000 48.8596 0.0000 0.0000
# 5 0.0000 0.0000 0.0000 0.0000 43.2614 0.0000
# 6 0.0000 0.0000 0.0000 0.0000 0.0000 30.2128
#
#
#
# Elastic Compliance Matrix: (Units=1/GPa)
#
#
# Indices 1 2 3 4 5 6 
#
# 1 0.014979 -0.005250 -0.003845 0.000000 0.000000 0.000000
# 2 -0.005250 0.010507 -0.000229 0.000000 0.000000 0.000000
# 3 -0.003845 -0.000229 0.012362 0.000000 0.000000 0.000000
# 4 0.000000 0.000000 0.000000 0.020467 0.000000 0.000000
# 5 0.000000 0.000000 0.000000 0.000000 0.023115 0.000000
# 6 0.000000 0.000000 0.000000 0.000000 0.000000 0.033099
#
#
# Mechanical properties :
#
#
# Convention : Reuss Voigt Hill
#
# Bulk Modulus (GPa) = 52.08190 53.41583 52.74887
# Shear Modulus (GPa) = 35.82233 38.31613 37.06923
#
# Velocity S-wave (km/s) = 3.90649 4.04018 3.97390
# Velocity P-wave (km/s) = 6.52189 6.67232 6.59753
#
# Compressibility (1/GPa) = 0.01920053
#
# Stress axis : x y z
#
# Youngs Moduli (GPa) = 66.75943 95.17049 80.89236
#
# Poissons Ratio (x) = 0.49968 0.31102
# Poissons Ratio (y) = 0.35051 0.01851
# Poissons Ratio (z) = 0.25668 0.02178
#
# Static dielectric constant tensor:
#      x y z
#    x 4.190300 0.000000 0.000000 
#    y 0.000000 3.641930 0.000000 
#    z 0.000000 0.000000 4.642910 
# 
# 
# High freq. dielectric constant tensor:
#      x y z
#    x 1.922590 0.000000 0.000000 
#    y 0.000000 1.941540 0.000000 
#    z 0.000000 0.000000 1.957410 
# 
# From -- ./inp_files/6675.got.cif
#   From: 2010.03.12/outbox.cif.g09.slc.cpg/sg73_4_cif.got.tgz:6675.got - 2010.04.16 15:25:48.
