data_PCOD8296050
_publ_section_title
;
Structure prediction by ZEFSAII (Michael W. Deem and Ramdas Pophale) SiO2 
 PCOD8296050
Probable space group: I B C A 
;
_chemical_formula_sum "Si O2"
_cell_formula_units_Z 104
_cell_length_a 25.713516
_cell_length_b 18.713691
_cell_length_c 9.159428
_cell_angle_alpha 90.000000
_cell_angle_beta 90.000000
_cell_angle_gamma 90.000000
_cell_volume 4407.469060
_symmetry_space_group_name_H-M "I B C A "
_symmetry_group_IT_number 73
_symmetry_cell_setting 'orthorhombic'
loop_
_space_group_symop_operation_xyz
x,y,z
-x,1/2-y,z
x,-y,1/2-z
1/2-x,y,-z
-x,-y,-z
x,1/2+y,-z
-x,y,1/2+z
1/2+x,-y,z
1/2+x,1/2+y,1/2+z
1/2-x,-y,1/2+z
1/2+x,1/2-y,-z
-x,1/2+y,1/2-z
1/2-x,1/2-y,1/2-z
1/2+x,y,1/2-z
1/2-x,1/2+y,z
x,1/2-y,1/2+z
loop_
_atom_site_type_symbol
_atom_site_label
_atom_site_fract_x
_atom_site_fract_y
_atom_site_fract_z
Si Si1 0.650139 0.513992 0.011906
Si Si2 0.000000 0.750000 0.079201
Si Si3 0.320681 0.228959 0.747876
Si Si4 0.773410 0.000000 0.750000
Si Si5 0.063409 0.682180 0.828592
Si Si6 0.545556 0.477318 0.900151
Si Si7 0.750000 0.739880 0.000000
Si Si8 0.818589 0.898468 0.221927
O O1 0.657032 0.578953 0.123534
O O2 0.649364 0.436447 0.091669
O O3 0.693789 0.519274 0.890531
O O4 0.595214 0.525988 0.935321
O O5 0.975987 0.690527 0.190276
O O6 0.952860 0.771811 0.971139
O O7 0.378482 0.199764 0.771222
O O8 0.286680 0.212749 0.893073
O O9 0.289513 0.194467 0.607144
O O10 0.321466 0.313575 0.710556
O O11 0.739608 0.930053 0.787443
O O12 0.061603 0.604514 0.896698
O O13 0.521203 0.500000 0.750000
O O14 0.500000 0.500000 0.000000
#
# Coordination Sequence:
#
# PCOD8296050 Si02
#       8
#    16   8  16   8  16  16   8  16
#     4  10  23  41  66 104 137 192 235 297 356 420
#     4  10  24  46  74 104 136 192 234 312 364 448
#     4  11  25  43  70  99 148 190 237 298 359 439
#     4  10  20  42  64 106 140 192 242 292 348 420
#     4  11  25  47  73 105 142 188 247 300 382 448
#     4  12  28  47  74 103 139 183 236 309 368 441
#     4  10  26  42  60 110 136 200 232 286 356 434
#     4  10  23  39  69  97 144 189 236 288 351 431
#
# _framework density 23.596309000000002
#
# number of rings (size 3 to 8) (size 9 to 14) (size 15 to 20)
#    0.000    1.538    0.769    3.692   10.769    6.154 
#    0.000    0.000    0.000    0.000    0.000    0.000 
#    0.000    0.000    0.000    0.000    0.000    0.000 
#
# Total GULP energy -644226.794336 kJ/mol
# GULP energy per Si atom -12388.976814 kJ/mol
# Density = 2.354260 g / cm^3
# Si number density = 23.596309 Si / 1000 Ang^3
#
#
#
# Elastic Constant Matrix: (Units=GPa)
#
#
# Indices 1 2 3 4 5 6 
#
# 1 176.0608 25.4896 67.9088 0.0000 0.0000 0.0000
# 2 25.4896 68.3152 4.5057 0.0000 0.0000 0.0000
# 3 67.9088 4.5057 160.6237 0.0000 0.0000 0.0000
# 4 0.0000 0.0000 0.0000 23.1357 0.0000 0.0000
# 5 0.0000 0.0000 0.0000 0.0000 64.4089 0.0000
# 6 0.0000 0.0000 0.0000 0.0000 0.0000 27.9149
#
#
#
# Elastic Compliance Matrix: (Units=1/GPa)
#
#
# Indices 1 2 3 4 5 6 
#
# 1 0.007184 -0.002485 -0.002968 0.000000 0.000000 0.000000
# 2 -0.002485 0.015525 0.000615 0.000000 0.000000 0.000000
# 3 -0.002968 0.000615 0.007463 0.000000 0.000000 0.000000
# 4 0.000000 0.000000 0.000000 0.043223 0.000000 0.000000
# 5 0.000000 0.000000 0.000000 0.000000 0.015526 0.000000
# 6 0.000000 0.000000 0.000000 0.000000 0.000000 0.035823
#
#
# Mechanical properties :
#
#
# Convention : Reuss Voigt Hill
#
# Bulk Modulus (GPa) = 48.78738 66.75644 57.77191
# Shear Modulus (GPa) = 35.39783 43.56494 39.48139
#
# Velocity S-wave (km/s) = 3.87737 4.30148 4.09492
# Velocity P-wave (km/s) = 6.38483 7.28167 6.84795
#
# Compressibility (1/GPa) = 0.02049710
#
# Stress axis : x y z
#
# Youngs Moduli (GPa) = 139.19291 64.41391 133.99158
#
# Poissons Ratio (x) = 0.16006 0.39764
# Poissons Ratio (y) = 0.34587 -0.08241
# Poissons Ratio (z) = 0.41308 -0.03962
#
# Static dielectric constant tensor:
#      x y z
#    x 5.206640 0.000000 0.000000 
#    y 0.000000 3.965270 0.000000 
#    z 0.000000 0.000000 4.715210 
# 
# 
# High freq. dielectric constant tensor:
#      x y z
#    x 1.940880 0.000000 0.000000 
#    y 0.000000 1.908030 0.000000 
#    z 0.000000 0.000000 1.967650 
# 
# From -- ./inp_files/7938.got.cif
#   From: 2010.03.12/outbox.cif.g09.slc.cpg/sg73_4_cif.got.tgz:7938.got - 2010.04.16 15:25:48.
