data_PCOD8296709
_publ_section_title
;
Structure prediction by ZEFSAII (Michael W. Deem and Ramdas Pophale) SiO2 
 PCOD8296709
Probable space group: I B C A 
;
_chemical_formula_sum "Si O2"
_cell_formula_units_Z 80
_cell_length_a 21.087792
_cell_length_b 9.774060
_cell_length_c 18.275252
_cell_angle_alpha 90.000000
_cell_angle_beta 90.000000
_cell_angle_gamma 90.000000
_cell_volume 3766.773307
_symmetry_space_group_name_H-M "I B C A "
_symmetry_group_IT_number 73
_symmetry_cell_setting 'orthorhombic'
loop_
_space_group_symop_operation_xyz
x,y,z
-x,1/2-y,z
x,-y,1/2-z
1/2-x,y,-z
-x,-y,-z
x,1/2+y,-z
-x,y,1/2+z
1/2+x,-y,z
1/2+x,1/2+y,1/2+z
1/2-x,-y,1/2+z
1/2+x,1/2-y,-z
-x,1/2+y,1/2-z
1/2-x,1/2-y,1/2-z
1/2+x,y,1/2-z
1/2-x,1/2+y,z
x,1/2-y,1/2+z
loop_
_atom_site_type_symbol
_atom_site_label
_atom_site_fract_x
_atom_site_fract_y
_atom_site_fract_z
Si Si1 0.374249 0.244537 0.909399
Si Si2 0.670766 0.026703 0.645771
Si Si3 0.311257 0.278139 0.050309
Si Si4 0.191568 0.993515 0.331144
Si Si5 0.564371 0.500000 0.250000
Si Si6 0.000000 0.750000 0.330965
O O1 0.361095 0.402285 0.895567
O O2 0.322704 0.153836 0.866414
O O3 0.443567 0.199303 0.883065
O O4 0.369567 0.236955 0.997167
O O5 0.700544 0.139075 0.592830
O O6 0.734412 0.977228 0.686400
O O7 0.613745 0.081993 0.697123
O O8 0.331494 0.394403 0.108770
O O9 0.250000 0.319498 0.000000
O O10 0.158196 0.000000 0.250000
O O11 0.520407 0.381545 0.283280
#
# Coordination Sequence:
#
# PCOD8296709 Si02
#       6
#    16  16  16  16   8   8
#     4  11  25  44  69  96 145 184 227 285 350 429
#     4  11  22  40  67 100 135 177 224 284 359 406
#     4  12  24  41  68 103 146 179 223 288 362 428
#     4  12  25  39  70 109 141 174 230 289 360 418
#     4  10  24  44  68  94 140 180 238 298 346 406
#     4  10  26  48  66  96 140 190 240 282 344 422
#
# _framework density 21.238337000000001
#
# number of rings (size 3 to 8) (size 9 to 14) (size 15 to 20)
#    0.000    0.800    5.000    1.200    7.000    1.600 
#    0.000   10.000    0.000    0.000    0.000    0.000 
#    0.000    0.000    0.000    0.000    0.000    0.000 
#
# Total GULP energy -495527.427210 kJ/mol
# GULP energy per Si atom -12388.185680 kJ/mol
# Density = 2.119000 g / cm^3
# Si number density = 21.238337 Si / 1000 Ang^3
#
#
#
# Elastic Constant Matrix: (Units=GPa)
#
#
# Indices 1 2 3 4 5 6 
#
# 1 116.9210 23.4372 37.9196 0.0000 0.0000 0.0000
# 2 23.4372 83.3837 43.1415 0.0000 0.0000 0.0000
# 3 37.9196 43.1415 151.3750 0.0000 0.0000 0.0000
# 4 0.0000 0.0000 0.0000 37.4699 0.0000 0.0000
# 5 0.0000 0.0000 0.0000 0.0000 -7.9693 0.0000
# 6 0.0000 0.0000 0.0000 0.0000 0.0000 32.0342
#
#
#
# Elastic Compliance Matrix: (Units=1/GPa)
#
#
# Indices 1 2 3 4 5 6 
#
# 1 0.009508 -0.001689 -0.001900 0.000000 0.000000 0.000000
# 2 -0.001689 0.014367 -0.003671 0.000000 0.000000 0.000000
# 3 -0.001900 -0.003671 0.008128 0.000000 0.000000 0.000000
# 4 0.000000 0.000000 0.000000 0.026688 0.000000 0.000000
# 5 0.000000 0.000000 0.000000 0.000000 -0.125481 0.000000
# 6 0.000000 0.000000 0.000000 0.000000 0.000000 0.031217
#
#
# Mechanical properties :
#
#
# Convention : Reuss Voigt Hill
#
# Bulk Modulus (GPa) = 57.20356 62.29737 59.75046
# Shear Modulus (GPa) = -328.42009 28.78569 -149.81720
#
# Velocity S-wave (km/s) = -12.44874 3.68552 -8.40798
# Velocity P-wave (km/s) = 13.40282 6.89253 8.12800
#
# Compressibility (1/GPa) = 0.01748143
#
# Stress axis : x y z
#
# Youngs Moduli (GPa) = 105.17808 69.60342 123.02416
#
# Poissons Ratio (x) = 0.11758 0.23378
# Poissons Ratio (y) = 0.17767 0.45168
# Poissons Ratio (z) = 0.19987 0.25555
#
# Static dielectric constant tensor:
#      x y z
#    x 4.202750 0.000000 0.000000 
#    y 0.000000 3.663630 0.000000 
#    z 0.000000 0.000000 5.196910 
# 
# 
# High freq. dielectric constant tensor:
#      x y z
#    x 1.814660 0.000000 0.000000 
#    y 0.000000 1.831700 0.000000 
#    z 0.000000 0.000000 1.847210 
# 
# From -- ./inp_files/7010.got.cif
#   From: 2010.03.12/outbox.cif.g09.slc.cpg/sg73_4_cif.got.tgz:7010.got - 2010.04.16 15:25:48.
