data_PCOD8296118
_publ_section_title
;
Structure prediction by ZEFSAII (Michael W. Deem and Ramdas Pophale) SiO2 
 PCOD8296118
Probable space group: I B C A 
;
_chemical_formula_sum "Si O2"
_cell_formula_units_Z 104
_cell_length_a 10.858257
_cell_length_b 28.163943
_cell_length_c 16.374619
_cell_angle_alpha 90.000000
_cell_angle_beta 90.000000
_cell_angle_gamma 90.000000
_cell_volume 5007.544035
_symmetry_space_group_name_H-M "I B C A "
_symmetry_group_IT_number 73
_symmetry_cell_setting 'orthorhombic'
loop_
_space_group_symop_operation_xyz
x,y,z
-x,1/2-y,z
x,-y,1/2-z
1/2-x,y,-z
-x,-y,-z
x,1/2+y,-z
-x,y,1/2+z
1/2+x,-y,z
1/2+x,1/2+y,1/2+z
1/2-x,-y,1/2+z
1/2+x,1/2-y,-z
-x,1/2+y,1/2-z
1/2-x,1/2-y,1/2-z
1/2+x,y,1/2-z
1/2-x,1/2+y,z
x,1/2-y,1/2+z
loop_
_atom_site_type_symbol
_atom_site_label
_atom_site_fract_x
_atom_site_fract_y
_atom_site_fract_z
Si Si1 0.250000 0.842445 0.000000
Si Si2 0.643720 0.375554 0.941310
Si Si3 0.496158 0.805367 0.943751
Si Si4 0.847262 0.140392 0.321545
Si Si5 0.710711 0.104794 0.849606
Si Si6 0.535186 0.061201 0.170806
Si Si7 0.992869 0.956655 0.852650
O O1 0.150606 0.814136 0.054295
O O2 0.330808 0.871863 0.065284
O O3 0.711615 0.354532 0.861042
O O4 0.562115 0.421230 0.919637
O O5 0.750000 0.394939 0.000000
O O6 0.566725 0.333788 0.984441
O O7 0.500000 0.750000 0.960407
O O8 0.559730 0.818825 0.856084
O O9 0.826297 0.141320 0.223676
O O10 0.908724 0.089574 0.344481
O O11 0.854594 0.093814 0.861363
O O12 0.637685 0.055118 0.840695
O O13 0.569808 0.052004 0.265057
O O14 0.523940 0.011503 0.121606
#
# Coordination Sequence:
#
# PCOD8296118 Si02
#       7
#     8  16  16  16  16  16  16
#     4  12  24  44  66  96 132 172 214 286 340 392
#     4  10  21  40  62  90 127 170 212 268 337 400
#     4  11  25  45  70  97 126 167 221 279 353 411
#     4  10  22  42  66  91 130 176 219 271 329 407
#     4  11  22  41  64  90 134 173 216 272 327 384
#     4  10  21  36  63  92 127 175 224 265 309 393
#     4  10  21  36  60  92 125 174 221 258 319 380
#
# _framework density 20.768664999999999
#
# number of rings (size 3 to 8) (size 9 to 14) (size 15 to 20)
#    0.000    1.538    4.615    0.000    5.385    1.231 
#    1.385    5.385    0.000    0.000    0.000    0.000 
#    0.000    0.000    0.000    0.000    0.000    0.000 
#
# Total GULP energy -644417.395128 kJ/mol
# GULP energy per Si atom -12392.642214 kJ/mol
# Density = 2.072139 g / cm^3
# Si number density = 20.768665 Si / 1000 Ang^3
#
#
#
# Elastic Constant Matrix: (Units=GPa)
#
#
# Indices 1 2 3 4 5 6 
#
# 1 88.2165 30.8065 28.4446 -0.0002 0.0000 0.0003
# 2 30.8065 127.8005 47.2743 -0.0003 0.0000 -0.0001
# 3 28.4446 47.2743 101.5626 -0.0007 0.0001 -0.0014
# 4 -0.0002 -0.0003 -0.0007 20.4335 0.0001 -0.0005
# 5 0.0000 0.0000 0.0001 0.0001 31.5241 0.0003
# 6 0.0003 -0.0001 -0.0014 -0.0005 0.0003 -14.5198
#
#
#
# Elastic Compliance Matrix: (Units=1/GPa)
#
#
# Indices 1 2 3 4 5 6 
#
# 1 0.012931 -0.002147 -0.002622 0.000000 0.000000 0.000001
# 2 -0.002147 0.009809 -0.003964 0.000000 0.000000 0.000000
# 3 -0.002622 -0.003964 0.012426 0.000000 0.000000 -0.000001
# 4 0.000000 0.000000 0.000000 0.048939 0.000000 -0.000002
# 5 0.000000 0.000000 0.000000 0.000000 0.031722 0.000001
# 6 0.000001 0.000000 -0.000001 -0.000002 0.000001 -0.068871
#
#
# Mechanical properties :
#
#
# Convention : Reuss Voigt Hill
#
# Bulk Modulus (GPa) = 56.50238 58.95892 57.73065
# Shear Modulus (GPa) = 71.10177 21.55783 46.32980
#
# Velocity S-wave (km/s) = 5.85743 3.22529 4.72821
# Velocity P-wave (km/s) = 8.54462 6.50539 7.59377
#
# Compressibility (1/GPa) = 0.01769837
#
# Stress axis : x y z
#
# Youngs Moduli (GPa) = 77.33329 101.95059 80.47767
#
# Poissons Ratio (x) = 0.21890 0.21103
# Poissons Ratio (y) = 0.16604 0.31904
# Poissons Ratio (z) = 0.20278 0.40416
#
# Static dielectric constant tensor:
#      x y z
#    x 3.870010 0.000000 0.000000 
#    y 0.000000 3.470380 0.000000 
#    z 0.000000 0.000000 3.818770 
# 
# 
# High freq. dielectric constant tensor:
#      x y z
#    x 1.828400 0.000000 0.000000 
#    y 0.000000 1.780970 0.000000 
#    z 0.000000 0.000000 1.809160 
# 
# From -- ./inp_files/21478.got.cif
#   From: 2010.03.12/outbox.cif.g09.slc.cpg/sg73_11_cif.got.tgz:21478.got - 2010.04.16 15:25:48.
