data_PCOD8296109
_publ_section_title
;
Structure prediction by ZEFSAII (Michael W. Deem and Ramdas Pophale) SiO2 
 PCOD8296109
Probable space group: I B C A 
;
_chemical_formula_sum "Si O2"
_cell_formula_units_Z 112
_cell_length_a 26.905907
_cell_length_b 12.514796
_cell_length_c 17.435157
_cell_angle_alpha 90.000000
_cell_angle_beta 90.000000
_cell_angle_gamma 90.000000
_cell_volume 5870.799842
_symmetry_space_group_name_H-M "I B C A "
_symmetry_group_IT_number 73
_symmetry_cell_setting 'orthorhombic'
loop_
_space_group_symop_operation_xyz
x,y,z
-x,1/2-y,z
x,-y,1/2-z
1/2-x,y,-z
-x,-y,-z
x,1/2+y,-z
-x,y,1/2+z
1/2+x,-y,z
1/2+x,1/2+y,1/2+z
1/2-x,-y,1/2+z
1/2+x,1/2-y,-z
-x,1/2+y,1/2-z
1/2-x,1/2-y,1/2-z
1/2+x,y,1/2-z
1/2-x,1/2+y,z
x,1/2-y,1/2+z
loop_
_atom_site_type_symbol
_atom_site_label
_atom_site_fract_x
_atom_site_fract_y
_atom_site_fract_z
Si Si1 0.949368 0.495997 0.910022
Si Si2 0.692854 0.763324 0.330812
Si Si3 0.387029 0.108655 0.212860
Si Si4 0.600923 0.295304 0.371180
Si Si5 0.149966 0.513157 0.659924
Si Si6 0.797898 0.198471 0.651923
Si Si7 0.556616 0.922618 0.079230
O O1 0.933636 0.419193 0.840586
O O2 0.913003 0.598304 0.917492
O O3 0.004284 0.535894 0.888801
O O4 0.945243 0.428595 0.987389
O O5 0.654775 0.664717 0.339636
O O6 0.670187 0.871605 0.365434
O O7 0.743205 0.732818 0.377536
O O8 0.702847 0.781885 0.242035
O O9 0.406131 0.187906 0.279623
O O10 0.364329 0.000000 0.250000
O O11 0.658827 0.268324 0.388422
O O12 0.564862 0.199824 0.396645
O O13 0.138195 0.500000 0.750000
O O14 0.191347 0.426095 0.635031
O O15 0.099133 0.497283 0.613981
#
# Coordination Sequence:
#
# PCOD8296109 Si02
#       7
#    16  16  16  16  16  16  16
#     4  10  21  36  56  78 104 143 183 217 264 325
#     4   9  16  29  51  78 105 134 171 219 263 308
#     4   9  19  34  53  81 108 137 180 223 265 314
#     4   9  18  36  56  77 107 139 176 225 268 306
#     4   9  18  31  50  78 106 135 176 220 260 308
#     4   8  16  29  50  76 103 137 173 211 263 314
#     4  10  21  37  55  77 108 144 179 219 270 320
#
# _framework density 19.077469000000001
#
# number of rings (size 3 to 8) (size 9 to 14) (size 15 to 20)
#    0.000    2.857    0.000    1.286    0.000    8.000 
#    0.000    6.429    0.000   11.143    0.000    0.000 
#    0.000    0.000    0.000    0.000    0.000    0.000 
#
# Total GULP energy -694255.643702 kJ/mol
# GULP energy per Si atom -12397.422209 kJ/mol
# Density = 1.903405 g / cm^3
# Si number density = 19.077469 Si / 1000 Ang^3
#
#
#
# Elastic Constant Matrix: (Units=GPa)
#
#
# Indices 1 2 3 4 5 6 
#
# 1 127.9097 65.6049 37.1749 0.0000 0.0000 0.0000
# 2 65.6049 119.2907 32.2102 0.0000 0.0000 0.0000
# 3 37.1749 32.2102 43.1074 0.0000 0.0000 0.0000
# 4 0.0000 0.0000 0.0000 24.0353 0.0000 0.0000
# 5 0.0000 0.0000 0.0000 0.0000 14.2345 0.0000
# 6 0.0000 0.0000 0.0000 0.0000 0.0000 26.9287
#
#
#
# Elastic Compliance Matrix: (Units=1/GPa)
#
#
# Indices 1 2 3 4 5 6 
#
# 1 0.012373 -0.004915 -0.006997 0.000000 0.000000 0.000000
# 2 -0.004915 0.012454 -0.005067 0.000000 0.000000 0.000000
# 3 -0.006997 -0.005067 0.033019 0.000000 0.000000 0.000000
# 4 0.000000 0.000000 0.000000 0.041605 0.000000 0.000000
# 5 0.000000 0.000000 0.000000 0.000000 0.070252 0.000000
# 6 0.000000 0.000000 0.000000 0.000000 0.000000 0.037135
#
#
# Mechanical properties :
#
#
# Convention : Reuss Voigt Hill
#
# Bulk Modulus (GPa) = 41.86534 62.25420 52.05977
# Shear Modulus (GPa) = 20.09980 23.39422 21.74701
#
# Velocity S-wave (km/s) = 3.24942 3.50562 3.37995
# Velocity P-wave (km/s) = 6.00590 7.00635 6.52533
#
# Compressibility (1/GPa) = 0.02388611
#
# Stress axis : x y z
#
# Youngs Moduli (GPa) = 80.82382 80.29424 30.28603
#
# Poissons Ratio (x) = 0.39465 0.21192
# Poissons Ratio (y) = 0.39725 0.15347
# Poissons Ratio (z) = 0.56555 0.40687
#
# Static dielectric constant tensor:
#      x y z
#    x 3.683240 0.000000 0.000000 
#    y 0.000000 3.620790 0.000000 
#    z 0.000000 0.000000 3.125600 
# 
# 
# High freq. dielectric constant tensor:
#      x y z
#    x 1.743320 0.000000 0.000000 
#    y 0.000000 1.750320 0.000000 
#    z 0.000000 0.000000 1.704490 
# 
# From -- ./inp_files/27666.got.cif
#   From: 2010.03.12/outbox.cif.g09.slc.cpg/sg73_14_cif.got.tgz:27666.got - 2010.04.16 15:25:48.
