data_PCOD8296710
_publ_section_title
;
Structure prediction by ZEFSAII (Michael W. Deem and Ramdas Pophale) SiO2 
 PCOD8296710
Probable space group: I B C A 
;
_chemical_formula_sum "Si O2"
_cell_formula_units_Z 72
_cell_length_a 9.183027
_cell_length_b 20.521179
_cell_length_c 15.918616
_cell_angle_alpha 90.000000
_cell_angle_beta 90.000000
_cell_angle_gamma 90.000000
_cell_volume 2999.808120
_symmetry_space_group_name_H-M "I B C A "
_symmetry_group_IT_number 73
_symmetry_cell_setting 'orthorhombic'
loop_
_space_group_symop_operation_xyz
x,y,z
-x,1/2-y,z
x,-y,1/2-z
1/2-x,y,-z
-x,-y,-z
x,1/2+y,-z
-x,y,1/2+z
1/2+x,-y,z
1/2+x,1/2+y,1/2+z
1/2-x,-y,1/2+z
1/2+x,1/2-y,-z
-x,1/2+y,1/2-z
1/2-x,1/2-y,1/2-z
1/2+x,y,1/2-z
1/2-x,1/2+y,z
x,1/2-y,1/2+z
loop_
_atom_site_type_symbol
_atom_site_label
_atom_site_fract_x
_atom_site_fract_y
_atom_site_fract_z
Si Si1 0.000000 0.250000 0.809923
Si Si2 0.694969 0.338683 0.592815
Si Si3 0.191433 0.933598 0.406855
Si Si4 0.001646 0.948256 0.150220
Si Si5 0.974163 0.371295 0.692220
O O1 0.860009 0.229505 0.866428
O O2 0.043612 0.190780 0.750732
O O3 0.750000 0.322919 0.500000
O O4 0.557652 0.387395 0.593918
O O5 0.820299 0.376425 0.644890
O O6 0.250000 0.924291 0.500000
O O7 0.328066 0.952697 0.351406
O O8 0.108176 0.867538 0.374904
O O9 0.069467 0.989003 0.394306
O O10 0.021739 0.934548 0.250557
#
# Coordination Sequence:
#
# PCOD8296710 Si02
#       5
#     8  16  16  16  16
#     4  10  24  44  68  96 132 180 234 288 346 422
#     4  11  23  43  68  98 135 179 233 296 351 410
#     4  12  24  41  68 102 137 175 223 284 345 414
#     4  11  23  41  65  98 136 178 223 276 347 424
#     4  11  24  44  67  95 134 181 229 282 349 424
#
# _framework density 24.001535000000001
#
# number of rings (size 3 to 8) (size 9 to 14) (size 15 to 20)
#    0.000    0.889    0.000    8.000    0.000    4.444 
#    0.000    5.556    0.000    0.000    0.000    1.556 
#    0.000    0.000    0.000    0.000    0.000    0.000 
#
# Total GULP energy -446159.680954 kJ/mol
# GULP energy per Si atom -12393.324471 kJ/mol
# Density = 2.394691 g / cm^3
# Si number density = 24.001535 Si / 1000 Ang^3
#
#
#
# Elastic Constant Matrix: (Units=GPa)
#
#
# Indices 1 2 3 4 5 6 
#
# 1 161.0630 38.9540 50.1339 0.0000 0.0000 0.0000
# 2 38.9540 67.0723 49.9185 0.0000 0.0000 0.0000
# 3 50.1339 49.9185 149.4048 -0.0001 0.0000 0.0000
# 4 0.0000 0.0000 -0.0001 10.7398 0.0000 0.0000
# 5 0.0000 0.0000 0.0000 0.0000 48.3985 0.0000
# 6 0.0000 0.0000 0.0000 0.0000 0.0000 46.5359
#
#
#
# Elastic Compliance Matrix: (Units=1/GPa)
#
#
# Indices 1 2 3 4 5 6 
#
# 1 0.007437 -0.003277 -0.001401 0.000000 0.000000 0.000000
# 2 -0.003277 0.021288 -0.006013 0.000000 0.000000 0.000000
# 3 -0.001401 -0.006013 0.009172 0.000000 0.000000 0.000000
# 4 0.000000 0.000000 0.000000 0.093111 0.000000 0.000000
# 5 0.000000 0.000000 0.000000 0.000000 0.020662 0.000000
# 6 0.000000 0.000000 0.000000 0.000000 0.000000 0.021489
#
#
# Mechanical properties :
#
#
# Convention : Reuss Voigt Hill
#
# Bulk Modulus (GPa) = 60.54754 72.83922 66.69338
# Shear Modulus (GPa) = 24.99430 37.03710 31.01570
#
# Velocity S-wave (km/s) = 3.23052 3.93251 3.59867
# Velocity P-wave (km/s) = 6.26069 7.14375 6.71675
#
# Compressibility (1/GPa) = 0.01651595
#
# Stress axis : x y z
#
# Youngs Moduli (GPa) = 134.45739 46.97589 109.02408
#
# Poissons Ratio (x) = 0.15393 0.15272
# Poissons Ratio (y) = 0.44060 0.65555
# Poissons Ratio (z) = 0.18835 0.28246
#
# Static dielectric constant tensor:
#      x y z
#    x 4.704320 0.000000 0.000000 
#    y 0.000000 4.469800 0.000000 
#    z 0.000000 0.000000 4.472490 
# 
# 
# High freq. dielectric constant tensor:
#      x y z
#    x 1.967470 0.000000 0.000000 
#    y 0.000000 1.937650 0.000000 
#    z 0.000000 0.000000 1.965250 
# 
# From -- ./inp_files/5320.got.cif
#   From: 2010.03.12/outbox.cif.g09.slc.cpg/sg73_3_cif.got.tgz:5320.got - 2010.04.16 15:25:48.
