data_PCOD8296396
_publ_section_title
;
Structure prediction by ZEFSAII (Michael W. Deem and Ramdas Pophale) SiO2 
 PCOD8296396
Probable space group: I B C A 
;
_chemical_formula_sum "Si O2"
_cell_formula_units_Z 96
_cell_length_a 23.441583
_cell_length_b 8.956863
_cell_length_c 20.104949
_cell_angle_alpha 90.000000
_cell_angle_beta 90.000000
_cell_angle_gamma 90.000000
_cell_volume 4221.296361
_symmetry_space_group_name_H-M "I B C A "
_symmetry_group_IT_number 73
_symmetry_cell_setting 'orthorhombic'
loop_
_space_group_symop_operation_xyz
x,y,z
-x,1/2-y,z
x,-y,1/2-z
1/2-x,y,-z
-x,-y,-z
x,1/2+y,-z
-x,y,1/2+z
1/2+x,-y,z
1/2+x,1/2+y,1/2+z
1/2-x,-y,1/2+z
1/2+x,1/2-y,-z
-x,1/2+y,1/2-z
1/2-x,1/2-y,1/2-z
1/2+x,y,1/2-z
1/2-x,1/2+y,z
x,1/2-y,1/2+z
loop_
_atom_site_type_symbol
_atom_site_label
_atom_site_fract_x
_atom_site_fract_y
_atom_site_fract_z
Si Si1 0.811687 0.560510 0.370334
Si Si2 0.631587 0.337776 0.319871
Si Si3 0.271065 0.500000 0.750000
Si Si4 0.389469 0.817533 0.927995
Si Si5 0.963462 0.000000 0.250000
Si Si6 0.135420 0.007395 0.546861
Si Si7 0.500000 0.250000 0.656732
Si Si8 0.250000 0.030825 0.000000
O O1 0.862702 0.673759 0.350876
O O2 0.767102 0.555172 0.310576
O O3 0.843050 0.401336 0.381291
O O4 0.778649 0.618621 0.436815
O O5 0.688209 0.367764 0.276368
O O6 0.575304 0.361228 0.276021
O O7 0.619692 0.455120 0.378400
O O8 0.360820 0.670989 0.959640
O O9 0.444613 0.762487 0.888897
O O10 0.406854 0.923748 0.990766
O O11 0.001062 0.907842 0.197128
O O12 0.199168 0.070448 0.530340
#
# Coordination Sequence:
#
# PCOD8296396 Si02
#       8
#    16  16   8  16   8  16   8   8
#     4  11  25  39  71 106 150 191 241 289 353 442
#     4  11  24  46  66 109 144 190 231 294 356 437
#     4  11  24  39  70 104 150 199 236 283 356 442
#     4  11  27  45  72 104 138 188 244 305 363 428
#     4  11  28  49  78  98 148 183 244 311 374 430
#     4  11  22  45  68 104 146 180 237 289 354 433
#     4  12  28  54  74 104 132 192 246 314 378 436
#     4  10  22  40  66 104 144 192 222 280 352 424
#
# _framework density 22.741831000000001
#
# number of rings (size 3 to 8) (size 9 to 14) (size 15 to 20)
#    0.000    1.000    3.333    2.500    7.000    4.000 
#    0.000    0.000    0.000    0.000    0.000    0.000 
#    0.000    0.000    0.000    0.000    0.000    0.000 
#
# Total GULP energy -594793.165589 kJ/mol
# GULP energy per Si atom -12391.524283 kJ/mol
# Density = 2.269007 g / cm^3
# Si number density = 22.741831 Si / 1000 Ang^3
#
#
#
# Elastic Constant Matrix: (Units=GPa)
#
#
# Indices 1 2 3 4 5 6 
#
# 1 74.0868 25.0979 35.1613 0.0000 0.0000 0.0000
# 2 25.0979 119.5051 31.5408 0.0000 0.0000 0.0000
# 3 35.1613 31.5408 125.4987 0.0000 0.0000 0.0000
# 4 0.0000 0.0000 0.0000 42.8391 0.0000 0.0000
# 5 0.0000 0.0000 0.0000 0.0000 24.7263 0.0000
# 6 0.0000 0.0000 0.0000 0.0000 0.0000 6.7283
#
#
#
# Elastic Compliance Matrix: (Units=1/GPa)
#
#
# Indices 1 2 3 4 5 6 
#
# 1 0.016164 -0.002356 -0.003937 0.000000 0.000000 0.000000
# 2 -0.002356 0.009306 -0.001679 0.000000 0.000000 0.000000
# 3 -0.003937 -0.001679 0.009493 0.000000 0.000000 0.000000
# 4 0.000000 0.000000 0.000000 0.023343 0.000000 0.000000
# 5 0.000000 0.000000 0.000000 0.000000 0.040443 0.000000
# 6 0.000000 0.000000 0.000000 0.000000 0.000000 0.148626
#
#
# Mechanical properties :
#
#
# Convention : Reuss Voigt Hill
#
# Bulk Modulus (GPa) = 52.57477 55.85453 54.21465
# Shear Modulus (GPa) = 18.54209 30.01144 24.27677
#
# Velocity S-wave (km/s) = 2.85850 3.63665 3.27080
# Velocity P-wave (km/s) = 5.83635 6.49979 6.17698
#
# Compressibility (1/GPa) = 0.01902053
#
# Stress axis : x y z
#
# Youngs Moduli (GPa) = 61.86578 107.46167 105.34004
#
# Poissons Ratio (x) = 0.25315 0.41469
# Poissons Ratio (y) = 0.14574 0.17684
# Poissons Ratio (z) = 0.24355 0.18040
#
# Static dielectric constant tensor:
#      x y z
#    x 3.857990 0.000000 0.000000 
#    y 0.000000 3.830340 0.000000 
#    z 0.000000 0.000000 4.444130 
# 
# 
# High freq. dielectric constant tensor:
#      x y z
#    x 1.879550 0.000000 0.000000 
#    y 0.000000 1.887280 0.000000 
#    z 0.000000 0.000000 1.921450 
# 
# From -- ./inp_files/27569.got.cif
#   From: 2010.03.12/outbox.cif.g09.slc.cpg/sg73_14_cif.got.tgz:27569.got - 2010.04.16 15:25:48.
