data_PCOD8296025
_publ_section_title
;
Structure prediction by ZEFSAII (Michael W. Deem and Ramdas Pophale) SiO2 
 PCOD8296025
Probable space group: I B C A 
;
_chemical_formula_sum "Si O2"
_cell_formula_units_Z 88
_cell_length_a 17.559939
_cell_length_b 17.494733
_cell_length_c 13.768764
_cell_angle_alpha 90.000000
_cell_angle_beta 90.000000
_cell_angle_gamma 90.000000
_cell_volume 4229.853031
_symmetry_space_group_name_H-M "I B C A "
_symmetry_group_IT_number 73
_symmetry_cell_setting 'orthorhombic'
loop_
_space_group_symop_operation_xyz
x,y,z
-x,1/2-y,z
x,-y,1/2-z
1/2-x,y,-z
-x,-y,-z
x,1/2+y,-z
-x,y,1/2+z
1/2+x,-y,z
1/2+x,1/2+y,1/2+z
1/2-x,-y,1/2+z
1/2+x,1/2-y,-z
-x,1/2+y,1/2-z
1/2-x,1/2-y,1/2-z
1/2+x,y,1/2-z
1/2-x,1/2+y,z
x,1/2-y,1/2+z
loop_
_atom_site_type_symbol
_atom_site_label
_atom_site_fract_x
_atom_site_fract_y
_atom_site_fract_z
Si Si1 0.493536 0.045136 0.849698
Si Si2 0.875334 0.013780 0.005816
Si Si3 0.250000 0.607611 0.000000
Si Si4 0.812696 0.745809 0.396590
Si Si5 0.667252 0.834102 0.419210
Si Si6 0.064783 0.194228 0.244487
O O1 0.575504 0.040820 0.901665
O O2 0.471019 0.132346 0.827925
O O3 0.498431 0.000000 0.750000
O O4 0.429377 0.010556 0.918013
O O5 0.823284 0.083564 0.968991
O O6 0.820196 0.944457 0.036775
O O7 0.222941 0.660926 0.910373
O O8 0.746932 0.807704 0.370215
O O9 0.852915 0.771301 0.497832
O O10 0.872752 0.745264 0.310576
O O11 0.601041 0.842387 0.340272
O O12 0.000000 0.250000 0.282893
#
# Coordination Sequence:
#
# PCOD8296025 Si02
#       6
#    16  16   8  16  16  16
#     4  11  24  42  63  96 130 168 214 261 321 385
#     4  11  22  41  69  90 130 169 211 267 319 375
#     4  10  20  40  68  92 124 174 208 264 324 368
#     4  10  23  42  62  98 131 162 220 265 317 384
#     4  10  22  41  65  91 126 173 212 263 318 378
#     4  12  24  40  66  96 134 173 211 261 325 381
#
# _framework density 20.804507000000001
#
# number of rings (size 3 to 8) (size 9 to 14) (size 15 to 20)
#    0.000    1.455    3.636    2.727    0.000    5.091 
#    0.000    6.364    0.000    0.000    0.000    0.000 
#    0.000    0.000    0.000    0.000    0.000    0.000 
#
# Total GULP energy -545608.455915 kJ/mol
# GULP energy per Si atom -12400.192180 kJ/mol
# Density = 2.075715 g / cm^3
# Si number density = 20.804507 Si / 1000 Ang^3
#
#
#
# Elastic Constant Matrix: (Units=GPa)
#
#
# Indices 1 2 3 4 5 6 
#
# 1 106.5134 44.7426 31.9282 0.0000 0.0000 0.0000
# 2 44.7426 108.7951 18.6065 0.0000 0.0000 0.0000
# 3 31.9282 18.6065 78.3732 0.0000 0.0000 0.0000
# 4 0.0000 0.0000 0.0000 26.6831 0.0000 0.0000
# 5 0.0000 0.0000 0.0000 0.0000 23.8220 0.0000
# 6 0.0000 0.0000 0.0000 0.0000 0.0000 37.3875
#
#
#
# Elastic Compliance Matrix: (Units=1/GPa)
#
#
# Indices 1 2 3 4 5 6 
#
# 1 0.012457 -0.004435 -0.004022 0.000000 0.000000 0.000000
# 2 -0.004435 0.011160 -0.000843 0.000000 0.000000 0.000000
# 3 -0.004022 -0.000843 0.014598 0.000000 0.000000 0.000000
# 4 0.000000 0.000000 0.000000 0.037477 0.000000 0.000000
# 5 0.000000 0.000000 0.000000 0.000000 0.041978 0.000000
# 6 0.000000 0.000000 0.000000 0.000000 0.000000 0.026747
#
#
# Mechanical properties :
#
#
# Convention : Reuss Voigt Hill
#
# Bulk Modulus (GPa) = 50.98029 53.80402 52.39215
# Shear Modulus (GPa) = 29.48902 30.80547 30.14724
#
# Velocity S-wave (km/s) = 3.76897 3.85218 3.81080
# Velocity P-wave (km/s) = 6.59529 6.76044 6.67837
#
# Compressibility (1/GPa) = 0.01961542
#
# Stress axis : x y z
#
# Youngs Moduli (GPa) = 80.27501 89.60808 68.50269
#
# Poissons Ratio (x) = 0.39743 0.27551
# Poissons Ratio (y) = 0.35604 0.05772
# Poissons Ratio (z) = 0.32286 0.07550
#
# Static dielectric constant tensor:
#      x y z
#    x 3.809270 0.000000 0.000000 
#    y 0.000000 3.894220 0.000000 
#    z 0.000000 0.000000 3.615990 
# 
# 
# High freq. dielectric constant tensor:
#      x y z
#    x 1.818210 0.000000 0.000000 
#    y 0.000000 1.824230 0.000000 
#    z 0.000000 0.000000 1.802180 
# 
# From -- ./inp_files/17928.got.cif
#   From: 2010.03.12/outbox.cif.g09.slc.cpg/sg73_9_cif.got.tgz:17928.got - 2010.04.16 15:25:48.
