data_PCOD8296395
_publ_section_title
;
Structure prediction by ZEFSAII (Michael W. Deem and Ramdas Pophale) SiO2 
 PCOD8296395
Probable space group: I B C A 
;
_chemical_formula_sum "Si O2"
_cell_formula_units_Z 88
_cell_length_a 18.539070
_cell_length_b 8.726148
_cell_length_c 24.134308
_cell_angle_alpha 90.000000
_cell_angle_beta 90.000000
_cell_angle_gamma 90.000000
_cell_volume 3904.319679
_symmetry_space_group_name_H-M "I B C A "
_symmetry_group_IT_number 73
_symmetry_cell_setting 'orthorhombic'
loop_
_space_group_symop_operation_xyz
x,y,z
-x,1/2-y,z
x,-y,1/2-z
1/2-x,y,-z
-x,-y,-z
x,1/2+y,-z
-x,y,1/2+z
1/2+x,-y,z
1/2+x,1/2+y,1/2+z
1/2-x,-y,1/2+z
1/2+x,1/2-y,-z
-x,1/2+y,1/2-z
1/2-x,1/2-y,1/2-z
1/2+x,y,1/2-z
1/2-x,1/2+y,z
x,1/2-y,1/2+z
loop_
_atom_site_type_symbol
_atom_site_label
_atom_site_fract_x
_atom_site_fract_y
_atom_site_fract_z
Si Si1 0.952648 0.500000 0.750000
Si Si2 0.218383 0.000000 0.250000
Si Si3 0.500000 0.750000 0.670256
Si Si4 0.715021 0.229550 0.575424
Si Si5 0.349642 0.015904 0.501826
Si Si6 0.881994 0.263208 0.077959
Si Si7 0.334770 0.703722 0.806248
O O1 0.001280 0.404009 0.707168
O O2 0.906321 0.375788 0.783697
O O3 0.169677 0.875990 0.217963
O O4 0.266819 0.904177 0.292758
O O5 0.428057 0.754997 0.633559
O O6 0.700496 0.382042 0.541103
O O7 0.797921 0.234769 0.595592
O O8 0.661515 0.217798 0.627595
O O9 0.703040 0.088161 0.534921
O O10 0.399451 0.116966 0.460992
O O11 0.401000 0.913288 0.541390
#
# Coordination Sequence:
#
# PCOD8296395 Si02
#       7
#     8   8   8  16  16  16  16
#     4  11  28  51  62  94 131 176 237 292 314 409
#     4   9  22  39  62 110 123 166 209 286 342 409
#     4  12  30  48  66  86 132 188 230 264 328 390
#     4  11  21  37  67 104 132 167 203 276 343 398
#     4  10  22  40  66 103 135 158 213 275 342 388
#     4  11  23  41  64  94 134 174 211 265 323 408
#     4  10  23  40  71  98 135 164 222 280 358 379
#
# _framework density 22.539138000000001
#
# number of rings (size 3 to 8) (size 9 to 14) (size 15 to 20)
#    0.000    1.455    0.000    5.455   12.727    2.909 
#    0.000    0.000    0.000    0.000    0.000    0.000 
#    0.000    0.000    0.000    0.000    0.000    0.000 
#
# Total GULP energy -545622.919728 kJ/mol
# GULP energy per Si atom -12400.520903 kJ/mol
# Density = 2.248784 g / cm^3
# Si number density = 22.539138 Si / 1000 Ang^3
#
#
#
# Elastic Constant Matrix: (Units=GPa)
#
#
# Indices 1 2 3 4 5 6 
#
# 1 67.5357 38.2081 49.0652 0.0000 0.0000 0.0000
# 2 38.2081 184.2851 79.3815 0.0000 0.0000 0.0000
# 3 49.0652 79.3815 165.3839 0.0000 0.0000 0.0000
# 4 0.0000 0.0000 0.0000 65.1494 0.0000 0.0000
# 5 0.0000 0.0000 0.0000 0.0000 38.0801 0.0000
# 6 0.0000 0.0000 0.0000 0.0000 0.0000 23.3601
#
#
#
# Elastic Compliance Matrix: (Units=1/GPa)
#
#
# Indices 1 2 3 4 5 6 
#
# 1 0.019414 -0.001947 -0.004825 0.000000 0.000000 0.000000
# 2 -0.001947 0.007036 -0.002800 0.000000 0.000000 0.000000
# 3 -0.004825 -0.002800 0.008822 0.000000 0.000000 0.000000
# 4 0.000000 0.000000 0.000000 0.015349 0.000000 0.000000
# 5 0.000000 0.000000 0.000000 0.000000 0.026260 0.000000
# 6 0.000000 0.000000 0.000000 0.000000 0.000000 0.042808
#
#
# Mechanical properties :
#
#
# Convention : Reuss Voigt Hill
#
# Bulk Modulus (GPa) = 62.00143 83.39047 72.69595
# Shear Modulus (GPa) = 34.67197 42.02123 38.34660
#
# Velocity S-wave (km/s) = 3.92637 4.32252 4.12920
# Velocity P-wave (km/s) = 6.93709 7.87341 7.42004
#
# Compressibility (1/GPa) = 0.01612866
#
# Stress axis : x y z
#
# Youngs Moduli (GPa) = 51.50957 142.12806 113.35510
#
# Poissons Ratio (x) = 0.27667 0.54697
# Poissons Ratio (y) = 0.10027 0.31735
# Poissons Ratio (z) = 0.24855 0.39790
#
# Static dielectric constant tensor:
#      x y z
#    x 3.481110 0.000000 0.000000 
#    y 0.000000 4.634370 0.000000 
#    z 0.000000 0.000000 4.229610 
# 
# 
# High freq. dielectric constant tensor:
#      x y z
#    x 1.844820 0.000000 0.000000 
#    y 0.000000 1.916810 0.000000 
#    z 0.000000 0.000000 1.901280 
# 
# From -- ./inp_files/28357.got.cif
#   From: 2010.03.12/outbox.cif.g09.slc.cpg/sg73_15_cif.got.tgz:28357.got - 2010.04.16 15:25:48.
