data_PCOD8296736
_publ_section_title
;
Structure prediction by ZEFSAII (Michael W. Deem and Ramdas Pophale) SiO2 
 PCOD8296736
Probable space group: I B C A 
;
_chemical_formula_sum "Si O2"
_cell_formula_units_Z 96
_cell_length_a 9.244980
_cell_length_b 18.564641
_cell_length_c 25.602191
_cell_angle_alpha 90.000000
_cell_angle_beta 90.000000
_cell_angle_gamma 90.000000
_cell_volume 4394.097250
_symmetry_space_group_name_H-M "I B C A "
_symmetry_group_IT_number 73
_symmetry_cell_setting 'orthorhombic'
loop_
_space_group_symop_operation_xyz
x,y,z
-x,1/2-y,z
x,-y,1/2-z
1/2-x,y,-z
-x,-y,-z
x,1/2+y,-z
-x,y,1/2+z
1/2+x,-y,z
1/2+x,1/2+y,1/2+z
1/2-x,-y,1/2+z
1/2+x,1/2-y,-z
-x,1/2+y,1/2-z
1/2-x,1/2-y,1/2-z
1/2+x,y,1/2-z
1/2-x,1/2+y,z
x,1/2-y,1/2+z
loop_
_atom_site_type_symbol
_atom_site_label
_atom_site_fract_x
_atom_site_fract_y
_atom_site_fract_z
Si Si1 0.126603 0.701221 0.458080
Si Si2 0.984400 0.912222 0.390948
Si Si3 0.444152 0.127614 0.189932
Si Si4 0.000000 0.250000 0.733879
Si Si5 0.285161 0.000000 0.250000
Si Si6 0.828760 0.961237 0.644620
Si Si7 0.681850 0.211099 0.354451
O O1 0.250000 0.690987 0.500000
O O2 0.058771 0.621566 0.447212
O O3 0.191029 0.737745 0.405293
O O4 0.000000 0.750000 0.482417
O O5 0.836176 0.944009 0.368531
O O6 0.047195 0.844790 0.358546
O O7 0.107172 0.974486 0.391950
O O8 0.520767 0.180689 0.230107
O O9 0.557982 0.104623 0.144318
O O10 0.327809 0.167914 0.153940
O O11 0.381715 0.062901 0.224774
O O12 0.855812 0.256709 0.697635
O O13 0.171409 0.978271 0.205832
#
# Coordination Sequence:
#
# PCOD8296736 Si02
#       7
#    16  16  16   8   8  16  16
#     4  10  24  45  76  99 128 170 224 290 359 421
#     4  11  22  44  65  92 130 176 225 280 349 396
#     4  12  26  37  62 100 140 189 234 271 320 409
#     4  12  24  38  62 102 138 182 226 284 330 400
#     4  12  22  38  60  90 138 192 240 256 318 404
#     4  12  24  39  61  92 134 184 227 273 327 400
#     4  11  22  44  64  93 140 175 222 286 343 397
#
# _framework density 21.847491999999999
#
# number of rings (size 3 to 8) (size 9 to 14) (size 15 to 20)
#    0.000    0.667    5.833    3.000    2.333    1.333 
#    0.000    0.833    0.000    2.000    0.000    0.000 
#    0.000    0.000    0.000    0.000    0.000    0.000 
#
# Total GULP energy -594736.111443 kJ/mol
# GULP energy per Si atom -12390.335655 kJ/mol
# Density = 2.179777 g / cm^3
# Si number density = 21.847492 Si / 1000 Ang^3
#
#
#
# Elastic Constant Matrix: (Units=GPa)
#
#
# Indices 1 2 3 4 5 6 
#
# 1 89.3679 8.4045 30.0156 0.0000 0.0000 0.0000
# 2 8.4045 62.6511 23.2247 0.0000 0.0000 0.0000
# 3 30.0156 23.2247 66.6107 0.0000 0.0000 0.0000
# 4 0.0000 0.0000 0.0000 14.2625 0.0000 0.0000
# 5 0.0000 0.0000 0.0000 0.0000 39.9845 0.0000
# 6 0.0000 0.0000 0.0000 0.0000 0.0000 39.1908
#
#
#
# Elastic Compliance Matrix: (Units=1/GPa)
#
#
# Indices 1 2 3 4 5 6 
#
# 1 0.013199 0.000499 -0.006121 0.000000 0.000000 0.000000
# 2 0.000499 0.018349 -0.006622 0.000000 0.000000 0.000000
# 3 -0.006121 -0.006622 0.020080 0.000000 0.000000 0.000000
# 4 0.000000 0.000000 0.000000 0.070114 0.000000 0.000000
# 5 0.000000 0.000000 0.000000 0.000000 0.025010 0.000000
# 6 0.000000 0.000000 0.000000 0.000000 0.000000 0.025516
#
#
# Mechanical properties :
#
#
# Convention : Reuss Voigt Hill
#
# Bulk Modulus (GPa) = 36.84904 37.99103 37.42003
# Shear Modulus (GPa) = 24.29492 29.15321 26.72406
#
# Velocity S-wave (km/s) = 3.33832 3.65690 3.50124
# Velocity P-wave (km/s) = 5.63580 5.93780 5.78877
#
# Compressibility (1/GPa) = 0.02713775
#
# Stress axis : x y z
#
# Youngs Moduli (GPa) = 75.76461 54.49756 49.80083
#
# Poissons Ratio (x) = -0.02717 0.30485
# Poissons Ratio (y) = -0.03778 0.32980
# Poissons Ratio (z) = 0.46378 0.36091
#
# Static dielectric constant tensor:
#      x y z
#    x 4.251380 0.000000 0.000000 
#    y 0.000000 4.347650 0.000000 
#    z 0.000000 0.000000 3.673460 
# 
# 
# High freq. dielectric constant tensor:
#      x y z
#    x 1.877640 0.000000 0.000000 
#    y 0.000000 1.869650 0.000000 
#    z 0.000000 0.000000 1.816580 
# 
# From -- ./inp_files/31204.got.cif
#   From: 2010.03.12/outbox.cif.g09.slc.cpg/sg73_16_cif.got.tgz:31204.got - 2010.04.16 15:25:48.
