data_PCOD8296842
_publ_section_title
;
Structure prediction by ZEFSAII (Michael W. Deem and Ramdas Pophale) SiO2 
 PCOD8296842
Probable space group: I B C A 
;
_chemical_formula_sum "Si O2"
_cell_formula_units_Z 72
_cell_length_a 21.800066
_cell_length_b 27.754754
_cell_length_c 4.899840
_cell_angle_alpha 90.000000
_cell_angle_beta 90.000000
_cell_angle_gamma 90.000000
_cell_volume 2964.674989
_symmetry_space_group_name_H-M "I B C A "
_symmetry_group_IT_number 73
_symmetry_cell_setting 'orthorhombic'
loop_
_space_group_symop_operation_xyz
x,y,z
-x,1/2-y,z
x,-y,1/2-z
1/2-x,y,-z
-x,-y,-z
x,1/2+y,-z
-x,y,1/2+z
1/2+x,-y,z
1/2+x,1/2+y,1/2+z
1/2-x,-y,1/2+z
1/2+x,1/2-y,-z
-x,1/2+y,1/2-z
1/2-x,1/2-y,1/2-z
1/2+x,y,1/2-z
1/2-x,1/2+y,z
x,1/2-y,1/2+z
loop_
_atom_site_type_symbol
_atom_site_label
_atom_site_fract_x
_atom_site_fract_y
_atom_site_fract_z
Si Si1 0.171657 0.220478 0.156079
Si Si2 0.686376 0.381743 0.609977
Si Si3 0.540425 0.185491 0.463482
Si Si4 0.388315 0.095166 0.097960
Si Si5 0.955302 0.000000 0.250000
O O1 0.194192 0.263390 0.357121
O O2 0.199413 0.169778 0.248806
O O3 0.097788 0.217093 0.134818
O O4 0.750000 0.404118 0.500000
O O5 0.641924 0.375388 0.348990
O O6 0.659037 0.416139 0.849016
O O7 0.516538 0.197154 0.765977
O O8 0.559036 0.128652 0.464040
O O9 0.412121 0.046196 0.229634
O O10 0.000000 0.000000 0.500000
#
# Coordination Sequence:
#
# PCOD8296842 Si02
#       5
#    16  16  16  16   8
#     4  11  23  38  58  90 124 161 219 272 310 375
#     4  11  24  44  67  90 128 176 217 272 336 381
#     4  11  21  36  58  84 124 169 203 251 323 389
#     4  11  23  42  65  98 130 163 218 267 319 398
#     4  12  24  42  72 104 136 168 206 262 326 394
#
# _framework density 24.285965999999998
#
# number of rings (size 3 to 8) (size 9 to 14) (size 15 to 20)
#    0.000    0.889    0.000   10.000    0.000    3.556 
#    0.000    2.222    0.000    0.000    0.000    0.000 
#    0.000    0.000    0.000    0.000    0.000    0.000 
#
# Total GULP energy -446379.488964 kJ/mol
# GULP energy per Si atom -12399.430249 kJ/mol
# Density = 2.423069 g / cm^3
# Si number density = 24.285966 Si / 1000 Ang^3
#
#
#
# Elastic Constant Matrix: (Units=GPa)
#
#
# Indices 1 2 3 4 5 6 
#
# 1 66.8828 14.2565 50.2149 0.0000 0.0000 0.0000
# 2 14.2565 72.9811 32.0947 0.0000 0.0000 0.0000
# 3 50.2149 32.0947 173.2290 0.0000 0.0000 0.0000
# 4 0.0000 0.0000 0.0000 40.3227 0.0000 0.0000
# 5 0.0000 0.0000 0.0000 0.0000 60.7777 0.0000
# 6 0.0000 0.0000 0.0000 0.0000 0.0000 24.1367
#
#
#
# Elastic Compliance Matrix: (Units=1/GPa)
#
#
# Indices 1 2 3 4 5 6 
#
# 1 0.019245 -0.001422 -0.005315 0.000000 0.000000 0.000000
# 2 -0.001422 0.015023 -0.002371 0.000000 0.000000 0.000000
# 3 -0.005315 -0.002371 0.007753 0.000000 0.000000 0.000000
# 4 0.000000 0.000000 0.000000 0.024800 0.000000 0.000000
# 5 0.000000 0.000000 0.000000 0.000000 0.016453 0.000000
# 6 0.000000 0.000000 0.000000 0.000000 0.000000 0.041431
#
#
# Mechanical properties :
#
#
# Convention : Reuss Voigt Hill
#
# Bulk Modulus (GPa) = 42.00970 56.24723 49.12846
# Shear Modulus (GPa) = 33.14416 39.48255 36.31336
#
# Velocity S-wave (km/s) = 3.69825 4.03642 3.87103
# Velocity P-wave (km/s) = 5.96419 6.70330 6.34452
#
# Compressibility (1/GPa) = 0.02380403
#
# Stress axis : x y z
#
# Youngs Moduli (GPa) = 51.96073 66.56598 128.98597
#
# Poissons Ratio (x) = 0.09466 0.68560
# Poissons Ratio (y) = 0.07389 0.30584
# Poissons Ratio (z) = 0.27619 0.15784
#
# Static dielectric constant tensor:
#      x y z
#    x 4.435330 0.000000 0.000000 
#    y 0.000000 4.095810 0.000000 
#    z 0.000000 0.000000 4.702440 
# 
# 
# High freq. dielectric constant tensor:
#      x y z
#    x 1.973070 0.000000 0.000000 
#    y 0.000000 1.930120 0.000000 
#    z 0.000000 0.000000 1.994070 
# 
# From -- ./inp_files/1708.got.cif
#   From: 2010.03.12/outbox.cif.g09.slc.cpg/sg73_1_cif.got.tgz:1708.got - 2010.04.16 15:25:48.
