data_PCOD8296994
_publ_section_title
;
Structure prediction by ZEFSAII (Michael W. Deem and Ramdas Pophale) SiO2 
 PCOD8296994
Probable space group: I B C A 
;
_chemical_formula_sum "Si O2"
_cell_formula_units_Z 56
_cell_length_a 8.960602
_cell_length_b 18.695034
_cell_length_c 14.305994
_cell_angle_alpha 90.000000
_cell_angle_beta 90.000000
_cell_angle_gamma 90.000000
_cell_volume 2396.522362
_symmetry_space_group_name_H-M "I B C A "
_symmetry_group_IT_number 73
_symmetry_cell_setting 'orthorhombic'
loop_
_space_group_symop_operation_xyz
x,y,z
-x,1/2-y,z
x,-y,1/2-z
1/2-x,y,-z
-x,-y,-z
x,1/2+y,-z
-x,y,1/2+z
1/2+x,-y,z
1/2+x,1/2+y,1/2+z
1/2-x,-y,1/2+z
1/2+x,1/2-y,-z
-x,1/2+y,1/2-z
1/2-x,1/2-y,1/2-z
1/2+x,y,1/2-z
1/2-x,1/2+y,z
x,1/2-y,1/2+z
loop_
_atom_site_type_symbol
_atom_site_label
_atom_site_fract_x
_atom_site_fract_y
_atom_site_fract_z
Si Si1 0.734195 0.918306 0.832554
Si Si2 0.750000 0.655446 0.000000
Si Si3 0.837902 0.736739 0.657366
Si Si4 0.415893 0.940221 0.137211
O O1 0.698926 0.842605 0.881686
O O2 0.684840 0.913346 0.724016
O O3 0.909416 0.936988 0.838569
O O4 0.633924 0.978145 0.884617
O O5 0.820448 0.705680 0.076971
O O6 0.620212 0.607176 0.046211
O O7 0.750000 0.750000 0.750000
O O8 0.000000 0.750000 0.696588
#
# Coordination Sequence:
#
# PCOD8296994 Si02
#       4
#    16   8  16  16
#     4  11  24  47  78 104 151 203 243 309 374 438
#     4  12  30  44  74 116 148 188 260 308 368 458
#     4  12  28  48  79 108 152 196 249 309 383 443
#     4  11  25  46  77 109 147 197 258 301 372 448
#
# _framework density 23.367194000000001
#
# number of rings (size 3 to 8) (size 9 to 14) (size 15 to 20)
#    0.000    0.571    2.857    5.143    8.000    2.286 
#    0.000    0.000    0.000    0.000    0.000    0.000 
#    0.000    0.000    0.000    0.000    0.000    0.000 
#
# Total GULP energy -347152.595910 kJ/mol
# GULP energy per Si atom -12398.306997 kJ/mol
# Density = 2.331401 g / cm^3
# Si number density = 23.367194 Si / 1000 Ang^3
#
#
#
# Elastic Constant Matrix: (Units=GPa)
#
#
# Indices 1 2 3 4 5 6 
#
# 1 230.5655 82.0068 58.1375 0.0000 0.0000 0.0000
# 2 82.0068 212.1339 69.1568 0.0000 0.0000 0.0000
# 3 58.1375 69.1568 115.1732 -0.0002 0.0000 0.0000
# 4 0.0000 0.0000 -0.0002 40.8576 0.0000 0.0000
# 5 0.0000 0.0000 0.0000 0.0000 12.2207 0.0000
# 6 0.0000 0.0000 0.0000 0.0000 0.0000 34.7553
#
#
#
# Elastic Compliance Matrix: (Units=1/GPa)
#
#
# Indices 1 2 3 4 5 6 
#
# 1 0.005313 -0.001467 -0.001801 0.000000 0.000000 0.000000
# 2 -0.001467 0.006266 -0.003022 0.000000 0.000000 0.000000
# 3 -0.001801 -0.003022 0.011407 0.000000 0.000000 0.000000
# 4 0.000000 0.000000 0.000000 0.024475 0.000000 0.000000
# 5 0.000000 0.000000 0.000000 0.000000 0.081829 0.000000
# 6 0.000000 0.000000 0.000000 0.000000 0.000000 0.028773
#
#
# Mechanical properties :
#
#
# Convention : Reuss Voigt Hill
#
# Bulk Modulus (GPa) = 96.10357 108.49722 102.30040
# Shear Modulus (GPa) = 28.71728 40.80481 34.76104
#
# Velocity S-wave (km/s) = 3.50945 4.18334 3.86113
# Velocity P-wave (km/s) = 7.59200 8.35859 7.98450
#
# Compressibility (1/GPa) = 0.01040544
#
# Stress axis : x y z
#
# Youngs Moduli (GPa) = 188.21702 159.58430 87.66882
#
# Poissons Ratio (x) = 0.23406 0.15791
# Poissons Ratio (y) = 0.27606 0.26496
# Poissons Ratio (z) = 0.33902 0.48231
#
# Static dielectric constant tensor:
#      x y z
#    x 4.108670 0.000000 0.000000 
#    y 0.000000 4.737480 0.000000 
#    z 0.000000 0.000000 3.908500 
# 
# 
# High freq. dielectric constant tensor:
#      x y z
#    x 1.933990 0.000000 0.000000 
#    y 0.000000 1.951830 0.000000 
#    z 0.000000 0.000000 1.914990 
# 
# From -- ./inp_files/5853.got.cif
#   From: 2010.03.12/outbox.cif.g09.slc.cpg/sg73_3_cif.got.tgz:5853.got - 2010.04.16 15:25:48.
