data_PCOD8296984
_publ_section_title
;
Structure prediction by ZEFSAII (Michael W. Deem and Ramdas Pophale) SiO2 
 PCOD8296984
Probable space group: I B C A 
;
_chemical_formula_sum "Si O2"
_cell_formula_units_Z 88
_cell_length_a 13.711568
_cell_length_b 24.663110
_cell_length_c 11.842331
_cell_angle_alpha 90.000000
_cell_angle_beta 90.000000
_cell_angle_gamma 90.000000
_cell_volume 4004.720007
_symmetry_space_group_name_H-M "I B C A "
_symmetry_group_IT_number 73
_symmetry_cell_setting 'orthorhombic'
loop_
_space_group_symop_operation_xyz
x,y,z
-x,1/2-y,z
x,-y,1/2-z
1/2-x,y,-z
-x,-y,-z
x,1/2+y,-z
-x,y,1/2+z
1/2+x,-y,z
1/2+x,1/2+y,1/2+z
1/2-x,-y,1/2+z
1/2+x,1/2-y,-z
-x,1/2+y,1/2-z
1/2-x,1/2-y,1/2-z
1/2+x,y,1/2-z
1/2-x,1/2+y,z
x,1/2-y,1/2+z
loop_
_atom_site_type_symbol
_atom_site_label
_atom_site_fract_x
_atom_site_fract_y
_atom_site_fract_z
Si Si1 0.085268 0.294327 0.622071
Si Si2 0.339270 0.578617 0.676826
Si Si3 0.149558 0.650846 0.650276
Si Si4 0.002473 0.892155 0.985429
Si Si5 0.159234 0.962330 0.573397
Si Si6 0.750000 0.234581 0.000000
O O1 0.102271 0.327682 0.735930
O O2 0.189304 0.268999 0.590367
O O3 0.000000 0.250000 0.638658
O O4 0.059631 0.336756 0.522343
O O5 0.249261 0.618410 0.663872
O O6 0.438019 0.606148 0.632401
O O7 0.348988 0.568337 0.808578
O O8 0.327709 0.525690 0.598104
O O9 0.073215 0.609968 0.593115
O O10 0.169207 0.700534 0.566754
O O11 0.936052 0.945969 0.000633
O O12 0.250000 0.941541 0.500000
#
# Coordination Sequence:
#
# PCOD8296984 Si02
#       6
#    16  16  16  16  16   8
#     4  12  27  43  70 106 138 189 245 294 364 433
#     4  11  24  46  70 104 139 187 234 296 361 433
#     4  12  24  46  72  96 143 184 233 295 362 421
#     4  12  24  44  68 102 142 184 234 299 356 431
#     4  11  25  43  72 104 141 184 240 289 363 436
#     4  12  26  46  68  98 140 184 232 300 358 428
#
# _framework density 21.974070999999999
#
# number of rings (size 3 to 8) (size 9 to 14) (size 15 to 20)
#    0.000    0.364    3.636    4.364    6.364    0.000 
#    0.000    3.636    0.000    0.000    0.000    0.000 
#    0.000    0.000    0.000    0.000    0.000    0.000 
#
# Total GULP energy -545730.636203 kJ/mol
# GULP energy per Si atom -12402.969005 kJ/mol
# Density = 2.192406 g / cm^3
# Si number density = 21.974071 Si / 1000 Ang^3
#
#
#
# Elastic Constant Matrix: (Units=GPa)
#
#
# Indices 1 2 3 4 5 6 
#
# 1 123.4715 36.7690 45.3367 0.0001 0.0000 0.0001
# 2 36.7690 84.4332 33.0933 0.0001 0.0000 -0.0001
# 3 45.3367 33.0933 92.7866 -0.0003 0.0002 -0.0010
# 4 0.0001 0.0001 -0.0003 27.0798 0.0001 -0.0006
# 5 0.0000 0.0000 0.0002 0.0001 30.0693 0.0001
# 6 0.0001 -0.0001 -0.0010 -0.0006 0.0001 -52.7470
#
#
#
# Elastic Compliance Matrix: (Units=1/GPa)
#
#
# Indices 1 2 3 4 5 6 
#
# 1 0.010474 -0.002971 -0.004058 0.000000 0.000000 0.000000
# 2 -0.002971 0.014611 -0.003760 0.000000 0.000000 0.000000
# 3 -0.004058 -0.003760 0.014101 0.000000 0.000000 0.000000
# 4 0.000000 0.000000 0.000000 0.036928 0.000000 0.000000
# 5 0.000000 0.000000 0.000000 0.000000 0.033257 0.000000
# 6 0.000000 0.000000 0.000000 0.000000 0.000000 -0.018958
#
#
# Mechanical properties :
#
#
# Convention : Reuss Voigt Hill
#
# Bulk Modulus (GPa) = 56.78873 59.00992 57.89932
# Shear Modulus (GPa) = 42.42388 13.24658 27.83523
#
# Velocity S-wave (km/s) = 4.39866 2.45792 3.56298
# Velocity P-wave (km/s) = 7.19008 5.91336 6.58275
#
# Compressibility (1/GPa) = 0.01760913
#
# Stress axis : x y z
#
# Youngs Moduli (GPa) = 95.47716 68.44218 70.91601
#
# Poissons Ratio (x) = 0.20331 0.28779
# Poissons Ratio (y) = 0.28362 0.26662
# Poissons Ratio (z) = 0.38746 0.25732
#
# Static dielectric constant tensor:
#      x y z
#    x 4.010850 0.000000 0.000000 
#    y 0.000000 4.029220 0.000000 
#    z 0.000000 0.000000 4.043990 
# 
# 
# High freq. dielectric constant tensor:
#      x y z
#    x 1.878130 0.000000 0.000000 
#    y 0.000000 1.870470 0.000000 
#    z 0.000000 0.000000 1.870980 
# 
# From -- ./inp_files/10954.got.cif
#   From: 2010.03.12/outbox.cif.g09.slc.cpg/sg73_6_cif.got.tgz:10954.got - 2010.04.16 15:25:48.
