data_PCOD8296986
_publ_section_title
;
Structure prediction by ZEFSAII (Michael W. Deem and Ramdas Pophale) SiO2 
 PCOD8296986
Probable space group: I B C A 
;
_chemical_formula_sum "Si O2"
_cell_formula_units_Z 112
_cell_length_a 13.139779
_cell_length_b 12.183132
_cell_length_c 29.995104
_cell_angle_alpha 90.000000
_cell_angle_beta 90.000000
_cell_angle_gamma 90.000000
_cell_volume 4801.726091
_symmetry_space_group_name_H-M "I B C A "
_symmetry_group_IT_number 73
_symmetry_cell_setting 'orthorhombic'
loop_
_space_group_symop_operation_xyz
x,y,z
-x,1/2-y,z
x,-y,1/2-z
1/2-x,y,-z
-x,-y,-z
x,1/2+y,-z
-x,y,1/2+z
1/2+x,-y,z
1/2+x,1/2+y,1/2+z
1/2-x,-y,1/2+z
1/2+x,1/2-y,-z
-x,1/2+y,1/2-z
1/2-x,1/2-y,1/2-z
1/2+x,y,1/2-z
1/2-x,1/2+y,z
x,1/2-y,1/2+z
loop_
_atom_site_type_symbol
_atom_site_label
_atom_site_fract_x
_atom_site_fract_y
_atom_site_fract_z
Si Si1 0.901946 0.961047 0.109027
Si Si2 0.502804 0.123235 0.459323
Si Si3 0.379942 0.372580 0.322410
Si Si4 0.686811 0.548964 0.583726
Si Si5 0.000000 0.750000 0.588766
Si Si6 0.155732 0.654337 0.531270
Si Si7 0.886486 0.124096 0.186474
Si Si8 0.247707 0.500000 0.250000
O O1 0.801155 0.905750 0.087256
O O2 0.982850 0.860791 0.118073
O O3 0.954769 0.051581 0.079339
O O4 0.862743 0.024194 0.152618
O O5 0.500000 0.250000 0.446302
O O6 0.624837 0.099725 0.458738
O O7 0.438743 0.096171 0.504075
O O8 0.374972 0.431500 0.370462
O O9 0.493962 0.375256 0.303619
O O10 0.347369 0.244737 0.329051
O O11 0.313948 0.439729 0.287318
O O12 0.697517 0.420869 0.571104
O O13 0.099477 0.753306 0.556436
O O14 0.250000 0.691683 0.500000
O O15 0.823539 0.095659 0.230518
#
# Coordination Sequence:
#
# PCOD8296986 Si02
#       8
#    16  16  16  16   8  16  16   8
#     4  12  26  47  73 103 144 191 244 298 365 431
#     4  12  25  46  72 100 140 193 243 298 353 433
#     4  11  24  46  76 104 146 190 234 293 360 443
#     4  12  25  45  73 100 139 192 241 291 359 435
#     4  12  28  46  66 108 146 182 250 312 362 418
#     4  12  26  44  69 101 141 193 243 302 365 424
#     4  11  24  48  72 107 142 189 234 289 368 435
#     4  12  24  46  74 116 140 176 238 306 354 434
#
# _framework density 23.324945
#
# number of rings (size 3 to 8) (size 9 to 14) (size 15 to 20)
#    0.000    0.286    6.429    2.143    2.000    1.143 
#    2.571    1.429    0.000    0.000    0.000    0.000 
#    0.000    0.000    0.000    0.000    0.000    0.000 
#
# Total GULP energy -693828.276723 kJ/mol
# GULP energy per Si atom -12389.790656 kJ/mol
# Density = 2.327186 g / cm^3
# Si number density = 23.324945 Si / 1000 Ang^3
#
#
#
# Elastic Constant Matrix: (Units=GPa)
#
#
# Indices 1 2 3 4 5 6 
#
# 1 120.2593 42.8557 28.3845 0.0000 0.0000 0.0000
# 2 42.8557 118.3996 51.0878 0.0000 0.0000 0.0000
# 3 28.3845 51.0878 80.1676 0.0000 0.0000 0.0000
# 4 0.0000 0.0000 0.0000 11.3521 0.0000 0.0000
# 5 0.0000 0.0000 0.0000 0.0000 47.6747 0.0000
# 6 0.0000 0.0000 0.0000 0.0000 0.0000 27.8500
#
#
#
# Elastic Compliance Matrix: (Units=1/GPa)
#
#
# Indices 1 2 3 4 5 6 
#
# 1 0.009703 -0.002799 -0.001651 0.000000 0.000000 0.000000
# 2 -0.002799 0.012457 -0.006947 0.000000 0.000000 0.000000
# 3 -0.001651 -0.006947 0.017486 0.000000 0.000000 0.000000
# 4 0.000000 0.000000 0.000000 0.088090 0.000000 0.000000
# 5 0.000000 0.000000 0.000000 0.000000 0.020975 0.000000
# 6 0.000000 0.000000 0.000000 0.000000 0.000000 0.035907
#
#
# Mechanical properties :
#
#
# Convention : Reuss Voigt Hill
#
# Bulk Modulus (GPa) = 59.34933 62.60915 60.97924
# Shear Modulus (GPa) = 23.47093 30.47524 26.97309
#
# Velocity S-wave (km/s) = 3.17560 3.61855 3.40428
# Velocity P-wave (km/s) = 6.24065 6.66025 6.45386
#
# Compressibility (1/GPa) = 0.01684939
#
# Stress axis : x y z
#
# Youngs Moduli (GPa) = 103.06355 80.27729 57.18957
#
# Poissons Ratio (x) = 0.22473 0.09445
# Poissons Ratio (y) = 0.28852 0.39730
# Poissons Ratio (z) = 0.17020 0.55769
#
# Static dielectric constant tensor:
#      x y z
#    x 4.731690 0.000000 0.000000 
#    y 0.000000 4.240560 0.000000 
#    z 0.000000 0.000000 4.065900 
# 
# 
# High freq. dielectric constant tensor:
#      x y z
#    x 1.944440 0.000000 0.000000 
#    y 0.000000 1.931660 0.000000 
#    z 0.000000 0.000000 1.895750 
# 
# From -- ./inp_files/34348.got.cif
#   From: 2010.03.12/outbox.cif.g09.slc.cpg/sg73_18_cif.got.tgz:34348.got - 2010.04.16 15:25:48.
