data_PCOD8296058
_publ_section_title
;
Structure prediction by ZEFSAII (Michael W. Deem and Ramdas Pophale) SiO2 
 PCOD8296058
Probable space group: I B C A 
;
_chemical_formula_sum "Si O2"
_cell_formula_units_Z 104
_cell_length_a 8.969876
_cell_length_b 23.164183
_cell_length_c 22.410693
_cell_angle_alpha 90.000000
_cell_angle_beta 90.000000
_cell_angle_gamma 90.000000
_cell_volume 4656.490411
_symmetry_space_group_name_H-M "I B C A "
_symmetry_group_IT_number 73
_symmetry_cell_setting 'orthorhombic'
loop_
_space_group_symop_operation_xyz
x,y,z
-x,1/2-y,z
x,-y,1/2-z
1/2-x,y,-z
-x,-y,-z
x,1/2+y,-z
-x,y,1/2+z
1/2+x,-y,z
1/2+x,1/2+y,1/2+z
1/2-x,-y,1/2+z
1/2+x,1/2-y,-z
-x,1/2+y,1/2-z
1/2-x,1/2-y,1/2-z
1/2+x,y,1/2-z
1/2-x,1/2+y,z
x,1/2-y,1/2+z
loop_
_atom_site_type_symbol
_atom_site_label
_atom_site_fract_x
_atom_site_fract_y
_atom_site_fract_z
Si Si1 0.813548 0.671954 0.574951
Si Si2 0.776666 0.366061 0.718659
Si Si3 0.434750 0.555965 0.629886
Si Si4 0.492481 0.865196 0.531554
Si Si5 0.962677 0.813895 0.195711
Si Si6 0.760127 0.036579 0.692822
Si Si7 0.250000 0.778758 0.000000
O O1 0.638806 0.656143 0.575538
O O2 0.868859 0.660781 0.640984
O O3 0.826995 0.737858 0.550237
O O4 0.915629 0.629100 0.533653
O O5 0.845662 0.390685 0.658510
O O6 0.866473 0.310173 0.742698
O O7 0.605536 0.353811 0.706768
O O8 0.812757 0.407935 0.775677
O O9 0.444332 0.573669 0.559154
O O10 0.352224 0.496183 0.647097
O O11 0.600223 0.553623 0.654045
O O12 0.625032 0.818602 0.530249
O O13 0.000000 0.750000 0.176068
O O14 0.814602 0.000000 0.750000
#
# Coordination Sequence:
#
# PCOD8296058 Si02
#       7
#    16  16  16  16  16  16   8
#     4  10  22  42  67  96 142 189 230 275 336 426
#     4  11  24  42  64  97 135 181 219 287 345 403
#     4  11  23  40  69  99 124 173 227 292 338 407
#     4  10  22  41  66 101 132 176 234 284 339 398
#     4  12  25  42  63 101 142 183 225 277 346 421
#     4  10  21  42  67  97 127 172 235 275 346 413
#     4  10  20  42  68 100 132 196 238 264 336 422
#
# _framework density 22.334416999999998
#
# number of rings (size 3 to 8) (size 9 to 14) (size 15 to 20)
#    0.000    1.538    1.538    5.538    6.462    0.000 
#    0.000    0.000    0.000   12.923    0.000    0.000 
#    0.000    0.000    0.000    0.000    0.000    0.000 
#
# Total GULP energy -644296.032998 kJ/mol
# GULP energy per Si atom -12390.308327 kJ/mol
# Density = 2.228358 g / cm^3
# Si number density = 22.334417 Si / 1000 Ang^3
#
#
#
# Elastic Constant Matrix: (Units=GPa)
#
#
# Indices 1 2 3 4 5 6 
#
# 1 119.3384 17.2256 39.7872 0.0000 0.0000 0.0000
# 2 17.2256 53.2852 27.7259 0.0000 0.0000 0.0000
# 3 39.7872 27.7259 68.4549 0.0000 0.0000 0.0000
# 4 0.0000 0.0000 0.0000 42.2643 0.0000 0.0000
# 5 0.0000 0.0000 0.0000 0.0000 27.5128 0.0000
# 6 0.0000 0.0000 0.0000 0.0000 0.0000 25.8774
#
#
#
# Elastic Compliance Matrix: (Units=1/GPa)
#
#
# Indices 1 2 3 4 5 6 
#
# 1 0.010397 -0.000275 -0.005932 0.000000 0.000000 0.000000
# 2 -0.000275 0.023785 -0.009474 0.000000 0.000000 0.000000
# 3 -0.005932 -0.009474 0.021893 0.000000 0.000000 0.000000
# 4 0.000000 0.000000 0.000000 0.023661 0.000000 0.000000
# 5 0.000000 0.000000 0.000000 0.000000 0.036347 0.000000
# 6 0.000000 0.000000 0.000000 0.000000 0.000000 0.038644
#
#
# Mechanical properties :
#
#
# Convention : Reuss Voigt Hill
#
# Bulk Modulus (GPa) = 40.46194 45.61733 43.03963
# Shear Modulus (GPa) = 25.73013 29.55354 27.64184
#
# Velocity S-wave (km/s) = 3.39785 3.64157 3.52182
# Velocity P-wave (km/s) = 5.79220 6.17660 5.98749
#
# Compressibility (1/GPa) = 0.02471459
#
# Stress axis : x y z
#
# Youngs Moduli (GPa) = 96.18411 42.04272 45.67696
#
# Poissons Ratio (x) = 0.01155 0.27093
# Poissons Ratio (y) = 0.02641 0.43275
# Poissons Ratio (z) = 0.57052 0.39831
#
# Static dielectric constant tensor:
#      x y z
#    x 4.127320 0.000000 0.000000 
#    y 0.000000 4.091810 0.000000 
#    z 0.000000 0.000000 4.114040 
# 
# 
# High freq. dielectric constant tensor:
#      x y z
#    x 1.896010 0.000000 0.000000 
#    y 0.000000 1.863890 0.000000 
#    z 0.000000 0.000000 1.871360 
# 
# From -- ./inp_files/31364.got.cif
#   From: 2010.03.12/outbox.cif.g09.slc.cpg/sg73_16_cif.got.tgz:31364.got - 2010.04.16 15:25:48.
