data_PCOD8296091
_publ_section_title
;
Structure prediction by ZEFSAII (Michael W. Deem and Ramdas Pophale) SiO2 
 PCOD8296091
Probable space group: I B C A 
;
_chemical_formula_sum "Si O2"
_cell_formula_units_Z 120
_cell_length_a 14.303698
_cell_length_b 12.605504
_cell_length_c 30.907062
_cell_angle_alpha 90.000000
_cell_angle_beta 90.000000
_cell_angle_gamma 90.000000
_cell_volume 5572.707777
_symmetry_space_group_name_H-M "I B C A "
_symmetry_group_IT_number 73
_symmetry_cell_setting 'orthorhombic'
loop_
_space_group_symop_operation_xyz
x,y,z
-x,1/2-y,z
x,-y,1/2-z
1/2-x,y,-z
-x,-y,-z
x,1/2+y,-z
-x,y,1/2+z
1/2+x,-y,z
1/2+x,1/2+y,1/2+z
1/2-x,-y,1/2+z
1/2+x,1/2-y,-z
-x,1/2+y,1/2-z
1/2-x,1/2-y,1/2-z
1/2+x,y,1/2-z
1/2-x,1/2+y,z
x,1/2-y,1/2+z
loop_
_atom_site_type_symbol
_atom_site_label
_atom_site_fract_x
_atom_site_fract_y
_atom_site_fract_z
Si Si1 0.597104 0.106927 0.055941
Si Si2 0.561589 0.605125 0.721262
Si Si3 0.616324 0.856640 0.939536
Si Si4 0.355959 0.591075 0.714597
Si Si5 0.250000 0.485140 0.500000
Si Si6 0.405896 0.953990 0.848142
Si Si7 0.619715 0.588018 0.342186
Si Si8 0.677968 0.286872 0.710526
O O1 0.485627 0.099399 0.044914
O O2 0.622075 0.230180 0.058555
O O3 0.611986 0.042355 0.100598
O O4 0.667606 0.056279 0.021122
O O5 0.561224 0.500000 0.750000
O O6 0.456988 0.646346 0.713160
O O7 0.607975 0.570061 0.674631
O O8 0.615124 0.695349 0.747121
O O9 0.698507 0.908057 0.966950
O O10 0.644199 0.886497 0.891012
O O11 0.347357 0.500000 0.750000
O O12 0.339723 0.529087 0.668921
O O13 0.285305 0.687976 0.724439
O O14 0.508377 0.909526 0.836158
O O15 0.336213 0.868676 0.828386
O O16 0.663075 0.669342 0.307385
#
# Coordination Sequence:
#
# PCOD8296091 Si02
#       8
#    16  16  16  16   8  16  16  16
#     4  10  21  40  65  91 127 162 203 252 310 377
#     4   8  17  33  53  80 113 156 197 246 289 343
#     4  10  22  41  62  96 126 160 208 251 304 391
#     4  10  21  35  50  84 123 148 201 255 293 338
#     4  12  24  38  66  98 124 158 196 266 328 366
#     4   9  17  34  57  82 113 160 198 243 293 354
#     4  10  21  36  59  84 118 161 204 249 291 354
#     4  11  19  34  60  82 114 161 204 242 296 347
#
# _framework density 21.533517
#
# number of rings (size 3 to 8) (size 9 to 14) (size 15 to 20)
#    0.000    2.133    1.333    3.200    1.867    0.533 
#    0.000    2.667    0.000    0.000    0.000    0.000 
#    0.000    0.000    0.000    0.000    0.000    0.000 
#
# Total GULP energy -743614.467533 kJ/mol
# GULP energy per Si atom -12393.574459 kJ/mol
# Density = 2.148451 g / cm^3
# Si number density = 21.533517 Si / 1000 Ang^3
#
#
#
# Elastic Constant Matrix: (Units=GPa)
#
#
# Indices 1 2 3 4 5 6 
#
# 1 103.3983 67.6097 56.4028 0.0000 0.0000 0.0000
# 2 67.6097 83.4971 60.1060 0.0000 0.0000 0.0000
# 3 56.4028 60.1060 118.5256 0.0000 0.0000 0.0000
# 4 0.0000 0.0000 0.0000 36.4751 0.0000 0.0000
# 5 0.0000 0.0000 0.0000 0.0000 33.8951 0.0000
# 6 0.0000 0.0000 0.0000 0.0000 0.0000 -1.5961
#
#
#
# Elastic Compliance Matrix: (Units=1/GPa)
#
#
# Indices 1 2 3 4 5 6 
#
# 1 0.020895 -0.015374 -0.002147 0.000000 0.000000 0.000000
# 2 -0.015374 0.030173 -0.007985 0.000000 0.000000 0.000000
# 3 -0.002147 -0.007985 0.013508 0.000000 0.000000 0.000000
# 4 0.000000 0.000000 0.000000 0.027416 0.000000 0.000000
# 5 0.000000 0.000000 0.000000 0.000000 0.029503 0.000000
# 6 0.000000 0.000000 0.000000 0.000000 0.000000 -0.626514
#
#
# Mechanical properties :
#
#
# Convention : Reuss Voigt Hill
#
# Bulk Modulus (GPa) = 73.72357 74.85087 74.28722
# Shear Modulus (GPa) = -11.12384 21.84164 5.35890
#
# Velocity S-wave (km/s) = -2.27531 3.18828 1.57925
# Velocity P-wave (km/s) = 5.23529 6.95623 6.15619
#
# Compressibility (1/GPa) = 0.01356418
#
# Stress axis : x y z
#
# Youngs Moduli (GPa) = 47.85833 33.14203 74.02863
#
# Poissons Ratio (x) = 0.50951 0.15895
# Poissons Ratio (y) = 0.73575 0.59115
# Poissons Ratio (z) = 0.10276 0.26465
#
# Static dielectric constant tensor:
#      x y z
#    x 4.606890 0.000000 0.000000 
#    y 0.000000 3.881790 0.000000 
#    z 0.000000 0.000000 4.216300 
# 
# 
# High freq. dielectric constant tensor:
#      x y z
#    x 1.858500 0.000000 0.000000 
#    y 0.000000 1.849150 0.000000 
#    z 0.000000 0.000000 1.834780 
# 
# From -- ./inp_files/34406.got.cif
#   From: 2010.03.12/outbox.cif.g09.slc.cpg/sg73_18_cif.got.tgz:34406.got - 2010.04.16 15:25:48.
