data_PCOD8296728
_publ_section_title
;
Structure prediction by ZEFSAII (Michael W. Deem and Ramdas Pophale) SiO2 
 PCOD8296728
Probable space group: I B C A 
;
_chemical_formula_sum "Si O2"
_cell_formula_units_Z 88
_cell_length_a 13.345465
_cell_length_b 11.983441
_cell_length_c 25.483159
_cell_angle_alpha 90.000000
_cell_angle_beta 90.000000
_cell_angle_gamma 90.000000
_cell_volume 4075.383817
_symmetry_space_group_name_H-M "I B C A "
_symmetry_group_IT_number 73
_symmetry_cell_setting 'orthorhombic'
loop_
_space_group_symop_operation_xyz
x,y,z
-x,1/2-y,z
x,-y,1/2-z
1/2-x,y,-z
-x,-y,-z
x,1/2+y,-z
-x,y,1/2+z
1/2+x,-y,z
1/2+x,1/2+y,1/2+z
1/2-x,-y,1/2+z
1/2+x,1/2-y,-z
-x,1/2+y,1/2-z
1/2-x,1/2-y,1/2-z
1/2+x,y,1/2-z
1/2-x,1/2+y,z
x,1/2-y,1/2+z
loop_
_atom_site_type_symbol
_atom_site_label
_atom_site_fract_x
_atom_site_fract_y
_atom_site_fract_z
Si Si1 0.765426 0.322821 0.301369
Si Si2 0.900827 0.676840 0.626663
Si Si3 0.987857 0.125905 0.058774
Si Si4 0.942074 0.064283 0.169265
Si Si5 0.858647 0.551858 0.521995
Si Si6 0.906256 0.500000 0.250000
O O1 0.750000 0.250000 0.250000
O O2 0.810050 0.247667 0.348374
O O3 0.659217 0.369079 0.320055
O O4 0.838748 0.425674 0.288601
O O5 0.916911 0.565929 0.660944
O O6 0.876862 0.646260 0.566165
O O7 0.000000 0.750000 0.628034
O O8 0.000000 0.250000 0.037721
O O9 0.002771 0.117706 0.120859
O O10 0.071857 0.056018 0.029172
O O11 0.878738 0.071102 0.046602
O O12 0.020465 0.079794 0.216501
O O13 0.750000 0.563645 0.500000
#
# Coordination Sequence:
#
# PCOD8296728 Si02
#       6
#    16  16  16  16  16   8
#     4  12  27  42  72 104 137 191 241 292 364 428
#     4  11  23  49  70 103 146 190 229 297 367 415
#     4  10  24  45  68 104 139 183 234 291 353 422
#     4  11  26  44  70 105 138 187 246 287 357 441
#     4  10  24  45  73 105 144 181 238 291 356 441
#     4  12  24  46  70  98 154 176 242 308 342 436
#
# _framework density 21.593057999999999
#
# number of rings (size 3 to 8) (size 9 to 14) (size 15 to 20)
#    0.000    1.091    1.818    3.273    5.091    3.636 
#    9.818    0.000    0.000    0.000    0.000    0.000 
#    0.000    0.000    0.000    0.000    0.000    0.000 
#
# Total GULP energy -545603.866427 kJ/mol
# GULP energy per Si atom -12400.087873 kJ/mol
# Density = 2.154391 g / cm^3
# Si number density = 21.593058 Si / 1000 Ang^3
#
#
#
# Elastic Constant Matrix: (Units=GPa)
#
#
# Indices 1 2 3 4 5 6 
#
# 1 115.8769 42.3107 62.6977 0.0000 0.0000 0.0000
# 2 42.3107 116.7448 33.2679 0.0000 0.0000 0.0000
# 3 62.6977 33.2679 137.4661 0.0000 0.0000 0.0000
# 4 0.0000 0.0000 0.0000 29.4596 0.0000 0.0000
# 5 0.0000 0.0000 0.0000 0.0000 39.3395 0.0000
# 6 0.0000 0.0000 0.0000 0.0000 0.0000 38.3335
#
#
#
# Elastic Compliance Matrix: (Units=1/GPa)
#
#
# Indices 1 2 3 4 5 6 
#
# 1 0.012422 -0.003101 -0.004915 0.000000 0.000000 0.000000
# 2 -0.003101 0.009974 -0.000999 0.000000 0.000000 0.000000
# 3 -0.004915 -0.000999 0.009758 0.000000 0.000000 0.000000
# 4 0.000000 0.000000 0.000000 0.033945 0.000000 0.000000
# 5 0.000000 0.000000 0.000000 0.000000 0.025420 0.000000
# 6 0.000000 0.000000 0.000000 0.000000 0.000000 0.026087
#
#
# Mechanical properties :
#
#
# Convention : Reuss Voigt Hill
#
# Bulk Modulus (GPa) = 70.80699 71.84894 71.32797
# Shear Modulus (GPa) = 35.62674 36.88064 36.25369
#
# Velocity S-wave (km/s) = 4.06632 4.13726 4.10195
# Velocity P-wave (km/s) = 7.41009 7.49459 7.45246
#
# Compressibility (1/GPa) = 0.01412290
#
# Stress axis : x y z
#
# Youngs Moduli (GPa) = 80.50546 100.25612 102.47962
#
# Poissons Ratio (x) = 0.31092 0.50367
# Poissons Ratio (y) = 0.24967 0.10242
# Poissons Ratio (z) = 0.39567 0.10020
#
# Static dielectric constant tensor:
#      x y z
#    x 4.015530 0.000000 0.000000 
#    y 0.000000 4.197740 0.000000 
#    z 0.000000 0.000000 4.199360 
# 
# 
# High freq. dielectric constant tensor:
#      x y z
#    x 1.849000 0.000000 0.000000 
#    y 0.000000 1.853080 0.000000 
#    z 0.000000 0.000000 1.865230 
# 
# From -- ./inp_files/33899.got.cif
#   From: 2010.03.12/outbox.cif.g09.slc.cpg/sg73_17_cif.got.tgz:33899.got - 2010.04.16 15:25:48.
