data_PCOD8296906
_publ_section_title
;
Structure prediction by ZEFSAII (Michael W. Deem and Ramdas Pophale) SiO2 
 PCOD8296906
Probable space group: I B C A 
;
_chemical_formula_sum "Si O2"
_cell_formula_units_Z 88
_cell_length_a 13.418817
_cell_length_b 18.176135
_cell_length_c 16.798971
_cell_angle_alpha 90.000000
_cell_angle_beta 90.000000
_cell_angle_gamma 90.000000
_cell_volume 4097.306477
_symmetry_space_group_name_H-M "I B C A "
_symmetry_group_IT_number 73
_symmetry_cell_setting 'orthorhombic'
loop_
_space_group_symop_operation_xyz
x,y,z
-x,1/2-y,z
x,-y,1/2-z
1/2-x,y,-z
-x,-y,-z
x,1/2+y,-z
-x,y,1/2+z
1/2+x,-y,z
1/2+x,1/2+y,1/2+z
1/2-x,-y,1/2+z
1/2+x,1/2-y,-z
-x,1/2+y,1/2-z
1/2-x,1/2-y,1/2-z
1/2+x,y,1/2-z
1/2-x,1/2+y,z
x,1/2-y,1/2+z
loop_
_atom_site_type_symbol
_atom_site_label
_atom_site_fract_x
_atom_site_fract_y
_atom_site_fract_z
Si Si1 0.409925 0.200152 0.006785
Si Si2 0.371852 0.573278 0.296547
Si Si3 0.038582 0.047218 0.926300
Si Si4 0.341862 0.585218 0.629889
Si Si5 0.466430 0.327310 0.326754
Si Si6 0.250000 0.189045 0.500000
O O1 0.500000 0.250000 0.033551
O O2 0.406343 0.121598 0.048807
O O3 0.322080 0.251572 0.041599
O O4 0.411541 0.184208 0.911601
O O5 0.394470 0.500000 0.250000
O O6 0.443740 0.570395 0.373149
O O7 0.256297 0.580751 0.317609
O O8 0.390820 0.641003 0.237871
O O9 0.125674 0.998629 0.887063
O O10 0.000000 0.000000 0.000000
O O11 0.436682 0.620772 0.672295
O O12 0.317365 0.636454 0.554371
O O13 0.500000 0.250000 0.291648
#
# Coordination Sequence:
#
# PCOD8296906 Si02
#       6
#    16  16  16  16  16   8
#     4  11  22  45  72 104 143 181 236 300 361 424
#     4  12  27  43  70 104 141 190 237 286 358 433
#     4  12  24  46  75 103 142 188 240 302 359 419
#     4  12  25  45  74 102 142 186 242 294 352 430
#     4  11  24  49  72  99 151 187 227 300 365 426
#     4  12  24  44  74 106 136 184 244 304 352 420
#
# _framework density 21.477525
#
# number of rings (size 3 to 8) (size 9 to 14) (size 15 to 20)
#    0.000    0.364    7.273    2.182    2.545    6.545 
#    0.000    0.000    0.000    0.000    0.000    0.000 
#    0.000    0.000    0.000    0.000    0.000    0.000 
#
# Total GULP energy -545287.352007 kJ/mol
# GULP energy per Si atom -12392.894364 kJ/mol
# Density = 2.142864 g / cm^3
# Si number density = 21.477525 Si / 1000 Ang^3
#
#
#
# Elastic Constant Matrix: (Units=GPa)
#
#
# Indices 1 2 3 4 5 6 
#
# 1 110.8229 35.2718 21.8384 0.0000 0.0000 0.0000
# 2 35.2718 161.6700 29.0250 0.0000 0.0000 0.0000
# 3 21.8384 29.0250 51.7437 -0.0001 0.0000 0.0000
# 4 0.0000 0.0000 -0.0001 10.4024 0.0000 0.0000
# 5 0.0000 0.0000 0.0000 0.0000 48.0422 0.0000
# 6 0.0000 0.0000 0.0000 0.0000 0.0000 26.8091
#
#
#
# Elastic Compliance Matrix: (Units=1/GPa)
#
#
# Indices 1 2 3 4 5 6 
#
# 1 0.010208 -0.001616 -0.003402 0.000000 0.000000 0.000000
# 2 -0.001616 0.007134 -0.003320 0.000000 0.000000 0.000000
# 3 -0.003402 -0.003320 0.022624 0.000000 0.000000 0.000000
# 4 0.000000 0.000000 0.000000 0.096131 0.000000 0.000000
# 5 0.000000 0.000000 0.000000 0.000000 0.020815 0.000000
# 6 0.000000 0.000000 0.000000 0.000000 0.000000 0.037301
#
#
# Mechanical properties :
#
#
# Convention : Reuss Voigt Hill
#
# Bulk Modulus (GPa) = 42.93554 55.16747 49.05150
# Shear Modulus (GPa) = 22.86740 32.92418 27.89579
#
# Velocity S-wave (km/s) = 3.26653 3.91955 3.60785
# Velocity P-wave (km/s) = 5.85332 6.79895 6.34378
#
# Compressibility (1/GPa) = 0.02329073
#
# Stress axis : x y z
#
# Youngs Moduli (GPa) = 97.96056 140.17249 44.20136
#
# Poissons Ratio (x) = 0.22658 0.15036
# Poissons Ratio (y) = 0.15835 0.14673
# Poissons Ratio (z) = 0.33323 0.46531
#
# Static dielectric constant tensor:
#      x y z
#    x 3.812040 0.000000 0.000000 
#    y 0.000000 4.420710 0.000000 
#    z 0.000000 0.000000 3.589750 
# 
# 
# High freq. dielectric constant tensor:
#      x y z
#    x 1.853680 0.000000 0.000000 
#    y 0.000000 1.873020 0.000000 
#    z 0.000000 0.000000 1.822990 
# 
# From -- ./inp_files/16945.got.cif
#   From: 2010.03.12/outbox.cif.g09.slc.cpg/sg73_9_cif.got.tgz:16945.got - 2010.04.16 15:25:48.
