data_PCOD8296022
_publ_section_title
;
Structure prediction by ZEFSAII (Michael W. Deem and Ramdas Pophale) SiO2 
 PCOD8296022
Probable space group: I B C A 
;
_chemical_formula_sum "Si O2"
_cell_formula_units_Z 72
_cell_length_a 22.156683
_cell_length_b 15.944573
_cell_length_c 8.583158
_cell_angle_alpha 90.000000
_cell_angle_beta 90.000000
_cell_angle_gamma 90.000000
_cell_volume 3032.248184
_symmetry_space_group_name_H-M "I B C A "
_symmetry_group_IT_number 73
_symmetry_cell_setting 'orthorhombic'
loop_
_space_group_symop_operation_xyz
x,y,z
-x,1/2-y,z
x,-y,1/2-z
1/2-x,y,-z
-x,-y,-z
x,1/2+y,-z
-x,y,1/2+z
1/2+x,-y,z
1/2+x,1/2+y,1/2+z
1/2-x,-y,1/2+z
1/2+x,1/2-y,-z
-x,1/2+y,1/2-z
1/2-x,1/2-y,1/2-z
1/2+x,y,1/2-z
1/2-x,1/2+y,z
x,1/2-y,1/2+z
loop_
_atom_site_type_symbol
_atom_site_label
_atom_site_fract_x
_atom_site_fract_y
_atom_site_fract_z
Si Si1 0.560076 0.148886 0.197274
Si Si2 0.308889 0.646537 0.708860
Si Si3 0.061342 0.831130 0.836946
Si Si4 0.250000 0.984634 0.000000
Si Si5 0.844687 0.000000 0.750000
Si Si6 0.750000 0.717748 0.500000
O O1 0.573128 0.235339 0.285871
O O2 0.494528 0.118950 0.259222
O O3 0.613271 0.081174 0.218673
O O4 0.551487 0.170383 0.019111
O O5 0.378394 0.619759 0.709709
O O6 0.272424 0.569194 0.645166
O O7 0.296717 0.727524 0.600934
O O8 0.288073 0.658243 0.886653
O O9 0.193919 0.028162 0.093526
#
# Coordination Sequence:
#
# PCOD8296022 Si02
#       6
#    16  16  16   8   8   8
#     4  11  25  46  76 107 156 190 259 309 378 445
#     4  10  20  40  67 105 141 186 252 305 367 444
#     4  11  22  45  73 110 141 202 252 316 357 448
#     4  11  26  51  66  98 151 193 244 304 389 465
#     4  12  28  54  70 108 154 200 242 320 388 476
#     4   9  20  31  68 112 139 185 240 314 367 415
#
# _framework density 23.744758000000001
#
# number of rings (size 3 to 8) (size 9 to 14) (size 15 to 20)
#    0.000    1.333    2.222    4.000    6.222    1.778 
#    8.000    0.000    0.000    0.000    0.000    0.000 
#    0.000    0.000    0.000    0.000    0.000    0.000 
#
# Total GULP energy -446098.105387 kJ/mol
# GULP energy per Si atom -12391.614039 kJ/mol
# Density = 2.369071 g / cm^3
# Si number density = 23.744758 Si / 1000 Ang^3
#
#
#
# Elastic Constant Matrix: (Units=GPa)
#
#
# Indices 1 2 3 4 5 6 
#
# 1 162.8706 30.3047 77.3991 0.0000 0.0000 0.0000
# 2 30.3047 52.8085 43.1806 0.0000 0.0000 0.0000
# 3 77.3991 43.1806 206.7423 0.0000 0.0000 0.0000
# 4 0.0000 0.0000 0.0000-1712.0681 0.0000 0.0000
# 5 0.0000 0.0000 0.0000 0.0000 47.9323 0.0000
# 6 0.0000 0.0000 0.0000 0.0000 0.0000 53.4275
#
#
#
# Elastic Compliance Matrix: (Units=1/GPa)
#
#
# Indices 1 2 3 4 5 6 
#
# 1 0.007732 -0.002497 -0.002373 0.000000 0.000000 0.000000
# 2 -0.002497 0.023643 -0.004003 0.000000 0.000000 0.000000
# 3 -0.002373 -0.004003 0.006562 0.000000 0.000000 0.000000
# 4 0.000000 0.000000 0.000000 -0.000584 0.000000 0.000000
# 5 0.000000 0.000000 0.000000 0.000000 0.020863 0.000000
# 6 0.000000 0.000000 0.000000 0.000000 0.000000 0.018717
#
#
# Mechanical properties :
#
#
# Convention : Reuss Voigt Hill
#
# Bulk Modulus (GPa) = 49.52993 80.46557 64.99775
# Shear Modulus (GPa) = 49.30557 -304.03920 -127.36682
#
# Velocity S-wave (km/s) = 4.56179 -11.32796 -7.33188
# Velocity P-wave (km/s) = 6.97504 11.71050 6.65149
#
# Compressibility (1/GPa) = 0.02018981
#
# Stress axis : x y z
#
# Youngs Moduli (GPa) = 129.32909 42.29665 152.40216
#
# Poissons Ratio (x) = 0.10560 0.36170
# Poissons Ratio (y) = 0.32288 0.61012
# Poissons Ratio (z) = 0.30694 0.16933
#
# Static dielectric constant tensor:
#      x y z
#    x 8.605780 0.000000 0.000000 
#    y 0.000000 4.038220 0.000000 
#    z 0.000000 0.000000 4.472550 
# 
# 
# High freq. dielectric constant tensor:
#      x y z
#    x 1.959540 0.000000 0.000000 
#    y 0.000000 1.917830 0.000000 
#    z 0.000000 0.000000 1.967520 
# 
# From -- ./inp_files/6042.got.cif
#   From: 2010.03.12/outbox.cif.g09.slc.cpg/sg73_4_cif.got.tgz:6042.got - 2010.04.16 15:25:48.
