data_PCOD8296129
_publ_section_title
;
Structure prediction by ZEFSAII (Michael W. Deem and Ramdas Pophale) SiO2 
 PCOD8296129
Probable space group: I B C A 
;
_chemical_formula_sum "Si O2"
_cell_formula_units_Z 96
_cell_length_a 12.884239
_cell_length_b 18.398204
_cell_length_c 19.976324
_cell_angle_alpha 90.000000
_cell_angle_beta 90.000000
_cell_angle_gamma 90.000000
_cell_volume 4735.324829
_symmetry_space_group_name_H-M "I B C A "
_symmetry_group_IT_number 73
_symmetry_cell_setting 'orthorhombic'
loop_
_space_group_symop_operation_xyz
x,y,z
-x,1/2-y,z
x,-y,1/2-z
1/2-x,y,-z
-x,-y,-z
x,1/2+y,-z
-x,y,1/2+z
1/2+x,-y,z
1/2+x,1/2+y,1/2+z
1/2-x,-y,1/2+z
1/2+x,1/2-y,-z
-x,1/2+y,1/2-z
1/2-x,1/2-y,1/2-z
1/2+x,y,1/2-z
1/2-x,1/2+y,z
x,1/2-y,1/2+z
loop_
_atom_site_type_symbol
_atom_site_label
_atom_site_fract_x
_atom_site_fract_y
_atom_site_fract_z
Si Si1 0.394507 0.708325 0.413306
Si Si2 0.649102 0.565652 0.703441
Si Si3 0.004157 0.119119 0.807231
Si Si4 0.866947 0.580500 0.996416
Si Si5 0.997145 0.505756 0.398864
Si Si6 0.205408 0.799321 0.691047
O O1 0.500000 0.750000 0.432260
O O2 0.413468 0.650887 0.354059
O O3 0.359060 0.665387 0.480475
O O4 0.302629 0.760096 0.382518
O O5 0.694919 0.500000 0.750000
O O6 0.547326 0.598471 0.737801
O O7 0.606901 0.539942 0.632148
O O8 0.733161 0.625960 0.686492
O O9 0.087876 0.180409 0.790089
O O10 0.052178 0.048067 0.844653
O O11 0.915970 0.565520 0.922232
O O12 0.750000 0.547868 0.000000
O O13 0.952966 0.541656 0.040908
O O14 0.250000 0.750000 0.750000
#
# Coordination Sequence:
#
# PCOD8296129 Si02
#       6
#    16  16  16  16  16  16
#     4   9  19  39  57  78 119 160 192 241 304 359
#     4  10  21  37  57  93 125 151 199 248 302 366
#     4   9  19  37  59  84 121 153 189 242 306 361
#     4  10  21  39  61  81 113 159 207 245 292 348
#     4   9  21  39  58  87 116 153 200 256 289 348
#     4  11  21  34  62  93 120 158 191 240 307 376
#
# _framework density 20.273161000000002
#
# number of rings (size 3 to 8) (size 9 to 14) (size 15 to 20)
#    0.000    2.333    1.667    0.000    2.333    3.333 
#    3.000    0.000    0.000    0.000    0.000    0.000 
#    0.000    0.000    0.000    0.000    0.000    0.000 
#
# Total GULP energy -594662.653811 kJ/mol
# GULP energy per Si atom -12388.805288 kJ/mol
# Density = 2.022702 g / cm^3
# Si number density = 20.273161 Si / 1000 Ang^3
#
#
#
# Elastic Constant Matrix: (Units=GPa)
#
#
# Indices 1 2 3 4 5 6 
#
# 1 74.2767 35.7782 22.2872 0.0000 0.0000 0.0000
# 2 35.7782 101.7679 27.2378 0.0000 0.0000 0.0000
# 3 22.2872 27.2378 47.2992 0.0000 0.0000 0.0000
# 4 0.0000 0.0000 0.0000 31.6104 0.0000 0.0000
# 5 0.0000 0.0000 0.0000 0.0000 20.3639 0.0000
# 6 0.0000 0.0000 0.0000 0.0000 0.0000 38.6955
#
#
#
# Elastic Compliance Matrix: (Units=1/GPa)
#
#
# Indices 1 2 3 4 5 6 
#
# 1 0.017343 -0.004623 -0.005510 0.000000 0.000000 0.000000
# 2 -0.004623 0.012849 -0.005221 0.000000 0.000000 0.000000
# 3 -0.005510 -0.005221 0.026745 0.000000 0.000000 0.000000
# 4 0.000000 0.000000 0.000000 0.031635 0.000000 0.000000
# 5 0.000000 0.000000 0.000000 0.000000 0.049107 0.000000
# 6 0.000000 0.000000 0.000000 0.000000 0.000000 0.025843
#
#
# Mechanical properties :
#
#
# Convention : Reuss Voigt Hill
#
# Bulk Modulus (GPa) = 38.12487 43.77226 40.94856
# Shear Modulus (GPa) = 24.63397 27.33666 25.98531
#
# Velocity S-wave (km/s) = 3.48961 3.67606 3.58405
# Velocity P-wave (km/s) = 5.92309 6.29730 6.11306
#
# Compressibility (1/GPa) = 0.02622960
#
# Stress axis : x y z
#
# Youngs Moduli (GPa) = 57.65981 77.82833 37.39027
#
# Poissons Ratio (x) = 0.35976 0.20602
# Poissons Ratio (y) = 0.26653 0.19522
# Poissons Ratio (z) = 0.31771 0.40634
#
# Static dielectric constant tensor:
#      x y z
#    x 3.460120 0.000000 0.000000 
#    y 0.000000 4.007740 0.000000 
#    z 0.000000 0.000000 3.722940 
# 
# 
# High freq. dielectric constant tensor:
#      x y z
#    x 1.777060 0.000000 0.000000 
#    y 0.000000 1.797750 0.000000 
#    z 0.000000 0.000000 1.777170 
# 
# From -- ./inp_files/21363.got.cif
#   From: 2010.03.12/outbox.cif.g09.slc.cpg/sg73_11_cif.got.tgz:21363.got - 2010.04.16 15:25:48.
