data_PCOD8296762
_publ_section_title
;
Structure prediction by ZEFSAII (Michael W. Deem and Ramdas Pophale) SiO2 
 PCOD8296762
Probable space group: I B C A 
;
_chemical_formula_sum "Si O2"
_cell_formula_units_Z 120
_cell_length_a 23.127356
_cell_length_b 8.619052
_cell_length_c 27.571995
_cell_angle_alpha 90.000000
_cell_angle_beta 90.000000
_cell_angle_gamma 90.000000
_cell_volume 5496.087997
_symmetry_space_group_name_H-M "I B C A "
_symmetry_group_IT_number 73
_symmetry_cell_setting 'orthorhombic'
loop_
_space_group_symop_operation_xyz
x,y,z
-x,1/2-y,z
x,-y,1/2-z
1/2-x,y,-z
-x,-y,-z
x,1/2+y,-z
-x,y,1/2+z
1/2+x,-y,z
1/2+x,1/2+y,1/2+z
1/2-x,-y,1/2+z
1/2+x,1/2-y,-z
-x,1/2+y,1/2-z
1/2-x,1/2-y,1/2-z
1/2+x,y,1/2-z
1/2-x,1/2+y,z
x,1/2-y,1/2+z
loop_
_atom_site_type_symbol
_atom_site_label
_atom_site_fract_x
_atom_site_fract_y
_atom_site_fract_z
Si Si1 0.690022 0.100243 0.908108
Si Si2 0.574731 0.593268 0.041876
Si Si3 0.733509 0.500000 0.750000
Si Si4 0.046083 0.886328 0.793158
Si Si5 0.223998 0.399113 0.551569
Si Si6 0.823527 0.218395 0.197557
Si Si7 0.407593 0.549512 0.058471
Si Si8 0.000112 0.432696 0.383349
O O1 0.631972 0.031427 0.931087
O O2 0.720809 0.213980 0.946698
O O3 0.677847 0.201864 0.860307
O O4 0.734606 0.957499 0.904144
O O5 0.568663 0.776958 0.050065
O O6 0.524191 0.489154 0.064739
O O7 0.573676 0.563179 0.984944
O O8 0.692295 0.390614 0.783207
O O9 0.775455 0.599783 0.783615
O O10 0.111375 0.824211 0.786038
O O11 0.000000 0.750000 0.791992
O O12 0.030162 0.000000 0.750000
O O13 0.037617 0.982029 0.842532
O O14 0.250000 0.450448 0.500000
O O15 0.160809 0.466328 0.561521
O O16 0.433213 0.487967 0.110366
O O17 0.000000 0.250000 0.374134
#
# Coordination Sequence:
#
# PCOD8296762 Si02
#       8
#    16  16   8  16  16  16  16  16
#     4  11  23  39  65  97 138 182 227 290 350 418
#     4  11  22  41  65  96 137 181 232 286 349 418
#     4  10  24  46  78 106 142 184 236 300 378 448
#     4  12  27  49  75 105 144 186 240 306 372 443
#     4  11  23  39  62  97 138 181 231 279 347 418
#     4  11  23  48  73 108 143 184 238 303 369 441
#     4  11  24  40  67  98 137 187 232 292 349 425
#     4  12  26  47  69  99 135 182 239 297 361 428
#
# _framework density 21.833711999999998
#
# number of rings (size 3 to 8) (size 9 to 14) (size 15 to 20)
#    0.000    0.800    3.333    4.000    4.667    1.067 
#    2.400    0.000    0.000    0.000    0.000    0.000 
#    0.000    0.000    0.000    0.000    0.000    0.000 
#
# Total GULP energy -743774.985290 kJ/mol
# GULP energy per Si atom -12396.249755 kJ/mol
# Density = 2.178402 g / cm^3
# Si number density = 21.833712 Si / 1000 Ang^3
#
#
#
# Elastic Constant Matrix: (Units=GPa)
#
#
# Indices 1 2 3 4 5 6 
#
# 1 112.7692 51.1868 21.2911 0.0000 0.0000 0.0000
# 2 51.1868 110.4822 17.5861 0.0000 0.0000 0.0000
# 3 21.2911 17.5861 67.0130 0.0000 0.0000 0.0000
# 4 0.0000 0.0000 0.0000 34.2052 0.0000 0.0000
# 5 0.0000 0.0000 0.0000 0.0000 35.5469 0.0000
# 6 0.0000 0.0000 0.0000 0.0000 0.0000 28.9010
#
#
#
# Elastic Compliance Matrix: (Units=1/GPa)
#
#
# Indices 1 2 3 4 5 6 
#
# 1 0.011579 -0.004987 -0.002370 0.000000 0.000000 0.000000
# 2 -0.004987 0.011594 -0.001458 0.000000 0.000000 0.000000
# 3 -0.002370 -0.001458 0.016058 0.000000 0.000000 0.000000
# 4 0.000000 0.000000 0.000000 0.029235 0.000000 0.000000
# 5 0.000000 0.000000 0.000000 0.000000 0.028132 0.000000
# 6 0.000000 0.000000 0.000000 0.000000 0.000000 0.034601
#
#
# Mechanical properties :
#
#
# Convention : Reuss Voigt Hill
#
# Bulk Modulus (GPa) = 46.29569 52.26583 49.28076
# Shear Modulus (GPa) = 32.04517 33.07731 32.56124
#
# Velocity S-wave (km/s) = 3.83520 3.89648 3.86596
# Velocity P-wave (km/s) = 6.39230 6.65083 6.52284
#
# Compressibility (1/GPa) = 0.02160028
#
# Stress axis : x y z
#
# Youngs Moduli (GPa) = 86.36392 86.25188 62.27387
#
# Poissons Ratio (x) = 0.43016 0.14759
# Poissons Ratio (y) = 0.43072 0.09080
# Poissons Ratio (z) = 0.20468 0.12576
#
# Static dielectric constant tensor:
#      x y z
#    x 4.231490 0.000000 0.000000 
#    y 0.000000 3.987680 0.000000 
#    z 0.000000 0.000000 3.892470 
# 
# 
# High freq. dielectric constant tensor:
#      x y z
#    x 1.879550 0.000000 0.000000 
#    y 0.000000 1.862410 0.000000 
#    z 0.000000 0.000000 1.850110 
# 
# From -- ./inp_files/34812.got.cif
#   From: 2010.03.12/outbox.cif.g09.slc.cpg/sg73_18_cif.got.tgz:34812.got - 2010.04.16 15:25:48.
