data_PCOD8296446
_publ_section_title
;
Structure prediction by ZEFSAII (Michael W. Deem and Ramdas Pophale) SiO2 
 PCOD8296446
Probable space group: I B C A 
;
_chemical_formula_sum "Si O2"
_cell_formula_units_Z 96
_cell_length_a 17.794306
_cell_length_b 11.221059
_cell_length_c 23.011921
_cell_angle_alpha 90.000000
_cell_angle_beta 90.000000
_cell_angle_gamma 90.000000
_cell_volume 4594.812300
_symmetry_space_group_name_H-M "I B C A "
_symmetry_group_IT_number 73
_symmetry_cell_setting 'orthorhombic'
loop_
_space_group_symop_operation_xyz
x,y,z
-x,1/2-y,z
x,-y,1/2-z
1/2-x,y,-z
-x,-y,-z
x,1/2+y,-z
-x,y,1/2+z
1/2+x,-y,z
1/2+x,1/2+y,1/2+z
1/2-x,-y,1/2+z
1/2+x,1/2-y,-z
-x,1/2+y,1/2-z
1/2-x,1/2-y,1/2-z
1/2+x,y,1/2-z
1/2-x,1/2+y,z
x,1/2-y,1/2+z
loop_
_atom_site_type_symbol
_atom_site_label
_atom_site_fract_x
_atom_site_fract_y
_atom_site_fract_z
Si Si1 0.674475 0.782887 0.093417
Si Si2 0.439180 0.912296 0.666796
Si Si3 0.408789 0.057270 0.401468
Si Si4 0.929379 0.177857 0.789985
Si Si5 0.083457 0.702073 0.506582
Si Si6 0.847420 0.294834 0.884312
O O1 0.631924 0.888102 0.126499
O O2 0.655678 0.650733 0.119706
O O3 0.761776 0.810356 0.097951
O O4 0.643125 0.787926 0.027204
O O5 0.516605 0.897466 0.631700
O O6 0.431196 0.818505 0.720166
O O7 0.433475 0.043994 0.689807
O O8 0.418433 0.074976 0.471911
O O9 0.388160 0.922441 0.388107
O O10 0.856530 0.243185 0.818794
O O11 0.000000 0.250000 0.815397
O O12 0.112515 0.698179 0.572883
O O13 0.000000 0.750000 0.505336
#
# Coordination Sequence:
#
# PCOD8296446 Si02
#       6
#    16  16  16  16  16  16
#     4  10  23  44  65  96 136 177 216 277 340 398
#     4  11  22  45  71  93 127 179 229 267 338 387
#     4  10  22  44  66  93 129 178 225 276 315 413
#     4  11  24  40  69 100 130 170 222 286 319 408
#     4  10  22  42  65  97 127 175 222 267 326 400
#     4  12  25  41  64 103 138 169 221 282 346 386
#
# _framework density 20.893128999999998
#
# number of rings (size 3 to 8) (size 9 to 14) (size 15 to 20)
#    1.000    0.333    3.333    2.500    2.333    2.667 
#    3.000    0.000    0.000    0.000    0.000    0.000 
#    0.000    0.000    0.000    0.000    0.000    0.000 
#
# Total GULP energy -594669.781540 kJ/mol
# GULP energy per Si atom -12388.953782 kJ/mol
# Density = 2.084558 g / cm^3
# Si number density = 20.893129 Si / 1000 Ang^3
#
#
#
# Elastic Constant Matrix: (Units=GPa)
#
#
# Indices 1 2 3 4 5 6 
#
# 1 135.7776 19.3857 46.0618 0.0000 0.0000 0.0000
# 2 19.3857 68.5121 38.6567 0.0000 0.0000 0.0000
# 3 46.0618 38.6567 99.3759 0.0000 0.0000 0.0000
# 4 0.0000 0.0000 0.0000 29.6304 0.0000 0.0000
# 5 0.0000 0.0000 0.0000 0.0000 1.3843 0.0000
# 6 0.0000 0.0000 0.0000 0.0000 0.0000 24.3602
#
#
#
# Elastic Compliance Matrix: (Units=1/GPa)
#
#
# Indices 1 2 3 4 5 6 
#
# 1 0.008742 -0.000240 -0.003959 0.000000 0.000000 0.000000
# 2 -0.000240 0.018707 -0.007166 0.000000 0.000000 0.000000
# 3 -0.003959 -0.007166 0.014685 0.000000 0.000000 0.000000
# 4 0.000000 0.000000 0.000000 0.033749 0.000000 0.000000
# 5 0.000000 0.000000 0.000000 0.000000 0.722411 0.000000
# 6 0.000000 0.000000 0.000000 0.000000 0.000000 0.041051
#
#
# Mechanical properties :
#
#
# Convention : Reuss Voigt Hill
#
# Bulk Modulus (GPa) = 51.53178 56.87488 54.20333
# Shear Modulus (GPa) = 5.75677 24.37906 15.06792
#
# Velocity S-wave (km/s) = 1.66172 3.41962 2.68841
# Velocity P-wave (km/s) = 5.32914 6.54772 5.96961
#
# Compressibility (1/GPa) = 0.01940550
#
# Stress axis : x y z
#
# Youngs Moduli (GPa) = 114.38721 53.45601 68.09597
#
# Poissons Ratio (x) = 0.01283 0.26958
# Poissons Ratio (y) = 0.02745 0.48795
# Poissons Ratio (z) = 0.45283 0.38305
#
# Static dielectric constant tensor:
#      x y z
#    x 3.603240 0.000000 0.000000 
#    y 0.000000 4.562340 0.000000 
#    z 0.000000 0.000000 4.076840 
# 
# 
# High freq. dielectric constant tensor:
#      x y z
#    x 1.809710 0.000000 0.000000 
#    y 0.000000 1.814120 0.000000 
#    z 0.000000 0.000000 1.819580 
# 
# From -- ./inp_files/29780.got.cif
#   From: 2010.03.12/outbox.cif.g09.slc.cpg/sg73_15_cif.got.tgz:29780.got - 2010.04.16 15:25:48.
