data_PCOD8296363
_publ_section_title
;
Structure prediction by ZEFSAII (Michael W. Deem and Ramdas Pophale) SiO2 
 PCOD8296363
Probable space group: I B C A 
;
_chemical_formula_sum "Si O2"
_cell_formula_units_Z 104
_cell_length_a 30.091709
_cell_length_b 19.210997
_cell_length_c 8.598048
_cell_angle_alpha 90.000000
_cell_angle_beta 90.000000
_cell_angle_gamma 90.000000
_cell_volume 4970.460454
_symmetry_space_group_name_H-M "I B C A "
_symmetry_group_IT_number 73
_symmetry_cell_setting 'orthorhombic'
loop_
_space_group_symop_operation_xyz
x,y,z
-x,1/2-y,z
x,-y,1/2-z
1/2-x,y,-z
-x,-y,-z
x,1/2+y,-z
-x,y,1/2+z
1/2+x,-y,z
1/2+x,1/2+y,1/2+z
1/2-x,-y,1/2+z
1/2+x,1/2-y,-z
-x,1/2+y,1/2-z
1/2-x,1/2-y,1/2-z
1/2+x,y,1/2-z
1/2-x,1/2+y,z
x,1/2-y,1/2+z
loop_
_atom_site_type_symbol
_atom_site_label
_atom_site_fract_x
_atom_site_fract_y
_atom_site_fract_z
Si Si1 0.000000 0.750000 0.577807
Si Si2 0.870972 0.669615 0.764795
Si Si3 0.562814 0.797552 0.177889
Si Si4 0.652396 0.535219 0.091015
Si Si5 0.132293 0.604295 0.933754
Si Si6 0.727975 0.810556 0.661213
Si Si7 0.708015 0.924388 0.301538
O O1 0.027682 0.695435 0.682616
O O2 0.035040 0.794037 0.480229
O O3 0.908160 0.727089 0.798771
O O4 0.881792 0.596236 0.853464
O O5 0.864062 0.656453 0.580490
O O6 0.824814 0.696885 0.834406
O O7 0.590865 0.868721 0.169330
O O8 0.672341 0.500000 0.250000
O O9 0.626977 0.476295 0.988501
O O10 0.689918 0.572398 0.981347
O O11 0.173621 0.611451 0.817570
O O12 0.750000 0.797907 0.500000
O O13 0.750000 0.750000 0.750000
O O14 0.745259 0.885403 0.720511
O O15 0.720502 0.000000 0.250000
#
# Coordination Sequence:
#
# PCOD8296363 Si02
#       7
#     8  16  16  16  16  16  16
#     4  10  24  40  68  98 126 164 212 280 336 418
#     4  11  23  39  65  89 133 177 215 274 328 402
#     4  11  22  42  66  99 128 166 218 267 342 405
#     4   9  20  40  64  95 125 177 225 268 327 384
#     4  10  22  39  66  96 128 174 216 272 328 399
#     4  12  27  41  58  92 136 176 229 280 324 368
#     4  10  22  42  64  94 132 179 231 268 318 379
#
# _framework density 20.923615999999999
#
# number of rings (size 3 to 8) (size 9 to 14) (size 15 to 20)
#    0.000    1.538    3.077    0.923    6.462    1.846 
#    0.000    0.000    0.000    5.538    0.000    0.000 
#    0.000    0.000    0.000    0.000    0.000    0.000 
#
# Total GULP energy -644291.612061 kJ/mol
# GULP energy per Si atom -12390.223309 kJ/mol
# Density = 2.087599 g / cm^3
# Si number density = 20.923616 Si / 1000 Ang^3
#
#
#
# Elastic Constant Matrix: (Units=GPa)
#
#
# Indices 1 2 3 4 5 6 
#
# 1 101.3394 42.6943 39.5280 0.0000 0.0000 0.0000
# 2 42.6943 89.9439 28.9700 0.0000 0.0000 0.0000
# 3 39.5280 28.9700 100.9915 0.0000 0.0000 0.0000
# 4 0.0000 0.0000 0.0000 0.9343 0.0000 0.0000
# 5 0.0000 0.0000 0.0000 0.0000 -40.1981 0.0000
# 6 0.0000 0.0000 0.0000 0.0000 0.0000 16.6355
#
#
#
# Elastic Compliance Matrix: (Units=1/GPa)
#
#
# Indices 1 2 3 4 5 6 
#
# 1 0.013546 -0.005203 -0.003809 0.000000 0.000000 0.000000
# 2 -0.005203 0.014248 -0.002051 0.000000 0.000000 0.000000
# 3 -0.003809 -0.002051 0.011981 0.000000 0.000000 0.000000
# 4 0.000000 0.000000 0.000000 1.070282 0.000000 0.000000
# 5 0.000000 0.000000 0.000000 0.000000 -0.024877 0.000000
# 6 0.000000 0.000000 0.000000 0.000000 0.000000 0.060112
#
#
# Mechanical properties :
#
#
# Convention : Reuss Voigt Hill
#
# Bulk Modulus (GPa) = 56.66023 57.18436 56.92230
# Shear Modulus (GPa) = 4.26148 7.54652 5.90400
#
# Velocity S-wave (km/s) = 1.42867 1.90119 1.68161
# Velocity P-wave (km/s) = 5.46441 5.67528 5.57084
#
# Compressibility (1/GPa) = 0.01764906
#
# Stress axis : x y z
#
# Youngs Moduli (GPa) = 73.82454 70.18396 83.46513
#
# Poissons Ratio (x) = 0.36516 0.31794
# Poissons Ratio (y) = 0.38410 0.17117
# Poissons Ratio (z) = 0.28122 0.14393
#
# Static dielectric constant tensor:
#      x y z
#    x 3.605850 0.000000 0.000000 
#    y 0.000000 3.923720 0.000000 
#    z 0.000000 0.000000 4.348290 
# 
# 
# High freq. dielectric constant tensor:
#      x y z
#    x 1.793330 0.000000 0.000000 
#    y 0.000000 1.819280 0.000000 
#    z 0.000000 0.000000 1.845690 
# 
# From -- ./inp_files/8474.got.cif
#   From: 2010.03.12/outbox.cif.g09.slc.cpg/sg73_5_cif.got.tgz:8474.got - 2010.04.16 15:25:48.
