data_PCOD8296624
_publ_section_title
;
Structure prediction by ZEFSAII (Michael W. Deem and Ramdas Pophale) SiO2 
 PCOD8296624
Probable space group: I B C A 
;
_chemical_formula_sum "Si O2"
_cell_formula_units_Z 112
_cell_length_a 13.134113
_cell_length_b 11.620811
_cell_length_c 33.147083
_cell_angle_alpha 90.000000
_cell_angle_beta 90.000000
_cell_angle_gamma 90.000000
_cell_volume 5059.207617
_symmetry_space_group_name_H-M "I B C A "
_symmetry_group_IT_number 73
_symmetry_cell_setting 'orthorhombic'
loop_
_space_group_symop_operation_xyz
x,y,z
-x,1/2-y,z
x,-y,1/2-z
1/2-x,y,-z
-x,-y,-z
x,1/2+y,-z
-x,y,1/2+z
1/2+x,-y,z
1/2+x,1/2+y,1/2+z
1/2-x,-y,1/2+z
1/2+x,1/2-y,-z
-x,1/2+y,1/2-z
1/2-x,1/2-y,1/2-z
1/2+x,y,1/2-z
1/2-x,1/2+y,z
x,1/2-y,1/2+z
loop_
_atom_site_type_symbol
_atom_site_label
_atom_site_fract_x
_atom_site_fract_y
_atom_site_fract_z
Si Si1 0.508550 0.565863 0.040581
Si Si2 0.380275 0.030549 0.337232
Si Si3 0.762755 0.161837 0.308412
Si Si4 0.019598 0.112993 0.390664
Si Si5 0.324935 0.759846 0.538726
Si Si6 0.601975 0.202560 0.768628
Si Si7 0.264355 0.179162 0.617837
O O1 0.524190 0.467814 0.074175
O O2 0.609779 0.643114 0.036756
O O3 0.403831 0.636500 0.045727
O O4 0.500000 0.500000 0.000000
O O5 0.422892 0.096530 0.298286
O O6 0.343221 0.115424 0.372900
O O7 0.274675 0.967949 0.323954
O O8 0.464741 0.936963 0.350513
O O9 0.829302 0.169209 0.268352
O O10 0.648776 0.195004 0.296211
O O11 0.800259 0.244765 0.344229
O O12 0.141142 0.092606 0.389144
O O13 0.000000 0.250000 0.397552
O O14 0.250000 0.775058 0.500000
O O15 0.252526 0.756538 0.578102
O O16 0.500000 0.250000 0.749174
#
# Coordination Sequence:
#
# PCOD8296624 Si02
#       7
#    16  16  16  16  16  16  16
#     4  11  27  46  73 106 142 186 235 292 365 425
#     4  11  24  44  67 103 137 182 238 288 361 429
#     4  10  23  45  64  99 141 175 236 294 361 431
#     4  12  26  43  71 104 144 186 239 293 357 430
#     4  11  26  49  74 105 143 185 241 295 351 426
#     4  10  24  43  70  98 136 182 234 297 361 432
#     4  11  25  43  71  99 139 189 232 296 355 423
#
# _framework density 22.137854000000001
#
# number of rings (size 3 to 8) (size 9 to 14) (size 15 to 20)
#    0.000    1.143    2.857    1.286   10.000    2.857 
#    0.000    1.429    0.000    0.000    0.000    0.000 
#    0.000    0.000    0.000    0.000    0.000    0.000 
#
# Total GULP energy -694006.212573 kJ/mol
# GULP energy per Si atom -12392.968082 kJ/mol
# Density = 2.208747 g / cm^3
# Si number density = 22.137854 Si / 1000 Ang^3
#
#
#
# Elastic Constant Matrix: (Units=GPa)
#
#
# Indices 1 2 3 4 5 6 
#
# 1 91.9628 31.0200 28.8507 0.0000 0.0000 0.0000
# 2 31.0200 103.5087 40.2777 0.0000 0.0000 0.0000
# 3 28.8507 40.2777 123.4535 0.0000 0.0000 0.0000
# 4 0.0000 0.0000 0.0000 28.8435 0.0000 0.0000
# 5 0.0000 0.0000 0.0000 0.0000 22.8411 0.0000
# 6 0.0000 0.0000 0.0000 0.0000 0.0000 27.9265
#
#
#
# Elastic Compliance Matrix: (Units=1/GPa)
#
#
# Indices 1 2 3 4 5 6 
#
# 1 0.012492 -0.002987 -0.001945 0.000000 0.000000 0.000000
# 2 -0.002987 0.011780 -0.003145 0.000000 0.000000 0.000000
# 3 -0.001945 -0.003145 0.009581 0.000000 0.000000 0.000000
# 4 0.000000 0.000000 0.000000 0.034670 0.000000 0.000000
# 5 0.000000 0.000000 0.000000 0.000000 0.043781 0.000000
# 6 0.000000 0.000000 0.000000 0.000000 0.000000 0.035808
#
#
# Mechanical properties :
#
#
# Convention : Reuss Voigt Hill
#
# Bulk Modulus (GPa) = 56.50126 57.69131 57.09628
# Shear Modulus (GPa) = 29.38327 30.50731 29.94529
#
# Velocity S-wave (km/s) = 3.64715 3.71625 3.68186
# Velocity P-wave (km/s) = 6.58129 6.67313 6.62737
#
# Compressibility (1/GPa) = 0.01769872
#
# Stress axis : x y z
#
# Youngs Moduli (GPa) = 80.05414 84.88940 104.37438
#
# Poissons Ratio (x) = 0.25354 0.20298
# Poissons Ratio (y) = 0.23910 0.32829
# Poissons Ratio (z) = 0.15569 0.26701
#
# Static dielectric constant tensor:
#      x y z
#    x 3.944580 0.000000 0.000000 
#    y 0.000000 4.054800 0.000000 
#    z 0.000000 0.000000 3.968580 
# 
# 
# High freq. dielectric constant tensor:
#      x y z
#    x 1.870560 0.000000 0.000000 
#    y 0.000000 1.871270 0.000000 
#    z 0.000000 0.000000 1.886740 
# 
# From -- ./inp_files/34322.got.cif
#   From: 2010.03.12/outbox.cif.g09.slc.cpg/sg73_18_cif.got.tgz:34322.got - 2010.04.16 15:25:48.
