data_PCOD8296523
_publ_section_title
;
Structure prediction by ZEFSAII (Michael W. Deem and Ramdas Pophale) SiO2 
 PCOD8296523
Probable space group: I B C A 
;
_chemical_formula_sum "Si O2"
_cell_formula_units_Z 112
_cell_length_a 10.775383
_cell_length_b 14.259389
_cell_length_c 33.158482
_cell_angle_alpha 90.000000
_cell_angle_beta 90.000000
_cell_angle_gamma 90.000000
_cell_volume 5094.813287
_symmetry_space_group_name_H-M "I B C A "
_symmetry_group_IT_number 73
_symmetry_cell_setting 'orthorhombic'
loop_
_space_group_symop_operation_xyz
x,y,z
-x,1/2-y,z
x,-y,1/2-z
1/2-x,y,-z
-x,-y,-z
x,1/2+y,-z
-x,y,1/2+z
1/2+x,-y,z
1/2+x,1/2+y,1/2+z
1/2-x,-y,1/2+z
1/2+x,1/2-y,-z
-x,1/2+y,1/2-z
1/2-x,1/2-y,1/2-z
1/2+x,y,1/2-z
1/2-x,1/2+y,z
x,1/2-y,1/2+z
loop_
_atom_site_type_symbol
_atom_site_label
_atom_site_fract_x
_atom_site_fract_y
_atom_site_fract_z
Si Si1 0.587840 0.411039 0.538093
Si Si2 0.864013 0.051459 0.048381
Si Si3 0.112248 0.085928 0.636842
Si Si4 0.332200 0.920964 0.804702
Si Si5 0.802173 0.125670 0.717565
Si Si6 0.500000 0.750000 0.685118
Si Si7 0.000000 0.750000 0.591229
Si Si8 0.074788 0.122934 0.840574
O O1 0.456399 0.461576 0.547677
O O2 0.596953 0.386147 0.490370
O O3 0.714031 0.472148 0.547714
O O4 0.588293 0.314726 0.563473
O O5 0.885416 0.108935 0.089352
O O6 0.248058 0.089997 0.656074
O O7 0.025148 0.161982 0.656824
O O8 0.059389 0.982390 0.643458
O O9 0.263517 0.881656 0.764641
O O10 0.451767 0.857561 0.814218
O O11 0.369662 0.029561 0.796535
O O12 0.887911 0.217220 0.713499
O O13 0.685106 0.142209 0.689629
O O14 0.911072 0.688879 0.620376
#
# Coordination Sequence:
#
# PCOD8296523 Si02
#       8
#    16  16  16  16  16   8   8  16
#     4  10  23  44  74 104 141 183 230 288 349 430
#     4  10  22  45  72 103 141 184 226 284 358 410
#     4  11  24  43  70  98 140 174 226 288 343 409
#     4  10  23  45  68  92 134 186 228 282 342 409
#     4  10  25  42  67  94 136 181 229 285 347 398
#     4  12  26  42  64 108 132 172 232 292 344 408
#     4  12  24  44  72 106 136 182 240 276 344 426
#     4  11  24  43  67  99 131 187 225 285 342 405
#
# _framework density 21.983141
#
# number of rings (size 3 to 8) (size 9 to 14) (size 15 to 20)
#    0.000    1.429    2.857    0.857    6.000    2.857 
#    0.000    5.714    0.000    0.000    0.000    0.000 
#    0.000    0.000    0.000    0.000    0.000    0.000 
#
# Total GULP energy -694061.697236 kJ/mol
# GULP energy per Si atom -12393.958879 kJ/mol
# Density = 2.193311 g / cm^3
# Si number density = 21.983141 Si / 1000 Ang^3
#
#
#
# Elastic Constant Matrix: (Units=GPa)
#
#
# Indices 1 2 3 4 5 6 
#
# 1 109.4958 49.4696 50.2750 0.0000 0.0000 0.0000
# 2 49.4696 104.5459 58.7649 0.0000 0.0000 0.0000
# 3 50.2750 58.7649 177.2218 0.0000 0.0000 0.0000
# 4 0.0000 0.0000 0.0000 41.4218 0.0000 0.0000
# 5 0.0000 0.0000 0.0000 0.0000 7.5448 0.0000
# 6 0.0000 0.0000 0.0000 0.0000 0.0000 28.7531
#
#
#
# Elastic Compliance Matrix: (Units=1/GPa)
#
#
# Indices 1 2 3 4 5 6 
#
# 1 0.012109 -0.004669 -0.001887 0.000000 0.000000 0.000000
# 2 -0.004669 0.013557 -0.003171 0.000000 0.000000 0.000000
# 3 -0.001887 -0.003171 0.007229 0.000000 0.000000 0.000000
# 4 0.000000 0.000000 0.000000 0.024142 0.000000 0.000000
# 5 0.000000 0.000000 0.000000 0.000000 0.132541 0.000000
# 6 0.000000 0.000000 0.000000 0.000000 0.000000 0.034779
#
#
# Mechanical properties :
#
#
# Convention : Reuss Voigt Hill
#
# Bulk Modulus (GPa) = 74.39678 78.69805 76.54741
# Shear Modulus (GPa) = 20.13774 31.06089 25.59931
#
# Velocity S-wave (km/s) = 3.02992 3.76299 3.41618
# Velocity P-wave (km/s) = 6.79387 7.39980 7.10330
#
# Compressibility (1/GPa) = 0.01344144
#
# Stress axis : x y z
#
# Youngs Moduli (GPa) = 82.58638 73.76399 138.32618
#
# Poissons Ratio (x) = 0.34440 0.26099
# Poissons Ratio (y) = 0.38560 0.43860
# Poissons Ratio (z) = 0.15582 0.23389
#
# Static dielectric constant tensor:
#      x y z
#    x 3.911220 0.000000 0.000000 
#    y 0.000000 3.930490 0.000000 
#    z 0.000000 0.000000 4.242070 
# 
# 
# High freq. dielectric constant tensor:
#      x y z
#    x 1.858570 0.000000 0.000000 
#    y 0.000000 1.847170 0.000000 
#    z 0.000000 0.000000 1.885990 
# 
# From -- ./inp_files/34078.got.cif
#   From: 2010.03.12/outbox.cif.g09.slc.cpg/sg73_18_cif.got.tgz:34078.got - 2010.04.16 15:25:48.
