data_PCOD8296603
_publ_section_title
;
Structure prediction by ZEFSAII (Michael W. Deem and Ramdas Pophale) SiO2 
 PCOD8296603
Probable space group: I B C A 
;
_chemical_formula_sum "Si O2"
_cell_formula_units_Z 88
_cell_length_a 18.680973
_cell_length_b 8.772805
_cell_length_c 25.054029
_cell_angle_alpha 90.000000
_cell_angle_beta 90.000000
_cell_angle_gamma 90.000000
_cell_volume 4105.967851
_symmetry_space_group_name_H-M "I B C A "
_symmetry_group_IT_number 73
_symmetry_cell_setting 'orthorhombic'
loop_
_space_group_symop_operation_xyz
x,y,z
-x,1/2-y,z
x,-y,1/2-z
1/2-x,y,-z
-x,-y,-z
x,1/2+y,-z
-x,y,1/2+z
1/2+x,-y,z
1/2+x,1/2+y,1/2+z
1/2-x,-y,1/2+z
1/2+x,1/2-y,-z
-x,1/2+y,1/2-z
1/2-x,1/2-y,1/2-z
1/2+x,y,1/2-z
1/2-x,1/2+y,z
x,1/2-y,1/2+z
loop_
_atom_site_type_symbol
_atom_site_label
_atom_site_fract_x
_atom_site_fract_y
_atom_site_fract_z
Si Si1 0.840826 0.562791 0.601452
Si Si2 0.405804 0.420988 0.305020
Si Si3 0.425373 0.427068 0.805682
Si Si4 0.000000 0.250000 0.006212
Si Si5 0.307810 0.084377 0.608034
Si Si6 0.398315 0.505898 0.017117
O O1 0.899008 0.531430 0.646226
O O2 0.774761 0.453600 0.616268
O O3 0.815449 0.735282 0.606176
O O4 0.877021 0.525640 0.544594
O O5 0.381959 0.500000 0.250000
O O6 0.490005 0.435533 0.313383
O O7 0.389745 0.240625 0.306436
O O8 0.360654 0.508071 0.349664
O O9 0.401407 0.500000 0.750000
O O10 0.047620 0.365596 0.970982
O O11 0.942173 0.347206 0.039964
O O12 0.326517 0.014736 0.550136
#
# Coordination Sequence:
#
# PCOD8296603 Si02
#       6
#    16  16  16   8  16  16
#     4  12  27  43  65  94 133 176 217 266 322 388
#     4  10  23  43  70  99 130 167 214 270 323 381
#     4  10  23  43  70  99 130 167 214 270 323 381
#     4  10  24  42  66 102 126 174 214 270 318 382
#     4  12  27  43  65  94 133 176 217 266 322 388
#     4  11  25  42  68  98 136 168 216 266 326 382
#
# _framework density 21.432217999999999
#
# number of rings (size 3 to 8) (size 9 to 14) (size 15 to 20)
#    0.000    1.091    1.818    2.727   10.182    4.364 
#    0.000    3.636    0.000    0.000    0.000    0.000 
#    0.000    0.000    0.000    0.000    0.000    0.000 
#
# Total GULP energy -545453.432326 kJ/mol
# GULP energy per Si atom -12396.668917 kJ/mol
# Density = 2.138344 g / cm^3
# Si number density = 21.432218 Si / 1000 Ang^3
#
#
#
# Elastic Constant Matrix: (Units=GPa)
#
#
# Indices 1 2 3 4 5 6 
#
# 1 61.0724 41.5877 38.0820 0.0000 0.0000 0.0000
# 2 41.5877 137.2731 47.5464 0.0000 0.0000 0.0000
# 3 38.0820 47.5464 138.4243 0.0000 0.0000 0.0000
# 4 0.0000 0.0000 0.0000 27.6934 0.0000 0.0000
# 5 0.0000 0.0000 0.0000 0.0000 22.5435 0.0000
# 6 0.0000 0.0000 0.0000 0.0000 0.0000 36.9287
#
#
#
# Elastic Compliance Matrix: (Units=1/GPa)
#
#
# Indices 1 2 3 4 5 6 
#
# 1 0.022791 -0.005372 -0.004425 0.000000 0.000000 0.000000
# 2 -0.005372 0.009535 -0.001797 0.000000 0.000000 0.000000
# 3 -0.004425 -0.001797 0.009059 0.000000 0.000000 0.000000
# 4 0.000000 0.000000 0.000000 0.036110 0.000000 0.000000
# 5 0.000000 0.000000 0.000000 0.000000 0.044359 0.000000
# 6 0.000000 0.000000 0.000000 0.000000 0.000000 0.027079
#
#
# Mechanical properties :
#
#
# Convention : Reuss Voigt Hill
#
# Bulk Modulus (GPa) = 54.95536 65.68910 60.32223
# Shear Modulus (GPa) = 28.06055 31.40339 29.73197
#
# Velocity S-wave (km/s) = 3.62231 3.83200 3.72863
# Velocity P-wave (km/s) = 6.57206 7.09191 6.83693
#
# Compressibility (1/GPa) = 0.01819659
#
# Stress axis : x y z
#
# Youngs Moduli (GPa) = 43.87628 104.87991 110.39037
#
# Poissons Ratio (x) = 0.56343 0.48847
# Poissons Ratio (y) = 0.23571 0.19838
# Poissons Ratio (z) = 0.19415 0.18848
#
# Static dielectric constant tensor:
#      x y z
#    x 3.904480 0.000000 0.000000 
#    y 0.000000 4.294670 0.000000 
#    z 0.000000 0.000000 3.767830 
# 
# 
# High freq. dielectric constant tensor:
#      x y z
#    x 1.848090 0.000000 0.000000 
#    y 0.000000 1.865910 0.000000 
#    z 0.000000 0.000000 1.832020 
# 
# From -- ./inp_files/30057.got.cif
#   From: 2010.03.12/outbox.cif.g09.slc.cpg/sg73_16_cif.got.tgz:30057.got - 2010.04.16 15:25:48.
