data_PCOD8296124
_publ_section_title
;
Structure prediction by ZEFSAII (Michael W. Deem and Ramdas Pophale) SiO2 
 PCOD8296124
Probable space group: I B C A 
;
_chemical_formula_sum "Si O2"
_cell_formula_units_Z 56
_cell_length_a 34.178924
_cell_length_b 5.200772
_cell_length_c 14.803824
_cell_angle_alpha 90.000000
_cell_angle_beta 90.000000
_cell_angle_gamma 90.000000
_cell_volume 2631.480248
_symmetry_space_group_name_H-M "I B C A "
_symmetry_group_IT_number 73
_symmetry_cell_setting 'orthorhombic'
loop_
_space_group_symop_operation_xyz
x,y,z
-x,1/2-y,z
x,-y,1/2-z
1/2-x,y,-z
-x,-y,-z
x,1/2+y,-z
-x,y,1/2+z
1/2+x,-y,z
1/2+x,1/2+y,1/2+z
1/2-x,-y,1/2+z
1/2+x,1/2-y,-z
-x,1/2+y,1/2-z
1/2-x,1/2-y,1/2-z
1/2+x,y,1/2-z
1/2-x,1/2+y,z
x,1/2-y,1/2+z
loop_
_atom_site_type_symbol
_atom_site_label
_atom_site_fract_x
_atom_site_fract_y
_atom_site_fract_z
Si Si1 0.233017 0.758536 0.351445
Si Si2 0.500000 0.250000 0.806414
Si Si3 0.155747 0.325898 0.558522
Si Si4 0.931906 0.221603 0.557511
O O1 0.250000 0.750000 0.250000
O O2 0.246611 0.499146 0.401965
O O3 0.185985 0.786640 0.358229
O O4 0.488022 0.500000 0.750000
O O5 0.537447 0.331557 0.864237
O O6 0.162523 0.607787 0.516947
O O7 0.111877 0.303722 0.597960
O O8 0.938692 0.507193 0.519198
#
# Coordination Sequence:
#
# PCOD8296124 Si02
#       4
#    16   8  16  16
#     4  10  21  37  53  81 115 152 193 232 304 351
#     4  12  24  40  60 100 128 156 200 246 300 362
#     4  10  21  37  60  87 112 150 204 247 283 342
#     4  10  21  41  65  88 121 165 203 244 301 357
#
# _framework density 21.280798999999998
#
# number of rings (size 3 to 8) (size 9 to 14) (size 15 to 20)
#    0.000    1.714    0.000    4.286    0.000    3.429 
#   10.286    0.000    0.000    0.000    0.000    0.000 
#    0.000    0.000    0.000    0.000    0.000    0.000 
#
# Total GULP energy -347086.609913 kJ/mol
# GULP energy per Si atom -12395.950354 kJ/mol
# Density = 2.123236 g / cm^3
# Si number density = 21.280799 Si / 1000 Ang^3
#
#
#
# Elastic Constant Matrix: (Units=GPa)
#
#
# Indices 1 2 3 4 5 6 
#
# 1 153.0956 16.5561 50.7201 0.0000 0.0000 0.0000
# 2 16.5561 142.7921 -3.4684 0.0000 0.0000 0.0000
# 3 50.7201 -3.4684 49.7176 0.0000 0.0000 0.0000
# 4 0.0000 0.0000 0.0000 8.7581 0.0000 0.0000
# 5 0.0000 0.0000 0.0000 0.0000 18.5332 0.0000
# 6 0.0000 0.0000 0.0000 0.0000 0.0000 31.3339
#
#
#
# Elastic Compliance Matrix: (Units=1/GPa)
#
#
# Indices 1 2 3 4 5 6 
#
# 1 0.010150 -0.001431 -0.010455 0.000000 0.000000 0.000000
# 2 -0.001431 0.007217 0.001963 0.000000 0.000000 0.000000
# 3 -0.010455 0.001963 0.030916 0.000000 0.000000 0.000000
# 4 0.000000 0.000000 0.000000 0.114180 0.000000 0.000000
# 5 0.000000 0.000000 0.000000 0.000000 0.053957 0.000000
# 6 0.000000 0.000000 0.000000 0.000000 0.000000 0.031914
#
#
# Mechanical properties :
#
#
# Convention : Reuss Voigt Hill
#
# Bulk Modulus (GPa) = 35.16390 52.58011 43.87200
# Shear Modulus (GPa) = 18.00769 30.51154 24.25961
#
# Velocity S-wave (km/s) = 2.91210 3.79061 3.38002
# Velocity P-wave (km/s) = 5.27889 6.62719 5.99109
#
# Compressibility (1/GPa) = 0.02843826
#
# Stress axis : x y z
#
# Youngs Moduli (GPa) = 98.52012 138.56613 32.34566
#
# Poissons Ratio (x) = 0.19826 0.33816
# Poissons Ratio (y) = 0.14096 -0.06350
# Poissons Ratio (z) = 1.03000 -0.27202
#
# Static dielectric constant tensor:
#      x y z
#    x 4.100510 0.000000 0.000000 
#    y 0.000000 8.176000 0.000000 
#    z 0.000000 0.000000 3.314660 
# 
# 
# High freq. dielectric constant tensor:
#      x y z
#    x 1.850050 0.000000 0.000000 
#    y 0.000000 1.872560 0.000000 
#    z 0.000000 0.000000 1.789130 
# 
# From -- ./inp_files/682.got.cif
#   From: 2010.03.12/outbox.cif.g09.slc.cpg/sg73_1_cif.got.tgz:682.got - 2010.04.16 15:25:48.
