data_PCOD8296269
_publ_section_title
;
Structure prediction by ZEFSAII (Michael W. Deem and Ramdas Pophale) SiO2 
 PCOD8296269
Probable space group: I B C A 
;
_chemical_formula_sum "Si O2"
_cell_formula_units_Z 112
_cell_length_a 14.790969
_cell_length_b 24.265872
_cell_length_c 13.575793
_cell_angle_alpha 90.000000
_cell_angle_beta 90.000000
_cell_angle_gamma 90.000000
_cell_volume 4872.566069
_symmetry_space_group_name_H-M "I B C A "
_symmetry_group_IT_number 73
_symmetry_cell_setting 'orthorhombic'
loop_
_space_group_symop_operation_xyz
x,y,z
-x,1/2-y,z
x,-y,1/2-z
1/2-x,y,-z
-x,-y,-z
x,1/2+y,-z
-x,y,1/2+z
1/2+x,-y,z
1/2+x,1/2+y,1/2+z
1/2-x,-y,1/2+z
1/2+x,1/2-y,-z
-x,1/2+y,1/2-z
1/2-x,1/2-y,1/2-z
1/2+x,y,1/2-z
1/2-x,1/2+y,z
x,1/2-y,1/2+z
loop_
_atom_site_type_symbol
_atom_site_label
_atom_site_fract_x
_atom_site_fract_y
_atom_site_fract_z
Si Si1 0.192640 0.233694 0.900754
Si Si2 0.000000 0.250000 0.485607
Si Si3 0.574504 0.149948 0.406641
Si Si4 0.685837 0.093667 0.080558
Si Si5 0.750000 0.896739 0.000000
Si Si6 0.455467 0.447256 0.953334
Si Si7 0.708798 0.172275 0.250241
Si Si8 0.286762 0.504214 0.864069
O O1 0.214482 0.177100 0.837860
O O2 0.228842 0.281198 0.829491
O O3 0.250000 0.236238 0.000000
O O4 0.088021 0.247715 0.916904
O O5 0.996135 0.194912 0.551900
O O6 0.662732 0.142361 0.477997
O O7 0.526556 0.090566 0.393041
O O8 0.610291 0.173857 0.302731
O O9 0.707153 0.115471 0.189705
O O10 0.706544 0.028306 0.081183
O O11 0.750000 0.124290 0.000000
O O12 0.583098 0.093944 0.039658
O O13 0.720352 0.933679 0.905753
O O14 0.379578 0.470343 0.880390
O O15 0.500000 0.500000 0.000000
O O16 0.267227 0.500000 0.750000
#
# Coordination Sequence:
#
# PCOD8296269 Si02
#       8
#    16   8  16  16   8  16  16  16
#     4  11  24  50  73 101 149 194 256 320 384 456
#     4  12  26  48  72 108 148 192 248 322 386 454
#     4  12  25  43  72 105 142 194 243 306 374 452
#     4  10  21  42  67 106 144 188 242 297 376 435
#     4  12  22  48  74  96 150 190 246 304 370 444
#     4  11  22  43  68 103 155 194 241 309 373 438
#     4  11  24  44  73 105 138 201 251 310 381 459
#     4  11  22  41  70 106 137 191 241 293 362 447
#
# _framework density 22.985834000000001
#
# number of rings (size 3 to 8) (size 9 to 14) (size 15 to 20)
#    0.000    0.857    5.000    3.000    0.000    2.857 
#    7.714    0.714    0.000    0.000    0.000    0.000 
#    0.000    0.000    0.000    0.000    0.000    0.000 
#
# Total GULP energy -693819.058385 kJ/mol
# GULP energy per Si atom -12389.626043 kJ/mol
# Density = 2.293352 g / cm^3
# Si number density = 22.985834 Si / 1000 Ang^3
#
#
#
# Elastic Constant Matrix: (Units=GPa)
#
#
# Indices 1 2 3 4 5 6 
#
# 1 121.5253 33.8973 44.7263 -0.0001 0.0000 0.0000
# 2 33.8973 111.3911 36.9876 0.0003 0.0000 0.0000
# 3 44.7263 36.9876 144.4692 0.0010 0.0000 0.0001
# 4 -0.0001 0.0003 0.0010 29.0342 0.0000 0.0001
# 5 0.0000 0.0000 0.0000 0.0000 26.8395 0.0000
# 6 0.0000 0.0000 0.0001 0.0001 0.0000 44.1808
#
#
#
# Elastic Compliance Matrix: (Units=1/GPa)
#
#
# Indices 1 2 3 4 5 6 
#
# 1 0.009734 -0.002144 -0.002465 0.000000 0.000000 0.000000
# 2 -0.002144 0.010284 -0.001969 0.000000 0.000000 0.000000
# 3 -0.002465 -0.001969 0.008189 0.000000 0.000000 0.000000
# 4 0.000000 0.000000 0.000000 0.034442 0.000000 0.000000
# 5 0.000000 0.000000 0.000000 0.000000 0.037259 0.000000
# 6 0.000000 0.000000 0.000000 0.000000 0.000000 0.022634
#
#
# Mechanical properties :
#
#
# Convention : Reuss Voigt Hill
#
# Bulk Modulus (GPa) = 66.43893 67.62310 67.03102
# Shear Modulus (GPa) = 35.53317 37.46251 36.49784
#
# Velocity S-wave (km/s) = 3.93602 4.04147 3.98909
# Velocity P-wave (km/s) = 7.04439 7.15970 7.10228
#
# Compressibility (1/GPa) = 0.01505142
#
# Stress axis : x y z
#
# Youngs Moduli (GPa) = 102.73502 97.24234 122.11381
#
# Poissons Ratio (x) = 0.20846 0.30097
# Poissons Ratio (y) = 0.22023 0.24046
# Poissons Ratio (z) = 0.25321 0.19149
#
# Static dielectric constant tensor:
#      x y z
#    x 4.237550 0.000000 0.000000 
#    y 0.000000 4.353260 0.000000 
#    z 0.000000 0.000000 4.108300 
# 
# 
# High freq. dielectric constant tensor:
#      x y z
#    x 1.894520 0.000000 0.000000 
#    y 0.000000 1.923670 0.000000 
#    z 0.000000 0.000000 1.916260 
# 
# From -- ./inp_files/17411.got.cif
#   From: 2010.03.12/outbox.cif.g09.slc.cpg/sg73_9_cif.got.tgz:17411.got - 2010.04.16 15:25:48.
