data_PCOD8296809
_publ_section_title
;
Structure prediction by ZEFSAII (Michael W. Deem and Ramdas Pophale) SiO2 
 PCOD8296809
Probable space group: I B C A 
;
_chemical_formula_sum "Si O2"
_cell_formula_units_Z 104
_cell_length_a 19.924704
_cell_length_b 8.716458
_cell_length_c 28.695185
_cell_angle_alpha 90.000000
_cell_angle_beta 90.000000
_cell_angle_gamma 90.000000
_cell_volume 4983.574433
_symmetry_space_group_name_H-M "I B C A "
_symmetry_group_IT_number 73
_symmetry_cell_setting 'orthorhombic'
loop_
_space_group_symop_operation_xyz
x,y,z
-x,1/2-y,z
x,-y,1/2-z
1/2-x,y,-z
-x,-y,-z
x,1/2+y,-z
-x,y,1/2+z
1/2+x,-y,z
1/2+x,1/2+y,1/2+z
1/2-x,-y,1/2+z
1/2+x,1/2-y,-z
-x,1/2+y,1/2-z
1/2-x,1/2-y,1/2-z
1/2+x,y,1/2-z
1/2-x,1/2+y,z
x,1/2-y,1/2+z
loop_
_atom_site_type_symbol
_atom_site_label
_atom_site_fract_x
_atom_site_fract_y
_atom_site_fract_z
Si Si1 0.386049 0.961590 0.299444
Si Si2 0.225375 0.235981 0.304171
Si Si3 0.879403 0.068629 0.857696
Si Si4 0.677956 0.707796 0.951088
Si Si5 0.000000 0.250000 0.820427
Si Si6 0.825820 0.074803 0.045101
Si Si7 0.860599 0.220643 0.138429
O O1 0.321705 0.876510 0.322234
O O2 0.451523 0.857625 0.289908
O O3 0.355357 0.000000 0.250000
O O4 0.405641 0.112062 0.328507
O O5 0.250000 0.250000 0.250000
O O6 0.174506 0.092110 0.314728
O O7 0.285941 0.225935 0.340190
O O8 0.855777 0.146917 0.904823
O O9 0.952431 0.141326 0.850589
O O10 0.891578 0.888602 0.863752
O O11 0.752992 0.647605 0.950896
O O12 0.676018 0.891459 0.953210
O O13 0.641300 0.634480 0.996598
O O14 0.867064 0.143571 0.088019
#
# Coordination Sequence:
#
# PCOD8296809 Si02
#       7
#    16  16  16  16   8  16  16
#     4  11  24  43  63  90 126 173 219 274 316 389
#     4  11  22  40  62  94 131 163 205 263 334 386
#     4  11  24  41  65  90 129 171 209 269 313 388
#     4  11  21  37  60  93 131 168 201 258 327 385
#     4  10  26  46  60  84 124 176 228 260 314 370
#     4  11  21  35  60  95 131 160 203 258 327 404
#     4  12  23  37  66  98 127 164 210 267 336 386
#
# _framework density 20.868556000000002
#
# number of rings (size 3 to 8) (size 9 to 14) (size 15 to 20)
#    0.000    0.923    3.077    6.462    0.000    1.846 
#    0.000    0.000    0.000    8.308    0.000    0.000 
#    0.000    0.000    0.000    0.000    0.000    0.000 
#
# Total GULP energy -644322.606814 kJ/mol
# GULP energy per Si atom -12390.819362 kJ/mol
# Density = 2.082106 g / cm^3
# Si number density = 20.868556 Si / 1000 Ang^3
#
#
#
# Elastic Constant Matrix: (Units=GPa)
#
#
# Indices 1 2 3 4 5 6 
#
# 1 72.4936 23.2667 8.9627 0.0000 0.0000 0.0000
# 2 23.2667 183.9361 45.2707 0.0000 0.0000 0.0000
# 3 8.9627 45.2707 118.8979 0.0000 0.0000 0.0000
# 4 0.0000 0.0000 0.0000 40.0212 0.0000 0.0000
# 5 0.0000 0.0000 0.0000 0.0000 9.2657 0.0000
# 6 0.0000 0.0000 0.0000 0.0000 0.0000 20.7947
#
#
#
# Elastic Compliance Matrix: (Units=1/GPa)
#
#
# Indices 1 2 3 4 5 6 
#
# 1 0.014398 -0.001715 -0.000432 0.000000 0.000000 0.000000
# 2 -0.001715 0.006203 -0.002233 0.000000 0.000000 0.000000
# 3 -0.000432 -0.002233 0.009293 0.000000 0.000000 0.000000
# 4 0.000000 0.000000 0.000000 0.024987 0.000000 0.000000
# 5 0.000000 0.000000 0.000000 0.000000 0.107924 0.000000
# 6 0.000000 0.000000 0.000000 0.000000 0.000000 0.048089
#
#
# Mechanical properties :
#
#
# Convention : Reuss Voigt Hill
#
# Bulk Modulus (GPa) = 47.31534 58.92530 53.12032
# Shear Modulus (GPa) = 22.05563 33.87149 27.96356
#
# Velocity S-wave (km/s) = 3.25450 4.03313 3.66455
# Velocity P-wave (km/s) = 6.06998 7.07007 6.58902
#
# Compressibility (1/GPa) = 0.02113479
#
# Stress axis : x y z
#
# Youngs Moduli (GPa) = 69.45331 161.21044 107.60519
#
# Poissons Ratio (x) = 0.27645 0.04653
# Poissons Ratio (y) = 0.11910 0.24024
# Poissons Ratio (z) = 0.03003 0.35991
#
# Static dielectric constant tensor:
#      x y z
#    x 3.474150 0.000000 0.000000 
#    y 0.000000 4.228320 0.000000 
#    z 0.000000 0.000000 4.696190 
# 
# 
# High freq. dielectric constant tensor:
#      x y z
#    x 1.779150 0.000000 0.000000 
#    y 0.000000 1.842040 0.000000 
#    z 0.000000 0.000000 1.826020 
# 
# From -- ./inp_files/34683.got.cif
#   From: 2010.03.12/outbox.cif.g09.slc.cpg/sg73_18_cif.got.tgz:34683.got - 2010.04.16 15:25:48.
