data_PCOD8296571
_publ_section_title
;
Structure prediction by ZEFSAII (Michael W. Deem and Ramdas Pophale) SiO2 
 PCOD8296571
Probable space group: I B C A 
;
_chemical_formula_sum "Si O2"
_cell_formula_units_Z 88
_cell_length_a 12.925562
_cell_length_b 19.104844
_cell_length_c 17.342605
_cell_angle_alpha 90.000000
_cell_angle_beta 90.000000
_cell_angle_gamma 90.000000
_cell_volume 4282.597544
_symmetry_space_group_name_H-M "I B C A "
_symmetry_group_IT_number 73
_symmetry_cell_setting 'orthorhombic'
loop_
_space_group_symop_operation_xyz
x,y,z
-x,1/2-y,z
x,-y,1/2-z
1/2-x,y,-z
-x,-y,-z
x,1/2+y,-z
-x,y,1/2+z
1/2+x,-y,z
1/2+x,1/2+y,1/2+z
1/2-x,-y,1/2+z
1/2+x,1/2-y,-z
-x,1/2+y,1/2-z
1/2-x,1/2-y,1/2-z
1/2+x,y,1/2-z
1/2-x,1/2+y,z
x,1/2-y,1/2+z
loop_
_atom_site_type_symbol
_atom_site_label
_atom_site_fract_x
_atom_site_fract_y
_atom_site_fract_z
Si Si1 0.694842 0.022308 0.922121
Si Si2 0.500000 0.750000 0.994575
Si Si3 0.790949 0.257979 0.422108
Si Si4 0.981915 0.881809 0.393164
Si Si5 0.716476 0.383114 0.866392
Si Si6 0.713892 0.133475 0.807002
O O1 0.574587 0.048283 0.928110
O O2 0.748966 0.061809 0.849677
O O3 0.709760 0.939825 0.907824
O O4 0.750000 0.045499 0.000000
O O5 0.516434 0.680974 0.045662
O O6 0.408786 0.737534 0.933990
O O7 0.750000 0.297037 0.500000
O O8 0.722188 0.188105 0.414351
O O9 0.777780 0.303737 0.345756
O O10 0.910284 0.855420 0.321103
O O11 0.095713 0.905238 0.365196
O O12 0.760403 0.369847 0.781854
#
# Coordination Sequence:
#
# PCOD8296571 Si02
#       6
#    16   8  16  16  16  16
#     4  10  23  45  66  97 134 176 227 277 342 406
#     4  12  22  42  72 104 126 178 228 286 342 406
#     4  12  22  41  69  99 133 170 229 281 335 410
#     4  10  23  41  70  93 136 177 222 281 344 398
#     4  12  24  43  67 101 138 173 229 285 337 416
#     4  10  23  45  63  97 136 178 218 277 344 403
#
# _framework density 20.548276000000001
#
# number of rings (size 3 to 8) (size 9 to 14) (size 15 to 20)
#    1.091    0.000    3.636    3.273    0.000    2.182 
#    9.818    0.000    0.000    0.000    0.000    0.000 
#    0.000    0.000    0.000    0.000    0.000    0.000 
#
# Total GULP energy -545260.510028 kJ/mol
# GULP energy per Si atom -12392.284319 kJ/mol
# Density = 2.050151 g / cm^3
# Si number density = 20.548276 Si / 1000 Ang^3
#
#
#
# Elastic Constant Matrix: (Units=GPa)
#
#
# Indices 1 2 3 4 5 6 
#
# 1 129.8044 14.6593 31.7853 0.0000 0.0000 0.0000
# 2 14.6593 88.8059 8.1320 0.0000 0.0000 0.0000
# 3 31.7853 8.1320 59.1139 0.0000 0.0000 0.0000
# 4 0.0000 0.0000 0.0000 23.6180 0.0000 0.0000
# 5 0.0000 0.0000 0.0000 0.0000 33.5160 0.0000
# 6 0.0000 0.0000 0.0000 0.0000 0.0000 36.0067
#
#
#
# Elastic Compliance Matrix: (Units=1/GPa)
#
#
# Indices 1 2 3 4 5 6 
#
# 1 0.008968 -0.001052 -0.004677 0.000000 0.000000 0.000000
# 2 -0.001052 0.011528 -0.001020 0.000000 0.000000 0.000000
# 3 -0.004677 -0.001020 0.019572 0.000000 0.000000 0.000000
# 4 0.000000 0.000000 0.000000 0.042341 0.000000 0.000000
# 5 0.000000 0.000000 0.000000 0.000000 0.029837 0.000000
# 6 0.000000 0.000000 0.000000 0.000000 0.000000 0.027773
#
#
# Mechanical properties :
#
#
# Convention : Reuss Voigt Hill
#
# Bulk Modulus (GPa) = 37.63866 42.98637 40.31252
# Shear Modulus (GPa) = 30.79340 33.50463 32.14902
#
# Velocity S-wave (km/s) = 3.87536 4.04237 3.95974
# Velocity P-wave (km/s) = 6.19528 6.53856 6.36923
#
# Compressibility (1/GPa) = 0.02656842
#
# Stress axis : x y z
#
# Youngs Moduli (GPa) = 111.50686 86.74835 51.09385
#
# Poissons Ratio (x) = 0.09126 0.23898
# Poissons Ratio (y) = 0.11731 0.05212
# Poissons Ratio (z) = 0.52156 0.08849
#
# Static dielectric constant tensor:
#      x y z
#    x 3.796620 0.000000 0.000000 
#    y 0.000000 3.678810 0.000000 
#    z 0.000000 0.000000 3.476330 
# 
# 
# High freq. dielectric constant tensor:
#      x y z
#    x 1.801430 0.000000 0.000000 
#    y 0.000000 1.804250 0.000000 
#    z 0.000000 0.000000 1.797960 
# 
# From -- ./inp_files/21928.got.cif
#   From: 2010.03.12/outbox.cif.g09.slc.cpg/sg73_11_cif.got.tgz:21928.got - 2010.04.16 15:25:48.
