data_PCOD8296954
_publ_section_title
;
Structure prediction by ZEFSAII (Michael W. Deem and Ramdas Pophale) SiO2 
 PCOD8296954
Probable space group: I B C A 
;
_chemical_formula_sum "Si O2"
_cell_formula_units_Z 104
_cell_length_a 8.981026
_cell_length_b 20.897667
_cell_length_c 24.935533
_cell_angle_alpha 90.000000
_cell_angle_beta 90.000000
_cell_angle_gamma 90.000000
_cell_volume 4679.962940
_symmetry_space_group_name_H-M "I B C A "
_symmetry_group_IT_number 73
_symmetry_cell_setting 'orthorhombic'
loop_
_space_group_symop_operation_xyz
x,y,z
-x,1/2-y,z
x,-y,1/2-z
1/2-x,y,-z
-x,-y,-z
x,1/2+y,-z
-x,y,1/2+z
1/2+x,-y,z
1/2+x,1/2+y,1/2+z
1/2-x,-y,1/2+z
1/2+x,1/2-y,-z
-x,1/2+y,1/2-z
1/2-x,1/2-y,1/2-z
1/2+x,y,1/2-z
1/2-x,1/2+y,z
x,1/2-y,1/2+z
loop_
_atom_site_type_symbol
_atom_site_label
_atom_site_fract_x
_atom_site_fract_y
_atom_site_fract_z
Si Si1 0.209176 0.502442 0.370219
Si Si2 0.346250 0.718723 0.592217
Si Si3 0.270005 0.107779 0.788562
Si Si4 0.601668 0.121064 0.817480
Si Si5 0.026998 0.573868 0.577301
Si Si6 0.250000 0.123820 0.500000
Si Si7 0.602112 0.805890 0.867541
O O1 0.231985 0.458714 0.317815
O O2 0.098250 0.560944 0.357734
O O3 0.367809 0.531592 0.384968
O O4 0.133900 0.462111 0.419751
O O5 0.500000 0.750000 0.573484
O O6 0.361183 0.686080 0.650656
O O7 0.302699 0.665159 0.549722
O O8 0.226046 0.775876 0.592795
O O9 0.442205 0.126321 0.789885
O O10 0.227637 0.105935 0.726370
O O11 0.177975 0.163672 0.816279
O O12 0.108431 0.580087 0.519267
O O13 0.003106 0.645391 0.599825
O O14 0.500000 0.750000 0.844284
#
# Coordination Sequence:
#
# PCOD8296954 Si02
#       7
#    16  16  16  16  16   8  16
#     4  11  23  47  69 101 149 183 237 298 358 424
#     4  12  27  47  72 103 147 185 241 304 356 424
#     4  11  27  40  73 103 141 192 235 283 370 429
#     4  12  25  45  67 107 143 190 235 294 354 438
#     4  11  25  44  75 105 140 189 238 304 356 424
#     4  12  26  46  76 106 136 194 250 300 364 426
#     4  11  23  47  68 101 141 185 235 293 357 429
#
# _framework density 22.222397999999998
#
# number of rings (size 3 to 8) (size 9 to 14) (size 15 to 20)
#    0.000    0.615    6.154    0.462    8.615    3.077 
#    0.000    0.000    0.000    0.000    0.000    0.000 
#    0.000    0.000    0.000    0.000    0.000    0.000 
#
# Total GULP energy -644842.342545 kJ/mol
# GULP energy per Si atom -12400.814280 kJ/mol
# Density = 2.217182 g / cm^3
# Si number density = 22.222398 Si / 1000 Ang^3
#
#
#
# Elastic Constant Matrix: (Units=GPa)
#
#
# Indices 1 2 3 4 5 6 
#
# 1 113.9119 44.6640 26.9136 0.0000 0.0000 0.0000
# 2 44.6640 105.4688 25.8532 0.0000 0.0000 0.0000
# 3 26.9136 25.8532 77.1930 0.0000 0.0000 0.0000
# 4 0.0000 0.0000 0.0000 13.9932 0.0000 0.0000
# 5 0.0000 0.0000 0.0000 0.0000 36.6114 0.0000
# 6 0.0000 0.0000 0.0000 0.0000 0.0000 49.7398
#
#
#
# Elastic Compliance Matrix: (Units=1/GPa)
#
#
# Indices 1 2 3 4 5 6 
#
# 1 0.010941 -0.004029 -0.002465 0.000000 0.000000 0.000000
# 2 -0.004029 0.011813 -0.002552 0.000000 0.000000 0.000000
# 3 -0.002465 -0.002552 0.014669 0.000000 0.000000 0.000000
# 4 0.000000 0.000000 0.000000 0.071464 0.000000 0.000000
# 5 0.000000 0.000000 0.000000 0.000000 0.027314 0.000000
# 6 0.000000 0.000000 0.000000 0.000000 0.000000 0.020105
#
#
# Mechanical properties :
#
#
# Convention : Reuss Voigt Hill
#
# Bulk Modulus (GPa) = 51.73058 54.60394 53.16726
# Shear Modulus (GPa) = 27.64872 33.34505 30.49689
#
# Velocity S-wave (km/s) = 3.53112 3.87785 3.70854
# Velocity P-wave (km/s) = 6.32094 6.68395 6.50498
#
# Compressibility (1/GPa) = 0.01933093
#
# Stress axis : x y z
#
# Youngs Moduli (GPa) = 91.40026 84.65142 68.17256
#
# Poissons Ratio (x) = 0.34106 0.16806
# Poissons Ratio (y) = 0.36825 0.17396
# Poissons Ratio (z) = 0.22532 0.21601
#
# Static dielectric constant tensor:
#      x y z
#    x 4.195080 0.000000 0.000000 
#    y 0.000000 4.236660 0.000000 
#    z 0.000000 0.000000 3.713060 
# 
# 
# High freq. dielectric constant tensor:
#      x y z
#    x 1.892020 0.000000 0.000000 
#    y 0.000000 1.892050 0.000000 
#    z 0.000000 0.000000 1.849020 
# 
# From -- ./inp_files/31253.got.cif
#   From: 2010.03.12/outbox.cif.g09.slc.cpg/sg73_16_cif.got.tgz:31253.got - 2010.04.16 15:25:48.
