data_PCOD8296263
_publ_section_title
;
Structure prediction by ZEFSAII (Michael W. Deem and Ramdas Pophale) SiO2 
 PCOD8296263
Probable space group: I B C A 
;
_chemical_formula_sum "Si O2"
_cell_formula_units_Z 96
_cell_length_a 20.426191
_cell_length_b 21.933315
_cell_length_c 8.950615
_cell_angle_alpha 90.000000
_cell_angle_beta 90.000000
_cell_angle_gamma 90.000000
_cell_volume 4010.001558
_symmetry_space_group_name_H-M "I B C A "
_symmetry_group_IT_number 73
_symmetry_cell_setting 'orthorhombic'
loop_
_space_group_symop_operation_xyz
x,y,z
-x,1/2-y,z
x,-y,1/2-z
1/2-x,y,-z
-x,-y,-z
x,1/2+y,-z
-x,y,1/2+z
1/2+x,-y,z
1/2+x,1/2+y,1/2+z
1/2-x,-y,1/2+z
1/2+x,1/2-y,-z
-x,1/2+y,1/2-z
1/2-x,1/2-y,1/2-z
1/2+x,y,1/2-z
1/2-x,1/2+y,z
x,1/2-y,1/2+z
loop_
_atom_site_type_symbol
_atom_site_label
_atom_site_fract_x
_atom_site_fract_y
_atom_site_fract_z
Si Si1 0.862293 0.773064 0.842545
Si Si2 0.581535 0.893930 0.200865
Si Si3 0.036583 0.628824 0.131130
Si Si4 0.174802 0.500000 0.750000
Si Si5 0.750000 0.833349 0.000000
Si Si6 0.250000 0.572333 0.500000
Si Si7 0.327252 0.858862 0.236449
Si Si8 0.500000 0.750000 0.704808
O O1 0.874824 0.834922 0.743071
O O2 0.814271 0.791601 0.976242
O O3 0.830869 0.715182 0.759842
O O4 0.935412 0.755137 0.900788
O O5 0.524336 0.914303 0.317261
O O6 0.629459 0.949666 0.171412
O O7 0.546277 0.874745 0.045619
O O8 0.104068 0.610996 0.215699
O O9 0.010432 0.694213 0.182854
O O10 0.218452 0.528967 0.621981
O O11 0.730393 0.874825 0.857055
O O12 0.194445 0.614847 0.423653
#
# Coordination Sequence:
#
# PCOD8296263 Si02
#       8
#    16  16  16   8   8   8  16   8
#     4  10  21  41  71 110 153 192 249 311 391 464
#     4  11  25  49  74 110 150 201 257 320 379 452
#     4  10  23  44  76 107 152 193 252 319 384 457
#     4  12  32  54  78 108 148 206 262 320 372 466
#     4  12  21  39  70 108 152 199 235 312 378 474
#     4  12  31  53  78 104 152 199 257 312 398 458
#     4  11  25  46  74 114 146 201 248 322 394 469
#     4   8  20  40  64 112 150 202 238 312 396 462
#
# _framework density 23.940142000000002
#
# number of rings (size 3 to 8) (size 9 to 14) (size 15 to 20)
#    0.000    1.333    1.667    2.000    4.667    6.667 
#    6.000    0.000    0.000    0.000    0.000    0.000 
#    0.000    0.000    0.000    0.000    0.000    0.000 
#
# Total GULP energy -594666.386637 kJ/mol
# GULP energy per Si atom -12388.883055 kJ/mol
# Density = 2.388565 g / cm^3
# Si number density = 23.940142 Si / 1000 Ang^3
#
#
#
# Elastic Constant Matrix: (Units=GPa)
#
#
# Indices 1 2 3 4 5 6 
#
# 1 147.8572 48.7576 56.0361 0.0000 0.0000 0.0000
# 2 48.7576 92.4375 34.3141 0.0000 0.0000 0.0000
# 3 56.0361 34.3141 115.4799 0.0000 0.0000 0.0000
# 4 0.0000 0.0000 0.0000 27.5442 0.0000 0.0000
# 5 0.0000 0.0000 0.0000 0.0000 46.6901 0.0000
# 6 0.0000 0.0000 0.0000 0.0000 0.0000 32.1108
#
#
#
# Elastic Compliance Matrix: (Units=1/GPa)
#
#
# Indices 1 2 3 4 5 6 
#
# 1 0.009248 -0.003610 -0.003415 0.000000 0.000000 0.000000
# 2 -0.003610 0.013569 -0.002280 0.000000 0.000000 0.000000
# 3 -0.003415 -0.002280 0.010994 0.000000 0.000000 0.000000
# 4 0.000000 0.000000 0.000000 0.036305 0.000000 0.000000
# 5 0.000000 0.000000 0.000000 0.000000 0.021418 0.000000
# 6 0.000000 0.000000 0.000000 0.000000 0.000000 0.031142
#
#
# Mechanical properties :
#
#
# Convention : Reuss Voigt Hill
#
# Bulk Modulus (GPa) = 65.78684 70.44335 68.11509
# Shear Modulus (GPa) = 34.16395 35.71349 34.93872
#
# Velocity S-wave (km/s) = 3.78174 3.86655 3.82438
# Velocity P-wave (km/s) = 6.82701 7.03010 6.92930
#
# Compressibility (1/GPa) = 0.01520061
#
# Stress axis : x y z
#
# Youngs Moduli (GPa) = 108.13142 73.69828 90.95890
#
# Poissons Ratio (x) = 0.26608 0.31060
# Poissons Ratio (y) = 0.39040 0.20738
# Poissons Ratio (z) = 0.36924 0.16803
#
# Static dielectric constant tensor:
#      x y z
#    x 4.908590 0.000000 0.000000 
#    y 0.000000 4.228860 0.000000 
#    z 0.000000 0.000000 4.072240 
# 
# 
# High freq. dielectric constant tensor:
#      x y z
#    x 1.979480 0.000000 0.000000 
#    y 0.000000 1.923710 0.000000 
#    z 0.000000 0.000000 1.931900 
# 
# From -- ./inp_files/6531.got.cif
#   From: 2010.03.12/outbox.cif.g09.slc.cpg/sg73_4_cif.got.tgz:6531.got - 2010.04.16 15:25:48.
