data_PCOD8296656
_publ_section_title
;
Structure prediction by ZEFSAII (Michael W. Deem and Ramdas Pophale) SiO2 
 PCOD8296656
Probable space group: I B C A 
;
_chemical_formula_sum "Si O2"
_cell_formula_units_Z 88
_cell_length_a 18.837211
_cell_length_b 25.169261
_cell_length_c 9.093831
_cell_angle_alpha 90.000000
_cell_angle_beta 90.000000
_cell_angle_gamma 90.000000
_cell_volume 4311.555151
_symmetry_space_group_name_H-M "I B C A "
_symmetry_group_IT_number 73
_symmetry_cell_setting 'orthorhombic'
loop_
_space_group_symop_operation_xyz
x,y,z
-x,1/2-y,z
x,-y,1/2-z
1/2-x,y,-z
-x,-y,-z
x,1/2+y,-z
-x,y,1/2+z
1/2+x,-y,z
1/2+x,1/2+y,1/2+z
1/2-x,-y,1/2+z
1/2+x,1/2-y,-z
-x,1/2+y,1/2-z
1/2-x,1/2-y,1/2-z
1/2+x,y,1/2-z
1/2-x,1/2+y,z
x,1/2-y,1/2+z
loop_
_atom_site_type_symbol
_atom_site_label
_atom_site_fract_x
_atom_site_fract_y
_atom_site_fract_z
Si Si1 0.411402 0.846318 0.701795
Si Si2 0.841870 0.448594 0.835591
Si Si3 0.152691 0.768759 0.752496
Si Si4 0.818451 0.053218 0.675055
Si Si5 0.945076 0.647332 0.637755
Si Si6 0.250000 0.244592 0.500000
O O1 0.367698 0.793109 0.737202
O O2 0.359306 0.895065 0.728056
O O3 0.441284 0.843946 0.536520
O O4 0.473480 0.857734 0.817860
O O5 0.871710 0.500000 0.750000
O O6 0.762945 0.434783 0.778196
O O7 0.898117 0.402006 0.807067
O O8 0.832917 0.459460 0.006405
O O9 0.081759 0.801505 0.727732
O O10 0.193518 0.788482 0.901013
O O11 0.205281 0.780623 0.614595
O O12 0.847563 0.000000 0.750000
#
# Coordination Sequence:
#
# PCOD8296656 Si02
#       6
#    16  16  16  16  16   8
#     4  11  25  41  61  87 127 166 200 249 303 361
#     4   9  20  40  63  88 116 153 200 254 305 354
#     4  11  23  42  62  94 126 156 204 248 308 354
#     4   9  20  40  63  88 116 153 200 254 305 354
#     4  11  25  41  61  87 127 166 200 249 303 361
#     4  10  24  38  66  94 118 162 200 256 296 364
#
# _framework density 20.410269
#
# number of rings (size 3 to 8) (size 9 to 14) (size 15 to 20)
#    0.000    1.818    1.818    0.545    7.636    3.636 
#    0.000    3.636    0.000    0.000    0.000    0.000 
#    0.000    0.000    0.000    0.000    0.000    0.000 
#
# Total GULP energy -545468.121477 kJ/mol
# GULP energy per Si atom -12397.002761 kJ/mol
# Density = 2.036381 g / cm^3
# Si number density = 20.410269 Si / 1000 Ang^3
#
#
#
# Elastic Constant Matrix: (Units=GPa)
#
#
# Indices 1 2 3 4 5 6 
#
# 1 100.9763 55.4706 41.2110 0.0000 0.0000 0.0000
# 2 55.4706 141.4620 40.1676 0.0000 0.0000 0.0000
# 3 41.2110 40.1676 79.9787 0.0000 0.0000 0.0000
# 4 0.0000 0.0000 0.0000 26.2516 0.0000 0.0000
# 5 0.0000 0.0000 0.0000 0.0000 37.8892 0.0000
# 6 0.0000 0.0000 0.0000 0.0000 0.0000 21.9953
#
#
#
# Elastic Compliance Matrix: (Units=1/GPa)
#
#
# Indices 1 2 3 4 5 6 
#
# 1 0.014332 -0.004109 -0.005321 0.000000 0.000000 0.000000
# 2 -0.004109 0.009423 -0.002615 0.000000 0.000000 0.000000
# 3 -0.005321 -0.002615 0.016559 0.000000 0.000000 0.000000
# 4 0.000000 0.000000 0.000000 0.038093 0.000000 0.000000
# 5 0.000000 0.000000 0.000000 0.000000 0.026393 0.000000
# 6 0.000000 0.000000 0.000000 0.000000 0.000000 0.045464
#
#
# Mechanical properties :
#
#
# Convention : Reuss Voigt Hill
#
# Bulk Modulus (GPa) = 61.64196 66.23505 63.93850
# Shear Modulus (GPa) = 27.81444 29.59841 28.70643
#
# Velocity S-wave (km/s) = 3.69557 3.81224 3.75436
# Velocity P-wave (km/s) = 6.96252 7.20416 7.08437
#
# Compressibility (1/GPa) = 0.01622272
#
# Stress axis : x y z
#
# Youngs Moduli (GPa) = 69.77182 106.12486 60.39113
#
# Poissons Ratio (x) = 0.43608 0.32137
# Poissons Ratio (y) = 0.28670 0.15793
# Poissons Ratio (z) = 0.37129 0.27753
#
# Static dielectric constant tensor:
#      x y z
#    x 3.775630 0.000000 0.000000 
#    y 0.000000 3.586830 0.000000 
#    z 0.000000 0.000000 3.795560 
# 
# 
# High freq. dielectric constant tensor:
#      x y z
#    x 1.805430 0.000000 0.000000 
#    y 0.000000 1.784650 0.000000 
#    z 0.000000 0.000000 1.805260 
# 
# From -- ./inp_files/6260.got.cif
#   From: 2010.03.12/outbox.cif.g09.slc.cpg/sg73_4_cif.got.tgz:6260.got - 2010.04.16 15:25:48.
