data_PCOD8296584
_publ_section_title
;
Structure prediction by ZEFSAII (Michael W. Deem and Ramdas Pophale) SiO2 
 PCOD8296584
Probable space group: I B C A 
;
_chemical_formula_sum "Si O2"
_cell_formula_units_Z 104
_cell_length_a 8.901641
_cell_length_b 19.017875
_cell_length_c 28.536433
_cell_angle_alpha 90.000000
_cell_angle_beta 90.000000
_cell_angle_gamma 90.000000
_cell_volume 4830.941185
_symmetry_space_group_name_H-M "I B C A "
_symmetry_group_IT_number 73
_symmetry_cell_setting 'orthorhombic'
loop_
_space_group_symop_operation_xyz
x,y,z
-x,1/2-y,z
x,-y,1/2-z
1/2-x,y,-z
-x,-y,-z
x,1/2+y,-z
-x,y,1/2+z
1/2+x,-y,z
1/2+x,1/2+y,1/2+z
1/2-x,-y,1/2+z
1/2+x,1/2-y,-z
-x,1/2+y,1/2-z
1/2-x,1/2-y,1/2-z
1/2+x,y,1/2-z
1/2-x,1/2+y,z
x,1/2-y,1/2+z
loop_
_atom_site_type_symbol
_atom_site_label
_atom_site_fract_x
_atom_site_fract_y
_atom_site_fract_z
Si Si1 0.448027 0.327027 0.883924
Si Si2 0.025936 0.448073 0.185971
Si Si3 0.771005 0.500000 0.250000
Si Si4 0.848113 0.718795 0.077255
Si Si5 0.289137 0.638260 0.051738
Si Si6 0.605111 0.981893 0.904528
Si Si7 0.673483 0.071561 0.047295
O O1 0.500000 0.250000 0.870395
O O2 0.487848 0.374392 0.839923
O O3 0.267410 0.319741 0.888188
O O4 0.535989 0.355384 0.931368
O O5 0.165181 0.445880 0.221809
O O6 0.046159 0.512677 0.148810
O O7 0.871179 0.456826 0.213607
O O8 0.773188 0.782446 0.049774
O O9 0.885784 0.652375 0.043048
O O10 0.000000 0.750000 0.101228
O O11 0.207473 0.587757 0.089561
O O12 0.250000 0.607148 0.000000
O O13 0.465890 0.978770 0.940671
O O14 0.697112 0.054721 0.913620
O O15 0.750000 0.045175 0.000000
#
# Coordination Sequence:
#
# PCOD8296584 Si02
#       7
#    16  16   8  16  16  16  16
#     4  10  23  42  68  91 137 178 220 280 329 395
#     4  11  22  45  66 104 126 166 214 274 357 422
#     4  10  24  40  76  96 130 158 204 280 354 442
#     4  11  23  42  61  91 131 189 232 280 317 380
#     4  11  24  40  61  96 136 188 234 271 321 379
#     4  12  24  40  67  93 136 171 226 284 335 399
#     4  12  25  39  61  93 135 183 229 280 328 381
#
# _framework density 21.527896999999999
#
# number of rings (size 3 to 8) (size 9 to 14) (size 15 to 20)
#    0.000    0.923    3.077    4.154    2.154    1.846 
#    0.000    0.769    0.000    0.000    0.000    0.000 
#    0.000    0.000    0.000    0.000    0.000    0.000 
#
# Total GULP energy -644352.592221 kJ/mol
# GULP energy per Si atom -12391.396004 kJ/mol
# Density = 2.147890 g / cm^3
# Si number density = 21.527897 Si / 1000 Ang^3
#
#
#
# Elastic Constant Matrix: (Units=GPa)
#
#
# Indices 1 2 3 4 5 6 
#
# 1 161.0324 42.7544 49.4561 0.0000 0.0000 0.0000
# 2 42.7544 119.6528 45.4095 0.0000 0.0000 0.0000
# 3 49.4561 45.4095 102.1228 0.0000 0.0000 0.0000
# 4 0.0000 0.0000 0.0000 22.6709 0.0000 0.0000
# 5 0.0000 0.0000 0.0000 0.0000 24.1869 0.0000
# 6 0.0000 0.0000 0.0000 0.0000 0.0000 31.0911
#
#
#
# Elastic Compliance Matrix: (Units=1/GPa)
#
#
# Indices 1 2 3 4 5 6 
#
# 1 0.007533 -0.001573 -0.002949 0.000000 0.000000 0.000000
# 2 -0.001573 0.010382 -0.003855 0.000000 0.000000 0.000000
# 3 -0.002949 -0.003855 0.012934 0.000000 0.000000 0.000000
# 4 0.000000 0.000000 0.000000 0.044109 0.000000 0.000000
# 5 0.000000 0.000000 0.000000 0.000000 0.041345 0.000000
# 6 0.000000 0.000000 0.000000 0.000000 0.000000 0.032164
#
#
# Mechanical properties :
#
#
# Convention : Reuss Voigt Hill
#
# Bulk Modulus (GPa) = 70.93749 73.11645 72.02697
# Shear Modulus (GPa) = 29.42566 31.93563 30.68065
#
# Velocity S-wave (km/s) = 3.70112 3.85574 3.77922
# Velocity P-wave (km/s) = 7.16152 7.33891 7.25076
#
# Compressibility (1/GPa) = 0.01409692
#
# Stress axis : x y z
#
# Youngs Moduli (GPa) = 132.74721 96.31615 77.31329
#
# Poissons Ratio (x) = 0.15147 0.22799
# Poissons Ratio (y) = 0.20876 0.29805
# Poissons Ratio (z) = 0.39145 0.37130
#
# Static dielectric constant tensor:
#      x y z
#    x 4.343120 0.000000 0.000000 
#    y 0.000000 4.057660 0.000000 
#    z 0.000000 0.000000 3.580970 
# 
# 
# High freq. dielectric constant tensor:
#      x y z
#    x 1.872480 0.000000 0.000000 
#    y 0.000000 1.858380 0.000000 
#    z 0.000000 0.000000 1.800950 
# 
# From -- ./inp_files/7910.got.cif
#   From: 2010.03.12/outbox.cif.g09.slc.cpg/sg73_4_cif.got.tgz:7910.got - 2010.04.16 15:25:48.
