data_PCOD8296019
_publ_section_title
;
Structure prediction by ZEFSAII (Michael W. Deem and Ramdas Pophale) SiO2 
 PCOD8296019
Probable space group: I B C A 
;
_chemical_formula_sum "Si O2"
_cell_formula_units_Z 112
_cell_length_a 11.027680
_cell_length_b 26.575803
_cell_length_c 17.883867
_cell_angle_alpha 90.000000
_cell_angle_beta 90.000000
_cell_angle_gamma 90.000000
_cell_volume 5241.215088
_symmetry_space_group_name_H-M "I B C A "
_symmetry_group_IT_number 73
_symmetry_cell_setting 'orthorhombic'
loop_
_space_group_symop_operation_xyz
x,y,z
-x,1/2-y,z
x,-y,1/2-z
1/2-x,y,-z
-x,-y,-z
x,1/2+y,-z
-x,y,1/2+z
1/2+x,-y,z
1/2+x,1/2+y,1/2+z
1/2-x,-y,1/2+z
1/2+x,1/2-y,-z
-x,1/2+y,1/2-z
1/2-x,1/2-y,1/2-z
1/2+x,y,1/2-z
1/2-x,1/2+y,z
x,1/2-y,1/2+z
loop_
_atom_site_type_symbol
_atom_site_label
_atom_site_fract_x
_atom_site_fract_y
_atom_site_fract_z
Si Si1 0.824451 0.168911 0.136794
Si Si2 0.463102 0.550554 0.455764
Si Si3 0.141974 0.512301 0.831612
Si Si4 0.750000 0.615223 0.000000
Si Si5 0.000000 0.250000 0.652714
Si Si6 0.176567 0.667901 0.781879
Si Si7 0.476493 0.091163 0.281555
Si Si8 0.172719 0.592454 0.135373
O O1 0.734597 0.151667 0.071632
O O2 0.908390 0.214914 0.105655
O O3 0.756380 0.186676 0.211915
O O4 0.910200 0.122212 0.154610
O O5 0.500000 0.500000 0.500000
O O6 0.387167 0.536971 0.380538
O O7 0.372069 0.582370 0.507434
O O8 0.577961 0.586777 0.433814
O O9 0.199226 0.500000 0.750000
O O10 0.228011 0.549253 0.878855
O O11 0.011702 0.538457 0.818815
O O12 0.086056 0.286513 0.701221
O O13 0.262290 0.647787 0.852012
O O14 0.098886 0.619798 0.754919
O O15 0.393030 0.079502 0.212017
#
# Coordination Sequence:
#
# PCOD8296019 Si02
#       8
#    16  16  16   8   8  16  16  16
#     4  10  21  38  62  85 122 153 198 246 321 376
#     4  12  25  41  58  85 125 174 221 254 304 370
#     4  11  22  33  57  87 117 159 216 259 299 357
#     4  12  26  42  60  84 130 172 200 254 312 382
#     4  10  20  40  66  96 116 148 198 270 322 382
#     4   9  19  37  65  94 119 150 200 263 323 378
#     4   9  18  35  56  87 119 153 195 256 305 354
#     4  10  21  35  57  87 121 160 203 258 318 367
#
# _framework density 21.369091000000001
#
# number of rings (size 3 to 8) (size 9 to 14) (size 15 to 20)
#    0.000    1.714    1.429    3.000    6.000    0.000 
#    0.000    2.143    0.000    0.000    0.000    0.000 
#    0.000    0.000    0.000    0.000    0.000    0.000 
#
# Total GULP energy -693936.618138 kJ/mol
# GULP energy per Si atom -12391.725324 kJ/mol
# Density = 2.132045 g / cm^3
# Si number density = 21.369091 Si / 1000 Ang^3
#
#
#
# Elastic Constant Matrix: (Units=GPa)
#
#
# Indices 1 2 3 4 5 6 
#
# 1 102.0351 42.7295 23.8591 0.0000 0.0000 0.0000
# 2 42.7295 85.3410 31.4130 -0.0001 0.0000 0.0000
# 3 23.8591 31.4130 63.2036 -0.0003 0.0000 0.0000
# 4 0.0000 -0.0001 -0.0003 17.8383 0.0000 0.0000
# 5 0.0000 0.0000 0.0000 0.0000 28.4870 0.0000
# 6 0.0000 0.0000 0.0000 0.0000 0.0000 43.4855
#
#
#
# Elastic Compliance Matrix: (Units=1/GPa)
#
#
# Indices 1 2 3 4 5 6 
#
# 1 0.012601 -0.005579 -0.001984 0.000000 0.000000 0.000000
# 2 -0.005579 0.016811 -0.006249 0.000000 0.000000 0.000000
# 3 -0.001984 -0.006249 0.019677 0.000000 0.000000 0.000000
# 4 0.000000 0.000000 0.000000 0.056059 0.000000 0.000000
# 5 0.000000 0.000000 0.000000 0.000000 0.035104 0.000000
# 6 0.000000 0.000000 0.000000 0.000000 0.000000 0.022996
#
#
# Mechanical properties :
#
#
# Convention : Reuss Voigt Hill
#
# Bulk Modulus (GPa) = 46.58870 49.62033 48.10451
# Shear Modulus (GPa) = 25.24907 28.13404 26.69155
#
# Velocity S-wave (km/s) = 3.44113 3.63240 3.53806
# Velocity P-wave (km/s) = 6.13496 6.39245 6.26503
#
# Compressibility (1/GPa) = 0.02146443
#
# Stress axis : x y z
#
# Youngs Moduli (GPa) = 79.36062 59.48380 50.82103
#
# Poissons Ratio (x) = 0.33185 0.10083
# Poissons Ratio (y) = 0.44274 0.31760
# Poissons Ratio (z) = 0.15745 0.37174
#
# Static dielectric constant tensor:
#      x y z
#    x 4.183340 0.000000 0.000000 
#    y 0.000000 3.961890 0.000000 
#    z 0.000000 0.000000 3.523470 
# 
# 
# High freq. dielectric constant tensor:
#      x y z
#    x 1.854190 0.000000 0.000000 
#    y 0.000000 1.829330 0.000000 
#    z 0.000000 0.000000 1.803800 
# 
# From -- ./inp_files/14425.got.cif
#   From: 2010.03.12/outbox.cif.g09.slc.cpg/sg73_8_cif.got.tgz:14425.got - 2010.04.16 15:25:48.
