data_PCOD8296021
_publ_section_title
;
Structure prediction by ZEFSAII (Michael W. Deem and Ramdas Pophale) SiO2 
 PCOD8296021
Probable space group: I B C A 
;
_chemical_formula_sum "Si O2"
_cell_formula_units_Z 104
_cell_length_a 15.685481
_cell_length_b 20.111031
_cell_length_c 14.472352
_cell_angle_alpha 90.000000
_cell_angle_beta 90.000000
_cell_angle_gamma 90.000000
_cell_volume 4565.320728
_symmetry_space_group_name_H-M "I B C A "
_symmetry_group_IT_number 73
_symmetry_cell_setting 'orthorhombic'
loop_
_space_group_symop_operation_xyz
x,y,z
-x,1/2-y,z
x,-y,1/2-z
1/2-x,y,-z
-x,-y,-z
x,1/2+y,-z
-x,y,1/2+z
1/2+x,-y,z
1/2+x,1/2+y,1/2+z
1/2-x,-y,1/2+z
1/2+x,1/2-y,-z
-x,1/2+y,1/2-z
1/2-x,1/2-y,1/2-z
1/2+x,y,1/2-z
1/2-x,1/2+y,z
x,1/2-y,1/2+z
loop_
_atom_site_type_symbol
_atom_site_label
_atom_site_fract_x
_atom_site_fract_y
_atom_site_fract_z
Si Si1 0.267639 0.168041 0.202982
Si Si2 0.494216 0.930990 0.292514
Si Si3 0.830325 0.761023 0.939690
Si Si4 0.065533 0.307070 0.195723
Si Si5 0.808037 0.557710 0.181633
Si Si6 0.750000 0.499399 0.000000
Si Si7 0.866177 0.109512 0.448761
O O1 0.204769 0.224779 0.164799
O O2 0.359871 0.196269 0.228483
O O3 0.224071 0.129438 0.286062
O O4 0.281967 0.120637 0.114101
O O5 0.482449 0.877896 0.208585
O O6 0.590553 0.940389 0.324963
O O7 0.447725 0.906783 0.385940
O O8 0.457989 0.000000 0.250000
O O9 0.899674 0.704116 0.911061
O O10 0.750000 0.734746 0.000000
O O11 0.878254 0.824567 0.986382
O O12 0.000000 0.250000 0.223018
O O13 0.777075 0.500000 0.250000
O O14 0.758009 0.547716 0.086827
O O15 0.662174 0.455963 0.995256
#
# Coordination Sequence:
#
# PCOD8296021 Si02
#       7
#    16  16  16  16  16   8  16
#     4  10  20  40  68  92 132 185 242 296 359 449
#     4  10  25  44  71 104 149 196 244 304 376 451
#     4  10  20  42  67  99 136 189 243 305 371 442
#     4  11  24  42  69 101 136 187 242 300 371 443
#     4  11  22  42  69 103 144 196 247 298 370 450
#     4  12  22  36  70 104 142 194 252 300 368 464
#     4  10  20  40  67 101 142 185 239 302 376 434
#
# _framework density 22.780436999999999
#
# number of rings (size 3 to 8) (size 9 to 14) (size 15 to 20)
#    0.000    1.538    3.846    1.385    4.308    1.846 
#    4.154    6.923    0.000    0.000    0.000    0.000 
#    0.000    0.000    0.000    0.000    0.000    0.000 
#
# Total GULP energy -644388.811819 kJ/mol
# GULP energy per Si atom -12392.092535 kJ/mol
# Density = 2.272859 g / cm^3
# Si number density = 22.780437 Si / 1000 Ang^3
#
#
#
# Elastic Constant Matrix: (Units=GPa)
#
#
# Indices 1 2 3 4 5 6 
#
# 1 77.5910 33.7152 32.6461 0.0000 0.0000 0.0000
# 2 33.7152 106.0680 35.0077 0.0000 0.0000 0.0000
# 3 32.6461 35.0077 92.9251 0.0000 0.0000 0.0000
# 4 0.0000 0.0000 0.0000 23.9834 0.0000 0.0000
# 5 0.0000 0.0000 0.0000 0.0000 28.8132 0.0000
# 6 0.0000 0.0000 0.0000 0.0000 0.0000 31.7731
#
#
#
# Elastic Compliance Matrix: (Units=1/GPa)
#
#
# Indices 1 2 3 4 5 6 
#
# 1 0.016344 -0.003769 -0.004322 0.000000 0.000000 0.000000
# 2 -0.003769 0.011636 -0.003059 0.000000 0.000000 0.000000
# 3 -0.004322 -0.003059 0.013432 0.000000 0.000000 0.000000
# 4 0.000000 0.000000 0.000000 0.041696 0.000000 0.000000
# 5 0.000000 0.000000 0.000000 0.000000 0.034706 0.000000
# 6 0.000000 0.000000 0.000000 0.000000 0.000000 0.031473
#
#
# Mechanical properties :
#
#
# Convention : Reuss Voigt Hill
#
# Bulk Modulus (GPa) = 52.32456 53.25801 52.79129
# Shear Modulus (GPa) = 28.09642 28.59494 28.34568
#
# Velocity S-wave (km/s) = 3.51573 3.54678 3.53129
# Velocity P-wave (km/s) = 6.28486 6.34054 6.31276
#
# Compressibility (1/GPa) = 0.01911148
#
# Stress axis : x y z
#
# Youngs Moduli (GPa) = 61.18362 85.94296 74.44669
#
# Poissons Ratio (x) = 0.32389 0.32178
# Poissons Ratio (y) = 0.23058 0.22777
# Poissons Ratio (z) = 0.26445 0.26294
#
# Static dielectric constant tensor:
#      x y z
#    x 3.951460 0.000000 0.000000 
#    y 0.000000 4.265130 0.000000 
#    z 0.000000 0.000000 4.107900 
# 
# 
# High freq. dielectric constant tensor:
#      x y z
#    x 1.894960 0.000000 0.000000 
#    y 0.000000 1.897460 0.000000 
#    z 0.000000 0.000000 1.897430 
# 
# From -- ./inp_files/18160.got.cif
#   From: 2010.03.12/outbox.cif.g09.slc.cpg/sg73_10_cif.got.tgz:18160.got - 2010.04.16 15:25:48.
