data_PCOD8296826
_publ_section_title
;
Structure prediction by ZEFSAII (Michael W. Deem and Ramdas Pophale) SiO2 
 PCOD8296826
Probable space group: I B C A 
;
_chemical_formula_sum "Si O2"
_cell_formula_units_Z 64
_cell_length_a 27.701023
_cell_length_b 9.307431
_cell_length_c 9.682014
_cell_angle_alpha 90.000000
_cell_angle_beta 90.000000
_cell_angle_gamma 90.000000
_cell_volume 2496.268747
_symmetry_space_group_name_H-M "I B C A "
_symmetry_group_IT_number 73
_symmetry_cell_setting 'orthorhombic'
loop_
_space_group_symop_operation_xyz
x,y,z
-x,1/2-y,z
x,-y,1/2-z
1/2-x,y,-z
-x,-y,-z
x,1/2+y,-z
-x,y,1/2+z
1/2+x,-y,z
1/2+x,1/2+y,1/2+z
1/2-x,-y,1/2+z
1/2+x,1/2-y,-z
-x,1/2+y,1/2-z
1/2-x,1/2-y,1/2-z
1/2+x,y,1/2-z
1/2-x,1/2+y,z
x,1/2-y,1/2+z
loop_
_atom_site_type_symbol
_atom_site_label
_atom_site_fract_x
_atom_site_fract_y
_atom_site_fract_z
Si Si1 0.589527 0.000000 0.250000
Si Si2 0.536713 0.874157 0.011386
Si Si3 0.250000 0.561186 0.000000
Si Si4 0.371241 0.234363 0.116337
Si Si5 0.692490 0.302597 0.371193
O O1 0.558906 0.883864 0.163932
O O2 0.620967 0.902756 0.351983
O O3 0.500000 0.750000 0.992678
O O4 0.579325 0.859809 0.894955
O O5 0.500000 0.000000 0.000000
O O6 0.289161 0.455567 0.929786
O O7 0.232053 0.671019 0.876556
O O8 0.331316 0.170321 0.221258
O O9 0.349746 0.235574 0.963811
#
# Coordination Sequence:
#
# PCOD8296826 Si02
#       5
#     8  16   8  16  16
#     4  12  26  50  74 114 156 208 262 324 386 464
#     4  12  28  50  78 115 159 214 267 327 390 467
#     4  10  26  50  78 118 152 206 258 338 392 490
#     4  12  26  49  78 116 158 212 256 327 387 479
#     4  11  26  48  80 112 158 201 263 319 408 469
#
# _framework density 25.638265000000001
#
# number of rings (size 3 to 8) (size 9 to 14) (size 15 to 20)
#    0.000    0.500    5.000    1.500    3.500    7.000 
#    4.500    0.000    0.000    0.000    0.000    0.000 
#    0.000    0.000    0.000    0.000    0.000    0.000 
#
# Total GULP energy -396455.730574 kJ/mol
# GULP energy per Si atom -12389.241580 kJ/mol
# Density = 2.557991 g / cm^3
# Si number density = 25.638265 Si / 1000 Ang^3
#
#
#
# Elastic Constant Matrix: (Units=GPa)
#
#
# Indices 1 2 3 4 5 6 
#
# 1 151.5313 68.0831 43.2947 0.0000 0.0000 0.0000
# 2 68.0831 151.6077 18.5093 0.0000 0.0000 0.0000
# 3 43.2947 18.5093 71.9294 0.0000 0.0000 0.0000
# 4 0.0000 0.0000 0.0000 36.1810 0.0000 0.0000
# 5 0.0000 0.0000 0.0000 0.0000 40.9069 0.0000
# 6 0.0000 0.0000 0.0000 0.0000 0.0000 39.4973
#
#
#
# Elastic Compliance Matrix: (Units=1/GPa)
#
#
# Indices 1 2 3 4 5 6 
#
# 1 0.009672 -0.003751 -0.004857 0.000000 0.000000 0.000000
# 2 -0.003751 0.008264 0.000131 0.000000 0.000000 0.000000
# 3 -0.004857 0.000131 0.016792 0.000000 0.000000 0.000000
# 4 0.000000 0.000000 0.000000 0.027639 0.000000 0.000000
# 5 0.000000 0.000000 0.000000 0.000000 0.024446 0.000000
# 6 0.000000 0.000000 0.000000 0.000000 0.000000 0.025318
#
#
# Mechanical properties :
#
#
# Convention : Reuss Voigt Hill
#
# Bulk Modulus (GPa) = 56.25599 70.53805 63.39702
# Shear Modulus (GPa) = 37.03467 39.66247 38.34857
#
# Velocity S-wave (km/s) = 3.80479 3.93746 3.87170
# Velocity P-wave (km/s) = 6.42587 6.94579 6.69088
#
# Compressibility (1/GPa) = 0.01777589
#
# Stress axis : x y z
#
# Youngs Moduli (GPa) = 103.39151 121.00303 59.55220
#
# Poissons Ratio (x) = 0.45382 0.28922
# Poissons Ratio (y) = 0.38777 -0.00779
# Poissons Ratio (z) = 0.50212 -0.01583
#
# Static dielectric constant tensor:
#      x y z
#    x 5.728340 0.000000 0.000000 
#    y 0.000000 4.486700 0.000000 
#    z 0.000000 0.000000 4.724900 
# 
# 
# High freq. dielectric constant tensor:
#      x y z
#    x 2.044040 0.000000 0.000000 
#    y 0.000000 2.040080 0.000000 
#    z 0.000000 0.000000 2.014980 
# 
# From -- ./inp_files/14549.got.cif
#   From: 2010.03.12/outbox.cif.g09.slc.cpg/sg73_8_cif.got.tgz:14549.got - 2010.04.16 15:25:48.
