data_PCOD8296576
_publ_section_title
;
Structure prediction by ZEFSAII (Michael W. Deem and Ramdas Pophale) SiO2 
 PCOD8296576
Probable space group: I B C A 
;
_chemical_formula_sum "Si O2"
_cell_formula_units_Z 104
_cell_length_a 14.503024
_cell_length_b 18.774251
_cell_length_c 18.232339
_cell_angle_alpha 90.000000
_cell_angle_beta 90.000000
_cell_angle_gamma 90.000000
_cell_volume 4964.363487
_symmetry_space_group_name_H-M "I B C A "
_symmetry_group_IT_number 73
_symmetry_cell_setting 'orthorhombic'
loop_
_space_group_symop_operation_xyz
x,y,z
-x,1/2-y,z
x,-y,1/2-z
1/2-x,y,-z
-x,-y,-z
x,1/2+y,-z
-x,y,1/2+z
1/2+x,-y,z
1/2+x,1/2+y,1/2+z
1/2-x,-y,1/2+z
1/2+x,1/2-y,-z
-x,1/2+y,1/2-z
1/2-x,1/2-y,1/2-z
1/2+x,y,1/2-z
1/2-x,1/2+y,z
x,1/2-y,1/2+z
loop_
_atom_site_type_symbol
_atom_site_label
_atom_site_fract_x
_atom_site_fract_y
_atom_site_fract_z
Si Si1 0.848526 0.755909 0.087281
Si Si2 0.645056 0.797604 0.565520
Si Si3 0.000000 0.250000 0.677409
Si Si4 0.380994 0.407674 0.646630
Si Si5 0.734782 0.426390 0.725769
Si Si6 0.940480 0.343184 0.299647
Si Si7 0.687155 0.453315 0.429566
O O1 0.751043 0.715608 0.086749
O O2 0.840012 0.839796 0.103499
O O3 0.918209 0.721925 0.145830
O O4 0.889203 0.744682 0.006171
O O5 0.590566 0.762893 0.631280
O O6 0.626285 0.882583 0.552353
O O7 0.005425 0.318819 0.728168
O O8 0.324966 0.413086 0.723464
O O9 0.491035 0.399997 0.661435
O O10 0.371416 0.477209 0.594559
O O11 0.689040 0.500000 0.750000
O O12 0.655133 0.369419 0.734630
O O13 0.753541 0.428852 0.639592
O O14 0.750000 0.472802 0.500000
#
# Coordination Sequence:
#
# PCOD8296576 Si02
#       7
#    16  16   8  16  16  16  16
#     4  11  23  45  69  94 137 180 227 290 351 416
#     4  11  24  43  69  96 136 183 223 290 356 428
#     4  12  26  36  68 106 132 172 238 284 346 432
#     4  11  25  41  71 101 133 182 233 294 338 429
#     4  10  23  42  65  94 135 174 225 278 343 411
#     4  12  23  42  67  99 133 178 228 288 347 412
#     4  11  22  45  67  96 139 184 229 280 364 416
#
# _framework density 20.949313
#
# number of rings (size 3 to 8) (size 9 to 14) (size 15 to 20)
#    0.000    0.923    4.615    1.846    4.308    4.308 
#    0.000    3.077    0.000    0.000    0.000    0.000 
#    0.000    0.000    0.000    0.000    0.000    0.000 
#
# Total GULP energy -644503.293914 kJ/mol
# GULP energy per Si atom -12394.294114 kJ/mol
# Density = 2.090163 g / cm^3
# Si number density = 20.949313 Si / 1000 Ang^3
#
#
#
# Elastic Constant Matrix: (Units=GPa)
#
#
# Indices 1 2 3 4 5 6 
#
# 1 61.6813 24.8209 31.2131 0.0000 0.0000 0.0000
# 2 24.8209 125.2697 40.7457 0.0000 0.0000 0.0000
# 3 31.2131 40.7457 146.5794 0.0000 0.0000 0.0000
# 4 0.0000 0.0000 0.0000 31.4368 0.0000 0.0000
# 5 0.0000 0.0000 0.0000 0.0000 29.7420 0.0000
# 6 0.0000 0.0000 0.0000 0.0000 0.0000 34.0036
#
#
#
# Elastic Compliance Matrix: (Units=1/GPa)
#
#
# Indices 1 2 3 4 5 6 
#
# 1 0.018958 -0.002686 -0.003290 0.000000 0.000000 0.000000
# 2 -0.002686 0.009157 -0.001973 0.000000 0.000000 0.000000
# 3 -0.003290 -0.001973 0.008071 0.000000 0.000000 0.000000
# 4 0.000000 0.000000 0.000000 0.031810 0.000000 0.000000
# 5 0.000000 0.000000 0.000000 0.000000 0.033623 0.000000
# 6 0.000000 0.000000 0.000000 0.000000 0.000000 0.029409
#
#
# Mechanical properties :
#
#
# Convention : Reuss Voigt Hill
#
# Bulk Modulus (GPa) = 49.29306 58.56553 53.92929
# Shear Modulus (GPa) = 32.53304 34.81984 33.67644
#
# Velocity S-wave (km/s) = 3.94501 4.08131 4.01374
# Velocity P-wave (km/s) = 6.65820 7.08703 6.87596
#
# Compressibility (1/GPa) = 0.02028683
#
# Stress axis : x y z
#
# Youngs Moduli (GPa) = 52.74724 109.20736 123.89324
#
# Poissons Ratio (x) = 0.29335 0.40765
# Poissons Ratio (y) = 0.14169 0.24449
# Poissons Ratio (z) = 0.17356 0.21551
#
# Static dielectric constant tensor:
#      x y z
#    x 3.594600 0.000000 0.000000 
#    y 0.000000 4.245180 0.000000 
#    z 0.000000 0.000000 4.095870 
# 
# 
# High freq. dielectric constant tensor:
#      x y z
#    x 1.809090 0.000000 0.000000 
#    y 0.000000 1.827760 0.000000 
#    z 0.000000 0.000000 1.836610 
# 
# From -- ./inp_files/18820.got.cif
#   From: 2010.03.12/outbox.cif.g09.slc.cpg/sg73_10_cif.got.tgz:18820.got - 2010.04.16 15:25:48.
