data_PCOD8296061
_publ_section_title
;
Structure prediction by ZEFSAII (Michael W. Deem and Ramdas Pophale) SiO2 
 PCOD8296061
Probable space group: I B C A 
;
_chemical_formula_sum "Si O2"
_cell_formula_units_Z 120
_cell_length_a 21.621525
_cell_length_b 21.457165
_cell_length_c 11.788662
_cell_angle_alpha 90.000000
_cell_angle_beta 90.000000
_cell_angle_gamma 90.000000
_cell_volume 5469.192114
_symmetry_space_group_name_H-M "I B C A "
_symmetry_group_IT_number 73
_symmetry_cell_setting 'orthorhombic'
loop_
_space_group_symop_operation_xyz
x,y,z
-x,1/2-y,z
x,-y,1/2-z
1/2-x,y,-z
-x,-y,-z
x,1/2+y,-z
-x,y,1/2+z
1/2+x,-y,z
1/2+x,1/2+y,1/2+z
1/2-x,-y,1/2+z
1/2+x,1/2-y,-z
-x,1/2+y,1/2-z
1/2-x,1/2-y,1/2-z
1/2+x,y,1/2-z
1/2-x,1/2+y,z
x,1/2-y,1/2+z
loop_
_atom_site_type_symbol
_atom_site_label
_atom_site_fract_x
_atom_site_fract_y
_atom_site_fract_z
Si Si1 0.958464 0.461604 0.644770
Si Si2 0.340503 0.000000 0.750000
Si Si3 0.846146 0.298857 0.445112
Si Si4 0.634713 0.643241 0.183095
Si Si5 0.227951 0.872819 0.232308
Si Si6 0.647185 0.173533 0.430705
Si Si7 0.071632 0.264943 0.754378
Si Si8 0.914443 0.050362 0.538314
O O1 0.986501 0.500000 0.750000
O O2 0.917782 0.407674 0.699642
O O3 0.913550 0.504265 0.568189
O O4 0.014655 0.433674 0.571159
O O5 0.299192 0.941425 0.787894
O O6 0.382239 0.982810 0.643688
O O7 0.857781 0.343996 0.549783
O O8 0.789549 0.325626 0.370353
O O9 0.831221 0.228239 0.485126
O O10 0.908839 0.300661 0.369388
O O11 0.698589 0.620542 0.237721
O O12 0.613409 0.703551 0.251495
O O13 0.205036 0.843769 0.350921
O O14 0.587978 0.193510 0.354701
O O15 0.622737 0.112797 0.498242
O O16 0.000000 0.250000 0.755462
#
# Coordination Sequence:
#
# PCOD8296061 Si02
#       8
#    16   8  16  16  16  16  16  16
#     4  11  24  39  63  95 130 167 212 267 324 384
#     4  10  20  42  68  90 124 170 222 262 318 396
#     4  10  22  39  63  92 123 165 211 261 324 388
#     4  11  24  40  61  92 127 163 208 266 317 383
#     4  10  22  40  66  90 124 170 211 266 320 385
#     4   9  21  40  63  92 125 161 216 261 322 394
#     4  10  22  39  62  91 123 167 207 262 321 384
#     4  10  21  41  65  93 124 170 212 267 322 382
#
# _framework density 21.941084
#
# number of rings (size 3 to 8) (size 9 to 14) (size 15 to 20)
#    0.000    1.867    0.667    2.000    2.800    9.067 
#    2.400    0.000    0.000    0.000    0.000    0.000 
#    0.000    0.000    0.000    0.000    0.000    0.000 
#
# Total GULP energy -744206.835286 kJ/mol
# GULP energy per Si atom -12403.447255 kJ/mol
# Density = 2.189114 g / cm^3
# Si number density = 21.941084 Si / 1000 Ang^3
#
#
#
# Elastic Constant Matrix: (Units=GPa)
#
#
# Indices 1 2 3 4 5 6 
#
# 1 96.6489 14.5733 1.1328 0.0000 0.0000 0.0000
# 2 14.5733 104.0431 16.7899 0.0000 0.0000 0.0000
# 3 1.1328 16.7899 49.8152 0.0000 0.0000 0.0000
# 4 0.0000 0.0000 0.0000 26.5292 0.0000 0.0000
# 5 0.0000 0.0000 0.0000 0.0000 14.3161 0.0000
# 6 0.0000 0.0000 0.0000 0.0000 0.0000 21.1099
#
#
#
# Elastic Compliance Matrix: (Units=1/GPa)
#
#
# Indices 1 2 3 4 5 6 
#
# 1 0.010573 -0.001525 0.000274 0.000000 0.000000 0.000000
# 2 -0.001525 0.010384 -0.003465 0.000000 0.000000 0.000000
# 3 0.000274 -0.003465 0.021236 0.000000 0.000000 0.000000
# 4 0.000000 0.000000 0.000000 0.037694 0.000000 0.000000
# 5 0.000000 0.000000 0.000000 0.000000 0.069851 0.000000
# 6 0.000000 0.000000 0.000000 0.000000 0.000000 0.047371
#
#
# Mechanical properties :
#
#
# Convention : Reuss Voigt Hill
#
# Bulk Modulus (GPa) = 30.52504 35.05548 32.79026
# Shear Modulus (GPa) = 22.99231 26.92512 24.95871
#
# Velocity S-wave (km/s) = 3.24066 3.50688 3.37639
# Velocity P-wave (km/s) = 5.28630 5.69292 5.49337
#
# Compressibility (1/GPa) = 0.03275999
#
# Stress axis : x y z
#
# Youngs Moduli (GPa) = 94.57611 96.29984 47.08999
#
# Poissons Ratio (x) = 0.14687 -0.01288
# Poissons Ratio (y) = 0.14425 0.16318
# Poissons Ratio (z) = -0.02588 0.33370
#
# Static dielectric constant tensor:
#      x y z
#    x 3.715940 0.000000 0.000000 
#    y 0.000000 4.062190 0.000000 
#    z 0.000000 0.000000 3.925700 
# 
# 
# High freq. dielectric constant tensor:
#      x y z
#    x 1.856290 0.000000 0.000000 
#    y 0.000000 1.868170 0.000000 
#    z 0.000000 0.000000 1.866650 
# 
# From -- ./inp_files/13111.got.cif
#   From: 2010.03.12/outbox.cif.g09.slc.cpg/sg73_7_cif.got.tgz:13111.got - 2010.04.16 15:25:48.
