data_PCOD8296421
_publ_section_title
;
Structure prediction by ZEFSAII (Michael W. Deem and Ramdas Pophale) SiO2 
 PCOD8296421
Probable space group: I B C A 
;
_chemical_formula_sum "Si O2"
_cell_formula_units_Z 120
_cell_length_a 25.514876
_cell_length_b 9.584435
_cell_length_c 22.360958
_cell_angle_alpha 90.000000
_cell_angle_beta 90.000000
_cell_angle_gamma 90.000000
_cell_volume 5468.275468
_symmetry_space_group_name_H-M "I B C A "
_symmetry_group_IT_number 73
_symmetry_cell_setting 'orthorhombic'
loop_
_space_group_symop_operation_xyz
x,y,z
-x,1/2-y,z
x,-y,1/2-z
1/2-x,y,-z
-x,-y,-z
x,1/2+y,-z
-x,y,1/2+z
1/2+x,-y,z
1/2+x,1/2+y,1/2+z
1/2-x,-y,1/2+z
1/2+x,1/2-y,-z
-x,1/2+y,1/2-z
1/2-x,1/2-y,1/2-z
1/2+x,y,1/2-z
1/2-x,1/2+y,z
x,1/2-y,1/2+z
loop_
_atom_site_type_symbol
_atom_site_label
_atom_site_fract_x
_atom_site_fract_y
_atom_site_fract_z
Si Si1 0.858684 0.240726 0.239081
Si Si2 0.922431 0.500000 0.750000
Si Si3 0.398570 0.560819 0.954424
Si Si4 0.711780 0.190763 0.861474
Si Si5 0.812859 0.365196 0.861922
Si Si6 0.449249 0.661595 0.172260
Si Si7 0.885329 0.243247 0.062588
Si Si8 0.985085 0.406260 0.858769
O O1 0.886242 0.102283 0.210261
O O2 0.805659 0.263932 0.201475
O O3 0.845931 0.202877 0.307302
O O4 0.904499 0.356339 0.225208
O O5 0.955443 0.408730 0.795739
O O6 0.351756 0.631668 0.917457
O O7 0.388067 0.401988 0.972244
O O8 0.451678 0.554456 0.916661
O O9 0.402321 0.637181 0.017296
O O10 0.768755 0.250271 0.876592
O O11 0.674159 0.251089 0.913028
O O12 0.711375 0.021353 0.852855
O O13 0.500000 0.750000 0.195645
O O14 0.424950 0.749949 0.118062
O O15 0.465160 0.508964 0.148473
O O16 0.000000 0.250000 0.871340
#
# Coordination Sequence:
#
# PCOD8296421 Si02
#       8
#    16   8  16  16  16  16  16  16
#     4  11  20  40  70  92 132 177 217 275 337 410
#     4  12  20  40  64  88 134 174 210 266 334 396
#     4  11  24  45  67  95 135 176 229 285 347 409
#     4  10  22  41  65  97 131 175 225 279 346 410
#     4  11  22  42  68  98 133 175 225 277 351 408
#     4  11  22  43  68  94 131 179 224 266 342 415
#     4  10  24  43  68  96 128 178 226 286 341 403
#     4  12  27  41  64 101 133 177 225 277 339 410
#
# _framework density 21.944762000000001
#
# number of rings (size 3 to 8) (size 9 to 14) (size 15 to 20)
#    0.000    1.067    5.333    1.200    3.733    2.667 
#    2.400    4.000    0.000    0.000    0.000    0.000 
#    0.000    0.000    0.000    0.000    0.000    0.000 
#
# Total GULP energy -743431.541800 kJ/mol
# GULP energy per Si atom -12390.525697 kJ/mol
# Density = 2.189482 g / cm^3
# Si number density = 21.944762 Si / 1000 Ang^3
#
#
#
# Elastic Constant Matrix: (Units=GPa)
#
#
# Indices 1 2 3 4 5 6 
#
# 1 95.1412 41.4318 16.9404 0.0000 0.0000 0.0000
# 2 41.4318 96.3041 30.9153 0.0000 0.0000 0.0000
# 3 16.9404 30.9153 69.3706 0.0000 0.0000 0.0000
# 4 0.0000 0.0000 0.0000 35.6313 0.0000 0.0000
# 5 0.0000 0.0000 0.0000 0.0000 -0.2329 0.0000
# 6 0.0000 0.0000 0.0000 0.0000 0.0000 34.5819
#
#
#
# Elastic Compliance Matrix: (Units=1/GPa)
#
#
# Indices 1 2 3 4 5 6 
#
# 1 0.012971 -0.005325 -0.000794 0.000000 0.000000 0.000000
# 2 -0.005325 0.014304 -0.005074 0.000000 0.000000 0.000000
# 3 -0.000794 -0.005074 0.016871 0.000000 0.000000 0.000000
# 4 0.000000 0.000000 0.000000 0.028065 0.000000 0.000000
# 5 0.000000 0.000000 0.000000 0.000000 -4.293389 0.000000
# 6 0.000000 0.000000 0.000000 0.000000 0.000000 0.028917
#
#
# Mechanical properties :
#
#
# Convention : Reuss Voigt Hill
#
# Bulk Modulus (GPa) = 45.96021 48.82121 47.39071
# Shear Modulus (GPa) = -1.20117 25.43129 12.11506
#
# Velocity S-wave (km/s) = -0.74064 3.40792 2.35217
# Velocity P-wave (km/s) = 4.50085 6.14661 5.38695
#
# Compressibility (1/GPa) = 0.02175795
#
# Stress axis : x y z
#
# Youngs Moduli (GPa) = 77.09361 69.91176 59.27492
#
# Poissons Ratio (x) = 0.37231 0.04708
# Poissons Ratio (y) = 0.41056 0.30076
# Poissons Ratio (z) = 0.06123 0.35473
#
# Static dielectric constant tensor:
#      x y z
#    x 4.211590 0.000000 0.000000 
#    y 0.000000 4.019550 0.000000 
#    z 0.000000 0.000000 3.741320 
# 
# 
# High freq. dielectric constant tensor:
#      x y z
#    x 1.867160 0.000000 0.000000 
#    y 0.000000 1.862800 0.000000 
#    z 0.000000 0.000000 1.852820 
# 
# From -- ./inp_files/30541.got.cif
#   From: 2010.03.12/outbox.cif.g09.slc.cpg/sg73_16_cif.got.tgz:30541.got - 2010.04.16 15:25:48.
