data_PCOD8296322
_publ_section_title
;
Structure prediction by ZEFSAII (Michael W. Deem and Ramdas Pophale) SiO2 
 PCOD8296322
Probable space group: I B C A 
;
_chemical_formula_sum "Si O2"
_cell_formula_units_Z 112
_cell_length_a 18.205255
_cell_length_b 23.664278
_cell_length_c 11.924315
_cell_angle_alpha 90.000000
_cell_angle_beta 90.000000
_cell_angle_gamma 90.000000
_cell_volume 5137.164411
_symmetry_space_group_name_H-M "I B C A "
_symmetry_group_IT_number 73
_symmetry_cell_setting 'orthorhombic'
loop_
_space_group_symop_operation_xyz
x,y,z
-x,1/2-y,z
x,-y,1/2-z
1/2-x,y,-z
-x,-y,-z
x,1/2+y,-z
-x,y,1/2+z
1/2+x,-y,z
1/2+x,1/2+y,1/2+z
1/2-x,-y,1/2+z
1/2+x,1/2-y,-z
-x,1/2+y,1/2-z
1/2-x,1/2-y,1/2-z
1/2+x,y,1/2-z
1/2-x,1/2+y,z
x,1/2-y,1/2+z
loop_
_atom_site_type_symbol
_atom_site_label
_atom_site_fract_x
_atom_site_fract_y
_atom_site_fract_z
Si Si1 0.218665 0.313514 0.263480
Si Si2 0.322764 0.892481 0.068576
Si Si3 0.665959 0.766356 0.981031
Si Si4 0.430494 0.837152 0.912465
Si Si5 0.921482 0.513907 0.872027
Si Si6 0.131169 0.153781 0.177381
Si Si7 0.545055 0.412939 0.988620
O O1 0.250000 0.250000 0.250000
O O2 0.175582 0.338338 0.155033
O O3 0.170168 0.312173 0.378066
O O4 0.287284 0.356937 0.273878
O O5 0.345304 0.950301 0.132605
O O6 0.250000 0.901838 0.000000
O O7 0.380410 0.884442 0.968571
O O8 0.602024 0.722450 0.952279
O O9 0.750000 0.741273 0.000000
O O10 0.637559 0.792108 0.096680
O O11 0.426960 0.836619 0.777467
O O12 0.513203 0.854862 0.952401
O O13 0.951379 0.500000 0.750000
O O14 0.909908 0.452449 0.926876
O O15 0.980871 0.551221 0.934441
O O16 0.103837 0.101011 0.106842
#
# Coordination Sequence:
#
# PCOD8296322 Si02
#       7
#    16  16  16  16  16  16  16
#     4  11  20  39  67  98 140 170 205 262 330 402
#     4  11  21  39  66 100 127 172 220 258 335 393
#     4  10  22  36  61  99 132 171 207 255 328 392
#     4  11  21  40  67  89 134 173 216 265 317 405
#     4  10  23  45  67  86 126 170 218 282 324 378
#     4  11  22  39  64  94 131 169 217 265 317 394
#     4  10  24  43  64  91 121 173 228 265 329 378
#
# _framework density 21.801909999999999
#
# number of rings (size 3 to 8) (size 9 to 14) (size 15 to 20)
#    0.000    1.429    2.857    3.000    2.000    0.571 
#    2.571    1.429    0.000    0.000    0.000    0.000 
#    0.000    0.000    0.000    0.000    0.000    0.000 
#
# Total GULP energy -693758.043232 kJ/mol
# GULP energy per Si atom -12388.536486 kJ/mol
# Density = 2.175229 g / cm^3
# Si number density = 21.801910 Si / 1000 Ang^3
#
#
#
# Elastic Constant Matrix: (Units=GPa)
#
#
# Indices 1 2 3 4 5 6 
#
# 1 50.8635 35.8477 21.7344 0.0000 0.0000 0.0000
# 2 35.8477 96.3673 42.5587 0.0000 0.0000 0.0000
# 3 21.7344 42.5587 142.8266 0.0000 0.0000 0.0000
# 4 0.0000 0.0000 0.0000 35.9376 0.0000 0.0000
# 5 0.0000 0.0000 0.0000 0.0000 25.1025 0.0000
# 6 0.0000 0.0000 0.0000 0.0000 0.0000 2.8935
#
#
#
# Elastic Compliance Matrix: (Units=1/GPa)
#
#
# Indices 1 2 3 4 5 6 
#
# 1 0.026847 -0.009423 -0.001278 0.000000 0.000000 0.000000
# 2 -0.009423 0.015257 -0.003112 0.000000 0.000000 0.000000
# 3 -0.001278 -0.003112 0.008123 0.000000 0.000000 0.000000
# 4 0.000000 0.000000 0.000000 0.027826 0.000000 0.000000
# 5 0.000000 0.000000 0.000000 0.000000 0.039837 0.000000
# 6 0.000000 0.000000 0.000000 0.000000 0.000000 0.345608
#
#
# Mechanical properties :
#
#
# Convention : Reuss Voigt Hill
#
# Bulk Modulus (GPa) = 44.24383 54.48208 49.36296
# Shear Modulus (GPa) = 10.02694 25.44782 17.73738
#
# Velocity S-wave (km/s) = 2.14688 3.42018 2.85541
# Velocity P-wave (km/s) = 5.14617 6.37500 5.79326
#
# Compressibility (1/GPa) = 0.02260202
#
# Stress axis : x y z
#
# Youngs Moduli (GPa) = 37.24761 65.54567 123.10288
#
# Poissons Ratio (x) = 0.61761 0.15729
# Poissons Ratio (y) = 0.35097 0.38312
# Poissons Ratio (z) = 0.04759 0.20399
#
# Static dielectric constant tensor:
#      x y z
#    x 4.166340 0.000000 0.000000 
#    y 0.000000 4.010260 0.000000 
#    z 0.000000 0.000000 4.405670 
# 
# 
# High freq. dielectric constant tensor:
#      x y z
#    x 1.837960 0.000000 0.000000 
#    y 0.000000 1.836580 0.000000 
#    z 0.000000 0.000000 1.881570 
# 
# From -- ./inp_files/13047.got.cif
#   From: 2010.03.12/outbox.cif.g09.slc.cpg/sg73_7_cif.got.tgz:13047.got - 2010.04.16 15:25:48.
