data_PCOD8296740
_publ_section_title
;
Structure prediction by ZEFSAII (Michael W. Deem and Ramdas Pophale) SiO2 
 PCOD8296740
Probable space group: I B C A 
;
_chemical_formula_sum "Si O2"
_cell_formula_units_Z 88
_cell_length_a 9.207410
_cell_length_b 22.735948
_cell_length_c 19.536967
_cell_angle_alpha 90.000000
_cell_angle_beta 90.000000
_cell_angle_gamma 90.000000
_cell_volume 4089.852944
_symmetry_space_group_name_H-M "I B C A "
_symmetry_group_IT_number 73
_symmetry_cell_setting 'orthorhombic'
loop_
_space_group_symop_operation_xyz
x,y,z
-x,1/2-y,z
x,-y,1/2-z
1/2-x,y,-z
-x,-y,-z
x,1/2+y,-z
-x,y,1/2+z
1/2+x,-y,z
1/2+x,1/2+y,1/2+z
1/2-x,-y,1/2+z
1/2+x,1/2-y,-z
-x,1/2+y,1/2-z
1/2-x,1/2-y,1/2-z
1/2+x,y,1/2-z
1/2-x,1/2+y,z
x,1/2-y,1/2+z
loop_
_atom_site_type_symbol
_atom_site_label
_atom_site_fract_x
_atom_site_fract_y
_atom_site_fract_z
Si Si1 0.423857 0.366666 0.236906
Si Si2 0.166239 0.706965 0.300131
Si Si3 0.418991 0.130157 0.984812
Si Si4 0.000000 0.750000 0.922492
Si Si5 0.545658 0.566067 0.381515
Si Si6 0.873985 0.448629 0.137313
O O1 0.273588 0.349341 0.198521
O O2 0.504126 0.311888 0.274649
O O3 0.536643 0.387040 0.179410
O O4 0.389616 0.419947 0.288267
O O5 0.250000 0.750000 0.250000
O O6 0.141737 0.736235 0.374791
O O7 0.474847 0.195892 0.973324
O O8 0.455133 0.093289 0.916720
O O9 0.250000 0.133229 0.000000
O O10 0.499951 0.098382 0.047962
O O11 0.708460 0.542444 0.385069
O O12 0.439179 0.513139 0.364473
#
# Coordination Sequence:
#
# PCOD8296740 Si02
#       6
#    16  16  16   8  16  16
#     4  12  24  42  69 105 139 174 231 282 347 412
#     4  12  23  42  69 102 140 181 223 280 346 412
#     4  10  24  46  65  96 137 183 229 282 342 410
#     4  12  24  44  74 100 144 186 228 290 346 418
#     4  11  26  42  70 100 136 179 232 285 342 413
#     4  11  23  45  67  97 136 182 226 285 345 408
#
# _framework density 21.516666000000001
#
# number of rings (size 3 to 8) (size 9 to 14) (size 15 to 20)
#    0.000    0.727    5.455    1.091    5.091    2.909 
#    0.000    1.818    0.000    0.000    0.000    0.000 
#    0.000    0.000    0.000    0.000    0.000    0.000 
#
# Total GULP energy -545732.736584 kJ/mol
# GULP energy per Si atom -12403.016741 kJ/mol
# Density = 2.146769 g / cm^3
# Si number density = 21.516666 Si / 1000 Ang^3
#
#
#
# Elastic Constant Matrix: (Units=GPa)
#
#
# Indices 1 2 3 4 5 6 
#
# 1 79.5827 31.5007 27.8707 0.0000 0.0000 0.0000
# 2 31.5007 109.9395 50.8250 0.0000 0.0000 0.0000
# 3 27.8707 50.8250 108.1845 -0.0001 0.0000 0.0000
# 4 0.0000 0.0000 -0.0001 43.9821 0.0000 0.0000
# 5 0.0000 0.0000 0.0000 0.0000 28.9266 0.0000
# 6 0.0000 0.0000 0.0000 0.0000 0.0000 44.8557
#
#
#
# Elastic Compliance Matrix: (Units=1/GPa)
#
#
# Indices 1 2 3 4 5 6 
#
# 1 0.014606 -0.003124 -0.002295 0.000000 0.000000 0.000000
# 2 -0.003124 0.012288 -0.004968 0.000000 0.000000 0.000000
# 3 -0.002295 -0.004968 0.012169 0.000000 0.000000 0.000000
# 4 0.000000 0.000000 0.000000 0.022737 0.000000 0.000000
# 5 0.000000 0.000000 0.000000 0.000000 0.034570 0.000000
# 6 0.000000 0.000000 0.000000 0.000000 0.000000 0.022294
#
#
# Mechanical properties :
#
#
# Convention : Reuss Voigt Hill
#
# Bulk Modulus (GPa) = 54.68022 57.56660 56.12341
# Shear Modulus (GPa) = 34.35648 36.05355 35.20502
#
# Velocity S-wave (km/s) = 4.00026 4.09786 4.04935
# Velocity P-wave (km/s) = 6.84136 7.01445 6.92844
#
# Compressibility (1/GPa) = 0.01828815
#
# Stress axis : x y z
#
# Youngs Moduli (GPa) = 68.46566 81.38229 82.17803
#
# Poissons Ratio (x) = 0.25423 0.18861
# Poissons Ratio (y) = 0.21388 0.40826
# Poissons Ratio (z) = 0.15714 0.40430
#
# Static dielectric constant tensor:
#      x y z
#    x 3.931160 0.000000 0.000000 
#    y 0.000000 3.897220 0.000000 
#    z 0.000000 0.000000 4.022740 
# 
# 
# High freq. dielectric constant tensor:
#      x y z
#    x 1.838050 0.000000 0.000000 
#    y 0.000000 1.857610 0.000000 
#    z 0.000000 0.000000 1.846230 
# 
# From -- ./inp_files/7043.got.cif
#   From: 2010.03.12/outbox.cif.g09.slc.cpg/sg73_4_cif.got.tgz:7043.got - 2010.04.16 15:25:48.
