data_PCOD8296445
_publ_section_title
;
Structure prediction by ZEFSAII (Michael W. Deem and Ramdas Pophale) SiO2 
 PCOD8296445
Probable space group: I B C A 
;
_chemical_formula_sum "Si O2"
_cell_formula_units_Z 80
_cell_length_a 13.651498
_cell_length_b 12.214751
_cell_length_c 23.833189
_cell_angle_alpha 90.000000
_cell_angle_beta 90.000000
_cell_angle_gamma 90.000000
_cell_volume 3974.175897
_symmetry_space_group_name_H-M "I B C A "
_symmetry_group_IT_number 73
_symmetry_cell_setting 'orthorhombic'
loop_
_space_group_symop_operation_xyz
x,y,z
-x,1/2-y,z
x,-y,1/2-z
1/2-x,y,-z
-x,-y,-z
x,1/2+y,-z
-x,y,1/2+z
1/2+x,-y,z
1/2+x,1/2+y,1/2+z
1/2-x,-y,1/2+z
1/2+x,1/2-y,-z
-x,1/2+y,1/2-z
1/2-x,1/2-y,1/2-z
1/2+x,y,1/2-z
1/2-x,1/2+y,z
x,1/2-y,1/2+z
loop_
_atom_site_type_symbol
_atom_site_label
_atom_site_fract_x
_atom_site_fract_y
_atom_site_fract_z
Si Si1 0.000000 0.750000 0.361731
Si Si2 0.500000 0.750000 0.457567
Si Si3 0.501933 0.472994 0.813426
Si Si4 0.857248 0.413921 0.599130
Si Si5 0.867963 0.415753 0.394976
Si Si6 0.639474 0.571518 0.504340
O O1 0.961672 0.652747 0.320835
O O2 0.912523 0.796029 0.401559
O O3 0.420874 0.690896 0.418649
O O4 0.559370 0.664775 0.495738
O O5 0.474793 0.500000 0.750000
O O6 0.404394 0.490518 0.852011
O O7 0.586910 0.554403 0.834564
O O8 0.745305 0.388463 0.612812
O O9 0.871519 0.471948 0.539542
O O10 0.883412 0.521533 0.434789
O O11 0.750000 0.619468 0.500000
#
# Coordination Sequence:
#
# PCOD8296445 Si02
#       6
#     8   8  16  16  16  16
#     4   8  20  42  66  88 116 173 205 258 304 382
#     4  12  22  38  62  98 128 163 205 270 300 388
#     4  10  22  42  63  92 128 163 216 264 309 371
#     4   9  21  43  62  89 125 169 207 254 322 376
#     4  11  24  39  64  94 128 164 211 261 320 370
#     4  10  23  41  61  94 129 168 203 259 320 384
#
# _framework density 20.129960000000001
#
# number of rings (size 3 to 8) (size 9 to 14) (size 15 to 20)
#    1.200    0.800    2.000    0.600    0.000   10.400 
#    0.000    1.000    0.000    0.000    0.000    0.000 
#    0.000    0.000    0.000    0.000    0.000    0.000 
#
# Total GULP energy -495915.893279 kJ/mol
# GULP energy per Si atom -12397.897332 kJ/mol
# Density = 2.008414 g / cm^3
# Si number density = 20.129960 Si / 1000 Ang^3
#
#
#
# Elastic Constant Matrix: (Units=GPa)
#
#
# Indices 1 2 3 4 5 6 
#
# 1 153.0824 54.1985 37.7074 0.0000 0.0000 0.0000
# 2 54.1985 75.1015 5.7618 0.0000 0.0000 0.0000
# 3 37.7074 5.7618 87.3093 0.0000 0.0000 0.0000
# 4 0.0000 0.0000 0.0000 14.0976 0.0000 0.0000
# 5 0.0000 0.0000 0.0000 0.0000 16.3240 0.0000
# 6 0.0000 0.0000 0.0000 0.0000 0.0000 33.7549
#
#
#
# Elastic Compliance Matrix: (Units=1/GPa)
#
#
# Indices 1 2 3 4 5 6 
#
# 1 0.009900 -0.006851 -0.003823 0.000000 0.000000 0.000000
# 2 -0.006851 0.018124 0.001763 0.000000 0.000000 0.000000
# 3 -0.003823 0.001763 0.012988 0.000000 0.000000 0.000000
# 4 0.000000 0.000000 0.000000 0.070934 0.000000 0.000000
# 5 0.000000 0.000000 0.000000 0.000000 0.061260 0.000000
# 6 0.000000 0.000000 0.000000 0.000000 0.000000 0.029625
#
#
# Mechanical properties :
#
#
# Convention : Reuss Voigt Hill
#
# Bulk Modulus (GPa) = 43.12367 56.75876 49.94121
# Shear Modulus (GPa) = 21.89289 27.35700 24.62494
#
# Velocity S-wave (km/s) = 3.30142 3.69049 3.50136
# Velocity P-wave (km/s) = 6.00014 6.81300 6.41945
#
# Compressibility (1/GPa) = 0.02318912
#
# Stress axis : x y z
#
# Youngs Moduli (GPa) = 101.01181 55.17460 76.99124
#
# Poissons Ratio (x) = 0.37801 0.29437
# Poissons Ratio (y) = 0.69204 -0.13572
# Poissons Ratio (z) = 0.38621 -0.09726
#
# Static dielectric constant tensor:
#      x y z
#    x 3.772350 0.000000 0.000000 
#    y 0.000000 3.537270 0.000000 
#    z 0.000000 0.000000 3.314480 
# 
# 
# High freq. dielectric constant tensor:
#      x y z
#    x 1.794260 0.000000 0.000000 
#    y 0.000000 1.782960 0.000000 
#    z 0.000000 0.000000 1.763660 
# 
# From -- ./inp_files/29361.got.cif
#   From: 2010.03.12/outbox.cif.g09.slc.cpg/sg73_15_cif.got.tgz:29361.got - 2010.04.16 15:25:48.
