data_PCOD8296070
_publ_section_title
;
Structure prediction by ZEFSAII (Michael W. Deem and Ramdas Pophale) SiO2 
 PCOD8296070
Probable space group: I B C A 
;
_chemical_formula_sum "Si O2"
_cell_formula_units_Z 88
_cell_length_a 9.175932
_cell_length_b 15.243216
_cell_length_c 29.301168
_cell_angle_alpha 90.000000
_cell_angle_beta 90.000000
_cell_angle_gamma 90.000000
_cell_volume 4098.375274
_symmetry_space_group_name_H-M "I B C A "
_symmetry_group_IT_number 73
_symmetry_cell_setting 'orthorhombic'
loop_
_space_group_symop_operation_xyz
x,y,z
-x,1/2-y,z
x,-y,1/2-z
1/2-x,y,-z
-x,-y,-z
x,1/2+y,-z
-x,y,1/2+z
1/2+x,-y,z
1/2+x,1/2+y,1/2+z
1/2-x,-y,1/2+z
1/2+x,1/2-y,-z
-x,1/2+y,1/2-z
1/2-x,1/2-y,1/2-z
1/2+x,y,1/2-z
1/2-x,1/2+y,z
x,1/2-y,1/2+z
loop_
_atom_site_type_symbol
_atom_site_label
_atom_site_fract_x
_atom_site_fract_y
_atom_site_fract_z
Si Si1 0.000000 0.250000 0.062339
Si Si2 0.302989 0.000000 0.750000
Si Si3 0.750000 0.813655 0.000000
Si Si4 0.944134 0.453510 0.812681
Si Si5 0.376593 0.902315 0.115345
Si Si6 0.934301 0.542669 0.544859
Si Si7 0.935047 0.842269 0.613187
O O1 0.003557 0.335227 0.095049
O O2 0.141789 0.247748 0.029433
O O3 0.196364 0.938478 0.719565
O O4 0.407260 0.946186 0.783650
O O5 0.828624 0.876681 0.035493
O O6 0.934352 0.547462 0.839291
O O7 0.953713 0.372479 0.847143
O O8 0.233939 0.844387 0.128419
O O9 0.346337 0.972856 0.075368
O O10 0.000000 0.500000 0.500000
O O11 0.066077 0.585729 0.573022
O O12 0.000000 0.750000 0.596195
#
# Coordination Sequence:
#
# PCOD8296070 Si02
#       7
#     8   8   8  16  16  16  16
#     4  12  28  40  66  92 146 176 230 290 340 394
#     4  10  20  42  76  98 126 168 220 266 330 416
#     4  12  26  42  60 100 126 192 232 288 332 390
#     4  10  22  42  72  99 131 171 216 268 335 416
#     4  11  24  42  64  99 132 178 224 276 337 394
#     4  11  23  41  66  91 132 181 237 277 326 386
#     4  11  24  41  65  98 139 176 219 279 336 396
#
# _framework density 21.471923
#
# number of rings (size 3 to 8) (size 9 to 14) (size 15 to 20)
#    0.000    1.091    3.636    2.182    6.364    2.182 
#    0.000    0.909    8.000    0.000    0.000    0.000 
#    0.000    0.000    0.000    0.000    0.000    0.000 
#
# Total GULP energy -545357.155645 kJ/mol
# GULP energy per Si atom -12394.480810 kJ/mol
# Density = 2.142305 g / cm^3
# Si number density = 21.471923 Si / 1000 Ang^3
#
#
#
# Elastic Constant Matrix: (Units=GPa)
#
#
# Indices 1 2 3 4 5 6 
#
# 1 114.2365 26.8674 43.2988 0.0000 0.0000 0.0000
# 2 26.8674 91.7162 40.6078 0.0000 0.0000 0.0000
# 3 43.2988 40.6078 117.7572 0.0000 0.0000 0.0000
# 4 0.0000 0.0000 0.0000 16.7119 0.0000 0.0000
# 5 0.0000 0.0000 0.0000 0.0000 31.5981 0.0000
# 6 0.0000 0.0000 0.0000 0.0000 0.0000 29.3179
#
#
#
# Elastic Compliance Matrix: (Units=1/GPa)
#
#
# Indices 1 2 3 4 5 6 
#
# 1 0.010365 -0.001592 -0.003262 0.000000 0.000000 0.000000
# 2 -0.001592 0.013112 -0.003936 0.000000 0.000000 0.000000
# 3 -0.003262 -0.003936 0.011049 0.000000 0.000000 0.000000
# 4 0.000000 0.000000 0.000000 0.059838 0.000000 0.000000
# 5 0.000000 0.000000 0.000000 0.000000 0.031647 0.000000
# 6 0.000000 0.000000 0.000000 0.000000 0.000000 0.034109
#
#
# Mechanical properties :
#
#
# Convention : Reuss Voigt Hill
#
# Bulk Modulus (GPa) = 59.01375 60.58421 59.79898
# Shear Modulus (GPa) = 27.27040 29.72130 28.49585
#
# Velocity S-wave (km/s) = 3.56764 3.72451 3.64692
# Velocity P-wave (km/s) = 6.67192 6.83906 6.75601
#
# Compressibility (1/GPa) = 0.01694520
#
# Stress axis : x y z
#
# Youngs Moduli (GPa) = 96.48247 76.26379 90.50652
#
# Poissons Ratio (x) = 0.12141 0.29524
# Poissons Ratio (y) = 0.15359 0.35627
# Poissons Ratio (z) = 0.31473 0.30020
#
# Static dielectric constant tensor:
#      x y z
#    x 3.816920 0.000000 0.000000 
#    y 0.000000 3.800950 0.000000 
#    z 0.000000 0.000000 4.124130 
# 
# 
# High freq. dielectric constant tensor:
#      x y z
#    x 1.848710 0.000000 0.000000 
#    y 0.000000 1.820800 0.000000 
#    z 0.000000 0.000000 1.850490 
# 
# From -- ./inp_files/8402.got.cif
#   From: 2010.03.12/outbox.cif.g09.slc.cpg/sg73_5_cif.got.tgz:8402.got - 2010.04.16 15:25:48.
