data_PCOD8296251
_publ_section_title
;
Structure prediction by ZEFSAII (Michael W. Deem and Ramdas Pophale) SiO2 
 PCOD8296251
Probable space group: I B C A 
;
_chemical_formula_sum "Si O2"
_cell_formula_units_Z 72
_cell_length_a 17.411063
_cell_length_b 20.226130
_cell_length_c 8.859814
_cell_angle_alpha 90.000000
_cell_angle_beta 90.000000
_cell_angle_gamma 90.000000
_cell_volume 3120.058132
_symmetry_space_group_name_H-M "I B C A "
_symmetry_group_IT_number 73
_symmetry_cell_setting 'orthorhombic'
loop_
_space_group_symop_operation_xyz
x,y,z
-x,1/2-y,z
x,-y,1/2-z
1/2-x,y,-z
-x,-y,-z
x,1/2+y,-z
-x,y,1/2+z
1/2+x,-y,z
1/2+x,1/2+y,1/2+z
1/2-x,-y,1/2+z
1/2+x,1/2-y,-z
-x,1/2+y,1/2-z
1/2-x,1/2-y,1/2-z
1/2+x,y,1/2-z
1/2-x,1/2+y,z
x,1/2-y,1/2+z
loop_
_atom_site_type_symbol
_atom_site_label
_atom_site_fract_x
_atom_site_fract_y
_atom_site_fract_z
Si Si1 0.250000 0.090593 0.000000
Si Si2 0.885140 0.500000 0.250000
Si Si3 0.809910 0.000000 0.250000
Si Si4 0.533549 0.821698 0.374859
Si Si5 0.163660 0.596444 0.501047
Si Si6 0.416443 0.120040 0.926904
O O1 0.255063 0.043228 0.143939
O O2 0.172742 0.133267 0.026002
O O3 0.836891 0.448400 0.349542
O O4 0.933562 0.545969 0.365138
O O5 0.858897 0.948798 0.354313
O O6 0.500000 0.750000 0.411702
O O7 0.606005 0.841173 0.482286
O O8 0.465862 0.872579 0.420706
O O9 0.556643 0.827126 0.199511
O O10 0.250000 0.625357 0.500000
#
# Coordination Sequence:
#
# PCOD8296251 Si02
#       6
#     8   8   8  16  16  16
#     4  12  24  44  70 112 148 188 226 298 374 452
#     4  10  21  41  66 111 148 175 232 295 371 444
#     4  12  21  37  72 109 154 181 226 293 371 442
#     4  11  27  48  67  97 146 195 249 306 346 410
#     4  11  21  39  70 104 143 186 227 295 365 441
#     4  11  24  45  71  99 144 186 238 296 371 429
#
# _framework density 23.076494
#
# number of rings (size 3 to 8) (size 9 to 14) (size 15 to 20)
#    0.000    0.889    3.333    4.667    3.111    4.444 
#    2.000    1.111    0.000    0.000    0.000    0.000 
#    0.000    0.000    0.000    0.000    0.000    0.000 
#
# Total GULP energy -446038.621442 kJ/mol
# GULP energy per Si atom -12389.961707 kJ/mol
# Density = 2.302397 g / cm^3
# Si number density = 23.076494 Si / 1000 Ang^3
#
#
#
# Elastic Constant Matrix: (Units=GPa)
#
#
# Indices 1 2 3 4 5 6 
#
# 1 166.0929 70.1551 61.2691 0.0000 0.0000 0.0000
# 2 70.1551 109.8268 36.2880 0.0000 0.0000 0.0000
# 3 61.2691 36.2880 124.7526 0.0000 0.0000 0.0000
# 4 0.0000 0.0000 0.0000 31.9813 0.0000 0.0000
# 5 0.0000 0.0000 0.0000 0.0000 33.2503 0.0000
# 6 0.0000 0.0000 0.0000 0.0000 0.0000 37.4570
#
#
#
# Elastic Compliance Matrix: (Units=1/GPa)
#
#
# Indices 1 2 3 4 5 6 
#
# 1 0.009224 -0.004863 -0.003116 0.000000 0.000000 0.000000
# 2 -0.004863 0.012637 -0.001288 0.000000 0.000000 0.000000
# 3 -0.003116 -0.001288 0.009921 0.000000 0.000000 0.000000
# 4 0.000000 0.000000 0.000000 0.031268 0.000000 0.000000
# 5 0.000000 0.000000 0.000000 0.000000 0.030075 0.000000
# 6 0.000000 0.000000 0.000000 0.000000 0.000000 0.026697
#
#
# Mechanical properties :
#
#
# Convention : Reuss Voigt Hill
#
# Bulk Modulus (GPa) = 75.47450 81.78853 78.63152
# Shear Modulus (GPa) = 35.02132 36.06840 35.54486
#
# Velocity S-wave (km/s) = 3.89989 3.95776 3.92893
# Velocity P-wave (km/s) = 7.28396 7.51029 7.39799
#
# Compressibility (1/GPa) = 0.01324951
#
# Stress axis : x y z
#
# Youngs Moduli (GPa) = 108.41348 79.13372 100.80039
#
# Poissons Ratio (x) = 0.38480 0.31406
# Poissons Ratio (y) = 0.52717 0.12980
# Poissons Ratio (z) = 0.33778 0.10190
#
# Static dielectric constant tensor:
#      x y z
#    x 4.262840 0.000000 0.000000 
#    y 0.000000 3.886480 0.000000 
#    z 0.000000 0.000000 4.561390 
# 
# 
# High freq. dielectric constant tensor:
#      x y z
#    x 1.910770 0.000000 0.000000 
#    y 0.000000 1.867460 0.000000 
#    z 0.000000 0.000000 1.937150 
# 
# From -- ./inp_files/5497.got.cif
#   From: 2010.03.12/outbox.cif.g09.slc.cpg/sg73_3_cif.got.tgz:5497.got - 2010.04.16 15:25:48.
