data_PCOD8296291
_publ_section_title
;
Structure prediction by ZEFSAII (Michael W. Deem and Ramdas Pophale) SiO2 
 PCOD8296291
Probable space group: I B C A 
;
_chemical_formula_sum "Si O2"
_cell_formula_units_Z 120
_cell_length_a 9.434588
_cell_length_b 20.443759
_cell_length_c 29.568182
_cell_angle_alpha 90.000000
_cell_angle_beta 90.000000
_cell_angle_gamma 90.000000
_cell_volume 5703.064916
_symmetry_space_group_name_H-M "I B C A "
_symmetry_group_IT_number 73
_symmetry_cell_setting 'orthorhombic'
loop_
_space_group_symop_operation_xyz
x,y,z
-x,1/2-y,z
x,-y,1/2-z
1/2-x,y,-z
-x,-y,-z
x,1/2+y,-z
-x,y,1/2+z
1/2+x,-y,z
1/2+x,1/2+y,1/2+z
1/2-x,-y,1/2+z
1/2+x,1/2-y,-z
-x,1/2+y,1/2-z
1/2-x,1/2-y,1/2-z
1/2+x,y,1/2-z
1/2-x,1/2+y,z
x,1/2-y,1/2+z
loop_
_atom_site_type_symbol
_atom_site_label
_atom_site_fract_x
_atom_site_fract_y
_atom_site_fract_z
Si Si1 0.390231 0.309497 0.030109
Si Si2 0.591068 0.939118 0.514153
Si Si3 0.000000 0.750000 0.691737
Si Si4 0.283154 0.542587 0.160719
Si Si5 0.124128 0.927973 0.211074
Si Si6 0.322622 0.841919 0.866150
Si Si7 0.084513 0.566046 0.380653
Si Si8 0.852135 0.127782 0.272038
O O1 0.500000 0.250000 0.028379
O O2 0.354579 0.329610 0.081426
O O3 0.250000 0.292843 0.000000
O O4 0.466987 0.373238 0.009580
O O5 0.750000 0.953964 0.500000
O O6 0.584268 0.927175 0.566514
O O7 0.500000 0.000000 0.500000
O O8 0.129418 0.722823 0.660879
O O9 0.075903 0.801393 0.724905
O O10 0.325227 0.502982 0.207031
O O11 0.171922 0.499275 0.132555
O O12 0.421969 0.561338 0.133247
O O13 0.215999 0.609575 0.179164
O O14 0.092073 0.901364 0.159252
O O15 0.240049 0.877751 0.231685
O O16 0.978165 0.924161 0.238936
O O17 0.158493 0.867254 0.861396
#
# Coordination Sequence:
#
# PCOD8296291 Si02
#       8
#    16  16   8  16  16  16  16  16
#     4  11  23  45  70  96 136 186 235 286 348 424
#     4  11  23  40  65 101 137 174 226 292 348 404
#     4  10  24  46  70  98 134 198 228 278 350 406
#     4  11  23  40  68 101 136 180 223 284 355 412
#     4  10  24  40  69  98 133 177 226 288 349 408
#     4  10  21  43  69  91 134 182 226 279 347 410
#     4  11  22  41  66 102 137 174 228 283 347 420
#     4  11  24  43  67 102 137 180 236 278 341 414
#
# _framework density 21.041316999999999
#
# number of rings (size 3 to 8) (size 9 to 14) (size 15 to 20)
#    0.000    1.333    4.667    1.200    5.600    3.733 
#    2.400    0.667    1.467    0.000    0.000    0.000 
#    0.000    0.000    0.000    0.000    0.000    0.000 
#
# Total GULP energy -743342.265576 kJ/mol
# GULP energy per Si atom -12389.037760 kJ/mol
# Density = 2.099343 g / cm^3
# Si number density = 21.041317 Si / 1000 Ang^3
#
#
#
# Elastic Constant Matrix: (Units=GPa)
#
#
# Indices 1 2 3 4 5 6 
#
# 1 120.0373 45.4020 34.5078 0.0000 0.0000 0.0000
# 2 45.4020 112.5691 18.5760 0.0000 0.0000 0.0000
# 3 34.5078 18.5760 81.3159 0.0000 0.0000 0.0000
# 4 0.0000 0.0000 0.0000 24.1627 0.0000 0.0000
# 5 0.0000 0.0000 0.0000 0.0000 34.7072 0.0000
# 6 0.0000 0.0000 0.0000 0.0000 0.0000 50.7551
#
#
#
# Elastic Compliance Matrix: (Units=1/GPa)
#
#
# Indices 1 2 3 4 5 6 
#
# 1 0.010823 -0.003748 -0.003736 0.000000 0.000000 0.000000
# 2 -0.003748 0.010530 -0.000815 0.000000 0.000000 0.000000
# 3 -0.003736 -0.000815 0.014069 0.000000 0.000000 0.000000
# 4 0.000000 0.000000 0.000000 0.041386 0.000000 0.000000
# 5 0.000000 0.000000 0.000000 0.000000 0.028812 0.000000
# 6 0.000000 0.000000 0.000000 0.000000 0.000000 0.019702
#
#
# Mechanical properties :
#
#
# Convention : Reuss Voigt Hill
#
# Bulk Modulus (GPa) = 53.12773 56.76598 54.94686
# Shear Modulus (GPa) = 33.73900 36.28743 35.01321
#
# Velocity S-wave (km/s) = 4.00867 4.15731 4.08367
# Velocity P-wave (km/s) = 6.83593 7.07681 6.95741
#
# Compressibility (1/GPa) = 0.01882256
#
# Stress axis : x y z
#
# Youngs Moduli (GPa) = 92.39844 94.96913 71.07587
#
# Poissons Ratio (x) = 0.35599 0.26557
# Poissons Ratio (y) = 0.34635 0.05791
# Poissons Ratio (z) = 0.34525 0.07737
#
# Static dielectric constant tensor:
#      x y z
#    x 3.881230 0.000000 0.000000 
#    y 0.000000 3.877120 0.000000 
#    z 0.000000 0.000000 3.963560 
# 
# 
# High freq. dielectric constant tensor:
#      x y z
#    x 1.827970 0.000000 0.000000 
#    y 0.000000 1.818770 0.000000 
#    z 0.000000 0.000000 1.834900 
# 
# From -- ./inp_files/33649.got.cif
#   From: 2010.03.12/outbox.cif.g09.slc.cpg/sg73_17_cif.got.tgz:33649.got - 2010.04.16 15:25:48.
