data_PCOD8296564
_publ_section_title
;
Structure prediction by ZEFSAII (Michael W. Deem and Ramdas Pophale) SiO2 
 PCOD8296564
Probable space group: I B C A 
;
_chemical_formula_sum "Si O2"
_cell_formula_units_Z 72
_cell_length_a 24.729306
_cell_length_b 13.051511
_cell_length_c 9.099912
_cell_angle_alpha 90.000000
_cell_angle_beta 90.000000
_cell_angle_gamma 90.000000
_cell_volume 2937.040362
_symmetry_space_group_name_H-M "I B C A "
_symmetry_group_IT_number 73
_symmetry_cell_setting 'orthorhombic'
loop_
_space_group_symop_operation_xyz
x,y,z
-x,1/2-y,z
x,-y,1/2-z
1/2-x,y,-z
-x,-y,-z
x,1/2+y,-z
-x,y,1/2+z
1/2+x,-y,z
1/2+x,1/2+y,1/2+z
1/2-x,-y,1/2+z
1/2+x,1/2-y,-z
-x,1/2+y,1/2-z
1/2-x,1/2-y,1/2-z
1/2+x,y,1/2-z
1/2-x,1/2+y,z
x,1/2-y,1/2+z
loop_
_atom_site_type_symbol
_atom_site_label
_atom_site_fract_x
_atom_site_fract_y
_atom_site_fract_z
Si Si1 0.552014 0.850618 0.709853
Si Si2 0.256648 0.000000 0.750000
Si Si3 0.670681 0.159495 0.763501
Si Si4 0.545948 0.866143 0.050153
Si Si5 0.164546 0.371037 0.574097
O O1 0.613108 0.893007 0.691282
O O2 0.507791 0.922086 0.621101
O O3 0.550489 0.739713 0.638216
O O4 0.535801 0.844906 0.879778
O O5 0.218559 0.912596 0.823137
O O6 0.294232 0.959853 0.618465
O O7 0.676759 0.167529 0.588620
O O8 0.674867 0.274776 0.820119
O O9 0.603680 0.919677 0.082128
#
# Coordination Sequence:
#
# PCOD8296564 Si02
#       5
#    16   8  16  16  16
#     4   9  16  30  54  85 117 149 190 238 295 358
#     4  12  24  40  60  84 120 160 204 250 300 352
#     4  10  23  41  63  91 121 158 203 251 302 358
#     4   9  16  30  54  85 117 149 190 238 295 358
#     4  10  23  41  63  91 121 158 203 251 302 358
#
# _framework density 24.514474
#
# number of rings (size 3 to 8) (size 9 to 14) (size 15 to 20)
#    0.000    2.222    0.000    4.000    0.000    5.333 
#    0.000    1.111    0.000    5.333    0.000    0.000 
#    0.000    0.000    0.000    0.000    0.000    0.000 
#
# Total GULP energy -446071.358383 kJ/mol
# GULP energy per Si atom -12390.871066 kJ/mol
# Density = 2.445868 g / cm^3
# Si number density = 24.514474 Si / 1000 Ang^3
#
#
#
# Elastic Constant Matrix: (Units=GPa)
#
#
# Indices 1 2 3 4 5 6 
#
# 1 220.0071 35.2084 79.1206 0.0000 0.0000 0.0000
# 2 35.2084 28.1223 25.7891 0.0000 0.0000 0.0000
# 3 79.1206 25.7891 145.7744 0.0000 0.0000 0.0000
# 4 0.0000 0.0000 0.0000 13.0556 0.0000 0.0000
# 5 0.0000 0.0000 0.0000 0.0000 32.1167 0.0000
# 6 0.0000 0.0000 0.0000 0.0000 0.0000 -31.2830
#
#
#
# Elastic Compliance Matrix: (Units=1/GPa)
#
#
# Indices 1 2 3 4 5 6 
#
# 1 0.006330 -0.005699 -0.002428 0.000000 0.000000 0.000000
# 2 -0.005699 0.047576 -0.005323 0.000000 0.000000 0.000000
# 3 -0.002428 -0.005323 0.009119 0.000000 0.000000 0.000000
# 4 0.000000 0.000000 0.000000 0.076596 0.000000 0.000000
# 5 0.000000 0.000000 0.000000 0.000000 0.031136 0.000000
# 6 0.000000 0.000000 0.000000 0.000000 0.000000 -0.031966
#
#
# Mechanical properties :
#
#
# Convention : Reuss Voigt Hill
#
# Bulk Modulus (GPa) = 27.68158 74.90444 51.29301
# Shear Modulus (GPa) = 28.13197 19.69692 23.91444
#
# Velocity S-wave (km/s) = 3.39125 2.83765 3.12673
# Velocity P-wave (km/s) = 5.16242 6.43101 5.83131
#
# Compressibility (1/GPa) = 0.03612511
#
# Stress axis : x y z
#
# Youngs Moduli (GPa) = 157.96722 21.01903 109.65758
#
# Poissons Ratio (x) = 0.11979 0.26621
# Poissons Ratio (y) = 0.90030 0.58374
# Poissons Ratio (z) = 0.38349 0.11189
#
# Static dielectric constant tensor:
#      x y z
#    x 6.785640 0.000000 0.000000 
#    y 0.000000 4.079170 0.000000 
#    z 0.000000 0.000000 4.444600 
# 
# 
# High freq. dielectric constant tensor:
#      x y z
#    x 2.015020 0.000000 0.000000 
#    y 0.000000 1.934790 0.000000 
#    z 0.000000 0.000000 1.977780 
# 
# From -- ./inp_files/7614.got.cif
#   From: 2010.03.12/outbox.cif.g09.slc.cpg/sg73_4_cif.got.tgz:7614.got - 2010.04.16 15:25:48.
