data_PCOD8296771
_publ_section_title
;
Structure prediction by ZEFSAII (Michael W. Deem and Ramdas Pophale) SiO2 
 PCOD8296771
Probable space group: I B C A 
;
_chemical_formula_sum "Si O2"
_cell_formula_units_Z 80
_cell_length_a 14.285860
_cell_length_b 22.555406
_cell_length_c 10.783794
_cell_angle_alpha 90.000000
_cell_angle_beta 90.000000
_cell_angle_gamma 90.000000
_cell_volume 3474.790470
_symmetry_space_group_name_H-M "I B C A "
_symmetry_group_IT_number 73
_symmetry_cell_setting 'orthorhombic'
loop_
_space_group_symop_operation_xyz
x,y,z
-x,1/2-y,z
x,-y,1/2-z
1/2-x,y,-z
-x,-y,-z
x,1/2+y,-z
-x,y,1/2+z
1/2+x,-y,z
1/2+x,1/2+y,1/2+z
1/2-x,-y,1/2+z
1/2+x,1/2-y,-z
-x,1/2+y,1/2-z
1/2-x,1/2-y,1/2-z
1/2+x,y,1/2-z
1/2-x,1/2+y,z
x,1/2-y,1/2+z
loop_
_atom_site_type_symbol
_atom_site_label
_atom_site_fract_x
_atom_site_fract_y
_atom_site_fract_z
Si Si1 0.692252 0.634757 0.612560
Si Si2 0.952681 0.431037 0.269816
Si Si3 0.898298 0.234669 0.458315
Si Si4 0.624024 0.643048 0.248858
Si Si5 0.148891 0.640074 0.526098
O O1 0.750000 0.602934 0.500000
O O2 0.599736 0.600024 0.653532
O O3 0.662538 0.700037 0.562585
O O4 0.763886 0.635860 0.729236
O O5 0.938409 0.500000 0.250000
O O6 0.909035 0.408800 0.399257
O O7 0.062949 0.416049 0.276597
O O8 0.914363 0.194795 0.336505
O O9 0.846836 0.294833 0.409743
O O10 0.000000 0.250000 0.513169
O O11 0.602366 0.656582 0.106165
O O12 0.250000 0.612026 0.500000
#
# Coordination Sequence:
#
# PCOD8296771 Si02
#       5
#    16  16  16  16  16
#     4  10  24  48  71 105 147 194 244 308 378 442
#     4  12  28  48  72 104 145 197 256 309 372 454
#     4  11  23  43  75 109 149 192 235 304 377 454
#     4  11  25  46  70 107 148 190 250 308 379 446
#     4  12  25  45  73 108 145 191 247 313 380 448
#
# _framework density 23.022970999999998
#
# number of rings (size 3 to 8) (size 9 to 14) (size 15 to 20)
#    0.000    0.800    4.000    3.000    5.600    4.800 
#    0.000    0.000    0.000    0.000    0.000    0.000 
#    0.000    0.000    0.000    0.000    0.000    0.000 
#
# Total GULP energy -495781.377634 kJ/mol
# GULP energy per Si atom -12394.534441 kJ/mol
# Density = 2.297057 g / cm^3
# Si number density = 23.022971 Si / 1000 Ang^3
#
#
#
# Elastic Constant Matrix: (Units=GPa)
#
#
# Indices 1 2 3 4 5 6 
#
# 1 126.0292 48.8099 19.8130 0.0001 0.0000 0.0000
# 2 48.8099 158.8181 50.2696 0.0001 0.0000 0.0000
# 3 19.8130 50.2696 119.7257 0.0003 0.0004 0.0002
# 4 0.0001 0.0001 0.0003 29.6232 0.0000 0.0001
# 5 0.0000 0.0000 0.0004 0.0000 23.7226 0.0000
# 6 0.0000 0.0000 0.0002 0.0001 0.0000 26.1702
#
#
#
# Elastic Compliance Matrix: (Units=1/GPa)
#
#
# Indices 1 2 3 4 5 6 
#
# 1 0.009022 -0.002653 -0.000379 0.000000 0.000000 0.000000
# 2 -0.002653 0.008042 -0.002937 0.000000 0.000000 0.000000
# 3 -0.000379 -0.002937 0.009649 0.000000 0.000000 0.000000
# 4 0.000000 0.000000 0.000000 0.033757 0.000000 0.000000
# 5 0.000000 0.000000 0.000000 0.000000 0.042154 0.000000
# 6 0.000000 0.000000 0.000000 0.000000 0.000000 0.038211
#
#
# Mechanical properties :
#
#
# Convention : Reuss Voigt Hill
#
# Bulk Modulus (GPa) = 67.69034 71.37312 69.53173
# Shear Modulus (GPa) = 31.70634 34.94857 33.32746
#
# Velocity S-wave (km/s) = 3.71504 3.90036 3.80883
# Velocity P-wave (km/s) = 6.91860 7.16602 7.04340
#
# Compressibility (1/GPa) = 0.01477316
#
# Stress axis : x y z
#
# Youngs Moduli (GPa) = 110.84497 124.35469 103.64267
#
# Poissons Ratio (x) = 0.32986 0.03930
# Poissons Ratio (y) = 0.29403 0.30444
# Poissons Ratio (z) = 0.04203 0.36529
#
# Static dielectric constant tensor:
#      x y z
#    x 4.327770 0.000000 0.000000 
#    y 0.000000 3.727410 0.000000 
#    z 0.000000 0.000000 4.287330 
# 
# 
# High freq. dielectric constant tensor:
#      x y z
#    x 1.930510 0.000000 0.000000 
#    y 0.000000 1.870320 0.000000 
#    z 0.000000 0.000000 1.918260 
# 
# From -- ./inp_files/10787.got.cif
#   From: 2010.03.12/outbox.cif.g09.slc.cpg/sg73_6_cif.got.tgz:10787.got - 2010.04.16 15:25:48.
