data_PCOD8296277
_publ_section_title
;
Structure prediction by ZEFSAII (Michael W. Deem and Ramdas Pophale) SiO2 
 PCOD8296277
Probable space group: I B C A 
;
_chemical_formula_sum "Si O2"
_cell_formula_units_Z 88
_cell_length_a 17.354252
_cell_length_b 17.671973
_cell_length_c 13.238295
_cell_angle_alpha 90.000000
_cell_angle_beta 90.000000
_cell_angle_gamma 90.000000
_cell_volume 4059.971580
_symmetry_space_group_name_H-M "I B C A "
_symmetry_group_IT_number 73
_symmetry_cell_setting 'orthorhombic'
loop_
_space_group_symop_operation_xyz
x,y,z
-x,1/2-y,z
x,-y,1/2-z
1/2-x,y,-z
-x,-y,-z
x,1/2+y,-z
-x,y,1/2+z
1/2+x,-y,z
1/2+x,1/2+y,1/2+z
1/2-x,-y,1/2+z
1/2+x,1/2-y,-z
-x,1/2+y,1/2-z
1/2-x,1/2-y,1/2-z
1/2+x,y,1/2-z
1/2-x,1/2+y,z
x,1/2-y,1/2+z
loop_
_atom_site_type_symbol
_atom_site_label
_atom_site_fract_x
_atom_site_fract_y
_atom_site_fract_z
Si Si1 0.500000 0.250000 0.439733
Si Si2 0.939773 0.610818 0.528462
Si Si3 0.336090 0.873214 0.980754
Si Si4 0.056243 0.988147 0.131790
Si Si5 0.686212 0.784005 0.883116
Si Si6 0.151587 0.272848 0.152343
O O1 0.504212 0.322798 0.514438
O O2 0.428339 0.270493 0.366018
O O3 0.935115 0.569254 0.420760
O O4 0.856782 0.645977 0.561405
O O5 0.973001 0.551811 0.612079
O O6 0.378360 0.938373 0.920981
O O7 0.347538 0.795667 0.917980
O O8 0.250000 0.901695 0.000000
O O9 0.363391 0.852666 0.094412
O O10 0.070822 0.000000 0.250000
O O11 0.779654 0.778648 0.899025
O O12 0.669521 0.793733 0.765526
#
# Coordination Sequence:
#
# PCOD8296277 Si02
#       6
#     8  16  16  16  16  16
#     4  12  22  40  70  96 130 174 220 290 342 394
#     4  11  24  42  66 100 136 178 229 291 344 411
#     4  10  21  43  62  91 138 175 218 285 342 407
#     4  11  26  43  64  99 140 188 235 279 349 424
#     4  10  22  41  69  99 130 177 228 285 350 410
#     4  10  22  39  68 101 132 167 228 288 348 408
#
# _framework density 21.675028000000001
#
# number of rings (size 3 to 8) (size 9 to 14) (size 15 to 20)
#    0.000    1.455    3.636    0.000    5.091    0.727 
#    3.273    0.000    0.000    0.000    0.000    0.000 
#    0.000    0.000    0.000    0.000    0.000    0.000 
#
# Total GULP energy -545078.190805 kJ/mol
# GULP energy per Si atom -12388.140700 kJ/mol
# Density = 2.162569 g / cm^3
# Si number density = 21.675028 Si / 1000 Ang^3
#
#
#
# Elastic Constant Matrix: (Units=GPa)
#
#
# Indices 1 2 3 4 5 6 
#
# 1 129.5557 49.8169 45.7641 0.0000 0.0000 0.0000
# 2 49.8169 128.8703 60.7770 0.0000 0.0000 0.0000
# 3 45.7641 60.7770 127.0819 0.0000 0.0000 0.0000
# 4 0.0000 0.0000 0.0000 30.1460 0.0000 0.0000
# 5 0.0000 0.0000 0.0000 0.0000 30.0096 0.0000
# 6 0.0000 0.0000 0.0000 0.0000 0.0000 33.4750
#
#
#
# Elastic Compliance Matrix: (Units=1/GPa)
#
#
# Indices 1 2 3 4 5 6 
#
# 1 0.009500 -0.002659 -0.002150 0.000000 0.000000 0.000000
# 2 -0.002659 0.010764 -0.004190 0.000000 0.000000 0.000000
# 3 -0.002150 -0.004190 0.010647 0.000000 0.000000 0.000000
# 4 0.000000 0.000000 0.000000 0.033172 0.000000 0.000000
# 5 0.000000 0.000000 0.000000 0.000000 0.033323 0.000000
# 6 0.000000 0.000000 0.000000 0.000000 0.000000 0.029873
#
#
# Mechanical properties :
#
#
# Convention : Reuss Voigt Hill
#
# Bulk Modulus (GPa) = 77.43680 77.58045 77.50862
# Shear Modulus (GPa) = 33.42675 34.00278 33.71476
#
# Velocity S-wave (km/s) = 3.93132 3.96505 3.94822
# Velocity P-wave (km/s) = 7.51072 7.53872 7.52473
#
# Compressibility (1/GPa) = 0.01291376
#
# Stress axis : x y z
#
# Youngs Moduli (GPa) = 105.25902 92.90477 93.92228
#
# Poissons Ratio (x) = 0.24701 0.20191
# Poissons Ratio (y) = 0.27985 0.39356
# Poissons Ratio (z) = 0.22628 0.38930
#
# Static dielectric constant tensor:
#      x y z
#    x 4.201110 0.000000 0.000000 
#    y 0.000000 3.833570 0.000000 
#    z 0.000000 0.000000 4.182740 
# 
# 
# High freq. dielectric constant tensor:
#      x y z
#    x 1.865240 0.000000 0.000000 
#    y 0.000000 1.833060 0.000000 
#    z 0.000000 0.000000 1.854740 
# 
# From -- ./inp_files/17952.got.cif
#   From: 2010.03.12/outbox.cif.g09.slc.cpg/sg73_9_cif.got.tgz:17952.got - 2010.04.16 15:25:48.
