data_PCOD8296305
_publ_section_title
;
Structure prediction by ZEFSAII (Michael W. Deem and Ramdas Pophale) SiO2 
 PCOD8296305
Probable space group: I B C A 
;
_chemical_formula_sum "Si O2"
_cell_formula_units_Z 104
_cell_length_a 27.857397
_cell_length_b 8.760583
_cell_length_c 19.454274
_cell_angle_alpha 90.000000
_cell_angle_beta 90.000000
_cell_angle_gamma 90.000000
_cell_volume 4747.757957
_symmetry_space_group_name_H-M "I B C A "
_symmetry_group_IT_number 73
_symmetry_cell_setting 'orthorhombic'
loop_
_space_group_symop_operation_xyz
x,y,z
-x,1/2-y,z
x,-y,1/2-z
1/2-x,y,-z
-x,-y,-z
x,1/2+y,-z
-x,y,1/2+z
1/2+x,-y,z
1/2+x,1/2+y,1/2+z
1/2-x,-y,1/2+z
1/2+x,1/2-y,-z
-x,1/2+y,1/2-z
1/2-x,1/2-y,1/2-z
1/2+x,y,1/2-z
1/2-x,1/2+y,z
x,1/2-y,1/2+z
loop_
_atom_site_type_symbol
_atom_site_label
_atom_site_fract_x
_atom_site_fract_y
_atom_site_fract_z
Si Si1 0.293039 0.753636 0.147274
Si Si2 0.040204 0.362904 0.441800
Si Si3 0.182821 0.000000 0.750000
Si Si4 0.970547 0.382235 0.093062
Si Si5 0.376995 0.522917 0.169600
Si Si6 0.276526 0.047542 0.071070
Si Si7 0.861482 0.310311 0.871307
O O1 0.344860 0.670351 0.150380
O O2 0.252827 0.621845 0.136467
O O3 0.285673 0.863659 0.214350
O O4 0.288009 0.868807 0.082606
O O5 0.055224 0.331645 0.521394
O O6 0.084826 0.342991 0.392237
O O7 0.000000 0.250000 0.414315
O O8 0.017054 0.525606 0.431331
O O9 0.149263 0.082468 0.805837
O O10 0.930955 0.458136 0.141305
O O11 0.000000 0.250000 0.132891
O O12 0.381380 0.500000 0.250000
O O13 0.352807 0.369786 0.140058
O O14 0.326248 0.140480 0.066708
O O15 0.250000 0.070118 0.000000
#
# Coordination Sequence:
#
# PCOD8296305 Si02
#       7
#    16  16   8  16  16  16  16
#     4  11  25  46  71  99 140 181 233 287 351 425
#     4  10  21  45  69 100 138 182 236 284 360 413
#     4  10  24  46  70 102 136 188 238 284 360 422
#     4  10  24  42  69 104 140 183 235 290 351 421
#     4  12  25  47  70 106 144 190 239 289 353 424
#     4  11  26  48  71 107 137 180 237 295 362 424
#     4  11  24  45  74 101 142 187 233 298 347 429
#
# _framework density 21.905076000000001
#
# number of rings (size 3 to 8) (size 9 to 14) (size 15 to 20)
#    0.000    1.231    3.077    1.385    6.462    2.462 
#   13.846    0.769    0.000    0.000    0.000    0.000 
#    0.000    0.000    0.000    0.000    0.000    0.000 
#
# Total GULP energy -644354.457138 kJ/mol
# GULP energy per Si atom -12391.431868 kJ/mol
# Density = 2.185522 g / cm^3
# Si number density = 21.905076 Si / 1000 Ang^3
#
#
#
# Elastic Constant Matrix: (Units=GPa)
#
#
# Indices 1 2 3 4 5 6 
#
# 1 118.3257 49.0501 54.2470 0.0000 0.0000 0.0000
# 2 49.0501 137.3079 46.3737 0.0000 0.0000 0.0000
# 3 54.2470 46.3737 99.0758 0.0000 0.0000 0.0000
# 4 0.0000 0.0000 0.0000 26.8699 0.0000 0.0000
# 5 0.0000 0.0000 0.0000 0.0000 21.2846 0.0000
# 6 0.0000 0.0000 0.0000 0.0000 0.0000 39.0341
#
#
#
# Elastic Compliance Matrix: (Units=1/GPa)
#
#
# Indices 1 2 3 4 5 6 
#
# 1 0.011936 -0.002443 -0.005392 0.000000 0.000000 0.000000
# 2 -0.002443 0.009150 -0.002945 0.000000 0.000000 0.000000
# 3 -0.005392 -0.002945 0.014424 0.000000 0.000000 0.000000
# 4 0.000000 0.000000 0.000000 0.037216 0.000000 0.000000
# 5 0.000000 0.000000 0.000000 0.000000 0.046982 0.000000
# 6 0.000000 0.000000 0.000000 0.000000 0.000000 0.025619
#
#
# Mechanical properties :
#
#
# Convention : Reuss Voigt Hill
#
# Bulk Modulus (GPa) = 71.68384 72.67231 72.17808
# Shear Modulus (GPa) = 29.14814 31.10697 30.12755
#
# Velocity S-wave (km/s) = 3.65177 3.77248 3.71262
# Velocity P-wave (km/s) = 7.11171 7.22659 7.16938
#
# Compressibility (1/GPa) = 0.01395015
#
# Stress axis : x y z
#
# Youngs Moduli (GPa) = 83.78175 109.28602 69.32836
#
# Poissons Ratio (x) = 0.26696 0.37381
# Poissons Ratio (y) = 0.20466 0.20420
# Poissons Ratio (z) = 0.45174 0.32189
#
# Static dielectric constant tensor:
#      x y z
#    x 3.775520 0.000000 0.000000 
#    y 0.000000 4.412390 0.000000 
#    z 0.000000 0.000000 3.908240 
# 
# 
# High freq. dielectric constant tensor:
#      x y z
#    x 1.856370 0.000000 0.000000 
#    y 0.000000 1.887600 0.000000 
#    z 0.000000 0.000000 1.848680 
# 
# From -- ./inp_files/27589.got.cif
#   From: 2010.03.12/outbox.cif.g09.slc.cpg/sg73_14_cif.got.tgz:27589.got - 2010.04.16 15:25:48.
