data_PCOD8296966
_publ_section_title
;
Structure prediction by ZEFSAII (Michael W. Deem and Ramdas Pophale) SiO2 
 PCOD8296966
Probable space group: I B C A 
;
_chemical_formula_sum "Si O2"
_cell_formula_units_Z 48
_cell_length_a 8.706381
_cell_length_b 9.290651
_cell_length_c 26.413005
_cell_angle_alpha 90.000000
_cell_angle_beta 90.000000
_cell_angle_gamma 90.000000
_cell_volume 2136.493758
_symmetry_space_group_name_H-M "I B C A "
_symmetry_group_IT_number 73
_symmetry_cell_setting 'orthorhombic'
loop_
_space_group_symop_operation_xyz
x,y,z
-x,1/2-y,z
x,-y,1/2-z
1/2-x,y,-z
-x,-y,-z
x,1/2+y,-z
-x,y,1/2+z
1/2+x,-y,z
1/2+x,1/2+y,1/2+z
1/2-x,-y,1/2+z
1/2+x,1/2-y,-z
-x,1/2+y,1/2-z
1/2-x,1/2-y,1/2-z
1/2+x,y,1/2-z
1/2-x,1/2+y,z
x,1/2-y,1/2+z
loop_
_atom_site_type_symbol
_atom_site_label
_atom_site_fract_x
_atom_site_fract_y
_atom_site_fract_z
Si Si1 0.109607 0.887601 0.855842
Si Si2 0.399860 0.388182 0.969183
Si Si3 0.084699 0.106172 0.295458
O O1 0.149270 0.938896 0.913043
O O2 0.263603 0.847363 0.825699
O O3 0.000000 0.750000 0.853325
O O4 0.031880 0.027436 0.832514
O O5 0.500000 0.250000 0.961030
O O6 0.250000 0.346588 0.000000
O O7 0.500000 0.500000 0.000000
O O8 0.000000 0.250000 0.274398
O O9 0.131370 0.000000 0.250000
#
# Coordination Sequence:
#
# PCOD8296966 Si02
#       3
#    16  16  16
#     4  11  25  44  67  97 131 172 219 267 323 387
#     4  11  24  42  66  97 133 172 217 268 323 384
#     4  12  26  45  69  96 131 172 217 270 327 388
#
# _framework density 22.466715000000001
#
# number of rings (size 3 to 8) (size 9 to 14) (size 15 to 20)
#    0.000    0.667    0.000    7.000    0.000   14.667 
#    0.000    1.667    0.000    0.000    0.000    0.000 
#    0.000    0.000    0.000    0.000    0.000    0.000 
#
# Total GULP energy -297713.302881 kJ/mol
# GULP energy per Si atom -12404.720953 kJ/mol
# Density = 2.241558 g / cm^3
# Si number density = 22.466715 Si / 1000 Ang^3
#
#
#
# Elastic Constant Matrix: (Units=GPa)
#
#
# Indices 1 2 3 4 5 6 
#
# 1 130.2434 22.9876 54.6992 0.0000 0.0000 0.0000
# 2 22.9876 102.0786 38.5862 0.0000 0.0000 0.0000
# 3 54.6992 38.5862 175.4690 0.0000 0.0000 0.0000
# 4 0.0000 0.0000 0.0000 34.7708 0.0000 0.0000
# 5 0.0000 0.0000 0.0000 0.0000 39.3614 0.0000
# 6 0.0000 0.0000 0.0000 0.0000 0.0000 41.4209
#
#
#
# Elastic Compliance Matrix: (Units=1/GPa)
#
#
# Indices 1 2 3 4 5 6 
#
# 1 0.008936 -0.001046 -0.002555 0.000000 0.000000 0.000000
# 2 -0.001046 0.010807 -0.002050 0.000000 0.000000 0.000000
# 3 -0.002555 -0.002050 0.006947 0.000000 0.000000 0.000000
# 4 0.000000 0.000000 0.000000 0.028760 0.000000 0.000000
# 5 0.000000 0.000000 0.000000 0.000000 0.025406 0.000000
# 6 0.000000 0.000000 0.000000 0.000000 0.000000 0.024142
#
#
# Mechanical properties :
#
#
# Convention : Reuss Voigt Hill
#
# Bulk Modulus (GPa) = 64.99792 71.14856 68.07324
# Shear Modulus (GPa) = 41.17604 42.54515 41.86060
#
# Velocity S-wave (km/s) = 4.28572 4.35638 4.32119
# Velocity P-wave (km/s) = 7.31323 7.55257 7.43386
#
# Compressibility (1/GPa) = 0.01538511
#
# Stress axis : x y z
#
# Youngs Moduli (GPa) = 111.90873 92.53237 143.95707
#
# Poissons Ratio (x) = 0.09682 0.36788
# Poissons Ratio (y) = 0.11709 0.29516
# Poissons Ratio (z) = 0.28598 0.18972
#
# Static dielectric constant tensor:
#      x y z
#    x 2.516130 0.000000 0.000000 
#    y 0.000000 4.002190 0.000000 
#    z 0.000000 0.000000 4.945720 
# 
# 
# High freq. dielectric constant tensor:
#      x y z
#    x 1.899340 0.000000 0.000000 
#    y 0.000000 1.890480 0.000000 
#    z 0.000000 0.000000 1.908710 
# 
# From -- ./inp_files/3437.got.cif
#   From: 2010.03.12/outbox.cif.g09.slc.cpg/sg73_2_cif.got.tgz:3437.got - 2010.04.16 15:25:48.
