data_PCOD8296800
_publ_section_title
;
Structure prediction by ZEFSAII (Michael W. Deem and Ramdas Pophale) SiO2 
 PCOD8296800
Probable space group: I B C A 
;
_chemical_formula_sum "Si O2"
_cell_formula_units_Z 120
_cell_length_a 12.465829
_cell_length_b 16.205937
_cell_length_c 27.526900
_cell_angle_alpha 90.000000
_cell_angle_beta 90.000000
_cell_angle_gamma 90.000000
_cell_volume 5560.996434
_symmetry_space_group_name_H-M "I B C A "
_symmetry_group_IT_number 73
_symmetry_cell_setting 'orthorhombic'
loop_
_space_group_symop_operation_xyz
x,y,z
-x,1/2-y,z
x,-y,1/2-z
1/2-x,y,-z
-x,-y,-z
x,1/2+y,-z
-x,y,1/2+z
1/2+x,-y,z
1/2+x,1/2+y,1/2+z
1/2-x,-y,1/2+z
1/2+x,1/2-y,-z
-x,1/2+y,1/2-z
1/2-x,1/2-y,1/2-z
1/2+x,y,1/2-z
1/2-x,1/2+y,z
x,1/2-y,1/2+z
loop_
_atom_site_type_symbol
_atom_site_label
_atom_site_fract_x
_atom_site_fract_y
_atom_site_fract_z
Si Si1 0.446109 0.335063 0.315084
Si Si2 0.333709 0.000000 0.250000
Si Si3 0.124754 0.774672 0.408433
Si Si4 0.101618 0.975212 0.848773
Si Si5 0.297312 0.336637 0.230499
Si Si6 0.632971 0.912552 0.015146
Si Si7 0.976368 0.062256 0.931058
Si Si8 0.782654 0.637398 0.121805
O O1 0.500000 0.250000 0.300644
O O2 0.356321 0.323171 0.357329
O O3 0.535043 0.393049 0.338248
O O4 0.395991 0.366116 0.264487
O O5 0.397689 0.973616 0.298246
O O6 0.278106 0.084129 0.266834
O O7 0.152320 0.829179 0.454953
O O8 0.203847 0.696975 0.408423
O O9 0.000000 0.750000 0.410355
O O10 0.218797 0.948560 0.869108
O O11 0.048251 0.036930 0.885878
O O12 0.250000 0.250000 0.250000
O O13 0.324308 0.325204 0.173384
O O14 0.576833 0.980596 0.047830
O O15 0.750000 0.946061 0.000000
O O16 0.554440 0.893182 0.969735
O O17 0.884737 0.124374 0.912916
#
# Coordination Sequence:
#
# PCOD8296800 Si02
#       8
#    16   8  16  16  16  16  16  16
#     4  11  20  38  65  94 134 187 230 265 346 424
#     4  10  26  38  68 104 134 190 238 272 352 426
#     4  11  21  42  69  92 127 182 229 275 347 431
#     4  11  22  41  67  99 138 180 231 280 343 431
#     4  11  23  41  63 101 148 185 232 288 347 427
#     4  11  25  45  68  95 129 173 222 285 368 422
#     4  11  25  43  69 100 130 172 227 298 347 412
#     4  11  23  43  66 102 137 180 232 286 349 420
#
# _framework density 21.578866000000001
#
# number of rings (size 3 to 8) (size 9 to 14) (size 15 to 20)
#    0.000    1.067    5.333    1.600    5.600    3.200 
#    0.000    0.000    0.000    0.000    0.000    0.000 
#    0.000    0.000    0.000    0.000    0.000    0.000 
#
# Total GULP energy -743653.225037 kJ/mol
# GULP energy per Si atom -12394.220417 kJ/mol
# Density = 2.152975 g / cm^3
# Si number density = 21.578866 Si / 1000 Ang^3
#
#
#
# Elastic Constant Matrix: (Units=GPa)
#
#
# Indices 1 2 3 4 5 6 
#
# 1 94.4807 18.2918 69.7326 0.0000 0.0000 0.0000
# 2 18.2918 71.6093 46.0654 0.0000 0.0000 0.0000
# 3 69.7326 46.0654 157.5203 0.0000 0.0000 0.0000
# 4 0.0000 0.0000 0.0000 31.6164 0.0000 0.0000
# 5 0.0000 0.0000 0.0000 0.0000 44.7515 0.0000
# 6 0.0000 0.0000 0.0000 0.0000 0.0000 28.8366
#
#
#
# Elastic Compliance Matrix: (Units=1/GPa)
#
#
# Indices 1 2 3 4 5 6 
#
# 1 0.015739 0.000569 -0.007134 0.000000 0.000000 0.000000
# 2 0.000569 0.017221 -0.005288 0.000000 0.000000 0.000000
# 3 -0.007134 -0.005288 0.011053 0.000000 0.000000 0.000000
# 4 0.000000 0.000000 0.000000 0.031629 0.000000 0.000000
# 5 0.000000 0.000000 0.000000 0.000000 0.022346 0.000000
# 6 0.000000 0.000000 0.000000 0.000000 0.000000 0.034678
#
#
# Mechanical properties :
#
#
# Convention : Reuss Voigt Hill
#
# Bulk Modulus (GPa) = 49.24395 65.75443 57.49919
# Shear Modulus (GPa) = 30.64822 33.67560 32.16191
#
# Velocity S-wave (km/s) = 3.77276 3.95471 3.86480
# Velocity P-wave (km/s) = 6.46903 7.16874 6.82785
#
# Compressibility (1/GPa) = 0.02030706
#
# Stress axis : x y z
#
# Youngs Moduli (GPa) = 63.53493 58.06843 90.47372
#
# Poissons Ratio (x) = -0.03303 0.64544
# Poissons Ratio (y) = -0.03614 0.47842
# Poissons Ratio (z) = 0.45326 0.30706
#
# Static dielectric constant tensor:
#      x y z
#    x 3.911820 0.000000 0.000000 
#    y 0.000000 3.603930 0.000000 
#    z 0.000000 0.000000 4.356900 
# 
# 
# High freq. dielectric constant tensor:
#      x y z
#    x 1.838740 0.000000 0.000000 
#    y 0.000000 1.831650 0.000000 
#    z 0.000000 0.000000 1.869060 
# 
# From -- ./inp_files/31834.got.cif
#   From: 2010.03.12/outbox.cif.g09.slc.cpg/sg73_16_cif.got.tgz:31834.got - 2010.04.16 15:25:48.
