data_PCOD8296580
_publ_section_title
;
Structure prediction by ZEFSAII (Michael W. Deem and Ramdas Pophale) SiO2 
 PCOD8296580
Probable space group: I B C A 
;
_chemical_formula_sum "Si O2"
_cell_formula_units_Z 88
_cell_length_a 16.837185
_cell_length_b 11.154072
_cell_length_c 21.032988
_cell_angle_alpha 90.000000
_cell_angle_beta 90.000000
_cell_angle_gamma 90.000000
_cell_volume 3950.061900
_symmetry_space_group_name_H-M "I B C A "
_symmetry_group_IT_number 73
_symmetry_cell_setting 'orthorhombic'
loop_
_space_group_symop_operation_xyz
x,y,z
-x,1/2-y,z
x,-y,1/2-z
1/2-x,y,-z
-x,-y,-z
x,1/2+y,-z
-x,y,1/2+z
1/2+x,-y,z
1/2+x,1/2+y,1/2+z
1/2-x,-y,1/2+z
1/2+x,1/2-y,-z
-x,1/2+y,1/2-z
1/2-x,1/2-y,1/2-z
1/2+x,y,1/2-z
1/2-x,1/2+y,z
x,1/2-y,1/2+z
loop_
_atom_site_type_symbol
_atom_site_label
_atom_site_fract_x
_atom_site_fract_y
_atom_site_fract_z
Si Si1 0.315137 0.875561 0.762053
Si Si2 0.082305 0.200407 0.685299
Si Si3 0.365124 0.598221 0.401451
Si Si4 0.161270 0.000000 0.750000
Si Si5 0.250000 0.291838 0.000000
Si Si6 0.500000 0.750000 0.957819
Si Si7 0.112245 0.831610 0.436596
O O1 0.347912 0.768820 0.720965
O O2 0.321059 0.854502 0.838053
O O3 0.363214 0.000000 0.750000
O O4 0.224381 0.892759 0.733209
O O5 0.101402 0.057921 0.696940
O O6 0.081317 0.226865 0.610456
O O7 0.000000 0.250000 0.715373
O O8 0.307250 0.621217 0.460543
O O9 0.447343 0.668673 0.411357
O O10 0.386434 0.457448 0.399550
O O11 0.201285 0.203085 0.045057
O O12 0.444587 0.665083 0.001749
#
# Coordination Sequence:
#
# PCOD8296580 Si02
#       7
#    16  16  16   8   8   8  16
#     4  10  23  42  67  95 135 177 226 282 346 409
#     4  12  25  42  69 102 142 178 232 279 360 414
#     4  11  22  42  65  93 134 172 230 288 345 414
#     4  10  24  42  66  98 136 182 226 278 338 414
#     4  10  24  38  68  98 124 176 236 276 348 416
#     4  10  24  40  60  98 126 180 226 282 348 412
#     4  11  21  43  65  92 136 176 225 283 346 414
#
# _framework density 22.278130999999998
#
# number of rings (size 3 to 8) (size 9 to 14) (size 15 to 20)
#    0.545    0.727    2.727    2.727    2.545    1.455 
#    0.000    3.636    0.000    0.000    0.000    0.000 
#    0.000    0.000    0.000    0.000    0.000    0.000 
#
# Total GULP energy -545084.307139 kJ/mol
# GULP energy per Si atom -12388.279708 kJ/mol
# Density = 2.222743 g / cm^3
# Si number density = 22.278131 Si / 1000 Ang^3
#
#
#
# Elastic Constant Matrix: (Units=GPa)
#
#
# Indices 1 2 3 4 5 6 
#
# 1 119.7454 49.6936 23.4741 0.0000 0.0000 0.0000
# 2 49.6936 84.0054 43.1427 0.0000 0.0000 0.0000
# 3 23.4741 43.1427 90.8832 0.0000 0.0000 0.0000
# 4 0.0000 0.0000 0.0000 33.9422 0.0000 0.0000
# 5 0.0000 0.0000 0.0000 0.0000 27.2281 0.0000
# 6 0.0000 0.0000 0.0000 0.0000 0.0000 33.4573
#
#
#
# Elastic Compliance Matrix: (Units=1/GPa)
#
#
# Indices 1 2 3 4 5 6 
#
# 1 0.011076 -0.006721 0.000330 0.000000 0.000000 0.000000
# 2 -0.006721 0.019821 -0.007673 0.000000 0.000000 0.000000
# 3 0.000330 -0.007673 0.014560 0.000000 0.000000 0.000000
# 4 0.000000 0.000000 0.000000 0.029462 0.000000 0.000000
# 5 0.000000 0.000000 0.000000 0.000000 0.036727 0.000000
# 6 0.000000 0.000000 0.000000 0.000000 0.000000 0.029889
#
#
# Mechanical properties :
#
#
# Convention : Reuss Voigt Hill
#
# Bulk Modulus (GPa) = 57.71010 58.58387 58.14698
# Shear Modulus (GPa) = 28.50003 30.81377 29.65690
#
# Velocity S-wave (km/s) = 3.58059 3.72309 3.65253
# Velocity P-wave (km/s) = 6.56161 6.69594 6.62911
#
# Compressibility (1/GPa) = 0.01732799
#
# Stress axis : x y z
#
# Youngs Moduli (GPa) = 90.28812 50.45272 68.68003
#
# Poissons Ratio (x) = 0.33911 -0.02266
# Poissons Ratio (y) = 0.60685 0.52697
# Poissons Ratio (z) = -0.02979 0.38712
#
# Static dielectric constant tensor:
#      x y z
#    x 4.174190 0.000000 0.000000 
#    y 0.000000 4.134760 0.000000 
#    z 0.000000 0.000000 3.884290 
# 
# 
# High freq. dielectric constant tensor:
#      x y z
#    x 1.888770 0.000000 0.000000 
#    y 0.000000 1.877680 0.000000 
#    z 0.000000 0.000000 1.861880 
# 
# From -- ./inp_files/21308.got.cif
#   From: 2010.03.12/outbox.cif.g09.slc.cpg/sg73_11_cif.got.tgz:21308.got - 2010.04.16 15:25:48.
