data_PCOD8296282
_publ_section_title
;
Structure prediction by ZEFSAII (Michael W. Deem and Ramdas Pophale) SiO2 
 PCOD8296282
Probable space group: I B C A 
;
_chemical_formula_sum "Si O2"
_cell_formula_units_Z 96
_cell_length_a 28.748789
_cell_length_b 9.823405
_cell_length_c 17.899436
_cell_angle_alpha 90.000000
_cell_angle_beta 90.000000
_cell_angle_gamma 90.000000
_cell_volume 5054.997577
_symmetry_space_group_name_H-M "I B C A "
_symmetry_group_IT_number 73
_symmetry_cell_setting 'orthorhombic'
loop_
_space_group_symop_operation_xyz
x,y,z
-x,1/2-y,z
x,-y,1/2-z
1/2-x,y,-z
-x,-y,-z
x,1/2+y,-z
-x,y,1/2+z
1/2+x,-y,z
1/2+x,1/2+y,1/2+z
1/2-x,-y,1/2+z
1/2+x,1/2-y,-z
-x,1/2+y,1/2-z
1/2-x,1/2-y,1/2-z
1/2+x,y,1/2-z
1/2-x,1/2+y,z
x,1/2-y,1/2+z
loop_
_atom_site_type_symbol
_atom_site_label
_atom_site_fract_x
_atom_site_fract_y
_atom_site_fract_z
Si Si1 0.870840 0.218396 0.577565
Si Si2 0.030681 0.368343 0.589081
Si Si3 0.200894 0.889547 0.693063
Si Si4 0.693780 0.129983 0.290550
Si Si5 0.627853 0.455890 0.071139
Si Si6 0.973919 0.619283 0.589013
O O1 0.917518 0.162576 0.616719
O O2 0.831030 0.190422 0.637129
O O3 0.873937 0.379980 0.557246
O O4 0.863368 0.125692 0.505040
O O5 0.028126 0.372378 0.499837
O O6 0.000000 0.250000 0.623355
O O7 0.008684 0.505506 0.620713
O O8 0.255537 0.914773 0.679058
O O9 0.194606 0.739664 0.724999
O O10 0.172355 0.910331 0.617848
O O11 0.180443 0.000000 0.750000
O O12 0.669823 0.000000 0.250000
O O13 0.579932 0.407471 0.112811
O O14 0.000000 0.750000 0.623066
#
# Coordination Sequence:
#
# PCOD8296282 Si02
#       6
#    16  16  16  16  16  16
#     4  11  23  37  59  92 122 152 196 250 297 341
#     4   9  16  30  51  79 116 153 191 230 281 345
#     4  10  21  43  65  82 114 158 199 235 293 363
#     4  10  23  41  64  87 112 157 203 240 289 362
#     4  11  23  37  60  91 122 154 194 249 300 340
#     4   9  18  30  52  82 117 155 194 233 286 346
#
# _framework density 18.991107
#
# number of rings (size 3 to 8) (size 9 to 14) (size 15 to 20)
#    0.000    2.000    3.333    0.000    9.333    0.667 
#    0.000    1.667    0.000    6.000    0.000    0.000 
#    0.000    0.000    0.000    0.000    0.000    0.000 
#
# Total GULP energy -594739.395218 kJ/mol
# GULP energy per Si atom -12390.404067 kJ/mol
# Density = 1.894788 g / cm^3
# Si number density = 18.991107 Si / 1000 Ang^3
#
#
#
# Elastic Constant Matrix: (Units=GPa)
#
#
# Indices 1 2 3 4 5 6 
#
# 1 99.0790 44.1285 38.2123 0.0000 0.0000 0.0000
# 2 44.1285 148.8939 28.5539 0.0000 0.0000 0.0000
# 3 38.2123 28.5539 49.7191 0.0000 0.0000 0.0000
# 4 0.0000 0.0000 0.0000 24.5475 0.0000 0.0000
# 5 0.0000 0.0000 0.0000 0.0000 11.5779 0.0000
# 6 0.0000 0.0000 0.0000 0.0000 0.0000 30.9269
#
#
#
# Elastic Compliance Matrix: (Units=1/GPa)
#
#
# Indices 1 2 3 4 5 6 
#
# 1 0.015152 -0.002537 -0.010189 0.000000 0.000000 0.000000
# 2 -0.002537 0.007972 -0.002629 0.000000 0.000000 0.000000
# 3 -0.010189 -0.002629 0.029453 0.000000 0.000000 0.000000
# 4 0.000000 0.000000 0.000000 0.040737 0.000000 0.000000
# 5 0.000000 0.000000 0.000000 0.000000 0.086372 0.000000
# 6 0.000000 0.000000 0.000000 0.000000 0.000000 0.032334
#
#
# Mechanical properties :
#
#
# Convention : Reuss Voigt Hill
#
# Bulk Modulus (GPa) = 45.72595 57.72018 51.72307
# Shear Modulus (GPa) = 19.99846 25.86361 22.93104
#
# Velocity S-wave (km/s) = 3.24858 3.69437 3.47862
# Velocity P-wave (km/s) = 6.18069 6.97546 6.59007
#
# Compressibility (1/GPa) = 0.02186942
#
# Stress axis : x y z
#
# Youngs Moduli (GPa) = 65.99639 125.43631 33.95204
#
# Poissons Ratio (x) = 0.31822 0.34592
# Poissons Ratio (y) = 0.16742 0.08925
# Poissons Ratio (z) = 0.67241 0.32974
#
# Static dielectric constant tensor:
#      x y z
#    x 3.473360 0.000000 0.000000 
#    y 0.000000 3.871130 0.000000 
#    z 0.000000 0.000000 2.942740 
# 
# 
# High freq. dielectric constant tensor:
#      x y z
#    x 1.747220 0.000000 0.000000 
#    y 0.000000 1.763700 0.000000 
#    z 0.000000 0.000000 1.688180 
# 
# From -- ./inp_files/27522.got.cif
#   From: 2010.03.12/outbox.cif.g09.slc.cpg/sg73_14_cif.got.tgz:27522.got - 2010.04.16 15:25:48.
