data_PCOD8296323
_publ_section_title
;
Structure prediction by ZEFSAII (Michael W. Deem and Ramdas Pophale) SiO2 
 PCOD8296323
Probable space group: I B C A 
;
_chemical_formula_sum "Si O2"
_cell_formula_units_Z 88
_cell_length_a 21.679266
_cell_length_b 20.916235
_cell_length_c 8.930479
_cell_angle_alpha 90.000000
_cell_angle_beta 90.000000
_cell_angle_gamma 90.000000
_cell_volume 4049.513399
_symmetry_space_group_name_H-M "I B C A "
_symmetry_group_IT_number 73
_symmetry_cell_setting 'orthorhombic'
loop_
_space_group_symop_operation_xyz
x,y,z
-x,1/2-y,z
x,-y,1/2-z
1/2-x,y,-z
-x,-y,-z
x,1/2+y,-z
-x,y,1/2+z
1/2+x,-y,z
1/2+x,1/2+y,1/2+z
1/2-x,-y,1/2+z
1/2+x,1/2-y,-z
-x,1/2+y,1/2-z
1/2-x,1/2-y,1/2-z
1/2+x,y,1/2-z
1/2-x,1/2+y,z
x,1/2-y,1/2+z
loop_
_atom_site_type_symbol
_atom_site_label
_atom_site_fract_x
_atom_site_fract_y
_atom_site_fract_z
Si Si1 0.784223 0.062091 0.845155
Si Si2 0.750000 0.257287 0.500000
Si Si3 0.587749 0.136151 0.147995
Si Si4 0.197151 0.832888 0.749820
Si Si5 0.492274 0.659237 0.098339
Si Si6 0.423340 0.783932 0.332955
O O1 0.848031 0.099343 0.875475
O O2 0.737142 0.102906 0.741869
O O3 0.800475 0.000000 0.750000
O O4 0.750000 0.044661 0.000000
O O5 0.782504 0.215427 0.377616
O O6 0.701484 0.303481 0.416813
O O7 0.543101 0.122839 0.004178
O O8 0.551873 0.112344 0.300206
O O9 0.603476 0.211795 0.169479
O O10 0.125091 0.839946 0.714158
O O11 0.447818 0.703618 0.998977
O O12 0.520949 0.707249 0.219087
#
# Coordination Sequence:
#
# PCOD8296323 Si02
#       6
#    16   8  16  16  16  16
#     4  12  29  49  67  92 131 184 235 280 327 395
#     4  10  22  40  62 108 128 164 208 272 354 408
#     4  11  21  41  65  96 138 169 218 269 334 398
#     4  11  24  39  67  98 137 171 217 270 341 404
#     4  10  22  36  62 103 137 175 207 264 337 407
#     4  11  21  35  63  99 141 172 209 267 340 402
#
# _framework density 21.731006000000001
#
# number of rings (size 3 to 8) (size 9 to 14) (size 15 to 20)
#    0.000    1.091    0.909    7.636    8.909    0.000 
#    0.000    0.909    0.000    4.364    0.000    0.000 
#    0.000    0.000    0.000    0.000    0.000    0.000 
#
# Total GULP energy -545224.520087 kJ/mol
# GULP energy per Si atom -12391.466366 kJ/mol
# Density = 2.168155 g / cm^3
# Si number density = 21.731006 Si / 1000 Ang^3
#
#
#
# Elastic Constant Matrix: (Units=GPa)
#
#
# Indices 1 2 3 4 5 6 
#
# 1 126.1718 33.8670 46.3078 0.0000 0.0000 0.0000
# 2 33.8670 71.5345 29.2686 0.0000 0.0000 0.0000
# 3 46.3078 29.2686 149.1665 0.0000 0.0000 0.0000
# 4 0.0000 0.0000 0.0000 106.0698 0.0000 0.0000
# 5 0.0000 0.0000 0.0000 0.0000 12.9457 0.0000
# 6 0.0000 0.0000 0.0000 0.0000 0.0000 20.4780
#
#
#
# Elastic Compliance Matrix: (Units=1/GPa)
#
#
# Indices 1 2 3 4 5 6 
#
# 1 0.009760 -0.003676 -0.002309 0.000000 0.000000 0.000000
# 2 -0.003676 0.016584 -0.002113 0.000000 0.000000 0.000000
# 3 -0.002309 -0.002113 0.007835 0.000000 0.000000 0.000000
# 4 0.000000 0.000000 0.000000 0.009428 0.000000 0.000000
# 5 0.000000 0.000000 0.000000 0.000000 0.077246 0.000000
# 6 0.000000 0.000000 0.000000 0.000000 0.000000 0.048833
#
#
# Mechanical properties :
#
#
# Convention : Reuss Voigt Hill
#
# Bulk Modulus (GPa) = 55.60458 62.86216 59.23337
# Shear Modulus (GPa) = 26.05865 43.72734 34.89299
#
# Velocity S-wave (km/s) = 3.46663 4.49063 4.01144
# Velocity P-wave (km/s) = 6.45496 7.47515 6.98371
#
# Compressibility (1/GPa) = 0.01798413
#
# Stress axis : x y z
#
# Youngs Moduli (GPa) = 102.46206 60.29869 127.62981
#
# Poissons Ratio (x) = 0.22166 0.29464
# Poissons Ratio (y) = 0.37665 0.26966
# Poissons Ratio (z) = 0.23654 0.12740
#
# Static dielectric constant tensor:
#      x y z
#    x 3.860580 0.000000 0.000000 
#    y 0.000000 3.395630 0.000000 
#    z 0.000000 0.000000 2.623500 
# 
# 
# High freq. dielectric constant tensor:
#      x y z
#    x 1.875040 0.000000 0.000000 
#    y 0.000000 1.784490 0.000000 
#    z 0.000000 0.000000 1.883580 
# 
# From -- ./inp_files/7063.got.cif
#   From: 2010.03.12/outbox.cif.g09.slc.cpg/sg73_4_cif.got.tgz:7063.got - 2010.04.16 15:25:48.
