data_PCOD8296802
_publ_section_title
;
Structure prediction by ZEFSAII (Michael W. Deem and Ramdas Pophale) SiO2 
 PCOD8296802
Probable space group: I B C A 
;
_chemical_formula_sum "Si O2"
_cell_formula_units_Z 96
_cell_length_a 23.880891
_cell_length_b 9.441838
_cell_length_c 20.900006
_cell_angle_alpha 90.000000
_cell_angle_beta 90.000000
_cell_angle_gamma 90.000000
_cell_volume 4712.522989
_symmetry_space_group_name_H-M "I B C A "
_symmetry_group_IT_number 73
_symmetry_cell_setting 'orthorhombic'
loop_
_space_group_symop_operation_xyz
x,y,z
-x,1/2-y,z
x,-y,1/2-z
1/2-x,y,-z
-x,-y,-z
x,1/2+y,-z
-x,y,1/2+z
1/2+x,-y,z
1/2+x,1/2+y,1/2+z
1/2-x,-y,1/2+z
1/2+x,1/2-y,-z
-x,1/2+y,1/2-z
1/2-x,1/2-y,1/2-z
1/2+x,y,1/2-z
1/2-x,1/2+y,z
x,1/2-y,1/2+z
loop_
_atom_site_type_symbol
_atom_site_label
_atom_site_fract_x
_atom_site_fract_y
_atom_site_fract_z
Si Si1 0.914172 0.740595 0.620272
Si Si2 0.706011 0.656039 0.419389
Si Si3 0.722168 0.865558 0.207700
Si Si4 0.000000 0.750000 0.847378
Si Si5 0.250000 0.911142 0.000000
Si Si6 0.903643 0.839892 0.761754
Si Si7 0.009112 0.032133 0.425979
O O1 0.858536 0.668445 0.595487
O O2 0.901343 0.761958 0.694450
O O3 0.962992 0.629928 0.606872
O O4 0.930865 0.889767 0.585830
O O5 0.748665 0.625460 0.361315
O O6 0.707262 0.519264 0.465524
O O7 0.720522 0.808406 0.449412
O O8 0.750000 0.750000 0.250000
O O9 0.655604 0.841025 0.200938
O O10 0.734376 0.000000 0.250000
O O11 0.054792 0.755057 0.803503
O O12 0.006407 0.616141 0.891854
O O13 0.925778 0.000000 0.750000
O O14 0.000000 0.000000 0.500000
#
# Coordination Sequence:
#
# PCOD8296802 Si02
#       7
#    16  16  16   8   8  16  16
#     4  11  24  45  68  96 140 173 223 291 338 403
#     4  11  24  46  69  99 137 180 232 278 345 412
#     4  11  23  42  68 100 137 174 219 277 345 410
#     4  12  24  42  72  98 128 180 224 274 352 406
#     4  10  26  44  66  96 134 184 228 278 328 414
#     4  11  24  43  69 100 136 176 219 284 347 409
#     4  11  26  46  66  99 134 179 231 279 335 410
#
# _framework density 20.371254
#
# number of rings (size 3 to 8) (size 9 to 14) (size 15 to 20)
#    0.000    1.000    3.333    3.000    4.667    2.667 
#    6.000    0.000    0.000    0.000    0.000    0.000 
#    0.000    0.000    0.000    0.000    0.000    0.000 
#
# Total GULP energy -594971.435572 kJ/mol
# GULP energy per Si atom -12395.238241 kJ/mol
# Density = 2.032489 g / cm^3
# Si number density = 20.371254 Si / 1000 Ang^3
#
#
#
# Elastic Constant Matrix: (Units=GPa)
#
#
# Indices 1 2 3 4 5 6 
#
# 1 105.2625 41.0873 48.5503 0.0000 0.0000 0.0000
# 2 41.0873 118.9127 38.0430 0.0000 0.0000 0.0000
# 3 48.5503 38.0430 107.8760 0.0000 0.0000 0.0000
# 4 0.0000 0.0000 0.0000 66.1873 0.0000 0.0000
# 5 0.0000 0.0000 0.0000 0.0000 19.1985 0.0000
# 6 0.0000 0.0000 0.0000 0.0000 0.0000 23.4108
#
#
#
# Elastic Compliance Matrix: (Units=1/GPa)
#
#
# Indices 1 2 3 4 5 6 
#
# 1 0.012826 -0.002914 -0.004745 0.000000 0.000000 0.000000
# 2 -0.002914 0.010141 -0.002265 0.000000 0.000000 0.000000
# 3 -0.004745 -0.002265 0.012204 0.000000 0.000000 0.000000
# 4 0.000000 0.000000 0.000000 0.015109 0.000000 0.000000
# 5 0.000000 0.000000 0.000000 0.000000 0.052087 0.000000
# 6 0.000000 0.000000 0.000000 0.000000 0.000000 0.042715
#
#
# Mechanical properties :
#
#
# Convention : Reuss Voigt Hill
#
# Bulk Modulus (GPa) = 65.25726 65.26803 65.26264
# Shear Modulus (GPa) = 29.40538 35.38403 32.39471
#
# Velocity S-wave (km/s) = 3.80343 4.17221 3.99208
# Velocity P-wave (km/s) = 7.16880 7.43764 7.30446
#
# Compressibility (1/GPa) = 0.01532397
#
# Stress axis : x y z
#
# Youngs Moduli (GPa) = 77.96786 98.61087 81.93991
#
# Poissons Ratio (x) = 0.28732 0.38879
# Poissons Ratio (y) = 0.22717 0.18559
# Poissons Ratio (z) = 0.36994 0.22335
#
# Static dielectric constant tensor:
#      x y z
#    x 3.761860 0.000000 0.000000 
#    y 0.000000 3.908700 0.000000 
#    z 0.000000 0.000000 4.134290 
# 
# 
# High freq. dielectric constant tensor:
#      x y z
#    x 1.798780 0.000000 0.000000 
#    y 0.000000 1.814980 0.000000 
#    z 0.000000 0.000000 1.808740 
# 
# From -- ./inp_files/27542.got.cif
#   From: 2010.03.12/outbox.cif.g09.slc.cpg/sg73_14_cif.got.tgz:27542.got - 2010.04.16 15:25:48.
