data_PCOD8296981
_publ_section_title
;
Structure prediction by ZEFSAII (Michael W. Deem and Ramdas Pophale) SiO2 
 PCOD8296981
Probable space group: I B C A 
;
_chemical_formula_sum "Si O2"
_cell_formula_units_Z 112
_cell_length_a 13.807232
_cell_length_b 29.884926
_cell_length_c 12.612913
_cell_angle_alpha 90.000000
_cell_angle_beta 90.000000
_cell_angle_gamma 90.000000
_cell_volume 5204.442410
_symmetry_space_group_name_H-M "I B C A "
_symmetry_group_IT_number 73
_symmetry_cell_setting 'orthorhombic'
loop_
_space_group_symop_operation_xyz
x,y,z
-x,1/2-y,z
x,-y,1/2-z
1/2-x,y,-z
-x,-y,-z
x,1/2+y,-z
-x,y,1/2+z
1/2+x,-y,z
1/2+x,1/2+y,1/2+z
1/2-x,-y,1/2+z
1/2+x,1/2-y,-z
-x,1/2+y,1/2-z
1/2-x,1/2-y,1/2-z
1/2+x,y,1/2-z
1/2-x,1/2+y,z
x,1/2-y,1/2+z
loop_
_atom_site_type_symbol
_atom_site_label
_atom_site_fract_x
_atom_site_fract_y
_atom_site_fract_z
Si Si1 0.205096 0.790673 0.616088
Si Si2 0.750000 0.865161 0.500000
Si Si3 0.384512 0.084246 0.343116
Si Si4 0.771396 0.500000 0.750000
Si Si5 0.156374 0.502790 0.944298
Si Si6 0.161353 0.807430 0.189794
Si Si7 0.507002 0.435802 0.022347
Si Si8 0.037994 0.353148 0.334238
O O1 0.250000 0.784531 0.500000
O O2 0.280464 0.812872 0.699523
O O3 0.163453 0.744271 0.659161
O O4 0.112235 0.821961 0.603461
O O5 0.672705 0.896969 0.555691
O O6 0.794622 0.834949 0.592553
O O7 0.484913 0.068482 0.396488
O O8 0.404623 0.123485 0.261022
O O9 0.336126 0.040946 0.290999
O O10 0.698494 0.478031 0.835192
O O11 0.072647 0.466956 0.920682
O O12 0.250000 0.480100 0.000000
O O13 0.113772 0.541462 0.022800
O O14 0.051942 0.824328 0.210203
O O15 0.502392 0.389263 0.081916
#
# Coordination Sequence:
#
# PCOD8296981 Si02
#       8
#    16   8  16   8  16  16  16  16
#     4  11  26  48  75 111 150 188 240 305 368 444
#     4  12  22  50  76 102 150 198 242 294 376 440
#     4  12  26  44  71 106 141 194 243 303 360 438
#     4  12  26  42  74  96 140 192 248 290 372 426
#     4  11  24  46  65  95 132 186 234 302 354 424
#     4  11  25  48  76 108 148 194 239 303 373 441
#     4  11  26  43  67  98 142 179 242 302 367 428
#     4  12  27  44  71 109 140 189 244 297 366 444
#
# _framework density 21.520074999999999
#
# number of rings (size 3 to 8) (size 9 to 14) (size 15 to 20)
#    0.000    0.571    5.000    2.143    6.000    1.714 
#    0.000    1.429    0.000    0.000    0.000    0.000 
#    0.000    0.000    0.000    0.000    0.000    0.000 
#
# Total GULP energy -694195.731543 kJ/mol
# GULP energy per Si atom -12396.352349 kJ/mol
# Density = 2.147109 g / cm^3
# Si number density = 21.520075 Si / 1000 Ang^3
#
#
#
# Elastic Constant Matrix: (Units=GPa)
#
#
# Indices 1 2 3 4 5 6 
#
# 1 129.9474 56.8994 48.6055 0.0002 0.0000 -0.0001
# 2 56.8994 111.5962 40.7220 0.0003 -0.0001 0.0000
# 3 48.6055 40.7220 123.7122 -0.0002 0.0004 0.0004
# 4 0.0002 0.0003 -0.0002 43.9493 0.0003 0.0003
# 5 0.0000 -0.0001 0.0004 0.0003 34.9098 -0.0002
# 6 -0.0001 0.0000 0.0004 0.0003 -0.0002 22.8228
#
#
#
# Elastic Compliance Matrix: (Units=1/GPa)
#
#
# Indices 1 2 3 4 5 6 
#
# 1 0.010659 -0.004440 -0.002726 0.000000 0.000000 0.000000
# 2 -0.004440 0.012034 -0.002217 0.000000 0.000000 0.000000
# 3 -0.002726 -0.002217 0.009884 0.000000 0.000000 0.000000
# 4 0.000000 0.000000 0.000000 0.022754 0.000000 0.000000
# 5 0.000000 0.000000 0.000000 0.000000 0.028645 0.000000
# 6 0.000000 0.000000 0.000000 0.000000 0.000000 0.043816
#
#
# Mechanical properties :
#
#
# Convention : Reuss Voigt Hill
#
# Bulk Modulus (GPa) = 72.40667 73.07884 72.74276
# Shear Modulus (GPa) = 33.07723 34.93829 34.00776
#
# Velocity S-wave (km/s) = 3.92476 4.03367 3.97959
# Velocity P-wave (km/s) = 7.36597 7.46499 7.41565
#
# Compressibility (1/GPa) = 0.01381088
#
# Stress axis : x y z
#
# Youngs Moduli (GPa) = 93.81456 83.10120 101.17237
#
# Poissons Ratio (x) = 0.36897 0.27584
# Poissons Ratio (y) = 0.41653 0.22426
# Poissons Ratio (z) = 0.25578 0.18420
#
# Static dielectric constant tensor:
#      x y z
#    x 4.035330 0.000000 0.000000 
#    y 0.000000 3.926370 0.000000 
#    z 0.000000 0.000000 4.147870 
# 
# 
# High freq. dielectric constant tensor:
#      x y z
#    x 1.856560 0.000000 0.000000 
#    y 0.000000 1.851330 0.000000 
#    z 0.000000 0.000000 1.853410 
# 
# From -- ./inp_files/11308.got.cif
#   From: 2010.03.12/outbox.cif.g09.slc.cpg/sg73_6_cif.got.tgz:11308.got - 2010.04.16 15:25:48.
