data_PCOD8296758
_publ_section_title
;
Structure prediction by ZEFSAII (Michael W. Deem and Ramdas Pophale) SiO2 
 PCOD8296758
Probable space group: I B C A 
;
_chemical_formula_sum "Si O2"
_cell_formula_units_Z 72
_cell_length_a 8.618922
_cell_length_b 25.305883
_cell_length_c 14.955700
_cell_angle_alpha 90.000000
_cell_angle_beta 90.000000
_cell_angle_gamma 90.000000
_cell_volume 3261.979228
_symmetry_space_group_name_H-M "I B C A "
_symmetry_group_IT_number 73
_symmetry_cell_setting 'orthorhombic'
loop_
_space_group_symop_operation_xyz
x,y,z
-x,1/2-y,z
x,-y,1/2-z
1/2-x,y,-z
-x,-y,-z
x,1/2+y,-z
-x,y,1/2+z
1/2+x,-y,z
1/2+x,1/2+y,1/2+z
1/2-x,-y,1/2+z
1/2+x,1/2-y,-z
-x,1/2+y,1/2-z
1/2-x,1/2-y,1/2-z
1/2+x,y,1/2-z
1/2-x,1/2+y,z
x,1/2-y,1/2+z
loop_
_atom_site_type_symbol
_atom_site_label
_atom_site_fract_x
_atom_site_fract_y
_atom_site_fract_z
Si Si1 0.524348 0.500000 0.750000
Si Si2 0.174621 0.342586 0.587757
Si Si3 0.816446 0.741068 0.152383
Si Si4 0.224048 0.424182 0.278728
Si Si5 0.687517 0.368702 0.404782
O O1 0.420650 0.460300 0.689720
O O2 0.629772 0.539791 0.692394
O O3 0.250000 0.368813 0.500000
O O4 0.220986 0.280973 0.588868
O O5 0.264066 0.368758 0.671537
O O6 0.991594 0.351274 0.591009
O O7 0.750000 0.750000 0.250000
O O8 0.790059 0.682079 0.118597
O O9 0.000000 0.750000 0.149482
O O10 0.212389 0.413163 0.171703
O O11 0.750000 0.390974 0.500000
#
# Coordination Sequence:
#
# PCOD8296758 Si02
#       5
#     8  16  16  16  16
#     4  10  24  46  74  96 132 180 224 298 338 404
#     4  12  26  44  71 104 142 182 226 278 340 411
#     4  12  25  42  69 103 143 183 226 272 335 408
#     4  11  24  47  72  98 136 177 232 279 352 396
#     4  12  26  44  71 104 142 182 226 278 340 411
#
# _framework density 22.072488
#
# number of rings (size 3 to 8) (size 9 to 14) (size 15 to 20)
#    0.000    0.444    4.444    4.000    6.222    0.000 
#    0.000    6.667    0.000    0.000    0.000    0.000 
#    0.000    0.000    0.000    0.000    0.000    0.000 
#
# Total GULP energy -446227.693091 kJ/mol
# GULP energy per Si atom -12395.213697 kJ/mol
# Density = 2.202225 g / cm^3
# Si number density = 22.072488 Si / 1000 Ang^3
#
#
#
# Elastic Constant Matrix: (Units=GPa)
#
#
# Indices 1 2 3 4 5 6 
#
# 1 167.1940 35.1780 30.4587 -0.0001 0.0000 0.0000
# 2 35.1780 95.0988 21.6867 -0.0001 0.0000 0.0000
# 3 30.4587 21.6867 124.9045 -0.0004 0.0001 0.0000
# 4 -0.0001 -0.0001 -0.0004 9.7244 0.0000 0.0000
# 5 0.0000 0.0000 0.0001 0.0000 26.6707 -0.0001
# 6 0.0000 0.0000 0.0000 0.0000 -0.0001 22.7974
#
#
#
# Elastic Compliance Matrix: (Units=1/GPa)
#
#
# Indices 1 2 3 4 5 6 
#
# 1 0.006667 -0.002182 -0.001247 0.000000 0.000000 0.000000
# 2 -0.002182 0.011663 -0.001493 0.000000 0.000000 0.000000
# 3 -0.001247 -0.001493 0.008569 0.000000 0.000000 0.000000
# 4 0.000000 0.000000 0.000000 0.102834 0.000000 0.000000
# 5 0.000000 0.000000 0.000000 0.000000 0.037494 0.000000
# 6 0.000000 0.000000 0.000000 0.000000 0.000000 0.043865
#
#
# Mechanical properties :
#
#
# Convention : Reuss Voigt Hill
#
# Bulk Modulus (GPa) = 58.63055 62.42710 60.52882
# Shear Modulus (GPa) = 22.06317 31.83011 26.94664
#
# Velocity S-wave (km/s) = 3.16504 3.80158 3.49782
# Velocity P-wave (km/s) = 6.32274 6.90026 6.61780
#
# Compressibility (1/GPa) = 0.01705595
#
# Stress axis : x y z
#
# Youngs Moduli (GPa) = 149.98486 85.74156 116.69398
#
# Poissons Ratio (x) = 0.18708 0.14552
# Poissons Ratio (y) = 0.32726 0.17421
# Poissons Ratio (z) = 0.18704 0.12800
#
# Static dielectric constant tensor:
#      x y z
#    x 4.273500 0.000000 0.000000 
#    y 0.000000 4.100960 0.000000 
#    z 0.000000 0.000000 3.989990 
# 
# 
# High freq. dielectric constant tensor:
#      x y z
#    x 1.893920 0.000000 0.000000 
#    y 0.000000 1.874240 0.000000 
#    z 0.000000 0.000000 1.846890 
# 
# From -- ./inp_files/4792.got.cif
#   From: 2010.03.12/outbox.cif.g09.slc.cpg/sg73_3_cif.got.tgz:4792.got - 2010.04.16 15:25:48.
