data_PCOD8296106
_publ_section_title
;
Structure prediction by ZEFSAII (Michael W. Deem and Ramdas Pophale) SiO2 
 PCOD8296106
Probable space group: I B C A 
;
_chemical_formula_sum "Si O2"
_cell_formula_units_Z 120
_cell_length_a 29.349780
_cell_length_b 8.901695
_cell_length_c 24.605464
_cell_angle_alpha 90.000000
_cell_angle_beta 90.000000
_cell_angle_gamma 90.000000
_cell_volume 6428.492171
_symmetry_space_group_name_H-M "I B C A "
_symmetry_group_IT_number 73
_symmetry_cell_setting 'orthorhombic'
loop_
_space_group_symop_operation_xyz
x,y,z
-x,1/2-y,z
x,-y,1/2-z
1/2-x,y,-z
-x,-y,-z
x,1/2+y,-z
-x,y,1/2+z
1/2+x,-y,z
1/2+x,1/2+y,1/2+z
1/2-x,-y,1/2+z
1/2+x,1/2-y,-z
-x,1/2+y,1/2-z
1/2-x,1/2-y,1/2-z
1/2+x,y,1/2-z
1/2-x,1/2+y,z
x,1/2-y,1/2+z
loop_
_atom_site_type_symbol
_atom_site_label
_atom_site_fract_x
_atom_site_fract_y
_atom_site_fract_z
Si Si1 0.874106 0.080830 0.393384
Si Si2 0.298338 0.576906 0.806238
Si Si3 0.555702 0.404610 0.948121
Si Si4 0.250000 0.210995 0.000000
Si Si5 0.312643 0.039372 0.478242
Si Si6 0.454248 0.056358 0.437170
Si Si7 0.294737 0.429813 0.191820
Si Si8 0.641291 0.426491 0.591748
O O1 0.842620 0.045836 0.342396
O O2 0.857578 0.973267 0.442880
O O3 0.873948 0.254009 0.409708
O O4 0.925936 0.019504 0.386967
O O5 0.311010 0.500000 0.750000
O O6 0.252852 0.498820 0.829973
O O7 0.288630 0.752617 0.799880
O O8 0.560819 0.226171 0.948218
O O9 0.507494 0.454672 0.921882
O O10 0.596206 0.472753 0.912111
O O11 0.557732 0.458678 0.009898
O O12 0.218055 0.106231 0.962718
O O13 0.282699 0.314610 0.962619
O O14 0.324269 0.042034 0.542187
O O15 0.308517 0.500000 0.250000
O O16 0.333718 0.467251 0.148014
#
# Coordination Sequence:
#
# PCOD8296106 Si02
#       8
#    16  16  16   8  16  16  16  16
#     4  11  23  36  56  82 112 144 186 228 274 332
#     4  10  22  39  57  81 110 147 191 232 275 322
#     4  10  21  36  55  81 113 147 183 225 275 333
#     4  10  24  34  48  66 116 150 180 218 260 328
#     4  11  22  36  47  78 108 146 183 216 269 324
#     4  10  21  36  55  81 113 147 183 225 275 333
#     4  10  22  39  57  81 110 147 191 232 275 322
#     4  11  23  36  56  82 112 144 186 228 274 332
#
# _framework density 18.666898
#
# number of rings (size 3 to 8) (size 9 to 14) (size 15 to 20)
#    0.000    1.600    2.667    2.400    5.600    3.733 
#    0.000    0.000    0.000    0.800    0.000    0.000 
#    0.000    0.000    0.000    0.000    0.000    0.000 
#
# Total GULP energy -743838.687650 kJ/mol
# GULP energy per Si atom -12397.311461 kJ/mol
# Density = 1.862441 g / cm^3
# Si number density = 18.666898 Si / 1000 Ang^3
#
#
#
# Elastic Constant Matrix: (Units=GPa)
#
#
# Indices 1 2 3 4 5 6 
#
# 1 141.1166 67.5278 53.5976 0.0000 0.0000 0.0000
# 2 67.5278 122.0019 41.5372 0.0000 0.0000 0.0000
# 3 53.5976 41.5372 73.8785 0.0000 0.0000 0.0000
# 4 0.0000 0.0000 0.0000 24.4038 0.0000 0.0000
# 5 0.0000 0.0000 0.0000 0.0000 29.0861 0.0000
# 6 0.0000 0.0000 0.0000 0.0000 0.0000 35.4441
#
#
#
# Elastic Compliance Matrix: (Units=1/GPa)
#
#
# Indices 1 2 3 4 5 6 
#
# 1 0.011356 -0.004305 -0.005818 0.000000 0.000000 0.000000
# 2 -0.004305 0.011769 -0.003494 0.000000 0.000000 0.000000
# 3 -0.005818 -0.003494 0.019721 0.000000 0.000000 0.000000
# 4 0.000000 0.000000 0.000000 0.040977 0.000000 0.000000
# 5 0.000000 0.000000 0.000000 0.000000 0.034381 0.000000
# 6 0.000000 0.000000 0.000000 0.000000 0.000000 0.028213
#
#
# Mechanical properties :
#
#
# Convention : Reuss Voigt Hill
#
# Bulk Modulus (GPa) = 64.05229 73.59137 68.82183
# Shear Modulus (GPa) = 27.95552 29.40909 28.68230
#
# Velocity S-wave (km/s) = 3.87408 3.97352 3.92412
# Velocity P-wave (km/s) = 7.37558 7.78209 7.58156
#
# Compressibility (1/GPa) = 0.01561224
#
# Stress axis : x y z
#
# Youngs Moduli (GPa) = 88.05830 84.97092 50.70658
#
# Poissons Ratio (x) = 0.36577 0.29503
# Poissons Ratio (y) = 0.37906 0.17716
# Poissons Ratio (z) = 0.51236 0.29688
#
# Static dielectric constant tensor:
#      x y z
#    x 3.668020 0.000000 0.000000 
#    y 0.000000 3.643420 0.000000 
#    z 0.000000 0.000000 3.127310 
# 
# 
# High freq. dielectric constant tensor:
#      x y z
#    x 1.735890 0.000000 0.000000 
#    y 0.000000 1.747380 0.000000 
#    z 0.000000 0.000000 1.681120 
# 
# From -- ./inp_files/33066.got.cif
#   From: 2010.03.12/outbox.cif.g09.slc.cpg/sg73_17_cif.got.tgz:33066.got - 2010.04.16 15:25:48.
