data_PCOD8296298
_publ_section_title
;
Structure prediction by ZEFSAII (Michael W. Deem and Ramdas Pophale) SiO2 
 PCOD8296298
Probable space group: I B C A 
;
_chemical_formula_sum "Si O2"
_cell_formula_units_Z 64
_cell_length_a 17.930158
_cell_length_b 8.816680
_cell_length_c 16.581468
_cell_angle_alpha 90.000000
_cell_angle_beta 90.000000
_cell_angle_gamma 90.000000
_cell_volume 2621.272505
_symmetry_space_group_name_H-M "I B C A "
_symmetry_group_IT_number 73
_symmetry_cell_setting 'orthorhombic'
loop_
_space_group_symop_operation_xyz
x,y,z
-x,1/2-y,z
x,-y,1/2-z
1/2-x,y,-z
-x,-y,-z
x,1/2+y,-z
-x,y,1/2+z
1/2+x,-y,z
1/2+x,1/2+y,1/2+z
1/2-x,-y,1/2+z
1/2+x,1/2-y,-z
-x,1/2+y,1/2-z
1/2-x,1/2-y,1/2-z
1/2+x,y,1/2-z
1/2-x,1/2+y,z
x,1/2-y,1/2+z
loop_
_atom_site_type_symbol
_atom_site_label
_atom_site_fract_x
_atom_site_fract_y
_atom_site_fract_z
Si Si1 0.849442 0.829249 0.149842
Si Si2 0.500000 0.750000 0.633979
Si Si3 0.464588 0.500000 0.750000
Si Si4 0.149412 0.296664 0.538268
Si Si5 0.236590 0.434145 0.886572
O O1 0.811408 0.669711 0.175714
O O2 0.919548 0.865661 0.205122
O O3 0.791910 0.965386 0.165993
O O4 0.870286 0.808530 0.055851
O O5 0.511612 0.594911 0.685129
O O6 0.574652 0.760896 0.581681
O O7 0.179259 0.463165 0.561923
O O8 0.215106 0.177271 0.555736
#
# Coordination Sequence:
#
# PCOD8296298 Si02
#       5
#    16   8   8  16  16
#     4  11  22  43  72 104 139 184 233 291 351 421
#     4  12  30  50  66 104 144 192 238 294 352 422
#     4  12  30  48  62 102 152 186 228 296 368 412
#     4  11  22  45  77 102 136 184 245 284 347 423
#     4  10  21  43  76 108 135 179 240 298 337 423
#
# _framework density 24.415621000000002
#
# number of rings (size 3 to 8) (size 9 to 14) (size 15 to 20)
#    0.000    1.000    2.500    6.000    3.500    3.000 
#    0.000    0.000    0.000    0.000    0.000    0.000 
#    0.000    0.000    0.000    0.000    0.000    0.000 
#
# Total GULP energy -396634.561971 kJ/mol
# GULP energy per Si atom -12394.830062 kJ/mol
# Density = 2.436005 g / cm^3
# Si number density = 24.415621 Si / 1000 Ang^3
#
#
#
# Elastic Constant Matrix: (Units=GPa)
#
#
# Indices 1 2 3 4 5 6 
#
# 1 82.5267 22.0143 16.7449 0.0000 0.0000 0.0000
# 2 22.0143 135.0828 6.2976 0.0000 0.0000 0.0000
# 3 16.7449 6.2976 48.9559 0.0000 0.0000 0.0000
# 4 0.0000 0.0000 0.0000 29.9308 0.0000 0.0000
# 5 0.0000 0.0000 0.0000 0.0000 16.0584 0.0000
# 6 0.0000 0.0000 0.0000 0.0000 0.0000 23.3835
#
#
#
# Elastic Compliance Matrix: (Units=1/GPa)
#
#
# Indices 1 2 3 4 5 6 
#
# 1 0.013539 -0.002003 -0.004373 0.000000 0.000000 0.000000
# 2 -0.002003 0.007744 -0.000311 0.000000 0.000000 0.000000
# 3 -0.004373 -0.000311 0.021962 0.000000 0.000000 0.000000
# 4 0.000000 0.000000 0.000000 0.033410 0.000000 0.000000
# 5 0.000000 0.000000 0.000000 0.000000 0.062273 0.000000
# 6 0.000000 0.000000 0.000000 0.000000 0.000000 0.042765
#
#
# Mechanical properties :
#
#
# Convention : Reuss Voigt Hill
#
# Bulk Modulus (GPa) = 33.47724 39.63100 36.55412
# Shear Modulus (GPa) = 24.38737 28.64179 26.51458
#
# Velocity S-wave (km/s) = 3.16388 3.42876 3.29898
# Velocity P-wave (km/s) = 5.20461 5.65175 5.43278
#
# Compressibility (1/GPa) = 0.02987104
#
# Stress axis : x y z
#
# Youngs Moduli (GPa) = 73.86176 129.13689 45.53242
#
# Poissons Ratio (x) = 0.25860 0.19912
# Poissons Ratio (y) = 0.14791 0.01417
# Poissons Ratio (z) = 0.32301 0.04019
#
# Static dielectric constant tensor:
#      x y z
#    x 4.320480 0.000000 0.000000 
#    y 0.000000 4.961400 0.000000 
#    z 0.000000 0.000000 4.112990 
# 
# 
# High freq. dielectric constant tensor:
#      x y z
#    x 1.954590 0.000000 0.000000 
#    y 0.000000 1.998310 0.000000 
#    z 0.000000 0.000000 1.961020 
# 
# From -- ./inp_files/5246.got.cif
#   From: 2010.03.12/outbox.cif.g09.slc.cpg/sg73_3_cif.got.tgz:5246.got - 2010.04.16 15:25:48.
