data_PCOD8296294
_publ_section_title
;
Structure prediction by ZEFSAII (Michael W. Deem and Ramdas Pophale) SiO2 
 PCOD8296294
Probable space group: I B C A 
;
_chemical_formula_sum "Si O2"
_cell_formula_units_Z 96
_cell_length_a 15.007829
_cell_length_b 15.522894
_cell_length_c 19.903765
_cell_angle_alpha 90.000000
_cell_angle_beta 90.000000
_cell_angle_gamma 90.000000
_cell_volume 4636.879394
_symmetry_space_group_name_H-M "I B C A "
_symmetry_group_IT_number 73
_symmetry_cell_setting 'orthorhombic'
loop_
_space_group_symop_operation_xyz
x,y,z
-x,1/2-y,z
x,-y,1/2-z
1/2-x,y,-z
-x,-y,-z
x,1/2+y,-z
-x,y,1/2+z
1/2+x,-y,z
1/2+x,1/2+y,1/2+z
1/2-x,-y,1/2+z
1/2+x,1/2-y,-z
-x,1/2+y,1/2-z
1/2-x,1/2-y,1/2-z
1/2+x,y,1/2-z
1/2-x,1/2+y,z
x,1/2-y,1/2+z
loop_
_atom_site_type_symbol
_atom_site_label
_atom_site_fract_x
_atom_site_fract_y
_atom_site_fract_z
Si Si1 0.872546 0.387691 0.887990
Si Si2 0.096039 0.738889 0.416207
Si Si3 0.250000 0.171632 0.000000
Si Si4 0.762099 0.851543 0.238375
Si Si5 0.574356 0.152054 0.281017
Si Si6 0.000000 0.750000 0.159731
Si Si7 0.901774 0.923752 0.339874
O O1 0.807651 0.354112 0.832318
O O2 0.908537 0.481639 0.870352
O O3 0.953439 0.318965 0.890054
O O4 0.815210 0.388869 0.956519
O O5 0.182786 0.769813 0.456297
O O6 0.087728 0.781430 0.342416
O O7 0.106464 0.637158 0.404479
O O8 0.000000 0.750000 0.454271
O O9 0.750000 0.750000 0.250000
O O10 0.666520 0.899377 0.229589
O O11 0.816439 0.906334 0.293181
O O12 0.567011 0.202871 0.210764
O O13 0.490911 0.090036 0.295148
#
# Coordination Sequence:
#
# PCOD8296294 Si02
#       7
#    16  16   8  16  16   8  16
#     4  12  26  43  65 102 141 180 235 289 341 422
#     4  10  21  43  70  90 127 188 225 274 353 411
#     4  12  26  46  68  94 140 192 240 276 340 436
#     4  12  19  38  67 101 133 179 223 275 360 416
#     4  11  19  40  69  96 136 174 216 283 357 407
#     4  12  22  42  70  96 138 176 222 288 360 420
#     4  11  23  43  65 103 137 171 233 297 348 409
#
# _framework density 20.703579000000001
#
# number of rings (size 3 to 8) (size 9 to 14) (size 15 to 20)
#    0.000    0.667    9.167    0.500    1.167    0.667 
#    6.000    3.333    0.000    0.000    0.000    0.000 
#    0.000    0.000    0.000    0.000    0.000    0.000 
#
# Total GULP energy -594749.270718 kJ/mol
# GULP energy per Si atom -12390.609807 kJ/mol
# Density = 2.065646 g / cm^3
# Si number density = 20.703579 Si / 1000 Ang^3
#
#
#
# Elastic Constant Matrix: (Units=GPa)
#
#
# Indices 1 2 3 4 5 6 
#
# 1 161.5937 67.9576 34.4575 0.0000 0.0000 0.0000
# 2 67.9576 132.4178 47.0424 0.0000 0.0000 0.0000
# 3 34.4575 47.0424 74.6371 0.0000 0.0000 0.0000
# 4 0.0000 0.0000 0.0000 15.3913 0.0000 0.0000
# 5 0.0000 0.0000 0.0000 0.0000 44.4421 0.0000
# 6 0.0000 0.0000 0.0000 0.0000 0.0000 18.4640
#
#
#
# Elastic Compliance Matrix: (Units=1/GPa)
#
#
# Indices 1 2 3 4 5 6 
#
# 1 0.008008 -0.003603 -0.001426 0.000000 0.000000 0.000000
# 2 -0.003603 0.011352 -0.005491 0.000000 0.000000 0.000000
# 3 -0.001426 -0.005491 0.017518 0.000000 0.000000 0.000000
# 4 0.000000 0.000000 0.000000 0.064972 0.000000 0.000000
# 5 0.000000 0.000000 0.000000 0.000000 0.022501 0.000000
# 6 0.000000 0.000000 0.000000 0.000000 0.000000 0.054159
#
#
# Mechanical properties :
#
#
# Convention : Reuss Voigt Hill
#
# Bulk Modulus (GPa) = 63.14612 74.17372 68.65992
# Shear Modulus (GPa) = 24.41059 30.27221 27.34140
#
# Velocity S-wave (km/s) = 3.43746 3.82799 3.63797
# Velocity P-wave (km/s) = 6.80596 7.44596 7.13314
#
# Compressibility (1/GPa) = 0.01583629
#
# Stress axis : x y z
#
# Youngs Moduli (GPa) = 124.88060 88.09173 57.08524
#
# Poissons Ratio (x) = 0.31739 0.08140
# Poissons Ratio (y) = 0.44994 0.31348
# Poissons Ratio (z) = 0.17808 0.48375
#
# Static dielectric constant tensor:
#      x y z
#    x 4.505160 0.000000 0.000000 
#    y 0.000000 3.557350 0.000000 
#    z 0.000000 0.000000 4.604240 
# 
# 
# High freq. dielectric constant tensor:
#      x y z
#    x 1.836910 0.000000 0.000000 
#    y 0.000000 1.792540 0.000000 
#    z 0.000000 0.000000 1.790620 
# 
# From -- ./inp_files/26022.got.cif
#   From: 2010.03.12/outbox.cif.g09.slc.cpg/sg73_14_cif.got.tgz:26022.got - 2010.04.16 15:25:48.
