data_PCOD8296016
_publ_section_title
;
Structure prediction by ZEFSAII (Michael W. Deem and Ramdas Pophale) SiO2 
 PCOD8296016
Probable space group: I B C A 
;
_chemical_formula_sum "Si O2"
_cell_formula_units_Z 120
_cell_length_a 15.862934
_cell_length_b 16.779196
_cell_length_c 20.610260
_cell_angle_alpha 90.000000
_cell_angle_beta 90.000000
_cell_angle_gamma 90.000000
_cell_volume 5485.776818
_symmetry_space_group_name_H-M "I B C A "
_symmetry_group_IT_number 73
_symmetry_cell_setting 'orthorhombic'
loop_
_space_group_symop_operation_xyz
x,y,z
-x,1/2-y,z
x,-y,1/2-z
1/2-x,y,-z
-x,-y,-z
x,1/2+y,-z
-x,y,1/2+z
1/2+x,-y,z
1/2+x,1/2+y,1/2+z
1/2-x,-y,1/2+z
1/2+x,1/2-y,-z
-x,1/2+y,1/2-z
1/2-x,1/2-y,1/2-z
1/2+x,y,1/2-z
1/2-x,1/2+y,z
x,1/2-y,1/2+z
loop_
_atom_site_type_symbol
_atom_site_label
_atom_site_fract_x
_atom_site_fract_y
_atom_site_fract_z
Si Si1 0.774730 0.634652 0.827798
Si Si2 0.816883 0.436386 0.446589
Si Si3 0.529007 0.164989 0.084246
Si Si4 0.380453 0.725564 0.291357
Si Si5 0.904953 0.237691 0.644218
Si Si6 0.290968 0.115717 0.933642
Si Si7 0.123158 0.607545 0.146202
Si Si8 0.346094 0.000000 0.250000
O O1 0.725614 0.580934 0.878469
O O2 0.717338 0.705708 0.801216
O O3 0.857620 0.676826 0.857406
O O4 0.791372 0.577485 0.766955
O O5 0.750000 0.409527 0.500000
O O6 0.900978 0.382437 0.457422
O O7 0.836238 0.530977 0.449575
O O8 0.500000 0.250000 0.052853
O O9 0.562430 0.177115 0.157791
O O10 0.444766 0.111317 0.088034
O O11 0.408868 0.704661 0.218241
O O12 0.389289 0.818781 0.305085
O O13 0.859557 0.176057 0.595437
O O14 0.000000 0.250000 0.618605
O O15 0.216598 0.102868 0.882180
O O16 0.250000 0.151149 0.000000
O O17 0.101312 0.526732 0.186540
#
# Coordination Sequence:
#
# PCOD8296016 Si02
#       8
#    16  16  16  16  16  16  16   8
#     4  11  22  38  62  97 126 173 219 266 337 403
#     4  10  23  46  65  91 134 174 223 273 326 395
#     4   9  21  41  67  98 126 173 217 268 337 408
#     4  10  20  40  66  91 133 170 206 274 345 402
#     4  12  24  41  65  99 133 168 224 285 337 401
#     4  11  25  46  65  89 134 186 224 274 344 406
#     4  11  20  41  65  94 131 172 221 270 344 410
#     4  12  22  32  64  96 126 166 218 278 338 406
#
# _framework density 21.874751
#
# number of rings (size 3 to 8) (size 9 to 14) (size 15 to 20)
#    0.000    1.333    4.000    2.400    0.000    1.600 
#    2.400    1.333    0.000    0.000    0.000    0.000 
#    0.000    0.000    0.000    0.000    0.000    0.000 
#
# Total GULP energy -743769.470812 kJ/mol
# GULP energy per Si atom -12396.157847 kJ/mol
# Density = 2.182496 g / cm^3
# Si number density = 21.874751 Si / 1000 Ang^3
#
#
#
# Elastic Constant Matrix: (Units=GPa)
#
#
# Indices 1 2 3 4 5 6 
#
# 1 149.2942 71.8677 25.6053 0.0000 0.0000 0.0000
# 2 71.8677 95.5823 34.7943 0.0000 0.0000 0.0000
# 3 25.6053 34.7943 70.3736 0.0000 0.0000 0.0000
# 4 0.0000 0.0000 0.0000 31.6384 0.0000 0.0000
# 5 0.0000 0.0000 0.0000 0.0000 21.0825 0.0000
# 6 0.0000 0.0000 0.0000 0.0000 0.0000 25.3216
#
#
#
# Elastic Compliance Matrix: (Units=1/GPa)
#
#
# Indices 1 2 3 4 5 6 
#
# 1 0.010498 -0.007931 0.000101 0.000000 0.000000 0.000000
# 2 -0.007931 0.018749 -0.006385 0.000000 0.000000 0.000000
# 3 0.000101 -0.006385 0.017330 0.000000 0.000000 0.000000
# 4 0.000000 0.000000 0.000000 0.031607 0.000000 0.000000
# 5 0.000000 0.000000 0.000000 0.000000 0.047433 0.000000
# 6 0.000000 0.000000 0.000000 0.000000 0.000000 0.039492
#
#
# Mechanical properties :
#
#
# Convention : Reuss Voigt Hill
#
# Bulk Modulus (GPa) = 55.09750 64.42050 59.75900
# Shear Modulus (GPa) = 25.05173 27.80734 26.42954
#
# Velocity S-wave (km/s) = 3.38780 3.56927 3.47972
# Velocity P-wave (km/s) = 6.36752 6.81908 6.59717
#
# Compressibility (1/GPa) = 0.01814965
#
# Stress axis : x y z
#
# Youngs Moduli (GPa) = 95.25204 53.33547 57.70438
#
# Poissons Ratio (x) = 0.42298 -0.00584
# Poissons Ratio (y) = 0.75540 0.36841
# Poissons Ratio (z) = -0.00964 0.34052
#
# Static dielectric constant tensor:
#      x y z
#    x 4.159580 0.000000 0.000000 
#    y 0.000000 3.958640 0.000000 
#    z 0.000000 0.000000 3.908010 
# 
# 
# High freq. dielectric constant tensor:
#      x y z
#    x 1.858310 0.000000 0.000000 
#    y 0.000000 1.856530 0.000000 
#    z 0.000000 0.000000 1.853210 
# 
# From -- ./inp_files/29664.got.cif
#   From: 2010.03.12/outbox.cif.g09.slc.cpg/sg73_15_cif.got.tgz:29664.got - 2010.04.16 15:25:48.
