data_PCOD8296051
_publ_section_title
;
Structure prediction by ZEFSAII (Michael W. Deem and Ramdas Pophale) SiO2 
 PCOD8296051
Probable space group: I B C A 
;
_chemical_formula_sum "Si O2"
_cell_formula_units_Z 104
_cell_length_a 19.924230
_cell_length_b 8.547768
_cell_length_c 29.434444
_cell_angle_alpha 90.000000
_cell_angle_beta 90.000000
_cell_angle_gamma 90.000000
_cell_volume 5012.912329
_symmetry_space_group_name_H-M "I B C A "
_symmetry_group_IT_number 73
_symmetry_cell_setting 'orthorhombic'
loop_
_space_group_symop_operation_xyz
x,y,z
-x,1/2-y,z
x,-y,1/2-z
1/2-x,y,-z
-x,-y,-z
x,1/2+y,-z
-x,y,1/2+z
1/2+x,-y,z
1/2+x,1/2+y,1/2+z
1/2-x,-y,1/2+z
1/2+x,1/2-y,-z
-x,1/2+y,1/2-z
1/2-x,1/2-y,1/2-z
1/2+x,y,1/2-z
1/2-x,1/2+y,z
x,1/2-y,1/2+z
loop_
_atom_site_type_symbol
_atom_site_label
_atom_site_fract_x
_atom_site_fract_y
_atom_site_fract_z
Si Si1 0.699970 0.451429 0.873165
Si Si2 0.836693 0.093581 0.132086
Si Si3 0.575231 0.375836 0.659499
Si Si4 0.000000 0.250000 0.423947
Si Si5 0.184791 0.886647 0.030994
Si Si6 0.060516 0.039429 0.802255
Si Si7 0.383965 0.433866 0.542123
O O1 0.689111 0.268030 0.874028
O O2 0.773656 0.486088 0.853105
O O3 0.644418 0.530246 0.840633
O O4 0.698076 0.516922 0.923846
O O5 0.893282 0.082647 0.170682
O O6 0.869548 0.041781 0.085109
O O7 0.555038 0.336853 0.607484
O O8 0.516946 0.480672 0.682380
O O9 0.584801 0.216041 0.687633
O O10 0.039528 0.372326 0.455547
O O11 0.169081 0.707867 0.042477
O O12 0.250000 0.895356 0.000000
O O13 0.122755 0.964687 0.003733
O O14 0.067961 0.000000 0.750000
#
# Coordination Sequence:
#
# PCOD8296051 Si02
#       7
#    16  16  16   8  16  16  16
#     4  12  25  42  66  97 133 177 223 268 329 399
#     4  12  24  42  67  94 131 176 218 273 337 394
#     4  10  21  44  69  94 134 177 207 269 332 391
#     4  10  20  42  64  84 130 176 216 262 334 378
#     4  12  24  37  63  95 125 172 229 273 315 384
#     4  10  22  44  73 102 130 169 219 270 328 401
#     4  12  23  41  61  92 132 176 222 275 325 382
#
# _framework density 20.746421999999999
#
# number of rings (size 3 to 8) (size 9 to 14) (size 15 to 20)
#    0.000    0.923    6.154    3.231    0.000    3.692 
#    0.000    3.846    0.000    0.000    0.000    0.000 
#    0.000    0.000    0.000    0.000    0.000    0.000 
#
# Total GULP energy -645034.659496 kJ/mol
# GULP energy per Si atom -12404.512683 kJ/mol
# Density = 2.069920 g / cm^3
# Si number density = 20.746422 Si / 1000 Ang^3
#
#
#
# Elastic Constant Matrix: (Units=GPa)
#
#
# Indices 1 2 3 4 5 6 
#
# 1 85.0954 22.3963 19.3007 0.0000 0.0000 0.0000
# 2 22.3963 83.5038 18.7437 0.0000 0.0000 0.0000
# 3 19.3007 18.7437 95.2399 0.0000 0.0000 0.0000
# 4 0.0000 0.0000 0.0000 20.9197 0.0000 0.0000
# 5 0.0000 0.0000 0.0000 0.0000 19.3680 0.0000
# 6 0.0000 0.0000 0.0000 0.0000 0.0000 40.6170
#
#
#
# Elastic Compliance Matrix: (Units=1/GPa)
#
#
# Indices 1 2 3 4 5 6 
#
# 1 0.013012 -0.003032 -0.002040 0.000000 0.000000 0.000000
# 2 -0.003032 0.013235 -0.001990 0.000000 0.000000 0.000000
# 3 -0.002040 -0.001990 0.011305 0.000000 0.000000 0.000000
# 4 0.000000 0.000000 0.000000 0.047802 0.000000 0.000000
# 5 0.000000 0.000000 0.000000 0.000000 0.051632 0.000000
# 6 0.000000 0.000000 0.000000 0.000000 0.000000 0.024620
#
#
# Mechanical properties :
#
#
# Convention : Reuss Voigt Hill
#
# Bulk Modulus (GPa) = 42.68499 42.74674 42.71587
# Shear Modulus (GPa) = 27.24189 29.74083 28.49136
#
# Velocity S-wave (km/s) = 3.62759 3.79032 3.70985
# Velocity P-wave (km/s) = 6.17780 6.30908 6.24378
#
# Compressibility (1/GPa) = 0.02342744
#
# Stress axis : x y z
#
# Youngs Moduli (GPa) = 76.85052 75.55450 88.45660
#
# Poissons Ratio (x) = 0.22908 0.18048
# Poissons Ratio (y) = 0.23301 0.17606
# Poissons Ratio (z) = 0.15680 0.15038
#
# Static dielectric constant tensor:
#      x y z
#    x 4.104760 0.000000 0.000000 
#    y 0.000000 3.809090 0.000000 
#    z 0.000000 0.000000 3.618650 
# 
# 
# High freq. dielectric constant tensor:
#      x y z
#    x 1.823800 0.000000 0.000000 
#    y 0.000000 1.813210 0.000000 
#    z 0.000000 0.000000 1.794200 
# 
# From -- ./inp_files/32675.got.cif
#   From: 2010.03.12/outbox.cif.g09.slc.cpg/sg73_17_cif.got.tgz:32675.got - 2010.04.16 15:25:48.
