data_PCOD8296526
_publ_section_title
;
Structure prediction by ZEFSAII (Michael W. Deem and Ramdas Pophale) SiO2 
 PCOD8296526
Probable space group: I B C A 
;
_chemical_formula_sum "Si O2"
_cell_formula_units_Z 88
_cell_length_a 12.723114
_cell_length_b 23.191265
_cell_length_c 12.985326
_cell_angle_alpha 90.000000
_cell_angle_beta 90.000000
_cell_angle_gamma 90.000000
_cell_volume 3831.516624
_symmetry_space_group_name_H-M "I B C A "
_symmetry_group_IT_number 73
_symmetry_cell_setting 'orthorhombic'
loop_
_space_group_symop_operation_xyz
x,y,z
-x,1/2-y,z
x,-y,1/2-z
1/2-x,y,-z
-x,-y,-z
x,1/2+y,-z
-x,y,1/2+z
1/2+x,-y,z
1/2+x,1/2+y,1/2+z
1/2-x,-y,1/2+z
1/2+x,1/2-y,-z
-x,1/2+y,1/2-z
1/2-x,1/2-y,1/2-z
1/2+x,y,1/2-z
1/2-x,1/2+y,z
x,1/2-y,1/2+z
loop_
_atom_site_type_symbol
_atom_site_label
_atom_site_fract_x
_atom_site_fract_y
_atom_site_fract_z
Si Si1 0.565237 0.050718 0.357486
Si Si2 0.500000 0.250000 0.158895
Si Si3 0.704369 0.563535 0.298690
Si Si4 0.004514 0.433357 0.913364
Si Si5 0.422471 0.351851 0.801761
Si Si6 0.372396 0.171864 0.524639
O O1 0.686735 0.068349 0.359428
O O2 0.503498 0.052013 0.465849
O O3 0.504833 0.094914 0.281064
O O4 0.555917 0.981737 0.335615
O O5 0.552696 0.300164 0.225298
O O6 0.596298 0.229016 0.087258
O O7 0.688303 0.500000 0.250000
O O8 0.614751 0.579574 0.381298
O O9 0.691515 0.616428 0.215797
O O10 0.086539 0.380829 0.905565
O O11 0.433544 0.327212 0.915927
O O12 0.250000 0.169655 0.500000
#
# Coordination Sequence:
#
# PCOD8296526 Si02
#       6
#    16   8  16  16  16  16
#     4  10  24  41  70 100 145 185 230 291 367 433
#     4  12  26  52  74  92 146 184 252 304 348 426
#     4  12  24  38  71 105 141 185 228 293 365 438
#     4  10  22  46  66 101 145 181 234 295 357 445
#     4  11  26  47  68 108 141 184 244 301 350 439
#     4  11  27  48  75 105 141 195 242 303 369 424
#
# _framework density 22.967406
#
# number of rings (size 3 to 8) (size 9 to 14) (size 15 to 20)
#    0.000    1.091    3.636    1.091    7.636    0.727 
#    6.545    0.000    0.000    0.000    0.000    0.000 
#    0.000    0.000    0.000    0.000    0.000    0.000 
#
# Total GULP energy -545401.448377 kJ/mol
# GULP energy per Si atom -12395.487463 kJ/mol
# Density = 2.291513 g / cm^3
# Si number density = 22.967406 Si / 1000 Ang^3
#
#
#
# Elastic Constant Matrix: (Units=GPa)
#
#
# Indices 1 2 3 4 5 6 
#
# 1 162.8844 69.1334 29.1729 0.0001 0.0000 0.0000
# 2 69.1334 173.8095 71.7620 -0.0008 0.0000 -0.0001
# 3 29.1729 71.7620 76.5598 -0.0003 0.0001 -0.0001
# 4 0.0001 -0.0008 -0.0003 44.9585 0.0000 -0.0001
# 5 0.0000 0.0000 0.0001 0.0000 27.9648 0.0000
# 6 0.0000 -0.0001 -0.0001 -0.0001 0.0000 25.1392
#
#
#
# Elastic Compliance Matrix: (Units=1/GPa)
#
#
# Indices 1 2 3 4 5 6 
#
# 1 0.007387 -0.002897 -0.000099 0.000000 0.000000 0.000000
# 2 -0.002897 0.010522 -0.008759 0.000000 0.000000 0.000000
# 3 -0.000099 -0.008759 0.021309 0.000000 0.000000 0.000000
# 4 0.000000 0.000000 0.000000 0.022243 0.000000 0.000000
# 5 0.000000 0.000000 0.000000 0.000000 0.035759 0.000000
# 6 0.000000 0.000000 0.000000 0.000000 0.000000 0.039779
#
#
# Mechanical properties :
#
#
# Convention : Reuss Voigt Hill
#
# Bulk Modulus (GPa) = 63.66130 83.71004 73.68567
# Shear Modulus (GPa) = 30.16690 35.82486 32.99588
#
# Velocity S-wave (km/s) = 3.62811 3.95373 3.79441
# Velocity P-wave (km/s) = 6.73269 7.57424 7.16583
#
# Compressibility (1/GPa) = 0.01570813
#
# Stress axis : x y z
#
# Youngs Moduli (GPa) = 135.37788 95.03834 46.92798
#
# Poissons Ratio (x) = 0.27535 0.00465
# Poissons Ratio (y) = 0.39222 0.41103
# Poissons Ratio (z) = 0.01341 0.83241
#
# Static dielectric constant tensor:
#      x y z
#    x 3.935130 0.000000 0.000000 
#    y 0.000000 4.354180 0.000000 
#    z 0.000000 0.000000 4.453990 
# 
# 
# High freq. dielectric constant tensor:
#      x y z
#    x 1.895300 0.000000 0.000000 
#    y 0.000000 1.908510 0.000000 
#    z 0.000000 0.000000 1.939150 
# 
# From -- ./inp_files/16106.got.cif
#   From: 2010.03.12/outbox.cif.g09.slc.cpg/sg73_9_cif.got.tgz:16106.got - 2010.04.16 15:25:48.
