data_PCOD8296160
_publ_section_title
;
Structure prediction by ZEFSAII (Michael W. Deem and Ramdas Pophale) SiO2 
 PCOD8296160
Probable space group: I B C A 
;
_chemical_formula_sum "Si O2"
_cell_formula_units_Z 72
_cell_length_a 25.358636
_cell_length_b 14.996400
_cell_length_c 9.172300
_cell_angle_alpha 90.000000
_cell_angle_beta 90.000000
_cell_angle_gamma 90.000000
_cell_volume 3488.117905
_symmetry_space_group_name_H-M "I B C A "
_symmetry_group_IT_number 73
_symmetry_cell_setting 'orthorhombic'
loop_
_space_group_symop_operation_xyz
x,y,z
-x,1/2-y,z
x,-y,1/2-z
1/2-x,y,-z
-x,-y,-z
x,1/2+y,-z
-x,y,1/2+z
1/2+x,-y,z
1/2+x,1/2+y,1/2+z
1/2-x,-y,1/2+z
1/2+x,1/2-y,-z
-x,1/2+y,1/2-z
1/2-x,1/2-y,1/2-z
1/2+x,y,1/2-z
1/2-x,1/2+y,z
x,1/2-y,1/2+z
loop_
_atom_site_type_symbol
_atom_site_label
_atom_site_fract_x
_atom_site_fract_y
_atom_site_fract_z
Si Si1 0.072845 0.774643 0.274171
Si Si2 0.129036 0.908171 0.830527
Si Si3 0.500000 0.750000 0.476859
Si Si4 0.756348 0.659582 0.833943
Si Si5 0.147087 0.414291 0.829539
O O1 0.087785 0.669309 0.282563
O O2 0.038866 0.805780 0.415734
O O3 0.038474 0.803429 0.132290
O O4 0.126494 0.828842 0.260385
O O5 0.188683 0.884371 0.785590
O O6 0.112414 0.000000 0.750000
O O7 0.127629 0.917645 0.004540
O O8 0.750000 0.750000 0.750000
O O9 0.709959 0.588249 0.805860
O O10 0.750000 0.688680 0.000000
O O11 0.123630 0.500000 0.750000
#
# Coordination Sequence:
#
# PCOD8296160 Si02
#       5
#    16  16   8  16  16
#     4  11  22  45  66  92 124 165 216 261 330 366
#     4  11  24  40  65  97 132 169 209 256 312 380
#     4  10  24  42  70  88 124 164 208 282 318 376
#     4  10  21  38  62  97 131 169 207 249 309 374
#     4  11  24  40  65  97 132 169 209 256 312 380
#
# _framework density 20.641504999999999
#
# number of rings (size 3 to 8) (size 9 to 14) (size 15 to 20)
#    0.000    1.333    4.444    0.667    3.111    1.778 
#    0.000    6.667    0.000    0.000    0.000    0.000 
#    0.000    0.000    0.000    0.000    0.000    0.000 
#
# Total GULP energy -446052.724080 kJ/mol
# GULP energy per Si atom -12390.353447 kJ/mol
# Density = 2.059452 g / cm^3
# Si number density = 20.641505 Si / 1000 Ang^3
#
#
#
# Elastic Constant Matrix: (Units=GPa)
#
#
# Indices 1 2 3 4 5 6 
#
# 1 102.7130 31.9000 46.4630 0.0000 0.0000 0.0000
# 2 31.9000 129.2875 47.7167 0.0000 0.0000 0.0000
# 3 46.4630 47.7167 113.0811 0.0000 0.0000 0.0000
# 4 0.0000 0.0000 0.0000 29.5950 0.0000 0.0000
# 5 0.0000 0.0000 0.0000 0.0000 33.1015 0.0000
# 6 0.0000 0.0000 0.0000 0.0000 0.0000 8.7815
#
#
#
# Elastic Compliance Matrix: (Units=1/GPa)
#
#
# Indices 1 2 3 4 5 6 
#
# 1 0.012160 -0.001370 -0.004418 0.000000 0.000000 0.000000
# 2 -0.001370 0.009316 -0.003368 0.000000 0.000000 0.000000
# 3 -0.004418 -0.003368 0.012080 0.000000 0.000000 0.000000
# 4 0.000000 0.000000 0.000000 0.033789 0.000000 0.000000
# 5 0.000000 0.000000 0.000000 0.000000 0.030210 0.000000
# 6 0.000000 0.000000 0.000000 0.000000 0.000000 0.113875
#
#
# Mechanical properties :
#
#
# Convention : Reuss Voigt Hill
#
# Bulk Modulus (GPa) = 65.60287 66.36011 65.98149
# Shear Modulus (GPa) = 21.29256 28.89574 25.09415
#
# Velocity S-wave (km/s) = 3.21525 3.74556 3.49049
# Velocity P-wave (km/s) = 6.75535 7.13613 6.94835
#
# Compressibility (1/GPa) = 0.01524323
#
# Stress axis : x y z
#
# Youngs Moduli (GPa) = 82.23750 107.34508 82.78208
#
# Poissons Ratio (x) = 0.14702 0.36576
# Poissons Ratio (y) = 0.11263 0.27883
# Poissons Ratio (z) = 0.36335 0.36156
#
# Static dielectric constant tensor:
#      x y z
#    x 2.227720 0.000000 0.000000 
#    y 0.000000 3.476510 0.000000 
#    z 0.000000 0.000000 4.115210 
# 
# 
# High freq. dielectric constant tensor:
#      x y z
#    x 1.821990 0.000000 0.000000 
#    y 0.000000 1.777010 0.000000 
#    z 0.000000 0.000000 1.820330 
# 
# From -- ./inp_files/4778.got.cif
#   From: 2010.03.12/outbox.cif.g09.slc.cpg/sg73_3_cif.got.tgz:4778.got - 2010.04.16 15:25:48.
