data_PCOD8296165
_publ_section_title
;
Structure prediction by ZEFSAII (Michael W. Deem and Ramdas Pophale) SiO2 
 PCOD8296165
Probable space group: I B C A 
;
_chemical_formula_sum "Si O2"
_cell_formula_units_Z 104
_cell_length_a 19.698175
_cell_length_b 8.702296
_cell_length_c 29.584802
_cell_angle_alpha 90.000000
_cell_angle_beta 90.000000
_cell_angle_gamma 90.000000
_cell_volume 5071.407514
_symmetry_space_group_name_H-M "I B C A "
_symmetry_group_IT_number 73
_symmetry_cell_setting 'orthorhombic'
loop_
_space_group_symop_operation_xyz
x,y,z
-x,1/2-y,z
x,-y,1/2-z
1/2-x,y,-z
-x,-y,-z
x,1/2+y,-z
-x,y,1/2+z
1/2+x,-y,z
1/2+x,1/2+y,1/2+z
1/2-x,-y,1/2+z
1/2+x,1/2-y,-z
-x,1/2+y,1/2-z
1/2-x,1/2-y,1/2-z
1/2+x,y,1/2-z
1/2-x,1/2+y,z
x,1/2-y,1/2+z
loop_
_atom_site_type_symbol
_atom_site_label
_atom_site_fract_x
_atom_site_fract_y
_atom_site_fract_z
Si Si1 0.187784 0.587067 0.203948
Si Si2 0.159516 0.927859 0.535418
Si Si3 0.564536 0.553256 0.875780
Si Si4 0.667643 0.451264 0.701500
Si Si5 0.545673 0.605882 0.531586
Si Si6 0.087361 0.088326 0.873425
Si Si7 0.750000 0.810160 0.500000
O O1 0.167682 0.500000 0.250000
O O2 0.263507 0.541127 0.189589
O O3 0.182948 0.770667 0.206113
O O4 0.135064 0.529749 0.166585
O O5 0.110579 0.850352 0.498127
O O6 0.118817 0.972814 0.580252
O O7 0.219275 0.800041 0.539972
O O8 0.190096 0.089566 0.520617
O O9 0.613896 0.493142 0.836209
O O10 0.576813 0.475602 0.924129
O O11 0.581441 0.730983 0.880066
O O12 0.486551 0.519386 0.862724
O O13 0.637894 0.500000 0.750000
O O14 0.500000 0.750000 0.546354
O O15 0.500000 0.500000 0.500000
#
# Coordination Sequence:
#
# PCOD8296165 Si02
#       7
#    16  16  16  16  16  16   8
#     4  10  21  39  62  91 118 167 209 251 320 384
#     4  11  22  39  59  87 121 164 203 257 312 363
#     4  10  22  40  60  95 121 161 208 256 317 368
#     4  10  21  41  65  89 125 162 206 264 314 381
#     4  12  23  40  64  90 123 168 215 257 309 385
#     4  10  21  38  64  86 125 160 206 258 316 374
#     4  10  24  38  56  86 124 156 208 254 310 366
#
# _framework density 20.507127000000001
#
# number of rings (size 3 to 8) (size 9 to 14) (size 15 to 20)
#    0.000    1.538    1.538    4.615    0.000    5.538 
#    5.538    0.000    0.000    0.000    0.000    0.000 
#    0.000    0.000    0.000    0.000    0.000    0.000 
#
# Total GULP energy -644609.270371 kJ/mol
# GULP energy per Si atom -12396.332123 kJ/mol
# Density = 2.046045 g / cm^3
# Si number density = 20.507127 Si / 1000 Ang^3
#
#
#
# Elastic Constant Matrix: (Units=GPa)
#
#
# Indices 1 2 3 4 5 6 
#
# 1 128.5018 39.0696 93.0861 0.0000 0.0000 0.0000
# 2 39.0696 70.8743 40.6214 0.0000 0.0000 0.0000
# 3 93.0861 40.6214 166.5674 0.0000 0.0000 0.0000
# 4 0.0000 0.0000 0.0000 10.2068 0.0000 0.0000
# 5 0.0000 0.0000 0.0000 0.0000 42.4163 0.0000
# 6 0.0000 0.0000 0.0000 0.0000 0.0000 21.8968
#
#
#
# Elastic Compliance Matrix: (Units=1/GPa)
#
#
# Indices 1 2 3 4 5 6 
#
# 1 0.013872 -0.003724 -0.006844 0.000000 0.000000 0.000000
# 2 -0.003724 0.017402 -0.002163 0.000000 0.000000 0.000000
# 3 -0.006844 -0.002163 0.010356 0.000000 0.000000 0.000000
# 4 0.000000 0.000000 0.000000 0.097974 0.000000 0.000000
# 5 0.000000 0.000000 0.000000 0.000000 0.023576 0.000000
# 6 0.000000 0.000000 0.000000 0.000000 0.000000 0.045669
#
#
# Mechanical properties :
#
#
# Convention : Reuss Voigt Hill
#
# Bulk Modulus (GPa) = 61.85106 79.05528 70.45317
# Shear Modulus (GPa) = 20.85941 27.78175 24.32058
#
# Velocity S-wave (km/s) = 3.19278 3.68467 3.44751
# Velocity P-wave (km/s) = 6.61952 7.53234 7.09064
#
# Compressibility (1/GPa) = 0.01616787
#
# Stress axis : x y z
#
# Youngs Moduli (GPa) = 72.08619 57.46464 96.56373
#
# Poissons Ratio (x) = 0.21402 0.66091
# Poissons Ratio (y) = 0.26848 0.20882
# Poissons Ratio (z) = 0.49338 0.12427
#
# Static dielectric constant tensor:
#      x y z
#    x 4.159290 0.000000 0.000000 
#    y 0.000000 3.810990 0.000000 
#    z 0.000000 0.000000 3.826820 
# 
# 
# High freq. dielectric constant tensor:
#      x y z
#    x 1.817010 0.000000 0.000000 
#    y 0.000000 1.801790 0.000000 
#    z 0.000000 0.000000 1.794690 
# 
# From -- ./inp_files/34682.got.cif
#   From: 2010.03.12/outbox.cif.g09.slc.cpg/sg73_18_cif.got.tgz:34682.got - 2010.04.16 15:25:48.
