data_PCOD8296730
_publ_section_title
;
Structure prediction by ZEFSAII (Michael W. Deem and Ramdas Pophale) SiO2 
 PCOD8296730
Probable space group: I B C A 
;
_chemical_formula_sum "Si O2"
_cell_formula_units_Z 88
_cell_length_a 13.421112
_cell_length_b 21.409496
_cell_length_c 13.460524
_cell_angle_alpha 90.000000
_cell_angle_beta 90.000000
_cell_angle_gamma 90.000000
_cell_volume 3867.736786
_symmetry_space_group_name_H-M "I B C A "
_symmetry_group_IT_number 73
_symmetry_cell_setting 'orthorhombic'
loop_
_space_group_symop_operation_xyz
x,y,z
-x,1/2-y,z
x,-y,1/2-z
1/2-x,y,-z
-x,-y,-z
x,1/2+y,-z
-x,y,1/2+z
1/2+x,-y,z
1/2+x,1/2+y,1/2+z
1/2-x,-y,1/2+z
1/2+x,1/2-y,-z
-x,1/2+y,1/2-z
1/2-x,1/2-y,1/2-z
1/2+x,y,1/2-z
1/2-x,1/2+y,z
x,1/2-y,1/2+z
loop_
_atom_site_type_symbol
_atom_site_label
_atom_site_fract_x
_atom_site_fract_y
_atom_site_fract_z
Si Si1 0.780143 0.631388 0.611318
Si Si2 0.750000 0.357699 0.500000
Si Si3 0.826612 0.236423 0.836140
Si Si4 0.947133 0.917425 0.425832
Si Si5 0.037278 0.446878 0.367457
Si Si6 0.574921 0.638731 0.726799
O O1 0.750000 0.612659 0.500000
O O2 0.840782 0.697777 0.607756
O O3 0.856029 0.582487 0.660288
O O4 0.684627 0.629587 0.682020
O O5 0.714075 0.314977 0.588963
O O6 0.835946 0.402907 0.540291
O O7 0.750000 0.250000 0.750000
O O8 0.925917 0.205081 0.786652
O O9 0.018515 0.929389 0.518228
O O10 0.992422 0.859984 0.361068
O O11 0.952794 0.978451 0.354312
O O12 0.948332 0.418570 0.301230
#
# Coordination Sequence:
#
# PCOD8296730 Si02
#       6
#    16   8  16  16  16  16
#     4  11  23  46  74 103 144 191 239 308 369 439
#     4  12  24  48  72 104 146 192 240 312 358 434
#     4  10  24  45  70 104 144 182 242 292 364 442
#     4  11  26  44  70 105 144 187 244 299 361 440
#     4  11  25  45  69 106 141 189 243 293 372 433
#     4  11  24  47  68 105 145 188 242 299 364 452
#
# _framework density 22.752321999999999
#
# number of rings (size 3 to 8) (size 9 to 14) (size 15 to 20)
#    0.000    1.091    4.545    0.545    6.364    0.727 
#    6.545    3.636    0.000    0.000    0.000    0.000 
#    0.000    0.000    0.000    0.000    0.000    0.000 
#
# Total GULP energy -545480.509663 kJ/mol
# GULP energy per Si atom -12397.284311 kJ/mol
# Density = 2.270054 g / cm^3
# Si number density = 22.752322 Si / 1000 Ang^3
#
#
#
# Elastic Constant Matrix: (Units=GPa)
#
#
# Indices 1 2 3 4 5 6 
#
# 1 130.2053 64.6883 37.4744 0.0000 0.0000 0.0000
# 2 64.6883 108.9057 42.2797 0.0016 -0.0001 -0.0002
# 3 37.4744 42.2797 78.8678 0.0013 -0.0001 -0.0002
# 4 0.0000 0.0016 0.0013 39.9232 -0.0001 -0.0002
# 5 0.0000 -0.0001 -0.0001 -0.0001 45.2416 0.0000
# 6 0.0000 -0.0002 -0.0002 -0.0002 0.0000 34.7377
#
#
#
# Elastic Compliance Matrix: (Units=1/GPa)
#
#
# Indices 1 2 3 4 5 6 
#
# 1 0.011194 -0.005789 -0.002215 0.000000 0.000000 0.000000
# 2 -0.005789 0.014589 -0.005070 0.000000 0.000000 0.000000
# 3 -0.002215 -0.005070 0.016450 0.000000 0.000000 0.000000
# 4 0.000000 0.000000 0.000000 0.025048 0.000000 0.000000
# 5 0.000000 0.000000 0.000000 0.000000 0.022104 0.000000
# 6 0.000000 0.000000 0.000000 0.000000 0.000000 0.028787
#
#
# Mechanical properties :
#
#
# Convention : Reuss Voigt Hill
#
# Bulk Modulus (GPa) = 62.17434 67.42929 64.80181
# Shear Modulus (GPa) = 33.40393 35.54958 34.47675
#
# Velocity S-wave (km/s) = 3.83581 3.95708 3.89692
# Velocity P-wave (km/s) = 6.85593 7.11186 6.98507
#
# Compressibility (1/GPa) = 0.01608381
#
# Stress axis : x y z
#
# Youngs Moduli (GPa) = 89.33495 68.54382 60.78911
#
# Poissons Ratio (x) = 0.39679 0.13468
# Poissons Ratio (y) = 0.51715 0.30823
# Poissons Ratio (z) = 0.19792 0.34755
#
# Static dielectric constant tensor:
#      x y z
#    x 3.861540 0.000000 0.000000 
#    y 0.000000 4.444480 0.000000 
#    z 0.000000 0.000000 4.414960 
# 
# 
# High freq. dielectric constant tensor:
#      x y z
#    x 1.887610 0.000000 0.000000 
#    y 0.000000 1.895170 0.000000 
#    z 0.000000 0.000000 1.922160 
# 
# From -- ./inp_files/16104.got.cif
#   From: 2010.03.12/outbox.cif.g09.slc.cpg/sg73_9_cif.got.tgz:16104.got - 2010.04.16 15:25:48.
