data_PCOD8296172
_publ_section_title
;
Structure prediction by ZEFSAII (Michael W. Deem and Ramdas Pophale) SiO2 
 PCOD8296172
Probable space group: I B C A 
;
_chemical_formula_sum "Si O2"
_cell_formula_units_Z 120
_cell_length_a 14.013086
_cell_length_b 20.639320
_cell_length_c 19.961965
_cell_angle_alpha 90.000000
_cell_angle_beta 90.000000
_cell_angle_gamma 90.000000
_cell_volume 5773.410819
_symmetry_space_group_name_H-M "I B C A "
_symmetry_group_IT_number 73
_symmetry_cell_setting 'orthorhombic'
loop_
_space_group_symop_operation_xyz
x,y,z
-x,1/2-y,z
x,-y,1/2-z
1/2-x,y,-z
-x,-y,-z
x,1/2+y,-z
-x,y,1/2+z
1/2+x,-y,z
1/2+x,1/2+y,1/2+z
1/2-x,-y,1/2+z
1/2+x,1/2-y,-z
-x,1/2+y,1/2-z
1/2-x,1/2-y,1/2-z
1/2+x,y,1/2-z
1/2-x,1/2+y,z
x,1/2-y,1/2+z
loop_
_atom_site_type_symbol
_atom_site_label
_atom_site_fract_x
_atom_site_fract_y
_atom_site_fract_z
Si Si1 0.077091 0.691900 0.340339
Si Si2 0.706638 0.530485 0.362945
Si Si3 0.558303 0.940769 0.584185
Si Si4 0.893551 0.342801 0.814911
Si Si5 0.093907 0.608938 0.667176
Si Si6 0.647065 0.500000 0.750000
Si Si7 0.224241 0.773366 0.177154
Si Si8 0.633750 0.987470 0.446839
O O1 0.051667 0.633566 0.391181
O O2 0.092986 0.663940 0.265348
O O3 0.178058 0.721792 0.365771
O O4 0.000000 0.750000 0.341545
O O5 0.610870 0.486060 0.360249
O O6 0.678864 0.601399 0.338203
O O7 0.787169 0.504631 0.314083
O O8 0.764200 0.525019 0.434516
O O9 0.624422 0.954697 0.519597
O O10 0.450582 0.961891 0.569564
O O11 0.851469 0.278621 0.851064
O O12 0.996114 0.353933 0.847355
O O13 0.080320 0.561651 0.732389
O O14 0.178592 0.656814 0.685112
O O15 0.124234 0.574439 0.599896
O O16 0.250000 0.750000 0.250000
#
# Coordination Sequence:
#
# PCOD8296172 Si02
#       8
#    16  16  16  16  16   8  16  16
#     4  11  24  39  66  95 132 179 218 270 337 413
#     4  11  21  38  63  96 124 173 214 278 327 402
#     4  11  23  44  65  92 131 175 225 277 334 387
#     4  11  22  36  62  94 132 167 211 266 341 398
#     4  11  21  39  60  94 126 167 212 268 335 401
#     4  10  22  32  58  94 128 150 210 268 328 402
#     4  10  21  39  56  87 129 171 204 252 323 398
#     4  10  24  41  66  92 127 172 222 282 328 381
#
# _framework density 20.784939999999999
#
# number of rings (size 3 to 8) (size 9 to 14) (size 15 to 20)
#    0.000    1.333    1.333    6.400    5.600    0.533 
#    0.000    1.333    0.000    0.000    0.000    0.000 
#    0.000    0.000    0.000    0.000    0.000    0.000 
#
# Total GULP energy -743394.352686 kJ/mol
# GULP energy per Si atom -12389.905878 kJ/mol
# Density = 2.073763 g / cm^3
# Si number density = 20.784940 Si / 1000 Ang^3
#
#
#
# Elastic Constant Matrix: (Units=GPa)
#
#
# Indices 1 2 3 4 5 6 
#
# 1 116.9355 64.9927 23.1807 0.0000 0.0000 0.0000
# 2 64.9927 155.6345 54.2451 0.0000 0.0000 0.0000
# 3 23.1807 54.2451 59.8509 0.0000 0.0000 0.0000
# 4 0.0000 0.0000 0.0000 27.0233 0.0000 0.0000
# 5 0.0000 0.0000 0.0000 0.0000 15.3624 0.0000
# 6 0.0000 0.0000 0.0000 0.0000 0.0000 59.1558
#
#
#
# Elastic Compliance Matrix: (Units=1/GPa)
#
#
# Indices 1 2 3 4 5 6 
#
# 1 0.011137 -0.004601 -0.000144 0.000000 0.000000 0.000000
# 2 -0.004601 0.011293 -0.008453 0.000000 0.000000 0.000000
# 3 -0.000144 -0.008453 0.024425 0.000000 0.000000 0.000000
# 4 0.000000 0.000000 0.000000 0.037005 0.000000 0.000000
# 5 0.000000 0.000000 0.000000 0.000000 0.065094 0.000000
# 6 0.000000 0.000000 0.000000 0.000000 0.000000 0.016904
#
#
# Mechanical properties :
#
#
# Convention : Reuss Voigt Hill
#
# Bulk Modulus (GPa) = 48.87570 68.58423 58.72996
# Shear Modulus (GPa) = 25.11617 32.97512 29.04564
#
# Velocity S-wave (km/s) = 3.47995 3.98740 3.74229
# Velocity P-wave (km/s) = 6.30181 7.36667 6.85495
#
# Compressibility (1/GPa) = 0.02046006
#
# Stress axis : x y z
#
# Youngs Moduli (GPa) = 89.78787 88.55087 40.94115
#
# Poissons Ratio (x) = 0.40741 0.00588
# Poissons Ratio (y) = 0.41310 0.34609
# Poissons Ratio (z) = 0.01290 0.74854
#
# Static dielectric constant tensor:
#      x y z
#    x 5.621530 0.000000 0.000000 
#    y 0.000000 4.790780 0.000000 
#    z 0.000000 0.000000 4.200000 
# 
# 
# High freq. dielectric constant tensor:
#      x y z
#    x 1.841110 0.000000 0.000000 
#    y 0.000000 1.815640 0.000000 
#    z 0.000000 0.000000 1.784180 
# 
# From -- ./inp_files/29640.got.cif
#   From: 2010.03.12/outbox.cif.g09.slc.cpg/sg73_15_cif.got.tgz:29640.got - 2010.04.16 15:25:48.
