data_PCOD8296956
_publ_section_title
;
Structure prediction by ZEFSAII (Michael W. Deem and Ramdas Pophale) SiO2 
 PCOD8296956
Probable space group: I B C A 
;
_chemical_formula_sum "Si O2"
_cell_formula_units_Z 64
_cell_length_a 7.409597
_cell_length_b 17.106677
_cell_length_c 20.585252
_cell_angle_alpha 90.000000
_cell_angle_beta 90.000000
_cell_angle_gamma 90.000000
_cell_volume 2609.254439
_symmetry_space_group_name_H-M "I B C A "
_symmetry_group_IT_number 73
_symmetry_cell_setting 'orthorhombic'
loop_
_space_group_symop_operation_xyz
x,y,z
-x,1/2-y,z
x,-y,1/2-z
1/2-x,y,-z
-x,-y,-z
x,1/2+y,-z
-x,y,1/2+z
1/2+x,-y,z
1/2+x,1/2+y,1/2+z
1/2-x,-y,1/2+z
1/2+x,1/2-y,-z
-x,1/2+y,1/2-z
1/2-x,1/2-y,1/2-z
1/2+x,y,1/2-z
1/2-x,1/2+y,z
x,1/2-y,1/2+z
loop_
_atom_site_type_symbol
_atom_site_label
_atom_site_fract_x
_atom_site_fract_y
_atom_site_fract_z
Si Si1 0.936368 0.581166 0.969088
Si Si2 0.500000 0.750000 0.393630
Si Si3 0.075611 0.894824 0.691980
Si Si4 0.750000 0.699726 0.500000
Si Si5 0.522020 0.066531 0.327073
O O1 0.907323 0.575446 0.892316
O O2 0.078676 0.648079 0.982769
O O3 0.750000 0.607948 0.000000
O O4 0.000000 0.500000 0.000000
O O5 0.518978 0.825255 0.347101
O O6 0.682840 0.750065 0.437879
O O7 0.275888 0.902077 0.663539
O O8 0.078686 0.883268 0.770482
O O9 0.959334 0.973813 0.685259
#
# Coordination Sequence:
#
# PCOD8296956 Si02
#       5
#    16   8  16   8  16
#     4  12  24  46  82 120 157 208 278 339 411 490
#     4  12  28  54  72 118 166 224 264 354 440 496
#     4  11  24  47  80 107 167 204 283 341 418 497
#     4  12  28  52  72 114 170 214 266 346 414 512
#     4  11  23  47  75 120 148 222 274 347 405 492
#
# _framework density 24.528077
#
# number of rings (size 3 to 8) (size 9 to 14) (size 15 to 20)
#    0.000    0.500    3.750    6.000    1.750    3.000 
#    0.000    0.000    0.000    0.000    0.000    0.000 
#    0.000    0.000    0.000    0.000    0.000    0.000 
#
# Total GULP energy -396849.866454 kJ/mol
# GULP energy per Si atom -12401.558327 kJ/mol
# Density = 2.447225 g / cm^3
# Si number density = 24.528077 Si / 1000 Ang^3
#
#
#
# Elastic Constant Matrix: (Units=GPa)
#
#
# Indices 1 2 3 4 5 6 
#
# 1 137.5071 52.1191 70.5042 0.0000 0.0000 0.0000
# 2 52.1191 121.3565 88.1143 0.0000 0.0000 0.0000
# 3 70.5042 88.1143 241.5155 0.0000 0.0000 0.0000
# 4 0.0000 0.0000 0.0000 43.4095 0.0000 0.0000
# 5 0.0000 0.0000 0.0000 0.0000 46.1488 0.0000
# 6 0.0000 0.0000 0.0000 0.0000 0.0000 44.1444
#
#
#
# Elastic Compliance Matrix: (Units=1/GPa)
#
#
# Indices 1 2 3 4 5 6 
#
# 1 0.009165 -0.002712 -0.001686 0.000000 0.000000 0.000000
# 2 -0.002712 0.012012 -0.003591 0.000000 0.000000 0.000000
# 3 -0.001686 -0.003591 0.005943 0.000000 0.000000 0.000000
# 4 0.000000 0.000000 0.000000 0.023036 0.000000 0.000000
# 5 0.000000 0.000000 0.000000 0.000000 0.021669 0.000000
# 6 0.000000 0.000000 0.000000 0.000000 0.000000 0.022653
#
#
# Mechanical properties :
#
#
# Convention : Reuss Voigt Hill
#
# Bulk Modulus (GPa) = 89.74858 102.42825 96.08842
# Shear Modulus (GPa) = 43.79463 46.04996 44.92229
#
# Velocity S-wave (km/s) = 4.23009 4.33764 4.28420
# Velocity P-wave (km/s) = 7.77996 8.18151 7.98326
#
# Compressibility (1/GPa) = 0.01114224
#
# Stress axis : x y z
#
# Youngs Moduli (GPa) = 109.11462 83.24980 168.27118
#
# Poissons Ratio (x) = 0.22575 0.28371
# Poissons Ratio (y) = 0.29589 0.60423
# Poissons Ratio (z) = 0.18397 0.29894
#
# Static dielectric constant tensor:
#      x y z
#    x 4.419440 0.000000 0.000000 
#    y 0.000000 4.437980 0.000000 
#    z 0.000000 0.000000 5.189590 
# 
# 
# High freq. dielectric constant tensor:
#      x y z
#    x 1.977350 0.000000 0.000000 
#    y 0.000000 1.967300 0.000000 
#    z 0.000000 0.000000 1.998170 
# 
# From -- ./inp_files/24613.got.cif
#   From: 2010.03.12/outbox.cif.g09.slc.cpg/sg73_13_cif.got.tgz:24613.got - 2010.04.16 15:25:48.
