data_PCOD8296823
_publ_section_title
;
Structure prediction by ZEFSAII (Michael W. Deem and Ramdas Pophale) SiO2 
 PCOD8296823
Probable space group: I B C A 
;
_chemical_formula_sum "Si O2"
_cell_formula_units_Z 88
_cell_length_a 20.955037
_cell_length_b 8.962491
_cell_length_c 22.235196
_cell_angle_alpha 90.000000
_cell_angle_beta 90.000000
_cell_angle_gamma 90.000000
_cell_volume 4175.977275
_symmetry_space_group_name_H-M "I B C A "
_symmetry_group_IT_number 73
_symmetry_cell_setting 'orthorhombic'
loop_
_space_group_symop_operation_xyz
x,y,z
-x,1/2-y,z
x,-y,1/2-z
1/2-x,y,-z
-x,-y,-z
x,1/2+y,-z
-x,y,1/2+z
1/2+x,-y,z
1/2+x,1/2+y,1/2+z
1/2-x,-y,1/2+z
1/2+x,1/2-y,-z
-x,1/2+y,1/2-z
1/2-x,1/2-y,1/2-z
1/2+x,y,1/2-z
1/2-x,1/2+y,z
x,1/2-y,1/2+z
loop_
_atom_site_type_symbol
_atom_site_label
_atom_site_fract_x
_atom_site_fract_y
_atom_site_fract_z
Si Si1 0.396199 0.508160 0.001414
Si Si2 0.498078 0.084071 0.407684
Si Si3 0.809572 0.741807 0.040560
Si Si4 0.045476 0.381199 0.301563
Si Si5 0.763878 0.500000 0.250000
Si Si6 0.683708 0.231266 0.676642
O O1 0.434752 0.548552 0.061288
O O2 0.332673 0.420446 0.020157
O O3 0.440972 0.416760 0.955985
O O4 0.371199 0.653848 0.967579
O O5 0.500000 0.250000 0.379530
O O6 0.489391 0.962805 0.356265
O O7 0.788582 0.741374 0.110093
O O8 0.750000 0.791871 0.000000
O O9 0.061194 0.500000 0.250000
O O10 0.109528 0.306261 0.325638
O O11 0.000000 0.250000 0.276706
O O12 0.807945 0.381951 0.284880
O O13 0.720254 0.589504 0.296545
#
# Coordination Sequence:
#
# PCOD8296823 Si02
#       6
#    16  16  16  16   8  16
#     4  11  24  43  66 101 136 182 226 274 352 419
#     4  11  23  44  70  95 138 186 223 282 347 421
#     4  12  26  43  69 106 142 178 230 289 348 415
#     4  12  26  46  70 104 139 177 237 293 348 406
#     4  10  26  50  74  96 134 196 234 280 358 400
#     4  11  25  49  73 100 140 183 237 291 340 425
#
# _framework density 21.072911999999999
#
# number of rings (size 3 to 8) (size 9 to 14) (size 15 to 20)
#    0.000    0.727    4.545    2.182    6.364    0.000 
#    3.273    0.000    0.000    0.000    0.000    0.000 
#    0.000    0.000    0.000    0.000    0.000    0.000 
#
# Total GULP energy -545861.881431 kJ/mol
# GULP energy per Si atom -12405.951851 kJ/mol
# Density = 2.102495 g / cm^3
# Si number density = 21.072912 Si / 1000 Ang^3
#
#
#
# Elastic Constant Matrix: (Units=GPa)
#
#
# Indices 1 2 3 4 5 6 
#
# 1 91.2761 32.3718 29.1715 0.0000 0.0000 0.0000
# 2 32.3718 111.6023 31.1086 0.0000 0.0000 0.0000
# 3 29.1715 31.1086 110.6279 0.0000 0.0000 0.0000
# 4 0.0000 0.0000 0.0000 28.6248 0.0000 0.0000
# 5 0.0000 0.0000 0.0000 0.0000 27.5721 0.0000
# 6 0.0000 0.0000 0.0000 0.0000 0.0000 29.5637
#
#
#
# Elastic Compliance Matrix: (Units=1/GPa)
#
#
# Indices 1 2 3 4 5 6 
#
# 1 0.012836 -0.003016 -0.002537 0.000000 0.000000 0.000000
# 2 -0.003016 0.010431 -0.002138 0.000000 0.000000 0.000000
# 3 -0.002537 -0.002138 0.010309 0.000000 0.000000 0.000000
# 4 0.000000 0.000000 0.000000 0.034935 0.000000 0.000000
# 5 0.000000 0.000000 0.000000 0.000000 0.036269 0.000000
# 6 0.000000 0.000000 0.000000 0.000000 0.000000 0.033825
#
#
# Mechanical properties :
#
#
# Convention : Reuss Voigt Hill
#
# Bulk Modulus (GPa) = 54.95939 55.42336 55.19138
# Shear Modulus (GPa) = 31.23984 31.87574 31.55779
#
# Velocity S-wave (km/s) = 3.85446 3.89349 3.87402
# Velocity P-wave (km/s) = 6.77837 6.82423 6.80134
#
# Compressibility (1/GPa) = 0.01819525
#
# Stress axis : x y z
#
# Youngs Moduli (GPa) = 77.90469 95.86598 96.99914
#
# Poissons Ratio (x) = 0.28916 0.24605
# Poissons Ratio (y) = 0.23498 0.20738
# Poissons Ratio (z) = 0.19761 0.20495
#
# Static dielectric constant tensor:
#      x y z
#    x 3.654010 0.000000 0.000000 
#    y 0.000000 3.902580 0.000000 
#    z 0.000000 0.000000 3.754590 
# 
# 
# High freq. dielectric constant tensor:
#      x y z
#    x 1.827890 0.000000 0.000000 
#    y 0.000000 1.842540 0.000000 
#    z 0.000000 0.000000 1.827080 
# 
# From -- ./inp_files/6315.got.cif
#   From: 2010.03.12/outbox.cif.g09.slc.cpg/sg73_4_cif.got.tgz:6315.got - 2010.04.16 15:25:48.
