data_PCOD8296988
_publ_section_title
;
Structure prediction by ZEFSAII (Michael W. Deem and Ramdas Pophale) SiO2 
 PCOD8296988
Probable space group: I B C A 
;
_chemical_formula_sum "Si O2"
_cell_formula_units_Z 112
_cell_length_a 14.224162
_cell_length_b 11.131252
_cell_length_c 31.497285
_cell_angle_alpha 90.000000
_cell_angle_beta 90.000000
_cell_angle_gamma 90.000000
_cell_volume 4987.051176
_symmetry_space_group_name_H-M "I B C A "
_symmetry_group_IT_number 73
_symmetry_cell_setting 'orthorhombic'
loop_
_space_group_symop_operation_xyz
x,y,z
-x,1/2-y,z
x,-y,1/2-z
1/2-x,y,-z
-x,-y,-z
x,1/2+y,-z
-x,y,1/2+z
1/2+x,-y,z
1/2+x,1/2+y,1/2+z
1/2-x,-y,1/2+z
1/2+x,1/2-y,-z
-x,1/2+y,1/2-z
1/2-x,1/2-y,1/2-z
1/2+x,y,1/2-z
1/2-x,1/2+y,z
x,1/2-y,1/2+z
loop_
_atom_site_type_symbol
_atom_site_label
_atom_site_fract_x
_atom_site_fract_y
_atom_site_fract_z
Si Si1 0.881408 0.959229 0.115523
Si Si2 0.406217 0.174636 0.441284
Si Si3 0.391124 0.387788 0.317236
Si Si4 0.675584 0.599354 0.591758
Si Si5 0.000000 0.750000 0.587226
Si Si6 0.085430 0.564541 0.524069
Si Si7 0.894342 0.114038 0.193884
Si Si8 0.248417 0.500000 0.250000
O O1 0.783529 0.932269 0.093825
O O2 0.938971 0.835234 0.117970
O O3 0.935973 0.059938 0.087672
O O4 0.862353 0.009421 0.162104
O O5 0.500000 0.250000 0.450785
O O6 0.333226 0.257186 0.415460
O O7 0.358847 0.129782 0.485368
O O8 0.379803 0.441695 0.365036
O O9 0.494585 0.409157 0.297107
O O10 0.375858 0.246155 0.323941
O O11 0.313982 0.445418 0.286549
O O12 0.642316 0.536123 0.548776
O O13 0.937402 0.832537 0.557481
O O14 0.000000 0.500000 0.500000
O O15 0.824219 0.102377 0.233845
#
# Coordination Sequence:
#
# PCOD8296988 Si02
#       8
#    16  16  16  16   8  16  16   8
#     4  12  27  45  71 107 143 194 257 309 369 450
#     4  12  23  47  72  96 143 201 245 296 378 445
#     4  11  24  46  78 106 148 198 239 302 378 448
#     4  12  26  46  72 104 148 197 252 311 364 453
#     4  12  24  44  64 102 146 186 244 318 368 426
#     4  12  23  44  69 101 142 194 248 307 369 437
#     4  11  24  47  74 108 144 193 240 293 384 447
#     4  12  24  48  76 116 148 178 246 316 360 460
#
# _framework density 22.458161
#
# number of rings (size 3 to 8) (size 9 to 14) (size 15 to 20)
#    0.000    0.286    6.429    2.571    2.000    0.571 
#    2.571    1.429    0.000    0.000    0.000    0.000 
#    0.000    0.000    0.000    0.000    0.000    0.000 
#
# Total GULP energy -694222.850260 kJ/mol
# GULP energy per Si atom -12396.836612 kJ/mol
# Density = 2.240705 g / cm^3
# Si number density = 22.458161 Si / 1000 Ang^3
#
#
#
# Elastic Constant Matrix: (Units=GPa)
#
#
# Indices 1 2 3 4 5 6 
#
# 1 117.4040 48.2144 55.9421 0.0000 0.0000 0.0000
# 2 48.2144 121.6372 41.2981 0.0000 0.0000 0.0000
# 3 55.9421 41.2981 121.6297 0.0000 0.0000 0.0000
# 4 0.0000 0.0000 0.0000 42.4495 0.0000 0.0000
# 5 0.0000 0.0000 0.0000 0.0000 33.1978 0.0000
# 6 0.0000 0.0000 0.0000 0.0000 0.0000 26.4687
#
#
#
# Elastic Compliance Matrix: (Units=1/GPa)
#
#
# Indices 1 2 3 4 5 6 
#
# 1 0.011942 -0.003242 -0.004391 0.000000 0.000000 0.000000
# 2 -0.003242 0.010173 -0.001963 0.000000 0.000000 0.000000
# 3 -0.004391 -0.001963 0.010908 0.000000 0.000000 0.000000
# 4 0.000000 0.000000 0.000000 0.023557 0.000000 0.000000
# 5 0.000000 0.000000 0.000000 0.000000 0.030122 0.000000
# 6 0.000000 0.000000 0.000000 0.000000 0.000000 0.037780
#
#
# Mechanical properties :
#
#
# Convention : Reuss Voigt Hill
#
# Bulk Modulus (GPa) = 72.31162 72.39780 72.35471
# Shear Modulus (GPa) = 33.71868 34.77096 34.24482
#
# Velocity S-wave (km/s) = 3.87899 3.93906 3.90914
# Velocity P-wave (km/s) = 7.23397 7.27976 7.25690
#
# Compressibility (1/GPa) = 0.01382904
#
# Stress axis : x y z
#
# Youngs Moduli (GPa) = 83.74028 98.30147 91.67647
#
# Poissons Ratio (x) = 0.31874 0.40260
# Poissons Ratio (y) = 0.27152 0.17994
# Poissons Ratio (z) = 0.36775 0.19294
#
# Static dielectric constant tensor:
#      x y z
#    x 4.013750 0.000000 0.000000 
#    y 0.000000 4.778680 0.000000 
#    z 0.000000 0.000000 4.174810 
# 
# 
# High freq. dielectric constant tensor:
#      x y z
#    x 1.879200 0.000000 0.000000 
#    y 0.000000 1.893400 0.000000 
#    z 0.000000 0.000000 1.887100 
# 
# From -- ./inp_files/34349.got.cif
#   From: 2010.03.12/outbox.cif.g09.slc.cpg/sg73_18_cif.got.tgz:34349.got - 2010.04.16 15:25:48.
