data_PCOD8296018
_publ_section_title
;
Structure prediction by ZEFSAII (Michael W. Deem and Ramdas Pophale) SiO2 
 PCOD8296018
Probable space group: I B C A 
;
_chemical_formula_sum "Si O2"
_cell_formula_units_Z 88
_cell_length_a 26.222447
_cell_length_b 16.572794
_cell_length_c 9.771318
_cell_angle_alpha 90.000000
_cell_angle_beta 90.000000
_cell_angle_gamma 90.000000
_cell_volume 4246.411680
_symmetry_space_group_name_H-M "I B C A "
_symmetry_group_IT_number 73
_symmetry_cell_setting 'orthorhombic'
loop_
_space_group_symop_operation_xyz
x,y,z
-x,1/2-y,z
x,-y,1/2-z
1/2-x,y,-z
-x,-y,-z
x,1/2+y,-z
-x,y,1/2+z
1/2+x,-y,z
1/2+x,1/2+y,1/2+z
1/2-x,-y,1/2+z
1/2+x,1/2-y,-z
-x,1/2+y,1/2-z
1/2-x,1/2-y,1/2-z
1/2+x,y,1/2-z
1/2-x,1/2+y,z
x,1/2-y,1/2+z
loop_
_atom_site_type_symbol
_atom_site_label
_atom_site_fract_x
_atom_site_fract_y
_atom_site_fract_z
Si Si1 0.909716 0.186177 0.503856
Si Si2 0.933352 0.668249 0.810259
Si Si3 0.298126 0.698268 0.925813
Si Si4 0.975824 0.052886 0.620229
Si Si5 0.330824 0.587206 0.685969
Si Si6 0.750000 0.352591 0.500000
O O1 0.937470 0.254365 0.592588
O O2 0.925969 0.196690 0.345913
O O3 0.848619 0.193795 0.521091
O O4 0.926521 0.098360 0.558919
O O5 0.984699 0.618328 0.823522
O O6 0.887236 0.611302 0.861959
O O7 0.309660 0.656164 0.784411
O O8 0.281996 0.792262 0.898826
O O9 0.250000 0.654259 0.000000
O O10 0.958032 0.000000 0.750000
O O11 0.000000 0.000000 0.500000
O O12 0.333706 0.500000 0.750000
O O13 0.290587 0.586093 0.564074
#
# Coordination Sequence:
#
# PCOD8296018 Si02
#       6
#    16  16  16  16  16   8
#     4  11  24  43  72  97 130 184 229 276 343 418
#     4  11  24  45  67  97 133 180 229 280 344 413
#     4   9  21  42  65  94 132 171 222 270 332 407
#     4  12  26  45  66 100 138 176 221 290 350 404
#     4  11  23  39  67  97 135 175 221 282 342 395
#     4  10  20  40  66  94 128 178 216 268 330 396
#
# _framework density 20.723379000000001
#
# number of rings (size 3 to 8) (size 9 to 14) (size 15 to 20)
#    0.545    0.727    3.636    1.636    6.364    1.455 
#    0.000    0.909    0.000    0.000    0.000    0.000 
#    0.000    0.000    0.000    0.000    0.000    0.000 
#
# Total GULP energy -545476.708992 kJ/mol
# GULP energy per Si atom -12397.197932 kJ/mol
# Density = 2.067621 g / cm^3
# Si number density = 20.723379 Si / 1000 Ang^3
#
#
#
# Elastic Constant Matrix: (Units=GPa)
#
#
# Indices 1 2 3 4 5 6 
#
# 1 98.6351 24.2839 14.5969 0.0000 0.0000 0.0000
# 2 24.2839 102.1576 29.6442 0.0000 0.0000 0.0000
# 3 14.5969 29.6442 87.5904 0.0000 0.0000 0.0000
# 4 0.0000 0.0000 0.0000 31.5535 0.0000 0.0000
# 5 0.0000 0.0000 0.0000 0.0000 31.8557 0.0000
# 6 0.0000 0.0000 0.0000 0.0000 0.0000 75.2946
#
#
#
# Elastic Compliance Matrix: (Units=1/GPa)
#
#
# Indices 1 2 3 4 5 6 
#
# 1 0.010853 -0.002279 -0.001037 0.000000 0.000000 0.000000
# 2 -0.002279 0.011333 -0.003456 0.000000 0.000000 0.000000
# 3 -0.001037 -0.003456 0.012759 0.000000 0.000000 0.000000
# 4 0.000000 0.000000 0.000000 0.031692 0.000000 0.000000
# 5 0.000000 0.000000 0.000000 0.000000 0.031392 0.000000
# 6 0.000000 0.000000 0.000000 0.000000 0.000000 0.013281
#
#
# Mechanical properties :
#
#
# Convention : Reuss Voigt Hill
#
# Bulk Modulus (GPa) = 46.72607 47.27033 46.99820
# Shear Modulus (GPa) = 37.88209 42.39796 40.14002
#
# Velocity S-wave (km/s) = 4.28014 4.52807 4.40585
# Velocity P-wave (km/s) = 6.85730 7.08502 6.97209
#
# Compressibility (1/GPa) = 0.02140133
#
# Stress axis : x y z
#
# Youngs Moduli (GPa) = 92.14086 88.23531 78.37437
#
# Poissons Ratio (x) = 0.20107 0.08130
# Poissons Ratio (y) = 0.20997 0.27085
# Poissons Ratio (z) = 0.09559 0.30493
#
# Static dielectric constant tensor:
#      x y z
#    x 4.100370 0.000000 0.000000 
#    y 0.000000 3.683390 0.000000 
#    z 0.000000 0.000000 3.616030 
# 
# 
# High freq. dielectric constant tensor:
#      x y z
#    x 1.825730 0.000000 0.000000 
#    y 0.000000 1.807940 0.000000 
#    z 0.000000 0.000000 1.801110 
# 
# From -- ./inp_files/8389.got.cif
#   From: 2010.03.12/outbox.cif.g09.slc.cpg/sg73_5_cif.got.tgz:8389.got - 2010.04.16 15:25:48.
