data_PCOD8296035
_publ_section_title
;
Structure prediction by ZEFSAII (Michael W. Deem and Ramdas Pophale) SiO2 
 PCOD8296035
Probable space group: I B C A 
;
_chemical_formula_sum "Si O2"
_cell_formula_units_Z 88
_cell_length_a 9.101797
_cell_length_b 27.836842
_cell_length_c 16.304522
_cell_angle_alpha 90.000000
_cell_angle_beta 90.000000
_cell_angle_gamma 90.000000
_cell_volume 4130.999863
_symmetry_space_group_name_H-M "I B C A "
_symmetry_group_IT_number 73
_symmetry_cell_setting 'orthorhombic'
loop_
_space_group_symop_operation_xyz
x,y,z
-x,1/2-y,z
x,-y,1/2-z
1/2-x,y,-z
-x,-y,-z
x,1/2+y,-z
-x,y,1/2+z
1/2+x,-y,z
1/2+x,1/2+y,1/2+z
1/2-x,-y,1/2+z
1/2+x,1/2-y,-z
-x,1/2+y,1/2-z
1/2-x,1/2-y,1/2-z
1/2+x,y,1/2-z
1/2-x,1/2+y,z
x,1/2-y,1/2+z
loop_
_atom_site_type_symbol
_atom_site_label
_atom_site_fract_x
_atom_site_fract_y
_atom_site_fract_z
Si Si1 0.119554 0.565577 0.294531
Si Si2 0.778260 0.296329 0.695272
Si Si3 0.798716 0.637388 0.666402
Si Si4 0.365910 0.000000 0.750000
Si Si5 0.510094 0.851192 0.603305
Si Si6 0.534376 0.196292 0.066312
O O1 0.130355 0.587721 0.200554
O O2 0.259983 0.531272 0.309825
O O3 0.112973 0.604931 0.366541
O O4 0.968726 0.535589 0.302046
O O5 0.750000 0.250000 0.750000
O O6 0.727606 0.340254 0.751730
O O7 0.947335 0.305670 0.663383
O O8 0.687609 0.297888 0.611873
O O9 0.660675 0.632767 0.605222
O O10 0.915152 0.674541 0.628750
O O11 0.548441 0.839502 0.509761
O O12 0.500000 0.250000 0.034940
#
# Coordination Sequence:
#
# PCOD8296035 Si02
#       6
#    16  16  16   8  16  16
#     4  10  21  42  70 107 129 170 222 279 342 403
#     4  11  23  41  62  90 126 178 238 278 316 385
#     4  11  23  41  67  94 134 177 227 280 332 394
#     4  10  20  40  78 104 128 164 232 280 332 426
#     4  11  25  40  63  96 141 177 218 283 340 393
#     4  12  26  42  63  96 136 191 232 278 331 391
#
# _framework density 21.302349
#
# number of rings (size 3 to 8) (size 9 to 14) (size 15 to 20)
#    0.000    1.091    3.636    3.273    5.091    1.455 
#    0.000    0.000    0.000    6.545    0.000    0.000 
#    0.000    0.000    0.000    0.000    0.000    0.000 
#
# Total GULP energy -545143.567037 kJ/mol
# GULP energy per Si atom -12389.626524 kJ/mol
# Density = 2.125386 g / cm^3
# Si number density = 21.302349 Si / 1000 Ang^3
#
#
#
# Elastic Constant Matrix: (Units=GPa)
#
#
# Indices 1 2 3 4 5 6 
#
# 1 117.2404 46.6662 31.2474 0.0000 0.0000 0.0000
# 2 46.6662 116.8031 47.4761 -0.0001 0.0000 0.0000
# 3 31.2474 47.4761 103.8588 -0.0005 0.0000 0.0001
# 4 0.0000 -0.0001 -0.0005 26.4882 0.0001 0.0000
# 5 0.0000 0.0000 0.0000 0.0001 24.2347 0.0000
# 6 0.0000 0.0000 0.0001 0.0000 0.0000 33.3950
#
#
#
# Elastic Compliance Matrix: (Units=1/GPa)
#
#
# Indices 1 2 3 4 5 6 
#
# 1 0.010329 -0.003517 -0.001500 0.000000 0.000000 0.000000
# 2 -0.003517 0.011713 -0.004296 0.000000 0.000000 0.000000
# 3 -0.001500 -0.004296 0.012044 0.000000 0.000000 0.000000
# 4 0.000000 0.000000 0.000000 0.037753 0.000000 0.000000
# 5 0.000000 0.000000 0.000000 0.000000 0.041263 0.000000
# 6 0.000000 0.000000 0.000000 0.000000 0.000000 0.029945
#
#
# Mechanical properties :
#
#
# Convention : Reuss Voigt Hill
#
# Bulk Modulus (GPa) = 64.68560 65.40908 65.04734
# Shear Modulus (GPa) = 29.97151 30.99109 30.48130
#
# Velocity S-wave (km/s) = 3.75501 3.81835 3.78681
# Velocity P-wave (km/s) = 7.01652 7.08601 7.05135
#
# Compressibility (1/GPa) = 0.01545939
#
# Stress axis : x y z
#
# Youngs Moduli (GPa) = 96.81278 85.37683 83.03229
#
# Poissons Ratio (x) = 0.30028 0.12454
# Poissons Ratio (y) = 0.34051 0.35670
# Poissons Ratio (z) = 0.14521 0.36678
#
# Static dielectric constant tensor:
#      x y z
#    x 4.016720 0.000000 0.000000 
#    y 0.000000 4.183370 0.000000 
#    z 0.000000 0.000000 3.611060 
# 
# 
# High freq. dielectric constant tensor:
#      x y z
#    x 1.849190 0.000000 0.000000 
#    y 0.000000 1.836780 0.000000 
#    z 0.000000 0.000000 1.806820 
# 
# From -- ./inp_files/20829.got.cif
#   From: 2010.03.12/outbox.cif.g09.slc.cpg/sg73_11_cif.got.tgz:20829.got - 2010.04.16 15:25:48.
