data_PCOD8296295
_publ_section_title
;
Structure prediction by ZEFSAII (Michael W. Deem and Ramdas Pophale) SiO2 
 PCOD8296295
Probable space group: I B C A 
;
_chemical_formula_sum "Si O2"
_cell_formula_units_Z 88
_cell_length_a 11.838862
_cell_length_b 15.876054
_cell_length_c 21.284614
_cell_angle_alpha 90.000000
_cell_angle_beta 90.000000
_cell_angle_gamma 90.000000
_cell_volume 4000.537118
_symmetry_space_group_name_H-M "I B C A "
_symmetry_group_IT_number 73
_symmetry_cell_setting 'orthorhombic'
loop_
_space_group_symop_operation_xyz
x,y,z
-x,1/2-y,z
x,-y,1/2-z
1/2-x,y,-z
-x,-y,-z
x,1/2+y,-z
-x,y,1/2+z
1/2+x,-y,z
1/2+x,1/2+y,1/2+z
1/2-x,-y,1/2+z
1/2+x,1/2-y,-z
-x,1/2+y,1/2-z
1/2-x,1/2-y,1/2-z
1/2+x,y,1/2-z
1/2-x,1/2+y,z
x,1/2-y,1/2+z
loop_
_atom_site_type_symbol
_atom_site_label
_atom_site_fract_x
_atom_site_fract_y
_atom_site_fract_z
Si Si1 0.500000 0.750000 0.536722
Si Si2 0.155560 0.268517 0.147185
Si Si3 0.478575 0.016145 0.602897
Si Si4 0.091086 0.176580 0.334467
Si Si5 0.528782 0.624231 0.699724
Si Si6 0.877880 0.908419 0.004403
O O1 0.602475 0.790107 0.578846
O O2 0.545692 0.675563 0.492890
O O3 0.287441 0.281179 0.155951
O O4 0.124943 0.170405 0.157979
O O5 0.089611 0.324266 0.199330
O O6 0.419709 0.106167 0.612449
O O7 0.597085 0.035667 0.566833
O O8 0.495965 0.967488 0.669300
O O9 0.399835 0.962384 0.557652
O O10 0.075785 0.123596 0.270194
O O11 0.000000 0.250000 0.341143
O O12 0.750000 0.878388 0.000000
#
# Coordination Sequence:
#
# PCOD8296295 Si02
#       6
#     8  16  16  16  16  16
#     4  10  22  46  74  94 140 190 232 284 358 414
#     4  10  21  43  70  94 140 183 220 278 356 408
#     4  11  26  44  66 102 140 176 234 284 348 412
#     4  12  26  40  69 109 137 178 234 282 347 427
#     4  10  21  47  68  97 136 184 225 283 347 418
#     4  11  26  46  71 100 138 186 236 293 348 420
#
# _framework density 21.997046999999998
#
# number of rings (size 3 to 8) (size 9 to 14) (size 15 to 20)
#    0.000    1.455    5.455    1.091    6.364    0.000 
#    0.000    2.727    0.000    0.000    0.000    0.000 
#    0.000    0.000    0.000    0.000    0.000    0.000 
#
# Total GULP energy -545368.694954 kJ/mol
# GULP energy per Si atom -12394.743067 kJ/mol
# Density = 2.194698 g / cm^3
# Si number density = 21.997047 Si / 1000 Ang^3
#
#
#
# Elastic Constant Matrix: (Units=GPa)
#
#
# Indices 1 2 3 4 5 6 
#
# 1 168.3760 61.7853 43.1100 0.0000 0.0000 0.0000
# 2 61.7853 131.7040 46.7104 0.0000 0.0000 0.0000
# 3 43.1100 46.7104 65.6598 0.0000 0.0000 0.0000
# 4 0.0000 0.0000 0.0000 23.6588 0.0000 0.0000
# 5 0.0000 0.0000 0.0000 0.0000 19.3766 0.0000
# 6 0.0000 0.0000 0.0000 0.0000 0.0000 22.2863
#
#
#
# Elastic Compliance Matrix: (Units=1/GPa)
#
#
# Indices 1 2 3 4 5 6 
#
# 1 0.007678 -0.002426 -0.003315 0.000000 0.000000 0.000000
# 2 -0.002426 0.010922 -0.006177 0.000000 0.000000 0.000000
# 3 -0.003315 -0.006177 0.021801 0.000000 0.000000 0.000000
# 4 0.000000 0.000000 0.000000 0.042268 0.000000 0.000000
# 5 0.000000 0.000000 0.000000 0.000000 0.051609 0.000000
# 6 0.000000 0.000000 0.000000 0.000000 0.000000 0.044871
#
#
# Mechanical properties :
#
#
# Convention : Reuss Voigt Hill
#
# Bulk Modulus (GPa) = 60.37063 74.32791 67.34927
# Shear Modulus (GPa) = 23.98024 27.33994 25.66009
#
# Velocity S-wave (km/s) = 3.30533 3.52929 3.41915
# Velocity P-wave (km/s) = 6.48625 7.10431 6.80230
#
# Compressibility (1/GPa) = 0.01656435
#
# Stress axis : x y z
#
# Youngs Moduli (GPa) = 130.23878 91.56157 45.86995
#
# Poissons Ratio (x) = 0.22215 0.15207
# Poissons Ratio (y) = 0.31599 0.28332
# Poissons Ratio (z) = 0.43177 0.56554
#
# Static dielectric constant tensor:
#      x y z
#    x 3.688730 0.000000 0.000000 
#    y 0.000000 4.050150 0.000000 
#    z 0.000000 0.000000 4.023430 
# 
# 
# High freq. dielectric constant tensor:
#      x y z
#    x 1.842720 0.000000 0.000000 
#    y 0.000000 1.871500 0.000000 
#    z 0.000000 0.000000 1.867340 
# 
# From -- ./inp_files/25368.got.cif
#   From: 2010.03.12/outbox.cif.g09.slc.cpg/sg73_13_cif.got.tgz:25368.got - 2010.04.16 15:25:48.
