data_PCOD8296945
_publ_section_title
;
Structure prediction by ZEFSAII (Michael W. Deem and Ramdas Pophale) SiO2 
 PCOD8296945
Probable space group: I B C A 
;
_chemical_formula_sum "Si O2"
_cell_formula_units_Z 80
_cell_length_a 10.915953
_cell_length_b 14.353095
_cell_length_c 22.665745
_cell_angle_alpha 90.000000
_cell_angle_beta 90.000000
_cell_angle_gamma 90.000000
_cell_volume 3551.217032
_symmetry_space_group_name_H-M "I B C A "
_symmetry_group_IT_number 73
_symmetry_cell_setting 'orthorhombic'
loop_
_space_group_symop_operation_xyz
x,y,z
-x,1/2-y,z
x,-y,1/2-z
1/2-x,y,-z
-x,-y,-z
x,1/2+y,-z
-x,y,1/2+z
1/2+x,-y,z
1/2+x,1/2+y,1/2+z
1/2-x,-y,1/2+z
1/2+x,1/2-y,-z
-x,1/2+y,1/2-z
1/2-x,1/2-y,1/2-z
1/2+x,y,1/2-z
1/2-x,1/2+y,z
x,1/2-y,1/2+z
loop_
_atom_site_type_symbol
_atom_site_label
_atom_site_fract_x
_atom_site_fract_y
_atom_site_fract_z
Si Si1 0.773324 0.896425 0.237827
Si Si2 0.230881 0.066522 0.931194
Si Si3 0.633456 0.704694 0.639782
Si Si4 0.758982 0.619200 0.132468
Si Si5 0.030576 0.856672 0.643571
O O1 0.674341 0.829569 0.205429
O O2 0.802979 0.861014 0.303268
O O3 0.897110 0.900096 0.199220
O O4 0.719771 0.000000 0.250000
O O5 0.352417 0.113212 0.902010
O O6 0.111524 0.128798 0.915461
O O7 0.199752 0.964920 0.903859
O O8 0.250000 0.056022 0.000000
O O9 0.500000 0.750000 0.640706
O O10 0.726041 0.778799 0.606891
O O11 0.901493 0.592282 0.136098
O O12 0.000000 0.750000 0.655760
#
# Coordination Sequence:
#
# PCOD8296945 Si02
#       5
#    16  16  16  16  16
#     4  11  23  43  71 106 147 191 224 300 373 445
#     4  11  27  50  72 104 145 198 254 302 362 426
#     4  11  26  46  71 112 144 186 244 302 371 441
#     4  12  25  44  74 109 146 189 246 299 376 436
#     4  11  24  47  71 107 149 189 243 303 366 442
#
# _framework density 22.527488000000002
#
# number of rings (size 3 to 8) (size 9 to 14) (size 15 to 20)
#    0.000    0.800    8.000    0.600    5.600    3.200 
#    0.000    0.000    0.000    0.000    0.000    0.000 
#    0.000    0.000    0.000    0.000    0.000    0.000 
#
# Total GULP energy -495591.930817 kJ/mol
# GULP energy per Si atom -12389.798270 kJ/mol
# Density = 2.247621 g / cm^3
# Si number density = 22.527488 Si / 1000 Ang^3
#
#
#
# Elastic Constant Matrix: (Units=GPa)
#
#
# Indices 1 2 3 4 5 6 
#
# 1 121.7069 23.7990 30.3908 0.0000 0.0000 0.0000
# 2 23.7990 142.2955 41.5358 0.0000 0.0000 0.0000
# 3 30.3908 41.5358 155.9481 0.0000 0.0000 0.0000
# 4 0.0000 0.0000 0.0000 20.3968 0.0000 0.0000
# 5 0.0000 0.0000 0.0000 0.0000 17.2124 0.0000
# 6 0.0000 0.0000 0.0000 0.0000 0.0000 24.4656
#
#
#
# Elastic Compliance Matrix: (Units=1/GPa)
#
#
# Indices 1 2 3 4 5 6 
#
# 1 0.008779 -0.001051 -0.001431 0.000000 0.000000 0.000000
# 2 -0.001051 0.007746 -0.001858 0.000000 0.000000 0.000000
# 3 -0.001431 -0.001858 0.007186 0.000000 0.000000 0.000000
# 4 0.000000 0.000000 0.000000 0.049027 0.000000 0.000000
# 5 0.000000 0.000000 0.000000 0.000000 0.058098 0.000000
# 6 0.000000 0.000000 0.000000 0.000000 0.000000 0.040874
#
#
# Mechanical properties :
#
#
# Convention : Reuss Voigt Hill
#
# Bulk Modulus (GPa) = 66.52780 67.93352 67.23066
# Shear Modulus (GPa) = 26.96867 34.02995 30.49931
#
# Velocity S-wave (km/s) = 3.46373 3.89086 3.68349
# Velocity P-wave (km/s) = 6.75222 7.09974 6.92816
#
# Compressibility (1/GPa) = 0.01503131
#
# Stress axis : x y z
#
# Youngs Moduli (GPa) = 113.90501 129.10261 139.15521
#
# Poissons Ratio (x) = 0.13564 0.19914
# Poissons Ratio (y) = 0.11967 0.25859
# Poissons Ratio (z) = 0.16300 0.23991
#
# Static dielectric constant tensor:
#      x y z
#    x 4.143050 0.000000 0.000000 
#    y 0.000000 4.537750 0.000000 
#    z 0.000000 0.000000 3.849220 
# 
# 
# High freq. dielectric constant tensor:
#      x y z
#    x 1.875090 0.000000 0.000000 
#    y 0.000000 1.920070 0.000000 
#    z 0.000000 0.000000 1.856350 
# 
# From -- ./inp_files/13435.got.cif
#   From: 2010.03.12/outbox.cif.g09.slc.cpg/sg73_7_cif.got.tgz:13435.got - 2010.04.16 15:25:48.
