data_PCOD8296331
_publ_section_title
;
Structure prediction by ZEFSAII (Michael W. Deem and Ramdas Pophale) SiO2 
 PCOD8296331
Probable space group: I B C A 
;
_chemical_formula_sum "Si O2"
_cell_formula_units_Z 80
_cell_length_a 5.055774
_cell_length_b 31.210475
_cell_length_c 21.152068
_cell_angle_alpha 90.000000
_cell_angle_beta 90.000000
_cell_angle_gamma 90.000000
_cell_volume 3337.650551
_symmetry_space_group_name_H-M "I B C A "
_symmetry_group_IT_number 73
_symmetry_cell_setting 'orthorhombic'
loop_
_space_group_symop_operation_xyz
x,y,z
-x,1/2-y,z
x,-y,1/2-z
1/2-x,y,-z
-x,-y,-z
x,1/2+y,-z
-x,y,1/2+z
1/2+x,-y,z
1/2+x,1/2+y,1/2+z
1/2-x,-y,1/2+z
1/2+x,1/2-y,-z
-x,1/2+y,1/2-z
1/2-x,1/2-y,1/2-z
1/2+x,y,1/2-z
1/2-x,1/2+y,z
x,1/2-y,1/2+z
loop_
_atom_site_type_symbol
_atom_site_label
_atom_site_fract_x
_atom_site_fract_y
_atom_site_fract_z
Si Si1 0.331329 0.882803 0.067561
Si Si2 0.687236 0.049643 0.291193
Si Si3 0.565400 0.976332 0.073407
Si Si4 0.698013 0.636076 0.355536
Si Si5 0.253663 0.769627 0.319953
O O1 0.435521 0.931228 0.056691
O O2 0.585637 0.855825 0.089552
O O3 0.086619 0.878653 0.116768
O O4 0.250000 0.863892 0.000000
O O5 0.477201 0.039513 0.236078
O O6 0.610491 0.020492 0.351070
O O7 0.682063 0.099573 0.310532
O O8 0.866474 0.985708 0.047772
O O9 0.699520 0.679564 0.315457
O O10 0.500000 0.750000 0.358339
O O11 0.250000 0.750000 0.250000
O O12 0.000000 0.750000 0.356104
#
# Coordination Sequence:
#
# PCOD8296331 Si02
#       5
#    16  16  16  16  16
#     4  11  24  44  68  93 122 176 226 271 335 378
#     4  11  23  36  59  88 124 177 207 247 316 397
#     4  11  23  40  60  90 127 160 217 277 320 373
#     4  11  23  41  65  94 137 164 216 271 315 394
#     4  10  22  37  62  98 132 169 197 257 325 388
#
# _framework density 23.968955999999999
#
# number of rings (size 3 to 8) (size 9 to 14) (size 15 to 20)
#    0.000    1.200    0.000    7.800    5.600    3.200 
#    0.000    0.000    0.000   12.000    0.000    0.000 
#    0.000    0.000    0.000    0.000    0.000    0.000 
#
# Total GULP energy -495629.428268 kJ/mol
# GULP energy per Si atom -12390.735707 kJ/mol
# Density = 2.391440 g / cm^3
# Si number density = 23.968956 Si / 1000 Ang^3
#
#
#
# Elastic Constant Matrix: (Units=GPa)
#
#
# Indices 1 2 3 4 5 6 
#
# 1 195.6648 43.2297 17.8665 0.0000 0.0000 0.0000
# 2 43.2297 125.0231 2.3718 0.0000 0.0000 0.0000
# 3 17.8665 2.3718 34.2696 0.0000 0.0000 0.0001
# 4 0.0000 0.0000 0.0000 26.6733 0.0000 0.0000
# 5 0.0000 0.0000 0.0000 0.0000 23.0722 0.0000
# 6 0.0000 0.0000 0.0001 0.0000 0.0000 -82.2884
#
#
#
# Elastic Compliance Matrix: (Units=1/GPa)
#
#
# Indices 1 2 3 4 5 6 
#
# 1 0.005806 -0.001953 -0.002892 0.000000 0.000000 0.000000
# 2 -0.001953 0.008666 0.000418 0.000000 0.000000 0.000000
# 3 -0.002892 0.000418 0.030659 0.000000 0.000000 0.000000
# 4 0.000000 0.000000 0.000000 0.037491 0.000000 0.000000
# 5 0.000000 0.000000 0.000000 0.000000 0.043342 0.000000
# 6 0.000000 0.000000 0.000000 0.000000 0.000000 -0.012152
#
#
# Mechanical properties :
#
#
# Convention : Reuss Voigt Hill
#
# Bulk Modulus (GPa) = 27.56460 53.54372 40.55416
# Shear Modulus (GPa) = 37.10371 12.92406 25.01388
#
# Velocity S-wave (km/s) = 3.93872 2.32459 3.23398
# Velocity P-wave (km/s) = 5.67536 5.43987 5.55887
#
# Compressibility (1/GPa) = 0.03627842
#
# Stress axis : x y z
#
# Youngs Moduli (GPa) = 172.22680 115.39601 32.61665
#
# Poissons Ratio (x) = 0.22535 0.09433
# Poissons Ratio (y) = 0.33632 -0.01364
# Poissons Ratio (z) = 0.49807 -0.04827
#
# Static dielectric constant tensor:
#      x y z
#    x 4.134570 0.000000 0.000000 
#    y 0.000000 4.110810 0.000000 
#    z 0.000000 0.000000 4.339190 
# 
# 
# High freq. dielectric constant tensor:
#      x y z
#    x 1.990680 0.000000 0.000000 
#    y 0.000000 1.930160 0.000000 
#    z 0.000000 0.000000 1.938560 
# 
# From -- ./inp_files/28049.got.cif
#   From: 2010.03.12/outbox.cif.g09.slc.cpg/sg73_15_cif.got.tgz:28049.got - 2010.04.16 15:25:48.
