data_PCOD8296341
_publ_section_title
;
Structure prediction by ZEFSAII (Michael W. Deem and Ramdas Pophale) SiO2 
 PCOD8296341
Probable space group: I B C A 
;
_chemical_formula_sum "Si O2"
_cell_formula_units_Z 64
_cell_length_a 15.601478
_cell_length_b 10.583469
_cell_length_c 17.675056
_cell_angle_alpha 90.000000
_cell_angle_beta 90.000000
_cell_angle_gamma 90.000000
_cell_volume 2918.465633
_symmetry_space_group_name_H-M "I B C A "
_symmetry_group_IT_number 73
_symmetry_cell_setting 'orthorhombic'
loop_
_space_group_symop_operation_xyz
x,y,z
-x,1/2-y,z
x,-y,1/2-z
1/2-x,y,-z
-x,-y,-z
x,1/2+y,-z
-x,y,1/2+z
1/2+x,-y,z
1/2+x,1/2+y,1/2+z
1/2-x,-y,1/2+z
1/2+x,1/2-y,-z
-x,1/2+y,1/2-z
1/2-x,1/2-y,1/2-z
1/2+x,y,1/2-z
1/2-x,1/2+y,z
x,1/2-y,1/2+z
loop_
_atom_site_type_symbol
_atom_site_label
_atom_site_fract_x
_atom_site_fract_y
_atom_site_fract_z
Si Si1 0.877692 0.107491 0.347055
Si Si2 0.210874 0.182062 0.078166
Si Si3 0.549556 0.129034 0.499715
Si Si4 0.411679 0.675195 0.684501
O O1 0.777850 0.099435 0.372883
O O2 0.927580 0.173991 0.415550
O O3 0.886058 0.193861 0.272490
O O4 0.922345 0.972588 0.333137
O O5 0.168778 0.285850 0.132740
O O6 0.250000 0.243027 0.000000
O O7 0.132952 0.093698 0.049995
O O8 0.500000 0.250000 0.463185
O O9 0.500000 0.000000 0.500000
O O10 0.500000 0.750000 0.668182
#
# Coordination Sequence:
#
# PCOD8296341 Si02
#       4
#    16  16  16  16
#     4  10  23  39  61  92 123 164 211 260 320 384
#     4  10  22  38  60  89 124 162 203 258 315 377
#     4  11  22  39  63  93 127 168 215 262 314 376
#     4  11  22  42  64  89 124 164 210 262 320 384
#
# _framework density 21.929331999999999
#
# number of rings (size 3 to 8) (size 9 to 14) (size 15 to 20)
#    0.000    1.500    0.000    5.250    0.000    7.000 
#    0.000   15.000    0.000    0.000    0.000    0.000 
#    0.000    0.000    0.000    0.000    0.000    0.000 
#
# Total GULP energy -396436.800145 kJ/mol
# GULP energy per Si atom -12388.650005 kJ/mol
# Density = 2.187942 g / cm^3
# Si number density = 21.929332 Si / 1000 Ang^3
#
#
#
# Elastic Constant Matrix: (Units=GPa)
#
#
# Indices 1 2 3 4 5 6 
#
# 1 151.1842 54.7265 63.0776 0.0000 0.0000 0.0000
# 2 54.7265 90.5020 24.5390 0.0000 0.0000 0.0000
# 3 63.0776 24.5390 154.4105 0.0000 0.0000 0.0000
# 4 0.0000 0.0000 0.0000 25.1692 0.0000 0.0000
# 5 0.0000 0.0000 0.0000 0.0000 37.8124 0.0000
# 6 0.0000 0.0000 0.0000 0.0000 0.0000 34.6040
#
#
#
# Elastic Compliance Matrix: (Units=1/GPa)
#
#
# Indices 1 2 3 4 5 6 
#
# 1 0.009771 -0.005044 -0.003190 0.000000 0.000000 0.000000
# 2 -0.005044 0.014150 -0.000188 0.000000 0.000000 0.000000
# 3 -0.003190 -0.000188 0.007809 0.000000 0.000000 0.000000
# 4 0.000000 0.000000 0.000000 0.039731 0.000000 0.000000
# 5 0.000000 0.000000 0.000000 0.000000 0.026446 0.000000
# 6 0.000000 0.000000 0.000000 0.000000 0.000000 0.028898
#
#
# Mechanical properties :
#
#
# Convention : Reuss Voigt Hill
#
# Bulk Modulus (GPa) = 67.17402 75.64255 71.40829
# Shear Modulus (GPa) = 33.64437 36.43403 35.03920
#
# Velocity S-wave (km/s) = 3.92116 4.08048 4.00161
# Velocity P-wave (km/s) = 7.15536 7.53453 7.34739
#
# Compressibility (1/GPa) = 0.01488671
#
# Stress axis : x y z
#
# Youngs Moduli (GPa) = 102.34242 70.66914 128.05192
#
# Poissons Ratio (x) = 0.35643 0.40849
# Poissons Ratio (y) = 0.51618 0.02413
# Poissons Ratio (z) = 0.32647 0.01332
#
# Static dielectric constant tensor:
#      x y z
#    x 4.094580 0.000000 0.000000 
#    y 0.000000 3.393680 0.000000 
#    z 0.000000 0.000000 4.660790 
# 
# 
# High freq. dielectric constant tensor:
#      x y z
#    x 1.872880 0.000000 0.000000 
#    y 0.000000 1.817310 0.000000 
#    z 0.000000 0.000000 1.900430 
# 
# From -- ./inp_files/10418.got.cif
#   From: 2010.03.12/outbox.cif.g09.slc.cpg/sg73_6_cif.got.tgz:10418.got - 2010.04.16 15:25:48.
