data_PCOD8296340
_publ_section_title
;
Structure prediction by ZEFSAII (Michael W. Deem and Ramdas Pophale) SiO2 
 PCOD8296340
Probable space group: I B C A 
;
_chemical_formula_sum "Si O2"
_cell_formula_units_Z 104
_cell_length_a 21.054669
_cell_length_b 24.380612
_cell_length_c 9.720720
_cell_angle_alpha 90.000000
_cell_angle_beta 90.000000
_cell_angle_gamma 90.000000
_cell_volume 4989.895551
_symmetry_space_group_name_H-M "I B C A "
_symmetry_group_IT_number 73
_symmetry_cell_setting 'orthorhombic'
loop_
_space_group_symop_operation_xyz
x,y,z
-x,1/2-y,z
x,-y,1/2-z
1/2-x,y,-z
-x,-y,-z
x,1/2+y,-z
-x,y,1/2+z
1/2+x,-y,z
1/2+x,1/2+y,1/2+z
1/2-x,-y,1/2+z
1/2+x,1/2-y,-z
-x,1/2+y,1/2-z
1/2-x,1/2-y,1/2-z
1/2+x,y,1/2-z
1/2-x,1/2+y,z
x,1/2-y,1/2+z
loop_
_atom_site_type_symbol
_atom_site_label
_atom_site_fract_x
_atom_site_fract_y
_atom_site_fract_z
Si Si1 0.895361 0.812910 0.791414
Si Si2 0.959810 0.429995 0.624734
Si Si3 0.431796 0.550175 0.928405
Si Si4 0.679521 0.628226 0.465419
Si Si5 0.500000 0.750000 0.583717
Si Si6 0.893102 0.671644 0.997113
Si Si7 0.687386 0.714350 0.226741
O O1 0.852176 0.837178 0.912145
O O2 0.968798 0.801339 0.831737
O O3 0.886887 0.850054 0.654251
O O4 0.871460 0.753413 0.741215
O O5 0.968663 0.433717 0.788644
O O6 0.926641 0.484456 0.561691
O O7 0.915756 0.378608 0.595081
O O8 0.029479 0.423904 0.556510
O O9 0.361168 0.574262 0.932331
O O10 0.750000 0.607756 0.500000
O O11 0.685062 0.664389 0.330257
O O12 0.556025 0.778130 0.496227
O O13 0.825813 0.692102 0.930022
O O14 0.750000 0.750000 0.250000
#
# Coordination Sequence:
#
# PCOD8296340 Si02
#       7
#    16  16  16  16   8  16  16
#     4  11  24  36  61  92 129 168 214 264 324 393
#     4  10  22  42  71  95 132 163 220 275 343 385
#     4  10  23  43  69  99 125 174 216 279 336 402
#     4  12  24  43  66  91 130 180 218 270 326 397
#     4  10  22  38  58  96 136 166 206 266 332 392
#     4  11  23  38  63  94 130 168 214 272 320 394
#     4  11  22  42  61  87 124 176 218 256 319 393
#
# _framework density 20.842119
#
# number of rings (size 3 to 8) (size 9 to 14) (size 15 to 20)
#    0.000    1.231    3.077    3.231    4.308    1.231 
#    0.000    0.000   10.154    0.000    0.000    0.000 
#    0.000    0.000    0.000    0.000    0.000    0.000 
#
# Total GULP energy -644576.890548 kJ/mol
# GULP energy per Si atom -12395.709434 kJ/mol
# Density = 2.079468 g / cm^3
# Si number density = 20.842119 Si / 1000 Ang^3
#
#
#
# Elastic Constant Matrix: (Units=GPa)
#
#
# Indices 1 2 3 4 5 6 
#
# 1 131.1284 30.8516 43.3900 0.0000 0.0000 0.0000
# 2 30.8516 63.2943 7.2998 0.0000 0.0000 0.0000
# 3 43.3900 7.2998 113.2846 0.0000 0.0000 0.0000
# 4 0.0000 0.0000 0.0000 22.9680 0.0000 0.0000
# 5 0.0000 0.0000 0.0000 0.0000 18.9634 0.0000
# 6 0.0000 0.0000 0.0000 0.0000 0.0000 35.7803
#
#
#
# Elastic Compliance Matrix: (Units=1/GPa)
#
#
# Indices 1 2 3 4 5 6 
#
# 1 0.009806 -0.004379 -0.003474 0.000000 0.000000 0.000000
# 2 -0.004379 0.017873 0.000526 0.000000 0.000000 0.000000
# 3 -0.003474 0.000526 0.010124 0.000000 0.000000 0.000000
# 4 0.000000 0.000000 0.000000 0.043539 0.000000 0.000000
# 5 0.000000 0.000000 0.000000 0.000000 0.052733 0.000000
# 6 0.000000 0.000000 0.000000 0.000000 0.000000 0.027948
#
#
# Mechanical properties :
#
#
# Convention : Reuss Voigt Hill
#
# Bulk Modulus (GPa) = 43.19918 52.31001 47.75459
# Shear Modulus (GPa) = 27.11592 30.62007 28.86799
#
# Velocity S-wave (km/s) = 3.61087 3.83710 3.72570
# Velocity P-wave (km/s) = 6.17709 6.69207 6.43973
#
# Compressibility (1/GPa) = 0.02314859
#
# Stress axis : x y z
#
# Youngs Moduli (GPa) = 101.98030 55.95005 98.77596
#
# Poissons Ratio (x) = 0.24501 0.34311
# Poissons Ratio (y) = 0.44658 -0.05191
# Poissons Ratio (z) = 0.35424 -0.02940
#
# Static dielectric constant tensor:
#      x y z
#    x 4.223610 0.000000 0.000000 
#    y 0.000000 3.751390 0.000000 
#    z 0.000000 0.000000 4.973200 
# 
# 
# High freq. dielectric constant tensor:
#      x y z
#    x 1.805080 0.000000 0.000000 
#    y 0.000000 1.806800 0.000000 
#    z 0.000000 0.000000 1.827070 
# 
# From -- ./inp_files/6554.got.cif
#   From: 2010.03.12/outbox.cif.g09.slc.cpg/sg73_4_cif.got.tgz:6554.got - 2010.04.16 15:25:48.
