data_PCOD8296812
_publ_section_title
;
Structure prediction by ZEFSAII (Michael W. Deem and Ramdas Pophale) SiO2 
 PCOD8296812
Probable space group: I B C A 
;
_chemical_formula_sum "Si O2"
_cell_formula_units_Z 104
_cell_length_a 19.447510
_cell_length_b 26.979125
_cell_length_c 8.791394
_cell_angle_alpha 90.000000
_cell_angle_beta 90.000000
_cell_angle_gamma 90.000000
_cell_volume 4612.640500
_symmetry_space_group_name_H-M "I B C A "
_symmetry_group_IT_number 73
_symmetry_cell_setting 'orthorhombic'
loop_
_space_group_symop_operation_xyz
x,y,z
-x,1/2-y,z
x,-y,1/2-z
1/2-x,y,-z
-x,-y,-z
x,1/2+y,-z
-x,y,1/2+z
1/2+x,-y,z
1/2+x,1/2+y,1/2+z
1/2-x,-y,1/2+z
1/2+x,1/2-y,-z
-x,1/2+y,1/2-z
1/2-x,1/2-y,1/2-z
1/2+x,y,1/2-z
1/2-x,1/2+y,z
x,1/2-y,1/2+z
loop_
_atom_site_type_symbol
_atom_site_label
_atom_site_fract_x
_atom_site_fract_y
_atom_site_fract_z
Si Si1 0.807950 0.967283 0.384885
Si Si2 0.936173 0.978330 0.081448
Si Si3 0.841632 0.862964 0.261147
Si Si4 0.383362 0.210874 0.851676
Si Si5 0.250000 0.821035 0.500000
Si Si6 0.902095 0.806163 0.512127
Si Si7 0.957533 0.637784 0.545335
O O1 0.750000 0.948289 0.500000
O O2 0.844254 0.920884 0.301869
O O3 0.774578 0.000000 0.250000
O O4 0.863527 0.000026 0.481087
O O5 0.944405 0.920456 0.051384
O O6 0.937991 0.000000 0.250000
O O7 0.000000 0.000000 0.000000
O O8 0.839316 0.832689 0.420338
O O9 0.914717 0.843274 0.192085
O O10 0.780179 0.854094 0.140168
O O11 0.373187 0.213567 0.671706
O O12 0.308499 0.213589 0.929519
O O13 0.426419 0.257900 0.916175
O O14 0.422378 0.159880 0.893522
O O15 0.963590 0.845070 0.547309
#
# Coordination Sequence:
#
# PCOD8296812 Si02
#       7
#    16  16  16  16   8  16  16
#     4  11  25  45  71 108 147 197 253 316 374 461
#     4  11  24  45  68 102 147 192 245 311 372 448
#     4  11  24  46  70 106 147 195 249 304 375 451
#     4  11  26  44  69 106 139 193 239 305 377 446
#     4  10  26  46  72  98 152 194 238 304 368 462
#     4  12  26  44  74 104 143 188 247 310 376 455
#     4  11  23  45  71 100 145 187 247 303 376 431
#
# _framework density 22.546738999999999
#
# number of rings (size 3 to 8) (size 9 to 14) (size 15 to 20)
#    0.000    0.923    3.077    4.154    5.385    4.308 
#    0.000    0.000    0.000    0.000    0.000    0.000 
#    0.000    0.000    0.000    0.000    0.000    0.000 
#
# Total GULP energy -644387.652940 kJ/mol
# GULP energy per Si atom -12392.070249 kJ/mol
# Density = 2.249542 g / cm^3
# Si number density = 22.546739 Si / 1000 Ang^3
#
#
#
# Elastic Constant Matrix: (Units=GPa)
#
#
# Indices 1 2 3 4 5 6 
#
# 1 110.2610 34.5513 41.2143 0.0000 0.0000 0.0000
# 2 34.5513 155.0969 61.5273 0.0000 0.0000 0.0000
# 3 41.2143 61.5273 133.6949 0.0000 0.0000 0.0000
# 4 0.0000 0.0000 0.0000 37.3230 0.0000 0.0000
# 5 0.0000 0.0000 0.0000 0.0000 25.6523 0.0000
# 6 0.0000 0.0000 0.0000 0.0000 0.0000 27.6122
#
#
#
# Elastic Compliance Matrix: (Units=1/GPa)
#
#
# Indices 1 2 3 4 5 6 
#
# 1 0.010456 -0.001285 -0.002632 0.000000 0.000000 0.000000
# 2 -0.001285 0.008046 -0.003306 0.000000 0.000000 0.000000
# 3 -0.002632 -0.003306 0.009813 0.000000 0.000000 0.000000
# 4 0.000000 0.000000 0.000000 0.026793 0.000000 0.000000
# 5 0.000000 0.000000 0.000000 0.000000 0.038983 0.000000
# 6 0.000000 0.000000 0.000000 0.000000 0.000000 0.036216
#
#
# Mechanical properties :
#
#
# Convention : Reuss Voigt Hill
#
# Bulk Modulus (GPa) = 72.11253 74.84872 73.48063
# Shear Modulus (GPa) = 33.47274 35.56814 34.52044
#
# Velocity S-wave (km/s) = 3.85722 3.97612 3.91712
# Velocity P-wave (km/s) = 7.20351 7.37215 7.28832
#
# Compressibility (1/GPa) = 0.01386721
#
# Stress axis : x y z
#
# Youngs Moduli (GPa) = 95.64019 124.29207 101.90926
#
# Poissons Ratio (x) = 0.15975 0.26820
# Poissons Ratio (y) = 0.12292 0.33695
# Poissons Ratio (z) = 0.25170 0.41096
#
# Static dielectric constant tensor:
#      x y z
#    x 3.880000 0.000000 0.000000 
#    y 0.000000 3.619460 0.000000 
#    z 0.000000 0.000000 4.220280 
# 
# 
# High freq. dielectric constant tensor:
#      x y z
#    x 1.881910 0.000000 0.000000 
#    y 0.000000 1.899460 0.000000 
#    z 0.000000 0.000000 1.893410 
# 
# From -- ./inp_files/6542.got.cif
#   From: 2010.03.12/outbox.cif.g09.slc.cpg/sg73_4_cif.got.tgz:6542.got - 2010.04.16 15:25:48.
