data_PCOD8296499
_publ_section_title
;
Structure prediction by ZEFSAII (Michael W. Deem and Ramdas Pophale) SiO2 
 PCOD8296499
Probable space group: I B C A 
;
_chemical_formula_sum "Si O2"
_cell_formula_units_Z 88
_cell_length_a 12.478750
_cell_length_b 30.833552
_cell_length_c 9.471149
_cell_angle_alpha 90.000000
_cell_angle_beta 90.000000
_cell_angle_gamma 90.000000
_cell_volume 3644.158945
_symmetry_space_group_name_H-M "I B C A "
_symmetry_group_IT_number 73
_symmetry_cell_setting 'orthorhombic'
loop_
_space_group_symop_operation_xyz
x,y,z
-x,1/2-y,z
x,-y,1/2-z
1/2-x,y,-z
-x,-y,-z
x,1/2+y,-z
-x,y,1/2+z
1/2+x,-y,z
1/2+x,1/2+y,1/2+z
1/2-x,-y,1/2+z
1/2+x,1/2-y,-z
-x,1/2+y,1/2-z
1/2-x,1/2-y,1/2-z
1/2+x,y,1/2-z
1/2-x,1/2+y,z
x,1/2-y,1/2+z
loop_
_atom_site_type_symbol
_atom_site_label
_atom_site_fract_x
_atom_site_fract_y
_atom_site_fract_z
Si Si1 0.695600 0.895105 0.640712
Si Si2 0.863499 0.048818 0.728061
Si Si3 0.372763 0.697320 0.626549
Si Si4 0.995043 0.582391 0.515651
Si Si5 0.750000 0.229669 0.500000
Si Si6 0.544274 0.678593 0.405940
O O1 0.750000 0.912654 0.500000
O O2 0.758615 0.919767 0.765619
O O3 0.707945 0.843119 0.653754
O O4 0.571260 0.906486 0.618895
O O5 0.906693 0.053767 0.566823
O O6 0.823428 0.000000 0.750000
O O7 0.950200 0.058085 0.852755
O O8 0.297576 0.739604 0.624773
O O9 0.437419 0.696072 0.479419
O O10 0.466436 0.694725 0.744117
O O11 0.945275 0.626620 0.580126
O O12 0.656151 0.198750 0.548634
#
# Coordination Sequence:
#
# PCOD8296499 Si02
#       6
#    16  16  16  16   8  16
#     4   9  20  41  68  92 133 187 221 277 358 418
#     4  11  23  42  72 104 138 183 238 293 358 429
#     4  11  24  47  69  99 143 184 234 296 360 422
#     4  10  22  44  67 101 144 184 230 289 359 428
#     4  12  26  42  72 108 136 182 244 306 346 432
#     4  11  26  44  70 103 139 189 238 288 361 433
#
# _framework density 24.148233000000001
#
# number of rings (size 3 to 8) (size 9 to 14) (size 15 to 20)
#    0.000    1.455    0.909    3.818    2.545    5.091 
#    0.000    7.273    0.000    0.000    0.000    0.000 
#    0.000    0.000    0.000    0.000    0.000    0.000 
#
# Total GULP energy -545215.768686 kJ/mol
# GULP energy per Si atom -12391.267470 kJ/mol
# Density = 2.409327 g / cm^3
# Si number density = 24.148233 Si / 1000 Ang^3
#
#
#
# Elastic Constant Matrix: (Units=GPa)
#
#
# Indices 1 2 3 4 5 6 
#
# 1 76.3372 50.4117 27.2076 -0.0001 0.0006 0.0016
# 2 50.4117 120.3664 25.5661 0.0053 -0.0028 -0.0007
# 3 27.2076 25.5661 99.0396 0.0205 -0.0134 0.0068
# 4 -0.0001 0.0053 0.0205 29.2281 -0.0069 0.0019
# 5 0.0006 -0.0028 -0.0134 -0.0069 35.3506 -0.0011
# 6 0.0016 -0.0007 0.0068 0.0019 -0.0011 34.4705
#
#
#
# Elastic Compliance Matrix: (Units=1/GPa)
#
#
# Indices 1 2 3 4 5 6 
#
# 1 0.019115 -0.007290 -0.003369 0.000004 -0.000002 0.000000
# 2 -0.007290 0.011570 -0.000984 -0.000001 0.000001 0.000001
# 3 -0.003369 -0.000984 0.011277 -0.000008 0.000004 -0.000002
# 4 0.000004 -0.000001 -0.000008 0.034214 0.000007 -0.000002
# 5 -0.000002 0.000001 0.000004 0.000007 0.028288 0.000001
# 6 0.000000 0.000001 -0.000002 -0.000002 0.000001 0.029010
#
#
# Mechanical properties :
#
#
# Convention : Reuss Voigt Hill
#
# Bulk Modulus (GPa) = 53.54777 55.79043 54.66910
# Shear Modulus (GPa) = 30.67765 32.64704 31.66234
#
# Velocity S-wave (km/s) = 3.56812 3.68087 3.62493
# Velocity P-wave (km/s) = 6.26083 6.42016 6.34100
#
# Compressibility (1/GPa) = 0.01867491
#
# Stress axis : x y z
#
# Youngs Moduli (GPa) = 52.31552 86.42921 88.67938
#
# Poissons Ratio (x) = 0.63007 0.29878
# Poissons Ratio (y) = 0.38138 0.08727
# Poissons Ratio (z) = 0.17626 0.08505
#
# Static dielectric constant tensor:
#      x y z
#    x 4.392510 0.000000 0.000010 
#    y 0.000000 4.262010 -0.000020 
#    z 0.000010 -0.000020 4.736850 
# 
# 
# High freq. dielectric constant tensor:
#      x y z
#    x 1.954350 0.000000 0.000000 
#    y 0.000000 1.954860 0.000000 
#    z 0.000000 0.000000 1.960550 
# 
# From -- ./inp_files/9870.got.cif
#   From: 2010.03.12/outbox.cif.g09.slc.cpg/sg73_5_cif.got.tgz:9870.got - 2010.04.16 15:25:48.
