data_PCOD8296310
_publ_section_title
;
Structure prediction by ZEFSAII (Michael W. Deem and Ramdas Pophale) SiO2 
 PCOD8296310
Probable space group: I B C A 
;
_chemical_formula_sum "Si O2"
_cell_formula_units_Z 88
_cell_length_a 11.724583
_cell_length_b 17.540934
_cell_length_c 22.697643
_cell_angle_alpha 90.000000
_cell_angle_beta 90.000000
_cell_angle_gamma 90.000000
_cell_volume 4668.000359
_symmetry_space_group_name_H-M "I B C A "
_symmetry_group_IT_number 73
_symmetry_cell_setting 'orthorhombic'
loop_
_space_group_symop_operation_xyz
x,y,z
-x,1/2-y,z
x,-y,1/2-z
1/2-x,y,-z
-x,-y,-z
x,1/2+y,-z
-x,y,1/2+z
1/2+x,-y,z
1/2+x,1/2+y,1/2+z
1/2-x,-y,1/2+z
1/2+x,1/2-y,-z
-x,1/2+y,1/2-z
1/2-x,1/2-y,1/2-z
1/2+x,y,1/2-z
1/2-x,1/2+y,z
x,1/2-y,1/2+z
loop_
_atom_site_type_symbol
_atom_site_label
_atom_site_fract_x
_atom_site_fract_y
_atom_site_fract_z
Si Si1 0.590544 0.313885 0.939806
Si Si2 0.500000 0.250000 0.756959
Si Si3 0.148330 0.368361 0.678577
Si Si4 0.750000 0.206974 0.000000
Si Si5 0.470001 0.500000 0.250000
Si Si6 0.916193 0.881927 0.173240
Si Si7 0.522801 0.337357 0.553926
O O1 0.500000 0.250000 0.923195
O O2 0.597991 0.374951 0.887348
O O3 0.704397 0.264018 0.949424
O O4 0.556518 0.361110 0.998617
O O5 0.397053 0.212642 0.795358
O O6 0.451543 0.315096 0.716184
O O7 0.282271 0.371679 0.667185
O O8 0.110953 0.438397 0.718943
O O9 0.845046 0.153791 0.967527
O O10 0.552996 0.537426 0.297868
O O11 0.986660 0.883964 0.111687
O O12 0.500000 0.250000 0.569586
#
# Coordination Sequence:
#
# PCOD8296310 Si02
#       7
#    16   8  16   8   8  16  16
#     4   9  17  30  54  86 113 140 178 231 295 344
#     4  10  22  34  56  90 108 144 202 238 292 346
#     4  11  20  39  56  80 116 153 190 244 289 339
#     4   8  16  30  52  90 120 138 172 240 298 342
#     4  10  26  40  52  78 116 162 206 228 280 342
#     4  11  21  38  59  81 115 152 196 240 284 349
#     4   9  17  32  55  90 115 141 184 235 297 347
#
# _framework density 18.851754
#
# number of rings (size 3 to 8) (size 9 to 14) (size 15 to 20)
#    0.000    2.545    1.818    3.273    0.000    0.000 
#    0.000    4.545    0.000    1.091    0.000    0.000 
#    0.000    0.000    0.000    0.000    0.000    0.000 
#
# Total GULP energy -545112.528643 kJ/mol
# GULP energy per Si atom -12388.921106 kJ/mol
# Density = 1.880885 g / cm^3
# Si number density = 18.851754 Si / 1000 Ang^3
#
#
#
# Elastic Constant Matrix: (Units=GPa)
#
#
# Indices 1 2 3 4 5 6 
#
# 1 122.7081 26.3715 58.4573 0.0000 0.0000 0.0000
# 2 26.3715 55.3200 41.1272 0.0001 0.0000 0.0000
# 3 58.4573 41.1272 151.9374 0.0001 0.0000 0.0000
# 4 0.0000 0.0001 0.0001 717.9986 0.0000 0.0000
# 5 0.0000 0.0000 0.0000 0.0000 20.7228 0.0000
# 6 0.0000 0.0000 0.0000 0.0000 0.0000 13.0599
#
#
#
# Elastic Compliance Matrix: (Units=1/GPa)
#
#
# Indices 1 2 3 4 5 6 
#
# 1 0.010236 -0.002443 -0.003277 0.000000 0.000000 0.000000
# 2 -0.002443 0.023214 -0.005344 0.000000 0.000000 0.000000
# 3 -0.003277 -0.005344 0.009289 0.000000 0.000000 0.000000
# 4 0.000000 0.000000 0.000000 0.001393 0.000000 0.000000
# 5 0.000000 0.000000 0.000000 0.000000 0.048256 0.000000
# 6 0.000000 0.000000 0.000000 0.000000 0.000000 0.076570
#
#
# Mechanical properties :
#
#
# Convention : Reuss Voigt Hill
#
# Bulk Modulus (GPa) = 48.51765 64.65307 56.58536
# Shear Modulus (GPa) = 25.25821 163.95688 94.60755
#
# Velocity S-wave (km/s) = 3.66434 9.33598 7.09182
# Velocity P-wave (km/s) = 6.61026 12.27127 9.85595
#
# Compressibility (1/GPa) = 0.02061106
#
# Stress axis : x y z
#
# Youngs Moduli (GPa) = 97.69904 43.07731 107.65650
#
# Poissons Ratio (x) = 0.10525 0.35276
# Poissons Ratio (y) = 0.23871 0.57528
# Poissons Ratio (z) = 0.32013 0.23019
#
# Static dielectric constant tensor:
#      x y z
#    x 3.168800 0.000000 0.000000 
#    y 0.000000 3.903660 0.000000 
#    z 0.000000 0.000000 3.751890 
# 
# 
# High freq. dielectric constant tensor:
#      x y z
#    x 1.742650 0.000000 0.000000 
#    y 0.000000 1.689150 0.000000 
#    z 0.000000 0.000000 1.749060 
# 
# From -- ./inp_files/12790.got.cif
#   From: 2010.03.12/outbox.cif.g09.slc.cpg/sg73_7_cif.got.tgz:12790.got - 2010.04.16 15:25:48.
