data_PCOD8296745
_publ_section_title
;
Structure prediction by ZEFSAII (Michael W. Deem and Ramdas Pophale) SiO2 
 PCOD8296745
Probable space group: I B C A 
;
_chemical_formula_sum "Si O2"
_cell_formula_units_Z 88
_cell_length_a 13.131348
_cell_length_b 21.447800
_cell_length_c 13.618918
_cell_angle_alpha 90.000000
_cell_angle_beta 90.000000
_cell_angle_gamma 90.000000
_cell_volume 3835.611986
_symmetry_space_group_name_H-M "I B C A "
_symmetry_group_IT_number 73
_symmetry_cell_setting 'orthorhombic'
loop_
_space_group_symop_operation_xyz
x,y,z
-x,1/2-y,z
x,-y,1/2-z
1/2-x,y,-z
-x,-y,-z
x,1/2+y,-z
-x,y,1/2+z
1/2+x,-y,z
1/2+x,1/2+y,1/2+z
1/2-x,-y,1/2+z
1/2+x,1/2-y,-z
-x,1/2+y,1/2-z
1/2-x,1/2-y,1/2-z
1/2+x,y,1/2-z
1/2-x,1/2+y,z
x,1/2-y,1/2+z
loop_
_atom_site_type_symbol
_atom_site_label
_atom_site_fract_x
_atom_site_fract_y
_atom_site_fract_z
Si Si1 0.226144 0.432282 0.717607
Si Si2 0.350248 0.657691 0.660056
Si Si3 0.084577 0.200130 0.863252
Si Si4 0.750000 0.257981 0.500000
Si Si5 0.089245 0.566632 0.087132
Si Si6 0.481580 0.554987 0.127338
O O1 0.259746 0.500000 0.750000
O O2 0.253997 0.382216 0.801600
O O3 0.293286 0.421601 0.619314
O O4 0.104987 0.427886 0.705596
O O5 0.386730 0.702915 0.747973
O O6 0.321187 0.698764 0.567096
O O7 0.437788 0.610361 0.625645
O O8 0.035793 0.132670 0.889034
O O9 0.000000 0.250000 0.888370
O O10 0.182568 0.213790 0.930941
O O11 0.034985 0.511644 0.150539
O O12 0.080329 0.548700 0.974170
#
# Coordination Sequence:
#
# PCOD8296745 Si02
#       6
#    16  16  16   8  16  16
#     4  11  24  40  71 104 149 180 229 302 371 442
#     4  11  27  47  76 109 143 187 252 297 386 429
#     4  11  27  47  75 103 147 196 250 295 363 438
#     4  12  28  52  70 108 146 198 246 318 342 456
#     4  10  24  46  68 110 138 190 246 296 370 438
#     4  11  24  44  75 105 145 187 237 308 374 437
#
# _framework density 22.942882999999998
#
# number of rings (size 3 to 8) (size 9 to 14) (size 15 to 20)
#    0.000    1.091    1.818    2.182   12.727    5.091 
#    0.000    0.000    0.000    0.000    0.000    0.000 
#    0.000    0.000    0.000    0.000    0.000    0.000 
#
# Total GULP energy -545588.186215 kJ/mol
# GULP energy per Si atom -12399.731505 kJ/mol
# Density = 2.289066 g / cm^3
# Si number density = 22.942883 Si / 1000 Ang^3
#
#
#
# Elastic Constant Matrix: (Units=GPa)
#
#
# Indices 1 2 3 4 5 6 
#
# 1 109.0221 46.0553 30.9582 0.0001 0.0000 0.0000
# 2 46.0553 118.4668 40.5679 0.0009 0.0000 -0.0002
# 3 30.9582 40.5679 83.2436 0.0005 0.0000 -0.0002
# 4 0.0001 0.0009 0.0005 38.6222 0.0000 -0.0002
# 5 0.0000 0.0000 0.0000 0.0000 27.9399 -0.0001
# 6 0.0000 -0.0002 -0.0002 -0.0002 -0.0001 28.1463
#
#
#
# Elastic Compliance Matrix: (Units=1/GPa)
#
#
# Indices 1 2 3 4 5 6 
#
# 1 0.011391 -0.003574 -0.002494 0.000000 0.000000 0.000000
# 2 -0.003574 0.011254 -0.004155 0.000000 0.000000 0.000000
# 3 -0.002494 -0.004155 0.014966 0.000000 0.000000 0.000000
# 4 0.000000 0.000000 0.000000 0.025892 0.000000 0.000000
# 5 0.000000 0.000000 0.000000 0.000000 0.035791 0.000000
# 6 0.000000 0.000000 0.000000 0.000000 0.000000 0.035529
#
#
# Mechanical properties :
#
#
# Convention : Reuss Voigt Hill
#
# Bulk Modulus (GPa) = 58.26623 60.65503 59.46063
# Shear Modulus (GPa) = 31.05800 31.81842 31.43821
#
# Velocity S-wave (km/s) = 3.68327 3.72809 3.70575
# Velocity P-wave (km/s) = 6.59848 6.71017 6.65456
#
# Compressibility (1/GPa) = 0.01716260
#
# Stress axis : x y z
#
# Youngs Moduli (GPa) = 87.79183 88.86124 66.82024
#
# Poissons Ratio (x) = 0.31759 0.16667
# Poissons Ratio (y) = 0.31377 0.27764
# Poissons Ratio (z) = 0.21899 0.36923
#
# Static dielectric constant tensor:
#      x y z
#    x 3.985200 0.000000 0.000000 
#    y 0.000000 4.398670 0.000000 
#    z 0.000000 0.000000 4.119640 
# 
# 
# High freq. dielectric constant tensor:
#      x y z
#    x 1.903350 0.000000 0.000000 
#    y 0.000000 1.917330 0.000000 
#    z 0.000000 0.000000 1.910970 
# 
# From -- ./inp_files/16132.got.cif
#   From: 2010.03.12/outbox.cif.g09.slc.cpg/sg73_9_cif.got.tgz:16132.got - 2010.04.16 15:25:48.
