data_PCOD8296565
_publ_section_title
;
Structure prediction by ZEFSAII (Michael W. Deem and Ramdas Pophale) SiO2 
 PCOD8296565
Probable space group: I B C A 
;
_chemical_formula_sum "Si O2"
_cell_formula_units_Z 120
_cell_length_a 18.671550
_cell_length_b 21.414680
_cell_length_c 14.039911
_cell_angle_alpha 90.000000
_cell_angle_beta 90.000000
_cell_angle_gamma 90.000000
_cell_volume 5613.791981
_symmetry_space_group_name_H-M "I B C A "
_symmetry_group_IT_number 73
_symmetry_cell_setting 'orthorhombic'
loop_
_space_group_symop_operation_xyz
x,y,z
-x,1/2-y,z
x,-y,1/2-z
1/2-x,y,-z
-x,-y,-z
x,1/2+y,-z
-x,y,1/2+z
1/2+x,-y,z
1/2+x,1/2+y,1/2+z
1/2-x,-y,1/2+z
1/2+x,1/2-y,-z
-x,1/2+y,1/2-z
1/2-x,1/2-y,1/2-z
1/2+x,y,1/2-z
1/2-x,1/2+y,z
x,1/2-y,1/2+z
loop_
_atom_site_type_symbol
_atom_site_label
_atom_site_fract_x
_atom_site_fract_y
_atom_site_fract_z
Si Si1 0.528270 0.610480 0.721887
Si Si2 0.561793 0.872388 0.894158
Si Si3 0.671572 0.080445 0.035961
Si Si4 0.830205 0.170945 0.787439
Si Si5 0.818654 0.809604 0.215204
Si Si6 0.934105 0.530244 0.447016
Si Si7 0.500000 0.750000 0.979603
Si Si8 0.903933 0.326889 0.604832
O O1 0.494084 0.590276 0.824623
O O2 0.597549 0.654292 0.732178
O O3 0.547536 0.549042 0.661373
O O4 0.471075 0.651573 0.666414
O O5 0.636399 0.861657 0.839932
O O6 0.521994 0.807525 0.913699
O O7 0.582353 0.908044 0.990464
O O8 0.681145 0.121809 0.129095
O O9 0.633526 0.015183 0.059351
O O10 0.750000 0.063356 0.000000
O O11 0.623622 0.115849 0.958583
O O12 0.832194 0.241233 0.830993
O O13 0.763971 0.168724 0.712710
O O14 0.840727 0.804036 0.326570
O O15 0.000000 0.500000 0.500000
O O16 0.430498 0.769163 0.041092
#
# Coordination Sequence:
#
# PCOD8296565 Si02
#       8
#    16  16  16  16  16  16   8  16
#     4  11  23  43  69 100 133 177 232 284 344 415
#     4  11  24  41  67 101 138 176 224 288 353 414
#     4  12  25  45  68  96 139 188 237 284 354 420
#     4  11  23  43  66 100 136 178 226 281 350 422
#     4  10  23  41  65 100 140 173 222 288 353 418
#     4  12  25  45  65  98 134 180 237 287 337 412
#     4  12  20  38  74 106 138 178 228 290 364 432
#     4  11  21  41  70 103 135 175 229 283 351 419
#
# _framework density 21.375924999999999
#
# number of rings (size 3 to 8) (size 9 to 14) (size 15 to 20)
#    0.000    0.800    4.000    4.000    0.000    5.333 
#    0.000    0.000    0.000    0.000    0.000    0.000 
#    0.000    0.000    0.000    0.000    0.000    0.000 
#
# Total GULP energy -744164.129359 kJ/mol
# GULP energy per Si atom -12402.735489 kJ/mol
# Density = 2.132727 g / cm^3
# Si number density = 21.375925 Si / 1000 Ang^3
#
#
#
# Elastic Constant Matrix: (Units=GPa)
#
#
# Indices 1 2 3 4 5 6 
#
# 1 112.6159 31.3859 11.6605 0.0000 0.0000 0.0000
# 2 31.3859 100.1050 35.7071 0.0000 0.0000 0.0000
# 3 11.6605 35.7071 75.5150 0.0000 0.0000 0.0000
# 4 0.0000 0.0000 0.0000 34.9608 0.0000 0.0000
# 5 0.0000 0.0000 0.0000 0.0000 28.2591 0.0000
# 6 0.0000 0.0000 0.0000 0.0000 0.0000 36.0907
#
#
#
# Elastic Compliance Matrix: (Units=1/GPa)
#
#
# Indices 1 2 3 4 5 6 
#
# 1 0.009730 -0.003025 -0.000072 0.000000 0.000000 0.000000
# 2 -0.003025 0.012957 -0.005659 0.000000 0.000000 0.000000
# 3 -0.000072 -0.005659 0.015930 0.000000 0.000000 0.000000
# 4 0.000000 0.000000 0.000000 0.028603 0.000000 0.000000
# 5 0.000000 0.000000 0.000000 0.000000 0.035387 0.000000
# 6 0.000000 0.000000 0.000000 0.000000 0.000000 0.027708
#
#
# Mechanical properties :
#
#
# Convention : Reuss Voigt Hill
#
# Bulk Modulus (GPa) = 47.38571 49.52701 48.45636
# Shear Modulus (GPa) = 32.28676 33.82762 33.05719
#
# Velocity S-wave (km/s) = 3.89064 3.98239 3.93678
# Velocity P-wave (km/s) = 6.51143 6.66076 6.58652
#
# Compressibility (1/GPa) = 0.02110341
#
# Stress axis : x y z
#
# Youngs Moduli (GPa) = 102.77203 77.18060 62.77636
#
# Poissons Ratio (x) = 0.23347 0.00453
# Poissons Ratio (y) = 0.31089 0.35528
# Poissons Ratio (z) = 0.00741 0.43680
#
# Static dielectric constant tensor:
#      x y z
#    x 4.046660 0.000000 0.000000 
#    y 0.000000 3.840540 0.000000 
#    z 0.000000 0.000000 4.164690 
# 
# 
# High freq. dielectric constant tensor:
#      x y z
#    x 1.849700 0.000000 0.000000 
#    y 0.000000 1.832710 0.000000 
#    z 0.000000 0.000000 1.841870 
# 
# From -- ./inp_files/18977.got.cif
#   From: 2010.03.12/outbox.cif.g09.slc.cpg/sg73_10_cif.got.tgz:18977.got - 2010.04.16 15:25:48.
