data_PCOD8296226
_publ_section_title
;
Structure prediction by ZEFSAII (Michael W. Deem and Ramdas Pophale) SiO2 
 PCOD8296226
Probable space group: I B C A 
;
_chemical_formula_sum "Si O2"
_cell_formula_units_Z 112
_cell_length_a 17.902608
_cell_length_b 10.568856
_cell_length_c 29.108186
_cell_angle_alpha 90.000000
_cell_angle_beta 90.000000
_cell_angle_gamma 90.000000
_cell_volume 5507.562376
_symmetry_space_group_name_H-M "I B C A "
_symmetry_group_IT_number 73
_symmetry_cell_setting 'orthorhombic'
loop_
_space_group_symop_operation_xyz
x,y,z
-x,1/2-y,z
x,-y,1/2-z
1/2-x,y,-z
-x,-y,-z
x,1/2+y,-z
-x,y,1/2+z
1/2+x,-y,z
1/2+x,1/2+y,1/2+z
1/2-x,-y,1/2+z
1/2+x,1/2-y,-z
-x,1/2+y,1/2-z
1/2-x,1/2-y,1/2-z
1/2+x,y,1/2-z
1/2-x,1/2+y,z
x,1/2-y,1/2+z
loop_
_atom_site_type_symbol
_atom_site_label
_atom_site_fract_x
_atom_site_fract_y
_atom_site_fract_z
Si Si1 0.600925 0.039882 0.360606
Si Si2 0.025413 0.921844 0.926975
Si Si3 0.250000 0.496336 0.000000
Si Si4 0.285564 0.860488 0.904429
Si Si5 0.500000 0.250000 0.507236
Si Si6 0.131584 0.187446 0.638032
Si Si7 0.478773 0.103712 0.288781
Si Si8 0.133512 0.858426 0.555234
O O1 0.552955 0.035110 0.406986
O O2 0.650136 0.165975 0.353321
O O3 0.545125 0.034688 0.317167
O O4 0.658368 0.925757 0.368048
O O5 0.064072 0.806146 0.899508
O O6 0.010151 0.879183 0.978823
O O7 0.086085 0.032743 0.920302
O O8 0.222031 0.415432 0.956158
O O9 0.318937 0.585094 0.986537
O O10 0.205695 0.878359 0.880500
O O11 0.311824 0.714430 0.909205
O O12 0.574680 0.244499 0.537018
O O13 0.098049 0.114493 0.682163
O O14 0.500000 0.250000 0.273449
O O15 0.461319 0.000000 0.250000
#
# Coordination Sequence:
#
# PCOD8296226 Si02
#       8
#    16  16   8  16   8  16  16  16
#     4  10  21  41  66  87 125 159 205 256 314 380
#     4  11  20  39  57  79 111 163 215 255 315 361
#     4  12  24  38  54  78 128 176 222 256 314 364
#     4  12  24  39  58  89 127 172 213 265 316 365
#     4  12  22  36  56  78 116 162 220 276 314 352
#     4  10  21  40  64  88 121 168 203 246 317 393
#     4   9  20  44  73 101 124 159 205 257 322 397
#     4  12  25  35  53  85 118 159 222 274 310 353
#
# _framework density 20.335675999999999
#
# number of rings (size 3 to 8) (size 9 to 14) (size 15 to 20)
#    0.000    1.143    2.857    5.143    2.000    0.000 
#    5.143    0.714    0.000    3.429    0.000    0.000 
#    0.000    0.000    0.000    0.000    0.000    0.000 
#
# Total GULP energy -693954.749440 kJ/mol
# GULP energy per Si atom -12392.049097 kJ/mol
# Density = 2.028939 g / cm^3
# Si number density = 20.335676 Si / 1000 Ang^3
#
#
#
# Elastic Constant Matrix: (Units=GPa)
#
#
# Indices 1 2 3 4 5 6 
#
# 1 114.5084 37.3986 32.0322 0.0000 0.0000 0.0000
# 2 37.3986 88.6172 38.3120 0.0000 0.0000 0.0000
# 3 32.0322 38.3120 72.1758 0.0000 0.0000 0.0000
# 4 0.0000 0.0000 0.0000 24.8332 0.0000 0.0000
# 5 0.0000 0.0000 0.0000 0.0000 21.2515 0.0000
# 6 0.0000 0.0000 0.0000 0.0000 0.0000 35.8717
#
#
#
# Elastic Compliance Matrix: (Units=1/GPa)
#
#
# Indices 1 2 3 4 5 6 
#
# 1 0.010616 -0.003171 -0.003028 0.000000 0.000000 0.000000
# 2 -0.003171 0.015593 -0.006870 0.000000 0.000000 0.000000
# 3 -0.003028 -0.006870 0.018845 0.000000 0.000000 0.000000
# 4 0.000000 0.000000 0.000000 0.040269 0.000000 0.000000
# 5 0.000000 0.000000 0.000000 0.000000 0.047055 0.000000
# 6 0.000000 0.000000 0.000000 0.000000 0.000000 0.027877
#
#
# Mechanical properties :
#
#
# Convention : Reuss Voigt Hill
#
# Bulk Modulus (GPa) = 52.86377 54.53188 53.69783
# Shear Modulus (GPa) = 25.94740 27.56188 26.75464
#
# Velocity S-wave (km/s) = 3.57593 3.68550 3.63112
# Velocity P-wave (km/s) = 6.56519 6.70706 6.63650
#
# Compressibility (1/GPa) = 0.01891655
#
# Stress axis : x y z
#
# Youngs Moduli (GPa) = 94.20019 64.13299 53.06328
#
# Poissons Ratio (x) = 0.20336 0.16068
# Poissons Ratio (y) = 0.29870 0.36452
# Poissons Ratio (z) = 0.28525 0.44056
#
# Static dielectric constant tensor:
#      x y z
#    x 3.623180 0.000000 0.000000 
#    y 0.000000 3.699470 0.000000 
#    z 0.000000 0.000000 3.361670 
# 
# 
# High freq. dielectric constant tensor:
#      x y z
#    x 1.808660 0.000000 0.000000 
#    y 0.000000 1.803480 0.000000 
#    z 0.000000 0.000000 1.753020 
# 
# From -- ./inp_files/34355.got.cif
#   From: 2010.03.12/outbox.cif.g09.slc.cpg/sg73_18_cif.got.tgz:34355.got - 2010.04.16 15:25:48.
