data_PCOD8296199
_publ_section_title
;
Structure prediction by ZEFSAII (Michael W. Deem and Ramdas Pophale) SiO2 
 PCOD8296199
Probable space group: I B C A 
;
_chemical_formula_sum "Si O2"
_cell_formula_units_Z 104
_cell_length_a 20.236403
_cell_length_b 27.252384
_cell_length_c 9.364289
_cell_angle_alpha 90.000000
_cell_angle_beta 90.000000
_cell_angle_gamma 90.000000
_cell_volume 5164.313851
_symmetry_space_group_name_H-M "I B C A "
_symmetry_group_IT_number 73
_symmetry_cell_setting 'orthorhombic'
loop_
_space_group_symop_operation_xyz
x,y,z
-x,1/2-y,z
x,-y,1/2-z
1/2-x,y,-z
-x,-y,-z
x,1/2+y,-z
-x,y,1/2+z
1/2+x,-y,z
1/2+x,1/2+y,1/2+z
1/2-x,-y,1/2+z
1/2+x,1/2-y,-z
-x,1/2+y,1/2-z
1/2-x,1/2-y,1/2-z
1/2+x,y,1/2-z
1/2-x,1/2+y,z
x,1/2-y,1/2+z
loop_
_atom_site_type_symbol
_atom_site_label
_atom_site_fract_x
_atom_site_fract_y
_atom_site_fract_z
Si Si1 0.300654 0.963048 0.631918
Si Si2 0.575315 0.508509 0.462561
Si Si3 0.897405 0.082729 0.216215
Si Si4 0.223532 0.786878 0.859462
Si Si5 0.570798 0.807630 0.671589
Si Si6 0.500000 0.750000 0.922402
Si Si7 0.251809 0.394532 0.838263
O O1 0.250000 0.960778 0.500000
O O2 0.375882 0.976188 0.591092
O O3 0.303286 0.913378 0.726068
O O4 0.270179 0.000000 0.750000
O O5 0.500000 0.500000 0.500000
O O6 0.600422 0.455391 0.413638
O O7 0.575431 0.553657 0.352521
O O8 0.938503 0.133106 0.187164
O O9 0.821431 0.096272 0.239612
O O10 0.250000 0.750000 0.750000
O O11 0.146138 0.794367 0.852427
O O12 0.263662 0.837484 0.847921
O O13 0.250000 0.760673 0.000000
O O14 0.547906 0.780881 0.817581
O O15 0.534705 0.789307 0.527481
O O16 0.250000 0.417707 0.000000
#
# Coordination Sequence:
#
# PCOD8296199 Si02
#       7
#    16  16  16  16  16   8  16
#     4  12  23  39  64  91 121 165 213 264 317 391
#     4  11  25  41  60  92 129 168 218 266 322 382
#     4  10  22  43  63  87 131 170 209 271 318 381
#     4  10  21  39  63  94 131 164 204 273 330 381
#     4  10  22  41  67  93 130 169 219 266 324 389
#     4  10  22  42  64  98 122 176 220 266 318 394
#     4  10  21  41  65  94 123 167 217 262 326 389
#
# _framework density 20.138203000000001
#
# number of rings (size 3 to 8) (size 9 to 14) (size 15 to 20)
#    0.000    1.538    1.538    3.231    4.308    0.615 
#    2.769    1.538    0.000    0.000    0.000    0.000 
#    0.000    0.000    0.000    0.000    0.000    0.000 
#
# Total GULP energy -644229.713822 kJ/mol
# GULP energy per Si atom -12389.032958 kJ/mol
# Density = 2.009237 g / cm^3
# Si number density = 20.138203 Si / 1000 Ang^3
#
#
#
# Elastic Constant Matrix: (Units=GPa)
#
#
# Indices 1 2 3 4 5 6 
#
# 1 96.8568 45.3394 61.8994 0.0000 0.0000 0.0000
# 2 45.3394 129.8884 78.4652 0.0000 0.0000 0.0000
# 3 61.8994 78.4652 165.4053 0.0000 0.0000 0.0000
# 4 0.0000 0.0000 0.0000 33.1253 0.0000 0.0000
# 5 0.0000 0.0000 0.0000 0.0000 34.8361 0.0000
# 6 0.0000 0.0000 0.0000 0.0000 0.0000 30.9460
#
#
#
# Elastic Compliance Matrix: (Units=1/GPa)
#
#
# Indices 1 2 3 4 5 6 
#
# 1 0.014097 -0.002430 -0.004123 0.000000 0.000000 0.000000
# 2 -0.002430 0.011210 -0.004409 0.000000 0.000000 0.000000
# 3 -0.004123 -0.004409 0.009680 0.000000 0.000000 0.000000
# 4 0.000000 0.000000 0.000000 0.030188 0.000000 0.000000
# 5 0.000000 0.000000 0.000000 0.000000 0.028706 0.000000
# 6 0.000000 0.000000 0.000000 0.000000 0.000000 0.032314
#
#
# Mechanical properties :
#
#
# Convention : Reuss Voigt Hill
#
# Bulk Modulus (GPa) = 76.54410 84.83982 80.69196
# Shear Modulus (GPa) = 32.79265 33.54458 33.16861
#
# Velocity S-wave (km/s) = 4.03970 4.08575 4.06279
# Velocity P-wave (km/s) = 7.73633 8.02982 7.88444
#
# Compressibility (1/GPa) = 0.01306436
#
# Stress axis : x y z
#
# Youngs Moduli (GPa) = 70.93816 89.20269 103.30722
#
# Poissons Ratio (x) = 0.21679 0.42589
# Poissons Ratio (y) = 0.17240 0.45543
# Poissons Ratio (z) = 0.29245 0.39325
#
# Static dielectric constant tensor:
#      x y z
#    x 3.536030 0.000000 0.000000 
#    y 0.000000 3.907810 0.000000 
#    z 0.000000 0.000000 3.937560 
# 
# 
# High freq. dielectric constant tensor:
#      x y z
#    x 1.776380 0.000000 0.000000 
#    y 0.000000 1.796850 0.000000 
#    z 0.000000 0.000000 1.799720 
# 
# From -- ./inp_files/6587.got.cif
#   From: 2010.03.12/outbox.cif.g09.slc.cpg/sg73_4_cif.got.tgz:6587.got - 2010.04.16 15:25:48.
