data_PCOD8296940
_publ_section_title
;
Structure prediction by ZEFSAII (Michael W. Deem and Ramdas Pophale) SiO2 
 PCOD8296940
Probable space group: I B C A 
;
_chemical_formula_sum "Si O2"
_cell_formula_units_Z 72
_cell_length_a 19.257665
_cell_length_b 13.015475
_cell_length_c 13.331910
_cell_angle_alpha 90.000000
_cell_angle_beta 90.000000
_cell_angle_gamma 90.000000
_cell_volume 3341.612010
_symmetry_space_group_name_H-M "I B C A "
_symmetry_group_IT_number 73
_symmetry_cell_setting 'orthorhombic'
loop_
_space_group_symop_operation_xyz
x,y,z
-x,1/2-y,z
x,-y,1/2-z
1/2-x,y,-z
-x,-y,-z
x,1/2+y,-z
-x,y,1/2+z
1/2+x,-y,z
1/2+x,1/2+y,1/2+z
1/2-x,-y,1/2+z
1/2+x,1/2-y,-z
-x,1/2+y,1/2-z
1/2-x,1/2-y,1/2-z
1/2+x,y,1/2-z
1/2-x,1/2+y,z
x,1/2-y,1/2+z
loop_
_atom_site_type_symbol
_atom_site_label
_atom_site_fract_x
_atom_site_fract_y
_atom_site_fract_z
Si Si1 0.437711 0.326277 0.896323
Si Si2 0.047863 0.652361 0.623560
Si Si3 0.806766 0.883607 0.718735
Si Si4 0.467154 0.500000 0.750000
Si Si5 0.713517 0.755478 0.600528
O O1 0.500000 0.250000 0.861697
O O2 0.423769 0.414018 0.811808
O O3 0.368620 0.261092 0.911809
O O4 0.451657 0.372940 0.005639
O O5 0.122821 0.668851 0.675802
O O6 0.000000 0.750000 0.647932
O O7 0.015504 0.549987 0.667241
O O8 0.748894 0.864836 0.632051
O O9 0.773961 0.829866 0.815661
O O10 0.819376 0.000000 0.750000
O O11 0.750000 0.714707 0.500000
#
# Coordination Sequence:
#
# PCOD8296940 Si02
#       5
#    16  16  16   8  16
#     4  11  25  44  67  97 134 177 227 280 342 407
#     4  11  23  43  67  97 136 179 224 278 341 401
#     4  11  24  44  70  99 136 180 224 282 343 403
#     4  12  22  40  66 100 130 170 222 284 332 404
#     4  11  24  46  67  97 136 181 222 278 342 410
#
# _framework density 21.546488
#
# number of rings (size 3 to 8) (size 9 to 14) (size 15 to 20)
#    0.000    0.889    3.333    4.000    1.556    0.889 
#    0.000    0.000    0.000    0.000    0.000    0.000 
#    0.000    0.000    0.000    0.000    0.000    0.000 
#
# Total GULP energy -446259.897262 kJ/mol
# GULP energy per Si atom -12396.108257 kJ/mol
# Density = 2.149745 g / cm^3
# Si number density = 21.546488 Si / 1000 Ang^3
#
#
#
# Elastic Constant Matrix: (Units=GPa)
#
#
# Indices 1 2 3 4 5 6 
#
# 1 129.6247 30.5177 29.7233 0.0000 0.0000 0.0000
# 2 30.5177 90.8366 45.6305 0.0000 0.0000 0.0000
# 3 29.7233 45.6305 138.0215 0.0000 0.0000 0.0000
# 4 0.0000 0.0000 0.0000 36.9011 0.0000 0.0000
# 5 0.0000 0.0000 0.0000 0.0000 48.3569 0.0000
# 6 0.0000 0.0000 0.0000 0.0000 0.0000 24.9346
#
#
#
# Elastic Compliance Matrix: (Units=1/GPa)
#
#
# Indices 1 2 3 4 5 6 
#
# 1 0.008505 -0.002323 -0.001064 0.000000 0.000000 0.000000
# 2 -0.002323 0.013836 -0.004074 0.000000 0.000000 0.000000
# 3 -0.001064 -0.004074 0.008821 0.000000 0.000000 0.000000
# 4 0.000000 0.000000 0.000000 0.027099 0.000000 0.000000
# 5 0.000000 0.000000 0.000000 0.000000 0.020680 0.000000
# 6 0.000000 0.000000 0.000000 0.000000 0.000000 0.040105
#
#
# Mechanical properties :
#
#
# Convention : Reuss Voigt Hill
#
# Bulk Modulus (GPa) = 61.57272 63.35843 62.46558
# Shear Modulus (GPa) = 35.87285 38.87928 37.37607
#
# Velocity S-wave (km/s) = 4.08475 4.25248 4.16946
# Velocity P-wave (km/s) = 7.13342 7.31988 7.22725
#
# Compressibility (1/GPa) = 0.01624096
#
# Stress axis : x y z
#
# Youngs Moduli (GPa) = 117.57205 72.27662 113.36415
#
# Poissons Ratio (x) = 0.16791 0.12057
# Poissons Ratio (y) = 0.27315 0.46183
# Poissons Ratio (z) = 0.12505 0.29444
#
# Static dielectric constant tensor:
#      x y z
#    x 3.933160 0.000000 0.000000 
#    y 0.000000 3.641400 0.000000 
#    z 0.000000 0.000000 4.313270 
# 
# 
# High freq. dielectric constant tensor:
#      x y z
#    x 1.848580 0.000000 0.000000 
#    y 0.000000 1.825600 0.000000 
#    z 0.000000 0.000000 1.873210 
# 
# From -- ./inp_files/10592.got.cif
#   From: 2010.03.12/outbox.cif.g09.slc.cpg/sg73_6_cif.got.tgz:10592.got - 2010.04.16 15:25:48.
