data_PCOD8296128
_publ_section_title
;
Structure prediction by ZEFSAII (Michael W. Deem and Ramdas Pophale) SiO2 
 PCOD8296128
Probable space group: I B C A 
;
_chemical_formula_sum "Si O2"
_cell_formula_units_Z 120
_cell_length_a 13.387940
_cell_length_b 15.141780
_cell_length_c 25.730308
_cell_angle_alpha 90.000000
_cell_angle_beta 90.000000
_cell_angle_gamma 90.000000
_cell_volume 5215.977077
_symmetry_space_group_name_H-M "I B C A "
_symmetry_group_IT_number 73
_symmetry_cell_setting 'orthorhombic'
loop_
_space_group_symop_operation_xyz
x,y,z
-x,1/2-y,z
x,-y,1/2-z
1/2-x,y,-z
-x,-y,-z
x,1/2+y,-z
-x,y,1/2+z
1/2+x,-y,z
1/2+x,1/2+y,1/2+z
1/2-x,-y,1/2+z
1/2+x,1/2-y,-z
-x,1/2+y,1/2-z
1/2-x,1/2-y,1/2-z
1/2+x,y,1/2-z
1/2-x,1/2+y,z
x,1/2-y,1/2+z
loop_
_atom_site_type_symbol
_atom_site_label
_atom_site_fract_x
_atom_site_fract_y
_atom_site_fract_z
Si Si1 0.843157 0.959207 0.304192
Si Si2 0.500000 0.750000 0.553560
Si Si3 0.835059 0.643214 0.383698
Si Si4 0.972742 0.654549 0.132287
Si Si5 0.560401 0.484134 0.805453
Si Si6 0.248488 0.682356 0.635819
Si Si7 0.846094 0.617705 0.964521
Si Si8 0.852730 0.441180 0.912166
O O1 0.769058 0.876126 0.313021
O O2 0.958580 0.927411 0.298685
O O3 0.806406 0.000000 0.250000
O O4 0.835195 0.024419 0.353469
O O5 0.569201 0.684820 0.588110
O O6 0.564071 0.817223 0.516581
O O7 0.866848 0.563627 0.345719
O O8 0.772111 0.715721 0.350583
O O9 0.753791 0.605651 0.425739
O O10 0.972946 0.581198 0.176462
O O11 0.860130 0.664333 0.110708
O O12 0.000000 0.750000 0.156411
O O13 0.051806 0.625355 0.087295
O O14 0.614040 0.500000 0.750000
O O15 0.328040 0.653605 0.593026
O O16 0.876115 0.515071 0.956256
O O17 0.750000 0.628617 0.000000
#
# Coordination Sequence:
#
# PCOD8296128 Si02
#       8
#    16   8  16  16  16  16  16  16
#     4   9  19  37  59  88 124 167 213 270 325 391
#     4  10  22  42  68  96 128 168 212 262 326 400
#     4  11  20  39  64  90 124 175 219 267 328 393
#     4  11  21  40  59  86 123 172 215 268 324 386
#     4  10  21  37  57  86 126 166 218 277 329 384
#     4  10  21  38  64  90 126 171 218 264 331 391
#     4  10  22  43  67 100 131 162 209 267 323 399
#     4  10  21  38  63  90 128 168 213 262 328 385
#
# _framework density 23.006236000000001
#
# number of rings (size 3 to 8) (size 9 to 14) (size 15 to 20)
#    0.000    1.867    1.333    4.800    0.000    2.133 
#    9.600    6.667    0.000    0.000    0.000    0.000 
#    0.000    0.000    0.000    0.000    0.000    0.000 
#
# Total GULP energy -743343.419579 kJ/mol
# GULP energy per Si atom -12389.056993 kJ/mol
# Density = 2.295387 g / cm^3
# Si number density = 23.006236 Si / 1000 Ang^3
#
#
#
# Elastic Constant Matrix: (Units=GPa)
#
#
# Indices 1 2 3 4 5 6 
#
# 1 165.8299 68.1622 17.8435 0.0000 0.0000 0.0000
# 2 68.1622 162.3329 30.3351 0.0000 0.0000 0.0000
# 3 17.8435 30.3351 38.9000 0.0000 0.0000 0.0000
# 4 0.0000 0.0000 0.0000 13.3543 0.0000 0.0000
# 5 0.0000 0.0000 0.0000 0.0000 16.0915 0.0000
# 6 0.0000 0.0000 0.0000 0.0000 0.0000 45.7922
#
#
#
# Elastic Compliance Matrix: (Units=1/GPa)
#
#
# Indices 1 2 3 4 5 6 
#
# 1 0.007330 -0.002867 -0.001126 0.000000 0.000000 0.000000
# 2 -0.002867 0.008333 -0.005183 0.000000 0.000000 0.000000
# 3 -0.001126 -0.005183 0.030265 0.000000 0.000000 0.000000
# 4 0.000000 0.000000 0.000000 0.074882 0.000000 0.000000
# 5 0.000000 0.000000 0.000000 0.000000 0.062145 0.000000
# 6 0.000000 0.000000 0.000000 0.000000 0.000000 0.021838
#
#
# Mechanical properties :
#
#
# Convention : Reuss Voigt Hill
#
# Bulk Modulus (GPa) = 36.26454 66.63828 51.45141
# Shear Modulus (GPa) = 21.52043 31.76239 26.64141
#
# Velocity S-wave (km/s) = 3.06178 3.71967 3.40664
# Velocity P-wave (km/s) = 5.31944 6.89029 6.15518
#
# Compressibility (1/GPa) = 0.02757515
#
# Stress axis : x y z
#
# Youngs Moduli (GPa) = 136.42464 120.00970 33.04128
#
# Poissons Ratio (x) = 0.34411 0.03721
# Poissons Ratio (y) = 0.39118 0.17124
# Poissons Ratio (z) = 0.15365 0.62198
#
# Static dielectric constant tensor:
#      x y z
#    x 4.568770 0.000000 0.000000 
#    y 0.000000 4.539760 0.000000 
#    z 0.000000 0.000000 3.517670 
# 
# 
# High freq. dielectric constant tensor:
#      x y z
#    x 1.937870 0.000000 0.000000 
#    y 0.000000 1.913950 0.000000 
#    z 0.000000 0.000000 1.854830 
# 
# From -- ./inp_files/34405.got.cif
#   From: 2010.03.12/outbox.cif.g09.slc.cpg/sg73_18_cif.got.tgz:34405.got - 2010.04.16 15:25:48.
