data_PCOD8296066
_publ_section_title
;
Structure prediction by ZEFSAII (Michael W. Deem and Ramdas Pophale) SiO2 
 PCOD8296066
Probable space group: I B C A 
;
_chemical_formula_sum "Si O2"
_cell_formula_units_Z 88
_cell_length_a 15.199206
_cell_length_b 23.545859
_cell_length_c 10.764740
_cell_angle_alpha 90.000000
_cell_angle_beta 90.000000
_cell_angle_gamma 90.000000
_cell_volume 3852.467512
_symmetry_space_group_name_H-M "I B C A "
_symmetry_group_IT_number 73
_symmetry_cell_setting 'orthorhombic'
loop_
_space_group_symop_operation_xyz
x,y,z
-x,1/2-y,z
x,-y,1/2-z
1/2-x,y,-z
-x,-y,-z
x,1/2+y,-z
-x,y,1/2+z
1/2+x,-y,z
1/2+x,1/2+y,1/2+z
1/2-x,-y,1/2+z
1/2+x,1/2-y,-z
-x,1/2+y,1/2-z
1/2-x,1/2-y,1/2-z
1/2+x,y,1/2-z
1/2-x,1/2+y,z
x,1/2-y,1/2+z
loop_
_atom_site_type_symbol
_atom_site_label
_atom_site_fract_x
_atom_site_fract_y
_atom_site_fract_z
Si Si1 0.303453 0.193007 0.743189
Si Si2 0.654431 0.371085 0.129741
Si Si3 0.250000 0.146971 0.500000
Si Si4 0.947873 0.192144 0.563936
Si Si5 0.083858 0.899045 0.876597
Si Si6 0.818334 0.996700 0.105501
O O1 0.250000 0.250000 0.750000
O O2 0.250662 0.144116 0.816963
O O3 0.311858 0.182014 0.595616
O O4 0.400760 0.198813 0.802267
O O5 0.579166 0.377479 0.234894
O O6 0.661430 0.432272 0.063655
O O7 0.626218 0.319701 0.039131
O O8 0.183949 0.112054 0.583338
O O9 0.000000 0.250000 0.534860
O O10 0.009009 0.135756 0.552755
O O11 0.087667 0.967605 0.895359
O O12 0.781705 0.000000 0.250000
O O13 0.750000 0.020115 0.000000
#
# Coordination Sequence:
#
# PCOD8296066 Si02
#       6
#    16  16   8  16  16  16
#     4  11  25  43  69  97 131 183 228 281 338 415
#     4  10  24  44  67  98 136 177 231 279 341 410
#     4  10  22  44  66  94 132 176 228 264 346 420
#     4  12  26  42  66 101 140 177 224 286 349 406
#     4  10  23  42  67  99 135 179 220 283 343 412
#     4  10  20  42  70  98 135 181 234 285 338 413
#
# _framework density 22.842503000000001
#
# number of rings (size 3 to 8) (size 9 to 14) (size 15 to 20)
#    0.000    1.455    0.909    3.818    7.636    1.455 
#    0.000    0.000    0.000    0.000    0.000    0.000 
#    0.000    0.000    0.000    0.000    0.000    0.000 
#
# Total GULP energy -545075.698641 kJ/mol
# GULP energy per Si atom -12388.084060 kJ/mol
# Density = 2.279051 g / cm^3
# Si number density = 22.842503 Si / 1000 Ang^3
#
#
#
# Elastic Constant Matrix: (Units=GPa)
#
#
# Indices 1 2 3 4 5 6 
#
# 1 72.6487 36.9670 29.2465 -0.0001 0.0001 0.0000
# 2 36.9670 137.7580 31.1539 0.0000 0.0002 0.0000
# 3 29.2465 31.1539 115.2650 -0.0001 0.0004 -0.0006
# 4 -0.0001 0.0000 -0.0001 30.2135 0.0001 -0.0001
# 5 0.0001 0.0002 0.0004 0.0001 29.9305 0.0001
# 6 0.0000 0.0000 -0.0006 -0.0001 0.0001 35.5454
#
#
#
# Elastic Compliance Matrix: (Units=1/GPa)
#
#
# Indices 1 2 3 4 5 6 
#
# 1 0.017036 -0.003828 -0.003288 0.000000 0.000000 0.000000
# 2 -0.003828 0.008592 -0.001351 0.000000 0.000000 0.000000
# 3 -0.003288 -0.001351 0.009875 0.000000 0.000000 0.000000
# 4 0.000000 0.000000 0.000000 0.033098 0.000000 0.000000
# 5 0.000000 0.000000 0.000000 0.000000 0.033411 0.000000
# 6 0.000000 0.000000 0.000000 0.000000 0.000000 0.028133
#
#
# Mechanical properties :
#
#
# Convention : Reuss Voigt Hill
#
# Bulk Modulus (GPa) = 53.85230 57.82295 55.83763
# Shear Modulus (GPa) = 32.62241 34.35816 33.49028
#
# Velocity S-wave (km/s) = 3.78318 3.88252 3.83317
# Velocity P-wave (km/s) = 6.53528 6.74295 6.63993
#
# Compressibility (1/GPa) = 0.01856931
#
# Stress axis : x y z
#
# Youngs Moduli (GPa) = 58.69762 116.38903 101.26512
#
# Poissons Ratio (x) = 0.44555 0.33296
# Poissons Ratio (y) = 0.22470 0.13680
# Poissons Ratio (z) = 0.19300 0.15723
#
# Static dielectric constant tensor:
#      x y z
#    x 3.655870 0.000000 0.000000 
#    y 0.000000 4.481190 0.000000 
#    z 0.000000 0.000000 4.217340 
# 
# 
# High freq. dielectric constant tensor:
#      x y z
#    x 1.868160 0.000000 0.000000 
#    y 0.000000 1.916550 0.000000 
#    z 0.000000 0.000000 1.909840 
# 
# From -- ./inp_files/10982.got.cif
#   From: 2010.03.12/outbox.cif.g09.slc.cpg/sg73_6_cif.got.tgz:10982.got - 2010.04.16 15:25:48.
