data_PCOD8296992
_publ_section_title
;
Structure prediction by ZEFSAII (Michael W. Deem and Ramdas Pophale) SiO2 
 PCOD8296992
Probable space group: I B C A 
;
_chemical_formula_sum "Si O2"
_cell_formula_units_Z 72
_cell_length_a 27.430038
_cell_length_b 12.593760
_cell_length_c 9.074421
_cell_angle_alpha 90.000000
_cell_angle_beta 90.000000
_cell_angle_gamma 90.000000
_cell_volume 3134.734373
_symmetry_space_group_name_H-M "I B C A "
_symmetry_group_IT_number 73
_symmetry_cell_setting 'orthorhombic'
loop_
_space_group_symop_operation_xyz
x,y,z
-x,1/2-y,z
x,-y,1/2-z
1/2-x,y,-z
-x,-y,-z
x,1/2+y,-z
-x,y,1/2+z
1/2+x,-y,z
1/2+x,1/2+y,1/2+z
1/2-x,-y,1/2+z
1/2+x,1/2-y,-z
-x,1/2+y,1/2-z
1/2-x,1/2-y,1/2-z
1/2+x,y,1/2-z
1/2-x,1/2+y,z
x,1/2-y,1/2+z
loop_
_atom_site_type_symbol
_atom_site_label
_atom_site_fract_x
_atom_site_fract_y
_atom_site_fract_z
Si Si1 0.250000 0.495574 0.000000
Si Si2 0.443023 0.190164 0.464770
Si Si3 0.789378 0.177226 0.326218
Si Si4 0.833281 0.661578 0.967831
Si Si5 0.972817 0.378846 0.224444
O O1 0.236981 0.566943 0.140019
O O2 0.202371 0.425797 0.959119
O O3 0.389758 0.143876 0.503728
O O4 0.471440 0.182734 0.619977
O O5 0.471932 0.120260 0.341743
O O6 0.441342 0.311399 0.398503
O O7 0.750000 0.250000 0.250000
O O8 0.813521 0.225418 0.472727
O O9 0.831871 0.157907 0.208666
O O10 0.954378 0.500000 0.250000
#
# Coordination Sequence:
#
# PCOD8296992 Si02
#       5
#     8  16  16  16  16
#     4  12  24  42  72  96 144 192 236 290 364 418
#     4  11  25  46  72 111 146 190 251 308 366 450
#     4  12  23  45  65  96 147 186 236 298 350 416
#     4  12  26  43  71 105 144 193 240 301 355 440
#     4  11  24  47  76 103 151 193 239 312 382 436
#
# _framework density 22.968453
#
# number of rings (size 3 to 8) (size 9 to 14) (size 15 to 20)
#    0.000    0.444    4.444    5.333    0.000    3.556 
#    4.000    0.000    0.000    0.000    0.000    0.000 
#    0.000    0.000    0.000    0.000    0.000    0.000 
#
# Total GULP energy -445985.478970 kJ/mol
# GULP energy per Si atom -12388.485527 kJ/mol
# Density = 2.291618 g / cm^3
# Si number density = 22.968453 Si / 1000 Ang^3
#
#
#
# Elastic Constant Matrix: (Units=GPa)
#
#
# Indices 1 2 3 4 5 6 
#
# 1 168.2907 45.5283 45.3479 0.0000 0.0000 0.0000
# 2 45.5283 131.3789 58.4238 0.0000 0.0000 0.0000
# 3 45.3479 58.4238 160.6511 0.0000 0.0000 0.0000
# 4 0.0000 0.0000 0.0000 46.1469 0.0000 0.0000
# 5 0.0000 0.0000 0.0000 0.0000 32.4657 0.0000
# 6 0.0000 0.0000 0.0000 0.0000 0.0000 18.3780
#
#
#
# Elastic Compliance Matrix: (Units=1/GPa)
#
#
# Indices 1 2 3 4 5 6 
#
# 1 0.006764 -0.001783 -0.001261 0.000000 0.000000 0.000000
# 2 -0.001783 0.009550 -0.002970 0.000000 0.000000 0.000000
# 3 -0.001261 -0.002970 0.007661 0.000000 0.000000 0.000000
# 4 0.000000 0.000000 0.000000 0.021670 0.000000 0.000000
# 5 0.000000 0.000000 0.000000 0.000000 0.030802 0.000000
# 6 0.000000 0.000000 0.000000 0.000000 0.000000 0.054413
#
#
# Mechanical properties :
#
#
# Convention : Reuss Voigt Hill
#
# Bulk Modulus (GPa) = 83.70171 84.32451 84.01311
# Shear Modulus (GPa) = 34.04371 40.13283 37.08827
#
# Velocity S-wave (km/s) = 3.85410 4.18461 4.02275
# Velocity P-wave (km/s) = 7.50511 7.75505 7.63110
#
# Compressibility (1/GPa) = 0.01194719
#
# Stress axis : x y z
#
# Youngs Moduli (GPa) = 147.83448 104.70963 130.53885
#
# Poissons Ratio (x) = 0.18674 0.16459
# Poissons Ratio (y) = 0.26365 0.38766
# Poissons Ratio (z) = 0.18639 0.31096
#
# Static dielectric constant tensor:
#      x y z
#    x 3.965490 0.000000 0.000000 
#    y 0.000000 4.380010 0.000000 
#    z 0.000000 0.000000 4.688650 
# 
# 
# High freq. dielectric constant tensor:
#      x y z
#    x 1.890400 0.000000 0.000000 
#    y 0.000000 1.903140 0.000000 
#    z 0.000000 0.000000 1.925250 
# 
# From -- ./inp_files/7625.got.cif
#   From: 2010.03.12/outbox.cif.g09.slc.cpg/sg73_4_cif.got.tgz:7625.got - 2010.04.16 15:25:48.
