data_PCOD8296792
_publ_section_title
;
Structure prediction by ZEFSAII (Michael W. Deem and Ramdas Pophale) SiO2 
 PCOD8296792
Probable space group: I B C A 
;
_chemical_formula_sum "Si O2"
_cell_formula_units_Z 88
_cell_length_a 21.246826
_cell_length_b 8.107879
_cell_length_c 19.921803
_cell_angle_alpha 90.000000
_cell_angle_beta 90.000000
_cell_angle_gamma 90.000000
_cell_volume 3431.863148
_symmetry_space_group_name_H-M "I B C A "
_symmetry_group_IT_number 73
_symmetry_cell_setting 'orthorhombic'
loop_
_space_group_symop_operation_xyz
x,y,z
-x,1/2-y,z
x,-y,1/2-z
1/2-x,y,-z
-x,-y,-z
x,1/2+y,-z
-x,y,1/2+z
1/2+x,-y,z
1/2+x,1/2+y,1/2+z
1/2-x,-y,1/2+z
1/2+x,1/2-y,-z
-x,1/2+y,1/2-z
1/2-x,1/2-y,1/2-z
1/2+x,y,1/2-z
1/2-x,1/2+y,z
x,1/2-y,1/2+z
loop_
_atom_site_type_symbol
_atom_site_label
_atom_site_fract_x
_atom_site_fract_y
_atom_site_fract_z
Si Si1 0.411062 0.270722 0.470514
Si Si2 0.536055 0.903558 0.652223
Si Si3 0.068595 0.110239 0.400315
Si Si4 0.210365 0.087309 0.563585
Si Si5 0.188147 0.225641 0.855252
Si Si6 0.354219 0.500000 0.750000
O O1 0.451390 0.150324 0.423692
O O2 0.440153 0.259100 0.545946
O O3 0.412670 0.456997 0.446585
O O4 0.338537 0.217497 0.466239
O O5 0.500000 0.750000 0.688642
O O6 0.600818 0.936332 0.690297
O O7 0.491903 0.068385 0.647109
O O8 0.127210 0.155938 0.353061
O O9 0.250000 0.029576 0.500000
O O10 0.249991 0.169824 0.625179
O O11 0.177908 0.921904 0.591189
O O12 0.190765 0.143478 0.780455
#
# Coordination Sequence:
#
# PCOD8296792 Si02
#       6
#    16  16  16  16  16   8
#     4  11  22  45  71 115 149 185 245 305 391 468
#     4  10  25  46  71 106 147 196 246 316 380 455
#     4  11  24  43  75 113 150 191 237 314 395 454
#     4  12  24  44  73 109 149 193 247 313 392 450
#     4  12  27  45  73 106 150 205 253 316 372 463
#     4  12  28  50  70 106 142 204 274 306 372 458
#
# _framework density 25.642049
#
# number of rings (size 3 to 8) (size 9 to 14) (size 15 to 20)
#    0.000    0.727    3.636    3.273    2.545    0.727 
#    0.000    0.000    0.000    0.000    0.000    0.000 
#    0.000    0.000    0.000    0.000    0.000    0.000 
#
# Total GULP energy -545519.068488 kJ/mol
# GULP energy per Si atom -12398.160647 kJ/mol
# Density = 2.558369 g / cm^3
# Si number density = 25.642049 Si / 1000 Ang^3
#
#
#
# Elastic Constant Matrix: (Units=GPa)
#
#
# Indices 1 2 3 4 5 6 
#
# 1 109.5297 24.4638 21.5283 0.0000 0.0000 0.0000
# 2 24.4638 97.3553 24.1065 0.0000 0.0000 0.0000
# 3 21.5283 24.1065 82.3963 0.0000 0.0000 0.0000
# 4 0.0000 0.0000 0.0000 27.7158 0.0000 0.0000
# 5 0.0000 0.0000 0.0000 0.0000 37.2182 0.0000
# 6 0.0000 0.0000 0.0000 0.0000 0.0000 43.1200
#
#
#
# Elastic Compliance Matrix: (Units=1/GPa)
#
#
# Indices 1 2 3 4 5 6 
#
# 1 0.009975 -0.002007 -0.002019 0.000000 0.000000 0.000000
# 2 -0.002007 0.011478 -0.002834 0.000000 0.000000 0.000000
# 3 -0.002019 -0.002834 0.013493 0.000000 0.000000 0.000000
# 4 0.000000 0.000000 0.000000 0.036080 0.000000 0.000000
# 5 0.000000 0.000000 0.000000 0.000000 0.026869 0.000000
# 6 0.000000 0.000000 0.000000 0.000000 0.000000 0.023191
#
#
# Mechanical properties :
#
#
# Convention : Reuss Voigt Hill
#
# Bulk Modulus (GPa) = 47.11044 47.71984 47.41514
# Shear Modulus (GPa) = 35.24100 36.22299 35.73199
#
# Velocity S-wave (km/s) = 3.71124 3.76259 3.73700
# Velocity P-wave (km/s) = 6.06437 6.12589 6.09521
#
# Compressibility (1/GPa) = 0.02122672
#
# Stress axis : x y z
#
# Youngs Moduli (GPa) = 100.25071 87.12676 74.11206
#
# Poissons Ratio (x) = 0.17483 0.14965
# Poissons Ratio (y) = 0.20116 0.21001
# Poissons Ratio (z) = 0.20243 0.24689
#
# Static dielectric constant tensor:
#      x y z
#    x 4.878470 0.000000 0.000000 
#    y 0.000000 5.456050 0.000000 
#    z 0.000000 0.000000 4.514900 
# 
# 
# High freq. dielectric constant tensor:
#      x y z
#    x 2.037590 0.000000 0.000000 
#    y 0.000000 2.034970 0.000000 
#    z 0.000000 0.000000 2.003060 
# 
# From -- ./inp_files/30053.got.cif
#   From: 2010.03.12/outbox.cif.g09.slc.cpg/sg73_16_cif.got.tgz:30053.got - 2010.04.16 15:25:48.
