data_PCOD8296002
_publ_section_title
;
Structure prediction by ZEFSAII (Michael W. Deem and Ramdas Pophale) SiO2 
 PCOD8296002
Probable space group: I B C A 
;
_chemical_formula_sum "Si O2"
_cell_formula_units_Z 120
_cell_length_a 16.394246
_cell_length_b 16.531915
_cell_length_c 22.420075
_cell_angle_alpha 90.000000
_cell_angle_beta 90.000000
_cell_angle_gamma 90.000000
_cell_volume 6076.474395
_symmetry_space_group_name_H-M "I B C A "
_symmetry_group_IT_number 73
_symmetry_cell_setting 'orthorhombic'
loop_
_space_group_symop_operation_xyz
x,y,z
-x,1/2-y,z
x,-y,1/2-z
1/2-x,y,-z
-x,-y,-z
x,1/2+y,-z
-x,y,1/2+z
1/2+x,-y,z
1/2+x,1/2+y,1/2+z
1/2-x,-y,1/2+z
1/2+x,1/2-y,-z
-x,1/2+y,1/2-z
1/2-x,1/2-y,1/2-z
1/2+x,y,1/2-z
1/2-x,1/2+y,z
x,1/2-y,1/2+z
loop_
_atom_site_type_symbol
_atom_site_label
_atom_site_fract_x
_atom_site_fract_y
_atom_site_fract_z
Si Si1 0.155036 0.891337 0.019049
Si Si2 0.467445 0.659868 0.577172
Si Si3 0.663730 0.376434 0.334440
Si Si4 0.197648 0.315593 0.284579
Si Si5 0.716798 0.023899 0.316295
Si Si6 0.197136 0.776934 0.107297
Si Si7 0.373627 0.057491 0.933419
Si Si8 0.750000 0.329077 0.000000
O O1 0.146448 0.855576 0.086516
O O2 0.123767 0.982774 0.020640
O O3 0.250000 0.886686 0.000000
O O4 0.098621 0.838524 0.975642
O O5 0.500000 0.750000 0.590057
O O6 0.423481 0.619867 0.634256
O O7 0.540219 0.600234 0.562465
O O8 0.640695 0.356202 0.265524
O O9 0.712338 0.461502 0.337142
O O10 0.715254 0.304675 0.366282
O O11 0.250000 0.250000 0.250000
O O12 0.251904 0.384668 0.314786
O O13 0.150532 0.271714 0.339619
O O14 0.646295 0.026043 0.366350
O O15 0.683342 0.000000 0.250000
O O16 0.200733 0.725881 0.046349
O O17 0.306477 0.118065 0.957748
#
# Coordination Sequence:
#
# PCOD8296002 Si02
#       8
#    16  16  16  16  16  16  16   8
#     4  12  22  41  64  90 132 172 215 264 325 396
#     4  12  26  42  62  94 134 171 217 275 335 386
#     4  10  20  40  62  89 126 167 212 273 322 384
#     4   9  20  33  63  97 122 156 220 274 316 372
#     4  10  20  40  67  96 126 168 224 266 318 392
#     4  11  18  34  61  93 122 162 216 261 312 376
#     4  12  24  40  63  96 129 169 218 263 326 395
#     4  12  22  34  64  96 126 170 214 264 318 404
#
# _framework density 19.748293
#
# number of rings (size 3 to 8) (size 9 to 14) (size 15 to 20)
#    0.000    1.067    5.333    2.000    1.867    0.000 
#    0.000    2.000    0.000    2.400    0.000    0.000 
#    0.000    0.000    0.000    0.000    0.000    0.000 
#
# Total GULP energy -743469.102822 kJ/mol
# GULP energy per Si atom -12391.151714 kJ/mol
# Density = 1.970334 g / cm^3
# Si number density = 19.748293 Si / 1000 Ang^3
#
#
#
# Elastic Constant Matrix: (Units=GPa)
#
#
# Indices 1 2 3 4 5 6 
#
# 1 83.2441 23.4370 34.7176 0.0000 0.0000 0.0000
# 2 23.4370 101.8684 35.1681 0.0000 0.0000 0.0000
# 3 34.7176 35.1681 121.1949 0.0000 0.0000 0.0000
# 4 0.0000 0.0000 0.0000 40.2603 0.0000 0.0000
# 5 0.0000 0.0000 0.0000 0.0000 19.4561 0.0000
# 6 0.0000 0.0000 0.0000 0.0000 0.0000 14.7040
#
#
#
# Elastic Compliance Matrix: (Units=1/GPa)
#
#
# Indices 1 2 3 4 5 6 
#
# 1 0.014015 -0.002043 -0.003422 0.000000 0.000000 0.000000
# 2 -0.002043 0.011207 -0.002667 0.000000 0.000000 0.000000
# 3 -0.003422 -0.002667 0.010005 0.000000 0.000000 0.000000
# 4 0.000000 0.000000 0.000000 0.024838 0.000000 0.000000
# 5 0.000000 0.000000 0.000000 0.000000 0.051398 0.000000
# 6 0.000000 0.000000 0.000000 0.000000 0.000000 0.068009
#
#
# Mechanical properties :
#
#
# Convention : Reuss Voigt Hill
#
# Bulk Modulus (GPa) = 52.73149 54.77253 53.75201
# Shear Modulus (GPa) = 24.74538 29.08305 26.91421
#
# Velocity S-wave (km/s) = 3.54367 3.84172 3.69570
# Velocity P-wave (km/s) = 6.59570 6.89014 6.74452
#
# Compressibility (1/GPa) = 0.01896400
#
# Stress axis : x y z
#
# Youngs Moduli (GPa) = 71.35087 89.22728 99.94716
#
# Poissons Ratio (x) = 0.18230 0.34201
# Poissons Ratio (y) = 0.14578 0.26654
# Poissons Ratio (z) = 0.24416 0.23796
#
# Static dielectric constant tensor:
#      x y z
#    x 3.171770 0.000000 0.000000 
#    y 0.000000 4.011040 0.000000 
#    z 0.000000 0.000000 4.412530 
# 
# 
# High freq. dielectric constant tensor:
#      x y z
#    x 1.709280 0.000000 0.000000 
#    y 0.000000 1.797040 0.000000 
#    z 0.000000 0.000000 1.793130 
# 
# From -- ./inp_files/29657.got.cif
#   From: 2010.03.12/outbox.cif.g09.slc.cpg/sg73_15_cif.got.tgz:29657.got - 2010.04.16 15:25:48.
