data_PCOD8296633
_publ_section_title
;
Structure prediction by ZEFSAII (Michael W. Deem and Ramdas Pophale) SiO2 
 PCOD8296633
Probable space group: I B C A 
;
_chemical_formula_sum "Si O2"
_cell_formula_units_Z 88
_cell_length_a 16.512994
_cell_length_b 13.902061
_cell_length_c 17.845401
_cell_angle_alpha 90.000000
_cell_angle_beta 90.000000
_cell_angle_gamma 90.000000
_cell_volume 4096.673233
_symmetry_space_group_name_H-M "I B C A "
_symmetry_group_IT_number 73
_symmetry_cell_setting 'orthorhombic'
loop_
_space_group_symop_operation_xyz
x,y,z
-x,1/2-y,z
x,-y,1/2-z
1/2-x,y,-z
-x,-y,-z
x,1/2+y,-z
-x,y,1/2+z
1/2+x,-y,z
1/2+x,1/2+y,1/2+z
1/2-x,-y,1/2+z
1/2+x,1/2-y,-z
-x,1/2+y,1/2-z
1/2-x,1/2-y,1/2-z
1/2+x,y,1/2-z
1/2-x,1/2+y,z
x,1/2-y,1/2+z
loop_
_atom_site_type_symbol
_atom_site_label
_atom_site_fract_x
_atom_site_fract_y
_atom_site_fract_z
Si Si1 0.918631 0.567979 0.317748
Si Si2 0.413011 0.788792 0.026019
Si Si3 0.551484 0.490540 0.427280
Si Si4 0.616846 0.688163 0.380433
Si Si5 0.784825 0.858077 0.920949
Si Si6 0.500000 0.250000 0.745346
O O1 0.890815 0.500000 0.250000
O O2 0.841105 0.568816 0.373778
O O3 0.995114 0.516675 0.354937
O O4 0.948203 0.674625 0.294026
O O5 0.500000 0.750000 0.055433
O O6 0.395662 0.895252 0.057513
O O7 0.339958 0.731650 0.060344
O O8 0.410152 0.776447 0.935124
O O9 0.500000 0.500000 0.500000
O O10 0.604264 0.585740 0.421271
O O11 0.713612 0.685167 0.367751
O O12 0.567223 0.694710 0.303984
O O13 0.750000 0.901797 0.000000
#
# Coordination Sequence:
#
# PCOD8296633 Si02
#       6
#    16  16  16  16  16   8
#     4  12  25  43  69 105 139 187 233 288 357 426
#     4  11  19  39  72  99 130 187 242 284 348 413
#     4  12  21  41  74 101 132 184 244 284 343 426
#     4  11  23  43  66 103 144 182 230 302 351 419
#     4  10  23  46  67 102 144 177 239 300 343 412
#     4  12  24  46  72  94 148 190 228 276 366 434
#
# _framework density 21.480844999999999
#
# number of rings (size 3 to 8) (size 9 to 14) (size 15 to 20)
#    0.000    0.727    6.364    2.182    0.000    0.727 
#    6.545    6.364    0.000    0.000    0.000    0.000 
#    0.000    0.000    0.000    0.000    0.000    0.000 
#
# Total GULP energy -545350.034615 kJ/mol
# GULP energy per Si atom -12394.318969 kJ/mol
# Density = 2.143195 g / cm^3
# Si number density = 21.480845 Si / 1000 Ang^3
#
#
#
# Elastic Constant Matrix: (Units=GPa)
#
#
# Indices 1 2 3 4 5 6 
#
# 1 114.9560 22.3075 37.1534 0.0000 0.0000 0.0000
# 2 22.3075 79.9718 36.3690 0.0000 0.0000 0.0000
# 3 37.1534 36.3690 98.0847 0.0000 0.0000 0.0000
# 4 0.0000 0.0000 0.0000 30.0258 0.0000 0.0000
# 5 0.0000 0.0000 0.0000 0.0000 41.8551 0.0000
# 6 0.0000 0.0000 0.0000 0.0000 0.0000 23.1108
#
#
#
# Elastic Compliance Matrix: (Units=1/GPa)
#
#
# Indices 1 2 3 4 5 6 
#
# 1 0.010021 -0.001286 -0.003319 0.000000 0.000000 0.000000
# 2 -0.001286 0.015206 -0.005151 0.000000 0.000000 0.000000
# 3 -0.003319 -0.005151 0.013362 0.000000 0.000000 0.000000
# 4 0.000000 0.000000 0.000000 0.033305 0.000000 0.000000
# 5 0.000000 0.000000 0.000000 0.000000 0.023892 0.000000
# 6 0.000000 0.000000 0.000000 0.000000 0.000000 0.043270
#
#
# Mechanical properties :
#
#
# Convention : Reuss Voigt Hill
#
# Bulk Modulus (GPa) = 52.41854 53.85251 53.13553
# Shear Modulus (GPa) = 30.31642 32.14383 31.23012
#
# Velocity S-wave (km/s) = 3.76083 3.87252 3.81709
# Velocity P-wave (km/s) = 6.58133 6.71712 6.64957
#
# Compressibility (1/GPa) = 0.01907722
#
# Stress axis : x y z
#
# Youngs Moduli (GPa) = 99.78795 65.76499 74.83635
#
# Poissons Ratio (x) = 0.08457 0.24839
# Poissons Ratio (y) = 0.12832 0.38549
# Poissons Ratio (z) = 0.33121 0.33876
#
# Static dielectric constant tensor:
#      x y z
#    x 3.913580 0.000000 0.000000 
#    y 0.000000 3.704560 0.000000 
#    z 0.000000 0.000000 4.042180 
# 
# 
# High freq. dielectric constant tensor:
#      x y z
#    x 1.846440 0.000000 0.000000 
#    y 0.000000 1.835240 0.000000 
#    z 0.000000 0.000000 1.843730 
# 
# From -- ./inp_files/22453.got.cif
#   From: 2010.03.12/outbox.cif.g09.slc.cpg/sg73_12_cif.got.tgz:22453.got - 2010.04.16 15:25:48.
