data_PCOD8296712
_publ_section_title
;
Structure prediction by ZEFSAII (Michael W. Deem and Ramdas Pophale) SiO2 
 PCOD8296712
Probable space group: I B C A 
;
_chemical_formula_sum "Si O2"
_cell_formula_units_Z 88
_cell_length_a 12.916557
_cell_length_b 21.951580
_cell_length_c 14.185964
_cell_angle_alpha 90.000000
_cell_angle_beta 90.000000
_cell_angle_gamma 90.000000
_cell_volume 4022.271696
_symmetry_space_group_name_H-M "I B C A "
_symmetry_group_IT_number 73
_symmetry_cell_setting 'orthorhombic'
loop_
_space_group_symop_operation_xyz
x,y,z
-x,1/2-y,z
x,-y,1/2-z
1/2-x,y,-z
-x,-y,-z
x,1/2+y,-z
-x,y,1/2+z
1/2+x,-y,z
1/2+x,1/2+y,1/2+z
1/2-x,-y,1/2+z
1/2+x,1/2-y,-z
-x,1/2+y,1/2-z
1/2-x,1/2-y,1/2-z
1/2+x,y,1/2-z
1/2-x,1/2+y,z
x,1/2-y,1/2+z
loop_
_atom_site_type_symbol
_atom_site_label
_atom_site_fract_x
_atom_site_fract_y
_atom_site_fract_z
Si Si1 0.000000 0.750000 0.563965
Si Si2 0.434562 0.523815 0.584280
Si Si3 0.840768 0.205574 0.278892
Si Si4 0.475441 0.663376 0.608512
Si Si5 0.072540 0.500000 0.750000
Si Si6 0.821912 0.111576 0.666013
Si Si7 0.750000 0.537890 0.500000
O O1 0.904073 0.730521 0.630624
O O2 0.967714 0.805059 0.494158
O O3 0.500000 0.500000 0.500000
O O4 0.432391 0.595855 0.597235
O O5 0.492221 0.488715 0.666935
O O6 0.315987 0.503209 0.572154
O O7 0.750000 0.250000 0.250000
O O8 0.910243 0.199301 0.186338
O O9 0.788332 0.140599 0.306398
O O10 0.591049 0.663675 0.653038
O O11 0.143971 0.439649 0.741798
O O12 0.822484 0.079804 0.563866
#
# Coordination Sequence:
#
# PCOD8296712 Si02
#       7
#     8  16  16  16   8  16   8
#     4  12  26  50  76  94 150 188 240 316 354 416
#     4  11  25  45  68 108 146 186 239 295 357 444
#     4  12  28  47  73 106 142 189 250 297 364 431
#     4  11  26  47  72 106 144 189 246 297 364 430
#     4  10  24  44  70 100 154 186 230 294 368 420
#     4  11  25  45  71 106 142 190 236 293 360 436
#     4  12  24  42  72 108 144 190 240 280 370 436
#
# _framework density 21.878184999999998
#
# number of rings (size 3 to 8) (size 9 to 14) (size 15 to 20)
#    0.000    0.727    3.636    3.818    7.636    5.091 
#    0.000    0.000    0.000    0.000    0.000    0.000 
#    0.000    0.000    0.000    0.000    0.000    0.000 
#
# Total GULP energy -545472.556387 kJ/mol
# GULP energy per Si atom -12397.103554 kJ/mol
# Density = 2.182839 g / cm^3
# Si number density = 21.878185 Si / 1000 Ang^3
#
#
#
# Elastic Constant Matrix: (Units=GPa)
#
#
# Indices 1 2 3 4 5 6 
#
# 1 135.5393 55.3710 69.0729 0.0000 0.0000 0.0000
# 2 55.3710 109.8505 58.8319 0.0002 0.0001 0.0002
# 3 69.0729 58.8319 168.3840 0.0000 0.0001 0.0003
# 4 0.0000 0.0002 0.0000 46.5978 0.0001 0.0000
# 5 0.0000 0.0001 0.0001 0.0001 49.1448 0.0000
# 6 0.0000 0.0002 0.0003 0.0000 0.0000 45.1699
#
#
#
# Elastic Compliance Matrix: (Units=1/GPa)
#
#
# Indices 1 2 3 4 5 6 
#
# 1 0.010387 -0.003634 -0.002991 0.000000 0.000000 0.000000
# 2 -0.003634 0.012470 -0.002866 0.000000 0.000000 0.000000
# 3 -0.002991 -0.002866 0.008167 0.000000 0.000000 0.000000
# 4 0.000000 0.000000 0.000000 0.021460 0.000000 0.000000
# 5 0.000000 0.000000 0.000000 0.000000 0.020348 0.000000
# 6 0.000000 0.000000 0.000000 0.000000 0.000000 0.022139
#
#
# Mechanical properties :
#
#
# Convention : Reuss Voigt Hill
#
# Bulk Modulus (GPa) = 83.04461 86.70284 84.87373
# Shear Modulus (GPa) = 42.38479 43.54904 42.96691
#
# Velocity S-wave (km/s) = 4.40626 4.46637 4.43642
# Velocity P-wave (km/s) = 7.99543 8.14333 8.06972
#
# Compressibility (1/GPa) = 0.01204172
#
# Stress axis : x y z
#
# Youngs Moduli (GPa) = 96.27726 80.19314 122.43926
#
# Poissons Ratio (x) = 0.29138 0.36624
# Poissons Ratio (y) = 0.34982 0.35096
# Poissons Ratio (z) = 0.28799 0.22986
#
# Static dielectric constant tensor:
#      x y z
#    x 2.471130 -0.000060 0.000000 
#    y -0.000060 9.367800 -0.000010 
#    z 0.000000 -0.000010 4.026270 
# 
# 
# High freq. dielectric constant tensor:
#      x y z
#    x 1.872500 0.000000 0.000000 
#    y 0.000000 1.869260 0.000000 
#    z 0.000000 0.000000 1.871970 
# 
# From -- ./inp_files/16164.got.cif
#   From: 2010.03.12/outbox.cif.g09.slc.cpg/sg73_9_cif.got.tgz:16164.got - 2010.04.16 15:25:48.
