data_PCOD8296468
_publ_section_title
;
Structure prediction by ZEFSAII (Michael W. Deem and Ramdas Pophale) SiO2 
 PCOD8296468
Probable space group: I B C A 
;
_chemical_formula_sum "Si O2"
_cell_formula_units_Z 104
_cell_length_a 8.613280
_cell_length_b 25.957566
_cell_length_c 19.825765
_cell_angle_alpha 90.000000
_cell_angle_beta 90.000000
_cell_angle_gamma 90.000000
_cell_volume 4432.640258
_symmetry_space_group_name_H-M "I B C A "
_symmetry_group_IT_number 73
_symmetry_cell_setting 'orthorhombic'
loop_
_space_group_symop_operation_xyz
x,y,z
-x,1/2-y,z
x,-y,1/2-z
1/2-x,y,-z
-x,-y,-z
x,1/2+y,-z
-x,y,1/2+z
1/2+x,-y,z
1/2+x,1/2+y,1/2+z
1/2-x,-y,1/2+z
1/2+x,1/2-y,-z
-x,1/2+y,1/2-z
1/2-x,1/2-y,1/2-z
1/2+x,y,1/2-z
1/2-x,1/2+y,z
x,1/2-y,1/2+z
loop_
_atom_site_type_symbol
_atom_site_label
_atom_site_fract_x
_atom_site_fract_y
_atom_site_fract_z
Si Si1 0.856318 0.621502 0.205962
Si Si2 0.014118 0.441685 0.083039
Si Si3 0.422084 0.446816 0.771489
Si Si4 0.850116 0.783110 0.800407
Si Si5 0.813080 0.761882 0.068852
Si Si6 0.250000 0.008287 0.000000
Si Si7 0.783936 0.649321 0.926248
O O1 0.684818 0.602589 0.221474
O O2 0.901213 0.665459 0.260401
O O3 0.855572 0.638494 0.127488
O O4 0.962240 0.571141 0.212554
O O5 0.984437 0.459316 0.159588
O O6 0.162516 0.472465 0.053734
O O7 0.054471 0.380261 0.089707
O O8 0.864182 0.452764 0.038611
O O9 0.338324 0.500000 0.750000
O O10 0.750000 0.750000 0.750000
O O11 0.740403 0.795326 0.865916
O O12 0.000000 0.750000 0.822033
O O13 0.704530 0.710749 0.072666
O O14 0.000000 0.750000 0.068594
O O15 0.750000 0.789480 0.000000
O O16 0.750000 0.627028 0.000000
#
# Coordination Sequence:
#
# PCOD8296468 Si02
#       7
#    16  16  16  16  16   8  16
#     4  11  25  42  69 102 135 184 232 282 355 416
#     4  10  23  42  67  99 135 186 237 292 355 419
#     4  11  26  43  66  98 139 178 233 294 346 415
#     4  12  24  43  72 101 143 183 237 292 349 434
#     4  11  25  47  73 102 140 184 230 293 365 423
#     4  10  22  42  70  96 134 190 240 292 356 424
#     4  10  22  43  71  94 141 181 227 288 351 419
#
# _framework density 23.462315
#
# number of rings (size 3 to 8) (size 9 to 14) (size 15 to 20)
#    0.000    1.231    2.308    2.308   10.769    0.000 
#    0.000    0.000    0.000    0.000    0.000    0.000 
#    0.000    0.000    0.000    0.000    0.000    0.000 
#
# Total GULP energy -644195.954859 kJ/mol
# GULP energy per Si atom -12388.383747 kJ/mol
# Density = 2.340891 g / cm^3
# Si number density = 23.462315 Si / 1000 Ang^3
#
#
#
# Elastic Constant Matrix: (Units=GPa)
#
#
# Indices 1 2 3 4 5 6 
#
# 1 86.9115 11.5386 19.2722 0.0001 0.0000 0.0000
# 2 11.5386 93.1800 17.8410 0.0001 0.0000 0.0000
# 3 19.2722 17.8410 145.0104 0.0003 -0.0001 0.0000
# 4 0.0001 0.0001 0.0003 25.0984 0.0000 0.0000
# 5 0.0000 0.0000 -0.0001 0.0000 34.1583 0.0000
# 6 0.0000 0.0000 0.0000 0.0000 0.0000 29.0109
#
#
#
# Elastic Compliance Matrix: (Units=1/GPa)
#
#
# Indices 1 2 3 4 5 6 
#
# 1 0.011987 -0.001208 -0.001444 0.000000 0.000000 0.000000
# 2 -0.001208 0.011113 -0.001207 0.000000 0.000000 0.000000
# 3 -0.001444 -0.001207 0.007236 0.000000 0.000000 0.000000
# 4 0.000000 0.000000 0.000000 0.039843 0.000000 0.000000
# 5 0.000000 0.000000 0.000000 0.000000 0.029275 0.000000
# 6 0.000000 0.000000 0.000000 0.000000 0.000000 0.034470
#
#
# Mechanical properties :
#
#
# Convention : Reuss Voigt Hill
#
# Bulk Modulus (GPa) = 44.21292 46.93395 45.57344
# Shear Modulus (GPa) = 33.51630 36.08352 34.79991
#
# Velocity S-wave (km/s) = 3.78367 3.92591 3.85545
# Velocity P-wave (km/s) = 6.16225 6.37163 6.26782
#
# Compressibility (1/GPa) = 0.02261782
#
# Stress axis : x y z
#
# Youngs Moduli (GPa) = 83.42652 89.98866 138.18854
#
# Poissons Ratio (x) = 0.10868 0.19961
# Poissons Ratio (y) = 0.10076 0.16675
# Poissons Ratio (z) = 0.12051 0.10859
#
# Static dielectric constant tensor:
#      x y z
#    x 3.723960 0.000000 0.000000 
#    y 0.000000 4.180230 0.000000 
#    z 0.000000 0.000000 4.933880 
# 
# 
# High freq. dielectric constant tensor:
#      x y z
#    x 1.910950 0.000000 0.000000 
#    y 0.000000 1.919120 0.000000 
#    z 0.000000 0.000000 1.950460 
# 
# From -- ./inp_files/24956.got.cif
#   From: 2010.03.12/outbox.cif.g09.slc.cpg/sg73_13_cif.got.tgz:24956.got - 2010.04.16 15:25:48.
