data_PCOD8296243
_publ_section_title
;
Structure prediction by ZEFSAII (Michael W. Deem and Ramdas Pophale) SiO2 
 PCOD8296243
Probable space group: I B C A 
;
_chemical_formula_sum "Si O2"
_cell_formula_units_Z 120
_cell_length_a 21.729932
_cell_length_b 17.685102
_cell_length_c 13.741779
_cell_angle_alpha 90.000000
_cell_angle_beta 90.000000
_cell_angle_gamma 90.000000
_cell_volume 5280.911580
_symmetry_space_group_name_H-M "I B C A "
_symmetry_group_IT_number 73
_symmetry_cell_setting 'orthorhombic'
loop_
_space_group_symop_operation_xyz
x,y,z
-x,1/2-y,z
x,-y,1/2-z
1/2-x,y,-z
-x,-y,-z
x,1/2+y,-z
-x,y,1/2+z
1/2+x,-y,z
1/2+x,1/2+y,1/2+z
1/2-x,-y,1/2+z
1/2+x,1/2-y,-z
-x,1/2+y,1/2-z
1/2-x,1/2-y,1/2-z
1/2+x,y,1/2-z
1/2-x,1/2+y,z
x,1/2-y,1/2+z
loop_
_atom_site_type_symbol
_atom_site_label
_atom_site_fract_x
_atom_site_fract_y
_atom_site_fract_z
Si Si1 0.692701 0.339378 0.290767
Si Si2 0.234654 0.810037 0.386682
Si Si3 0.562378 0.364891 0.367983
Si Si4 0.025857 0.005738 0.138003
Si Si5 0.500000 0.250000 0.224586
Si Si6 0.575268 0.846861 0.417865
Si Si7 0.710309 0.905733 0.410379
Si Si8 0.157527 0.453620 0.648547
O O1 0.701754 0.268260 0.362170
O O2 0.701974 0.318018 0.176614
O O3 0.627498 0.377852 0.313749
O O4 0.747433 0.398336 0.314612
O O5 0.250000 0.816468 0.500000
O O6 0.185675 0.871425 0.351057
O O7 0.532935 0.446141 0.399549
O O8 0.520776 0.318408 0.293248
O O9 0.570491 0.319958 0.469815
O O10 0.086911 0.054614 0.114973
O O11 0.012904 0.000000 0.250000
O O12 0.032272 0.921230 0.095436
O O13 0.554394 0.219602 0.155029
O O14 0.646841 0.860664 0.393782
O O15 0.750000 0.873444 0.500000
O O16 0.694502 0.993889 0.428284
O O17 0.158441 0.500000 0.750000
#
# Coordination Sequence:
#
# PCOD8296243 Si02
#       8
#    16  16  16  16   8  16  16  16
#     4  11  26  42  69 102 142 182 226 293 352 415
#     4  11  25  45  67 106 144 181 230 284 357 418
#     4  12  26  45  70 102 138 185 238 294 345 424
#     4  10  22  46  71  98 136 186 230 290 354 409
#     4  12  28  44  68 104 142 188 236 284 358 426
#     4  11  25  47  74 100 140 186 237 293 356 430
#     4  11  21  44  74  99 133 183 232 281 355 419
#     4  10  21  40  71  98 134 180 228 283 339 421
#
# _framework density 22.72335
#
# number of rings (size 3 to 8) (size 9 to 14) (size 15 to 20)
#    0.000    1.067    4.000    1.600    5.600    0.000 
#    4.800    0.000    0.000    0.000    0.000    0.000 
#    0.000    0.000    0.000    0.000    0.000    0.000 
#
# Total GULP energy -743652.095436 kJ/mol
# GULP energy per Si atom -12394.201591 kJ/mol
# Density = 2.267163 g / cm^3
# Si number density = 22.723350 Si / 1000 Ang^3
#
#
#
# Elastic Constant Matrix: (Units=GPa)
#
#
# Indices 1 2 3 4 5 6 
#
# 1 127.9909 36.3186 27.9129 0.0000 0.0000 0.0000
# 2 36.3186 60.0897 -1.7864 0.0000 0.0000 0.0000
# 3 27.9129 -1.7864 122.2508 0.0000 0.0000 0.0000
# 4 0.0000 0.0000 0.0000 19.7033 0.0000 0.0000
# 5 0.0000 0.0000 0.0000 0.0000 31.4483 0.0000
# 6 0.0000 0.0000 0.0000 0.0000 0.0000 33.0061
#
#
#
# Elastic Compliance Matrix: (Units=1/GPa)
#
#
# Indices 1 2 3 4 5 6 
#
# 1 0.010085 -0.006166 -0.002393 0.000000 0.000000 0.000000
# 2 -0.006166 0.020420 0.001706 0.000000 0.000000 0.000000
# 3 -0.002393 0.001706 0.008751 0.000000 0.000000 0.000000
# 4 0.000000 0.000000 0.000000 0.050753 0.000000 0.000000
# 5 0.000000 0.000000 0.000000 0.000000 0.031798 0.000000
# 6 0.000000 0.000000 0.000000 0.000000 0.000000 0.030297
#
#
# Mechanical properties :
#
#
# Convention : Reuss Voigt Hill
#
# Bulk Modulus (GPa) = 39.13918 48.35796 43.74857
# Shear Modulus (GPa) = 28.68192 33.35729 31.01960
#
# Velocity S-wave (km/s) = 3.55663 3.83557 3.69873
# Velocity P-wave (km/s) = 5.84190 6.39866 6.12661
#
# Compressibility (1/GPa) = 0.02554984
#
# Stress axis : x y z
#
# Youngs Moduli (GPa) = 99.16088 48.97278 114.27076
#
# Poissons Ratio (x) = 0.30198 0.27341
# Poissons Ratio (y) = 0.61146 -0.19498
# Poissons Ratio (z) = 0.23726 -0.08356
#
# Static dielectric constant tensor:
#      x y z
#    x 4.113820 0.000000 0.000000 
#    y 0.000000 4.086040 0.000000 
#    z 0.000000 0.000000 4.201120 
# 
# 
# High freq. dielectric constant tensor:
#      x y z
#    x 1.896060 0.000000 0.000000 
#    y 0.000000 1.884700 0.000000 
#    z 0.000000 0.000000 1.906580 
# 
# From -- ./inp_files/19522.got.cif
#   From: 2010.03.12/outbox.cif.g09.slc.cpg/sg73_10_cif.got.tgz:19522.got - 2010.04.16 15:25:48.
