data_PCOD8296999
_publ_section_title
;
Structure prediction by ZEFSAII (Michael W. Deem and Ramdas Pophale) SiO2 
 PCOD8296999
Probable space group: I B C A 
;
_chemical_formula_sum "Si O2"
_cell_formula_units_Z 80
_cell_length_a 16.759646
_cell_length_b 9.281051
_cell_length_c 24.852890
_cell_angle_alpha 90.000000
_cell_angle_beta 90.000000
_cell_angle_gamma 90.000000
_cell_volume 3865.795694
_symmetry_space_group_name_H-M "I B C A "
_symmetry_group_IT_number 73
_symmetry_cell_setting 'orthorhombic'
loop_
_space_group_symop_operation_xyz
x,y,z
-x,1/2-y,z
x,-y,1/2-z
1/2-x,y,-z
-x,-y,-z
x,1/2+y,-z
-x,y,1/2+z
1/2+x,-y,z
1/2+x,1/2+y,1/2+z
1/2-x,-y,1/2+z
1/2+x,1/2-y,-z
-x,1/2+y,1/2-z
1/2-x,1/2-y,1/2-z
1/2+x,y,1/2-z
1/2-x,1/2+y,z
x,1/2-y,1/2+z
loop_
_atom_site_type_symbol
_atom_site_label
_atom_site_fract_x
_atom_site_fract_y
_atom_site_fract_z
Si Si1 0.918434 0.824876 0.702078
Si Si2 0.682882 0.919021 0.084508
Si Si3 0.657182 0.744695 0.402974
Si Si4 0.922683 0.850713 0.819406
Si Si5 0.557167 0.864404 0.997668
O O1 0.865028 0.734654 0.660229
O O2 0.878312 0.824397 0.761746
O O3 0.000000 0.750000 0.714174
O O4 0.944322 0.980222 0.678888
O O5 0.773137 0.865784 0.082569
O O6 0.640935 0.830768 0.132931
O O7 0.639370 0.880355 0.029251
O O8 0.683663 0.091408 0.087264
O O9 0.580698 0.693873 0.438039
O O10 0.000000 0.750000 0.829635
O O11 0.500000 0.750000 0.026647
O O12 0.500000 0.000000 0.000000
#
# Coordination Sequence:
#
# PCOD8296999 Si02
#       5
#    16  16  16  16  16
#     4   9  19  37  64  90 125 163 211 261 311 372
#     4  11  25  41  61  91 129 162 207 258 316 376
#     4  11  25  41  61  92 128 166 204 260 317 374
#     4   9  19  38  62  93 122 164 212 260 310 373
#     4  12  25  43  67  92 121 163 212 262 313 376
#
# _framework density 20.694316000000001
#
# number of rings (size 3 to 8) (size 9 to 14) (size 15 to 20)
#    0.000    1.600    2.000    1.800    5.600    4.000 
#    0.000    0.000    0.000    0.000    0.000    0.000 
#    0.000    0.000    0.000    0.000    0.000    0.000 
#
# Total GULP energy -495617.107193 kJ/mol
# GULP energy per Si atom -12390.427680 kJ/mol
# Density = 2.064722 g / cm^3
# Si number density = 20.694316 Si / 1000 Ang^3
#
#
#
# Elastic Constant Matrix: (Units=GPa)
#
#
# Indices 1 2 3 4 5 6 
#
# 1 90.1613 41.1922 35.8692 0.0000 0.0000 0.0000
# 2 41.1922 94.5104 33.8325 0.0000 0.0000 0.0000
# 3 35.8692 33.8325 117.9887 0.0000 0.0000 0.0000
# 4 0.0000 0.0000 0.0000 29.0985 0.0000 0.0000
# 5 0.0000 0.0000 0.0000 0.0000 24.7252 0.0000
# 6 0.0000 0.0000 0.0000 0.0000 0.0000 44.9232
#
#
#
# Elastic Compliance Matrix: (Units=1/GPa)
#
#
# Indices 1 2 3 4 5 6 
#
# 1 0.014707 -0.005360 -0.002934 0.000000 0.000000 0.000000
# 2 -0.005360 0.013744 -0.002312 0.000000 0.000000 0.000000
# 3 -0.002934 -0.002312 0.010030 0.000000 0.000000 0.000000
# 4 0.000000 0.000000 0.000000 0.034366 0.000000 0.000000
# 5 0.000000 0.000000 0.000000 0.000000 0.040445 0.000000
# 6 0.000000 0.000000 0.000000 0.000000 0.000000 0.022260
#
#
# Mechanical properties :
#
#
# Convention : Reuss Voigt Hill
#
# Bulk Modulus (GPa) = 57.90194 58.27202 58.08698
# Shear Modulus (GPa) = 30.76522 32.53380 31.64951
#
# Velocity S-wave (km/s) = 3.85989 3.96929 3.91497
# Velocity P-wave (km/s) = 6.92137 7.01617 6.96893
#
# Compressibility (1/GPa) = 0.01727058
#
# Stress axis : x y z
#
# Youngs Moduli (GPa) = 67.99347 72.75673 99.69814
#
# Poissons Ratio (x) = 0.38996 0.29254
# Poissons Ratio (y) = 0.36443 0.23048
# Poissons Ratio (z) = 0.19951 0.16819
#
# Static dielectric constant tensor:
#      x y z
#    x 3.646000 0.000000 0.000000 
#    y 0.000000 3.814550 0.000000 
#    z 0.000000 0.000000 4.186120 
# 
# 
# High freq. dielectric constant tensor:
#      x y z
#    x 1.794280 0.000000 0.000000 
#    y 0.000000 1.815640 0.000000 
#    z 0.000000 0.000000 1.826580 
# 
# From -- ./inp_files/5591.got.cif
#   From: 2010.03.12/outbox.cif.g09.slc.cpg/sg73_3_cif.got.tgz:5591.got - 2010.04.16 15:25:48.
