data_PCOD8296553
_publ_section_title
;
Structure prediction by ZEFSAII (Michael W. Deem and Ramdas Pophale) SiO2 
 PCOD8296553
Probable space group: I B C A 
;
_chemical_formula_sum "Si O2"
_cell_formula_units_Z 80
_cell_length_a 13.492196
_cell_length_b 13.595088
_cell_length_c 22.243180
_cell_angle_alpha 90.000000
_cell_angle_beta 90.000000
_cell_angle_gamma 90.000000
_cell_volume 4080.012944
_symmetry_space_group_name_H-M "I B C A "
_symmetry_group_IT_number 73
_symmetry_cell_setting 'orthorhombic'
loop_
_space_group_symop_operation_xyz
x,y,z
-x,1/2-y,z
x,-y,1/2-z
1/2-x,y,-z
-x,-y,-z
x,1/2+y,-z
-x,y,1/2+z
1/2+x,-y,z
1/2+x,1/2+y,1/2+z
1/2-x,-y,1/2+z
1/2+x,1/2-y,-z
-x,1/2+y,1/2-z
1/2-x,1/2-y,1/2-z
1/2+x,y,1/2-z
1/2-x,1/2+y,z
x,1/2-y,1/2+z
loop_
_atom_site_type_symbol
_atom_site_label
_atom_site_fract_x
_atom_site_fract_y
_atom_site_fract_z
Si Si1 0.980733 0.143959 0.956102
Si Si2 0.596368 0.852591 0.322629
Si Si3 0.613724 0.860252 0.775240
Si Si4 0.346881 0.993156 0.035589
Si Si5 0.204305 0.954680 0.832480
O O1 0.000000 0.250000 0.986330
O O2 0.935456 0.163364 0.890944
O O3 0.084176 0.086374 0.951148
O O4 0.902522 0.087393 0.996423
O O5 0.501545 0.887455 0.284569
O O6 0.637962 0.750142 0.295900
O O7 0.680364 0.935000 0.318375
O O8 0.636775 0.877136 0.704675
O O9 0.683417 0.933488 0.813173
O O10 0.317379 0.940006 0.097451
O O11 0.250000 0.030421 0.000000
#
# Coordination Sequence:
#
# PCOD8296553 Si02
#       5
#    16  16  16  16  16
#     4  11  22  42  64  89 126 168 205 257 324 369
#     4  11  20  42  66  86 126 167 203 257 314 378
#     4  10  23  40  64  88 127 165 205 253 323 374
#     4  11  23  41  64  95 126 164 216 264 310 380
#     4  11  22  40  62  95 122 160 215 259 308 381
#
# _framework density 19.607780999999999
#
# number of rings (size 3 to 8) (size 9 to 14) (size 15 to 20)
#    0.000    1.200    6.000    0.600    0.000    4.000 
#    7.200    0.000    0.000    0.000    0.000    0.000 
#    0.000    0.000    0.000    0.000    0.000    0.000 
#
# Total GULP energy -496074.796002 kJ/mol
# GULP energy per Si atom -12401.869900 kJ/mol
# Density = 1.956315 g / cm^3
# Si number density = 19.607781 Si / 1000 Ang^3
#
#
#
# Elastic Constant Matrix: (Units=GPa)
#
#
# Indices 1 2 3 4 5 6 
#
# 1 135.0853 53.6914 38.9804 0.0000 0.0000 0.0000
# 2 53.6914 111.6712 26.9770 0.0000 0.0000 0.0000
# 3 38.9804 26.9770 124.5916 0.0000 0.0000 0.0000
# 4 0.0000 0.0000 0.0000 21.2948 0.0000 0.0000
# 5 0.0000 0.0000 0.0000 0.0000 24.4384 0.0000
# 6 0.0000 0.0000 0.0000 0.0000 0.0000 35.0067
#
#
#
# Elastic Compliance Matrix: (Units=1/GPa)
#
#
# Indices 1 2 3 4 5 6 
#
# 1 0.009658 -0.004130 -0.002127 0.000000 0.000000 0.000000
# 2 -0.004130 0.011215 -0.001136 0.000000 0.000000 0.000000
# 3 -0.002127 -0.001136 0.008938 0.000000 0.000000 0.000000
# 4 0.000000 0.000000 0.000000 0.046960 0.000000 0.000000
# 5 0.000000 0.000000 0.000000 0.000000 0.040919 0.000000
# 6 0.000000 0.000000 0.000000 0.000000 0.000000 0.028566
#
#
# Mechanical properties :
#
#
# Convention : Reuss Voigt Hill
#
# Bulk Modulus (GPa) = 66.56019 67.84951 67.20485
# Shear Modulus (GPa) = 30.11133 32.92794 31.51964
#
# Velocity S-wave (km/s) = 3.92303 4.10241 4.01372
# Velocity P-wave (km/s) = 7.38510 7.55766 7.47188
#
# Compressibility (1/GPa) = 0.01502399
#
# Stress axis : x y z
#
# Youngs Moduli (GPa) = 103.54105 89.16739 111.88352
#
# Poissons Ratio (x) = 0.36823 0.23803
# Poissons Ratio (y) = 0.42758 0.12713
# Poissons Ratio (z) = 0.22028 0.10132
#
# Static dielectric constant tensor:
#      x y z
#    x 3.791040 0.000000 0.000000 
#    y 0.000000 3.545770 0.000000 
#    z 0.000000 0.000000 3.717680 
# 
# 
# High freq. dielectric constant tensor:
#      x y z
#    x 1.774690 0.000000 0.000000 
#    y 0.000000 1.758800 0.000000 
#    z 0.000000 0.000000 1.770160 
# 
# From -- ./inp_files/10815.got.cif
#   From: 2010.03.12/outbox.cif.g09.slc.cpg/sg73_6_cif.got.tgz:10815.got - 2010.04.16 15:25:48.
