data_PCOD8296824
_publ_section_title
;
Structure prediction by ZEFSAII (Michael W. Deem and Ramdas Pophale) SiO2 
 PCOD8296824
Probable space group: I B C A 
;
_chemical_formula_sum "Si O2"
_cell_formula_units_Z 120
_cell_length_a 21.375528
_cell_length_b 9.124336
_cell_length_c 28.147850
_cell_angle_alpha 90.000000
_cell_angle_beta 90.000000
_cell_angle_gamma 90.000000
_cell_volume 5489.886285
_symmetry_space_group_name_H-M "I B C A "
_symmetry_group_IT_number 73
_symmetry_cell_setting 'orthorhombic'
loop_
_space_group_symop_operation_xyz
x,y,z
-x,1/2-y,z
x,-y,1/2-z
1/2-x,y,-z
-x,-y,-z
x,1/2+y,-z
-x,y,1/2+z
1/2+x,-y,z
1/2+x,1/2+y,1/2+z
1/2-x,-y,1/2+z
1/2+x,1/2-y,-z
-x,1/2+y,1/2-z
1/2-x,1/2-y,1/2-z
1/2+x,y,1/2-z
1/2-x,1/2+y,z
x,1/2-y,1/2+z
loop_
_atom_site_type_symbol
_atom_site_label
_atom_site_fract_x
_atom_site_fract_y
_atom_site_fract_z
Si Si1 0.710898 0.196931 0.045448
Si Si2 0.331366 0.282630 0.905363
Si Si3 0.730783 0.000000 0.250000
Si Si4 0.884571 0.446011 0.955664
Si Si5 0.604918 0.012656 0.440082
Si Si6 0.539964 0.895041 0.709030
Si Si7 0.172972 0.215310 0.704818
Si Si8 0.988368 0.591067 0.619546
O O1 0.759498 0.260959 0.083760
O O2 0.662722 0.319607 0.027795
O O3 0.670528 0.069443 0.070250
O O4 0.750000 0.137297 0.000000
O O5 0.343558 0.443581 0.924997
O O6 0.383194 0.182801 0.930428
O O7 0.341089 0.270815 0.850028
O O8 0.772861 0.095658 0.213933
O O9 0.688211 0.120251 0.276812
O O10 0.939619 0.383987 0.923126
O O11 0.913507 0.513037 0.004414
O O12 0.552265 0.964597 0.403421
O O13 0.500000 0.750000 0.703085
O O14 0.608922 0.847074 0.726941
O O15 0.511695 0.000000 0.750000
O O16 0.538740 0.980098 0.658662
O O17 0.000000 0.750000 0.643477
#
# Coordination Sequence:
#
# PCOD8296824 Si02
#       8
#    16  16   8  16  16  16  16  16
#     4  12  24  43  68  99 147 190 241 288 349 426
#     4  12  26  40  71 106 141 186 240 294 360 429
#     4  10  26  50  78 106 148 184 240 304 388 452
#     4  12  24  45  68  99 145 192 241 297 349 423
#     4  12  25  45  68 102 143 194 239 297 354 427
#     4  12  27  52  79 108 143 187 243 313 376 440
#     4  11  25  50  74 110 143 189 238 306 374 444
#     4  12  27  49  70 104 141 190 247 295 364 439
#
# _framework density 21.858374999999999
#
# number of rings (size 3 to 8) (size 9 to 14) (size 15 to 20)
#    0.000    0.267    6.000    2.400    4.667    0.000 
#    2.400    0.000    0.000    0.000    0.000    0.000 
#    0.000    0.000    0.000    0.000    0.000    0.000 
#
# Total GULP energy -744037.313424 kJ/mol
# GULP energy per Si atom -12400.621890 kJ/mol
# Density = 2.180862 g / cm^3
# Si number density = 21.858375 Si / 1000 Ang^3
#
#
#
# Elastic Constant Matrix: (Units=GPa)
#
#
# Indices 1 2 3 4 5 6 
#
# 1 105.1051 41.8673 20.6628 0.0000 0.0000 0.0000
# 2 41.8673 122.6006 34.4929 0.0000 0.0000 0.0000
# 3 20.6628 34.4929 98.7998 0.0000 0.0000 0.0000
# 4 0.0000 0.0000 0.0000 33.7776 0.0000 0.0000
# 5 0.0000 0.0000 0.0000 0.0000 31.5939 0.0000
# 6 0.0000 0.0000 0.0000 0.0000 0.0000 86.2454
#
#
#
# Elastic Compliance Matrix: (Units=1/GPa)
#
#
# Indices 1 2 3 4 5 6 
#
# 1 0.011121 -0.003486 -0.001109 0.000000 0.000000 0.000000
# 2 -0.003486 0.010138 -0.002810 0.000000 0.000000 0.000000
# 3 -0.001109 -0.002810 0.011334 0.000000 0.000000 0.000000
# 4 0.000000 0.000000 0.000000 0.029605 0.000000 0.000000
# 5 0.000000 0.000000 0.000000 0.000000 0.031652 0.000000
# 6 0.000000 0.000000 0.000000 0.000000 0.000000 0.011595
#
#
# Mechanical properties :
#
#
# Convention : Reuss Voigt Hill
#
# Bulk Modulus (GPa) = 56.23268 57.83906 57.03587
# Shear Modulus (GPa) = 39.62531 45.62222 42.62376
#
# Velocity S-wave (km/s) = 4.26234 4.57352 4.42067
# Velocity P-wave (km/s) = 7.07143 7.37615 7.22540
#
# Compressibility (1/GPa) = 0.01778325
#
# Stress axis : x y z
#
# Youngs Moduli (GPa) = 89.92188 98.64317 88.22634
#
# Poissons Ratio (x) = 0.34384 0.09783
# Poissons Ratio (y) = 0.31344 0.24794
# Poissons Ratio (z) = 0.09971 0.27721
#
# Static dielectric constant tensor:
#      x y z
#    x 4.123040 0.000000 0.000000 
#    y 0.000000 4.129050 0.000000 
#    z 0.000000 0.000000 3.861280 
# 
# 
# High freq. dielectric constant tensor:
#      x y z
#    x 1.864700 0.000000 0.000000 
#    y 0.000000 1.874060 0.000000 
#    z 0.000000 0.000000 1.854000 
# 
# From -- ./inp_files/32892.got.cif
#   From: 2010.03.12/outbox.cif.g09.slc.cpg/sg73_17_cif.got.tgz:32892.got - 2010.04.16 15:25:48.
