data_PCOD8296634
_publ_section_title
;
Structure prediction by ZEFSAII (Michael W. Deem and Ramdas Pophale) SiO2 
 PCOD8296634
Probable space group: I B C A 
;
_chemical_formula_sum "Si O2"
_cell_formula_units_Z 96
_cell_length_a 18.557968
_cell_length_b 13.997035
_cell_length_c 15.739911
_cell_angle_alpha 90.000000
_cell_angle_beta 90.000000
_cell_angle_gamma 90.000000
_cell_volume 4088.544626
_symmetry_space_group_name_H-M "I B C A "
_symmetry_group_IT_number 73
_symmetry_cell_setting 'orthorhombic'
loop_
_space_group_symop_operation_xyz
x,y,z
-x,1/2-y,z
x,-y,1/2-z
1/2-x,y,-z
-x,-y,-z
x,1/2+y,-z
-x,y,1/2+z
1/2+x,-y,z
1/2+x,1/2+y,1/2+z
1/2-x,-y,1/2+z
1/2+x,1/2-y,-z
-x,1/2+y,1/2-z
1/2-x,1/2-y,1/2-z
1/2+x,y,1/2-z
1/2-x,1/2+y,z
x,1/2-y,1/2+z
loop_
_atom_site_type_symbol
_atom_site_label
_atom_site_fract_x
_atom_site_fract_y
_atom_site_fract_z
Si Si1 0.443359 0.433989 0.451565
Si Si2 0.683740 0.094206 0.557307
Si Si3 0.876672 0.936138 0.678773
Si Si4 0.160162 0.069733 0.682062
Si Si5 0.732753 0.794182 0.399818
Si Si6 0.005258 0.858085 0.786194
O O1 0.500000 0.500000 0.500000
O O2 0.389289 0.369212 0.509301
O O3 0.387564 0.501848 0.404198
O O4 0.483125 0.365290 0.385079
O O5 0.750000 0.059613 0.500000
O O6 0.714884 0.181792 0.614640
O O7 0.654637 0.998269 0.600840
O O8 0.835096 0.845812 0.642567
O O9 0.953699 0.912532 0.720904
O O10 0.833816 0.000000 0.750000
O O11 0.200145 0.168401 0.656495
O O12 0.084863 0.099749 0.724413
O O13 0.200349 0.000000 0.750000
O O14 0.750000 0.811862 0.500000
O O15 0.000000 0.750000 0.757338
#
# Coordination Sequence:
#
# PCOD8296634 Si02
#       6
#    16  16  16  16  16  16
#     4  11  22  42  72  98 143 195 242 299 377 439
#     4  11  26  45  73 106 145 191 249 307 370 442
#     4  10  23  46  69 101 147 190 238 306 370 434
#     4  12  25  46  73 105 147 193 242 302 375 446
#     4  11  26  45  74 108 143 191 250 303 367 439
#     4  11  27  43  71 107 143 189 252 306 367 451
#
# _framework density 23.480236999999999
#
# number of rings (size 3 to 8) (size 9 to 14) (size 15 to 20)
#    0.000    1.000    1.667    4.500    7.000    2.000 
#    0.000    0.000    0.000    0.000    0.000    0.000 
#    0.000    0.000    0.000    0.000    0.000    0.000 
#
# Total GULP energy -594637.703032 kJ/mol
# GULP energy per Si atom -12388.285480 kJ/mol
# Density = 2.342679 g / cm^3
# Si number density = 23.480237 Si / 1000 Ang^3
#
#
#
# Elastic Constant Matrix: (Units=GPa)
#
#
# Indices 1 2 3 4 5 6 
#
# 1 131.9299 40.2162 27.7559 0.0000 0.0000 0.0000
# 2 40.2162 125.9501 16.2287 0.0000 0.0000 0.0000
# 3 27.7559 16.2287 60.5381 0.0000 0.0000 0.0000
# 4 0.0000 0.0000 0.0000 29.5159 0.0000 0.0000
# 5 0.0000 0.0000 0.0000 0.0000 26.5532 0.0000
# 6 0.0000 0.0000 0.0000 0.0000 0.0000 32.5903
#
#
#
# Elastic Compliance Matrix: (Units=1/GPa)
#
#
# Indices 1 2 3 4 5 6 
#
# 1 0.009060 -0.002442 -0.003499 0.000000 0.000000 0.000000
# 2 -0.002442 0.008882 -0.001261 0.000000 0.000000 0.000000
# 3 -0.003499 -0.001261 0.018461 0.000000 0.000000 0.000000
# 4 0.000000 0.000000 0.000000 0.033880 0.000000 0.000000
# 5 0.000000 0.000000 0.000000 0.000000 0.037660 0.000000
# 6 0.000000 0.000000 0.000000 0.000000 0.000000 0.030684
#
#
# Mechanical properties :
#
#
# Convention : Reuss Voigt Hill
#
# Bulk Modulus (GPa) = 45.45927 54.09110 49.77518
# Shear Modulus (GPa) = 31.17867 33.34637 32.26252
#
# Velocity S-wave (km/s) = 3.64795 3.77263 3.71081
# Velocity P-wave (km/s) = 6.09475 6.48566 6.29325
#
# Compressibility (1/GPa) = 0.02199771
#
# Stress axis : x y z
#
# Youngs Moduli (GPa) = 110.36989 112.58788 54.16793
#
# Poissons Ratio (x) = 0.27495 0.18956
# Poissons Ratio (y) = 0.26954 0.06832
# Poissons Ratio (z) = 0.38623 0.14201
#
# Static dielectric constant tensor:
#      x y z
#    x 4.227110 0.000000 0.000000 
#    y 0.000000 4.338320 0.000000 
#    z 0.000000 0.000000 4.397970 
# 
# 
# High freq. dielectric constant tensor:
#      x y z
#    x 1.937240 0.000000 0.000000 
#    y 0.000000 1.928570 0.000000 
#    z 0.000000 0.000000 1.934090 
# 
# From -- ./inp_files/18650.got.cif
#   From: 2010.03.12/outbox.cif.g09.slc.cpg/sg73_10_cif.got.tgz:18650.got - 2010.04.16 15:25:48.
