data_PCOD8296104
_publ_section_title
;
Structure prediction by ZEFSAII (Michael W. Deem and Ramdas Pophale) SiO2 
 PCOD8296104
Probable space group: I B C A 
;
_chemical_formula_sum "Si O2"
_cell_formula_units_Z 64
_cell_length_a 33.215563
_cell_length_b 5.177636
_cell_length_c 17.467355
_cell_angle_alpha 90.000000
_cell_angle_beta 90.000000
_cell_angle_gamma 90.000000
_cell_volume 3004.002433
_symmetry_space_group_name_H-M "I B C A "
_symmetry_group_IT_number 73
_symmetry_cell_setting 'orthorhombic'
loop_
_space_group_symop_operation_xyz
x,y,z
-x,1/2-y,z
x,-y,1/2-z
1/2-x,y,-z
-x,-y,-z
x,1/2+y,-z
-x,y,1/2+z
1/2+x,-y,z
1/2+x,1/2+y,1/2+z
1/2-x,-y,1/2+z
1/2+x,1/2-y,-z
-x,1/2+y,1/2-z
1/2-x,1/2-y,1/2-z
1/2+x,y,1/2-z
1/2-x,1/2+y,z
x,1/2-y,1/2+z
loop_
_atom_site_type_symbol
_atom_site_label
_atom_site_fract_x
_atom_site_fract_y
_atom_site_fract_z
Si Si1 0.314732 0.148968 0.546477
Si Si2 0.024886 0.497651 0.839621
Si Si3 0.408908 0.623171 0.454660
Si Si4 0.205355 0.747656 0.715796
O O1 0.301908 0.368013 0.484965
O O2 0.361887 0.131600 0.564385
O O3 0.292302 0.228726 0.624293
O O4 0.033396 0.500000 0.750000
O O5 0.068170 0.471222 0.879077
O O6 0.000000 0.250000 0.865824
O O7 0.000000 0.750000 0.865813
O O8 0.420620 0.412326 0.519480
O O9 0.181887 0.500000 0.750000
O O10 0.250000 0.750000 0.750000
O O11 0.182621 0.000000 0.750000
#
# Coordination Sequence:
#
# PCOD8296104 Si02
#       4
#    16  16  16  16
#     4  10  21  39  60  84 116 152 191 238 290 344
#     4  10  21  36  53  78 112 147 186 231 281 335
#     4  10  21  36  56  82 109 144 190 232 279 336
#     4  10  21  39  59  86 117 147 190 238 286 349
#
# _framework density 21.304911000000001
#
# number of rings (size 3 to 8) (size 9 to 14) (size 15 to 20)
#    0.000    2.000    0.000    3.000    0.000    4.000 
#    0.000   18.750    0.000    0.000    0.000    0.000 
#    0.000    0.000    0.000    0.000    0.000    0.000 
#
# Total GULP energy -396638.744926 kJ/mol
# GULP energy per Si atom -12394.960779 kJ/mol
# Density = 2.125642 g / cm^3
# Si number density = 21.304911 Si / 1000 Ang^3
#
#
#
# Elastic Constant Matrix: (Units=GPa)
#
#
# Indices 1 2 3 4 5 6 
#
# 1 53.0696 24.7467 47.6088 0.0000 0.0000 0.0000
# 2 24.7467 185.4946 45.1584 0.0000 0.0000 0.0000
# 3 47.6088 45.1584 118.9103 0.0000 0.0000 0.0000
# 4 0.0000 0.0000 0.0000 31.2496 0.0000 0.0000
# 5 0.0000 0.0000 0.0000 0.0000 31.9485 0.0000
# 6 0.0000 0.0000 0.0000 0.0000 0.0000 10.4942
#
#
#
# Elastic Compliance Matrix: (Units=1/GPa)
#
#
# Indices 1 2 3 4 5 6 
#
# 1 0.029635 -0.001174 -0.011419 0.000000 0.000000 0.000000
# 2 -0.001174 0.005987 -0.001804 0.000000 0.000000 0.000000
# 3 -0.011419 -0.001804 0.013667 0.000000 0.000000 0.000000
# 4 0.000000 0.000000 0.000000 0.032000 0.000000 0.000000
# 5 0.000000 0.000000 0.000000 0.000000 0.031300 0.000000
# 6 0.000000 0.000000 0.000000 0.000000 0.000000 0.095291
#
#
# Mechanical properties :
#
#
# Convention : Reuss Voigt Hill
#
# Bulk Modulus (GPa) = 48.79248 65.83357 57.31302
# Shear Modulus (GPa) = 20.53349 30.73583 25.63466
#
# Velocity S-wave (km/s) = 3.10787 3.80236 3.47252
# Velocity P-wave (km/s) = 5.98583 7.08837 6.56030
#
# Compressibility (1/GPa) = 0.02049496
#
# Stress axis : x y z
#
# Youngs Moduli (GPa) = 33.74422 167.03810 73.17054
#
# Poissons Ratio (x) = 0.19602 0.83556
# Poissons Ratio (y) = 0.03960 0.13198
# Poissons Ratio (z) = 0.38534 0.30129
#
# Static dielectric constant tensor:
#      x y z
#    x 3.546860 0.000000 0.000000 
#    y 0.000000 -0.244710 0.000000 
#    z 0.000000 0.000000 3.632620 
# 
# 
# High freq. dielectric constant tensor:
#      x y z
#    x 1.806370 0.000000 0.000000 
#    y 0.000000 1.869300 0.000000 
#    z 0.000000 0.000000 1.831360 
# 
# From -- ./inp_files/24048.got.cif
#   From: 2010.03.12/outbox.cif.g09.slc.cpg/sg73_13_cif.got.tgz:24048.got - 2010.04.16 15:25:48.
