data_PCOD8296285
_publ_section_title
;
Structure prediction by ZEFSAII (Michael W. Deem and Ramdas Pophale) SiO2 
 PCOD8296285
Probable space group: I B C A 
;
_chemical_formula_sum "Si O2"
_cell_formula_units_Z 96
_cell_length_a 20.730054
_cell_length_b 15.797227
_cell_length_c 13.733464
_cell_angle_alpha 90.000000
_cell_angle_beta 90.000000
_cell_angle_gamma 90.000000
_cell_volume 4497.398655
_symmetry_space_group_name_H-M "I B C A "
_symmetry_group_IT_number 73
_symmetry_cell_setting 'orthorhombic'
loop_
_space_group_symop_operation_xyz
x,y,z
-x,1/2-y,z
x,-y,1/2-z
1/2-x,y,-z
-x,-y,-z
x,1/2+y,-z
-x,y,1/2+z
1/2+x,-y,z
1/2+x,1/2+y,1/2+z
1/2-x,-y,1/2+z
1/2+x,1/2-y,-z
-x,1/2+y,1/2-z
1/2-x,1/2-y,1/2-z
1/2+x,y,1/2-z
1/2-x,1/2+y,z
x,1/2-y,1/2+z
loop_
_atom_site_type_symbol
_atom_site_label
_atom_site_fract_x
_atom_site_fract_y
_atom_site_fract_z
Si Si1 0.261990 0.637912 0.338374
Si Si2 0.175881 0.310761 0.322761
Si Si3 0.971397 0.092768 0.991204
Si Si4 0.372965 0.318551 0.880119
Si Si5 0.375219 0.980746 0.857940
Si Si6 0.607959 0.144994 0.489326
O O1 0.240172 0.645425 0.223713
O O2 0.307161 0.717881 0.363147
O O3 0.303010 0.638306 0.595121
O O4 0.301787 0.552618 0.355638
O O5 0.121795 0.304964 0.236790
O O6 0.149508 0.365606 0.412363
O O7 0.922663 0.092679 0.899521
O O8 0.032608 0.154485 0.979943
O O9 0.930517 0.120044 0.086326
O O10 0.000000 0.000000 0.000000
O O11 0.373834 0.228561 0.931860
O O12 0.400176 0.000000 0.750000
O O13 0.377698 0.064222 0.923174
#
# Coordination Sequence:
#
# PCOD8296285 Si02
#       6
#    16  16  16  16  16  16
#     4   9  21  45  65  97 135 165 219 282 353 401
#     4   9  21  42  69  96 130 171 229 273 336 418
#     4  10  24  43  61  96 131 176 229 263 341 407
#     4  10  21  43  66  94 130 173 223 290 330 407
#     4  11  24  44  63  99 138 171 217 289 348 405
#     4  11  23  41  70  97 126 180 231 269 339 425
#
# _framework density 21.345673000000001
#
# number of rings (size 3 to 8) (size 9 to 14) (size 15 to 20)
#    1.000    1.000    0.000    2.500    0.000    5.333 
#    9.000    5.833    0.000    0.000    0.000    0.000 
#    0.000    0.000    0.000    0.000    0.000    0.000 
#
# Total GULP energy -594867.132213 kJ/mol
# GULP energy per Si atom -12393.065254 kJ/mol
# Density = 2.129709 g / cm^3
# Si number density = 21.345673 Si / 1000 Ang^3
#
#
#
# Elastic Constant Matrix: (Units=GPa)
#
#
# Indices 1 2 3 4 5 6 
#
# 1 122.5554 54.0612 61.1568 0.0000 0.0000 0.0000
# 2 54.0612 80.7335 50.3900 0.0000 0.0000 0.0000
# 3 61.1568 50.3900 129.2870 0.0000 0.0000 0.0000
# 4 0.0000 0.0000 0.0000 32.6563 0.0000 0.0000
# 5 0.0000 0.0000 0.0000 0.0000 37.5341 0.0000
# 6 0.0000 0.0000 0.0000 0.0000 0.0000 44.8867
#
#
#
# Elastic Compliance Matrix: (Units=1/GPa)
#
#
# Indices 1 2 3 4 5 6 
#
# 1 0.012711 -0.006288 -0.003562 0.000000 0.000000 0.000000
# 2 -0.006288 0.019479 -0.004617 0.000000 0.000000 0.000000
# 3 -0.003562 -0.004617 0.011219 0.000000 0.000000 0.000000
# 4 0.000000 0.000000 0.000000 0.030622 0.000000 0.000000
# 5 0.000000 0.000000 0.000000 0.000000 0.026642 0.000000
# 6 0.000000 0.000000 0.000000 0.000000 0.000000 0.022278
#
#
# Mechanical properties :
#
#
# Convention : Reuss Voigt Hill
#
# Bulk Modulus (GPa) = 69.08885 73.75467 71.42176
# Shear Modulus (GPa) = 31.90564 34.14662 33.02613
#
# Velocity S-wave (km/s) = 3.87035 4.00396 3.93772
# Velocity P-wave (km/s) = 7.23945 7.48352 7.36250
#
# Compressibility (1/GPa) = 0.01447412
#
# Stress axis : x y z
#
# Youngs Moduli (GPa) = 78.67291 51.33635 89.13301
#
# Poissons Ratio (x) = 0.32283 0.31746
# Poissons Ratio (y) = 0.49473 0.41157
# Poissons Ratio (z) = 0.28021 0.23704
#
# Static dielectric constant tensor:
#      x y z
#    x 4.311300 0.000000 0.000000 
#    y 0.000000 3.660780 0.000000 
#    z 0.000000 0.000000 3.849470 
# 
# 
# High freq. dielectric constant tensor:
#      x y z
#    x 1.842630 0.000000 0.000000 
#    y 0.000000 1.827400 0.000000 
#    z 0.000000 0.000000 1.831960 
# 
# From -- ./inp_files/13652.got.cif
#   From: 2010.03.12/outbox.cif.g09.slc.cpg/sg73_7_cif.got.tgz:13652.got - 2010.04.16 15:25:48.
