data_PCOD8296527
_publ_section_title
;
Structure prediction by ZEFSAII (Michael W. Deem and Ramdas Pophale) SiO2 
 PCOD8296527
Probable space group: I B C A 
;
_chemical_formula_sum "Si O2"
_cell_formula_units_Z 72
_cell_length_a 15.087231
_cell_length_b 20.132249
_cell_length_c 9.807070
_cell_angle_alpha 90.000000
_cell_angle_beta 90.000000
_cell_angle_gamma 90.000000
_cell_volume 2978.798375
_symmetry_space_group_name_H-M "I B C A "
_symmetry_group_IT_number 73
_symmetry_cell_setting 'orthorhombic'
loop_
_space_group_symop_operation_xyz
x,y,z
-x,1/2-y,z
x,-y,1/2-z
1/2-x,y,-z
-x,-y,-z
x,1/2+y,-z
-x,y,1/2+z
1/2+x,-y,z
1/2+x,1/2+y,1/2+z
1/2-x,-y,1/2+z
1/2+x,1/2-y,-z
-x,1/2+y,1/2-z
1/2-x,1/2-y,1/2-z
1/2+x,y,1/2-z
1/2-x,1/2+y,z
x,1/2-y,1/2+z
loop_
_atom_site_type_symbol
_atom_site_label
_atom_site_fract_x
_atom_site_fract_y
_atom_site_fract_z
Si Si1 0.847052 0.326273 0.029553
Si Si2 0.397138 0.732961 0.753271
Si Si3 0.659284 0.387338 0.429808
Si Si4 0.614870 0.000000 0.750000
Si Si5 0.488052 0.073536 0.052072
O O1 0.874332 0.271587 0.914115
O O2 0.916841 0.385949 0.037080
O O3 0.750000 0.356099 0.000000
O O4 0.842524 0.290761 0.176936
O O5 0.500000 0.750000 0.733884
O O6 0.369820 0.663223 0.687064
O O7 0.750000 0.364544 0.500000
O O8 0.672778 0.462133 0.365204
O O9 0.582524 0.389010 0.547075
O O10 0.552374 0.937904 0.798005
O O11 0.500000 0.000000 0.000000
#
# Coordination Sequence:
#
# PCOD8296527 Si02
#       5
#    16  16  16   8  16
#     4  12  26  47  76 110 147 194 249 310 374 446
#     4  12  25  48  75 107 152 195 244 307 374 450
#     4  11  24  45  72 108 146 189 250 302 370 449
#     4  10  22  46  68 104 148 192 250 300 370 448
#     4  10  23  45  71 102 145 195 245 299 371 440
#
# _framework density 24.170819999999999
#
# number of rings (size 3 to 8) (size 9 to 14) (size 15 to 20)
#    0.000    0.889    4.444    2.000    0.000    4.444 
#    8.000    0.000    0.000    0.000    0.000    0.000 
#    0.000    0.000    0.000    0.000    0.000    0.000 
#
# Total GULP energy -446165.053014 kJ/mol
# GULP energy per Si atom -12393.473695 kJ/mol
# Density = 2.411581 g / cm^3
# Si number density = 24.170820 Si / 1000 Ang^3
#
#
#
# Elastic Constant Matrix: (Units=GPa)
#
#
# Indices 1 2 3 4 5 6 
#
# 1 149.2512 35.3828 5.7417 0.0000 0.0000 0.0000
# 2 35.3828 96.9964 21.4059 0.0000 0.0000 0.0000
# 3 5.7417 21.4059 67.6175 0.0000 0.0000 0.0000
# 4 0.0000 0.0000 0.0000 33.3790 0.0000 0.0000
# 5 0.0000 0.0000 0.0000 0.0000 27.2988 0.0000
# 6 0.0000 0.0000 0.0000 0.0000 0.0000 28.5687
#
#
#
# Elastic Compliance Matrix: (Units=1/GPa)
#
#
# Indices 1 2 3 4 5 6 
#
# 1 0.007338 -0.002730 0.000241 0.000000 0.000000 0.000000
# 2 -0.002730 0.012100 -0.003599 0.000000 0.000000 0.000000
# 3 0.000241 -0.003599 0.015908 0.000000 0.000000 0.000000
# 4 0.000000 0.000000 0.000000 0.029959 0.000000 0.000000
# 5 0.000000 0.000000 0.000000 0.000000 0.036632 0.000000
# 6 0.000000 0.000000 0.000000 0.000000 0.000000 0.035003
#
#
# Mechanical properties :
#
#
# Convention : Reuss Voigt Hill
#
# Bulk Modulus (GPa) = 43.15819 48.76952 45.96386
# Shear Modulus (GPa) = 31.88001 34.60494 33.24248
#
# Velocity S-wave (km/s) = 3.63567 3.78786 3.71255
# Velocity P-wave (km/s) = 5.95973 6.27307 6.11840
#
# Compressibility (1/GPa) = 0.02317057
#
# Stress axis : x y z
#
# Youngs Moduli (GPa) = 136.27620 82.64661 62.86210
#
# Poissons Ratio (x) = 0.22563 -0.01516
# Poissons Ratio (y) = 0.37204 0.22622
# Poissons Ratio (z) = -0.03286 0.29742
#
# Static dielectric constant tensor:
#      x y z
#    x 4.906730 0.000000 0.000000 
#    y 0.000000 4.402370 0.000000 
#    z 0.000000 0.000000 8.033270 
# 
# 
# High freq. dielectric constant tensor:
#      x y z
#    x 1.958120 0.000000 0.000000 
#    y 0.000000 1.970980 0.000000 
#    z 0.000000 0.000000 1.953480 
# 
# From -- ./inp_files/10629.got.cif
#   From: 2010.03.12/outbox.cif.g09.slc.cpg/sg73_6_cif.got.tgz:10629.got - 2010.04.16 15:25:48.
