data_PCOD8296625
_publ_section_title
;
Structure prediction by ZEFSAII (Michael W. Deem and Ramdas Pophale) SiO2 
 PCOD8296625
Probable space group: I B C A 
;
_chemical_formula_sum "Si O2"
_cell_formula_units_Z 96
_cell_length_a 16.153699
_cell_length_b 12.982076
_cell_length_c 20.488563
_cell_angle_alpha 90.000000
_cell_angle_beta 90.000000
_cell_angle_gamma 90.000000
_cell_volume 4296.626799
_symmetry_space_group_name_H-M "I B C A "
_symmetry_group_IT_number 73
_symmetry_cell_setting 'orthorhombic'
loop_
_space_group_symop_operation_xyz
x,y,z
-x,1/2-y,z
x,-y,1/2-z
1/2-x,y,-z
-x,-y,-z
x,1/2+y,-z
-x,y,1/2+z
1/2+x,-y,z
1/2+x,1/2+y,1/2+z
1/2-x,-y,1/2+z
1/2+x,1/2-y,-z
-x,1/2+y,1/2-z
1/2-x,1/2-y,1/2-z
1/2+x,y,1/2-z
1/2-x,1/2+y,z
x,1/2-y,1/2+z
loop_
_atom_site_type_symbol
_atom_site_label
_atom_site_fract_x
_atom_site_fract_y
_atom_site_fract_z
Si Si1 0.648942 0.808694 0.812190
Si Si2 0.258370 0.000000 0.250000
Si Si3 0.000000 0.750000 0.980066
Si Si4 0.250000 0.984009 0.000000
Si Si5 0.089475 0.418074 0.437773
Si Si6 0.260117 0.117210 0.634158
Si Si7 0.070124 0.121252 0.621004
Si Si8 0.500000 0.250000 0.772158
O O1 0.601776 0.859951 0.870846
O O2 0.715228 0.731944 0.845229
O O3 0.583122 0.740856 0.770761
O O4 0.689896 0.896816 0.768161
O O5 0.203336 0.966223 0.186808
O O6 0.925960 0.712644 0.932638
O O7 0.969268 0.846601 0.020345
O O8 0.216096 0.911575 0.059468
O O9 0.324666 0.055560 0.025162
O O10 0.037944 0.519884 0.417366
O O11 0.162384 0.102191 0.645338
O O12 0.009516 0.148783 0.681466
#
# Coordination Sequence:
#
# PCOD8296625 Si02
#       8
#    16   8   8   8  16  16  16   8
#     4  12  24  43  73 100 138 185 236 285 365 421
#     4  12  22  48  68  98 142 182 228 308 352 408
#     4  11  25  40  70 100 139 179 230 286 360 432
#     4  10  24  46  70 106 140 186 236 304 354 414
#     4  11  24  45  69 101 143 183 231 298 353 423
#     4  11  25  45  74 100 137 186 241 294 352 427
#     4  10  23  45  69  95 139 185 227 292 356 410
#     4  11  23  44  68 104 135 185 232 288 358 430
#
# _framework density 22.343108999999998
#
# number of rings (size 3 to 8) (size 9 to 14) (size 15 to 20)
#    0.000    1.000    5.000    1.500    7.000    0.000 
#    6.000    0.833    0.000    0.000    0.000    0.000 
#    0.000    0.000    0.000    0.000    0.000    0.000 
#
# Total GULP energy -594741.730448 kJ/mol
# GULP energy per Si atom -12390.452718 kJ/mol
# Density = 2.229226 g / cm^3
# Si number density = 22.343109 Si / 1000 Ang^3
#
#
#
# Elastic Constant Matrix: (Units=GPa)
#
#
# Indices 1 2 3 4 5 6 
#
# 1 39.2157 29.9546 26.1636 0.0000 0.0000 0.0000
# 2 29.9546 114.7494 59.4237 0.0000 0.0000 0.0000
# 3 26.1636 59.4237 165.7589 0.0000 0.0000 0.0000
# 4 0.0000 0.0000 0.0000 44.0159 0.0000 0.0000
# 5 0.0000 0.0000 0.0000 0.0000 35.1662 0.0000
# 6 0.0000 0.0000 0.0000 0.0000 0.0000 36.3914
#
#
#
# Elastic Compliance Matrix: (Units=1/GPa)
#
#
# Indices 1 2 3 4 5 6 
#
# 1 0.032727 -0.007206 -0.002582 0.000000 0.000000 0.000000
# 2 -0.007206 0.012288 -0.003268 0.000000 0.000000 0.000000
# 3 -0.002582 -0.003268 0.007612 0.000000 0.000000 0.000000
# 4 0.000000 0.000000 0.000000 0.022719 0.000000 0.000000
# 5 0.000000 0.000000 0.000000 0.000000 0.028436 0.000000
# 6 0.000000 0.000000 0.000000 0.000000 0.000000 0.027479
#
#
# Mechanical properties :
#
#
# Convention : Reuss Voigt Hill
#
# Bulk Modulus (GPa) = 37.71478 61.20086 49.45782
# Shear Modulus (GPa) = 30.08210 36.72682 33.40446
#
# Velocity S-wave (km/s) = 3.67327 4.05874 3.87081
# Velocity P-wave (km/s) = 5.90822 7.02960 6.49316
#
# Compressibility (1/GPa) = 0.02651480
#
# Stress axis : x y z
#
# Youngs Moduli (GPa) = 30.55581 81.38067 131.37235
#
# Poissons Ratio (x) = 0.58642 0.33926
# Poissons Ratio (y) = 0.22018 0.42930
# Poissons Ratio (z) = 0.07891 0.26593
#
# Static dielectric constant tensor:
#      x y z
#    x 3.602910 0.000000 0.000000 
#    y 0.000000 4.575040 0.000000 
#    z 0.000000 0.000000 4.739050 
# 
# 
# High freq. dielectric constant tensor:
#      x y z
#    x 1.837480 0.000000 0.000000 
#    y 0.000000 1.885860 0.000000 
#    z 0.000000 0.000000 1.921020 
# 
# From -- ./inp_files/26940.got.cif
#   From: 2010.03.12/outbox.cif.g09.slc.cpg/sg73_14_cif.got.tgz:26940.got - 2010.04.16 15:25:48.
