data_PCOD8296965
_publ_section_title
;
Structure prediction by ZEFSAII (Michael W. Deem and Ramdas Pophale) SiO2 
 PCOD8296965
Probable space group: I B C A 
;
_chemical_formula_sum "Si O2"
_cell_formula_units_Z 64
_cell_length_a 9.443957
_cell_length_b 12.821812
_cell_length_c 22.389659
_cell_angle_alpha 90.000000
_cell_angle_beta 90.000000
_cell_angle_gamma 90.000000
_cell_volume 2711.133385
_symmetry_space_group_name_H-M "I B C A "
_symmetry_group_IT_number 73
_symmetry_cell_setting 'orthorhombic'
loop_
_space_group_symop_operation_xyz
x,y,z
-x,1/2-y,z
x,-y,1/2-z
1/2-x,y,-z
-x,-y,-z
x,1/2+y,-z
-x,y,1/2+z
1/2+x,-y,z
1/2+x,1/2+y,1/2+z
1/2-x,-y,1/2+z
1/2+x,1/2-y,-z
-x,1/2+y,1/2-z
1/2-x,1/2-y,1/2-z
1/2+x,y,1/2-z
1/2-x,1/2+y,z
x,1/2-y,1/2+z
loop_
_atom_site_type_symbol
_atom_site_label
_atom_site_fract_x
_atom_site_fract_y
_atom_site_fract_z
Si Si1 0.992147 0.491566 0.098180
Si Si2 0.405199 0.151083 0.801734
Si Si3 0.416916 0.648561 0.811490
Si Si4 0.403105 0.152066 0.502963
O O1 0.893595 0.433259 0.145695
O O2 0.902081 0.565264 0.054718
O O3 0.099677 0.563710 0.136005
O O4 0.069865 0.403310 0.060088
O O5 0.500000 0.250000 0.822609
O O6 0.485510 0.105732 0.743209
O O7 0.240377 0.179091 0.788162
O O8 0.500000 0.750000 0.836750
O O9 0.500000 0.250000 0.517082
O O10 0.250000 0.203698 0.500000
#
# Coordination Sequence:
#
# PCOD8296965 Si02
#       4
#    16  16  16  16
#     4  11  25  42  68  96 127 169 218 266 316 379
#     4  11  24  42  66  97 133 171 212 262 318 379
#     4  11  24  42  66  97 133 171 212 262 318 379
#     4  11  26  46  67  95 129 167 215 269 324 380
#
# _framework density 23.606365
#
# number of rings (size 3 to 8) (size 9 to 14) (size 15 to 20)
#    0.000    1.000    0.000    6.750    0.000   20.000 
#    0.000    0.000    0.000    0.000    0.000    0.000 
#    0.000    0.000    0.000    0.000    0.000    0.000 
#
# Total GULP energy -396512.150906 kJ/mol
# GULP energy per Si atom -12391.004716 kJ/mol
# Density = 2.355264 g / cm^3
# Si number density = 23.606365 Si / 1000 Ang^3
#
#
#
# Elastic Constant Matrix: (Units=GPa)
#
#
# Indices 1 2 3 4 5 6 
#
# 1 165.5445 10.9261 0.2375 0.0000 0.0000 0.0000
# 2 10.9261 81.2798 29.1605 0.0000 0.0000 0.0000
# 3 0.2375 29.1605 98.0630 0.0000 0.0000 0.0000
# 4 0.0000 0.0000 0.0000 48.7537 0.0000 0.0000
# 5 0.0000 0.0000 0.0000 0.0000 13.3023 0.0000
# 6 0.0000 0.0000 0.0000 0.0000 0.0000 24.6066
#
#
#
# Elastic Compliance Matrix: (Units=1/GPa)
#
#
# Indices 1 2 3 4 5 6 
#
# 1 0.006100 -0.000912 0.000256 0.000000 0.000000 0.000000
# 2 -0.000912 0.013909 -0.004134 0.000000 0.000000 0.000000
# 3 0.000256 -0.004134 0.011426 0.000000 0.000000 0.000000
# 4 0.000000 0.000000 0.000000 0.020511 0.000000 0.000000
# 5 0.000000 0.000000 0.000000 0.000000 0.075175 0.000000
# 6 0.000000 0.000000 0.000000 0.000000 0.000000 0.040639
#
#
# Mechanical properties :
#
#
# Convention : Reuss Voigt Hill
#
# Bulk Modulus (GPa) = 45.75266 47.28175 46.51721
# Shear Modulus (GPa) = 27.08187 37.63675 32.35931
#
# Velocity S-wave (km/s) = 3.39075 3.99726 3.70643
# Velocity P-wave (km/s) = 5.89518 6.43248 6.16968
#
# Compressibility (1/GPa) = 0.02185665
#
# Stress axis : x y z
#
# Youngs Moduli (GPa) = 163.92100 71.89668 87.51855
#
# Poissons Ratio (x) = 0.06557 -0.02244
# Poissons Ratio (y) = 0.14951 0.36178
# Poissons Ratio (z) = -0.04204 0.29721
#
# Static dielectric constant tensor:
#      x y z
#    x 4.042450 0.000000 0.000000 
#    y 0.000000 4.280790 0.000000 
#    z 0.000000 0.000000 4.412500 
# 
# 
# High freq. dielectric constant tensor:
#      x y z
#    x 1.924780 0.000000 0.000000 
#    y 0.000000 1.944280 0.000000 
#    z 0.000000 0.000000 1.947480 
# 
# From -- ./inp_files/6844.got.cif
#   From: 2010.03.12/outbox.cif.g09.slc.cpg/sg73_4_cif.got.tgz:6844.got - 2010.04.16 15:25:48.
