data_PCOD8296466
_publ_section_title
;
Structure prediction by ZEFSAII (Michael W. Deem and Ramdas Pophale) SiO2 
 PCOD8296466
Probable space group: I B C A 
;
_chemical_formula_sum "Si O2"
_cell_formula_units_Z 72
_cell_length_a 12.653300
_cell_length_b 10.358199
_cell_length_c 25.261182
_cell_angle_alpha 90.000000
_cell_angle_beta 90.000000
_cell_angle_gamma 90.000000
_cell_volume 3310.866908
_symmetry_space_group_name_H-M "I B C A "
_symmetry_group_IT_number 73
_symmetry_cell_setting 'orthorhombic'
loop_
_space_group_symop_operation_xyz
x,y,z
-x,1/2-y,z
x,-y,1/2-z
1/2-x,y,-z
-x,-y,-z
x,1/2+y,-z
-x,y,1/2+z
1/2+x,-y,z
1/2+x,1/2+y,1/2+z
1/2-x,-y,1/2+z
1/2+x,1/2-y,-z
-x,1/2+y,1/2-z
1/2-x,1/2-y,1/2-z
1/2+x,y,1/2-z
1/2-x,1/2+y,z
x,1/2-y,1/2+z
loop_
_atom_site_type_symbol
_atom_site_label
_atom_site_fract_x
_atom_site_fract_y
_atom_site_fract_z
Si Si1 0.000000 0.750000 0.018987
Si Si2 0.647118 0.523824 0.307139
Si Si3 0.718455 0.290419 0.657814
Si Si4 0.390801 0.298832 0.417835
Si Si5 0.535052 0.565588 0.889859
O O1 0.995121 0.878237 0.054451
O O2 0.103006 0.737469 0.980484
O O3 0.591286 0.500000 0.250000
O O4 0.732334 0.408672 0.310084
O O5 0.710641 0.659757 0.307719
O O6 0.562461 0.516864 0.354288
O O7 0.787544 0.268303 0.605205
O O8 0.599106 0.323241 0.640653
O O9 0.500000 0.250000 0.389980
O O10 0.384853 0.450908 0.405075
#
# Coordination Sequence:
#
# PCOD8296466 Si02
#       5
#     8  16  16  16  16
#     4  10  22  42  70 102 134 190 234 286 358 432
#     4  12  26  46  70 100 136 186 235 299 354 411
#     4  12  24  46  71 103 140 181 240 292 348 432
#     4  10  23  42  69  99 139 186 221 289 356 423
#     4  12  23  46  68  99 147 175 239 295 349 430
#
# _framework density 21.746569000000001
#
# number of rings (size 3 to 8) (size 9 to 14) (size 15 to 20)
#    0.667    0.000    6.667    1.333    0.000    1.778 
#    8.000    2.222    0.000    0.000    0.000    0.000 
#    0.000    0.000    0.000    0.000    0.000    0.000 
#
# Total GULP energy -446264.450186 kJ/mol
# GULP energy per Si atom -12396.234727 kJ/mol
# Density = 2.169707 g / cm^3
# Si number density = 21.746569 Si / 1000 Ang^3
#
#
#
# Elastic Constant Matrix: (Units=GPa)
#
#
# Indices 1 2 3 4 5 6 
#
# 1 80.1800 25.5583 28.7524 0.0000 0.0000 0.0000
# 2 25.5583 135.5955 47.6428 0.0000 0.0000 0.0000
# 3 28.7524 47.6428 122.2155 0.0000 0.0000 0.0000
# 4 0.0000 0.0000 0.0000 24.1376 0.0000 0.0000
# 5 0.0000 0.0000 0.0000 0.0000 20.6429 0.0000
# 6 0.0000 0.0000 0.0000 0.0000 0.0000 36.7349
#
#
#
# Elastic Compliance Matrix: (Units=1/GPa)
#
#
# Indices 1 2 3 4 5 6 
#
# 1 0.013956 -0.001711 -0.002616 0.000000 0.000000 0.000000
# 2 -0.001711 0.008755 -0.003010 0.000000 0.000000 0.000000
# 3 -0.002616 -0.003010 0.009971 0.000000 0.000000 0.000000
# 4 0.000000 0.000000 0.000000 0.041429 0.000000 0.000000
# 5 0.000000 0.000000 0.000000 0.000000 0.048443 0.000000
# 6 0.000000 0.000000 0.000000 0.000000 0.000000 0.027222
#
#
# Mechanical properties :
#
#
# Convention : Reuss Voigt Hill
#
# Bulk Modulus (GPa) = 55.53564 60.21088 57.87326
# Shear Modulus (GPa) = 29.33351 32.03892 30.68621
#
# Velocity S-wave (km/s) = 3.67669 3.84251 3.76051
# Velocity P-wave (km/s) = 6.60433 6.88724 6.74727
#
# Compressibility (1/GPa) = 0.01800645
#
# Stress axis : x y z
#
# Youngs Moduli (GPa) = 71.65611 114.21822 100.28823
#
# Poissons Ratio (x) = 0.19546 0.26236
# Poissons Ratio (y) = 0.12262 0.30191
# Poissons Ratio (z) = 0.18746 0.34384
#
# Static dielectric constant tensor:
#      x y z
#    x 3.546780 0.000000 0.000000 
#    y 0.000000 4.227170 0.000000 
#    z 0.000000 0.000000 3.782960 
# 
# 
# High freq. dielectric constant tensor:
#      x y z
#    x 1.832760 0.000000 0.000000 
#    y 0.000000 1.878510 0.000000 
#    z 0.000000 0.000000 1.845910 
# 
# From -- ./inp_files/32029.got.cif
#   From: 2010.03.12/outbox.cif.g09.slc.cpg/sg73_17_cif.got.tgz:32029.got - 2010.04.16 15:25:48.
