data_PCOD8296691
_publ_section_title
;
Structure prediction by ZEFSAII (Michael W. Deem and Ramdas Pophale) SiO2 
 PCOD8296691
Probable space group: I B C A 
;
_chemical_formula_sum "Si O2"
_cell_formula_units_Z 104
_cell_length_a 24.743883
_cell_length_b 20.543956
_cell_length_c 8.715356
_cell_angle_alpha 90.000000
_cell_angle_beta 90.000000
_cell_angle_gamma 90.000000
_cell_volume 4430.340046
_symmetry_space_group_name_H-M "I B C A "
_symmetry_group_IT_number 73
_symmetry_cell_setting 'orthorhombic'
loop_
_space_group_symop_operation_xyz
x,y,z
-x,1/2-y,z
x,-y,1/2-z
1/2-x,y,-z
-x,-y,-z
x,1/2+y,-z
-x,y,1/2+z
1/2+x,-y,z
1/2+x,1/2+y,1/2+z
1/2-x,-y,1/2+z
1/2+x,1/2-y,-z
-x,1/2+y,1/2-z
1/2-x,1/2-y,1/2-z
1/2+x,y,1/2-z
1/2-x,1/2+y,z
x,1/2-y,1/2+z
loop_
_atom_site_type_symbol
_atom_site_label
_atom_site_fract_x
_atom_site_fract_y
_atom_site_fract_z
Si Si1 0.750000 0.414867 0.500000
Si Si2 0.629972 0.599505 0.404540
Si Si3 0.188636 0.784860 0.462752
Si Si4 0.930180 0.922705 0.782430
Si Si5 0.299159 0.500000 0.750000
Si Si6 0.000000 0.250000 0.991926
Si Si7 0.843793 0.667844 0.130975
Si Si8 0.538110 0.343090 0.259852
O O1 0.740571 0.454841 0.345380
O O2 0.802426 0.374013 0.465574
O O3 0.676096 0.651841 0.437169
O O4 0.589875 0.588860 0.546222
O O5 0.662226 0.534361 0.372254
O O6 0.594721 0.618916 0.254211
O O7 0.250000 0.762873 0.500000
O O8 0.181343 0.801423 0.284797
O O9 0.145906 0.728986 0.516840
O O10 0.895802 0.877573 0.664762
O O11 0.991097 0.897029 0.768769
O O12 0.927113 0.000000 0.750000
O O13 0.039005 0.294980 0.095200
O O14 0.036210 0.202506 0.890335
#
# Coordination Sequence:
#
# PCOD8296691 Si02
#       8
#     8  16  16  16   8   8  16  16
#     4  12  28  50  74 108 144 206 240 322 376 460
#     4  11  27  46  72 110 141 205 245 311 376 459
#     4  11  24  44  70 104 149 185 245 312 372 446
#     4  11  26  47  71 104 152 200 248 311 372 447
#     4  12  30  48  78 104 154 192 266 300 380 464
#     4  10  24  42  70 106 144 186 236 310 370 430
#     4  11  26  43  73 107 143 190 247 302 386 435
#     4  11  24  45  73 105 146 192 246 305 376 445
#
# _framework density 23.474495999999998
#
# number of rings (size 3 to 8) (size 9 to 14) (size 15 to 20)
#    0.000    0.923    2.308    2.308   14.000    3.077 
#    0.000    0.000    0.000    0.000    0.000    0.000 
#    0.000    0.000    0.000    0.000    0.000    0.000 
#
# Total GULP energy -644818.641510 kJ/mol
# GULP energy per Si atom -12400.358491 kJ/mol
# Density = 2.342107 g / cm^3
# Si number density = 23.474496 Si / 1000 Ang^3
#
#
#
# Elastic Constant Matrix: (Units=GPa)
#
#
# Indices 1 2 3 4 5 6 
#
# 1 57.0708 13.9071 5.7178 0.0000 0.0000 0.0000
# 2 13.9071 132.7225 30.1793 0.0000 0.0000 0.0000
# 3 5.7178 30.1793 79.0570 0.0000 0.0000 0.0000
# 4 0.0000 0.0000 0.0000 50.3819 0.0000 0.0000
# 5 0.0000 0.0000 0.0000 0.0000 27.6473 0.0000
# 6 0.0000 0.0000 0.0000 0.0000 0.0000 9.2349
#
#
#
# Elastic Compliance Matrix: (Units=1/GPa)
#
#
# Indices 1 2 3 4 5 6 
#
# 1 0.018011 -0.001742 -0.000638 0.000000 0.000000 0.000000
# 2 -0.001742 0.008419 -0.003088 0.000000 0.000000 0.000000
# 3 -0.000638 -0.003088 0.013874 0.000000 0.000000 0.000000
# 4 0.000000 0.000000 0.000000 0.019848 0.000000 0.000000
# 5 0.000000 0.000000 0.000000 0.000000 0.036170 0.000000
# 6 0.000000 0.000000 0.000000 0.000000 0.000000 0.108285
#
#
# Mechanical properties :
#
#
# Convention : Reuss Voigt Hill
#
# Bulk Modulus (GPa) = 34.05032 40.93987 37.49510
# Shear Modulus (GPa) = 22.18952 32.05590 27.12271
#
# Velocity S-wave (km/s) = 3.07784 3.69936 3.40282
# Velocity P-wave (km/s) = 5.21225 5.97704 5.60770
#
# Compressibility (1/GPa) = 0.02936830
#
# Stress axis : x y z
#
# Youngs Moduli (GPa) = 55.52310 118.77564 72.07724
#
# Poissons Ratio (x) = 0.20694 0.04595
# Poissons Ratio (y) = 0.09673 0.22257
# Poissons Ratio (z) = 0.03540 0.36677
#
# Static dielectric constant tensor:
#      x y z
#    x 17.627870 0.000000 0.000000 
#    y 0.000000 5.001360 0.000000 
#    z 0.000000 0.000000 4.334550 
# 
# 
# High freq. dielectric constant tensor:
#      x y z
#    x 1.926400 0.000000 0.000000 
#    y 0.000000 1.944980 0.000000 
#    z 0.000000 0.000000 1.940010 
# 
# From -- ./inp_files/7921.got.cif
#   From: 2010.03.12/outbox.cif.g09.slc.cpg/sg73_4_cif.got.tgz:7921.got - 2010.04.16 15:25:48.
