data_PCOD8296083
_publ_section_title
;
Structure prediction by ZEFSAII (Michael W. Deem and Ramdas Pophale) SiO2 
 PCOD8296083
Probable space group: I B C A 
;
_chemical_formula_sum "Si O2"
_cell_formula_units_Z 88
_cell_length_a 32.586887
_cell_length_b 11.826869
_cell_length_c 10.692461
_cell_angle_alpha 90.000000
_cell_angle_beta 90.000000
_cell_angle_gamma 90.000000
_cell_volume 4120.883490
_symmetry_space_group_name_H-M "I B C A "
_symmetry_group_IT_number 73
_symmetry_cell_setting 'orthorhombic'
loop_
_space_group_symop_operation_xyz
x,y,z
-x,1/2-y,z
x,-y,1/2-z
1/2-x,y,-z
-x,-y,-z
x,1/2+y,-z
-x,y,1/2+z
1/2+x,-y,z
1/2+x,1/2+y,1/2+z
1/2-x,-y,1/2+z
1/2+x,1/2-y,-z
-x,1/2+y,1/2-z
1/2-x,1/2-y,1/2-z
1/2+x,y,1/2-z
1/2-x,1/2+y,z
x,1/2-y,1/2+z
loop_
_atom_site_type_symbol
_atom_site_label
_atom_site_fract_x
_atom_site_fract_y
_atom_site_fract_z
Si Si1 0.343282 0.905737 0.840692
Si Si2 0.542543 0.690041 0.118316
Si Si3 0.208517 0.688521 0.212425
Si Si4 0.792213 0.973871 0.437409
Si Si5 0.566630 0.162216 0.155388
Si Si6 0.502235 0.500000 0.250000
O O1 0.326536 0.780886 0.810910
O O2 0.392137 0.908867 0.826762
O O3 0.323592 0.000000 0.750000
O O4 0.330995 0.949982 0.976105
O O5 0.500000 0.750000 0.095213
O O6 0.566634 0.740163 0.238838
O O7 0.532208 0.559889 0.150016
O O8 0.567512 0.706386 0.988603
O O9 0.250000 0.750000 0.250000
O O10 0.196262 0.602427 0.320128
O O11 0.212673 0.607999 0.090594
O O12 0.750000 0.929767 0.500000
O O13 0.526137 0.086576 0.173006
#
# Coordination Sequence:
#
# PCOD8296083 Si02
#       6
#    16  16  16  16  16   8
#     4  12  27  44  68 100 142 178 226 291 350 408
#     4  10  22  42  69  96 130 177 228 277 336 421
#     4  11  25  45  69  98 133 180 235 278 344 409
#     4  11  25  44  69  99 132 180 231 282 339 411
#     4  11  24  42  66 102 136 176 225 285 355 405
#     4  10  20  44  68  98 132 176 234 280 344 420
#
# _framework density 21.354644
#
# number of rings (size 3 to 8) (size 9 to 14) (size 15 to 20)
#    0.000    1.091    2.727    3.273    7.636    1.455 
#    3.273    0.000    0.000    0.000    0.000    0.000 
#    0.000    0.000    0.000    0.000    0.000    0.000 
#
# Total GULP energy -545490.524005 kJ/mol
# GULP energy per Si atom -12397.511909 kJ/mol
# Density = 2.130604 g / cm^3
# Si number density = 21.354644 Si / 1000 Ang^3
#
#
#
# Elastic Constant Matrix: (Units=GPa)
#
#
# Indices 1 2 3 4 5 6 
#
# 1 72.2196 25.5255 35.3912 0.0000 0.0000 0.0000
# 2 25.5255 127.9607 64.3748 0.0000 0.0000 0.0000
# 3 35.3912 64.3748 143.1486 0.0000 0.0000 0.0000
# 4 0.0000 0.0000 0.0000 40.1663 0.0000 0.0000
# 5 0.0000 0.0000 0.0000 0.0000 24.5265 0.0000
# 6 0.0000 0.0000 0.0000 0.0000 0.0000 24.9518
#
#
#
# Elastic Compliance Matrix: (Units=1/GPa)
#
#
# Indices 1 2 3 4 5 6 
#
# 1 0.015991 -0.001552 -0.003255 0.000000 0.000000 0.000000
# 2 -0.001552 0.010251 -0.004226 0.000000 0.000000 0.000000
# 3 -0.003255 -0.004226 0.009691 0.000000 0.000000 0.000000
# 4 0.000000 0.000000 0.000000 0.024896 0.000000 0.000000
# 5 0.000000 0.000000 0.000000 0.000000 0.040772 0.000000
# 6 0.000000 0.000000 0.000000 0.000000 0.000000 0.040077
#
#
# Mechanical properties :
#
#
# Convention : Reuss Voigt Hill
#
# Bulk Modulus (GPa) = 55.97483 65.99020 60.98252
# Shear Modulus (GPa) = 30.17502 32.46478 31.31990
#
# Velocity S-wave (km/s) = 3.76312 3.90329 3.83385
# Velocity P-wave (km/s) = 6.71940 7.16124 6.94384
#
# Compressibility (1/GPa) = 0.01786517
#
# Stress axis : x y z
#
# Youngs Moduli (GPa) = 62.53698 97.55599 103.18784
#
# Poissons Ratio (x) = 0.15141 0.33592
# Poissons Ratio (y) = 0.09706 0.43607
# Poissons Ratio (z) = 0.20359 0.41227
#
# Static dielectric constant tensor:
#      x y z
#    x 3.589140 0.000000 0.000000 
#    y 0.000000 4.282220 0.000000 
#    z 0.000000 0.000000 3.998060 
# 
# 
# High freq. dielectric constant tensor:
#      x y z
#    x 1.821160 0.000000 0.000000 
#    y 0.000000 1.845830 0.000000 
#    z 0.000000 0.000000 1.850800 
# 
# From -- ./inp_files/14672.got.cif
#   From: 2010.03.12/outbox.cif.g09.slc.cpg/sg73_8_cif.got.tgz:14672.got - 2010.04.16 15:25:48.
