data_PCOD8296175
_publ_section_title
;
Structure prediction by ZEFSAII (Michael W. Deem and Ramdas Pophale) SiO2 
 PCOD8296175
Probable space group: I B C A 
;
_chemical_formula_sum "Si O2"
_cell_formula_units_Z 80
_cell_length_a 17.501036
_cell_length_b 24.434924
_cell_length_c 9.605375
_cell_angle_alpha 90.000000
_cell_angle_beta 90.000000
_cell_angle_gamma 90.000000
_cell_volume 4107.608798
_symmetry_space_group_name_H-M "I B C A "
_symmetry_group_IT_number 73
_symmetry_cell_setting 'orthorhombic'
loop_
_space_group_symop_operation_xyz
x,y,z
-x,1/2-y,z
x,-y,1/2-z
1/2-x,y,-z
-x,-y,-z
x,1/2+y,-z
-x,y,1/2+z
1/2+x,-y,z
1/2+x,1/2+y,1/2+z
1/2-x,-y,1/2+z
1/2+x,1/2-y,-z
-x,1/2+y,1/2-z
1/2-x,1/2-y,1/2-z
1/2+x,y,1/2-z
1/2-x,1/2+y,z
x,1/2-y,1/2+z
loop_
_atom_site_type_symbol
_atom_site_label
_atom_site_fract_x
_atom_site_fract_y
_atom_site_fract_z
Si Si1 0.413995 0.413840 0.026659
Si Si2 0.579489 0.774521 0.202697
Si Si3 0.445950 0.896197 0.661727
Si Si4 0.338754 0.699530 0.481614
Si Si5 0.820711 0.517875 0.403843
O O1 0.456253 0.405175 0.173629
O O2 0.366522 0.469391 0.021986
O O3 0.477696 0.418719 0.908468
O O4 0.356005 0.364378 0.995708
O O5 0.500000 0.750000 0.260103
O O6 0.565341 0.832427 0.126441
O O7 0.638232 0.781240 0.328320
O O8 0.613692 0.733221 0.092469
O O9 0.372778 0.928485 0.605296
O O10 0.250000 0.711035 0.500000
O O11 0.793004 0.500000 0.250000
O O12 0.750000 0.534162 0.500000
#
# Coordination Sequence:
#
# PCOD8296175 Si02
#       5
#    16  16  16  16  16
#     4  10  21  39  60  86 120 154 202 247 304 362
#     4  11  22  39  61  87 121 162 206 250 299 364
#     4  10  22  37  61  88 115 157 205 249 295 365
#     4  11  23  38  60  89 122 160 202 255 308 356
#     4  10  22  40  60  87 122 155 195 251 307 362
#
# _framework density 19.476050999999998
#
# number of rings (size 3 to 8) (size 9 to 14) (size 15 to 20)
#    0.000    1.600    2.000    2.400    2.800    2.400 
#    0.000    2.000    0.000    0.000    0.000    0.000 
#    0.000    0.000    0.000    0.000    0.000    0.000 
#
# Total GULP energy -496248.894611 kJ/mol
# GULP energy per Si atom -12406.222365 kJ/mol
# Density = 1.943172 g / cm^3
# Si number density = 19.476051 Si / 1000 Ang^3
#
#
#
# Elastic Constant Matrix: (Units=GPa)
#
#
# Indices 1 2 3 4 5 6 
#
# 1 84.3120 36.2688 22.6668 0.0000 0.0000 0.0000
# 2 36.2688 118.8241 24.7463 0.0000 0.0000 0.0000
# 3 22.6668 24.7463 41.7584 0.0000 0.0000 0.0000
# 4 0.0000 0.0000 0.0000 32.8976 0.0000 0.0000
# 5 0.0000 0.0000 0.0000 0.0000 38.6984 0.0000
# 6 0.0000 0.0000 0.0000 0.0000 0.0000 21.6778
#
#
#
# Elastic Compliance Matrix: (Units=1/GPa)
#
#
# Indices 1 2 3 4 5 6 
#
# 1 0.014925 -0.003272 -0.006162 0.000000 0.000000 0.000000
# 2 -0.003272 0.010318 -0.004338 0.000000 0.000000 0.000000
# 3 -0.006162 -0.004338 0.029863 0.000000 0.000000 0.000000
# 4 0.000000 0.000000 0.000000 0.030397 0.000000 0.000000
# 5 0.000000 0.000000 0.000000 0.000000 0.025841 0.000000
# 6 0.000000 0.000000 0.000000 0.000000 0.000000 0.046130
#
#
# Mechanical properties :
#
#
# Convention : Reuss Voigt Hill
#
# Bulk Modulus (GPa) = 36.28379 45.80649 41.04514
# Shear Modulus (GPa) = 25.74568 29.40227 27.57397
#
# Velocity S-wave (km/s) = 3.63976 3.88965 3.76678
# Velocity P-wave (km/s) = 6.02778 6.61385 6.32761
#
# Compressibility (1/GPa) = 0.02756052
#
# Stress axis : x y z
#
# Youngs Moduli (GPa) = 67.00148 96.91699 33.48600
#
# Poissons Ratio (x) = 0.31713 0.20635
# Poissons Ratio (y) = 0.21924 0.14528
# Poissons Ratio (z) = 0.41288 0.42046
#
# Static dielectric constant tensor:
#      x y z
#    x 3.480800 0.000000 0.000000 
#    y 0.000000 3.761810 0.000000 
#    z 0.000000 0.000000 3.537470 
# 
# 
# High freq. dielectric constant tensor:
#      x y z
#    x 1.758910 0.000000 0.000000 
#    y 0.000000 1.774350 0.000000 
#    z 0.000000 0.000000 1.759870 
# 
# From -- ./inp_files/5559.got.cif
#   From: 2010.03.12/outbox.cif.g09.slc.cpg/sg73_3_cif.got.tgz:5559.got - 2010.04.16 15:25:48.
