data_PCOD8296587
_publ_section_title
;
Structure prediction by ZEFSAII (Michael W. Deem and Ramdas Pophale) SiO2 
 PCOD8296587
Probable space group: I B C A 
;
_chemical_formula_sum "Si O2"
_cell_formula_units_Z 88
_cell_length_a 24.632673
_cell_length_b 12.366616
_cell_length_c 13.336347
_cell_angle_alpha 90.000000
_cell_angle_beta 90.000000
_cell_angle_gamma 90.000000
_cell_volume 4062.555472
_symmetry_space_group_name_H-M "I B C A "
_symmetry_group_IT_number 73
_symmetry_cell_setting 'orthorhombic'
loop_
_space_group_symop_operation_xyz
x,y,z
-x,1/2-y,z
x,-y,1/2-z
1/2-x,y,-z
-x,-y,-z
x,1/2+y,-z
-x,y,1/2+z
1/2+x,-y,z
1/2+x,1/2+y,1/2+z
1/2-x,-y,1/2+z
1/2+x,1/2-y,-z
-x,1/2+y,1/2-z
1/2-x,1/2-y,1/2-z
1/2+x,y,1/2-z
1/2-x,1/2+y,z
x,1/2-y,1/2+z
loop_
_atom_site_type_symbol
_atom_site_label
_atom_site_fract_x
_atom_site_fract_y
_atom_site_fract_z
Si Si1 0.326182 0.425678 0.880382
Si Si2 0.808970 0.660776 0.667727
Si Si3 0.533542 0.500000 0.750000
Si Si4 0.080650 0.275889 0.795018
Si Si5 0.950802 0.627402 0.874992
Si Si6 0.500000 0.750000 0.952672
Si Si7 0.750000 0.213431 0.000000
O O1 0.295014 0.380329 0.780562
O O2 0.319644 0.553441 0.896691
O O3 0.390625 0.418890 0.876499
O O4 0.302097 0.361386 0.975414
O O5 0.857341 0.746363 0.684047
O O6 0.762260 0.718605 0.601722
O O7 0.571899 0.594306 0.796268
O O8 0.493371 0.459171 0.835610
O O9 0.055088 0.237181 0.689696
O O10 0.048042 0.209030 0.880120
O O11 0.973734 0.654160 0.983967
#
# Coordination Sequence:
#
# PCOD8296587 Si02
#       7
#    16  16   8  16  16   8   8
#     4  10  23  42  69  89 127 175 209 260 341 384
#     4  10  23  45  65  92 129 169 210 269 326 389
#     4  12  20  42  64  92 134 176 214 256 308 384
#     4  11  23  41  61  94 133 169 215 261 312 387
#     4  11  22  41  59  92 131 172 212 256 319 389
#     4  12  20  38  58  88 128 174 204 258 312 358
#     4  12  22  44  68 102 120 156 228 282 320 380
#
# _framework density 21.661242000000001
#
# number of rings (size 3 to 8) (size 9 to 14) (size 15 to 20)
#    0.000    1.091    3.636    4.364    0.000    0.727 
#    3.273    5.455    0.000    0.000    0.000    0.000 
#    0.000    0.000    0.000    0.000    0.000    0.000 
#
# Total GULP energy -545123.259775 kJ/mol
# GULP energy per Si atom -12389.164995 kJ/mol
# Density = 2.161194 g / cm^3
# Si number density = 21.661242 Si / 1000 Ang^3
#
#
#
# Elastic Constant Matrix: (Units=GPa)
#
#
# Indices 1 2 3 4 5 6 
#
# 1 78.8960 52.5672 24.3085 0.0000 0.0000 0.0000
# 2 52.5672 132.5587 26.2919 0.0000 0.0000 0.0000
# 3 24.3085 26.2919 67.3337 0.0000 0.0000 0.0000
# 4 0.0000 0.0000 0.0000 11.1528 0.0000 0.0000
# 5 0.0000 0.0000 0.0000 0.0000 1.5611 0.0000
# 6 0.0000 0.0000 0.0000 0.0000 0.0000 31.0002
#
#
#
# Elastic Compliance Matrix: (Units=1/GPa)
#
#
# Indices 1 2 3 4 5 6 
#
# 1 0.018199 -0.006410 -0.004067 0.000000 0.000000 0.000000
# 2 -0.006410 0.010435 -0.001760 0.000000 0.000000 0.000000
# 3 -0.004067 -0.001760 0.017007 0.000000 0.000000 0.000000
# 4 0.000000 0.000000 0.000000 0.089663 0.000000 0.000000
# 5 0.000000 0.000000 0.000000 0.000000 0.640576 0.000000
# 6 0.000000 0.000000 0.000000 0.000000 0.000000 0.032258
#
#
# Mechanical properties :
#
#
# Convention : Reuss Voigt Hill
#
# Bulk Modulus (GPa) = 47.24642 53.90262 50.57452
# Shear Modulus (GPa) = 5.95472 20.45088 13.20280
#
# Velocity S-wave (km/s) = 1.65982 3.07599 2.47151
# Velocity P-wave (km/s) = 5.05294 6.12813 5.61632
#
# Compressibility (1/GPa) = 0.02116562
#
# Stress axis : x y z
#
# Youngs Moduli (GPa) = 54.94766 95.83089 58.79911
#
# Poissons Ratio (x) = 0.61431 0.23914
# Poissons Ratio (y) = 0.35223 0.10351
# Poissons Ratio (z) = 0.22348 0.16870
#
# Static dielectric constant tensor:
#      x y z
#    x 3.722060 0.000000 0.000000 
#    y 0.000000 2.674750 0.000000 
#    z 0.000000 0.000000 4.082220 
# 
# 
# High freq. dielectric constant tensor:
#      x y z
#    x 1.841160 0.000000 0.000000 
#    y 0.000000 1.854680 0.000000 
#    z 0.000000 0.000000 1.852040 
# 
# From -- ./inp_files/13568.got.cif
#   From: 2010.03.12/outbox.cif.g09.slc.cpg/sg73_7_cif.got.tgz:13568.got - 2010.04.16 15:25:48.
