data_PCOD8296380
_publ_section_title
;
Structure prediction by ZEFSAII (Michael W. Deem and Ramdas Pophale) SiO2 
 PCOD8296380
Probable space group: I B C A 
;
_chemical_formula_sum "Si O2"
_cell_formula_units_Z 96
_cell_length_a 16.074867
_cell_length_b 22.678262
_cell_length_c 11.610096
_cell_angle_alpha 90.000000
_cell_angle_beta 90.000000
_cell_angle_gamma 90.000000
_cell_volume 4232.461024
_symmetry_space_group_name_H-M "I B C A "
_symmetry_group_IT_number 73
_symmetry_cell_setting 'orthorhombic'
loop_
_space_group_symop_operation_xyz
x,y,z
-x,1/2-y,z
x,-y,1/2-z
1/2-x,y,-z
-x,-y,-z
x,1/2+y,-z
-x,y,1/2+z
1/2+x,-y,z
1/2+x,1/2+y,1/2+z
1/2-x,-y,1/2+z
1/2+x,1/2-y,-z
-x,1/2+y,1/2-z
1/2-x,1/2-y,1/2-z
1/2+x,y,1/2-z
1/2-x,1/2+y,z
x,1/2-y,1/2+z
loop_
_atom_site_type_symbol
_atom_site_label
_atom_site_fract_x
_atom_site_fract_y
_atom_site_fract_z
Si Si1 0.162419 0.489850 0.973932
Si Si2 0.395316 0.824115 0.250309
Si Si3 0.972806 0.582065 0.902511
Si Si4 0.337213 0.244077 0.941630
Si Si5 0.420781 0.500000 0.250000
Si Si6 0.000000 0.250000 0.406677
Si Si7 0.869144 0.379940 0.979245
O O1 0.139097 0.471962 0.845203
O O2 0.176984 0.559805 0.990029
O O3 0.250000 0.457904 0.000000
O O4 0.087391 0.469417 0.054233
O O5 0.417843 0.865460 0.144757
O O6 0.343800 0.770900 0.188433
O O7 0.477071 0.802808 0.319509
O O8 0.344495 0.859996 0.348576
O O9 0.025730 0.553383 0.800357
O O10 0.031674 0.608487 0.002765
O O11 0.339448 0.172507 0.934848
O O12 0.250000 0.264955 0.000000
O O13 0.418079 0.264825 0.016796
#
# Coordination Sequence:
#
# PCOD8296380 Si02
#       7
#    16  16  16  16   8   8  16
#     4  11  24  42  65  99 132 164 217 272 323 386
#     4  11  21  38  63  90 128 170 213 275 326 373
#     4  11  21  40  66  93 126 169 220 261 319 398
#     4  11  24  42  65  96 131 171 223 271 322 391
#     4  10  22  40  64  86 122 174 208 258 320 376
#     4  10  22  40  62  90 126 174 216 260 328 388
#     4  10  22  40  64  91 126 175 220 260 320 392
#
# _framework density 22.681839
#
# number of rings (size 3 to 8) (size 9 to 14) (size 15 to 20)
#    0.000    1.333    0.000    8.000    0.000    5.333 
#    0.000    6.667    0.000    0.000    0.000    0.000 
#    0.000    0.000    0.000    0.000    0.000    0.000 
#
# Total GULP energy -594793.644270 kJ/mol
# GULP energy per Si atom -12391.534256 kJ/mol
# Density = 2.263021 g / cm^3
# Si number density = 22.681839 Si / 1000 Ang^3
#
#
#
# Elastic Constant Matrix: (Units=GPa)
#
#
# Indices 1 2 3 4 5 6 
#
# 1 144.2119 29.7705 57.9051 0.0000 0.0000 0.0000
# 2 29.7705 82.7387 57.6144 0.0000 0.0000 0.0000
# 3 57.9051 57.6144 137.0158 0.0001 0.0000 0.0000
# 4 0.0000 0.0000 0.0001 36.8429 0.0000 0.0000
# 5 0.0000 0.0000 0.0000 0.0000 16.7966 0.0000
# 6 0.0000 0.0000 0.0000 0.0000 0.0000 8.4448
#
#
#
# Elastic Compliance Matrix: (Units=1/GPa)
#
#
# Indices 1 2 3 4 5 6 
#
# 1 0.008387 -0.000777 -0.003218 0.000000 0.000000 0.000000
# 2 -0.000777 0.017162 -0.006888 0.000000 0.000000 0.000000
# 3 -0.003218 -0.006888 0.011555 0.000000 0.000000 0.000000
# 4 0.000000 0.000000 0.000000 0.027142 0.000000 0.000000
# 5 0.000000 0.000000 0.000000 0.000000 0.059536 0.000000
# 6 0.000000 0.000000 0.000000 0.000000 0.000000 0.118416
#
#
# Mechanical properties :
#
#
# Convention : Reuss Voigt Hill
#
# Bulk Modulus (GPa) = 65.19812 72.72738 68.96275
# Shear Modulus (GPa) = 18.58205 26.99527 22.78866
#
# Velocity S-wave (km/s) = 2.86536 3.45363 3.17315
# Velocity P-wave (km/s) = 6.30508 6.93088 6.62538
#
# Compressibility (1/GPa) = 0.01533787
#
# Stress axis : x y z
#
# Youngs Moduli (GPa) = 119.23788 58.26665 86.54472
#
# Poissons Ratio (x) = 0.04528 0.27846
# Poissons Ratio (y) = 0.09266 0.59615
# Poissons Ratio (z) = 0.38365 0.40136
#
# Static dielectric constant tensor:
#      x y z
#    x 4.092470 0.000000 0.000000 
#    y 0.000000 4.102900 0.000000 
#    z 0.000000 0.000000 4.227070 
# 
# 
# High freq. dielectric constant tensor:
#      x y z
#    x 1.891490 0.000000 0.000000 
#    y 0.000000 1.893250 0.000000 
#    z 0.000000 0.000000 1.893150 
# 
# From -- ./inp_files/12057.got.cif
#   From: 2010.03.12/outbox.cif.g09.slc.cpg/sg73_7_cif.got.tgz:12057.got - 2010.04.16 15:25:48.
