data_PCOD8296397
_publ_section_title
;
Structure prediction by ZEFSAII (Michael W. Deem and Ramdas Pophale) SiO2 
 PCOD8296397
Probable space group: I B C A 
;
_chemical_formula_sum "Si O2"
_cell_formula_units_Z 88
_cell_length_a 20.738024
_cell_length_b 8.260009
_cell_length_c 24.962359
_cell_angle_alpha 90.000000
_cell_angle_beta 90.000000
_cell_angle_gamma 90.000000
_cell_volume 4275.958859
_symmetry_space_group_name_H-M "I B C A "
_symmetry_group_IT_number 73
_symmetry_cell_setting 'orthorhombic'
loop_
_space_group_symop_operation_xyz
x,y,z
-x,1/2-y,z
x,-y,1/2-z
1/2-x,y,-z
-x,-y,-z
x,1/2+y,-z
-x,y,1/2+z
1/2+x,-y,z
1/2+x,1/2+y,1/2+z
1/2-x,-y,1/2+z
1/2+x,1/2-y,-z
-x,1/2+y,1/2-z
1/2-x,1/2-y,1/2-z
1/2+x,y,1/2-z
1/2-x,1/2+y,z
x,1/2-y,1/2+z
loop_
_atom_site_type_symbol
_atom_site_label
_atom_site_fract_x
_atom_site_fract_y
_atom_site_fract_z
Si Si1 0.679571 0.931391 0.691688
Si Si2 0.687305 0.383571 0.972806
Si Si3 0.757347 0.707237 0.630639
Si Si4 0.869774 0.179911 0.931932
Si Si5 0.000000 0.750000 0.622589
Si Si6 0.027942 0.433449 0.191408
O O1 0.715860 0.760849 0.682957
O O2 0.603831 0.917663 0.681718
O O3 0.694705 0.000000 0.750000
O O4 0.712855 0.033430 0.644327
O O5 0.711720 0.285041 0.921189
O O6 0.629392 0.496643 0.952343
O O7 0.750000 0.472835 0.000000
O O8 0.655528 0.274909 0.017186
O O9 0.820451 0.816403 0.618394
O O10 0.938467 0.247480 0.915370
O O11 0.000632 0.578958 0.654842
O O12 0.011315 0.500000 0.250000
O O13 0.000000 0.250000 0.181612
#
# Coordination Sequence:
#
# PCOD8296397 Si02
#       6
#    16  16  16  16   8  16
#     4  11  24  41  66 106 137 175 231 285 348 423
#     4  10  22  40  66  93 126 175 227 279 351 419
#     4  11  21  41  66  96 136 170 221 287 351 407
#     4  11  24  41  65  95 130 176 229 289 345 415
#     4  12  26  46  66 104 144 180 238 298 338 420
#     4  11  25  46  72 100 140 196 240 276 342 420
#
# _framework density 20.580179000000001
#
# number of rings (size 3 to 8) (size 9 to 14) (size 15 to 20)
#    0.000    1.091    4.545    2.182    5.091    0.727 
#    0.000    1.818    0.000    0.000    0.000    0.000 
#    0.000    0.000    0.000    0.000    0.000    0.000 
#
# Total GULP energy -545087.853493 kJ/mol
# GULP energy per Si atom -12388.360307 kJ/mol
# Density = 2.053334 g / cm^3
# Si number density = 20.580179 Si / 1000 Ang^3
#
#
#
# Elastic Constant Matrix: (Units=GPa)
#
#
# Indices 1 2 3 4 5 6 
#
# 1 128.4493 51.6861 69.5120 0.0000 0.0000 0.0000
# 2 51.6861 109.1116 36.8023 0.0000 0.0000 0.0000
# 3 69.5120 36.8023 99.3858 0.0000 0.0000 0.0000
# 4 0.0000 0.0000 0.0000 33.7063 0.0000 0.0000
# 5 0.0000 0.0000 0.0000 0.0000 131.5506 0.0000
# 6 0.0000 0.0000 0.0000 0.0000 0.0000 31.9380
#
#
#
# Elastic Compliance Matrix: (Units=1/GPa)
#
#
# Indices 1 2 3 4 5 6 
#
# 1 0.013740 -0.003734 -0.008227 0.000000 0.000000 0.000000
# 2 -0.003734 0.011488 -0.001642 0.000000 0.000000 0.000000
# 3 -0.008227 -0.001642 0.016424 0.000000 0.000000 0.000000
# 4 0.000000 0.000000 0.000000 0.029668 0.000000 0.000000
# 5 0.000000 0.000000 0.000000 0.000000 0.007602 0.000000
# 6 0.000000 0.000000 0.000000 0.000000 0.000000 0.031311
#
#
# Mechanical properties :
#
#
# Convention : Reuss Voigt Hill
#
# Bulk Modulus (GPa) = 69.22845 72.54973 70.88909
# Shear Modulus (GPa) = 35.14847 51.36873 43.25860
#
# Velocity S-wave (km/s) = 4.13713 5.00145 4.58968
# Velocity P-wave (km/s) = 7.51882 8.28742 7.91246
#
# Compressibility (1/GPa) = 0.01444493
#
# Stress axis : x y z
#
# Youngs Moduli (GPa) = 72.78118 87.05110 60.88528
#
# Poissons Ratio (x) = 0.32501 0.50092
# Poissons Ratio (y) = 0.27173 0.10000
# Poissons Ratio (z) = 0.59879 0.14298
#
# Static dielectric constant tensor:
#      x y z
#    x 3.714030 0.000000 0.000000 
#    y 0.000000 3.906390 0.000000 
#    z 0.000000 0.000000 3.758310 
# 
# 
# High freq. dielectric constant tensor:
#      x y z
#    x 1.799350 0.000000 0.000000 
#    y 0.000000 1.808550 0.000000 
#    z 0.000000 0.000000 1.811520 
# 
# From -- ./inp_files/6295.got.cif
#   From: 2010.03.12/outbox.cif.g09.slc.cpg/sg73_4_cif.got.tgz:6295.got - 2010.04.16 15:25:48.
