data_PCOD8296761
_publ_section_title
;
Structure prediction by ZEFSAII (Michael W. Deem and Ramdas Pophale) SiO2 
 PCOD8296761
Probable space group: I B C A 
;
_chemical_formula_sum "Si O2"
_cell_formula_units_Z 56
_cell_length_a 9.633432
_cell_length_b 16.022583
_cell_length_c 15.016440
_cell_angle_alpha 90.000000
_cell_angle_beta 90.000000
_cell_angle_gamma 90.000000
_cell_volume 2317.824511
_symmetry_space_group_name_H-M "I B C A "
_symmetry_group_IT_number 73
_symmetry_cell_setting 'orthorhombic'
loop_
_space_group_symop_operation_xyz
x,y,z
-x,1/2-y,z
x,-y,1/2-z
1/2-x,y,-z
-x,-y,-z
x,1/2+y,-z
-x,y,1/2+z
1/2+x,-y,z
1/2+x,1/2+y,1/2+z
1/2-x,-y,1/2+z
1/2+x,1/2-y,-z
-x,1/2+y,1/2-z
1/2-x,1/2-y,1/2-z
1/2+x,y,1/2-z
1/2-x,1/2+y,z
x,1/2-y,1/2+z
loop_
_atom_site_type_symbol
_atom_site_label
_atom_site_fract_x
_atom_site_fract_y
_atom_site_fract_z
Si Si1 0.702616 0.932287 0.677281
Si Si2 0.436283 0.168113 0.754740
Si Si3 0.250000 0.030443 0.000000
Si Si4 0.626937 0.692115 0.554393
O O1 0.557614 0.889445 0.702905
O O2 0.837582 0.872491 0.680909
O O3 0.695409 0.972618 0.579842
O O4 0.738959 0.000000 0.750000
O O5 0.500000 0.250000 0.707773
O O6 0.344328 0.197433 0.839655
O O7 0.378595 0.092872 0.973036
O O8 0.500000 0.750000 0.526823
O O9 0.750000 0.736282 0.500000
#
# Coordination Sequence:
#
# PCOD8296761 Si02
#       4
#    16  16   8  16
#     4  12  24  49  75 107 152 192 255 318 381 455
#     4  11  25  49  74 105 148 202 252 308 386 460
#     4  10  24  46  76 114 146 202 250 318 390 446
#     4   9  20  45  71 109 149 187 252 307 384 460
#
# _framework density 24.160585000000001
#
# number of rings (size 3 to 8) (size 9 to 14) (size 15 to 20)
#    0.857    0.571    2.857    1.714    0.000    1.143 
#   15.429    7.143    0.000    0.000    0.000    0.000 
#    0.000    0.000    0.000    0.000    0.000    0.000 
#
# Total GULP energy -346886.652312 kJ/mol
# GULP energy per Si atom -12388.809011 kJ/mol
# Density = 2.410559 g / cm^3
# Si number density = 24.160585 Si / 1000 Ang^3
#
#
#
# Elastic Constant Matrix: (Units=GPa)
#
#
# Indices 1 2 3 4 5 6 
#
# 1 73.9546 23.6644 12.5971 0.0000 0.0000 0.0000
# 2 23.6644 80.1065 12.9630 0.0000 0.0000 0.0000
# 3 12.5971 12.9630 75.9839 0.0000 0.0000 0.0000
# 4 0.0000 0.0000 0.0000 -12.6207 0.0000 0.0000
# 5 0.0000 0.0000 0.0000 0.0000 24.9177 0.0000
# 6 0.0000 0.0000 0.0000 0.0000 0.0000 82.7505
#
#
#
# Elastic Compliance Matrix: (Units=1/GPa)
#
#
# Indices 1 2 3 4 5 6 
#
# 1 0.015169 -0.004190 -0.001800 0.000000 0.000000 0.000000
# 2 -0.004190 0.013995 -0.001693 0.000000 0.000000 0.000000
# 3 -0.001800 -0.001693 0.013748 0.000000 0.000000 0.000000
# 4 0.000000 0.000000 0.000000 -0.079235 0.000000 0.000000
# 5 0.000000 0.000000 0.000000 0.000000 0.040132 0.000000
# 6 0.000000 0.000000 0.000000 0.000000 0.000000 0.012085
#
#
# Mechanical properties :
#
#
# Convention : Reuss Voigt Hill
#
# Bulk Modulus (GPa) = 36.30237 36.49933 36.40085
# Shear Modulus (GPa) = 123.63432 31.06419 77.34925
#
# Velocity S-wave (km/s) = 7.16121 3.58961 5.66429
# Velocity P-wave (km/s) = 9.13430 5.68508 7.60774
#
# Compressibility (1/GPa) = 0.02754641
#
# Stress axis : x y z
#
# Youngs Moduli (GPa) = 65.92349 71.45375 72.73822
#
# Poissons Ratio (x) = 0.29938 0.13093
# Poissons Ratio (y) = 0.27621 0.12314
# Poissons Ratio (z) = 0.11867 0.12097
#
# Static dielectric constant tensor:
#      x y z
#    x 4.763770 0.000000 0.000000 
#    y 0.000000 4.765600 0.000000 
#    z 0.000000 0.000000 4.357470 
# 
# 
# High freq. dielectric constant tensor:
#      x y z
#    x 1.950470 0.000000 0.000000 
#    y 0.000000 1.975260 0.000000 
#    z 0.000000 0.000000 1.951520 
# 
# From -- ./inp_files/20519.got.cif
#   From: 2010.03.12/outbox.cif.g09.slc.cpg/sg73_11_cif.got.tgz:20519.got - 2010.04.16 15:25:48.
