data_PCOD8296490
_publ_section_title
;
Structure prediction by ZEFSAII (Michael W. Deem and Ramdas Pophale) SiO2 
 PCOD8296490
Probable space group: I B C A 
;
_chemical_formula_sum "Si O2"
_cell_formula_units_Z 112
_cell_length_a 10.380537
_cell_length_b 33.624995
_cell_length_c 14.393618
_cell_angle_alpha 90.000000
_cell_angle_beta 90.000000
_cell_angle_gamma 90.000000
_cell_volume 5024.027660
_symmetry_space_group_name_H-M "I B C A "
_symmetry_group_IT_number 73
_symmetry_cell_setting 'orthorhombic'
loop_
_space_group_symop_operation_xyz
x,y,z
-x,1/2-y,z
x,-y,1/2-z
1/2-x,y,-z
-x,-y,-z
x,1/2+y,-z
-x,y,1/2+z
1/2+x,-y,z
1/2+x,1/2+y,1/2+z
1/2-x,-y,1/2+z
1/2+x,1/2-y,-z
-x,1/2+y,1/2-z
1/2-x,1/2-y,1/2-z
1/2+x,y,1/2-z
1/2-x,1/2+y,z
x,1/2-y,1/2+z
loop_
_atom_site_type_symbol
_atom_site_label
_atom_site_fract_x
_atom_site_fract_y
_atom_site_fract_z
Si Si1 0.934644 0.833021 0.339248
Si Si2 0.363573 0.941207 0.447701
Si Si3 0.266288 0.483828 0.849523
Si Si4 0.062222 0.926413 0.189692
Si Si5 0.145599 0.159924 0.318018
Si Si6 0.395373 0.217835 0.512899
Si Si7 0.531603 0.421337 0.386786
O O1 0.793937 0.830765 0.289564
O O2 0.947643 0.798479 0.414853
O O3 0.948387 0.874287 0.395484
O O4 0.047529 0.827516 0.263807
O O5 0.250000 0.915791 0.500000
O O6 0.297517 0.983965 0.427811
O O7 0.416214 0.922348 0.351715
O O8 0.480590 0.942187 0.520025
O O9 0.310470 0.500000 0.750000
O O10 0.117907 0.468410 0.849603
O O11 0.334312 0.442066 0.867424
O O12 0.137268 0.886863 0.159456
O O13 0.065341 0.929943 0.301153
O O14 0.108678 0.183042 0.411313
O O15 0.500000 0.250000 0.547056
O O16 0.250000 0.235497 0.500000
#
# Coordination Sequence:
#
# PCOD8296490 Si02
#       7
#    16  16  16  16  16  16  16
#     4  10  22  43  70 101 137 178 230 274 337 416
#     4  12  28  41  61  90 123 169 228 286 341 407
#     4  12  25  41  62  90 130 170 224 281 345 385
#     4  11  25  44  66  90 132 175 222 288 337 405
#     4  10  22  44  72 101 135 182 227 273 340 413
#     4  10  23  44  70 105 143 178 220 276 340 412
#     4  11  24  43  64  93 127 173 225 275 342 395
#
# _framework density 22.292871000000002
#
# number of rings (size 3 to 8) (size 9 to 14) (size 15 to 20)
#    0.000    1.143    2.857    2.143    6.000    2.857 
#    0.000    4.286    0.000    0.000    0.000    0.000 
#    0.000    0.000    0.000    0.000    0.000    0.000 
#
# Total GULP energy -694066.063928 kJ/mol
# GULP energy per Si atom -12394.036856 kJ/mol
# Density = 2.224213 g / cm^3
# Si number density = 22.292871 Si / 1000 Ang^3
#
#
#
# Elastic Constant Matrix: (Units=GPa)
#
#
# Indices 1 2 3 4 5 6 
#
# 1 88.6068 22.1956 34.1375 -0.0013 -0.0004 0.0002
# 2 22.1956 50.2130 24.4300 -0.0014 -0.0006 0.0001
# 3 34.1375 24.4300 97.9554 -0.0020 -0.0008 0.0000
# 4 -0.0013 -0.0014 -0.0020 21.8936 -0.0006 0.0000
# 5 -0.0004 -0.0006 -0.0008 -0.0006 39.5755 -0.0002
# 6 0.0002 0.0001 0.0000 0.0000 -0.0002 35.1056
#
#
#
# Elastic Compliance Matrix: (Units=1/GPa)
#
#
# Indices 1 2 3 4 5 6 
#
# 1 0.013799 -0.004279 -0.003742 0.000000 0.000000 0.000000
# 2 -0.004279 0.023992 -0.004492 0.000001 0.000000 0.000000
# 3 -0.003742 -0.004492 0.012633 0.000001 0.000000 0.000000
# 4 0.000000 0.000001 0.000001 0.045676 0.000001 0.000000
# 5 0.000000 0.000000 0.000000 0.000001 0.025268 0.000000
# 6 0.000000 0.000000 0.000000 0.000000 0.000000 0.028485
#
#
# Mechanical properties :
#
#
# Convention : Reuss Voigt Hill
#
# Bulk Modulus (GPa) = 39.37317 44.25573 41.81445
# Shear Modulus (GPa) = 27.27072 29.71576 28.49324
#
# Velocity S-wave (km/s) = 3.50136 3.65495 3.57898
# Velocity P-wave (km/s) = 5.83490 6.14057 5.98969
#
# Compressibility (1/GPa) = 0.02539801
#
# Stress axis : x y z
#
# Youngs Moduli (GPa) = 72.46715 41.67995 79.15677
#
# Poissons Ratio (x) = 0.17836 0.29619
# Poissons Ratio (y) = 0.31010 0.35560
# Poissons Ratio (z) = 0.27116 0.18724
#
# Static dielectric constant tensor:
#      x y z
#    x 4.157500 0.000000 0.000000 
#    y 0.000000 3.730700 0.000000 
#    z 0.000000 0.000000 4.071100 
# 
# 
# High freq. dielectric constant tensor:
#      x y z
#    x 1.889380 0.000000 0.000000 
#    y 0.000000 1.851600 0.000000 
#    z 0.000000 0.000000 1.887130 
# 
# From -- ./inp_files/16363.got.cif
#   From: 2010.03.12/outbox.cif.g09.slc.cpg/sg73_9_cif.got.tgz:16363.got - 2010.04.16 15:25:48.
