data_PCOD8296244
_publ_section_title
;
Structure prediction by ZEFSAII (Michael W. Deem and Ramdas Pophale) SiO2 
 PCOD8296244
Probable space group: I B C A 
;
_chemical_formula_sum "Si O2"
_cell_formula_units_Z 96
_cell_length_a 25.472913
_cell_length_b 12.654938
_cell_length_c 13.777486
_cell_angle_alpha 90.000000
_cell_angle_beta 90.000000
_cell_angle_gamma 90.000000
_cell_volume 4441.284688
_symmetry_space_group_name_H-M "I B C A "
_symmetry_group_IT_number 73
_symmetry_cell_setting 'orthorhombic'
loop_
_space_group_symop_operation_xyz
x,y,z
-x,1/2-y,z
x,-y,1/2-z
1/2-x,y,-z
-x,-y,-z
x,1/2+y,-z
-x,y,1/2+z
1/2+x,-y,z
1/2+x,1/2+y,1/2+z
1/2-x,-y,1/2+z
1/2+x,1/2-y,-z
-x,1/2+y,1/2-z
1/2-x,1/2-y,1/2-z
1/2+x,y,1/2-z
1/2-x,1/2+y,z
x,1/2-y,1/2+z
loop_
_atom_site_type_symbol
_atom_site_label
_atom_site_fract_x
_atom_site_fract_y
_atom_site_fract_z
Si Si1 0.665728 0.287058 0.372635
Si Si2 0.886449 0.004029 0.416120
Si Si3 0.582852 0.636154 0.575034
Si Si4 0.000000 0.750000 0.557378
Si Si5 0.499750 0.473038 0.644659
Si Si6 0.750000 0.317361 0.000000
Si Si7 0.199500 0.099582 0.805553
O O1 0.640188 0.391670 0.416309
O O2 0.618792 0.204070 0.351548
O O3 0.703398 0.254593 0.460315
O O4 0.697201 0.302757 0.270834
O O5 0.874032 0.069862 0.513534
O O6 0.950170 0.997393 0.422690
O O7 0.861860 0.072168 0.327874
O O8 0.549187 0.717473 0.509155
O O9 0.547332 0.553756 0.632573
O O10 0.015906 0.649458 0.625672
O O11 0.477425 0.500000 0.750000
O O12 0.769192 0.384036 0.905871
O O13 0.226133 0.000000 0.750000
#
# Coordination Sequence:
#
# PCOD8296244 Si02
#       7
#    16  16  16   8  16   8  16
#     4  11  23  41  68  96 129 176 225 278 339 403
#     4  10  21  41  63  91 131 180 213 268 340 404
#     4  11  21  40  62  96 133 173 226 266 339 402
#     4  10  22  38  66  88 134 186 218 270 340 400
#     4  11  23  38  62 100 134 174 223 270 329 409
#     4  12  24  46  68 100 132 172 234 288 348 390
#     4  10  23  43  70  98 131 176 225 275 351 411
#
# _framework density 21.615368
#
# number of rings (size 3 to 8) (size 9 to 14) (size 15 to 20)
#    0.000    1.333    1.667    6.000    0.000    7.333 
#    3.000    0.833    0.000    0.000    0.000    0.000 
#    0.000    0.000    0.000    0.000    0.000    0.000 
#
# Total GULP energy -594738.517210 kJ/mol
# GULP energy per Si atom -12390.385775 kJ/mol
# Density = 2.156617 g / cm^3
# Si number density = 21.615368 Si / 1000 Ang^3
#
#
#
# Elastic Constant Matrix: (Units=GPa)
#
#
# Indices 1 2 3 4 5 6 
#
# 1 87.2644 61.4160 36.2573 0.0000 0.0000 0.0000
# 2 61.4160 136.1812 61.9570 0.0000 0.0000 0.0000
# 3 36.2573 61.9570 111.7232 0.0000 0.0000 0.0000
# 4 0.0000 0.0000 0.0000 42.7238 0.0000 0.0000
# 5 0.0000 0.0000 0.0000 0.0000 34.3540 0.0000
# 6 0.0000 0.0000 0.0000 0.0000 0.0000 15.4398
#
#
#
# Elastic Compliance Matrix: (Units=1/GPa)
#
#
# Indices 1 2 3 4 5 6 
#
# 1 0.017025 -0.006907 -0.001695 0.000000 0.000000 0.000000
# 2 -0.006907 0.012623 -0.004759 0.000000 0.000000 0.000000
# 3 -0.001695 -0.004759 0.012140 0.000000 0.000000 0.000000
# 4 0.000000 0.000000 0.000000 0.023406 0.000000 0.000000
# 5 0.000000 0.000000 0.000000 0.000000 0.029109 0.000000
# 6 0.000000 0.000000 0.000000 0.000000 0.000000 0.064768
#
#
# Mechanical properties :
#
#
# Convention : Reuss Voigt Hill
#
# Bulk Modulus (GPa) = 66.37156 72.71440 69.54298
# Shear Modulus (GPa) = 26.20368 30.20609 28.20489
#
# Velocity S-wave (km/s) = 3.48555 3.74228 3.61619
# Velocity P-wave (km/s) = 6.85355 7.23782 7.04830
#
# Compressibility (1/GPa) = 0.01506670
#
# Stress axis : x y z
#
# Youngs Moduli (GPa) = 58.73879 79.21981 82.37436
#
# Poissons Ratio (x) = 0.54716 0.13960
# Poissons Ratio (y) = 0.40570 0.39200
# Poissons Ratio (z) = 0.09954 0.37699
#
# Static dielectric constant tensor:
#      x y z
#    x 3.805640 0.000000 0.000000 
#    y 0.000000 4.080440 0.000000 
#    z 0.000000 0.000000 3.960600 
# 
# 
# High freq. dielectric constant tensor:
#      x y z
#    x 1.842570 0.000000 0.000000 
#    y 0.000000 1.854870 0.000000 
#    z 0.000000 0.000000 1.847160 
# 
# From -- ./inp_files/20012.got.cif
#   From: 2010.03.12/outbox.cif.g09.slc.cpg/sg73_11_cif.got.tgz:20012.got - 2010.04.16 15:25:48.
