data_PCOD8296289
_publ_section_title
;
Structure prediction by ZEFSAII (Michael W. Deem and Ramdas Pophale) SiO2 
 PCOD8296289
Probable space group: I B C A 
;
_chemical_formula_sum "Si O2"
_cell_formula_units_Z 96
_cell_length_a 18.941987
_cell_length_b 14.617110
_cell_length_c 15.424677
_cell_angle_alpha 90.000000
_cell_angle_beta 90.000000
_cell_angle_gamma 90.000000
_cell_volume 4270.739953
_symmetry_space_group_name_H-M "I B C A "
_symmetry_group_IT_number 73
_symmetry_cell_setting 'orthorhombic'
loop_
_space_group_symop_operation_xyz
x,y,z
-x,1/2-y,z
x,-y,1/2-z
1/2-x,y,-z
-x,-y,-z
x,1/2+y,-z
-x,y,1/2+z
1/2+x,-y,z
1/2+x,1/2+y,1/2+z
1/2-x,-y,1/2+z
1/2+x,1/2-y,-z
-x,1/2+y,1/2-z
1/2-x,1/2-y,1/2-z
1/2+x,y,1/2-z
1/2-x,1/2+y,z
x,1/2-y,1/2+z
loop_
_atom_site_type_symbol
_atom_site_label
_atom_site_fract_x
_atom_site_fract_y
_atom_site_fract_z
Si Si1 0.273447 0.402492 0.286584
Si Si2 0.052020 0.082287 0.505989
Si Si3 0.072345 0.207984 0.642238
Si Si4 0.920844 0.811720 0.031377
Si Si5 0.659169 0.243318 0.692596
Si Si6 0.328008 0.033196 0.961862
O O1 0.243834 0.500000 0.250000
O O2 0.310996 0.346182 0.208093
O O3 0.216586 0.334416 0.329547
O O4 0.327176 0.426360 0.364674
O O5 0.062329 0.103674 0.608834
O O6 0.006508 0.167884 0.464241
O O7 0.127229 0.062458 0.459521
O O8 0.000000 0.000000 0.500000
O O9 0.100727 0.258607 0.555880
O O10 0.129168 0.208907 0.716385
O O11 0.000000 0.250000 0.678959
O O12 0.897719 0.754003 0.115848
O O13 0.873780 0.903975 0.027147
O O14 0.250000 0.015598 0.000000
#
# Coordination Sequence:
#
# PCOD8296289 Si02
#       6
#    16  16  16  16  16  16
#     4  11  26  43  64 102 142 175 233 287 342 425
#     4   9  22  40  65  95 131 177 226 279 345 412
#     4  10  22  41  65  93 133 176 227 283 343 409
#     4  10  21  43  67  95 136 177 226 285 346 419
#     4  11  24  44  70 100 137 184 230 284 351 415
#     4  11  21  42  66  96 137 182 224 289 351 410
#
# _framework density 22.478541
#
# number of rings (size 3 to 8) (size 9 to 14) (size 15 to 20)
#    0.000    1.667    3.333    0.000    4.667    2.000 
#    0.000    0.833    0.000    0.000    0.000    0.000 
#    0.000    0.000    0.000    0.000    0.000    0.000 
#
# Total GULP energy -594782.356881 kJ/mol
# GULP energy per Si atom -12391.299102 kJ/mol
# Density = 2.242738 g / cm^3
# Si number density = 22.478541 Si / 1000 Ang^3
#
#
#
# Elastic Constant Matrix: (Units=GPa)
#
#
# Indices 1 2 3 4 5 6 
#
# 1 114.2809 20.3005 34.3931 0.0000 0.0000 0.0000
# 2 20.3005 96.0285 16.2039 0.0000 0.0000 0.0000
# 3 34.3931 16.2039 91.6454 0.0000 0.0000 0.0000
# 4 0.0000 0.0000 0.0000 15.4821 0.0000 0.0000
# 5 0.0000 0.0000 0.0000 0.0000 41.7911 0.0000
# 6 0.0000 0.0000 0.0000 0.0000 0.0000 40.1329
#
#
#
# Elastic Compliance Matrix: (Units=1/GPa)
#
#
# Indices 1 2 3 4 5 6 
#
# 1 0.010080 -0.001539 -0.003511 0.000000 0.000000 0.000000
# 2 -0.001539 0.010969 -0.001362 0.000000 0.000000 0.000000
# 3 -0.003511 -0.001362 0.012470 0.000000 0.000000 0.000000
# 4 0.000000 0.000000 0.000000 0.064591 0.000000 0.000000
# 5 0.000000 0.000000 0.000000 0.000000 0.023929 0.000000
# 6 0.000000 0.000000 0.000000 0.000000 0.000000 0.024917
#
#
# Mechanical properties :
#
#
# Convention : Reuss Voigt Hill
#
# Bulk Modulus (GPa) = 48.31842 49.30551 48.81197
# Shear Modulus (GPa) = 29.99812 34.88504 32.44158
#
# Velocity S-wave (km/s) = 3.65708 3.94372 3.80310
# Velocity P-wave (km/s) = 6.27489 6.53601 6.40678
#
# Compressibility (1/GPa) = 0.02069604
#
# Stress axis : x y z
#
# Youngs Moduli (GPa) = 99.20348 91.16893 80.19225
#
# Poissons Ratio (x) = 0.14027 0.28155
# Poissons Ratio (y) = 0.15263 0.10922
# Poissons Ratio (z) = 0.34830 0.12417
#
# Static dielectric constant tensor:
#      x y z
#    x 4.410670 0.000000 0.000000 
#    y 0.000000 5.049020 0.000000 
#    z 0.000000 0.000000 3.584740 
# 
# 
# High freq. dielectric constant tensor:
#      x y z
#    x 1.889380 0.000000 0.000000 
#    y 0.000000 1.903170 0.000000 
#    z 0.000000 0.000000 1.867730 
# 
# From -- ./inp_files/18606.got.cif
#   From: 2010.03.12/outbox.cif.g09.slc.cpg/sg73_10_cif.got.tgz:18606.got - 2010.04.16 15:25:48.
