data_PCOD8296681
_publ_section_title
;
Structure prediction by ZEFSAII (Michael W. Deem and Ramdas Pophale) SiO2 
 PCOD8296681
Probable space group: I B C A 
;
_chemical_formula_sum "Si O2"
_cell_formula_units_Z 96
_cell_length_a 29.768040
_cell_length_b 14.286879
_cell_length_c 10.480642
_cell_angle_alpha 90.000000
_cell_angle_beta 90.000000
_cell_angle_gamma 90.000000
_cell_volume 4457.337238
_symmetry_space_group_name_H-M "I B C A "
_symmetry_group_IT_number 73
_symmetry_cell_setting 'orthorhombic'
loop_
_space_group_symop_operation_xyz
x,y,z
-x,1/2-y,z
x,-y,1/2-z
1/2-x,y,-z
-x,-y,-z
x,1/2+y,-z
-x,y,1/2+z
1/2+x,-y,z
1/2+x,1/2+y,1/2+z
1/2-x,-y,1/2+z
1/2+x,1/2-y,-z
-x,1/2+y,1/2-z
1/2-x,1/2-y,1/2-z
1/2+x,y,1/2-z
1/2-x,1/2+y,z
x,1/2-y,1/2+z
loop_
_atom_site_type_symbol
_atom_site_label
_atom_site_fract_x
_atom_site_fract_y
_atom_site_fract_z
Si Si1 0.181262 0.990477 0.105434
Si Si2 0.975850 0.500000 0.250000
Si Si3 0.438188 0.099632 0.215981
Si Si4 0.409496 0.430536 0.442307
Si Si5 0.179667 0.279955 0.935899
Si Si6 0.750000 0.134871 0.500000
Si Si7 0.377569 0.746500 0.186668
O O1 0.198456 0.886066 0.072808
O O2 0.165342 0.000000 0.250000
O O3 0.136772 0.014710 0.022771
O O4 0.220374 0.066870 0.087890
O O5 0.946197 0.500825 0.379054
O O6 0.008005 0.407645 0.258304
O O7 0.416622 0.176181 0.308820
O O8 0.415204 0.000000 0.250000
O O9 0.428793 0.119780 0.067474
O O10 0.400611 0.352502 0.335769
O O11 0.157937 0.267110 0.075056
O O12 0.219277 0.204151 0.915468
O O13 0.144988 0.257566 0.824752
#
# Coordination Sequence:
#
# PCOD8296681 Si02
#       7
#    16   8  16  16  16   8  16
#     4  12  24  44  71  99 139 192 228 295 370 427
#     4  10  24  42  72 102 140 182 234 298 346 428
#     4  10  24  42  67 107 137 183 239 296 347 421
#     4  12  21  47  69 100 144 185 237 285 368 426
#     4  12  25  44  71 103 140 191 233 300 357 429
#     4  12  26  44  66 108 140 176 254 292 350 442
#     4  12  23  45  72 100 143 189 238 289 362 428
#
# _framework density 21.537521999999999
#
# number of rings (size 3 to 8) (size 9 to 14) (size 15 to 20)
#    0.500    0.000    5.833    2.000    0.000    4.667 
#    0.000    2.500    0.000    0.000    0.000    0.000 
#    0.000    0.000    0.000    0.000    0.000    0.000 
#
# Total GULP energy -595142.610994 kJ/mol
# GULP energy per Si atom -12398.804396 kJ/mol
# Density = 2.148850 g / cm^3
# Si number density = 21.537522 Si / 1000 Ang^3
#
#
#
# Elastic Constant Matrix: (Units=GPa)
#
#
# Indices 1 2 3 4 5 6 
#
# 1 124.6563 55.1214 27.8973 0.0000 0.0000 0.0000
# 2 55.1214 143.1447 12.7386 0.0000 0.0000 0.0000
# 3 27.8973 12.7386 82.4525 0.0000 0.0000 0.0000
# 4 0.0000 0.0000 0.0000 27.2557 0.0000 0.0000
# 5 0.0000 0.0000 0.0000 0.0000 26.0801 0.0000
# 6 0.0000 0.0000 0.0000 0.0000 0.0000 37.5601
#
#
#
# Elastic Compliance Matrix: (Units=1/GPa)
#
#
# Indices 1 2 3 4 5 6 
#
# 1 0.010317 -0.003713 -0.002917 0.000000 0.000000 0.000000
# 2 -0.003713 0.008420 -0.000044 0.000000 0.000000 0.000000
# 3 -0.002917 -0.000044 0.013122 0.000000 0.000000 0.000000
# 4 0.000000 0.000000 0.000000 0.036690 0.000000 0.000000
# 5 0.000000 0.000000 0.000000 0.000000 0.038343 0.000000
# 6 0.000000 0.000000 0.000000 0.000000 0.000000 0.026624
#
#
# Mechanical properties :
#
#
# Convention : Reuss Voigt Hill
#
# Bulk Modulus (GPa) = 54.02682 60.19645 57.11163
# Shear Modulus (GPa) = 32.67237 35.14558 33.90897
#
# Velocity S-wave (km/s) = 3.89909 4.04397 3.97219
# Velocity P-wave (km/s) = 6.73869 7.05799 6.90019
#
# Compressibility (1/GPa) = 0.01850933
#
# Stress axis : x y z
#
# Youngs Moduli (GPa) = 96.92965 118.76855 76.20786
#
# Poissons Ratio (x) = 0.44100 0.22229
# Poissons Ratio (y) = 0.35991 0.00339
# Poissons Ratio (z) = 0.28274 0.00528
#
# Static dielectric constant tensor:
#      x y z
#    x 3.848350 0.000000 0.000000 
#    y 0.000000 4.053350 0.000000 
#    z 0.000000 0.000000 3.723760 
# 
# 
# High freq. dielectric constant tensor:
#      x y z
#    x 1.846220 0.000000 0.000000 
#    y 0.000000 1.850480 0.000000 
#    z 0.000000 0.000000 1.840950 
# 
# From -- ./inp_files/14780.got.cif
#   From: 2010.03.12/outbox.cif.g09.slc.cpg/sg73_8_cif.got.tgz:14780.got - 2010.04.16 15:25:48.
