data_PCOD8296094
_publ_section_title
;
Structure prediction by ZEFSAII (Michael W. Deem and Ramdas Pophale) SiO2 
 PCOD8296094
Probable space group: I B C A 
;
_chemical_formula_sum "Si O2"
_cell_formula_units_Z 96
_cell_length_a 23.788308
_cell_length_b 8.775967
_cell_length_c 22.614880
_cell_angle_alpha 90.000000
_cell_angle_beta 90.000000
_cell_angle_gamma 90.000000
_cell_volume 4721.204605
_symmetry_space_group_name_H-M "I B C A "
_symmetry_group_IT_number 73
_symmetry_cell_setting 'orthorhombic'
loop_
_space_group_symop_operation_xyz
x,y,z
-x,1/2-y,z
x,-y,1/2-z
1/2-x,y,-z
-x,-y,-z
x,1/2+y,-z
-x,y,1/2+z
1/2+x,-y,z
1/2+x,1/2+y,1/2+z
1/2-x,-y,1/2+z
1/2+x,1/2-y,-z
-x,1/2+y,1/2-z
1/2-x,1/2-y,1/2-z
1/2+x,y,1/2-z
1/2-x,1/2+y,z
x,1/2-y,1/2+z
loop_
_atom_site_type_symbol
_atom_site_label
_atom_site_fract_x
_atom_site_fract_y
_atom_site_fract_z
Si Si1 0.498378 0.428774 0.936627
Si Si2 0.690271 0.605274 0.976121
Si Si3 0.877146 0.591458 0.905677
Si Si4 0.384330 0.929925 0.614820
Si Si5 0.790608 0.850142 0.123664
Si Si6 0.703665 0.450287 0.685555
O O1 0.500000 0.250000 0.945695
O O2 0.439606 0.479302 0.908007
O O3 0.551596 0.481997 0.897417
O O4 0.500000 0.500000 0.000000
O O5 0.656286 0.481356 0.938640
O O6 0.703969 0.760816 0.938980
O O7 0.750000 0.538634 0.000000
O O8 0.649804 0.637682 0.031404
O O9 0.879475 0.750721 0.871146
O O10 0.842701 0.465159 0.869778
O O11 0.362273 0.012418 0.674612
O O12 0.787940 0.729917 0.177488
O O13 0.736103 0.957477 0.132641
O O14 0.724540 0.500000 0.750000
#
# Coordination Sequence:
#
# PCOD8296094 Si02
#       6
#    16  16  16  16  16  16
#     4  10  21  35  57  84 120 160 192 233 286 357
#     4  11  21  33  53  83 119 157 187 230 298 363
#     4  11  21  35  56  85 124 154 188 233 296 370
#     4  10  21  37  56  84 114 153 196 241 292 356
#     4  11  24  37  58  88 115 155 198 247 300 363
#     4  11  23  42  63  83 112 153 205 262 308 345
#
# _framework density 20.333794000000001
#
# number of rings (size 3 to 8) (size 9 to 14) (size 15 to 20)
#    0.000    1.333    1.667    5.500    2.333    2.667 
#    0.000    0.000    0.000    7.000    0.000    0.000 
#    0.000    0.000    0.000    0.000    0.000    0.000 
#
# Total GULP energy -594834.605530 kJ/mol
# GULP energy per Si atom -12392.387615 kJ/mol
# Density = 2.028751 g / cm^3
# Si number density = 20.333794 Si / 1000 Ang^3
#
#
#
# Elastic Constant Matrix: (Units=GPa)
#
#
# Indices 1 2 3 4 5 6 
#
# 1 155.4352 37.6217 24.5733 0.0000 0.0000 0.0000
# 2 37.6217 77.0034 14.7312 0.0000 0.0000 0.0000
# 3 24.5733 14.7312 50.0539 0.0000 0.0000 0.0000
# 4 0.0000 0.0000 0.0000 21.0117 0.0000 0.0000
# 5 0.0000 0.0000 0.0000 0.0000 17.4706 0.0000
# 6 0.0000 0.0000 0.0000 0.0000 0.0000 31.6223
#
#
#
# Elastic Compliance Matrix: (Units=1/GPa)
#
#
# Indices 1 2 3 4 5 6 
#
# 1 0.007653 -0.003201 -0.002815 0.000000 0.000000 0.000000
# 2 -0.003201 0.015100 -0.002873 0.000000 0.000000 0.000000
# 3 -0.002815 -0.002873 0.022206 0.000000 0.000000 0.000000
# 4 0.000000 0.000000 0.000000 0.047593 0.000000 0.000000
# 5 0.000000 0.000000 0.000000 0.000000 0.057239 0.000000
# 6 0.000000 0.000000 0.000000 0.000000 0.000000 0.031623
#
#
# Mechanical properties :
#
#
# Convention : Reuss Voigt Hill
#
# Bulk Modulus (GPa) = 36.78918 48.48275 42.63597
# Shear Modulus (GPa) = 24.00940 27.72533 25.86737
#
# Velocity S-wave (km/s) = 3.43995 3.69658 3.57057
# Velocity P-wave (km/s) = 5.82319 6.48959 6.16540
#
# Compressibility (1/GPa) = 0.02718190
#
# Stress axis : x y z
#
# Youngs Moduli (GPa) = 130.66234 66.22645 45.03281
#
# Poissons Ratio (x) = 0.21196 0.12678
# Poissons Ratio (y) = 0.41820 0.12936
# Poissons Ratio (z) = 0.36786 0.19024
#
# Static dielectric constant tensor:
#      x y z
#    x 4.186410 0.000000 0.000000 
#    y 0.000000 3.753170 0.000000 
#    z 0.000000 0.000000 3.388640 
# 
# 
# High freq. dielectric constant tensor:
#      x y z
#    x 1.803820 0.000000 0.000000 
#    y 0.000000 1.805770 0.000000 
#    z 0.000000 0.000000 1.751050 
# 
# From -- ./inp_files/7191.got.cif
#   From: 2010.03.12/outbox.cif.g09.slc.cpg/sg73_4_cif.got.tgz:7191.got - 2010.04.16 15:25:48.
