data_PCOD8296030
_publ_section_title
;
Structure prediction by ZEFSAII (Michael W. Deem and Ramdas Pophale) SiO2 
 PCOD8296030
Probable space group: I B C A 
;
_chemical_formula_sum "Si O2"
_cell_formula_units_Z 56
_cell_length_a 8.990925
_cell_length_b 13.190622
_cell_length_c 17.714438
_cell_angle_alpha 90.000000
_cell_angle_beta 90.000000
_cell_angle_gamma 90.000000
_cell_volume 2100.859595
_symmetry_space_group_name_H-M "I B C A "
_symmetry_group_IT_number 73
_symmetry_cell_setting 'orthorhombic'
loop_
_space_group_symop_operation_xyz
x,y,z
-x,1/2-y,z
x,-y,1/2-z
1/2-x,y,-z
-x,-y,-z
x,1/2+y,-z
-x,y,1/2+z
1/2+x,-y,z
1/2+x,1/2+y,1/2+z
1/2-x,-y,1/2+z
1/2+x,1/2-y,-z
-x,1/2+y,1/2-z
1/2-x,1/2-y,1/2-z
1/2+x,y,1/2-z
1/2-x,1/2+y,z
x,1/2-y,1/2+z
loop_
_atom_site_type_symbol
_atom_site_label
_atom_site_fract_x
_atom_site_fract_y
_atom_site_fract_z
Si Si1 0.734939 0.389073 0.588292
Si Si2 0.793366 0.681080 0.658763
Si Si3 0.521750 0.996561 0.660174
Si Si4 0.500000 0.750000 0.212374
O O1 0.750000 0.403770 0.500000
O O2 0.667362 0.278548 0.607303
O O3 0.635652 0.479369 0.622614
O O4 0.897977 0.392959 0.629443
O O5 0.863066 0.580000 0.624136
O O6 0.878323 0.688742 0.739244
O O7 0.611232 0.669906 0.668023
O O8 0.505406 0.000000 0.750000
#
# Coordination Sequence:
#
# PCOD8296030 Si02
#       4
#    16  16  16   8
#     4  12  28  48  69 109 154 198 246 304 388 458
#     4  11  24  44  72 104 149 185 247 302 380 431
#     4  12  26  46  79 110 144 197 258 320 368 447
#     4  10  20  40  72 106 130 184 242 308 354 438
#
# _framework density 26.655754999999999
#
# number of rings (size 3 to 8) (size 9 to 14) (size 15 to 20)
#    0.000    0.571    2.857    5.143    8.000    1.143 
#    5.143    0.000    0.000    0.000    0.000    0.000 
#    0.000    0.000    0.000    0.000    0.000    0.000 
#
# Total GULP energy -347122.481179 kJ/mol
# GULP energy per Si atom -12397.231471 kJ/mol
# Density = 2.659509 g / cm^3
# Si number density = 26.655755 Si / 1000 Ang^3
#
#
#
# Elastic Constant Matrix: (Units=GPa)
#
#
# Indices 1 2 3 4 5 6 
#
# 1 164.4421 9.6906 34.4413 0.0000 0.0000 0.0000
# 2 9.6906 47.2124 14.6924 0.0000 0.0000 0.0000
# 3 34.4413 14.6924 181.4911 0.0000 0.0000 0.0000
# 4 0.0000 0.0000 0.0000 29.1333 0.0000 0.0000
# 5 0.0000 0.0000 0.0000 0.0000 30.1612 0.0000
# 6 0.0000 0.0000 0.0000 0.0000 0.0000 39.9954
#
#
#
# Elastic Compliance Matrix: (Units=1/GPa)
#
#
# Indices 1 2 3 4 5 6 
#
# 1 0.006375 -0.000956 -0.001132 0.000000 0.000000 0.000000
# 2 -0.000956 0.021872 -0.001589 0.000000 0.000000 0.000000
# 3 -0.001132 -0.001589 0.005853 0.000000 0.000000 0.000000
# 4 0.000000 0.000000 0.000000 0.034325 0.000000 0.000000
# 5 0.000000 0.000000 0.000000 0.000000 0.033155 0.000000
# 6 0.000000 0.000000 0.000000 0.000000 0.000000 0.025003
#
#
# Mechanical properties :
#
#
# Convention : Reuss Voigt Hill
#
# Bulk Modulus (GPa) = 37.39064 56.75493 47.07279
# Shear Modulus (GPa) = 35.00107 42.14606 38.57357
#
# Velocity S-wave (km/s) = 3.62757 3.98065 3.80820
# Velocity P-wave (km/s) = 5.62169 6.51655 6.08559
#
# Compressibility (1/GPa) = 0.02674466
#
# Stress axis : x y z
#
# Youngs Moduli (GPa) = 156.87103 45.72130 170.83975
#
# Poissons Ratio (x) = 0.04371 0.19344
# Poissons Ratio (y) = 0.14998 0.27149
# Poissons Ratio (z) = 0.17763 0.07266
#
# Static dielectric constant tensor:
#      x y z
#    x 5.701590 0.000000 0.000000 
#    y 0.000000 5.793710 0.000000 
#    z 0.000000 0.000000 4.105610 
# 
# 
# High freq. dielectric constant tensor:
#      x y z
#    x 2.120150 0.000000 0.000000 
#    y 0.000000 2.112060 0.000000 
#    z 0.000000 0.000000 2.009460 
# 
# From -- ./inp_files/20538.got.cif
#   From: 2010.03.12/outbox.cif.g09.slc.cpg/sg73_11_cif.got.tgz:20538.got - 2010.04.16 15:25:48.
