data_PCOD8296814
_publ_section_title
;
Structure prediction by ZEFSAII (Michael W. Deem and Ramdas Pophale) SiO2 
 PCOD8296814
Probable space group: I B C A 
;
_chemical_formula_sum "Si O2"
_cell_formula_units_Z 40
_cell_length_a 16.105643
_cell_length_b 9.927605
_cell_length_c 10.033281
_cell_angle_alpha 90.000000
_cell_angle_beta 90.000000
_cell_angle_gamma 90.000000
_cell_volume 1604.225934
_symmetry_space_group_name_H-M "I B C A "
_symmetry_group_IT_number 73
_symmetry_cell_setting 'orthorhombic'
loop_
_space_group_symop_operation_xyz
x,y,z
-x,1/2-y,z
x,-y,1/2-z
1/2-x,y,-z
-x,-y,-z
x,1/2+y,-z
-x,y,1/2+z
1/2+x,-y,z
1/2+x,1/2+y,1/2+z
1/2-x,-y,1/2+z
1/2+x,1/2-y,-z
-x,1/2+y,1/2-z
1/2-x,1/2-y,1/2-z
1/2+x,y,1/2-z
1/2-x,1/2+y,z
x,1/2-y,1/2+z
loop_
_atom_site_type_symbol
_atom_site_label
_atom_site_fract_x
_atom_site_fract_y
_atom_site_fract_z
Si Si1 0.593977 0.296864 0.089320
Si Si2 0.674894 0.500000 0.250000
Si Si3 0.164751 0.017655 0.398968
O O1 0.500000 0.250000 0.095259
O O2 0.619459 0.364951 0.232982
O O3 0.649719 0.169310 0.052338
O O4 0.610495 0.411574 0.980687
O O5 0.732982 0.497960 0.385821
O O6 0.129006 0.000000 0.250000
#
# Coordination Sequence:
#
# PCOD8296814 Si02
#       3
#    16   8  16
#     4  12  26  47  78 113 154 202 265 332 396 459
#     4  10  26  46  78 106 158 204 262 318 396 478
#     4  10  27  47  74 110 159 208 262 315 399 485
#
# _framework density 24.934145000000001
#
# number of rings (size 3 to 8) (size 9 to 14) (size 15 to 20)
#    1.200    0.000    0.000    3.600    8.400    4.800 
#    0.000    0.000    0.000    0.000    0.000    0.000 
#    0.000    0.000    0.000    0.000    0.000    0.000 
#
# Total GULP energy -247912.986850 kJ/mol
# GULP energy per Si atom -12395.649343 kJ/mol
# Density = 2.487739 g / cm^3
# Si number density = 24.934145 Si / 1000 Ang^3
#
#
#
# Elastic Constant Matrix: (Units=GPa)
#
#
# Indices 1 2 3 4 5 6 
#
# 1 200.5088 90.9968 52.2547 0.0000 0.0000 0.0000
# 2 90.9968 231.7294 54.9618 0.0000 0.0000 0.0000
# 3 52.2547 54.9618 91.0517 0.0000 0.0000 0.0000
# 4 0.0000 0.0000 0.0000 -45.7366 0.0000 0.0000
# 5 0.0000 0.0000 0.0000 0.0000 19.9933 0.0000
# 6 0.0000 0.0000 0.0000 0.0000 0.0000 59.5495
#
#
#
# Elastic Compliance Matrix: (Units=1/GPa)
#
#
# Indices 1 2 3 4 5 6 
#
# 1 0.006548 -0.001961 -0.002574 0.000000 0.000000 0.000000
# 2 -0.001961 0.005624 -0.002269 0.000000 0.000000 0.000000
# 3 -0.002574 -0.002269 0.013830 0.000000 0.000000 0.000000
# 4 0.000000 0.000000 0.000000 -0.021864 0.000000 0.000000
# 5 0.000000 0.000000 0.000000 0.000000 0.050017 0.000000
# 6 0.000000 0.000000 0.000000 0.000000 0.000000 0.016793
#
#
# Mechanical properties :
#
#
# Convention : Reuss Voigt Hill
#
# Bulk Modulus (GPa) = 80.69178 102.19072 91.44125
# Shear Modulus (GPa) = 56.37825 28.43301 42.40563
#
# Velocity S-wave (km/s) = 4.76025 3.38053 4.12843
# Velocity P-wave (km/s) = 7.91489 7.50404 7.71220
#
# Compressibility (1/GPa) = 0.01239284
#
# Stress axis : x y z
#
# Youngs Moduli (GPa) = 152.71697 177.82308 72.30642
#
# Poissons Ratio (x) = 0.34866 0.18614
# Poissons Ratio (y) = 0.29944 0.16409
# Poissons Ratio (z) = 0.39315 0.40353
#
# Static dielectric constant tensor:
#      x y z
#    x 4.347030 0.000000 0.000000 
#    y 0.000000 4.650840 0.000000 
#    z 0.000000 0.000000 5.072680 
# 
# 
# High freq. dielectric constant tensor:
#      x y z
#    x 1.991900 0.000000 0.000000 
#    y 0.000000 2.002500 0.000000 
#    z 0.000000 0.000000 2.021380 
# 
# From -- ./inp_files/3651.got.cif
#   From: 2010.03.12/outbox.cif.g09.slc.cpg/sg73_2_cif.got.tgz:3651.got - 2010.04.16 15:25:48.
