data_PCOD8296081
_publ_section_title
;
Structure prediction by ZEFSAII (Michael W. Deem and Ramdas Pophale) SiO2 
 PCOD8296081
Probable space group: I B C A 
;
_chemical_formula_sum "Si O2"
_cell_formula_units_Z 88
_cell_length_a 28.539801
_cell_length_b 9.730390
_cell_length_c 16.438704
_cell_angle_alpha 90.000000
_cell_angle_beta 90.000000
_cell_angle_gamma 90.000000
_cell_volume 4565.083898
_symmetry_space_group_name_H-M "I B C A "
_symmetry_group_IT_number 73
_symmetry_cell_setting 'orthorhombic'
loop_
_space_group_symop_operation_xyz
x,y,z
-x,1/2-y,z
x,-y,1/2-z
1/2-x,y,-z
-x,-y,-z
x,1/2+y,-z
-x,y,1/2+z
1/2+x,-y,z
1/2+x,1/2+y,1/2+z
1/2-x,-y,1/2+z
1/2+x,1/2-y,-z
-x,1/2+y,1/2-z
1/2-x,1/2-y,1/2-z
1/2+x,y,1/2-z
1/2-x,1/2+y,z
x,1/2-y,1/2+z
loop_
_atom_site_type_symbol
_atom_site_label
_atom_site_fract_x
_atom_site_fract_y
_atom_site_fract_z
Si Si1 0.243731 0.876664 0.307679
Si Si2 0.664979 0.232926 0.421682
Si Si3 0.498243 0.524824 0.593919
Si Si4 0.434680 0.747571 0.154497
Si Si5 0.500000 0.250000 0.197542
Si Si6 0.200620 0.465117 0.453243
O O1 0.250000 0.750000 0.250000
O O2 0.203303 0.842810 0.369449
O O3 0.290179 0.912485 0.360741
O O4 0.228487 0.000000 0.250000
O O5 0.620108 0.236572 0.362730
O O6 0.677972 0.384970 0.450010
O O7 0.663216 0.138292 0.503437
O O8 0.500000 0.500000 0.500000
O O9 0.543815 0.612472 0.614493
O O10 0.451680 0.610743 0.613944
O O11 0.498733 0.383322 0.642139
O O12 0.452265 0.748859 0.248393
O O13 0.250000 0.474843 0.500000
#
# Coordination Sequence:
#
# PCOD8296081 Si02
#       6
#    16  16  16  16   8  16
#     4  11  22  41  63  90 126 169 213 260 322 380
#     4  11  24  40  63  95 123 166 217 261 312 383
#     4  10  21  41  66  89 125 166 203 254 317 387
#     4  10  22  39  60  93 126 159 212 257 315 369
#     4  10  20  44  68  86 130 166 202 258 324 374
#     4  10  22  42  65  84 130 172 209 263 321 378
#
# _framework density 19.276754
#
# number of rings (size 3 to 8) (size 9 to 14) (size 15 to 20)
#    0.000    1.818    1.818    4.909    5.091    1.455 
#    6.545    0.000    0.000    0.000    0.000    0.000 
#    0.000    0.000    0.000    0.000    0.000    0.000 
#
# Total GULP energy -545301.228166 kJ/mol
# GULP energy per Si atom -12393.209731 kJ/mol
# Density = 1.923288 g / cm^3
# Si number density = 19.276754 Si / 1000 Ang^3
#
#
#
# Elastic Constant Matrix: (Units=GPa)
#
#
# Indices 1 2 3 4 5 6 
#
# 1 76.5129 41.1084 28.2186 0.0000 0.0000 0.0000
# 2 41.1084 188.7825 84.5817 0.0000 0.0000 0.0000
# 3 28.2186 84.5817 142.9186 0.0000 0.0000 0.0000
# 4 0.0000 0.0000 0.0000 56.8960 0.0000 0.0000
# 5 0.0000 0.0000 0.0000 0.0000 16.3389 0.0000
# 6 0.0000 0.0000 0.0000 0.0000 0.0000 12.6327
#
#
#
# Elastic Compliance Matrix: (Units=1/GPa)
#
#
# Indices 1 2 3 4 5 6 
#
# 1 0.015004 -0.002640 -0.001400 0.000000 0.000000 0.000000
# 2 -0.002640 0.007673 -0.004020 0.000000 0.000000 0.000000
# 3 -0.001400 -0.004020 0.009652 0.000000 0.000000 0.000000
# 4 0.000000 0.000000 0.000000 0.017576 0.000000 0.000000
# 5 0.000000 0.000000 0.000000 0.000000 0.061203 0.000000
# 6 0.000000 0.000000 0.000000 0.000000 0.000000 0.079160
#
#
# Mechanical properties :
#
#
# Convention : Reuss Voigt Hill
#
# Bulk Modulus (GPa) = 61.69013 79.55906 70.62459
# Shear Modulus (GPa) = 23.60808 34.12722 28.86765
#
# Velocity S-wave (km/s) = 3.50336 4.21216 3.87400
# Velocity P-wave (km/s) = 6.95963 8.06337 7.53175
#
# Compressibility (1/GPa) = 0.01621005
#
# Stress axis : x y z
#
# Youngs Moduli (GPa) = 66.64675 130.32775 103.60120
#
# Poissons Ratio (x) = 0.34406 0.14506
# Poissons Ratio (y) = 0.17595 0.41645
# Poissons Ratio (z) = 0.09332 0.52388
#
# Static dielectric constant tensor:
#      x y z
#    x 3.357010 0.000000 0.000000 
#    y 0.000000 3.539600 0.000000 
#    z 0.000000 0.000000 3.787690 
# 
# 
# High freq. dielectric constant tensor:
#      x y z
#    x 1.721370 0.000000 0.000000 
#    y 0.000000 1.775400 0.000000 
#    z 0.000000 0.000000 1.766600 
# 
# From -- ./inp_files/24111.got.cif
#   From: 2010.03.12/outbox.cif.g09.slc.cpg/sg73_13_cif.got.tgz:24111.got - 2010.04.16 15:25:48.
