data_PCOD8296402
_publ_section_title
;
Structure prediction by ZEFSAII (Michael W. Deem and Ramdas Pophale) SiO2 
 PCOD8296402
Probable space group: I B C A 
;
_chemical_formula_sum "Si O2"
_cell_formula_units_Z 112
_cell_length_a 12.290277
_cell_length_b 29.150554
_cell_length_c 14.348881
_cell_angle_alpha 90.000000
_cell_angle_beta 90.000000
_cell_angle_gamma 90.000000
_cell_volume 5140.750399
_symmetry_space_group_name_H-M "I B C A "
_symmetry_group_IT_number 73
_symmetry_cell_setting 'orthorhombic'
loop_
_space_group_symop_operation_xyz
x,y,z
-x,1/2-y,z
x,-y,1/2-z
1/2-x,y,-z
-x,-y,-z
x,1/2+y,-z
-x,y,1/2+z
1/2+x,-y,z
1/2+x,1/2+y,1/2+z
1/2-x,-y,1/2+z
1/2+x,1/2-y,-z
-x,1/2+y,1/2-z
1/2-x,1/2-y,1/2-z
1/2+x,y,1/2-z
1/2-x,1/2+y,z
x,1/2-y,1/2+z
loop_
_atom_site_type_symbol
_atom_site_label
_atom_site_fract_x
_atom_site_fract_y
_atom_site_fract_z
Si Si1 0.759821 0.463553 0.630339
Si Si2 0.036039 0.090038 0.623759
Si Si3 0.709319 0.437601 0.838768
Si Si4 0.232223 0.793242 0.107253
Si Si5 0.887449 0.612715 0.068396
Si Si6 0.591340 0.124555 0.681339
Si Si7 0.103867 0.777063 0.732762
O O1 0.890541 0.456348 0.623619
O O2 0.711661 0.450506 0.730893
O O3 0.738820 0.516453 0.603669
O O4 0.692801 0.430861 0.560567
O O5 0.063057 0.121475 0.534077
O O6 0.079545 0.119329 0.708810
O O7 0.908583 0.079348 0.628878
O O8 0.797340 0.397524 0.858987
O O9 0.178903 0.843742 0.106340
O O10 0.338969 0.793534 0.171840
O O11 0.158583 0.757548 0.161305
O O12 0.250000 0.777289 0.000000
O O13 0.988381 0.600257 0.134249
O O14 0.586211 0.179088 0.665311
O O15 0.000000 0.750000 0.770185
#
# Coordination Sequence:
#
# PCOD8296402 Si02
#       7
#    16  16  16  16  16  16  16
#     4  10  22  40  67  98 134 177 233 280 336 414
#     4  11  24  42  69  94 133 189 223 280 352 400
#     4  10  23  41  68  98 136 181 227 281 347 401
#     4  11  24  45  72 102 139 174 232 281 340 419
#     4  12  23  44  70  97 134 182 227 282 339 417
#     4  11  24  45  67  97 141 172 229 282 338 412
#     4  11  24  45  70 102 134 181 224 283 349 411
#
# _framework density 21.786702999999999
#
# number of rings (size 3 to 8) (size 9 to 14) (size 15 to 20)
#    0.000    1.143    2.857    3.857    2.000    2.857 
#    7.714    0.000    0.000    0.000    0.000    0.000 
#    0.000    0.000    0.000    0.000    0.000    0.000 
#
# Total GULP energy -694070.553972 kJ/mol
# GULP energy per Si atom -12394.117035 kJ/mol
# Density = 2.173712 g / cm^3
# Si number density = 21.786703 Si / 1000 Ang^3
#
#
#
# Elastic Constant Matrix: (Units=GPa)
#
#
# Indices 1 2 3 4 5 6 
#
# 1 189.0378 77.4646 44.7149 0.0000 0.0001 -0.0001
# 2 77.4646 138.6368 26.4938 0.0011 -0.0020 -0.0004
# 3 44.7149 26.4938 107.6285 0.0030 -0.0011 -0.0011
# 4 0.0000 0.0011 0.0030 28.2723 -0.0003 -0.0004
# 5 0.0001 -0.0020 -0.0011 -0.0003 27.5936 0.0003
# 6 -0.0001 -0.0004 -0.0011 -0.0004 0.0003 28.0694
#
#
#
# Elastic Compliance Matrix: (Units=1/GPa)
#
#
# Indices 1 2 3 4 5 6 
#
# 1 0.007298 -0.003671 -0.002128 0.000000 0.000000 0.000000
# 2 -0.003671 0.009416 -0.000793 0.000000 0.000001 0.000000
# 3 -0.002128 -0.000793 0.010371 -0.000001 0.000000 0.000000
# 4 0.000000 0.000000 -0.000001 0.035370 0.000000 0.000001
# 5 0.000000 0.000001 0.000000 0.000000 0.036240 0.000000
# 6 0.000000 0.000000 0.000000 0.000001 0.000000 0.035626
#
#
# Mechanical properties :
#
#
# Convention : Reuss Voigt Hill
#
# Bulk Modulus (GPa) = 71.94093 81.40550 76.67322
# Shear Modulus (GPa) = 32.86503 35.89573 34.38038
#
# Velocity S-wave (km/s) = 3.88814 4.06347 3.97677
# Velocity P-wave (km/s) = 7.29720 7.71113 7.50702
#
# Compressibility (1/GPa) = 0.01390029
#
# Stress axis : x y z
#
# Youngs Moduli (GPa) = 137.03081 106.20533 96.42715
#
# Poissons Ratio (x) = 0.38987 0.20522
# Poissons Ratio (y) = 0.50303 0.07643
# Poissons Ratio (z) = 0.29163 0.08419
#
# Static dielectric constant tensor:
#      x y z
#    x 4.011580 0.000000 0.000000 
#    y 0.000000 4.097790 0.000000 
#    z 0.000000 0.000000 3.943860 
# 
# 
# High freq. dielectric constant tensor:
#      x y z
#    x 1.866870 0.000000 0.000000 
#    y 0.000000 1.852930 0.000000 
#    z 0.000000 0.000000 1.860800 
# 
# From -- ./inp_files/11266.got.cif
#   From: 2010.03.12/outbox.cif.g09.slc.cpg/sg73_6_cif.got.tgz:11266.got - 2010.04.16 15:25:48.
