data_PCOD8296151
_publ_section_title
;
Structure prediction by ZEFSAII (Michael W. Deem and Ramdas Pophale) SiO2 
 PCOD8296151
Probable space group: I B C A 
;
_chemical_formula_sum "Si O2"
_cell_formula_units_Z 80
_cell_length_a 13.207445
_cell_length_b 11.535303
_cell_length_c 25.662400
_cell_angle_alpha 90.000000
_cell_angle_beta 90.000000
_cell_angle_gamma 90.000000
_cell_volume 3909.714884
_symmetry_space_group_name_H-M "I B C A "
_symmetry_group_IT_number 73
_symmetry_cell_setting 'orthorhombic'
loop_
_space_group_symop_operation_xyz
x,y,z
-x,1/2-y,z
x,-y,1/2-z
1/2-x,y,-z
-x,-y,-z
x,1/2+y,-z
-x,y,1/2+z
1/2+x,-y,z
1/2+x,1/2+y,1/2+z
1/2-x,-y,1/2+z
1/2+x,1/2-y,-z
-x,1/2+y,1/2-z
1/2-x,1/2-y,1/2-z
1/2+x,y,1/2-z
1/2-x,1/2+y,z
x,1/2-y,1/2+z
loop_
_atom_site_type_symbol
_atom_site_label
_atom_site_fract_x
_atom_site_fract_y
_atom_site_fract_z
Si Si1 0.749598 0.957957 0.060887
Si Si2 0.722545 0.351247 0.642165
Si Si3 0.064783 0.008243 0.309151
Si Si4 0.396737 0.203988 0.878615
Si Si5 0.075821 0.657245 0.115507
O O1 0.672669 0.854388 0.076686
O O2 0.866360 0.927770 0.075713
O O3 0.711629 0.075891 0.088282
O O4 0.750000 0.979679 0.000000
O O5 0.677056 0.432102 0.687992
O O6 0.839498 0.314081 0.648297
O O7 0.662079 0.230888 0.643921
O O8 0.985195 0.083533 0.342048
O O9 0.027836 0.000000 0.250000
O O10 0.073099 0.880373 0.331883
O O11 0.500000 0.250000 0.905293
O O12 0.000000 0.750000 0.087362
#
# Coordination Sequence:
#
# PCOD8296151 Si02
#       5
#    16  16  16  16  16
#     4  10  21  38  60  85 116 156 198 240 291 350
#     4   9  20  38  56  83 120 151 188 240 291 345
#     4  10  21  38  61  87 113 151 196 238 293 352
#     4  10  21  38  58  85 120 152 193 244 289 348
#     4   9  19  38  59  83 118 150 188 242 291 345
#
# _framework density 20.461849999999998
#
# number of rings (size 3 to 8) (size 9 to 14) (size 15 to 20)
#    0.000    2.400    0.000    1.200    0.000    7.200 
#    0.000   28.000    0.000    0.000    0.000    0.000 
#    0.000    0.000    0.000    0.000    0.000    0.000 
#
# Total GULP energy -495660.555290 kJ/mol
# GULP energy per Si atom -12391.513882 kJ/mol
# Density = 2.041528 g / cm^3
# Si number density = 20.461850 Si / 1000 Ang^3
#
#
#
# Elastic Constant Matrix: (Units=GPa)
#
#
# Indices 1 2 3 4 5 6 
#
# 1 130.1087 47.1770 36.2309 0.0000 0.0000 0.0000
# 2 47.1770 96.3166 40.3900 0.0000 0.0000 0.0000
# 3 36.2309 40.3900 117.8723 0.0000 0.0000 0.0000
# 4 0.0000 0.0000 0.0000 13.3549 0.0000 0.0000
# 5 0.0000 0.0000 0.0000 0.0000 21.6966 0.0000
# 6 0.0000 0.0000 0.0000 0.0000 0.0000 44.5189
#
#
#
# Elastic Compliance Matrix: (Units=1/GPa)
#
#
# Indices 1 2 3 4 5 6 
#
# 1 0.009586 -0.004040 -0.001562 0.000000 0.000000 0.000000
# 2 -0.004040 0.013828 -0.003496 0.000000 0.000000 0.000000
# 3 -0.001562 -0.003496 0.010162 0.000000 0.000000 0.000000
# 4 0.000000 0.000000 0.000000 0.074879 0.000000 0.000000
# 5 0.000000 0.000000 0.000000 0.000000 0.046090 0.000000
# 6 0.000000 0.000000 0.000000 0.000000 0.000000 0.022462
#
#
# Mechanical properties :
#
#
# Convention : Reuss Voigt Hill
#
# Bulk Modulus (GPa) = 65.02693 65.76593 65.39643
# Shear Modulus (GPa) = 24.95885 30.61406 27.78645
#
# Velocity S-wave (km/s) = 3.49632 3.87221 3.68905
# Velocity P-wave (km/s) = 6.93884 7.22513 7.08343
#
# Compressibility (1/GPa) = 0.01537824
#
# Stress axis : x y z
#
# Youngs Moduli (GPa) = 104.32070 72.31959 98.40677
#
# Poissons Ratio (x) = 0.29219 0.15371
# Poissons Ratio (y) = 0.42148 0.34406
# Poissons Ratio (z) = 0.16295 0.25285
#
# Static dielectric constant tensor:
#      x y z
#    x 4.171330 0.000000 0.000000 
#    y 0.000000 3.996460 0.000000 
#    z 0.000000 0.000000 3.124020 
# 
# 
# High freq. dielectric constant tensor:
#      x y z
#    x 1.818070 0.000000 0.000000 
#    y 0.000000 1.821420 0.000000 
#    z 0.000000 0.000000 1.743440 
# 
# From -- ./inp_files/10779.got.cif
#   From: 2010.03.12/outbox.cif.g09.slc.cpg/sg73_6_cif.got.tgz:10779.got - 2010.04.16 15:25:48.
