data_PCOD8296385
_publ_section_title
;
Structure prediction by ZEFSAII (Michael W. Deem and Ramdas Pophale) SiO2 
 PCOD8296385
Probable space group: I B C A 
;
_chemical_formula_sum "Si O2"
_cell_formula_units_Z 80
_cell_length_a 27.438757
_cell_length_b 9.238180
_cell_length_c 15.004591
_cell_angle_alpha 90.000000
_cell_angle_beta 90.000000
_cell_angle_gamma 90.000000
_cell_volume 3803.426388
_symmetry_space_group_name_H-M "I B C A "
_symmetry_group_IT_number 73
_symmetry_cell_setting 'orthorhombic'
loop_
_space_group_symop_operation_xyz
x,y,z
-x,1/2-y,z
x,-y,1/2-z
1/2-x,y,-z
-x,-y,-z
x,1/2+y,-z
-x,y,1/2+z
1/2+x,-y,z
1/2+x,1/2+y,1/2+z
1/2-x,-y,1/2+z
1/2+x,1/2-y,-z
-x,1/2+y,1/2-z
1/2-x,1/2-y,1/2-z
1/2+x,y,1/2-z
1/2-x,1/2+y,z
x,1/2-y,1/2+z
loop_
_atom_site_type_symbol
_atom_site_label
_atom_site_fract_x
_atom_site_fract_y
_atom_site_fract_z
Si Si1 0.889340 0.416189 0.550984
Si Si2 0.218689 0.800949 0.666886
Si Si3 0.220374 0.415503 0.076513
Si Si4 0.889848 0.762811 0.116860
Si Si5 0.047466 0.660836 0.281327
O O1 0.833743 0.363431 0.554643
O O2 0.906185 0.363859 0.452244
O O3 0.892839 0.589002 0.559800
O O4 0.918703 0.340718 0.631079
O O5 0.250000 0.750000 0.750000
O O6 0.218192 0.024423 0.839048
O O7 0.247537 0.728168 0.586554
O O8 0.163172 0.742991 0.662671
O O9 0.250000 0.502578 0.000000
O O10 0.926863 0.758021 0.199109
O O11 0.033548 0.500000 0.250000
O O12 0.000000 0.750000 0.308381
#
# Coordination Sequence:
#
# PCOD8296385 Si02
#       5
#    16  16  16  16  16
#     4  10  22  40  64  89 126 165 205 257 314 365
#     4  11  22  36  57  87 124 165 205 251 300 362
#     4  11  21  36  58  87 124 163 204 245 299 363
#     4  10  22  41  62  91 124 163 207 259 313 372
#     4  10  23  44  66  90 122 161 207 263 321 375
#
# _framework density 21.033667000000001
#
# number of rings (size 3 to 8) (size 9 to 14) (size 15 to 20)
#    0.000    1.600    2.000    2.400    2.800    5.600 
#    0.000    6.000    0.000    0.000    0.000    0.000 
#    0.000    0.000    0.000    0.000    0.000    0.000 
#
# Total GULP energy -495685.826990 kJ/mol
# GULP energy per Si atom -12392.145675 kJ/mol
# Density = 2.098579 g / cm^3
# Si number density = 21.033667 Si / 1000 Ang^3
#
#
#
# Elastic Constant Matrix: (Units=GPa)
#
#
# Indices 1 2 3 4 5 6 
#
# 1 117.2096 28.3148 46.1390 0.0000 0.0000 0.0000
# 2 28.3148 44.5890 24.5079 0.0000 0.0000 0.0000
# 3 46.1390 24.5079 121.7876 0.0000 0.0000 0.0000
# 4 0.0000 0.0000 0.0000 33.1216 0.0000 0.0000
# 5 0.0000 0.0000 0.0000 0.0000 31.4402 0.0000
# 6 0.0000 0.0000 0.0000 0.0000 0.0000 31.2801
#
#
#
# Elastic Compliance Matrix: (Units=1/GPa)
#
#
# Indices 1 2 3 4 5 6 
#
# 1 0.011038 -0.005297 -0.003116 0.000000 0.000000 0.000000
# 2 -0.005297 0.027758 -0.003579 0.000000 0.000000 0.000000
# 3 -0.003116 -0.003579 0.010112 0.000000 0.000000 0.000000
# 4 0.000000 0.000000 0.000000 0.030192 0.000000 0.000000
# 5 0.000000 0.000000 0.000000 0.000000 0.031806 0.000000
# 6 0.000000 0.000000 0.000000 0.000000 0.000000 0.031969
#
#
# Mechanical properties :
#
#
# Convention : Reuss Voigt Hill
#
# Bulk Modulus (GPa) = 40.12193 53.50107 46.81150
# Shear Modulus (GPa) = 28.54438 31.47668 30.01053
#
# Velocity S-wave (km/s) = 3.68785 3.87265 3.78138
# Velocity P-wave (km/s) = 6.10329 6.74445 6.43187
#
# Compressibility (1/GPa) = 0.02492402
#
# Stress axis : x y z
#
# Youngs Moduli (GPa) = 90.59808 36.02592 98.89552
#
# Poissons Ratio (x) = 0.19082 0.30814
# Poissons Ratio (y) = 0.47986 0.35397
# Poissons Ratio (z) = 0.28228 0.12894
#
# Static dielectric constant tensor:
#      x y z
#    x 3.722550 0.000000 0.000000 
#    y 0.000000 4.762400 0.000000 
#    z 0.000000 0.000000 3.591080 
# 
# 
# High freq. dielectric constant tensor:
#      x y z
#    x 1.818670 0.000000 0.000000 
#    y 0.000000 1.817030 0.000000 
#    z 0.000000 0.000000 1.837280 
# 
# From -- ./inp_files/19710.got.cif
#   From: 2010.03.12/outbox.cif.g09.slc.cpg/sg73_10_cif.got.tgz:19710.got - 2010.04.16 15:25:48.
