data_PCOD8296150
_publ_section_title
;
Structure prediction by ZEFSAII (Michael W. Deem and Ramdas Pophale) SiO2 
 PCOD8296150
Probable space group: I B C A 
;
_chemical_formula_sum "Si O2"
_cell_formula_units_Z 112
_cell_length_a 16.834546
_cell_length_b 12.319110
_cell_length_c 26.920387
_cell_angle_alpha 90.000000
_cell_angle_beta 90.000000
_cell_angle_gamma 90.000000
_cell_volume 5582.928176
_symmetry_space_group_name_H-M "I B C A "
_symmetry_group_IT_number 73
_symmetry_cell_setting 'orthorhombic'
loop_
_space_group_symop_operation_xyz
x,y,z
-x,1/2-y,z
x,-y,1/2-z
1/2-x,y,-z
-x,-y,-z
x,1/2+y,-z
-x,y,1/2+z
1/2+x,-y,z
1/2+x,1/2+y,1/2+z
1/2-x,-y,1/2+z
1/2+x,1/2-y,-z
-x,1/2+y,1/2-z
1/2-x,1/2-y,1/2-z
1/2+x,y,1/2-z
1/2-x,1/2+y,z
x,1/2-y,1/2+z
loop_
_atom_site_type_symbol
_atom_site_label
_atom_site_fract_x
_atom_site_fract_y
_atom_site_fract_z
Si Si1 0.538572 0.639811 0.122458
Si Si2 0.835603 0.761328 0.447177
Si Si3 0.341829 0.813941 0.941803
Si Si4 0.678392 0.952656 0.303824
Si Si5 0.381265 0.458751 0.404636
Si Si6 0.361397 0.502677 0.805908
Si Si7 0.905526 0.239705 0.340655
O O1 0.500000 0.750000 0.144450
O O2 0.600262 0.666256 0.079792
O O3 0.474487 0.565053 0.095174
O O4 0.578599 0.576312 0.166778
O O5 0.752238 0.814739 0.433438
O O6 0.859409 0.760683 0.505100
O O7 0.831329 0.638472 0.428264
O O8 0.389278 0.749151 0.899458
O O9 0.367855 0.938678 0.939716
O O10 0.642536 0.831669 0.309932
O O11 0.653698 0.000000 0.250000
O O12 0.643622 0.027420 0.347264
O O13 0.773228 0.953272 0.310282
O O14 0.391077 0.500000 0.750000
O O15 0.368700 0.625040 0.825288
O O16 0.000000 0.250000 0.330265
#
# Coordination Sequence:
#
# PCOD8296150 Si02
#       7
#    16  16  16  16  16  16  16
#     4  10  22  39  60  87 119 155 197 245 297 357
#     4  10  22  38  61  87 112 155 201 241 292 356
#     4  10  22  39  60  86 118 155 196 242 297 355
#     4  10  23  42  64  87 119 160 202 249 301 359
#     4  10  21  38  58  85 119 152 192 245 297 350
#     4  11  24  40  63  91 120 162 205 247 304 362
#     4  11  24  40  61  92 127 159 200 255 308 362
#
# _framework density 20.061157999999999
#
# number of rings (size 3 to 8) (size 9 to 14) (size 15 to 20)
#    0.000    1.714    0.000    4.286    0.000   14.286 
#    0.000    0.000    0.000    0.000    0.000    0.000 
#    0.000    0.000    0.000    0.000    0.000    0.000 
#
# Total GULP energy -694460.804360 kJ/mol
# GULP energy per Si atom -12401.085792 kJ/mol
# Density = 2.001550 g / cm^3
# Si number density = 20.061158 Si / 1000 Ang^3
#
#
#
# Elastic Constant Matrix: (Units=GPa)
#
#
# Indices 1 2 3 4 5 6 
#
# 1 114.7768 82.0745 35.9584 0.0000 0.0000 0.0000
# 2 82.0745 152.9247 81.8373 0.0000 0.0000 0.0000
# 3 35.9584 81.8373 104.1125 0.0000 0.0000 0.0000
# 4 0.0000 0.0000 0.0000 18.9021 0.0000 0.0000
# 5 0.0000 0.0000 0.0000 0.0000 72.7246 0.0000
# 6 0.0000 0.0000 0.0000 0.0000 0.0000 35.2376
#
#
#
# Elastic Compliance Matrix: (Units=1/GPa)
#
#
# Indices 1 2 3 4 5 6 
#
# 1 0.014352 -0.008717 0.001895 0.000000 0.000000 0.000000
# 2 -0.008717 0.016581 -0.010023 0.000000 0.000000 0.000000
# 3 0.001895 -0.010023 0.016829 0.000000 0.000000 0.000000
# 4 0.000000 0.000000 0.000000 0.052904 0.000000 0.000000
# 5 0.000000 0.000000 0.000000 0.000000 0.013751 0.000000
# 6 0.000000 0.000000 0.000000 0.000000 0.000000 0.028379
#
#
# Mechanical properties :
#
#
# Convention : Reuss Voigt Hill
#
# Bulk Modulus (GPa) = 71.06018 85.72828 78.39423
# Shear Modulus (GPa) = 27.59735 36.83577 32.21656
#
# Velocity S-wave (km/s) = 3.71301 4.28971 4.01174
# Velocity P-wave (km/s) = 7.34034 8.20742 7.78596
#
# Compressibility (1/GPa) = 0.01407258
#
# Stress axis : x y z
#
# Youngs Moduli (GPa) = 69.67602 60.30885 59.42070
#
# Poissons Ratio (x) = 0.52570 -0.11260
# Poissons Ratio (y) = 0.60735 0.59558
# Poissons Ratio (z) = -0.13203 0.60448
#
# Static dielectric constant tensor:
#      x y z
#    x 3.832690 0.000000 0.000000 
#    y 0.000000 3.319310 0.000000 
#    z 0.000000 0.000000 3.733710 
# 
# 
# High freq. dielectric constant tensor:
#      x y z
#    x 1.797770 0.000000 0.000000 
#    y 0.000000 1.791040 0.000000 
#    z 0.000000 0.000000 1.787940 
# 
# From -- ./inp_files/14798.got.cif
#   From: 2010.03.12/outbox.cif.g09.slc.cpg/sg73_8_cif.got.tgz:14798.got - 2010.04.16 15:25:48.
