data_PCOD8296733
_publ_section_title
;
Structure prediction by ZEFSAII (Michael W. Deem and Ramdas Pophale) SiO2 
 PCOD8296733
Probable space group: I B C A 
;
_chemical_formula_sum "Si O2"
_cell_formula_units_Z 120
_cell_length_a 21.825392
_cell_length_b 11.201638
_cell_length_c 23.703998
_cell_angle_alpha 90.000000
_cell_angle_beta 90.000000
_cell_angle_gamma 90.000000
_cell_volume 5795.156759
_symmetry_space_group_name_H-M "I B C A "
_symmetry_group_IT_number 73
_symmetry_cell_setting 'orthorhombic'
loop_
_space_group_symop_operation_xyz
x,y,z
-x,1/2-y,z
x,-y,1/2-z
1/2-x,y,-z
-x,-y,-z
x,1/2+y,-z
-x,y,1/2+z
1/2+x,-y,z
1/2+x,1/2+y,1/2+z
1/2-x,-y,1/2+z
1/2+x,1/2-y,-z
-x,1/2+y,1/2-z
1/2-x,1/2-y,1/2-z
1/2+x,y,1/2-z
1/2-x,1/2+y,z
x,1/2-y,1/2+z
loop_
_atom_site_type_symbol
_atom_site_label
_atom_site_fract_x
_atom_site_fract_y
_atom_site_fract_z
Si Si1 0.500000 0.250000 0.614372
Si Si2 0.869277 0.912303 0.409363
Si Si3 0.833076 0.491575 0.314926
Si Si4 0.498846 0.504663 0.934358
Si Si5 0.634734 0.239436 0.630923
Si Si6 0.182209 0.890241 0.521763
Si Si7 0.810355 0.518923 0.688788
Si Si8 0.887713 0.861355 0.911300
O O1 0.523266 0.363137 0.578781
O O2 0.562779 0.213875 0.646519
O O3 0.882197 0.777842 0.425836
O O4 0.930781 0.989896 0.411218
O O5 0.817929 0.980398 0.447275
O O6 0.844010 0.916087 0.346335
O O7 0.859165 0.500000 0.250000
O O8 0.852195 0.373847 0.349452
O O9 0.761051 0.495974 0.312357
O O10 0.855857 0.603965 0.352229
O O11 0.541956 0.403526 0.906907
O O12 0.500000 0.500000 0.000000
O O13 0.653451 0.210843 0.564779
O O14 0.676122 0.152609 0.668370
O O15 0.250000 0.853283 0.500000
O O16 0.141814 0.918962 0.466717
O O17 0.837997 0.500000 0.750000
#
# Coordination Sequence:
#
# PCOD8296733 Si02
#       8
#     8  16  16  16  16  16  16  16
#     4  12  22  46  66  94 136 182 228 282 340 418
#     4  11  25  42  63 101 135 174 229 281 348 415
#     4  11  27  45  71 103 135 186 236 285 348 413
#     4  12  24  41  66  96 135 184 230 275 351 415
#     4  11  24  47  71 100 140 181 234 284 350 423
#     4  11  25  43  66 103 135 183 222 282 358 415
#     4  10  24  45  71  97 131 181 228 282 346 406
#     4  12  25  41  68 100 139 176 226 290 340 415
#
# _framework density 20.706945000000001
#
# number of rings (size 3 to 8) (size 9 to 14) (size 15 to 20)
#    0.000    0.800    5.333    2.000   11.200    1.600 
#    0.000    2.667    0.000    0.000    0.000    0.000 
#    0.000    0.000    0.000    0.000    0.000    0.000 
#
# Total GULP energy -743553.094856 kJ/mol
# GULP energy per Si atom -12392.551581 kJ/mol
# Density = 2.065982 g / cm^3
# Si number density = 20.706945 Si / 1000 Ang^3
#
#
#
# Elastic Constant Matrix: (Units=GPa)
#
#
# Indices 1 2 3 4 5 6 
#
# 1 105.1497 11.2764 35.8963 0.0000 0.0000 0.0000
# 2 11.2764 118.3078 24.6268 0.0000 0.0000 0.0000
# 3 35.8963 24.6268 139.0270 0.0000 0.0000 0.0000
# 4 0.0000 0.0000 0.0000 22.9943 0.0000 0.0000
# 5 0.0000 0.0000 0.0000 0.0000 18.5585 0.0000
# 6 0.0000 0.0000 0.0000 0.0000 0.0000 33.5405
#
#
#
# Elastic Compliance Matrix: (Units=1/GPa)
#
#
# Indices 1 2 3 4 5 6 
#
# 1 0.010453 -0.000451 -0.002619 0.000000 0.000000 0.000000
# 2 -0.000451 0.008796 -0.001442 0.000000 0.000000 0.000000
# 3 -0.002619 -0.001442 0.008124 0.000000 0.000000 0.000000
# 4 0.000000 0.000000 0.000000 0.043489 0.000000 0.000000
# 5 0.000000 0.000000 0.000000 0.000000 0.053884 0.000000
# 6 0.000000 0.000000 0.000000 0.000000 0.000000 0.029815
#
#
# Mechanical properties :
#
#
# Convention : Reuss Voigt Hill
#
# Bulk Modulus (GPa) = 54.49751 56.23149 55.36450
# Shear Modulus (GPa) = 29.46376 34.39764 31.93070
#
# Velocity S-wave (km/s) = 3.77622 4.08016 3.93113
# Velocity P-wave (km/s) = 6.73711 7.02935 6.88478
#
# Compressibility (1/GPa) = 0.01834946
#
# Stress axis : x y z
#
# Youngs Moduli (GPa) = 95.66914 113.69323 123.08610
#
# Poissons Ratio (x) = 0.05129 0.32235
# Poissons Ratio (y) = 0.04316 0.17743
# Poissons Ratio (z) = 0.25055 0.16389
#
# Static dielectric constant tensor:
#      x y z
#    x 2.827680 0.000000 0.000000 
#    y 0.000000 3.134960 0.000000 
#    z 0.000000 0.000000 3.938360 
# 
# 
# High freq. dielectric constant tensor:
#      x y z
#    x 1.818520 0.000000 0.000000 
#    y 0.000000 1.815970 0.000000 
#    z 0.000000 0.000000 1.803930 
# 
# From -- ./inp_files/30187.got.cif
#   From: 2010.03.12/outbox.cif.g09.slc.cpg/sg73_16_cif.got.tgz:30187.got - 2010.04.16 15:25:48.
