data_PCOD8296790
_publ_section_title
;
Structure prediction by ZEFSAII (Michael W. Deem and Ramdas Pophale) SiO2 
 PCOD8296790
Probable space group: I B C A 
;
_chemical_formula_sum "Si O2"
_cell_formula_units_Z 80
_cell_length_a 27.616965
_cell_length_b 5.206897
_cell_length_c 23.583258
_cell_angle_alpha 90.000000
_cell_angle_beta 90.000000
_cell_angle_gamma 90.000000
_cell_volume 3391.241658
_symmetry_space_group_name_H-M "I B C A "
_symmetry_group_IT_number 73
_symmetry_cell_setting 'orthorhombic'
loop_
_space_group_symop_operation_xyz
x,y,z
-x,1/2-y,z
x,-y,1/2-z
1/2-x,y,-z
-x,-y,-z
x,1/2+y,-z
-x,y,1/2+z
1/2+x,-y,z
1/2+x,1/2+y,1/2+z
1/2-x,-y,1/2+z
1/2+x,1/2-y,-z
-x,1/2+y,1/2-z
1/2-x,1/2-y,1/2-z
1/2+x,y,1/2-z
1/2-x,1/2+y,z
x,1/2-y,1/2+z
loop_
_atom_site_type_symbol
_atom_site_label
_atom_site_fract_x
_atom_site_fract_y
_atom_site_fract_z
Si Si1 0.375814 0.559541 0.372156
Si Si2 0.948551 0.135523 0.305753
Si Si3 0.633308 0.400250 0.030149
Si Si4 0.447926 0.162940 0.421334
Si Si5 0.278618 0.979428 0.683278
O O1 0.411046 0.640540 0.321263
O O2 0.354585 0.809913 0.405748
O O3 0.406570 0.387882 0.417339
O O4 0.330003 0.415360 0.345853
O O5 0.000000 0.250000 0.288670
O O6 0.926942 0.000000 0.250000
O O7 0.955405 0.944282 0.358209
O O8 0.574134 0.450889 0.034538
O O9 0.654331 0.676807 0.011355
O O10 0.500000 0.250000 0.444544
O O11 0.243438 0.750752 0.663603
O O12 0.286825 0.000000 0.750000
#
# Coordination Sequence:
#
# PCOD8296790 Si02
#       5
#    16  16  16  16  16
#     4  11  25  43  69  96 136 181 223 287 342 401
#     4  11  24  36  59  95 140 187 226 269 324 411
#     4  11  24  44  67  98 132 179 230 281 339 398
#     4  11  23  41  62  95 138 182 235 276 328 406
#     4  10  25  45  71 103 135 172 225 277 338 413
#
# _framework density 23.59018
#
# number of rings (size 3 to 8) (size 9 to 14) (size 15 to 20)
#    0.000    1.200    4.000    0.600    8.400    1.600 
#    0.000    0.000    0.000    3.600    0.000    0.000 
#    0.000    0.000    0.000    0.000    0.000    0.000 
#
# Total GULP energy -495595.284039 kJ/mol
# GULP energy per Si atom -12389.882101 kJ/mol
# Density = 2.353649 g / cm^3
# Si number density = 23.590180 Si / 1000 Ang^3
#
#
#
# Elastic Constant Matrix: (Units=GPa)
#
#
# Indices 1 2 3 4 5 6 
#
# 1 116.5077 34.9829 15.8207 0.0000 0.0000 0.0000
# 2 34.9829 129.4390 17.6253 0.0000 0.0000 0.0000
# 3 15.8207 17.6253 36.2079 0.0000 0.0000 0.0000
# 4 0.0000 0.0000 0.0000 40.8979 0.0000 0.0000
# 5 0.0000 0.0000 0.0000 0.0000 18.9178 0.0000
# 6 0.0000 0.0000 0.0000 0.0000 0.0000 27.4797
#
#
#
# Elastic Compliance Matrix: (Units=1/GPa)
#
#
# Indices 1 2 3 4 5 6 
#
# 1 0.009668 -0.002182 -0.003162 0.000000 0.000000 0.000000
# 2 -0.002182 0.008767 -0.003314 0.000000 0.000000 0.000000
# 3 -0.003162 -0.003314 0.030613 0.000000 0.000000 0.000000
# 4 0.000000 0.000000 0.000000 0.024451 0.000000 0.000000
# 5 0.000000 0.000000 0.000000 0.000000 0.052860 0.000000
# 6 0.000000 0.000000 0.000000 0.000000 0.000000 0.036391
#
#
# Mechanical properties :
#
#
# Convention : Reuss Voigt Hill
#
# Bulk Modulus (GPa) = 31.51475 46.55692 39.03583
# Shear Modulus (GPa) = 26.22705 31.70745 28.96725
#
# Velocity S-wave (km/s) = 3.33795 3.67017 3.50799
# Velocity P-wave (km/s) = 5.31452 6.14319 5.74382
#
# Compressibility (1/GPa) = 0.03173118
#
# Stress axis : x y z
#
# Youngs Moduli (GPa) = 103.43664 114.06808 32.66583
#
# Poissons Ratio (x) = 0.24893 0.10329
# Poissons Ratio (y) = 0.22573 0.10825
# Poissons Ratio (z) = 0.32706 0.37801
#
# Static dielectric constant tensor:
#      x y z
#    x 3.794110 0.000000 0.000000 
#    y 0.000000 4.488240 0.000000 
#    z 0.000000 0.000000 4.227550 
# 
# 
# High freq. dielectric constant tensor:
#      x y z
#    x 1.893230 0.000000 0.000000 
#    y 0.000000 1.943560 0.000000 
#    z 0.000000 0.000000 1.942600 
# 
# From -- ./inp_files/30923.got.cif
#   From: 2010.03.12/outbox.cif.g09.slc.cpg/sg73_16_cif.got.tgz:30923.got - 2010.04.16 15:25:48.
