data_PCOD8296213
_publ_section_title
;
Structure prediction by ZEFSAII (Michael W. Deem and Ramdas Pophale) SiO2 
 PCOD8296213
Probable space group: I B C A 
;
_chemical_formula_sum "Si O2"
_cell_formula_units_Z 104
_cell_length_a 16.650604
_cell_length_b 22.609175
_cell_length_c 13.345364
_cell_angle_alpha 90.000000
_cell_angle_beta 90.000000
_cell_angle_gamma 90.000000
_cell_volume 5023.947951
_symmetry_space_group_name_H-M "I B C A "
_symmetry_group_IT_number 73
_symmetry_cell_setting 'orthorhombic'
loop_
_space_group_symop_operation_xyz
x,y,z
-x,1/2-y,z
x,-y,1/2-z
1/2-x,y,-z
-x,-y,-z
x,1/2+y,-z
-x,y,1/2+z
1/2+x,-y,z
1/2+x,1/2+y,1/2+z
1/2-x,-y,1/2+z
1/2+x,1/2-y,-z
-x,1/2+y,1/2-z
1/2-x,1/2-y,1/2-z
1/2+x,y,1/2-z
1/2-x,1/2+y,z
x,1/2-y,1/2+z
loop_
_atom_site_type_symbol
_atom_site_label
_atom_site_fract_x
_atom_site_fract_y
_atom_site_fract_z
Si Si1 0.526202 0.891742 0.957353
Si Si2 0.826020 0.026141 0.448445
Si Si3 0.047352 0.691368 0.397685
Si Si4 0.756411 0.500000 0.250000
Si Si5 0.078726 0.709991 0.184173
Si Si6 0.676769 0.792838 0.436994
Si Si7 0.350729 0.576953 0.402829
O O1 0.588739 0.944701 0.972879
O O2 0.572126 0.841896 0.895596
O O3 0.447266 0.914150 0.897676
O O4 0.505099 0.865597 0.068209
O O5 0.750000 0.059671 0.500000
O O6 0.805816 0.026409 0.330848
O O7 0.830342 0.960073 0.496478
O O8 0.093350 0.678933 0.292873
O O9 0.101014 0.706952 0.491286
O O10 0.000000 0.750000 0.371789
O O11 0.816937 0.453968 0.302862
O O12 0.156168 0.750548 0.157128
O O13 0.000000 0.750000 0.179246
O O14 0.750000 0.765887 0.500000
O O15 0.694559 0.859955 0.403709
#
# Coordination Sequence:
#
# PCOD8296213 Si02
#       7
#    16  16  16   8  16  16  16
#     4  11  21  40  65  90 123 165 216 254 314 386
#     4  10  23  40  60  91 127 161 207 268 325 367
#     4  10  21  40  61  83 123 161 199 253 306 364
#     4  10  22  42  60  88 130 156 206 272 316 368
#     4  11  21  39  60  91 120 160 206 256 306 368
#     4  11  21  39  64  89 124 165 209 254 313 381
#     4  10  22  41  64  86 122 170 209 251 316 384
#
# _framework density 20.700852000000001
#
# number of rings (size 3 to 8) (size 9 to 14) (size 15 to 20)
#    0.000    1.538    4.615    1.846    0.000    8.000 
#    0.000    0.000    0.000    0.000    0.000    0.000 
#    0.000    0.000    0.000    0.000    0.000    0.000 
#
# Total GULP energy -644462.370818 kJ/mol
# GULP energy per Si atom -12393.507131 kJ/mol
# Density = 2.065374 g / cm^3
# Si number density = 20.700852 Si / 1000 Ang^3
#
#
#
# Elastic Constant Matrix: (Units=GPa)
#
#
# Indices 1 2 3 4 5 6 
#
# 1 92.4409 36.0890 33.0670 0.0000 0.0000 0.0000
# 2 36.0890 94.6695 57.8503 0.0000 0.0000 0.0000
# 3 33.0670 57.8503 153.3602 0.0000 0.0000 0.0000
# 4 0.0000 0.0000 0.0000 20.7076 0.0000 0.0000
# 5 0.0000 0.0000 0.0000 0.0000 24.7310 0.0000
# 6 0.0000 0.0000 0.0000 0.0000 0.0000 28.6286
#
#
#
# Elastic Compliance Matrix: (Units=1/GPa)
#
#
# Indices 1 2 3 4 5 6 
#
# 1 0.012877 -0.004175 -0.001202 0.000000 0.000000 0.000000
# 2 -0.004175 0.015081 -0.004789 0.000000 0.000000 0.000000
# 3 -0.001202 -0.004789 0.008586 0.000000 0.000000 0.000000
# 4 0.000000 0.000000 0.000000 0.048291 0.000000 0.000000
# 5 0.000000 0.000000 0.000000 0.000000 0.040435 0.000000
# 6 0.000000 0.000000 0.000000 0.000000 0.000000 0.034930
#
#
# Mechanical properties :
#
#
# Convention : Reuss Voigt Hill
#
# Bulk Modulus (GPa) = 61.67476 66.05368 63.86422
# Shear Modulus (GPa) = 26.89105 29.04440 27.96772
#
# Velocity S-wave (km/s) = 3.60812 3.74980 3.67964
# Velocity P-wave (km/s) = 6.87139 7.12221 6.99793
#
# Compressibility (1/GPa) = 0.01621409
#
# Stress axis : x y z
#
# Youngs Moduli (GPa) = 77.65540 66.31015 116.46757
#
# Poissons Ratio (x) = 0.27682 0.13998
# Poissons Ratio (y) = 0.32418 0.55772
# Poissons Ratio (z) = 0.09333 0.31753
#
# Static dielectric constant tensor:
#      x y z
#    x 3.784420 0.000000 0.000000 
#    y 0.000000 -17.577260 0.000000 
#    z 0.000000 0.000000 4.084210 
# 
# 
# High freq. dielectric constant tensor:
#      x y z
#    x 1.808220 0.000000 0.000000 
#    y 0.000000 1.800450 0.000000 
#    z 0.000000 0.000000 1.811130 
# 
# From -- ./inp_files/18121.got.cif
#   From: 2010.03.12/outbox.cif.g09.slc.cpg/sg73_10_cif.got.tgz:18121.got - 2010.04.16 15:25:48.
