data_PCOD8296787
_publ_section_title
;
Structure prediction by ZEFSAII (Michael W. Deem and Ramdas Pophale) SiO2 
 PCOD8296787
Probable space group: I B C A 
;
_chemical_formula_sum "Si O2"
_cell_formula_units_Z 96
_cell_length_a 17.608362
_cell_length_b 15.235781
_cell_length_c 14.525811
_cell_angle_alpha 90.000000
_cell_angle_beta 90.000000
_cell_angle_gamma 90.000000
_cell_volume 3896.943136
_symmetry_space_group_name_H-M "I B C A "
_symmetry_group_IT_number 73
_symmetry_cell_setting 'orthorhombic'
loop_
_space_group_symop_operation_xyz
x,y,z
-x,1/2-y,z
x,-y,1/2-z
1/2-x,y,-z
-x,-y,-z
x,1/2+y,-z
-x,y,1/2+z
1/2+x,-y,z
1/2+x,1/2+y,1/2+z
1/2-x,-y,1/2+z
1/2+x,1/2-y,-z
-x,1/2+y,1/2-z
1/2-x,1/2-y,1/2-z
1/2+x,y,1/2-z
1/2-x,1/2+y,z
x,1/2-y,1/2+z
loop_
_atom_site_type_symbol
_atom_site_label
_atom_site_fract_x
_atom_site_fract_y
_atom_site_fract_z
Si Si1 0.800610 0.866648 0.417590
Si Si2 0.808897 0.042395 0.341496
Si Si3 0.958345 0.091899 0.987738
Si Si4 0.685963 0.811145 0.160894
Si Si5 0.076147 0.196781 0.326223
Si Si6 0.610005 0.664847 0.468407
O O1 0.750000 0.830240 0.500000
O O2 0.889113 0.885105 0.443839
O O3 0.793163 0.793100 0.336226
O O4 0.764107 0.959386 0.385827
O O5 0.753579 0.122344 0.315854
O O6 0.872900 0.074628 0.412866
O O7 0.847745 0.000000 0.250000
O O8 0.936307 0.104343 0.879579
O O9 0.023529 0.165336 0.004741
O O10 0.000000 0.000000 0.000000
O O11 0.619038 0.827132 0.232940
O O12 0.664252 0.828764 0.055396
O O13 0.125779 0.254930 0.398245
O O14 0.000000 0.250000 0.300068
#
# Coordination Sequence:
#
# PCOD8296787 Si02
#       6
#    16  16  16  16  16  16
#     4  12  26  47  76 107 152 205 250 316 388 459
#     4  12  28  46  73 113 153 199 264 320 384 467
#     4  11  24  47  78 107 152 201 254 318 387 457
#     4  12  27  46  80 110 156 209 256 319 393 458
#     4  10  25  44  73 113 147 195 263 318 380 466
#     4  11  23  48  73 110 152 201 257 315 386 464
#
# _framework density 24.634692999999999
#
# number of rings (size 3 to 8) (size 9 to 14) (size 15 to 20)
#    0.000    0.667    3.333    3.500    4.667    1.333 
#    0.000    0.000    0.000    0.000    0.000    0.000 
#    0.000    0.000    0.000    0.000    0.000    0.000 
#
# Total GULP energy -594823.899192 kJ/mol
# GULP energy per Si atom -12392.164567 kJ/mol
# Density = 2.457862 g / cm^3
# Si number density = 24.634693 Si / 1000 Ang^3
#
#
#
# Elastic Constant Matrix: (Units=GPa)
#
#
# Indices 1 2 3 4 5 6 
#
# 1 68.3557 48.5247 16.1353 0.0000 0.0000 0.0000
# 2 48.5247 170.6045 53.9427 0.0000 0.0000 0.0000
# 3 16.1353 53.9427 109.2836 0.0000 0.0000 0.0000
# 4 0.0000 0.0000 0.0000 49.7770 0.0000 0.0000
# 5 0.0000 0.0000 0.0000 0.0000 37.3355 0.0000
# 6 0.0000 0.0000 0.0000 0.0000 0.0000 35.3333
#
#
#
# Elastic Compliance Matrix: (Units=1/GPa)
#
#
# Indices 1 2 3 4 5 6 
#
# 1 0.018333 -0.005165 -0.000158 0.000000 0.000000 0.000000
# 2 -0.005165 0.008400 -0.003384 0.000000 0.000000 0.000000
# 3 -0.000158 -0.003384 0.010844 0.000000 0.000000 0.000000
# 4 0.000000 0.000000 0.000000 0.020090 0.000000 0.000000
# 5 0.000000 0.000000 0.000000 0.000000 0.026784 0.000000
# 6 0.000000 0.000000 0.000000 0.000000 0.000000 0.028302
#
#
# Mechanical properties :
#
#
# Convention : Reuss Voigt Hill
#
# Bulk Modulus (GPa) = 49.59026 65.04991 57.32008
# Shear Modulus (GPa) = 36.52655 39.79857 38.16256
#
# Velocity S-wave (km/s) = 3.85480 4.02375 3.94018
# Velocity P-wave (km/s) = 6.32349 6.93185 6.63465
#
# Compressibility (1/GPa) = 0.02016525
#
# Stress axis : x y z
#
# Youngs Moduli (GPa) = 54.54705 119.04178 92.21620
#
# Poissons Ratio (x) = 0.61480 0.01453
# Poissons Ratio (y) = 0.28171 0.31205
# Poissons Ratio (z) = 0.00859 0.40283
#
# Static dielectric constant tensor:
#      x y z
#    x 4.431690 0.000000 0.000000 
#    y 0.000000 4.838600 0.000000 
#    z 0.000000 0.000000 4.491200 
# 
# 
# High freq. dielectric constant tensor:
#      x y z
#    x 1.973800 0.000000 0.000000 
#    y 0.000000 1.996280 0.000000 
#    z 0.000000 0.000000 1.982310 
# 
# From -- ./inp_files/18634.got.cif
#   From: 2010.03.12/outbox.cif.g09.slc.cpg/sg73_10_cif.got.tgz:18634.got - 2010.04.16 15:25:48.
