data_PCOD8296538
_publ_section_title
;
Structure prediction by ZEFSAII (Michael W. Deem and Ramdas Pophale) SiO2 
 PCOD8296538
Probable space group: I B C A 
;
_chemical_formula_sum "Si O2"
_cell_formula_units_Z 104
_cell_length_a 19.678860
_cell_length_b 28.029751
_cell_length_c 8.553104
_cell_angle_alpha 90.000000
_cell_angle_beta 90.000000
_cell_angle_gamma 90.000000
_cell_volume 4717.836963
_symmetry_space_group_name_H-M "I B C A "
_symmetry_group_IT_number 73
_symmetry_cell_setting 'orthorhombic'
loop_
_space_group_symop_operation_xyz
x,y,z
-x,1/2-y,z
x,-y,1/2-z
1/2-x,y,-z
-x,-y,-z
x,1/2+y,-z
-x,y,1/2+z
1/2+x,-y,z
1/2+x,1/2+y,1/2+z
1/2-x,-y,1/2+z
1/2+x,1/2-y,-z
-x,1/2+y,1/2-z
1/2-x,1/2-y,1/2-z
1/2+x,y,1/2-z
1/2-x,1/2+y,z
x,1/2-y,1/2+z
loop_
_atom_site_type_symbol
_atom_site_label
_atom_site_fract_x
_atom_site_fract_y
_atom_site_fract_z
Si Si1 0.691431 0.963352 0.378912
Si Si2 0.250000 0.304079 0.000000
Si Si3 0.846274 0.135598 0.781820
Si Si4 0.594940 0.191844 0.474358
Si Si5 0.623169 0.282963 0.314854
Si Si6 0.456836 0.635613 0.525280
Si Si7 0.560612 0.026268 0.915207
O O1 0.750000 0.951125 0.500000
O O2 0.677506 0.918220 0.269898
O O3 0.626212 0.980493 0.475972
O O4 0.717032 0.000000 0.250000
O O5 0.206449 0.336156 0.885607
O O6 0.302322 0.274049 0.892048
O O7 0.849508 0.158314 0.609685
O O8 0.922206 0.135528 0.854953
O O9 0.577417 0.237074 0.362043
O O10 0.628605 0.214705 0.628228
O O11 0.529402 0.159392 0.504950
O O12 0.589500 0.332731 0.361831
O O13 0.458723 0.582520 0.601853
O O14 0.573805 0.000000 0.750000
O O15 0.500000 0.000000 0.000000
#
# Coordination Sequence:
#
# PCOD8296538 Si02
#       7
#    16   8  16  16  16  16  16
#     4  11  24  46  71 103 142 186 233 293 352 420
#     4  10  22  48  68  92 136 176 228 276 344 398
#     4  10  23  43  69  96 139 182 222 287 339 409
#     4  12  25  42  67 104 134 178 233 279 351 412
#     4  11  25  42  70  98 136 182 224 288 340 412
#     4  10  24  43  68  98 142 177 228 283 345 409
#     4  11  26  43  71 106 144 187 234 293 352 416
#
# _framework density 22.044
#
# number of rings (size 3 to 8) (size 9 to 14) (size 15 to 20)
#    0.000    1.231    0.769    4.154    8.615    4.308 
#    2.769    0.000    0.000    0.000    0.000    0.000 
#    0.000    0.000    0.000    0.000    0.000    0.000 
#
# Total GULP energy -644726.157632 kJ/mol
# GULP energy per Si atom -12398.579954 kJ/mol
# Density = 2.199383 g / cm^3
# Si number density = 22.044000 Si / 1000 Ang^3
#
#
#
# Elastic Constant Matrix: (Units=GPa)
#
#
# Indices 1 2 3 4 5 6 
#
# 1 102.4550 33.4843 28.3320 0.0000 0.0000 0.0000
# 2 33.4843 152.8234 53.0003 0.0000 0.0000 0.0000
# 3 28.3320 53.0003 127.3174 0.0000 0.0000 0.0000
# 4 0.0000 0.0000 0.0000 61.4968 0.0000 0.0000
# 5 0.0000 0.0000 0.0000 0.0000 13.9538 0.0000
# 6 0.0000 0.0000 0.0000 0.0000 0.0000 27.8345
#
#
#
# Elastic Compliance Matrix: (Units=1/GPa)
#
#
# Indices 1 2 3 4 5 6 
#
# 1 0.010805 -0.001792 -0.001658 0.000000 0.000000 0.000000
# 2 -0.001792 0.007945 -0.002909 0.000000 0.000000 0.000000
# 3 -0.001658 -0.002909 0.009434 0.000000 0.000000 0.000000
# 4 0.000000 0.000000 0.000000 0.016261 0.000000 0.000000
# 5 0.000000 0.000000 0.000000 0.000000 0.071665 0.000000
# 6 0.000000 0.000000 0.000000 0.000000 0.000000 0.035927
#
#
# Mechanical properties :
#
#
# Convention : Reuss Voigt Hill
#
# Bulk Modulus (GPa) = 64.65938 68.02546 66.34242
# Shear Modulus (GPa) = 29.42733 38.50894 33.96814
#
# Velocity S-wave (km/s) = 3.65764 4.18414 3.92972
# Velocity P-wave (km/s) = 6.87266 7.36673 7.12398
#
# Compressibility (1/GPa) = 0.01546566
#
# Stress axis : x y z
#
# Youngs Moduli (GPa) = 92.55236 125.86719 105.99766
#
# Poissons Ratio (x) = 0.22559 0.17577
# Poissons Ratio (y) = 0.16588 0.30829
# Poissons Ratio (z) = 0.15348 0.36609
#
# Static dielectric constant tensor:
#      x y z
#    x 3.952520 0.000000 0.000000 
#    y 0.000000 4.232560 0.000000 
#    z 0.000000 0.000000 3.957600 
# 
# 
# High freq. dielectric constant tensor:
#      x y z
#    x 1.867410 0.000000 0.000000 
#    y 0.000000 1.880910 0.000000 
#    z 0.000000 0.000000 1.870250 
# 
# From -- ./inp_files/6552.got.cif
#   From: 2010.03.12/outbox.cif.g09.slc.cpg/sg73_4_cif.got.tgz:6552.got - 2010.04.16 15:25:48.
