data_PCOD8296209
_publ_section_title
;
Structure prediction by ZEFSAII (Michael W. Deem and Ramdas Pophale) SiO2 
 PCOD8296209
Probable space group: I B C A 
;
_chemical_formula_sum "Si O2"
_cell_formula_units_Z 64
_cell_length_a 10.239853
_cell_length_b 10.021309
_cell_length_c 23.912658
_cell_angle_alpha 90.000000
_cell_angle_beta 90.000000
_cell_angle_gamma 90.000000
_cell_volume 2453.838794
_symmetry_space_group_name_H-M "I B C A "
_symmetry_group_IT_number 73
_symmetry_cell_setting 'orthorhombic'
loop_
_space_group_symop_operation_xyz
x,y,z
-x,1/2-y,z
x,-y,1/2-z
1/2-x,y,-z
-x,-y,-z
x,1/2+y,-z
-x,y,1/2+z
1/2+x,-y,z
1/2+x,1/2+y,1/2+z
1/2-x,-y,1/2+z
1/2+x,1/2-y,-z
-x,1/2+y,1/2-z
1/2-x,1/2-y,1/2-z
1/2+x,y,1/2-z
1/2-x,1/2+y,z
x,1/2-y,1/2+z
loop_
_atom_site_type_symbol
_atom_site_label
_atom_site_fract_x
_atom_site_fract_y
_atom_site_fract_z
Si Si1 0.891602 0.865708 0.462288
Si Si2 0.348623 0.215439 0.346869
Si Si3 0.805200 0.491391 0.188991
Si Si4 0.941116 0.392638 0.419286
O O1 0.798993 0.813741 0.410776
O O2 0.836720 0.884636 0.526914
O O3 0.000000 0.750000 0.470102
O O4 0.947823 0.007038 0.441576
O O5 0.500000 0.250000 0.344659
O O6 0.264720 0.339454 0.324069
O O7 0.323646 0.085303 0.308590
O O8 0.874227 0.500000 0.250000
O O9 0.892940 0.546723 0.138793
O O10 0.000000 0.250000 0.404687
#
# Coordination Sequence:
#
# PCOD8296209 Si02
#       4
#    16  16  16  16
#     4   9  18  42  69 101 146 183 232 308 357 421
#     4  11  25  48  70 101 144 187 243 309 359 427
#     4  12  27  45  69 104 143 195 247 293 366 446
#     4  10  21  39  72 108 142 185 243 297 363 434
#
# _framework density 26.081582000000001
#
# number of rings (size 3 to 8) (size 9 to 14) (size 15 to 20)
#    0.000    1.500    5.000    0.750    3.500    3.000 
#    0.000    2.500    0.000    0.000    0.000    0.000 
#    0.000    0.000    0.000    0.000    0.000    0.000 
#
# Total GULP energy -396442.559436 kJ/mol
# GULP energy per Si atom -12388.829982 kJ/mol
# Density = 2.602222 g / cm^3
# Si number density = 26.081582 Si / 1000 Ang^3
#
#
#
# Elastic Constant Matrix: (Units=GPa)
#
#
# Indices 1 2 3 4 5 6 
#
# 1 31.3166 40.4421 47.3664 0.0000 0.0000 0.0000
# 2 40.4421 206.3340 69.6558 0.0000 0.0000 0.0000
# 3 47.3664 69.6558 251.1558 0.0000 0.0000 0.0000
# 4 0.0000 0.0000 0.0000 24.7175 0.0000 0.0000
# 5 0.0000 0.0000 0.0000 0.0000 -72.2371 0.0000
# 6 0.0000 0.0000 0.0000 0.0000 0.0000 35.7436
#
#
#
# Elastic Compliance Matrix: (Units=1/GPa)
#
#
# Indices 1 2 3 4 5 6 
#
# 1 0.054357 -0.007936 -0.008050 0.000000 0.000000 0.000000
# 2 -0.007936 0.006506 -0.000308 0.000000 0.000000 0.000000
# 3 -0.008050 -0.000308 0.005585 0.000000 0.000000 0.000000
# 4 0.000000 0.000000 0.000000 0.040457 0.000000 0.000000
# 5 0.000000 0.000000 0.000000 0.000000 -0.013843 0.000000
# 6 0.000000 0.000000 0.000000 0.000000 0.000000 0.027977
#
#
# Mechanical properties :
#
#
# Convention : Reuss Voigt Hill
#
# Bulk Modulus (GPa) = 29.53383 89.30391 59.41887
# Shear Modulus (GPa) = 30.31875 19.73429 25.02652
#
# Velocity S-wave (km/s) = 3.41318 2.75369 3.10102
# Velocity P-wave (km/s) = 5.18472 6.66520 5.97102
#
# Compressibility (1/GPa) = 0.03385948
#
# Stress axis : x y z
#
# Youngs Moduli (GPa) = 18.39682 153.70606 179.04657
#
# Poissons Ratio (x) = 1.21989 1.44138
# Poissons Ratio (y) = 0.14601 0.05507
# Poissons Ratio (z) = 0.14810 0.04728
#
# Static dielectric constant tensor:
#      x y z
#    x 4.385190 0.000000 0.000000 
#    y 0.000000 5.649060 0.000000 
#    z 0.000000 0.000000 5.473270 
# 
# 
# High freq. dielectric constant tensor:
#      x y z
#    x 2.020950 0.000000 0.000000 
#    y 0.000000 2.068290 0.000000 
#    z 0.000000 0.000000 2.081270 
# 
# From -- ./inp_files/28708.got.cif
#   From: 2010.03.12/outbox.cif.g09.slc.cpg/sg73_15_cif.got.tgz:28708.got - 2010.04.16 15:25:48.
