data_PCOD8296461
_publ_section_title
;
Structure prediction by ZEFSAII (Michael W. Deem and Ramdas Pophale) SiO2 
 PCOD8296461
Probable space group: I B C A 
;
_chemical_formula_sum "Si O2"
_cell_formula_units_Z 80
_cell_length_a 10.937860
_cell_length_b 21.026903
_cell_length_c 14.237413
_cell_angle_alpha 90.000000
_cell_angle_beta 90.000000
_cell_angle_gamma 90.000000
_cell_volume 3274.452952
_symmetry_space_group_name_H-M "I B C A "
_symmetry_group_IT_number 73
_symmetry_cell_setting 'orthorhombic'
loop_
_space_group_symop_operation_xyz
x,y,z
-x,1/2-y,z
x,-y,1/2-z
1/2-x,y,-z
-x,-y,-z
x,1/2+y,-z
-x,y,1/2+z
1/2+x,-y,z
1/2+x,1/2+y,1/2+z
1/2-x,-y,1/2+z
1/2+x,1/2-y,-z
-x,1/2+y,1/2-z
1/2-x,1/2-y,1/2-z
1/2+x,y,1/2-z
1/2-x,1/2+y,z
x,1/2-y,1/2+z
loop_
_atom_site_type_symbol
_atom_site_label
_atom_site_fract_x
_atom_site_fract_y
_atom_site_fract_z
Si Si1 0.469075 0.882117 0.169328
Si Si2 0.628388 0.124257 0.623849
Si Si3 0.693813 0.978478 0.151246
Si Si4 0.250000 0.776198 0.500000
Si Si5 0.000000 0.250000 0.585060
Si Si6 0.075319 0.563545 0.515124
O O1 0.394345 0.874607 0.264945
O O2 0.575234 0.935223 0.174806
O O3 0.524608 0.812621 0.147408
O O4 0.380419 0.906593 0.084312
O O5 0.704376 0.061440 0.597078
O O6 0.709435 0.183560 0.591378
O O7 0.504778 0.119870 0.563426
O O8 0.749718 0.000000 0.250000
O O9 0.679467 0.041996 0.087739
O O10 0.373126 0.736738 0.526763
O O11 0.000000 0.500000 0.500000
#
# Coordination Sequence:
#
# PCOD8296461 Si02
#       6
#    16  16  16   8   8  16
#     4  11  25  47  73 109 144 198 266 308 385 461
#     4  12  24  48  73 105 153 204 246 321 394 463
#     4  11  23  42  70 106 152 195 245 316 387 468
#     4  12  26  52  82 104 162 206 258 330 388 458
#     4  12  26  54  78 114 152 208 270 320 388 456
#     4  10  22  42  68 104 145 190 246 312 382 460
#
# _framework density 24.431563000000001
#
# number of rings (size 3 to 8) (size 9 to 14) (size 15 to 20)
#    0.000    0.800    6.000    1.200    5.600    1.600 
#    7.200    0.000    0.000    0.000    0.000    0.000 
#    0.000    0.000    0.000    0.000    0.000    0.000 
#
# Total GULP energy -495633.824251 kJ/mol
# GULP energy per Si atom -12390.845606 kJ/mol
# Density = 2.437596 g / cm^3
# Si number density = 24.431563 Si / 1000 Ang^3
#
#
#
# Elastic Constant Matrix: (Units=GPa)
#
#
# Indices 1 2 3 4 5 6 
#
# 1 108.6710 13.9977 32.5596 0.0000 0.0000 0.0000
# 2 13.9977 65.4624 20.5818 -0.0001 0.0000 0.0000
# 3 32.5596 20.5818 175.9339 -0.0001 0.0000 0.0000
# 4 0.0000 -0.0001 -0.0001 29.3258 0.0000 0.0000
# 5 0.0000 0.0000 0.0000 0.0000 29.5166 0.0000
# 6 0.0000 0.0000 0.0000 0.0000 0.0000 34.4973
#
#
#
# Elastic Compliance Matrix: (Units=1/GPa)
#
#
# Indices 1 2 3 4 5 6 
#
# 1 0.009901 -0.001600 -0.001645 0.000000 0.000000 0.000000
# 2 -0.001600 0.016118 -0.001589 0.000000 0.000000 0.000000
# 3 -0.001645 -0.001589 0.006174 0.000000 0.000000 0.000000
# 4 0.000000 0.000000 0.000000 0.034100 0.000000 0.000000
# 5 0.000000 0.000000 0.000000 0.000000 0.033879 0.000000
# 6 0.000000 0.000000 0.000000 0.000000 0.000000 0.028988
#
#
# Mechanical properties :
#
#
# Convention : Reuss Voigt Hill
#
# Bulk Modulus (GPa) = 44.39680 53.81619 49.10650
# Shear Modulus (GPa) = 34.16768 37.52981 35.84874
#
# Velocity S-wave (km/s) = 3.74372 3.92359 3.83471
# Velocity P-wave (km/s) = 6.07442 6.52696 6.30475
#
# Compressibility (1/GPa) = 0.02252414
#
# Stress axis : x y z
#
# Youngs Moduli (GPa) = 100.99894 62.04327 161.95981
#
# Poissons Ratio (x) = 0.09926 0.26646
# Poissons Ratio (y) = 0.16159 0.25743
# Poissons Ratio (z) = 0.16616 0.09862
#
# Static dielectric constant tensor:
#      x y z
#    x 4.494400 0.000000 0.000000 
#    y 0.000000 4.451610 0.000000 
#    z 0.000000 0.000000 5.014690 
# 
# 
# High freq. dielectric constant tensor:
#      x y z
#    x 1.967590 0.000000 0.000000 
#    y 0.000000 1.960520 0.000000 
#    z 0.000000 0.000000 1.979420 
# 
# From -- ./inp_files/10892.got.cif
#   From: 2010.03.12/outbox.cif.g09.slc.cpg/sg73_6_cif.got.tgz:10892.got - 2010.04.16 15:25:48.
