data_PCOD8296200
_publ_section_title
;
Structure prediction by ZEFSAII (Michael W. Deem and Ramdas Pophale) SiO2 
 PCOD8296200
Probable space group: I B C A 
;
_chemical_formula_sum "Si O2"
_cell_formula_units_Z 96
_cell_length_a 18.220000
_cell_length_b 24.991375
_cell_length_c 9.787270
_cell_angle_alpha 90.000000
_cell_angle_beta 90.000000
_cell_angle_gamma 90.000000
_cell_volume 4456.563440
_symmetry_space_group_name_H-M "I B C A "
_symmetry_group_IT_number 73
_symmetry_cell_setting 'orthorhombic'
loop_
_space_group_symop_operation_xyz
x,y,z
-x,1/2-y,z
x,-y,1/2-z
1/2-x,y,-z
-x,-y,-z
x,1/2+y,-z
-x,y,1/2+z
1/2+x,-y,z
1/2+x,1/2+y,1/2+z
1/2-x,-y,1/2+z
1/2+x,1/2-y,-z
-x,1/2+y,1/2-z
1/2-x,1/2-y,1/2-z
1/2+x,y,1/2-z
1/2-x,1/2+y,z
x,1/2-y,1/2+z
loop_
_atom_site_type_symbol
_atom_site_label
_atom_site_fract_x
_atom_site_fract_y
_atom_site_fract_z
Si Si1 0.415423 0.232261 0.505796
Si Si2 0.397431 0.112388 0.458541
Si Si3 0.173661 0.218143 0.225567
Si Si4 0.355215 0.097089 0.755687
Si Si5 0.480799 0.538518 0.123773
Si Si6 0.776205 0.961783 0.358337
O O1 0.500000 0.250000 0.504636
O O2 0.406291 0.175010 0.433214
O O3 0.385434 0.233645 0.659346
O O4 0.362523 0.270375 0.420039
O O5 0.406363 0.100077 0.619848
O O6 0.457133 0.083157 0.366319
O O7 0.319360 0.091510 0.403810
O O8 0.250000 0.250000 0.250000
O O9 0.184150 0.154134 0.219802
O O10 0.404759 0.073155 0.880126
O O11 0.292230 0.054251 0.734204
O O12 0.478813 0.500000 0.250000
O O13 0.500000 0.500000 0.000000
O O14 0.750000 0.990702 0.500000
O O15 0.820835 0.000000 0.250000
#
# Coordination Sequence:
#
# PCOD8296200 Si02
#       6
#    16  16  16  16  16  16
#     4  11  23  42  68  97 133 173 224 283 343 406
#     4  10  22  41  63  93 124 175 217 265 330 401
#     4  11  23  43  69  97 136 178 225 281 345 413
#     4  10  22  41  64  94 132 172 216 274 328 400
#     4  12  23  40  67  97 136 175 219 270 334 398
#     4  10  21  39  64  88 126 171 220 268 327 387
#
# _framework density 21.541262
#
# number of rings (size 3 to 8) (size 9 to 14) (size 15 to 20)
#    0.000    1.333    1.667    4.000    2.333    4.000 
#    3.000    1.667    0.000    0.000    0.000    0.000 
#    0.000    0.000    0.000    0.000    0.000    0.000 
#
# Total GULP energy -594839.946989 kJ/mol
# GULP energy per Si atom -12392.498896 kJ/mol
# Density = 2.149223 g / cm^3
# Si number density = 21.541262 Si / 1000 Ang^3
#
#
#
# Elastic Constant Matrix: (Units=GPa)
#
#
# Indices 1 2 3 4 5 6 
#
# 1 111.8935 36.2735 23.1864 0.0000 0.0000 0.0000
# 2 36.2735 122.0677 44.8287 0.0000 0.0000 0.0000
# 3 23.1864 44.8287 72.3463 0.0000 0.0000 0.0000
# 4 0.0000 0.0000 0.0000 32.3178 0.0000 0.0000
# 5 0.0000 0.0000 0.0000 0.0000 34.3524 0.0000
# 6 0.0000 0.0000 0.0000 0.0000 0.0000 40.9703
#
#
#
# Elastic Compliance Matrix: (Units=1/GPa)
#
#
# Indices 1 2 3 4 5 6 
#
# 1 0.010063 -0.002338 -0.001776 0.000000 0.000000 0.000000
# 2 -0.002338 0.011149 -0.006159 0.000000 0.000000 0.000000
# 3 -0.001776 -0.006159 0.018208 0.000000 0.000000 0.000000
# 4 0.000000 0.000000 0.000000 0.030943 0.000000 0.000000
# 5 0.000000 0.000000 0.000000 0.000000 0.029110 0.000000
# 6 0.000000 0.000000 0.000000 0.000000 0.000000 0.024408
#
#
# Mechanical properties :
#
#
# Convention : Reuss Voigt Hill
#
# Bulk Modulus (GPa) = 52.98502 57.20942 55.09722
# Shear Modulus (GPa) = 33.17447 34.99602 34.08524
#
# Velocity S-wave (km/s) = 3.92860 4.03501 3.98216
# Velocity P-wave (km/s) = 6.72524 6.95156 6.83933
#
# Compressibility (1/GPa) = 0.01887326
#
# Stress axis : x y z
#
# Youngs Moduli (GPa) = 99.37302 89.69620 54.92077
#
# Poissons Ratio (x) = 0.20971 0.09756
# Poissons Ratio (y) = 0.23233 0.33825
# Poissons Ratio (z) = 0.17653 0.55243
#
# Static dielectric constant tensor:
#      x y z
#    x 4.033370 0.000000 0.000000 
#    y 0.000000 4.260790 0.000000 
#    z 0.000000 0.000000 3.784950 
# 
# 
# High freq. dielectric constant tensor:
#      x y z
#    x 1.846190 0.000000 0.000000 
#    y 0.000000 1.858540 0.000000 
#    z 0.000000 0.000000 1.840280 
# 
# From -- ./inp_files/6431.got.cif
#   From: 2010.03.12/outbox.cif.g09.slc.cpg/sg73_4_cif.got.tgz:6431.got - 2010.04.16 15:25:48.
