data_PCOD8296255
_publ_section_title
;
Structure prediction by ZEFSAII (Michael W. Deem and Ramdas Pophale) SiO2 
 PCOD8296255
Probable space group: I B C A 
;
_chemical_formula_sum "Si O2"
_cell_formula_units_Z 72
_cell_length_a 12.924472
_cell_length_b 31.283865
_cell_length_c 7.935181
_cell_angle_alpha 90.000000
_cell_angle_beta 90.000000
_cell_angle_gamma 90.000000
_cell_volume 3208.411398
_symmetry_space_group_name_H-M "I B C A "
_symmetry_group_IT_number 73
_symmetry_cell_setting 'orthorhombic'
loop_
_space_group_symop_operation_xyz
x,y,z
-x,1/2-y,z
x,-y,1/2-z
1/2-x,y,-z
-x,-y,-z
x,1/2+y,-z
-x,y,1/2+z
1/2+x,-y,z
1/2+x,1/2+y,1/2+z
1/2-x,-y,1/2+z
1/2+x,1/2-y,-z
-x,1/2+y,1/2-z
1/2-x,1/2-y,1/2-z
1/2+x,y,1/2-z
1/2-x,1/2+y,z
x,1/2-y,1/2+z
loop_
_atom_site_type_symbol
_atom_site_label
_atom_site_fract_x
_atom_site_fract_y
_atom_site_fract_z
Si Si1 0.871680 0.797891 0.690628
Si Si2 0.995192 0.000000 0.750000
Si Si3 0.872653 0.051785 0.510296
Si Si4 0.126815 0.649668 0.005203
Si Si5 0.372199 0.795397 0.184835
O O1 0.749548 0.800763 0.678668
O O2 0.905184 0.751971 0.761243
O O3 0.916941 0.806512 0.502071
O O4 0.916825 0.831396 0.828084
O O5 0.918850 0.038047 0.690399
O O6 0.072837 0.980511 0.615645
O O7 0.750000 0.045500 0.500000
O O8 0.904737 0.100472 0.476122
O O9 0.080881 0.673721 0.170432
O O10 0.250000 0.655764 0.000000
#
# Coordination Sequence:
#
# PCOD8296255 Si02
#       5
#    16   8  16  16  16
#     4   9  14  22  39  68 111 157 199 246 296 351
#     4  10  22  42  68  92 122 166 202 254 336 392
#     4  10  21  41  66  95 127 160 207 262 316 384
#     4   9  17  29  47  78 117 155 201 253 299 359
#     4   9  14  22  39  68 111 157 199 246 296 351
#
# _framework density 22.441013999999999
#
# number of rings (size 3 to 8) (size 9 to 14) (size 15 to 20)
#    0.000    2.667    2.222    0.667    0.000    0.000 
#    8.000    0.000    0.000    0.000    0.000    4.667 
#    0.000    0.000    0.000    0.000    0.000   15.111 
#
# Total GULP energy -446180.560895 kJ/mol
# GULP energy per Si atom -12393.904469 kJ/mol
# Density = 2.238994 g / cm^3
# Si number density = 22.441014 Si / 1000 Ang^3
#
#
#
# Elastic Constant Matrix: (Units=GPa)
#
#
# Indices 1 2 3 4 5 6 
#
# 1 76.9587 18.1151 47.8979 0.0006 -0.0071 0.0036
# 2 18.1151 138.0424 63.7474 -0.0021 -0.0001 0.0022
# 3 47.8979 63.7474 171.7509 0.0158 -0.0524 -0.0610
# 4 0.0006 -0.0021 0.0158 41.5046 0.0095 -0.0709
# 5 -0.0071 -0.0001 -0.0524 0.0095 28.1158 0.0047
# 6 0.0036 0.0022 -0.0610 -0.0709 0.0047 381.8775
#
#
#
# Elastic Compliance Matrix: (Units=1/GPa)
#
#
# Indices 1 2 3 4 5 6 
#
# 1 0.015723 -0.000046 -0.004368 0.000001 -0.000004 -0.000001
# 2 -0.000046 0.008743 -0.003232 0.000002 -0.000006 -0.000001
# 3 -0.004368 -0.003232 0.008240 -0.000003 0.000014 0.000001
# 4 0.000001 0.000002 -0.000003 0.024094 -0.000008 0.000004
# 5 -0.000004 -0.000006 0.000014 -0.000008 0.035567 0.000000
# 6 -0.000001 -0.000001 0.000001 0.000004 0.000000 0.002619
#
#
# Mechanical properties :
#
#
# Convention : Reuss Voigt Hill
#
# Bulk Modulus (GPa) = 57.42540 71.80810 64.61675
# Shear Modulus (GPa) = 43.07278 107.43236 75.25257
#
# Velocity S-wave (km/s) = 4.38582 6.92655 5.79709
# Velocity P-wave (km/s) = 7.16186 9.79988 8.58283
#
# Compressibility (1/GPa) = 0.01741390
#
# Stress axis : x y z
#
# Youngs Moduli (GPa) = 63.59991 114.37995 121.35810
#
# Poissons Ratio (x) = 0.00530 0.53006
# Poissons Ratio (y) = 0.00295 0.39224
# Poissons Ratio (z) = 0.27779 0.36968
#
# Static dielectric constant tensor:
#      x y z
#    x 4.036850 -0.000010 0.000030 
#    y -0.000010 3.897910 0.000010 
#    z 0.000030 0.000010 4.650480 
# 
# 
# High freq. dielectric constant tensor:
#      x y z
#    x 1.910190 0.000000 0.000000 
#    y 0.000000 1.860250 0.000000 
#    z 0.000000 0.000000 1.901990 
# 
# From -- ./inp_files/4771.got.cif
#   From: 2010.03.12/outbox.cif.g09.slc.cpg/sg73_3_cif.got.tgz:4771.got - 2010.04.16 15:25:48.
