data_PCOD8296725
_publ_section_title
;
Structure prediction by ZEFSAII (Michael W. Deem and Ramdas Pophale) SiO2 
 PCOD8296725
Probable space group: I B C A 
;
_chemical_formula_sum "Si O2"
_cell_formula_units_Z 88
_cell_length_a 18.145725
_cell_length_b 14.133066
_cell_length_c 16.401380
_cell_angle_alpha 90.000000
_cell_angle_beta 90.000000
_cell_angle_gamma 90.000000
_cell_volume 4206.211464
_symmetry_space_group_name_H-M "I B C A "
_symmetry_group_IT_number 73
_symmetry_cell_setting 'orthorhombic'
loop_
_space_group_symop_operation_xyz
x,y,z
-x,1/2-y,z
x,-y,1/2-z
1/2-x,y,-z
-x,-y,-z
x,1/2+y,-z
-x,y,1/2+z
1/2+x,-y,z
1/2+x,1/2+y,1/2+z
1/2-x,-y,1/2+z
1/2+x,1/2-y,-z
-x,1/2+y,1/2-z
1/2-x,1/2-y,1/2-z
1/2+x,y,1/2-z
1/2-x,1/2+y,z
x,1/2-y,1/2+z
loop_
_atom_site_type_symbol
_atom_site_label
_atom_site_fract_x
_atom_site_fract_y
_atom_site_fract_z
Si Si1 0.813781 0.931964 0.826667
Si Si2 0.447749 0.833192 0.726327
Si Si3 0.457775 0.500000 0.750000
Si Si4 0.078074 0.218176 0.412748
Si Si5 0.150528 0.408273 0.373141
Si Si6 0.168051 0.946160 0.015006
O O1 0.867275 0.839894 0.816650
O O2 0.729954 0.897126 0.831167
O O3 0.825286 0.000000 0.750000
O O4 0.835258 0.986280 0.907766
O O5 0.500000 0.750000 0.692225
O O6 0.489087 0.929792 0.700587
O O7 0.435158 0.824633 0.823172
O O8 0.409040 0.430846 0.695298
O O9 0.132879 0.307289 0.412386
O O10 0.112530 0.140671 0.473172
O O11 0.000000 0.250000 0.450611
O O12 0.144700 0.492585 0.437449
O O13 0.250000 0.905454 0.000000
#
# Coordination Sequence:
#
# PCOD8296725 Si02
#       6
#    16  16   8  16  16  16
#     4  11  21  42  70  94 128 177 221 272 336 393
#     4  11  22  41  67  99 132 174 220 275 333 393
#     4  12  20  42  66  96 136 166 220 276 324 400
#     4  11  22  44  67  97 137 174 214 281 342 386
#     4  11  25  42  68  97 132 174 225 274 329 399
#     4  10  24  45  66  96 135 175 222 276 331 398
#
# _framework density 20.921438999999999
#
# number of rings (size 3 to 8) (size 9 to 14) (size 15 to 20)
#    0.000    1.091    7.273    0.000    0.000    3.636 
#    9.818    0.000    0.000    0.000    0.000    0.000 
#    0.000    0.000    0.000    0.000    0.000    0.000 
#
# Total GULP energy -545613.122358 kJ/mol
# GULP energy per Si atom -12400.298235 kJ/mol
# Density = 2.087382 g / cm^3
# Si number density = 20.921439 Si / 1000 Ang^3
#
#
#
# Elastic Constant Matrix: (Units=GPa)
#
#
# Indices 1 2 3 4 5 6 
#
# 1 151.5600 67.0811 30.8596 0.0000 0.0000 0.0000
# 2 67.0811 106.8381 6.6448 0.0000 0.0000 0.0000
# 3 30.8596 6.6448 50.5122 0.0000 0.0000 0.0000
# 4 0.0000 0.0000 0.0000 20.8673 0.0000 0.0000
# 5 0.0000 0.0000 0.0000 0.0000 41.3927 0.0000
# 6 0.0000 0.0000 0.0000 0.0000 0.0000 51.2451
#
#
#
# Elastic Compliance Matrix: (Units=1/GPa)
#
#
# Indices 1 2 3 4 5 6 
#
# 1 0.010501 -0.006246 -0.005594 0.000000 0.000000 0.000000
# 2 -0.006246 0.013152 0.002086 0.000000 0.000000 0.000000
# 3 -0.005594 0.002086 0.022940 0.000000 0.000000 0.000000
# 4 0.000000 0.000000 0.000000 0.047922 0.000000 0.000000
# 5 0.000000 0.000000 0.000000 0.000000 0.024159 0.000000
# 6 0.000000 0.000000 0.000000 0.000000 0.000000 0.019514
#
#
# Mechanical properties :
#
#
# Convention : Reuss Voigt Hill
#
# Bulk Modulus (GPa) = 36.92030 57.56458 47.24244
# Shear Modulus (GPa) = 29.98947 36.32268 33.15607
#
# Velocity S-wave (km/s) = 3.79018 4.17123 3.98526
# Velocity P-wave (km/s) = 6.06954 7.12553 6.61863
#
# Compressibility (1/GPa) = 0.02708537
#
# Stress axis : x y z
#
# Youngs Moduli (GPa) = 95.22497 76.03541 43.59110
#
# Poissons Ratio (x) = 0.47489 0.24385
# Poissons Ratio (y) = 0.59475 -0.09091
# Poissons Ratio (z) = 0.53270 -0.15858
#
# Static dielectric constant tensor:
#      x y z
#    x 4.152730 0.000000 0.000000 
#    y 0.000000 3.822490 0.000000 
#    z 0.000000 0.000000 3.319060 
# 
# 
# High freq. dielectric constant tensor:
#      x y z
#    x 1.843110 0.000000 0.000000 
#    y 0.000000 1.819890 0.000000 
#    z 0.000000 0.000000 1.797490 
# 
# From -- ./inp_files/22469.got.cif
#   From: 2010.03.12/outbox.cif.g09.slc.cpg/sg73_12_cif.got.tgz:22469.got - 2010.04.16 15:25:48.
