data_PCOD8296155
_publ_section_title
;
Structure prediction by ZEFSAII (Michael W. Deem and Ramdas Pophale) SiO2 
 PCOD8296155
Probable space group: I B C A 
;
_chemical_formula_sum "Si O2"
_cell_formula_units_Z 120
_cell_length_a 26.216081
_cell_length_b 25.713528
_cell_length_c 8.702775
_cell_angle_alpha 90.000000
_cell_angle_beta 90.000000
_cell_angle_gamma 90.000000
_cell_volume 5866.609665
_symmetry_space_group_name_H-M "I B C A "
_symmetry_group_IT_number 73
_symmetry_cell_setting 'orthorhombic'
loop_
_space_group_symop_operation_xyz
x,y,z
-x,1/2-y,z
x,-y,1/2-z
1/2-x,y,-z
-x,-y,-z
x,1/2+y,-z
-x,y,1/2+z
1/2+x,-y,z
1/2+x,1/2+y,1/2+z
1/2-x,-y,1/2+z
1/2+x,1/2-y,-z
-x,1/2+y,1/2-z
1/2-x,1/2-y,1/2-z
1/2+x,y,1/2-z
1/2-x,1/2+y,z
x,1/2-y,1/2+z
loop_
_atom_site_type_symbol
_atom_site_label
_atom_site_fract_x
_atom_site_fract_y
_atom_site_fract_z
Si Si1 0.870824 0.500000 0.750000
Si Si2 0.943989 0.404145 0.781968
Si Si3 0.208239 0.638025 0.625256
Si Si4 0.648653 0.032845 0.091525
Si Si5 0.606689 0.804434 0.427559
Si Si6 0.612745 0.303634 0.211759
Si Si7 0.450920 0.903225 0.932036
Si Si8 0.768475 0.800692 0.164610
O O1 0.903911 0.450273 0.791311
O O2 0.840734 0.491246 0.583312
O O3 0.918490 0.352706 0.857402
O O4 0.959516 0.392540 0.609556
O O5 0.995173 0.421366 0.867276
O O6 0.250000 0.652209 0.500000
O O7 0.187686 0.580252 0.605208
O O8 0.164044 0.681092 0.618483
O O9 0.238497 0.646822 0.783802
O O10 0.590059 0.051251 0.096967
O O11 0.657976 0.000000 0.250000
O O12 0.590500 0.749142 0.359539
O O13 0.603545 0.801439 0.608825
O O14 0.568838 0.848726 0.359580
O O15 0.671625 0.311553 0.172592
O O16 0.750000 0.750000 0.250000
O O17 0.750000 0.787223 0.000000
#
# Coordination Sequence:
#
# PCOD8296155 Si02
#       8
#     8  16  16  16  16  16  16  16
#     4  10  24  44  68  94 128 168 216 284 332 374
#     4  10  23  40  63  92 125 165 215 264 333 385
#     4  11  22  43  65  90 130 169 208 271 327 385
#     4  10  24  45  68  96 128 168 221 272 328 396
#     4  10  21  38  60  87 127 163 207 259 320 382
#     4  11  22  38  59  92 126 166 208 263 318 389
#     4   9  22  40  62  92 123 166 206 268 325 388
#     4  12  23  37  63  96 127 171 219 263 322 393
#
# _framework density 20.454744000000002
#
# number of rings (size 3 to 8) (size 9 to 14) (size 15 to 20)
#    0.000    1.600    2.667    2.000    2.800    3.733 
#    1.200    2.667    0.000    0.000    0.000    0.000 
#    0.000    0.000    0.000    0.000    0.000    0.000 
#
# Total GULP energy -743411.014654 kJ/mol
# GULP energy per Si atom -12390.183578 kJ/mol
# Density = 2.040819 g / cm^3
# Si number density = 20.454744 Si / 1000 Ang^3
#
#
#
# Elastic Constant Matrix: (Units=GPa)
#
#
# Indices 1 2 3 4 5 6 
#
# 1 38.6228 -5.9212 15.2275 0.0000 0.0000 0.0000
# 2 -5.9212 78.5229 27.5421 0.0000 0.0000 0.0000
# 3 15.2275 27.5421 105.7193 0.0000 0.0000 0.0000
# 4 0.0000 0.0000 0.0000 43.8312 0.0000 0.0000
# 5 0.0000 0.0000 0.0000 0.0000 22.9151 0.0000
# 6 0.0000 0.0000 0.0000 0.0000 0.0000 22.0574
#
#
#
# Elastic Compliance Matrix: (Units=1/GPa)
#
#
# Indices 1 2 3 4 5 6 
#
# 1 0.028523 0.003953 -0.005138 0.000000 0.000000 0.000000
# 2 0.003953 0.014564 -0.004364 0.000000 0.000000 0.000000
# 3 -0.005138 -0.004364 0.011336 0.000000 0.000000 0.000000
# 4 0.000000 0.000000 0.000000 0.022815 0.000000 0.000000
# 5 0.000000 0.000000 0.000000 0.000000 0.043639 0.000000
# 6 0.000000 0.000000 0.000000 0.000000 0.000000 0.045336
#
#
# Mechanical properties :
#
#
# Convention : Reuss Voigt Hill
#
# Bulk Modulus (GPa) = 23.08107 32.95132 28.01619
# Shear Modulus (GPa) = 26.07524 30.16185 28.11854
#
# Velocity S-wave (km/s) = 3.57428 3.84417 3.71168
# Velocity P-wave (km/s) = 5.32376 5.98731 5.66526
#
# Compressibility (1/GPa) = 0.04332555
#
# Stress axis : x y z
#
# Youngs Moduli (GPa) = 35.05900 68.66361 88.21522
#
# Poissons Ratio (x) = -0.27144 0.45328
# Poissons Ratio (y) = -0.13859 0.38493
# Poissons Ratio (z) = 0.18014 0.29962
#
# Static dielectric constant tensor:
#      x y z
#    x 3.683980 0.000000 0.000000 
#    y 0.000000 3.844640 0.000000 
#    z 0.000000 0.000000 4.252890 
# 
# 
# High freq. dielectric constant tensor:
#      x y z
#    x 1.793030 0.000000 0.000000 
#    y 0.000000 1.806820 0.000000 
#    z 0.000000 0.000000 1.801580 
# 
# From -- ./inp_files/8051.got.cif
#   From: 2010.03.12/outbox.cif.g09.slc.cpg/sg73_5_cif.got.tgz:8051.got - 2010.04.16 15:25:48.
