data_PCOD8296727
_publ_section_title
;
Structure prediction by ZEFSAII (Michael W. Deem and Ramdas Pophale) SiO2 
 PCOD8296727
Probable space group: I B C A 
;
_chemical_formula_sum "Si O2"
_cell_formula_units_Z 120
_cell_length_a 17.203434
_cell_length_b 12.036822
_cell_length_c 26.887250
_cell_angle_alpha 90.000000
_cell_angle_beta 90.000000
_cell_angle_gamma 90.000000
_cell_volume 5567.668497
_symmetry_space_group_name_H-M "I B C A "
_symmetry_group_IT_number 73
_symmetry_cell_setting 'orthorhombic'
loop_
_space_group_symop_operation_xyz
x,y,z
-x,1/2-y,z
x,-y,1/2-z
1/2-x,y,-z
-x,-y,-z
x,1/2+y,-z
-x,y,1/2+z
1/2+x,-y,z
1/2+x,1/2+y,1/2+z
1/2-x,-y,1/2+z
1/2+x,1/2-y,-z
-x,1/2+y,1/2-z
1/2-x,1/2-y,1/2-z
1/2+x,y,1/2-z
1/2-x,1/2+y,z
x,1/2-y,1/2+z
loop_
_atom_site_type_symbol
_atom_site_label
_atom_site_fract_x
_atom_site_fract_y
_atom_site_fract_z
Si Si1 0.500000 0.250000 0.925962
Si Si2 0.715317 0.026350 0.551255
Si Si3 0.356046 0.591142 0.397969
Si Si4 0.191685 0.249582 0.202538
Si Si5 0.101154 0.029704 0.693492
Si Si6 0.428783 0.081500 0.496419
Si Si7 0.822673 0.325927 0.864080
Si Si8 0.066738 0.606158 0.842274
O O1 0.553759 0.188302 0.964713
O O2 0.559034 0.320354 0.891992
O O3 0.750000 0.069987 0.500000
O O4 0.770055 0.945626 0.584320
O O5 0.637527 0.964861 0.538436
O O6 0.693503 0.137194 0.580140
O O7 0.406922 0.608384 0.447087
O O8 0.361903 0.705163 0.366633
O O9 0.388544 0.504275 0.358090
O O10 0.250000 0.250000 0.250000
O O11 0.168341 0.376295 0.189393
O O12 0.238536 0.189289 0.159526
O O13 0.112722 0.172705 0.202484
O O14 0.020348 0.077982 0.674262
O O15 0.088344 0.000000 0.750000
O O16 0.125347 0.917860 0.664347
O O17 0.500000 0.000000 0.500000
#
# Coordination Sequence:
#
# PCOD8296727 Si02
#       8
#     8  16  16  16  16  16  16  16
#     4  12  24  42  76  96 146 198 232 298 370 444
#     4  10  24  45  68 103 149 193 243 295 369 441
#     4  11  26  45  69 111 144 197 241 307 361 444
#     4  12  26  49  79 107 139 192 251 308 377 444
#     4  12  27  51  74 106 147 191 240 312 383 454
#     4  11  25  42  67 104 149 191 249 297 361 443
#     4  12  26  44  78 105 152 188 248 309 371 440
#     4  12  26  49  75 105 146 193 249 298 389 447
#
# _framework density 21.553007000000001
#
# number of rings (size 3 to 8) (size 9 to 14) (size 15 to 20)
#    0.000    0.533    5.333    1.600    3.733    3.200 
#    2.400    0.000    0.000    0.000    0.000    0.000 
#    0.000    0.000    0.000    0.000    0.000    0.000 
#
# Total GULP energy -743595.671972 kJ/mol
# GULP energy per Si atom -12393.261200 kJ/mol
# Density = 2.150395 g / cm^3
# Si number density = 21.553007 Si / 1000 Ang^3
#
#
#
# Elastic Constant Matrix: (Units=GPa)
#
#
# Indices 1 2 3 4 5 6 
#
# 1 113.2940 46.3797 37.3132 0.0000 0.0000 0.0000
# 2 46.3797 143.4838 55.5052 0.0000 0.0000 0.0000
# 3 37.3132 55.5052 99.1983 0.0000 0.0000 0.0000
# 4 0.0000 0.0000 0.0000 1.0394 0.0000 0.0000
# 5 0.0000 0.0000 0.0000 0.0000 43.0722 0.0000
# 6 0.0000 0.0000 0.0000 0.0000 0.0000 38.3294
#
#
#
# Elastic Compliance Matrix: (Units=1/GPa)
#
#
# Indices 1 2 3 4 5 6 
#
# 1 0.010698 -0.002427 -0.002666 0.000000 0.000000 0.000000
# 2 -0.002427 0.009445 -0.004372 0.000000 0.000000 0.000000
# 3 -0.002666 -0.004372 0.013530 0.000000 0.000000 0.000000
# 4 0.000000 0.000000 0.000000 0.962131 0.000000 0.000000
# 5 0.000000 0.000000 0.000000 0.000000 0.023217 0.000000
# 6 0.000000 0.000000 0.000000 0.000000 0.000000 0.026090
#
#
# Mechanical properties :
#
#
# Convention : Reuss Voigt Hill
#
# Bulk Modulus (GPa) = 67.82760 70.48582 69.15671
# Shear Modulus (GPa) = 4.67746 30.94005 17.80875
#
# Velocity S-wave (km/s) = 1.47476 3.79295 2.87762
# Velocity P-wave (km/s) = 5.86842 7.20808 6.57247
#
# Compressibility (1/GPa) = 0.01474326
#
# Stress axis : x y z
#
# Youngs Moduli (GPa) = 93.47430 105.87462 73.90926
#
# Poissons Ratio (x) = 0.25692 0.19706
# Poissons Ratio (y) = 0.22683 0.32314
# Poissons Ratio (z) = 0.24923 0.46290
#
# Static dielectric constant tensor:
#      x y z
#    x 3.931990 0.000000 0.000000 
#    y 0.000000 4.229040 0.000000 
#    z 0.000000 0.000000 4.277130 
# 
# 
# High freq. dielectric constant tensor:
#      x y z
#    x 1.858850 0.000000 0.000000 
#    y 0.000000 1.856550 0.000000 
#    z 0.000000 0.000000 1.853930 
# 
# From -- ./inp_files/32447.got.cif
#   From: 2010.03.12/outbox.cif.g09.slc.cpg/sg73_17_cif.got.tgz:32447.got - 2010.04.16 15:25:48.
