data_PCOD8296879
_publ_section_title
;
Structure prediction by ZEFSAII (Michael W. Deem and Ramdas Pophale) SiO2 
 PCOD8296879
Probable space group: I B C A 
;
_chemical_formula_sum "Si O2"
_cell_formula_units_Z 64
_cell_length_a 17.243307
_cell_length_b 4.940445
_cell_length_c 28.154192
_cell_angle_alpha 90.000000
_cell_angle_beta 90.000000
_cell_angle_gamma 90.000000
_cell_volume 2398.444632
_symmetry_space_group_name_H-M "I B C A "
_symmetry_group_IT_number 73
_symmetry_cell_setting 'orthorhombic'
loop_
_space_group_symop_operation_xyz
x,y,z
-x,1/2-y,z
x,-y,1/2-z
1/2-x,y,-z
-x,-y,-z
x,1/2+y,-z
-x,y,1/2+z
1/2+x,-y,z
1/2+x,1/2+y,1/2+z
1/2-x,-y,1/2+z
1/2+x,1/2-y,-z
-x,1/2+y,1/2-z
1/2-x,1/2-y,1/2-z
1/2+x,y,1/2-z
1/2-x,1/2+y,z
x,1/2-y,1/2+z
loop_
_atom_site_type_symbol
_atom_site_label
_atom_site_fract_x
_atom_site_fract_y
_atom_site_fract_z
Si Si1 0.416076 0.706649 0.674115
Si Si2 0.799865 0.933502 0.628841
Si Si3 0.500000 0.750000 0.085583
Si Si4 0.619353 0.439972 0.531915
Si Si5 0.807010 0.000000 0.250000
O O1 0.500000 0.750000 0.700087
O O2 0.370399 0.991481 0.664843
O O3 0.435826 0.600044 0.620038
O O4 0.363519 0.503372 0.704294
O O5 0.726623 0.129269 0.640463
O O6 0.818930 0.982451 0.573659
O O7 0.465747 0.511957 0.052827
O O8 0.631228 0.137256 0.513083
O O9 0.750000 0.250000 0.250000
#
# Coordination Sequence:
#
# PCOD8296879 Si02
#       5
#    16  16   8  16   8
#     4   9  22  46  73 102 137 184 236 286 351 431
#     4  11  23  42  65  97 140 185 230 288 354 419
#     4   8  20  42  66  96 136 182 234 290 350 416
#     4  11  22  38  63  95 135 181 235 291 347 409
#     4  12  26  48  76 110 146 180 226 294 368 436
#
# _framework density 26.683962999999999
#
# number of rings (size 3 to 8) (size 9 to 14) (size 15 to 20)
#    0.750    1.000    0.000    3.750    0.000    4.000 
#    0.000   11.250    0.000    0.000    0.000    0.000 
#    0.000    0.000    0.000    0.000    0.000    0.000 
#
# Total GULP energy -396432.789344 kJ/mol
# GULP energy per Si atom -12388.524667 kJ/mol
# Density = 2.662323 g / cm^3
# Si number density = 26.683963 Si / 1000 Ang^3
#
#
#
# Elastic Constant Matrix: (Units=GPa)
#
#
# Indices 1 2 3 4 5 6 
#
# 1 138.4493 15.3741 56.1044 0.0000 0.0000 0.0000
# 2 15.3741 67.7575 18.3236 0.0000 0.0000 0.0000
# 3 56.1044 18.3236 118.3614 0.0000 0.0000 0.0000
# 4 0.0000 0.0000 0.0000 33.7350 0.0000 0.0000
# 5 0.0000 0.0000 0.0000 0.0000 41.7729 0.0000
# 6 0.0000 0.0000 0.0000 0.0000 0.0000 23.1301
#
#
#
# Elastic Compliance Matrix: (Units=1/GPa)
#
#
# Indices 1 2 3 4 5 6 
#
# 1 0.008996 -0.000927 -0.004120 0.000000 0.000000 0.000000
# 2 -0.000927 0.015499 -0.001960 0.000000 0.000000 0.000000
# 3 -0.004120 -0.001960 0.010705 0.000000 0.000000 0.000000
# 4 0.000000 0.000000 0.000000 0.029643 0.000000 0.000000
# 5 0.000000 0.000000 0.000000 0.000000 0.023939 0.000000
# 6 0.000000 0.000000 0.000000 0.000000 0.000000 0.043234
#
#
# Mechanical properties :
#
#
# Convention : Reuss Voigt Hill
#
# Bulk Modulus (GPa) = 47.20326 56.01915 51.61120
# Shear Modulus (GPa) = 32.66020 35.37867 34.01944
#
# Velocity S-wave (km/s) = 3.50231 3.64516 3.57445
# Velocity P-wave (km/s) = 5.83807 6.22538 6.03484
#
# Compressibility (1/GPa) = 0.02118498
#
# Stress axis : x y z
#
# Youngs Moduli (GPa) = 111.16621 64.52091 93.41169
#
# Poissons Ratio (x) = 0.05980 0.38490
# Poissons Ratio (y) = 0.10303 0.18309
# Poissons Ratio (z) = 0.45806 0.12647
#
# Static dielectric constant tensor:
#      x y z
#    x 5.182840 0.000000 0.000000 
#    y 0.000000 4.120450 0.000000 
#    z 0.000000 0.000000 5.082830 
# 
# 
# High freq. dielectric constant tensor:
#      x y z
#    x 2.083280 0.000000 0.000000 
#    y 0.000000 2.039210 0.000000 
#    z 0.000000 0.000000 2.084960 
# 
# From -- ./inp_files/32559.got.cif
#   From: 2010.03.12/outbox.cif.g09.slc.cpg/sg73_17_cif.got.tgz:32559.got - 2010.04.16 15:25:48.
