data_PCOD8296797
_publ_section_title
;
Structure prediction by ZEFSAII (Michael W. Deem and Ramdas Pophale) SiO2 
 PCOD8296797
Probable space group: I B C A 
;
_chemical_formula_sum "Si O2"
_cell_formula_units_Z 64
_cell_length_a 25.730200
_cell_length_b 9.225300
_cell_length_c 11.503279
_cell_angle_alpha 90.000000
_cell_angle_beta 90.000000
_cell_angle_gamma 90.000000
_cell_volume 2730.519694
_symmetry_space_group_name_H-M "I B C A "
_symmetry_group_IT_number 73
_symmetry_cell_setting 'orthorhombic'
loop_
_space_group_symop_operation_xyz
x,y,z
-x,1/2-y,z
x,-y,1/2-z
1/2-x,y,-z
-x,-y,-z
x,1/2+y,-z
-x,y,1/2+z
1/2+x,-y,z
1/2+x,1/2+y,1/2+z
1/2-x,-y,1/2+z
1/2+x,1/2-y,-z
-x,1/2+y,1/2-z
1/2-x,1/2-y,1/2-z
1/2+x,y,1/2-z
1/2-x,1/2+y,z
x,1/2-y,1/2+z
loop_
_atom_site_type_symbol
_atom_site_label
_atom_site_fract_x
_atom_site_fract_y
_atom_site_fract_z
Si Si1 0.951105 0.500000 0.750000
Si Si2 0.251751 0.000000 0.250000
Si Si3 0.449253 0.007970 0.876090
Si Si4 0.708013 0.748346 0.398778
Si Si5 0.408881 0.289088 0.571843
O O1 0.915383 0.625911 0.695199
O O2 0.989689 0.448355 0.644268
O O3 0.287707 0.909186 0.338200
O O4 0.215215 0.883501 0.186952
O O5 0.447266 0.847441 0.930158
O O6 0.420462 0.000000 0.750000
O O7 0.420995 0.119365 0.958203
O O8 0.750000 0.760014 0.500000
O O9 0.650033 0.762633 0.447070
#
# Coordination Sequence:
#
# PCOD8296797 Si02
#       5
#     8   8  16  16  16
#     4  10  25  49  76 106 152 196 253 317 382 452
#     4  10  25  47  72 104 150 190 251 315 364 446
#     4  10  28  45  75 110 151 195 262 311 383 456
#     4  11  26  45  76 108 152 194 252 306 384 448
#     4  12  26  46  79 109 153 206 252 315 391 459
#
# _framework density 23.438761
#
# number of rings (size 3 to 8) (size 9 to 14) (size 15 to 20)
#    0.750    0.500    0.000    3.000   12.250    2.000 
#    0.000    0.000    0.000    0.000    0.000    0.000 
#    0.000    0.000    0.000    0.000    0.000    0.000 
#
# Total GULP energy -396705.497879 kJ/mol
# GULP energy per Si atom -12397.046809 kJ/mol
# Density = 2.338541 g / cm^3
# Si number density = 23.438761 Si / 1000 Ang^3
#
#
#
# Elastic Constant Matrix: (Units=GPa)
#
#
# Indices 1 2 3 4 5 6 
#
# 1 106.7234 13.0313 43.5915 0.0000 0.0000 0.0000
# 2 13.0313 122.2200 62.3213 0.0000 0.0000 0.0000
# 3 43.5915 62.3213 109.4210 0.0000 0.0000 0.0000
# 4 0.0000 0.0000 0.0000 41.4909 0.0000 0.0000
# 5 0.0000 0.0000 0.0000 0.0000 31.8506 0.0000
# 6 0.0000 0.0000 0.0000 0.0000 0.0000 31.3141
#
#
#
# Elastic Compliance Matrix: (Units=1/GPa)
#
#
# Indices 1 2 3 4 5 6 
#
# 1 0.011396 0.001550 -0.005423 0.000000 0.000000 0.000000
# 2 0.001550 0.011742 -0.007305 0.000000 0.000000 0.000000
# 3 -0.005423 -0.007305 0.015460 0.000000 0.000000 0.000000
# 4 0.000000 0.000000 0.000000 0.024102 0.000000 0.000000
# 5 0.000000 0.000000 0.000000 0.000000 0.031397 0.000000
# 6 0.000000 0.000000 0.000000 0.000000 0.000000 0.031934
#
#
# Mechanical properties :
#
#
# Convention : Reuss Voigt Hill
#
# Bulk Modulus (GPa) = 61.56905 64.02805 62.79855
# Shear Modulus (GPa) = 32.50994 35.55915 34.03455
#
# Velocity S-wave (km/s) = 3.72831 3.89923 3.81473
# Velocity P-wave (km/s) = 6.69767 6.90279 6.80100
#
# Compressibility (1/GPa) = 0.01624193
#
# Stress axis : x y z
#
# Youngs Moduli (GPa) = 87.75270 85.16732 64.68341
#
# Poissons Ratio (x) = -0.13201 0.35076
# Poissons Ratio (y) = -0.13602 0.47251
# Poissons Ratio (z) = 0.47586 0.62215
#
# Static dielectric constant tensor:
#      x y z
#    x 3.923020 0.000000 0.000000 
#    y 0.000000 4.427100 0.000000 
#    z 0.000000 0.000000 4.462310 
# 
# 
# High freq. dielectric constant tensor:
#      x y z
#    x 1.915390 0.000000 0.000000 
#    y 0.000000 1.934360 0.000000 
#    z 0.000000 0.000000 1.939100 
# 
# From -- ./inp_files/8262.got.cif
#   From: 2010.03.12/outbox.cif.g09.slc.cpg/sg73_5_cif.got.tgz:8262.got - 2010.04.16 15:25:48.
