data_PCOD8296907
_publ_section_title
;
Structure prediction by ZEFSAII (Michael W. Deem and Ramdas Pophale) SiO2 
 PCOD8296907
Probable space group: I B C A 
;
_chemical_formula_sum "Si O2"
_cell_formula_units_Z 112
_cell_length_a 15.631926
_cell_length_b 23.454668
_cell_length_c 13.836256
_cell_angle_alpha 90.000000
_cell_angle_beta 90.000000
_cell_angle_gamma 90.000000
_cell_volume 5072.947516
_symmetry_space_group_name_H-M "I B C A "
_symmetry_group_IT_number 73
_symmetry_cell_setting 'orthorhombic'
loop_
_space_group_symop_operation_xyz
x,y,z
-x,1/2-y,z
x,-y,1/2-z
1/2-x,y,-z
-x,-y,-z
x,1/2+y,-z
-x,y,1/2+z
1/2+x,-y,z
1/2+x,1/2+y,1/2+z
1/2-x,-y,1/2+z
1/2+x,1/2-y,-z
-x,1/2+y,1/2-z
1/2-x,1/2-y,1/2-z
1/2+x,y,1/2-z
1/2-x,1/2+y,z
x,1/2-y,1/2+z
loop_
_atom_site_type_symbol
_atom_site_label
_atom_site_fract_x
_atom_site_fract_y
_atom_site_fract_z
Si Si1 0.669664 0.145495 0.934399
Si Si2 0.000000 0.750000 0.693879
Si Si3 0.369484 0.876152 0.597384
Si Si4 0.993773 0.361282 0.434330
Si Si5 0.670502 0.758068 0.180835
Si Si6 0.282639 0.539462 0.664333
Si Si7 0.750000 0.037099 0.500000
Si Si8 0.085604 0.939243 0.217618
O O1 0.678339 0.208799 0.896585
O O2 0.666793 0.099674 0.845752
O O3 0.750000 0.128495 0.000000
O O4 0.585269 0.145985 0.996039
O O5 0.009833 0.804843 0.627111
O O6 0.917780 0.755694 0.761497
O O7 0.424537 0.871707 0.500671
O O8 0.322611 0.816915 0.621587
O O9 0.300810 0.924931 0.576718
O O10 0.420972 0.895664 0.692337
O O11 0.976661 0.415058 0.365012
O O12 0.750000 0.750000 0.250000
O O13 0.318782 0.500000 0.750000
O O14 0.305591 0.504690 0.567011
O O15 0.182016 0.553410 0.677996
O O16 0.048004 0.000000 0.250000
#
# Coordination Sequence:
#
# PCOD8296907 Si02
#       8
#    16   8  16  16  16  16   8  16
#     4  12  24  43  71 107 139 187 242 291 360 435
#     4  12  26  50  72 102 146 192 236 302 370 428
#     4  12  27  46  72 107 142 188 245 299 357 435
#     4  12  26  46  72 103 146 189 237 304 357 432
#     4  12  27  46  75 107 144 191 243 301 370 438
#     4  11  22  45  73 102 144 191 237 298 361 431
#     4  12  24  44  74 102 140 188 242 294 356 426
#     4  11  22  48  71 101 150 191 233 297 364 426
#
# _framework density 22.077895000000002
#
# number of rings (size 3 to 8) (size 9 to 14) (size 15 to 20)
#    0.000    0.286    6.429    3.429    3.000    0.571 
#    0.000    0.000    0.000    0.000    0.000    0.000 
#    0.000    0.000    0.000    0.000    0.000    0.000 
#
# Total GULP energy -694506.588677 kJ/mol
# GULP energy per Si atom -12401.903369 kJ/mol
# Density = 2.202764 g / cm^3
# Si number density = 22.077895 Si / 1000 Ang^3
#
#
#
# Elastic Constant Matrix: (Units=GPa)
#
#
# Indices 1 2 3 4 5 6 
#
# 1 58.1274 4.0371 11.1051 0.0000 0.0000 0.0000
# 2 4.0371 158.6373 50.4874 0.0000 0.0000 0.0000
# 3 11.1051 50.4874 108.9073 -0.0001 0.0000 0.0000
# 4 0.0000 0.0000 -0.0001 50.1190 0.0000 0.0000
# 5 0.0000 0.0000 0.0000 0.0000 18.5827 0.0000
# 6 0.0000 0.0000 0.0000 0.0000 0.0000 37.3015
#
#
#
# Elastic Compliance Matrix: (Units=1/GPa)
#
#
# Indices 1 2 3 4 5 6 
#
# 1 0.017548 0.000144 -0.001856 0.000000 0.000000 0.000000
# 2 0.000144 0.007396 -0.003443 0.000000 0.000000 0.000000
# 3 -0.001856 -0.003443 0.010968 0.000000 0.000000 0.000000
# 4 0.000000 0.000000 0.000000 0.019953 0.000000 0.000000
# 5 0.000000 0.000000 0.000000 0.000000 0.053813 0.000000
# 6 0.000000 0.000000 0.000000 0.000000 0.000000 0.026809
#
#
# Mechanical properties :
#
#
# Convention : Reuss Voigt Hill
#
# Bulk Modulus (GPa) = 39.06086 50.77013 44.91549
# Shear Modulus (GPa) = 32.18943 38.53681 35.36312
#
# Velocity S-wave (km/s) = 3.82251 4.18244 4.00652
# Velocity P-wave (km/s) = 6.10023 6.80952 6.46461
#
# Compressibility (1/GPa) = 0.02560108
#
# Stress axis : x y z
#
# Youngs Moduli (GPa) = 56.98591 135.21065 91.17733
#
# Poissons Ratio (x) = -0.01949 0.16924
# Poissons Ratio (y) = -0.00822 0.31395
# Poissons Ratio (z) = 0.10578 0.46557
#
# Static dielectric constant tensor:
#      x y z
#    x 2.975790 0.000000 0.000000 
#    y 0.000000 4.314640 0.000000 
#    z 0.000000 0.000000 4.125350 
# 
# 
# High freq. dielectric constant tensor:
#      x y z
#    x 1.844470 0.000000 0.000000 
#    y 0.000000 1.896350 0.000000 
#    z 0.000000 0.000000 1.889260 
# 
# From -- ./inp_files/17310.got.cif
#   From: 2010.03.12/outbox.cif.g09.slc.cpg/sg73_9_cif.got.tgz:17310.got - 2010.04.16 15:25:48.
