data_PCOD8296672
_publ_section_title
;
Structure prediction by ZEFSAII (Michael W. Deem and Ramdas Pophale) SiO2 
 PCOD8296672
Probable space group: I B C A 
;
_chemical_formula_sum "Si O2"
_cell_formula_units_Z 96
_cell_length_a 20.308736
_cell_length_b 8.972375
_cell_length_c 24.260589
_cell_angle_alpha 90.000000
_cell_angle_beta 90.000000
_cell_angle_gamma 90.000000
_cell_volume 4420.706185
_symmetry_space_group_name_H-M "I B C A "
_symmetry_group_IT_number 73
_symmetry_cell_setting 'orthorhombic'
loop_
_space_group_symop_operation_xyz
x,y,z
-x,1/2-y,z
x,-y,1/2-z
1/2-x,y,-z
-x,-y,-z
x,1/2+y,-z
-x,y,1/2+z
1/2+x,-y,z
1/2+x,1/2+y,1/2+z
1/2-x,-y,1/2+z
1/2+x,1/2-y,-z
-x,1/2+y,1/2-z
1/2-x,1/2-y,1/2-z
1/2+x,y,1/2-z
1/2-x,1/2+y,z
x,1/2-y,1/2+z
loop_
_atom_site_type_symbol
_atom_site_label
_atom_site_fract_x
_atom_site_fract_y
_atom_site_fract_z
Si Si1 0.391637 0.960761 0.505193
Si Si2 0.807341 0.115552 0.155470
Si Si3 0.072229 0.422709 0.383265
Si Si4 0.574245 0.582397 0.882403
Si Si5 0.192617 0.797685 0.964365
Si Si6 0.318211 0.935414 0.691985
O O1 0.429565 0.052563 0.552102
O O2 0.322986 0.041318 0.490029
O O3 0.433171 0.950606 0.448977
O O4 0.373617 0.800307 0.530826
O O5 0.782785 0.186959 0.098172
O O6 0.815031 0.255437 0.196949
O O7 0.877032 0.032064 0.147401
O O8 0.753734 0.000218 0.177918
O O9 0.094853 0.253444 0.372144
O O10 0.999051 0.450101 0.358778
O O11 0.628169 0.477638 0.854036
O O12 0.250000 0.722050 0.000000
O O13 0.342767 0.000000 0.750000
#
# Coordination Sequence:
#
# PCOD8296672 Si02
#       6
#    16  16  16  16  16  16
#     4  11  20  37  58  93 135 175 212 254 318 402
#     4  11  25  43  66  98 130 172 219 276 329 394
#     4  10  24  41  66  97 136 177 211 261 334 401
#     4  11  22  44  64  95 136 175 217 272 324 395
#     4  11  22  33  58  95 134 175 210 256 324 397
#     4  12  26  46  70  94 125 170 226 286 338 385
#
# _framework density 21.715987999999999
#
# number of rings (size 3 to 8) (size 9 to 14) (size 15 to 20)
#    0.000    1.000    3.333    3.500    4.667    0.667 
#    0.000    4.167    0.000    0.000    0.000    0.000 
#    0.000    0.000    0.000    0.000    0.000    0.000 
#
# Total GULP energy -595224.986362 kJ/mol
# GULP energy per Si atom -12400.520549 kJ/mol
# Density = 2.166656 g / cm^3
# Si number density = 21.715988 Si / 1000 Ang^3
#
#
#
# Elastic Constant Matrix: (Units=GPa)
#
#
# Indices 1 2 3 4 5 6 
#
# 1 103.8107 49.5041 25.2140 0.0000 0.0000 0.0000
# 2 49.5041 123.2264 23.8440 0.0000 0.0000 0.0000
# 3 25.2140 23.8440 67.7473 0.0000 0.0000 0.0000
# 4 0.0000 0.0000 0.0000 30.7818 0.0000 0.0000
# 5 0.0000 0.0000 0.0000 0.0000 14.9965 0.0000
# 6 0.0000 0.0000 0.0000 0.0000 0.0000 31.1236
#
#
#
# Elastic Compliance Matrix: (Units=1/GPa)
#
#
# Indices 1 2 3 4 5 6 
#
# 1 0.012492 -0.004420 -0.003094 0.000000 0.000000 0.000000
# 2 -0.004420 0.010272 -0.001970 0.000000 0.000000 0.000000
# 3 -0.003094 -0.001970 0.016606 0.000000 0.000000 0.000000
# 4 0.000000 0.000000 0.000000 0.032487 0.000000 0.000000
# 5 0.000000 0.000000 0.000000 0.000000 0.066682 0.000000
# 6 0.000000 0.000000 0.000000 0.000000 0.000000 0.032130
#
#
# Mechanical properties :
#
#
# Convention : Reuss Voigt Hill
#
# Bulk Modulus (GPa) = 49.01492 54.65654 51.83573
# Shear Modulus (GPa) = 25.45346 28.46186 26.95766
#
# Velocity S-wave (km/s) = 3.42732 3.62420 3.52714
# Velocity P-wave (km/s) = 6.18724 6.53732 6.36469
#
# Compressibility (1/GPa) = 0.02040195
#
# Stress axis : x y z
#
# Youngs Moduli (GPa) = 80.05122 97.35211 60.22070
#
# Poissons Ratio (x) = 0.43028 0.18630
# Poissons Ratio (y) = 0.35381 0.11865
# Poissons Ratio (z) = 0.24765 0.19181
#
# Static dielectric constant tensor:
#      x y z
#    x 3.674220 0.000000 0.000000 
#    y 0.000000 3.949910 0.000000 
#    z 0.000000 0.000000 3.707010 
# 
# 
# High freq. dielectric constant tensor:
#      x y z
#    x 1.848510 0.000000 0.000000 
#    y 0.000000 1.867730 0.000000 
#    z 0.000000 0.000000 1.829080 
# 
# From -- ./inp_files/32606.got.cif
#   From: 2010.03.12/outbox.cif.g09.slc.cpg/sg73_17_cif.got.tgz:32606.got - 2010.04.16 15:25:48.
