data_PCOD8296974
_publ_section_title
;
Structure prediction by ZEFSAII (Michael W. Deem and Ramdas Pophale) SiO2 
 PCOD8296974
Probable space group: I B C A 
;
_chemical_formula_sum "Si O2"
_cell_formula_units_Z 112
_cell_length_a 11.516109
_cell_length_b 29.301788
_cell_length_c 14.811180
_cell_angle_alpha 90.000000
_cell_angle_beta 90.000000
_cell_angle_gamma 90.000000
_cell_volume 4997.922859
_symmetry_space_group_name_H-M "I B C A "
_symmetry_group_IT_number 73
_symmetry_cell_setting 'orthorhombic'
loop_
_space_group_symop_operation_xyz
x,y,z
-x,1/2-y,z
x,-y,1/2-z
1/2-x,y,-z
-x,-y,-z
x,1/2+y,-z
-x,y,1/2+z
1/2+x,-y,z
1/2+x,1/2+y,1/2+z
1/2-x,-y,1/2+z
1/2+x,1/2-y,-z
-x,1/2+y,1/2-z
1/2-x,1/2-y,1/2-z
1/2+x,y,1/2-z
1/2-x,1/2+y,z
x,1/2-y,1/2+z
loop_
_atom_site_type_symbol
_atom_site_label
_atom_site_fract_x
_atom_site_fract_y
_atom_site_fract_z
Si Si1 0.840039 0.273484 0.656625
Si Si2 0.788788 0.857282 0.600395
Si Si3 0.000000 0.250000 0.503277
Si Si4 0.836180 0.000000 0.750000
Si Si5 0.524542 0.986784 0.900278
Si Si6 0.044331 0.889915 0.650579
Si Si7 0.148692 0.703784 0.149172
Si Si8 0.158506 0.935219 0.805897
O O1 0.740160 0.312161 0.658042
O O2 0.904647 0.278686 0.754120
O O3 0.780060 0.223586 0.645203
O O4 0.926202 0.281852 0.572137
O O5 0.750000 0.845035 0.500000
O O6 0.923113 0.866924 0.622072
O O7 0.710200 0.900052 0.623970
O O8 0.079575 0.280032 0.438836
O O9 0.910000 0.008802 0.839767
O O10 0.757706 0.954061 0.762453
O O11 0.621058 0.019754 0.859550
O O12 0.568417 0.934356 0.910011
O O13 0.500000 0.000000 0.000000
O O14 0.145319 0.851483 0.643920
O O15 0.051502 0.911041 0.752762
#
# Coordination Sequence:
#
# PCOD8296974 Si02
#       8
#    16  16   8   8  16  16  16  16
#     4  11  25  46  72 102 138 189 230 298 362 428
#     4  12  24  42  73 104 137 186 241 286 354 431
#     4  12  24  46  72 100 140 182 232 290 358 426
#     4  12  22  46  68  92 140 186 226 294 350 416
#     4  12  25  43  70 101 139 190 237 288 355 425
#     4  12  23  45  69 101 142 185 230 299 349 428
#     4  11  24  44  69 102 138 180 238 285 356 431
#     4  12  23  44  68 101 141 183 238 285 356 415
#
# _framework density 22.409309
#
# number of rings (size 3 to 8) (size 9 to 14) (size 15 to 20)
#    0.000    0.286    5.714    4.286    0.000    1.143 
#    0.000    2.857    0.000    0.000    0.000    0.000 
#    0.000    0.000    0.000    0.000    0.000    0.000 
#
# Total GULP energy -693858.984960 kJ/mol
# GULP energy per Si atom -12390.339017 kJ/mol
# Density = 2.235830 g / cm^3
# Si number density = 22.409309 Si / 1000 Ang^3
#
#
#
# Elastic Constant Matrix: (Units=GPa)
#
#
# Indices 1 2 3 4 5 6 
#
# 1 81.8757 46.9008 36.0838 0.0001 0.0001 0.0000
# 2 46.9008 137.4913 27.2414 -0.0003 0.0003 -0.0001
# 3 36.0838 27.2414 145.5422 0.0014 -0.0013 -0.0004
# 4 0.0001 -0.0003 0.0014 29.4017 -0.0005 -0.0001
# 5 0.0001 0.0003 -0.0013 -0.0005 29.2619 0.0002
# 6 0.0000 -0.0001 -0.0004 -0.0001 0.0002 43.5981
#
#
#
# Elastic Compliance Matrix: (Units=1/GPa)
#
#
# Indices 1 2 3 4 5 6 
#
# 1 0.016459 -0.004991 -0.003147 0.000000 0.000000 0.000000
# 2 -0.004991 0.009067 -0.000460 0.000000 0.000000 0.000000
# 3 -0.003147 -0.000460 0.007737 0.000000 0.000000 0.000000
# 4 0.000000 0.000000 0.000000 0.034012 0.000001 0.000000
# 5 0.000000 0.000000 0.000000 0.000001 0.034174 0.000000
# 6 0.000000 0.000000 0.000000 0.000000 0.000000 0.022937
#
#
# Mechanical properties :
#
#
# Convention : Reuss Voigt Hill
#
# Bulk Modulus (GPa) = 62.23306 65.04013 63.63659
# Shear Modulus (GPa) = 34.02827 37.43124 35.72975
#
# Velocity S-wave (km/s) = 3.90101 4.09142 3.99735
# Velocity P-wave (km/s) = 6.93699 7.16982 7.05437
#
# Compressibility (1/GPa) = 0.01606863
#
# Stress axis : x y z
#
# Youngs Moduli (GPa) = 60.75534 110.29197 129.24915
#
# Poissons Ratio (x) = 0.55049 0.40669
# Poissons Ratio (y) = 0.30324 0.05940
# Poissons Ratio (z) = 0.19117 0.05069
#
# Static dielectric constant tensor:
#      x y z
#    x 4.123350 0.000000 0.000000 
#    y 0.000000 4.360690 0.000000 
#    z 0.000000 0.000000 4.560620 
# 
# 
# High freq. dielectric constant tensor:
#      x y z
#    x 1.869110 0.000000 0.000000 
#    y 0.000000 1.899930 0.000000 
#    z 0.000000 0.000000 1.886170 
# 
# From -- ./inp_files/16391.got.cif
#   From: 2010.03.12/outbox.cif.g09.slc.cpg/sg73_9_cif.got.tgz:16391.got - 2010.04.16 15:25:48.
