data_PCOD8296912
_publ_section_title
;
Structure prediction by ZEFSAII (Michael W. Deem and Ramdas Pophale) SiO2 
 PCOD8296912
Probable space group: I B C A 
;
_chemical_formula_sum "Si O2"
_cell_formula_units_Z 112
_cell_length_a 20.436723
_cell_length_b 16.542940
_cell_length_c 13.565266
_cell_angle_alpha 90.000000
_cell_angle_beta 90.000000
_cell_angle_gamma 90.000000
_cell_volume 4586.192369
_symmetry_space_group_name_H-M "I B C A "
_symmetry_group_IT_number 73
_symmetry_cell_setting 'orthorhombic'
loop_
_space_group_symop_operation_xyz
x,y,z
-x,1/2-y,z
x,-y,1/2-z
1/2-x,y,-z
-x,-y,-z
x,1/2+y,-z
-x,y,1/2+z
1/2+x,-y,z
1/2+x,1/2+y,1/2+z
1/2-x,-y,1/2+z
1/2+x,1/2-y,-z
-x,1/2+y,1/2-z
1/2-x,1/2-y,1/2-z
1/2+x,y,1/2-z
1/2-x,1/2+y,z
x,1/2-y,1/2+z
loop_
_atom_site_type_symbol
_atom_site_label
_atom_site_fract_x
_atom_site_fract_y
_atom_site_fract_z
Si Si1 0.766895 0.086305 0.712616
Si Si2 0.102998 0.029200 0.641182
Si Si3 0.964267 0.977502 0.638883
Si Si4 0.352074 0.810521 0.214859
Si Si5 0.377171 0.331639 0.155570
Si Si6 0.148532 0.066326 0.029265
Si Si7 0.323619 0.236002 0.984066
O O1 0.706751 0.148800 0.723243
O O2 0.827556 0.113898 0.781031
O O3 0.786815 0.075101 0.597869
O O4 0.741615 0.000000 0.750000
O O5 0.103000 0.126195 0.653650
O O6 0.118882 0.000000 0.750000
O O7 0.157861 0.994729 0.564467
O O8 0.035651 0.995565 0.590506
O O9 0.942634 0.883386 0.632590
O O10 0.978641 0.000000 0.750000
O O11 0.909736 0.036370 0.598046
O O12 0.393501 0.753199 0.289128
O O13 0.323782 0.751610 0.132612
O O14 0.345766 0.312357 0.049125
O O15 0.132118 0.156888 0.990682
O O16 0.250000 0.211770 0.000000
#
# Coordination Sequence:
#
# PCOD8296912 Si02
#       7
#    16  16  16  16  16  16  16
#     4  12  23  42  76 103 142 190 242 296 360 449
#     4  11  27  47  68 103 150 190 242 308 361 434
#     4  11  22  47  75  98 140 195 253 302 353 439
#     4  12  25  45  68 111 151 183 240 311 377 429
#     4  12  22  46  72 105 143 193 248 297 375 436
#     4  12  23  46  70 107 138 199 256 288 367 446
#     4  12  25  39  68 103 151 191 232 312 377 438
#
# _framework density 24.421129000000001
#
# number of rings (size 3 to 8) (size 9 to 14) (size 15 to 20)
#    0.000    0.286    5.714    3.857    0.000    1.143 
#    0.000   11.429    0.000    0.000    0.000    0.000 
#    0.000    0.000    0.000    0.000    0.000    0.000 
#
# Total GULP energy -694208.032681 kJ/mol
# GULP energy per Si atom -12396.572012 kJ/mol
# Density = 2.436555 g / cm^3
# Si number density = 24.421129 Si / 1000 Ang^3
#
#
#
# Elastic Constant Matrix: (Units=GPa)
#
#
# Indices 1 2 3 4 5 6 
#
# 1 95.2046 64.7755 33.3291 0.0000 0.0000 0.0000
# 2 64.7755 153.4262 28.3259 0.0000 0.0000 0.0000
# 3 33.3291 28.3259 90.0970 0.0000 0.0000 0.0000
# 4 0.0000 0.0000 0.0000 43.8644 0.0000 0.0000
# 5 0.0000 0.0000 0.0000 0.0000 1.0469 0.0000
# 6 0.0000 0.0000 0.0000 0.0000 0.0000 44.2181
#
#
#
# Elastic Compliance Matrix: (Units=1/GPa)
#
#
# Indices 1 2 3 4 5 6 
#
# 1 0.016006 -0.006014 -0.004030 0.000000 0.000000 0.000000
# 2 -0.006014 0.009179 -0.000661 0.000000 0.000000 0.000000
# 3 -0.004030 -0.000661 0.012798 0.000000 0.000000 0.000000
# 4 0.000000 0.000000 0.000000 0.022798 0.000000 0.000000
# 5 0.000000 0.000000 0.000000 0.000000 0.955234 0.000000
# 6 0.000000 0.000000 0.000000 0.000000 0.000000 0.022615
#
#
# Mechanical properties :
#
#
# Convention : Reuss Voigt Hill
#
# Bulk Modulus (GPa) = 60.34087 65.73207 63.03647
# Shear Modulus (GPa) = 4.69235 31.97902 18.33569
#
# Velocity S-wave (km/s) = 1.38766 3.62260 2.74307
# Velocity P-wave (km/s) = 5.22777 6.66874 5.99173
#
# Compressibility (1/GPa) = 0.01657252
#
# Stress axis : x y z
#
# Youngs Moduli (GPa) = 62.47569 108.94722 78.13731
#
# Poissons Ratio (x) = 0.65517 0.31493
# Poissons Ratio (y) = 0.37570 0.05166
# Poissons Ratio (z) = 0.25181 0.07203
#
# Static dielectric constant tensor:
#      x y z
#    x 4.226670 0.000000 0.000000 
#    y 0.000000 5.020740 0.000000 
#    z 0.000000 0.000000 4.690050 
# 
# 
# High freq. dielectric constant tensor:
#      x y z
#    x 1.937730 0.000000 0.000000 
#    y 0.000000 1.984080 0.000000 
#    z 0.000000 0.000000 1.998300 
# 
# From -- ./inp_files/19385.got.cif
#   From: 2010.03.12/outbox.cif.g09.slc.cpg/sg73_10_cif.got.tgz:19385.got - 2010.04.16 15:25:48.
