data_PCOD8296993
_publ_section_title
;
Structure prediction by ZEFSAII (Michael W. Deem and Ramdas Pophale) SiO2 
 PCOD8296993
Probable space group: I B C A 
;
_chemical_formula_sum "Si O2"
_cell_formula_units_Z 64
_cell_length_a 29.097003
_cell_length_b 9.103236
_cell_length_c 10.526551
_cell_angle_alpha 90.000000
_cell_angle_beta 90.000000
_cell_angle_gamma 90.000000
_cell_volume 2788.240041
_symmetry_space_group_name_H-M "I B C A "
_symmetry_group_IT_number 73
_symmetry_cell_setting 'orthorhombic'
loop_
_space_group_symop_operation_xyz
x,y,z
-x,1/2-y,z
x,-y,1/2-z
1/2-x,y,-z
-x,-y,-z
x,1/2+y,-z
-x,y,1/2+z
1/2+x,-y,z
1/2+x,1/2+y,1/2+z
1/2-x,-y,1/2+z
1/2+x,1/2-y,-z
-x,1/2+y,1/2-z
1/2-x,1/2-y,1/2-z
1/2+x,y,1/2-z
1/2-x,1/2+y,z
x,1/2-y,1/2+z
loop_
_atom_site_type_symbol
_atom_site_label
_atom_site_fract_x
_atom_site_fract_y
_atom_site_fract_z
Si Si1 0.516766 0.918266 0.375472
Si Si2 0.120231 0.487562 0.613372
Si Si3 0.788491 0.000000 0.250000
Si Si4 0.750000 0.877441 0.000000
Si Si5 0.163242 0.799343 0.921638
O O1 0.500000 0.750000 0.374631
O O2 0.496878 0.000000 0.250000
O O3 0.500000 0.000000 0.500000
O O4 0.571536 0.931469 0.377122
O O5 0.145185 0.500000 0.750000
O O6 0.119438 0.311483 0.586327
O O7 0.150718 0.559846 0.505161
O O8 0.756100 0.025835 0.372527
O O9 0.821396 0.139411 0.216766
O O10 0.705152 0.779736 0.010943
#
# Coordination Sequence:
#
# PCOD8296993 Si02
#       5
#    16  16   8   8  16
#     4  11  24  47  76 109 148 188 237 295 366 440
#     4  11  26  45  71 104 144 184 236 298 355 426
#     4  12  26  46  72 104 138 202 240 304 356 422
#     4  12  26  46  72 100 146 194 244 298 358 424
#     4  12  25  46  70 104 144 187 248 292 362 418
#
# _framework density 22.953545999999999
#
# number of rings (size 3 to 8) (size 9 to 14) (size 15 to 20)
#    0.000    0.500    2.500    5.250    1.750    2.000 
#    2.250    0.000    0.000    0.000    0.000    0.000 
#    0.000    0.000    0.000    0.000    0.000    0.000 
#
# Total GULP energy -396701.940693 kJ/mol
# GULP energy per Si atom -12396.935647 kJ/mol
# Density = 2.290130 g / cm^3
# Si number density = 22.953546 Si / 1000 Ang^3
#
#
#
# Elastic Constant Matrix: (Units=GPa)
#
#
# Indices 1 2 3 4 5 6 
#
# 1 80.2471 47.2264 36.5604 0.0000 0.0000 0.0000
# 2 47.2264 177.6287 78.0067 0.0000 0.0000 0.0000
# 3 36.5604 78.0067 189.9460 0.0000 0.0000 0.0000
# 4 0.0000 0.0000 0.0000 49.4268 0.0000 0.0000
# 5 0.0000 0.0000 0.0000 0.0000 32.2324 0.0000
# 6 0.0000 0.0000 0.0000 0.0000 0.0000 27.4367
#
#
#
# Elastic Compliance Matrix: (Units=1/GPa)
#
#
# Indices 1 2 3 4 5 6 
#
# 1 0.015132 -0.003348 -0.001538 0.000000 0.000000 0.000000
# 2 -0.003348 0.007609 -0.002481 0.000000 0.000000 0.000000
# 3 -0.001538 -0.002481 0.006579 0.000000 0.000000 0.000000
# 4 0.000000 0.000000 0.000000 0.020232 0.000000 0.000000
# 5 0.000000 0.000000 0.000000 0.000000 0.031025 0.000000
# 6 0.000000 0.000000 0.000000 0.000000 0.000000 0.036448
#
#
# Mechanical properties :
#
#
# Convention : Reuss Voigt Hill
#
# Bulk Modulus (GPa) = 68.54712 85.71210 77.12961
# Shear Modulus (GPa) = 36.59776 40.88772 38.74274
#
# Velocity S-wave (km/s) = 3.99736 4.22515 4.11283
# Velocity P-wave (km/s) = 7.15775 7.82465 7.49862
#
# Compressibility (1/GPa) = 0.01458851
#
# Stress axis : x y z
#
# Youngs Moduli (GPa) = 66.08333 131.42012 151.99126
#
# Poissons Ratio (x) = 0.43999 0.23372
# Poissons Ratio (y) = 0.22125 0.37702
# Poissons Ratio (z) = 0.10162 0.32599
#
# Static dielectric constant tensor:
#      x y z
#    x 4.073270 0.000000 0.000000 
#    y 0.000000 5.149180 0.000000 
#    z 0.000000 0.000000 5.612350 
# 
# 
# High freq. dielectric constant tensor:
#      x y z
#    x 1.891860 0.000000 0.000000 
#    y 0.000000 1.923160 0.000000 
#    z 0.000000 0.000000 1.927060 
# 
# From -- ./inp_files/9060.got.cif
#   From: 2010.03.12/outbox.cif.g09.slc.cpg/sg73_5_cif.got.tgz:9060.got - 2010.04.16 15:25:48.
