data_PCOD8296774
_publ_section_title
;
Structure prediction by ZEFSAII (Michael W. Deem and Ramdas Pophale) SiO2 
 PCOD8296774
Probable space group: I B C A 
;
_chemical_formula_sum "Si O2"
_cell_formula_units_Z 64
_cell_length_a 11.566147
_cell_length_b 8.728538
_cell_length_c 26.303825
_cell_angle_alpha 90.000000
_cell_angle_beta 90.000000
_cell_angle_gamma 90.000000
_cell_volume 2655.517215
_symmetry_space_group_name_H-M "I B C A "
_symmetry_group_IT_number 73
_symmetry_cell_setting 'orthorhombic'
loop_
_space_group_symop_operation_xyz
x,y,z
-x,1/2-y,z
x,-y,1/2-z
1/2-x,y,-z
-x,-y,-z
x,1/2+y,-z
-x,y,1/2+z
1/2+x,-y,z
1/2+x,1/2+y,1/2+z
1/2-x,-y,1/2+z
1/2+x,1/2-y,-z
-x,1/2+y,1/2-z
1/2-x,1/2-y,1/2-z
1/2+x,y,1/2-z
1/2-x,1/2+y,z
x,1/2-y,1/2+z
loop_
_atom_site_type_symbol
_atom_site_label
_atom_site_fract_x
_atom_site_fract_y
_atom_site_fract_z
Si Si1 0.750000 0.843810 0.000000
Si Si2 0.172394 0.584456 0.570778
Si Si3 0.159054 0.000000 0.250000
Si Si4 0.000000 0.250000 0.710640
Si Si5 0.000000 0.250000 0.365308
Si Si6 0.337837 0.509048 0.660196
O O1 0.687676 0.745656 0.957287
O O2 0.844138 0.951910 0.971348
O O3 0.284373 0.541551 0.604846
O O4 0.056921 0.609022 0.603354
O O5 0.078750 0.150097 0.248393
O O6 0.233441 0.007565 0.300419
O O7 0.925546 0.355913 0.673533
O O8 0.100001 0.342068 0.334931
#
# Coordination Sequence:
#
# PCOD8296774 Si02
#       6
#     8  16   8   8   8  16
#     4  10  24  48  74 104 154 194 252 316 370 424
#     4  11  24  48  71 111 150 196 248 317 360 446
#     4  12  28  52  76 112 152 194 244 306 360 454
#     4  12  28  47  77 108 146 200 243 290 385 438
#     4  12  26  47  79 108 148 202 243 300 387 438
#     4  12  27  48  76 111 153 191 249 309 364 446
#
# _framework density 24.100766
#
# number of rings (size 3 to 8) (size 9 to 14) (size 15 to 20)
#    0.000    0.500    2.500    4.500    3.500    8.000 
#    0.000    0.000    0.000    0.000    0.000    0.000 
#    0.000    0.000    0.000    0.000    0.000    0.000 
#
# Total GULP energy -396869.446083 kJ/mol
# GULP energy per Si atom -12402.170190 kJ/mol
# Density = 2.404591 g / cm^3
# Si number density = 24.100766 Si / 1000 Ang^3
#
#
#
# Elastic Constant Matrix: (Units=GPa)
#
#
# Indices 1 2 3 4 5 6 
#
# 1 122.0654 61.2823 53.5976 0.0000 0.0000 0.0000
# 2 61.2823 159.1267 69.7419 0.0000 0.0000 0.0000
# 3 53.5976 69.7419 113.2481 0.0000 0.0000 0.0000
# 4 0.0000 0.0000 0.0000 45.0697 0.0000 0.0000
# 5 0.0000 0.0000 0.0000 0.0000 4.4183 0.0000
# 6 0.0000 0.0000 0.0000 0.0000 0.0000 39.9252
#
#
#
# Elastic Compliance Matrix: (Units=1/GPa)
#
#
# Indices 1 2 3 4 5 6 
#
# 1 0.011134 -0.002710 -0.003601 0.000000 0.000000 0.000000
# 2 -0.002710 0.009267 -0.004424 0.000000 0.000000 0.000000
# 3 -0.003601 -0.004424 0.013259 0.000000 0.000000 0.000000
# 4 0.000000 0.000000 0.000000 0.022188 0.000000 0.000000
# 5 0.000000 0.000000 0.000000 0.000000 0.226329 0.000000
# 6 0.000000 0.000000 0.000000 0.000000 0.000000 0.025047
#
#
# Mechanical properties :
#
#
# Convention : Reuss Voigt Hill
#
# Bulk Modulus (GPa) = 82.03355 84.85376 83.44365
# Shear Modulus (GPa) = 15.02600 31.87054 23.44827
#
# Velocity S-wave (km/s) = 2.49964 3.64041 3.12256
# Velocity P-wave (km/s) = 6.51479 7.27698 6.90641
#
# Compressibility (1/GPa) = 0.01219013
#
# Stress axis : x y z
#
# Youngs Moduli (GPa) = 89.81741 107.90958 75.42052
#
# Poissons Ratio (x) = 0.29240 0.27156
# Poissons Ratio (y) = 0.24338 0.33370
# Poissons Ratio (z) = 0.32339 0.47745
#
# Static dielectric constant tensor:
#      x y z
#    x 4.354190 0.000000 0.000000 
#    y 0.000000 4.630730 0.000000 
#    z 0.000000 0.000000 4.512320 
# 
# 
# High freq. dielectric constant tensor:
#      x y z
#    x 1.948630 0.000000 0.000000 
#    y 0.000000 1.977750 0.000000 
#    z 0.000000 0.000000 1.969940 
# 
# From -- ./inp_files/4048.got.cif
#   From: 2010.03.12/outbox.cif.g09.slc.cpg/sg73_3_cif.got.tgz:4048.got - 2010.04.16 15:25:48.
