data_PCOD8296344
_publ_section_title
;
Structure prediction by ZEFSAII (Michael W. Deem and Ramdas Pophale) SiO2 
 PCOD8296344
Probable space group: I B C A 
;
_chemical_formula_sum "Si O2"
_cell_formula_units_Z 112
_cell_length_a 13.776453
_cell_length_b 12.747783
_cell_length_c 28.275375
_cell_angle_alpha 90.000000
_cell_angle_beta 90.000000
_cell_angle_gamma 90.000000
_cell_volume 4965.699680
_symmetry_space_group_name_H-M "I B C A "
_symmetry_group_IT_number 73
_symmetry_cell_setting 'orthorhombic'
loop_
_space_group_symop_operation_xyz
x,y,z
-x,1/2-y,z
x,-y,1/2-z
1/2-x,y,-z
-x,-y,-z
x,1/2+y,-z
-x,y,1/2+z
1/2+x,-y,z
1/2+x,1/2+y,1/2+z
1/2-x,-y,1/2+z
1/2+x,1/2-y,-z
-x,1/2+y,1/2-z
1/2-x,1/2-y,1/2-z
1/2+x,y,1/2-z
1/2-x,1/2+y,z
x,1/2-y,1/2+z
loop_
_atom_site_type_symbol
_atom_site_label
_atom_site_fract_x
_atom_site_fract_y
_atom_site_fract_z
Si Si1 0.284591 0.210461 0.447302
Si Si2 0.655669 0.155490 0.620162
Si Si3 0.889704 0.791284 0.794963
Si Si4 0.163685 0.972108 0.359624
Si Si5 0.098697 0.911508 0.457579
Si Si6 0.893254 0.989550 0.447450
Si Si7 0.687435 0.686900 0.808356
O O1 0.250000 0.192608 0.500000
O O2 0.200375 0.257115 0.414761
O O3 0.374179 0.291688 0.446817
O O4 0.316391 0.095924 0.427343
O O5 0.728335 0.070269 0.640610
O O6 0.621992 0.220805 0.666297
O O7 0.580204 0.081480 0.591101
O O8 0.901530 0.888849 0.830484
O O9 0.804531 0.710643 0.813205
O O10 0.848948 0.828208 0.744593
O O11 0.000000 0.750000 0.790889
O O12 0.128611 0.984545 0.413636
O O13 0.159578 0.082156 0.334621
O O14 0.983815 0.920292 0.463723
O O15 0.149734 0.952023 0.505942
#
# Coordination Sequence:
#
# PCOD8296344 Si02
#       7
#    16  16  16  16  16  16  16
#     4  11  22  36  62  84 121 169 213 259 308 381
#     4  10  22  38  61  94 124 168 216 260 319 384
#     4  10  23  44  70  96 133 170 219 279 345 413
#     4  10  22  39  65  94 128 169 219 272 332 402
#     4  10  24  40  57  92 126 163 220 261 321 385
#     4  11  23  39  59  88 130 170 212 269 319 380
#     4  10  22  43  67 100 131 168 223 279 336 411
#
# _framework density 22.554725999999999
#
# number of rings (size 3 to 8) (size 9 to 14) (size 15 to 20)
#    0.000    1.714    1.429    1.714    6.000    5.714 
#    0.000    7.143    0.000    0.000    0.000    0.000 
#    0.000    0.000    0.000    0.000    0.000    0.000 
#
# Total GULP energy -693796.999436 kJ/mol
# GULP energy per Si atom -12389.232133 kJ/mol
# Density = 2.250339 g / cm^3
# Si number density = 22.554726 Si / 1000 Ang^3
#
#
#
# Elastic Constant Matrix: (Units=GPa)
#
#
# Indices 1 2 3 4 5 6 
#
# 1 54.6749 14.8664 -10.4900 0.0000 0.0000 0.0000
# 2 14.8664 89.6393 15.9678 0.0000 0.0000 0.0000
# 3 -10.4900 15.9678 65.5924 0.0000 0.0000 0.0000
# 4 0.0000 0.0000 0.0000 125.4685 0.0000 0.0000
# 5 0.0000 0.0000 0.0000 0.0000 18.2219 0.0000
# 6 0.0000 0.0000 0.0000 0.0000 0.0000 2.2802
#
#
#
# Elastic Compliance Matrix: (Units=1/GPa)
#
#
# Indices 1 2 3 4 5 6 
#
# 1 0.020219 -0.004107 0.004233 0.000000 0.000000 0.000000
# 2 -0.004107 0.012496 -0.003699 0.000000 0.000000 0.000000
# 3 0.004233 -0.003699 0.016823 0.000000 0.000000 0.000000
# 4 0.000000 0.000000 0.000000 0.007970 0.000000 0.000000
# 5 0.000000 0.000000 0.000000 0.000000 0.054879 0.000000
# 6 0.000000 0.000000 0.000000 0.000000 0.000000 0.438562
#
#
# Mechanical properties :
#
#
# Convention : Reuss Voigt Hill
#
# Bulk Modulus (GPa) = 23.58909 27.84390 25.71649
# Shear Modulus (GPa) = 8.73782 41.83161 25.28471
#
# Velocity S-wave (km/s) = 1.97040 4.31126 3.35182
# Velocity P-wave (km/s) = 3.95701 6.09545 5.13870
#
# Compressibility (1/GPa) = 0.04239248
#
# Stress axis : x y z
#
# Youngs Moduli (GPa) = 49.45841 80.02609 59.44183
#
# Poissons Ratio (x) = 0.32870 -0.25165
# Poissons Ratio (y) = 0.20315 0.21987
# Poissons Ratio (z) = -0.20938 0.29601
#
# Static dielectric constant tensor:
#      x y z
#    x 3.789590 0.000000 0.000000 
#    y 0.000000 4.354480 0.000000 
#    z 0.000000 0.000000 4.493490 
# 
# 
# High freq. dielectric constant tensor:
#      x y z
#    x 1.857570 0.000000 0.000000 
#    y 0.000000 1.898440 0.000000 
#    z 0.000000 0.000000 1.903320 
# 
# From -- ./inp_files/34006.got.cif
#   From: 2010.03.12/outbox.cif.g09.slc.cpg/sg73_18_cif.got.tgz:34006.got - 2010.04.16 15:25:48.
