data_PCOD8296819
_publ_section_title
;
Structure prediction by ZEFSAII (Michael W. Deem and Ramdas Pophale) SiO2 
 PCOD8296819
Probable space group: I B C A 
;
_chemical_formula_sum "Si O2"
_cell_formula_units_Z 88
_cell_length_a 20.352589
_cell_length_b 22.065883
_cell_length_c 9.260410
_cell_angle_alpha 90.000000
_cell_angle_beta 90.000000
_cell_angle_gamma 90.000000
_cell_volume 4158.830199
_symmetry_space_group_name_H-M "I B C A "
_symmetry_group_IT_number 73
_symmetry_cell_setting 'orthorhombic'
loop_
_space_group_symop_operation_xyz
x,y,z
-x,1/2-y,z
x,-y,1/2-z
1/2-x,y,-z
-x,-y,-z
x,1/2+y,-z
-x,y,1/2+z
1/2+x,-y,z
1/2+x,1/2+y,1/2+z
1/2-x,-y,1/2+z
1/2+x,1/2-y,-z
-x,1/2+y,1/2-z
1/2-x,1/2-y,1/2-z
1/2+x,y,1/2-z
1/2-x,1/2+y,z
x,1/2-y,1/2+z
loop_
_atom_site_type_symbol
_atom_site_label
_atom_site_fract_x
_atom_site_fract_y
_atom_site_fract_z
Si Si1 0.351431 0.500000 0.250000
Si Si2 0.000000 0.250000 0.846258
Si Si3 0.637880 0.500000 0.250000
Si Si4 0.931890 0.817785 0.906529
Si Si5 0.058662 0.951996 0.494190
Si Si6 0.245008 0.588597 0.344779
Si Si7 0.777933 0.303806 0.154274
O O1 0.394917 0.464355 0.361396
O O2 0.308604 0.546920 0.338885
O O3 0.027632 0.301785 0.738823
O O4 0.056925 0.226275 0.955291
O O5 0.594896 0.457880 0.146378
O O6 0.680872 0.453293 0.342095
O O7 0.856235 0.812590 0.856852
O O8 0.960040 0.882110 0.964968
O O9 0.000000 0.000000 0.500000
O O10 0.250000 0.622348 0.500000
O O11 0.244527 0.635307 0.213986
O O12 0.750000 0.250000 0.250000
O O13 0.750000 0.290574 0.000000
#
# Coordination Sequence:
#
# PCOD8296819 Si02
#       7
#     8   8   8  16  16  16  16
#     4  11  23  44  64  98 139 173 226 286 350 421
#     4  10  26  48  72  98 138 200 236 294 364 394
#     4  11  25  42  66 102 133 179 224 276 358 417
#     4  11  25  48  71 101 143 183 246 298 346 437
#     4  12  26  43  69 102 141 183 233 290 354 426
#     4  11  23  42  68  96 137 179 219 286 354 420
#     4  12  25  44  71 103 136 178 235 296 359 420
#
# _framework density 21.159794999999999
#
# number of rings (size 3 to 8) (size 9 to 14) (size 15 to 20)
#    0.000    0.727    3.636    3.273    5.091    0.000 
#    3.273    0.000    0.000    0.000    0.000    0.000 
#    0.000    0.000    0.000    0.000    0.000    0.000 
#
# Total GULP energy -545378.680489 kJ/mol
# GULP energy per Si atom -12394.970011 kJ/mol
# Density = 2.111163 g / cm^3
# Si number density = 21.159795 Si / 1000 Ang^3
#
#
#
# Elastic Constant Matrix: (Units=GPa)
#
#
# Indices 1 2 3 4 5 6 
#
# 1 99.2922 38.3157 32.9404 0.0000 0.0000 0.0000
# 2 38.3157 125.4552 46.5560 0.0000 0.0000 0.0000
# 3 32.9404 46.5560 154.9549 0.0000 0.0000 0.0000
# 4 0.0000 0.0000 0.0000 45.4455 0.0000 0.0000
# 5 0.0000 0.0000 0.0000 0.0000 -22.6280 0.0000
# 6 0.0000 0.0000 0.0000 0.0000 0.0000 23.1761
#
#
#
# Elastic Compliance Matrix: (Units=1/GPa)
#
#
# Indices 1 2 3 4 5 6 
#
# 1 0.011759 -0.002998 -0.001599 0.000000 0.000000 0.000000
# 2 -0.002998 0.009736 -0.002288 0.000000 0.000000 0.000000
# 3 -0.001599 -0.002288 0.007481 0.000000 0.000000 0.000000
# 4 0.000000 0.000000 0.000000 0.022004 0.000000 0.000000
# 5 0.000000 0.000000 0.000000 0.000000 -0.044193 0.000000
# 6 0.000000 0.000000 0.000000 0.000000 0.000000 0.043148
#
#
# Mechanical properties :
#
#
# Convention : Reuss Voigt Hill
#
# Bulk Modulus (GPa) = 65.76455 68.36961 67.06708
# Shear Modulus (GPa) = 72.70422 26.65806 49.68114
#
# Velocity S-wave (km/s) = 5.86807 3.55328 4.85077
# Velocity P-wave (km/s) = 8.77836 7.01539 7.94592
#
# Compressibility (1/GPa) = 0.01520576
#
# Stress axis : x y z
#
# Youngs Moduli (GPa) = 85.04429 102.71647 133.67657
#
# Poissons Ratio (x) = 0.30793 0.21374
# Poissons Ratio (y) = 0.25495 0.30582
# Poissons Ratio (z) = 0.13598 0.23499
#
# Static dielectric constant tensor:
#      x y z
#    x 3.978200 0.000000 0.000000 
#    y 0.000000 4.020200 0.000000 
#    z 0.000000 0.000000 4.040730 
# 
# 
# High freq. dielectric constant tensor:
#      x y z
#    x 1.830090 0.000000 0.000000 
#    y 0.000000 1.832060 0.000000 
#    z 0.000000 0.000000 1.855680 
# 
# From -- ./inp_files/6330.got.cif
#   From: 2010.03.12/outbox.cif.g09.slc.cpg/sg73_4_cif.got.tgz:6330.got - 2010.04.16 15:25:48.
