data_PCOD8296401
_publ_section_title
;
Structure prediction by ZEFSAII (Michael W. Deem and Ramdas Pophale) SiO2 
 PCOD8296401
Probable space group: I B C A 
;
_chemical_formula_sum "Si O2"
_cell_formula_units_Z 96
_cell_length_a 23.998943
_cell_length_b 8.629257
_cell_length_c 19.307307
_cell_angle_alpha 90.000000
_cell_angle_beta 90.000000
_cell_angle_gamma 90.000000
_cell_volume 3998.409034
_symmetry_space_group_name_H-M "I B C A "
_symmetry_group_IT_number 73
_symmetry_cell_setting 'orthorhombic'
loop_
_space_group_symop_operation_xyz
x,y,z
-x,1/2-y,z
x,-y,1/2-z
1/2-x,y,-z
-x,-y,-z
x,1/2+y,-z
-x,y,1/2+z
1/2+x,-y,z
1/2+x,1/2+y,1/2+z
1/2-x,-y,1/2+z
1/2+x,1/2-y,-z
-x,1/2+y,1/2-z
1/2-x,1/2-y,1/2-z
1/2+x,y,1/2-z
1/2-x,1/2+y,z
x,1/2-y,1/2+z
loop_
_atom_site_type_symbol
_atom_site_label
_atom_site_fract_x
_atom_site_fract_y
_atom_site_fract_z
Si Si1 0.719259 0.127172 0.201998
Si Si2 0.578816 0.098744 0.821316
Si Si3 0.043756 0.558884 0.824905
Si Si4 0.309256 0.951785 0.099706
Si Si5 0.169951 0.171587 0.014079
Si Si6 0.628025 0.881847 0.405954
O O1 0.750000 0.250000 0.250000
O O2 0.767494 0.031671 0.162955
O O3 0.673271 0.192123 0.148360
O O4 0.688115 0.000000 0.250000
O O5 0.582469 0.287031 0.814856
O O6 0.518147 0.079146 0.857143
O O7 0.626529 0.042822 0.874669
O O8 0.586825 0.000000 0.750000
O O9 0.029653 0.500000 0.750000
O O10 0.070724 0.416365 0.867205
O O11 0.294747 0.792669 0.059079
O O12 0.293995 0.087700 0.045557
O O13 0.145377 0.050472 0.067389
O O14 0.121594 0.266715 0.971324
#
# Coordination Sequence:
#
# PCOD8296401 Si02
#       6
#    16  16  16  16  16  16
#     4  12  26  40  66  99 127 167 209 271 342 379
#     4  10  22  41  66  96 130 170 218 273 336 393
#     4  10  22  40  67  96 128 174 215 274 338 390
#     4  11  23  43  61  92 129 165 220 269 313 401
#     4  10  24  41  65  88 123 182 214 259 325 378
#     4  11  23  43  63  93 131 165 222 266 318 400
#
# _framework density 24.009550000000001
#
# number of rings (size 3 to 8) (size 9 to 14) (size 15 to 20)
#    0.000    1.333    1.667    3.000    4.667    4.000 
#    0.000    5.000    0.000    0.000    0.000    0.000 
#    0.000    0.000    0.000    0.000    0.000    0.000 
#
# Total GULP energy -594703.293646 kJ/mol
# GULP energy per Si atom -12389.651951 kJ/mol
# Density = 2.395490 g / cm^3
# Si number density = 24.009550 Si / 1000 Ang^3
#
#
#
# Elastic Constant Matrix: (Units=GPa)
#
#
# Indices 1 2 3 4 5 6 
#
# 1 70.1027 -2.1388 25.0986 0.0000 0.0000 0.0000
# 2 -2.1388 68.2544 22.1615 0.0000 0.0000 0.0000
# 3 25.0986 22.1615 99.1951 0.0000 0.0000 0.0000
# 4 0.0000 0.0000 0.0000 57.7653 0.0000 0.0000
# 5 0.0000 0.0000 0.0000 0.0000 11.9889 0.0000
# 6 0.0000 0.0000 0.0000 0.0000 0.0000 28.2135
#
#
#
# Elastic Compliance Matrix: (Units=1/GPa)
#
#
# Indices 1 2 3 4 5 6 
#
# 1 0.015922 0.001948 -0.004464 0.000000 0.000000 0.000000
# 2 0.001948 0.016035 -0.004075 0.000000 0.000000 0.000000
# 3 -0.004464 -0.004075 0.012121 0.000000 0.000000 0.000000
# 4 0.000000 0.000000 0.000000 0.017311 0.000000 0.000000
# 5 0.000000 0.000000 0.000000 0.000000 0.083411 0.000000
# 6 0.000000 0.000000 0.000000 0.000000 0.000000 0.035444
#
#
# Mechanical properties :
#
#
# Convention : Reuss Voigt Hill
#
# Bulk Modulus (GPa) = 32.36592 36.42163 34.39378
# Shear Modulus (GPa) = 24.54273 32.42226 28.48249
#
# Velocity S-wave (km/s) = 3.20067 3.67875 3.44801
# Velocity P-wave (km/s) = 5.21236 5.76601 5.49616
#
# Compressibility (1/GPa) = 0.03089670
#
# Stress axis : x y z
#
# Youngs Moduli (GPa) = 62.80433 62.36206 82.50033
#
# Poissons Ratio (x) = -0.12150 0.36828
# Poissons Ratio (y) = -0.12237 0.33623
# Poissons Ratio (z) = 0.28036 0.25416
#
# Static dielectric constant tensor:
#      x y z
#    x 4.086380 0.000000 0.000000 
#    y 0.000000 4.657240 0.000000 
#    z 0.000000 0.000000 4.564160 
# 
# 
# High freq. dielectric constant tensor:
#      x y z
#    x 1.927310 0.000000 0.000000 
#    y 0.000000 1.969730 0.000000 
#    z 0.000000 0.000000 1.961410 
# 
# From -- ./inp_files/27526.got.cif
#   From: 2010.03.12/outbox.cif.g09.slc.cpg/sg73_14_cif.got.tgz:27526.got - 2010.04.16 15:25:48.
