data_PCOD8296087
_publ_section_title
;
Structure prediction by ZEFSAII (Michael W. Deem and Ramdas Pophale) SiO2 
 PCOD8296087
Probable space group: I B C A 
;
_chemical_formula_sum "Si O2"
_cell_formula_units_Z 104
_cell_length_a 19.623498
_cell_length_b 9.084608
_cell_length_c 26.966337
_cell_angle_alpha 90.000000
_cell_angle_beta 90.000000
_cell_angle_gamma 90.000000
_cell_volume 4807.337084
_symmetry_space_group_name_H-M "I B C A "
_symmetry_group_IT_number 73
_symmetry_cell_setting 'orthorhombic'
loop_
_space_group_symop_operation_xyz
x,y,z
-x,1/2-y,z
x,-y,1/2-z
1/2-x,y,-z
-x,-y,-z
x,1/2+y,-z
-x,y,1/2+z
1/2+x,-y,z
1/2+x,1/2+y,1/2+z
1/2-x,-y,1/2+z
1/2+x,1/2-y,-z
-x,1/2+y,1/2-z
1/2-x,1/2-y,1/2-z
1/2+x,y,1/2-z
1/2-x,1/2+y,z
x,1/2-y,1/2+z
loop_
_atom_site_type_symbol
_atom_site_label
_atom_site_fract_x
_atom_site_fract_y
_atom_site_fract_z
Si Si1 0.799843 0.592034 0.795997
Si Si2 0.000000 0.750000 0.898686
Si Si3 0.612824 0.456882 0.905905
Si Si4 0.820155 0.750502 0.470445
Si Si5 0.382846 0.547751 0.609640
Si Si6 0.922350 0.767110 0.055908
Si Si7 0.160422 0.567640 0.797652
O O1 0.831598 0.500000 0.750000
O O2 0.831379 0.528025 0.846016
O O3 0.810494 0.767228 0.788851
O O4 0.720794 0.552198 0.802184
O O5 0.045983 0.629455 0.928412
O O6 0.057681 0.843241 0.869591
O O7 0.681319 0.385268 0.930711
O O8 0.609670 0.625698 0.918228
O O9 0.613935 0.435451 0.846498
O O10 0.750000 0.775771 0.500000
O O11 0.843268 0.894705 0.439805
O O12 0.878328 0.699512 0.507985
O O13 0.417456 0.394356 0.596466
O O14 0.000000 0.750000 0.038973
O O15 0.118739 0.500000 0.750000
#
# Coordination Sequence:
#
# PCOD8296087 Si02
#       7
#    16   8  16  16  16  16  16
#     4  11  24  43  70 101 132 174 219 276 347 405
#     4  10  20  48  66  92 130 188 220 266 344 390
#     4  11  25  44  72  94 142 174 224 286 334 394
#     4  11  27  46  67 102 137 183 231 281 336 395
#     4  11  25  44  72  94 142 174 224 286 334 394
#     4  12  27  41  69 105 134 184 234 269 337 416
#     4  11  24  43  70 101 132 174 219 276 347 405
#
# _framework density 21.633597999999999
#
# number of rings (size 3 to 8) (size 9 to 14) (size 15 to 20)
#    0.000    0.923    4.615    2.769   12.923    2.462 
#    0.000    0.769    3.385    0.000    0.000    0.000 
#    0.000    0.000    0.000    0.000    0.000    0.000 
#
# Total GULP energy -644217.250740 kJ/mol
# GULP energy per Si atom -12388.793283 kJ/mol
# Density = 2.158436 g / cm^3
# Si number density = 21.633598 Si / 1000 Ang^3
#
#
#
# Elastic Constant Matrix: (Units=GPa)
#
#
# Indices 1 2 3 4 5 6 
#
# 1 78.2475 18.8490 33.3699 0.0000 0.0000 0.0000
# 2 18.8490 115.3802 28.0234 0.0000 0.0000 0.0000
# 3 33.3699 28.0234 112.1195 0.0000 0.0000 0.0000
# 4 0.0000 0.0000 0.0000 31.7711 0.0000 0.0000
# 5 0.0000 0.0000 0.0000 0.0000 18.0881 0.0000
# 6 0.0000 0.0000 0.0000 0.0000 0.0000 26.3388
#
#
#
# Elastic Compliance Matrix: (Units=1/GPa)
#
#
# Indices 1 2 3 4 5 6 
#
# 1 0.014860 -0.001441 -0.004062 0.000000 0.000000 0.000000
# 2 -0.001441 0.009367 -0.001912 0.000000 0.000000 0.000000
# 3 -0.004062 -0.001912 0.010606 0.000000 0.000000 0.000000
# 4 0.000000 0.000000 0.000000 0.031475 0.000000 0.000000
# 5 0.000000 0.000000 0.000000 0.000000 0.055285 0.000000
# 6 0.000000 0.000000 0.000000 0.000000 0.000000 0.037967
#
#
# Mechanical properties :
#
#
# Convention : Reuss Voigt Hill
#
# Bulk Modulus (GPa) = 49.99695 51.80354 50.90025
# Shear Modulus (GPa) = 27.61550 30.27326 28.94438
#
# Velocity S-wave (km/s) = 3.57670 3.74486 3.66175
# Velocity P-wave (km/s) = 6.34177 6.53426 6.43873
#
# Compressibility (1/GPa) = 0.02000122
#
# Stress axis : x y z
#
# Youngs Moduli (GPa) = 67.29671 106.75955 94.28501
#
# Poissons Ratio (x) = 0.15382 0.38303
# Poissons Ratio (y) = 0.09696 0.18031
# Poissons Ratio (z) = 0.27339 0.20416
#
# Static dielectric constant tensor:
#      x y z
#    x 3.876840 0.000000 0.000000 
#    y 0.000000 4.117420 0.000000 
#    z 0.000000 0.000000 4.070930 
# 
# 
# High freq. dielectric constant tensor:
#      x y z
#    x 1.832330 0.000000 0.000000 
#    y 0.000000 1.871210 0.000000 
#    z 0.000000 0.000000 1.844980 
# 
# From -- ./inp_files/32659.got.cif
#   From: 2010.03.12/outbox.cif.g09.slc.cpg/sg73_17_cif.got.tgz:32659.got - 2010.04.16 15:25:48.
