data_PCOD8296506
_publ_section_title
;
Structure prediction by ZEFSAII (Michael W. Deem and Ramdas Pophale) SiO2 
 PCOD8296506
Probable space group: I B C A 
;
_chemical_formula_sum "Si O2"
_cell_formula_units_Z 96
_cell_length_a 13.931078
_cell_length_b 13.749648
_cell_length_c 21.382027
_cell_angle_alpha 90.000000
_cell_angle_beta 90.000000
_cell_angle_gamma 90.000000
_cell_volume 4095.672080
_symmetry_space_group_name_H-M "I B C A "
_symmetry_group_IT_number 73
_symmetry_cell_setting 'orthorhombic'
loop_
_space_group_symop_operation_xyz
x,y,z
-x,1/2-y,z
x,-y,1/2-z
1/2-x,y,-z
-x,-y,-z
x,1/2+y,-z
-x,y,1/2+z
1/2+x,-y,z
1/2+x,1/2+y,1/2+z
1/2-x,-y,1/2+z
1/2+x,1/2-y,-z
-x,1/2+y,1/2-z
1/2-x,1/2-y,1/2-z
1/2+x,y,1/2-z
1/2-x,1/2+y,z
x,1/2-y,1/2+z
loop_
_atom_site_type_symbol
_atom_site_label
_atom_site_fract_x
_atom_site_fract_y
_atom_site_fract_z
Si Si1 0.986852 0.599525 0.286843
Si Si2 0.346758 0.337777 0.610356
Si Si3 0.637633 0.231679 0.742812
Si Si4 0.865005 0.878909 0.906485
Si Si5 0.858493 0.776511 0.496526
Si Si6 0.609693 0.003296 0.982570
O O1 0.002942 0.500000 0.250000
O O2 0.912497 0.663739 0.246751
O O3 0.941324 0.582186 0.355708
O O4 0.088932 0.658009 0.293864
O O5 0.391892 0.320567 0.677938
O O6 0.231665 0.336071 0.624027
O O7 0.391454 0.250260 0.567169
O O8 0.373703 0.442714 0.581047
O O9 0.750000 0.250000 0.750000
O O10 0.915325 0.792280 0.947249
O O11 0.834075 0.962665 0.956391
O O12 0.750000 0.736209 0.500000
O O13 0.859384 0.886135 0.473271
O O14 0.500000 0.000000 0.000000
#
# Coordination Sequence:
#
# PCOD8296506 Si02
#       6
#    16  16  16  16  16  16
#     4  11  27  46  73 106 144 190 251 308 370 449
#     4  10  22  44  69  98 141 185 240 302 360 453
#     4  11  25  49  71 104 144 196 250 306 377 441
#     4  10  22  45  67  99 141 180 239 296 360 443
#     4   9  20  41  69  96 132 182 227 292 369 431
#     4  11  24  37  66 108 139 181 236 299 377 430
#
# _framework density 23.439377
#
# number of rings (size 3 to 8) (size 9 to 14) (size 15 to 20)
#    0.000    1.667    1.667    2.500    4.667    7.333 
#    0.000    0.000    0.000    0.000    0.000    0.000 
#    0.000    0.000    0.000    0.000    0.000    0.000 
#
# Total GULP energy -594778.109786 kJ/mol
# GULP energy per Si atom -12391.210621 kJ/mol
# Density = 2.338603 g / cm^3
# Si number density = 23.439377 Si / 1000 Ang^3
#
#
#
# Elastic Constant Matrix: (Units=GPa)
#
#
# Indices 1 2 3 4 5 6 
#
# 1 88.9814 12.8112 4.4178 0.0000 0.0000 0.0000
# 2 12.8112 152.7168 34.5428 0.0000 0.0000 0.0000
# 3 4.4178 34.5428 112.8435 0.0000 0.0000 0.0000
# 4 0.0000 0.0000 0.0000 31.7271 0.0000 0.0000
# 5 0.0000 0.0000 0.0000 0.0000 26.1878 0.0000
# 6 0.0000 0.0000 0.0000 0.0000 0.0000 30.1411
#
#
#
# Elastic Compliance Matrix: (Units=1/GPa)
#
#
# Indices 1 2 3 4 5 6 
#
# 1 0.011379 -0.000917 -0.000165 0.000000 0.000000 0.000000
# 2 -0.000917 0.007109 -0.002140 0.000000 0.000000 0.000000
# 3 -0.000165 -0.002140 0.009523 0.000000 0.000000 0.000000
# 4 0.000000 0.000000 0.000000 0.031519 0.000000 0.000000
# 5 0.000000 0.000000 0.000000 0.000000 0.038186 0.000000
# 6 0.000000 0.000000 0.000000 0.000000 0.000000 0.033177
#
#
# Mechanical properties :
#
#
# Convention : Reuss Voigt Hill
#
# Bulk Modulus (GPa) = 46.36791 50.89837 48.63314
# Shear Modulus (GPa) = 34.59578 37.79585 36.19582
#
# Velocity S-wave (km/s) = 3.84600 4.01994 3.93393
# Velocity P-wave (km/s) = 6.28866 6.58093 6.43646
#
# Compressibility (1/GPa) = 0.02156664
#
# Stress axis : x y z
#
# Youngs Moduli (GPa) = 87.88464 140.66432 105.00406
#
# Poissons Ratio (x) = 0.12903 0.01729
# Poissons Ratio (y) = 0.08062 0.22474
# Poissons Ratio (z) = 0.01447 0.30106
#
# Static dielectric constant tensor:
#      x y z
#    x 4.178200 0.000000 0.000000 
#    y 0.000000 1.708250 0.000000 
#    z 0.000000 0.000000 4.337930 
# 
# 
# High freq. dielectric constant tensor:
#      x y z
#    x 1.933300 0.000000 0.000000 
#    y 0.000000 1.924610 0.000000 
#    z 0.000000 0.000000 1.924230 
# 
# From -- ./inp_files/26012.got.cif
#   From: 2010.03.12/outbox.cif.g09.slc.cpg/sg73_14_cif.got.tgz:26012.got - 2010.04.16 15:25:48.
