data_PCOD8296524
_publ_section_title
;
Structure prediction by ZEFSAII (Michael W. Deem and Ramdas Pophale) SiO2 
 PCOD8296524
Probable space group: I B C A 
;
_chemical_formula_sum "Si O2"
_cell_formula_units_Z 96
_cell_length_a 8.141119
_cell_length_b 21.798970
_cell_length_c 24.400216
_cell_angle_alpha 90.000000
_cell_angle_beta 90.000000
_cell_angle_gamma 90.000000
_cell_volume 4330.257749
_symmetry_space_group_name_H-M "I B C A "
_symmetry_group_IT_number 73
_symmetry_cell_setting 'orthorhombic'
loop_
_space_group_symop_operation_xyz
x,y,z
-x,1/2-y,z
x,-y,1/2-z
1/2-x,y,-z
-x,-y,-z
x,1/2+y,-z
-x,y,1/2+z
1/2+x,-y,z
1/2+x,1/2+y,1/2+z
1/2-x,-y,1/2+z
1/2+x,1/2-y,-z
-x,1/2+y,1/2-z
1/2-x,1/2-y,1/2-z
1/2+x,y,1/2-z
1/2-x,1/2+y,z
x,1/2-y,1/2+z
loop_
_atom_site_type_symbol
_atom_site_label
_atom_site_fract_x
_atom_site_fract_y
_atom_site_fract_z
Si Si1 0.774806 0.187545 0.688049
Si Si2 0.309748 0.906029 0.094471
Si Si3 0.674196 0.867188 0.921623
Si Si4 0.839271 0.325623 0.694724
Si Si5 0.999079 0.822195 0.979616
Si Si6 0.502224 0.985206 0.936377
O O1 0.668694 0.157558 0.639968
O O2 0.749298 0.260680 0.684858
O O3 0.699951 0.156755 0.742745
O O4 0.967373 0.174809 0.683333
O O5 0.267460 0.875794 0.152936
O O6 0.340257 0.852873 0.048393
O O7 0.162011 0.950072 0.078946
O O8 0.469732 0.951150 0.096978
O O9 0.843640 0.849064 0.948625
O O10 0.656596 0.940630 0.922861
O O11 0.519172 0.838434 0.955919
O O12 0.000000 0.750000 0.969923
O O13 0.500000 0.000000 0.000000
#
# Coordination Sequence:
#
# PCOD8296524 Si02
#       6
#    16  16  16  16  16  16
#     4  10  22  45  72 107 143 177 237 288 372 427
#     4  12  25  46  73 101 141 193 245 291 367 424
#     4  11  24  42  70  98 143 184 234 288 354 430
#     4  10  23  44  75 103 139 189 227 302 356 434
#     4  11  24  43  68 105 145 182 229 300 365 429
#     4  12  27  45  71 101 142 196 243 290 352 435
#
# _framework density 22.169581000000001
#
# number of rings (size 3 to 8) (size 9 to 14) (size 15 to 20)
#    0.000    1.000    3.333    2.500    4.667    4.000 
#    3.000    0.833    0.000    0.000    0.000    0.000 
#    0.000    0.000    0.000    0.000    0.000    0.000 
#
# Total GULP energy -595200.938176 kJ/mol
# GULP energy per Si atom -12400.019545 kJ/mol
# Density = 2.211912 g / cm^3
# Si number density = 22.169581 Si / 1000 Ang^3
#
#
#
# Elastic Constant Matrix: (Units=GPa)
#
#
# Indices 1 2 3 4 5 6 
#
# 1 46.7473 29.3387 41.9761 0.0000 0.0000 0.0000
# 2 29.3387 149.8165 77.9240 0.0000 0.0000 0.0000
# 3 41.9761 77.9240 202.0227 0.0000 0.0000 0.0000
# 4 0.0000 0.0000 0.0000 46.9591 0.0000 0.0000
# 5 0.0000 0.0000 0.0000 0.0000 25.6394 0.0000
# 6 0.0000 0.0000 0.0000 0.0000 0.0000 38.0782
#
#
#
# Elastic Compliance Matrix: (Units=1/GPa)
#
#
# Indices 1 2 3 4 5 6 
#
# 1 0.027336 -0.003001 -0.004522 0.000000 0.000000 0.000000
# 2 -0.003001 0.008680 -0.002724 0.000000 0.000000 0.000000
# 3 -0.004522 -0.002724 0.006940 0.000000 0.000000 0.000000
# 4 0.000000 0.000000 0.000000 0.021295 0.000000 0.000000
# 5 0.000000 0.000000 0.000000 0.000000 0.039002 0.000000
# 6 0.000000 0.000000 0.000000 0.000000 0.000000 0.026262
#
#
# Mechanical properties :
#
#
# Convention : Reuss Voigt Hill
#
# Bulk Modulus (GPa) = 44.52263 77.45156 60.98709
# Shear Modulus (GPa) = 31.74665 38.75852 35.25258
#
# Velocity S-wave (km/s) = 3.78827 4.18577 3.99197
# Velocity P-wave (km/s) = 6.26586 7.64021 6.98691
#
# Compressibility (1/GPa) = 0.02246049
#
# Stress axis : x y z
#
# Youngs Moduli (GPa) = 36.58213 115.21375 144.08437
#
# Poissons Ratio (x) = 0.34576 0.65158
# Poissons Ratio (y) = 0.10978 0.39253
# Poissons Ratio (z) = 0.16543 0.31388
#
# Static dielectric constant tensor:
#      x y z
#    x 16.717410 0.000000 0.000000 
#    y 0.000000 3.421190 0.000000 
#    z 0.000000 0.000000 4.423920 
# 
# 
# High freq. dielectric constant tensor:
#      x y z
#    x 1.881450 0.000000 0.000000 
#    y 0.000000 1.878500 0.000000 
#    z 0.000000 0.000000 1.862610 
# 
# From -- ./inp_files/28397.got.cif
#   From: 2010.03.12/outbox.cif.g09.slc.cpg/sg73_15_cif.got.tgz:28397.got - 2010.04.16 15:25:48.
