data_PCOD8296726
_publ_section_title
;
Structure prediction by ZEFSAII (Michael W. Deem and Ramdas Pophale) SiO2 
 PCOD8296726
Probable space group: I B C A 
;
_chemical_formula_sum "Si O2"
_cell_formula_units_Z 120
_cell_length_a 25.403445
_cell_length_b 19.604674
_cell_length_c 11.094678
_cell_angle_alpha 90.000000
_cell_angle_beta 90.000000
_cell_angle_gamma 90.000000
_cell_volume 5525.440965
_symmetry_space_group_name_H-M "I B C A "
_symmetry_group_IT_number 73
_symmetry_cell_setting 'orthorhombic'
loop_
_space_group_symop_operation_xyz
x,y,z
-x,1/2-y,z
x,-y,1/2-z
1/2-x,y,-z
-x,-y,-z
x,1/2+y,-z
-x,y,1/2+z
1/2+x,-y,z
1/2+x,1/2+y,1/2+z
1/2-x,-y,1/2+z
1/2+x,1/2-y,-z
-x,1/2+y,1/2-z
1/2-x,1/2-y,1/2-z
1/2+x,y,1/2-z
1/2-x,1/2+y,z
x,1/2-y,1/2+z
loop_
_atom_site_type_symbol
_atom_site_label
_atom_site_fract_x
_atom_site_fract_y
_atom_site_fract_z
Si Si1 0.885465 0.357004 0.697328
Si Si2 0.884452 0.930458 0.687694
Si Si3 0.356392 0.500000 0.750000
Si Si4 0.307206 0.508245 0.501574
Si Si5 0.429848 0.311598 0.567070
Si Si6 0.049691 0.341051 0.970006
Si Si7 0.718389 0.770746 0.624234
Si Si8 0.338846 0.633310 0.086309
O O1 0.886493 0.428934 0.771016
O O2 0.914514 0.307513 0.791821
O O3 0.925651 0.373348 0.589557
O O4 0.827889 0.326104 0.657771
O O5 0.934205 0.887832 0.642819
O O6 0.852269 0.881655 0.775767
O O7 0.904605 0.000000 0.750000
O O8 0.846090 0.947317 0.578180
O O9 0.321115 0.518173 0.638129
O O10 0.250000 0.541234 0.500000
O O11 0.304899 0.429322 0.463673
O O12 0.425058 0.233651 0.528153
O O13 0.487186 0.340305 0.536372
O O14 0.391596 0.359782 0.491388
O O15 0.750000 0.795686 0.500000
O O16 0.750000 0.750000 0.750000
O O17 0.693661 0.701651 0.574971
#
# Coordination Sequence:
#
# PCOD8296726 Si02
#       8
#    16  16   8  16  16  16  16  16
#     4  12  26  48  70 103 148 179 242 298 347 435
#     4  10  24  45  67  99 142 187 229 295 341 433
#     4  12  26  44  66  94 144 182 228 290 346 414
#     4  11  25  43  67  98 139 192 240 281 357 420
#     4  11  25  45  76 105 137 187 232 302 364 416
#     4  11  25  45  73 105 137 183 238 286 367 413
#     4  12  28  45  76 107 142 190 237 298 366 424
#     4  11  23  45  68 101 146 176 237 297 352 421
#
# _framework density 21.717721999999998
#
# number of rings (size 3 to 8) (size 9 to 14) (size 15 to 20)
#    0.000    0.800    4.000    2.000    8.400    1.600 
#    1.200    3.333    0.000    0.000    0.000    0.000 
#    0.000    0.000    0.000    0.000    0.000    0.000 
#
# Total GULP energy -743479.251553 kJ/mol
# GULP energy per Si atom -12391.320859 kJ/mol
# Density = 2.166829 g / cm^3
# Si number density = 21.717722 Si / 1000 Ang^3
#
#
#
# Elastic Constant Matrix: (Units=GPa)
#
#
# Indices 1 2 3 4 5 6 
#
# 1 106.5644 30.2942 52.9708 0.0000 0.0000 0.0000
# 2 30.2942 68.0503 9.4208 0.0000 0.0000 0.0000
# 3 52.9708 9.4208 123.4213 0.0000 0.0000 0.0000
# 4 0.0000 0.0000 0.0000 19.3361 0.0000 0.0000
# 5 0.0000 0.0000 0.0000 0.0000 38.9735 0.0000
# 6 0.0000 0.0000 0.0000 0.0000 0.0000 18.3161
#
#
#
# Elastic Compliance Matrix: (Units=1/GPa)
#
#
# Indices 1 2 3 4 5 6 
#
# 1 0.013588 -0.005298 -0.005427 0.000000 0.000000 0.000000
# 2 -0.005298 0.016917 0.000982 0.000000 0.000000 0.000000
# 3 -0.005427 0.000982 0.010357 0.000000 0.000000 0.000000
# 4 0.000000 0.000000 0.000000 0.051717 0.000000 0.000000
# 5 0.000000 0.000000 0.000000 0.000000 0.025658 0.000000
# 6 0.000000 0.000000 0.000000 0.000000 0.000000 0.054597
#
#
# Mechanical properties :
#
#
# Convention : Reuss Voigt Hill
#
# Bulk Modulus (GPa) = 46.77989 53.71194 50.24591
# Shear Modulus (GPa) = 25.06962 29.01516 27.04239
#
# Velocity S-wave (km/s) = 3.40124 3.65912 3.53253
# Velocity P-wave (km/s) = 6.08369 6.52976 6.31067
#
# Compressibility (1/GPa) = 0.02137671
#
# Stress axis : x y z
#
# Youngs Moduli (GPa) = 73.59537 59.11086 96.55594
#
# Poissons Ratio (x) = 0.31314 0.52404
# Poissons Ratio (y) = 0.38988 -0.09485
# Poissons Ratio (z) = 0.39943 -0.05807
#
# Static dielectric constant tensor:
#      x y z
#    x 3.849680 0.000000 0.000000 
#    y 0.000000 4.165170 0.000000 
#    z 0.000000 0.000000 4.199810 
# 
# 
# High freq. dielectric constant tensor:
#      x y z
#    x 1.843760 0.000000 0.000000 
#    y 0.000000 1.866450 0.000000 
#    z 0.000000 0.000000 1.874180 
# 
# From -- ./inp_files/13862.got.cif
#   From: 2010.03.12/outbox.cif.g09.slc.cpg/sg73_7_cif.got.tgz:13862.got - 2010.04.16 15:25:48.
