data_PCOD8296005
_publ_section_title
;
Structure prediction by ZEFSAII (Michael W. Deem and Ramdas Pophale) SiO2 
 PCOD8296005
Probable space group: I B C A 
;
_chemical_formula_sum "Si O2"
_cell_formula_units_Z 96
_cell_length_a 17.354996
_cell_length_b 15.411871
_cell_length_c 18.710136
_cell_angle_alpha 90.000000
_cell_angle_beta 90.000000
_cell_angle_gamma 90.000000
_cell_volume 5004.455450
_symmetry_space_group_name_H-M "I B C A "
_symmetry_group_IT_number 73
_symmetry_cell_setting 'orthorhombic'
loop_
_space_group_symop_operation_xyz
x,y,z
-x,1/2-y,z
x,-y,1/2-z
1/2-x,y,-z
-x,-y,-z
x,1/2+y,-z
-x,y,1/2+z
1/2+x,-y,z
1/2+x,1/2+y,1/2+z
1/2-x,-y,1/2+z
1/2+x,1/2-y,-z
-x,1/2+y,1/2-z
1/2-x,1/2-y,1/2-z
1/2+x,y,1/2-z
1/2-x,1/2+y,z
x,1/2-y,1/2+z
loop_
_atom_site_type_symbol
_atom_site_label
_atom_site_fract_x
_atom_site_fract_y
_atom_site_fract_z
Si Si1 0.410478 0.918061 0.951697
Si Si2 0.863605 0.412653 0.293568
Si Si3 0.177110 0.252545 0.455019
Si Si4 0.762374 0.204415 0.177105
Si Si5 0.083053 0.789987 0.331459
Si Si6 0.424894 0.608859 0.021178
O O1 0.416721 0.916978 0.864861
O O2 0.351776 0.843650 0.977816
O O3 0.383900 0.014204 0.976892
O O4 0.489573 0.897577 0.991321
O O5 0.866266 0.500000 0.250000
O O6 0.773564 0.393139 0.316454
O O7 0.896042 0.338557 0.241545
O O8 0.250000 0.278881 0.500000
O O9 0.203682 0.256036 0.373763
O O10 0.114478 0.326944 0.465199
O O11 0.750000 0.250000 0.250000
O O12 0.852152 0.214128 0.153157
O O13 0.079088 0.853747 0.398872
O O14 0.000000 0.750000 0.319493
#
# Coordination Sequence:
#
# PCOD8296005 Si02
#       6
#    16  16  16  16  16  16
#     4  10  23  39  60  91 121 160 206 255 310 376
#     4  10  20  40  63  87 127 162 201 258 319 369
#     4  11  21  37  61  88 122 159 206 250 311 370
#     4   9  21  38  60  89 117 159 207 245 308 371
#     4  11  21  37  64  89 123 163 207 252 311 371
#     4  11  22  39  63  88 124 163 206 262 312 363
#
# _framework density 19.182905000000002
#
# number of rings (size 3 to 8) (size 9 to 14) (size 15 to 20)
#    0.000    1.667    3.333    1.500    0.000    4.667 
#    0.000    0.833    0.000    0.000    0.000    0.000 
#    0.000    0.000    0.000    0.000    0.000    0.000 
#
# Total GULP energy -594666.047520 kJ/mol
# GULP energy per Si atom -12388.875990 kJ/mol
# Density = 1.913924 g / cm^3
# Si number density = 19.182905 Si / 1000 Ang^3
#
#
#
# Elastic Constant Matrix: (Units=GPa)
#
#
# Indices 1 2 3 4 5 6 
#
# 1 94.6622 41.6884 15.5946 0.0000 0.0000 0.0000
# 2 41.6884 78.3708 10.8313 0.0000 0.0000 0.0000
# 3 15.5946 10.8313 77.5617 0.0000 0.0000 0.0000
# 4 0.0000 0.0000 0.0000 26.9101 0.0000 0.0000
# 5 0.0000 0.0000 0.0000 0.0000 32.8687 0.0000
# 6 0.0000 0.0000 0.0000 0.0000 0.0000 14.9113
#
#
#
# Elastic Compliance Matrix: (Units=1/GPa)
#
#
# Indices 1 2 3 4 5 6 
#
# 1 0.014042 -0.007219 -0.001815 0.000000 0.000000 0.000000
# 2 -0.007219 0.016722 -0.000884 0.000000 0.000000 0.000000
# 3 -0.001815 -0.000884 0.013381 0.000000 0.000000 0.000000
# 4 0.000000 0.000000 0.000000 0.037161 0.000000 0.000000
# 5 0.000000 0.000000 0.000000 0.000000 0.030424 0.000000
# 6 0.000000 0.000000 0.000000 0.000000 0.000000 0.067063
#
#
# Mechanical properties :
#
#
# Convention : Reuss Voigt Hill
#
# Bulk Modulus (GPa) = 41.13543 42.98036 42.05790
# Shear Modulus (GPa) = 24.18593 27.10338 25.64465
#
# Velocity S-wave (km/s) = 3.55464 3.76292 3.66026
# Velocity P-wave (km/s) = 6.19174 6.42913 6.31155
#
# Compressibility (1/GPa) = 0.02430995
#
# Stress axis : x y z
#
# Youngs Moduli (GPa) = 71.21541 59.80214 74.73090
#
# Poissons Ratio (x) = 0.43168 0.13565
# Poissons Ratio (y) = 0.51407 0.06605
# Poissons Ratio (z) = 0.12927 0.05285
#
# Static dielectric constant tensor:
#      x y z
#    x 3.317950 0.000000 0.000000 
#    y 0.000000 3.674990 0.000000 
#    z 0.000000 0.000000 3.961190 
# 
# 
# High freq. dielectric constant tensor:
#      x y z
#    x 1.740140 0.000000 0.000000 
#    y 0.000000 1.741320 0.000000 
#    z 0.000000 0.000000 1.766040 
# 
# From -- ./inp_files/17051.got.cif
#   From: 2010.03.12/outbox.cif.g09.slc.cpg/sg73_9_cif.got.tgz:17051.got - 2010.04.16 15:25:48.
