data_PCOD8296013
_publ_section_title
;
Structure prediction by ZEFSAII (Michael W. Deem and Ramdas Pophale) SiO2 
 PCOD8296013
Probable space group: I B C A 
;
_chemical_formula_sum "Si O2"
_cell_formula_units_Z 72
_cell_length_a 5.278366
_cell_length_b 31.016570
_cell_length_c 19.299411
_cell_angle_alpha 90.000000
_cell_angle_beta 90.000000
_cell_angle_gamma 90.000000
_cell_volume 3159.637975
_symmetry_space_group_name_H-M "I B C A "
_symmetry_group_IT_number 73
_symmetry_cell_setting 'orthorhombic'
loop_
_space_group_symop_operation_xyz
x,y,z
-x,1/2-y,z
x,-y,1/2-z
1/2-x,y,-z
-x,-y,-z
x,1/2+y,-z
-x,y,1/2+z
1/2+x,-y,z
1/2+x,1/2+y,1/2+z
1/2-x,-y,1/2+z
1/2+x,1/2-y,-z
-x,1/2+y,1/2-z
1/2-x,1/2-y,1/2-z
1/2+x,y,1/2-z
1/2-x,1/2+y,z
x,1/2-y,1/2+z
loop_
_atom_site_type_symbol
_atom_site_label
_atom_site_fract_x
_atom_site_fract_y
_atom_site_fract_z
Si Si1 0.610917 0.342961 0.712026
Si Si2 0.500000 0.250000 0.425459
Si Si3 0.919001 0.618151 0.069106
Si Si4 0.500000 0.250000 0.164766
Si Si5 0.750000 0.179863 0.500000
Si Si6 0.499640 0.981537 0.422477
O O1 0.833212 0.358919 0.763806
O O2 0.705593 0.363556 0.639311
O O3 0.577556 0.290941 0.711253
O O4 0.245195 0.257334 0.382528
O O5 0.506170 0.208144 0.475409
O O6 0.011699 0.569657 0.078915
O O7 0.750000 0.621834 0.000000
O O8 0.163437 0.648673 0.062001
O O9 0.500000 0.000000 0.500000
O O10 0.751183 0.999419 0.383946
#
# Coordination Sequence:
#
# PCOD8296013 Si02
#       6
#    16   8  16   8   8  16
#     4  12  28  48  68 101 145 192 241 296 356 420
#     4  12  25  41  64 100 146 174 242 306 364 410
#     4  12  26  43  78 106 143 184 243 302 358 428
#     4  12  23  49  68  90 134 204 254 288 336 432
#     4  12  26  40  64 106 142 186 228 314 372 410
#     4  10  20  40  66 109 137 170 223 292 350 424
#
# _framework density 22.787419
#
# number of rings (size 3 to 8) (size 9 to 14) (size 15 to 20)
#    0.000    0.444    4.444    5.333    4.667    0.000 
#    0.000    0.000    0.000    4.000    0.000    0.000 
#    0.000    0.000    0.000    0.000    0.000    0.000 
#
# Total GULP energy -446054.540157 kJ/mol
# GULP energy per Si atom -12390.403893 kJ/mol
# Density = 2.273555 g / cm^3
# Si number density = 22.787419 Si / 1000 Ang^3
#
#
#
# Elastic Constant Matrix: (Units=GPa)
#
#
# Indices 1 2 3 4 5 6 
#
# 1 170.5035 45.8778 36.1419 0.0000 0.0000 0.0000
# 2 45.8778 150.4973 25.0049 0.0000 0.0000 0.0000
# 3 36.1419 25.0049 89.1576 0.0000 0.0000 0.0000
# 4 0.0000 0.0000 0.0000 21.2990 0.0000 0.0000
# 5 0.0000 0.0000 0.0000 0.0000 35.1593 0.0000
# 6 0.0000 0.0000 0.0000 0.0000 0.0000 14.0549
#
#
#
# Elastic Compliance Matrix: (Units=1/GPa)
#
#
# Indices 1 2 3 4 5 6 
#
# 1 0.006805 -0.001695 -0.002283 0.000000 0.000000 0.000000
# 2 -0.001695 0.007392 -0.001386 0.000000 0.000000 0.000000
# 3 -0.002283 -0.001386 0.012530 0.000000 0.000000 0.000000
# 4 0.000000 0.000000 0.000000 0.046951 0.000000 0.000000
# 5 0.000000 0.000000 0.000000 0.000000 0.028442 0.000000
# 6 0.000000 0.000000 0.000000 0.000000 0.000000 0.071150
#
#
# Mechanical properties :
#
#
# Convention : Reuss Voigt Hill
#
# Bulk Modulus (GPa) = 62.50526 69.35643 65.93084
# Shear Modulus (GPa) = 26.40884 34.31156 30.36020
#
# Velocity S-wave (km/s) = 3.40799 3.88458 3.65406
# Velocity P-wave (km/s) = 6.55554 7.11493 6.84096
#
# Compressibility (1/GPa) = 0.01599865
#
# Stress axis : x y z
#
# Youngs Moduli (GPa) = 146.94953 135.28789 79.80654
#
# Poissons Ratio (x) = 0.22933 0.18221
# Poissons Ratio (y) = 0.24910 0.11060
# Poissons Ratio (z) = 0.33551 0.18749
#
# Static dielectric constant tensor:
#      x y z
#    x 9.523770 0.000000 0.000000 
#    y 0.000000 4.746080 0.000000 
#    z 0.000000 0.000000 3.805780 
# 
# 
# High freq. dielectric constant tensor:
#      x y z
#    x 1.917990 0.000000 0.000000 
#    y 0.000000 1.897740 0.000000 
#    z 0.000000 0.000000 1.865650 
# 
# From -- ./inp_files/27456.got.cif
#   From: 2010.03.12/outbox.cif.g09.slc.cpg/sg73_14_cif.got.tgz:27456.got - 2010.04.16 15:25:48.
