data_PCOD8296258
_publ_section_title
;
Structure prediction by ZEFSAII (Michael W. Deem and Ramdas Pophale) SiO2 
 PCOD8296258
Probable space group: I B C A 
;
_chemical_formula_sum "Si O2"
_cell_formula_units_Z 72
_cell_length_a 20.469300
_cell_length_b 12.652527
_cell_length_c 12.742033
_cell_angle_alpha 90.000000
_cell_angle_beta 90.000000
_cell_angle_gamma 90.000000
_cell_volume 3300.038369
_symmetry_space_group_name_H-M "I B C A "
_symmetry_group_IT_number 73
_symmetry_cell_setting 'orthorhombic'
loop_
_space_group_symop_operation_xyz
x,y,z
-x,1/2-y,z
x,-y,1/2-z
1/2-x,y,-z
-x,-y,-z
x,1/2+y,-z
-x,y,1/2+z
1/2+x,-y,z
1/2+x,1/2+y,1/2+z
1/2-x,-y,1/2+z
1/2+x,1/2-y,-z
-x,1/2+y,1/2-z
1/2-x,1/2-y,1/2-z
1/2+x,y,1/2-z
1/2-x,1/2+y,z
x,1/2-y,1/2+z
loop_
_atom_site_type_symbol
_atom_site_label
_atom_site_fract_x
_atom_site_fract_y
_atom_site_fract_z
Si Si1 0.308808 0.487961 0.922389
Si Si2 0.500000 0.750000 0.578498
Si Si3 0.562337 0.564869 0.967191
Si Si4 0.309843 0.172742 0.234567
Si Si5 0.938242 0.810156 0.723195
O O1 0.374799 0.495166 0.989362
O O2 0.295549 0.599194 0.865890
O O3 0.318479 0.395729 0.838582
O O4 0.250000 0.459882 0.000000
O O5 0.447188 0.683278 0.513301
O O6 0.542800 0.670142 0.654075
O O7 0.500000 0.500000 0.000000
O O8 0.571090 0.580226 0.841089
O O9 0.250000 0.250000 0.250000
O O10 0.374546 0.238467 0.212528
O O11 0.000000 0.750000 0.669675
#
# Coordination Sequence:
#
# PCOD8296258 Si02
#       5
#    16   8  16  16  16
#     4  11  25  44  66 100 134 176 225 281 334 397
#     4  10  22  42  66  94 138 172 216 274 336 392
#     4  12  24  41  70 101 135 174 227 274 335 399
#     4  11  24  44  69  93 136 179 222 277 335 397
#     4  10  21  41  66  96 129 171 222 268 337 395
#
# _framework density 21.817928999999999
#
# number of rings (size 3 to 8) (size 9 to 14) (size 15 to 20)
#    0.667    0.444    3.333    2.667    0.000    5.333 
#    0.000    0.000    0.000    0.000    0.000    0.000 
#    0.000    0.000    0.000    0.000    0.000    0.000 
#
# Total GULP energy -446305.810071 kJ/mol
# GULP energy per Si atom -12397.383613 kJ/mol
# Density = 2.176827 g / cm^3
# Si number density = 21.817929 Si / 1000 Ang^3
#
#
#
# Elastic Constant Matrix: (Units=GPa)
#
#
# Indices 1 2 3 4 5 6 
#
# 1 174.6351 47.8442 36.4095 0.0000 0.0000 0.0000
# 2 47.8442 49.1951 6.2333 0.0000 0.0000 0.0000
# 3 36.4095 6.2333 74.4235 0.0000 0.0000 0.0000
# 4 0.0000 0.0000 0.0000 36.6207 0.0000 0.0000
# 5 0.0000 0.0000 0.0000 0.0000 31.4979 0.0000
# 6 0.0000 0.0000 0.0000 0.0000 0.0000 49.4355
#
#
#
# Elastic Compliance Matrix: (Units=1/GPa)
#
#
# Indices 1 2 3 4 5 6 
#
# 1 0.008651 -0.007961 -0.003565 0.000000 0.000000 0.000000
# 2 -0.007961 0.027872 0.001560 0.000000 0.000000 0.000000
# 3 -0.003565 0.001560 0.015050 0.000000 0.000000 0.000000
# 4 0.000000 0.000000 0.000000 0.027307 0.000000 0.000000
# 5 0.000000 0.000000 0.000000 0.000000 0.031748 0.000000
# 6 0.000000 0.000000 0.000000 0.000000 0.000000 0.020228
#
#
# Mechanical properties :
#
#
# Convention : Reuss Voigt Hill
#
# Bulk Modulus (GPa) = 31.60492 53.24750 42.42621
# Shear Modulus (GPa) = 30.99122 37.36195 34.17658
#
# Velocity S-wave (km/s) = 3.77297 4.14266 3.96213
# Velocity P-wave (km/s) = 5.78771 6.88044 6.35760
#
# Compressibility (1/GPa) = 0.03164064
#
# Stress axis : x y z
#
# Youngs Moduli (GPa) = 115.59748 35.87790 66.44455
#
# Poissons Ratio (x) = 0.28564 0.23689
# Poissons Ratio (y) = 0.92032 -0.10368
# Poissons Ratio (z) = 0.41214 -0.05599
#
# Static dielectric constant tensor:
#      x y z
#    x 5.350110 0.000000 0.000000 
#    y 0.000000 3.825860 0.000000 
#    z 0.000000 0.000000 4.142130 
# 
# 
# High freq. dielectric constant tensor:
#      x y z
#    x 1.861640 0.000000 0.000000 
#    y 0.000000 1.845980 0.000000 
#    z 0.000000 0.000000 1.874660 
# 
# From -- ./inp_files/18468.got.cif
#   From: 2010.03.12/outbox.cif.g09.slc.cpg/sg73_10_cif.got.tgz:18468.got - 2010.04.16 15:25:48.
