data_PCOD8296163
_publ_section_title
;
Structure prediction by ZEFSAII (Michael W. Deem and Ramdas Pophale) SiO2 
 PCOD8296163
Probable space group: I B C A 
;
_chemical_formula_sum "Si O2"
_cell_formula_units_Z 88
_cell_length_a 8.623351
_cell_length_b 20.161998
_cell_length_c 22.146166
_cell_angle_alpha 90.000000
_cell_angle_beta 90.000000
_cell_angle_gamma 90.000000
_cell_volume 3850.420687
_symmetry_space_group_name_H-M "I B C A "
_symmetry_group_IT_number 73
_symmetry_cell_setting 'orthorhombic'
loop_
_space_group_symop_operation_xyz
x,y,z
-x,1/2-y,z
x,-y,1/2-z
1/2-x,y,-z
-x,-y,-z
x,1/2+y,-z
-x,y,1/2+z
1/2+x,-y,z
1/2+x,1/2+y,1/2+z
1/2-x,-y,1/2+z
1/2+x,1/2-y,-z
-x,1/2+y,1/2-z
1/2-x,1/2-y,1/2-z
1/2+x,y,1/2-z
1/2-x,1/2+y,z
x,1/2-y,1/2+z
loop_
_atom_site_type_symbol
_atom_site_label
_atom_site_fract_x
_atom_site_fract_y
_atom_site_fract_z
Si Si1 0.199311 0.556422 0.670765
Si Si2 0.000000 0.750000 0.773268
Si Si3 0.500000 0.250000 0.070753
Si Si4 0.938918 0.000000 0.250000
Si Si5 0.635224 0.019789 0.943800
Si Si6 0.705776 0.201696 0.168909
Si Si7 0.432067 0.113144 0.008178
O O1 0.038752 0.526155 0.693998
O O2 0.325808 0.558157 0.725315
O O3 0.267027 0.512801 0.616941
O O4 0.172890 0.628923 0.643850
O O5 0.887695 0.709520 0.817827
O O6 0.891810 0.795223 0.731177
O O7 0.649259 0.251763 0.116021
O O8 0.503641 0.183309 0.030301
O O9 0.540583 0.949442 0.946012
O O10 0.750000 0.022469 0.000000
O O11 0.521421 0.085344 0.947622
O O12 0.250000 0.126007 0.000000
#
# Coordination Sequence:
#
# PCOD8296163 Si02
#       7
#    16   8   8   8  16  16  16
#     4  11  23  42  65  96 135 171 224 276 342 396
#     4   9  20  40  57  90 126 174 233 249 322 402
#     4  11  24  40  65  96 134 168 219 279 334 410
#     4  10  26  40  60 104 132 174 218 290 332 394
#     4  10  23  43  71  97 129 175 219 277 344 413
#     4  10  21  38  63  89 127 177 213 275 323 394
#     4  10  24  43  64  97 126 169 216 272 339 397
#
# _framework density 22.854645000000001
#
# number of rings (size 3 to 8) (size 9 to 14) (size 15 to 20)
#    0.000    1.818    0.000    2.182   10.182    3.636 
#    6.545    0.000    0.000    0.000    0.000    0.000 
#    0.000    0.000    0.000    0.000    0.000    0.000 
#
# Total GULP energy -545210.958530 kJ/mol
# GULP energy per Si atom -12391.158148 kJ/mol
# Density = 2.280263 g / cm^3
# Si number density = 22.854645 Si / 1000 Ang^3
#
#
#
# Elastic Constant Matrix: (Units=GPa)
#
#
# Indices 1 2 3 4 5 6 
#
# 1 100.2075 22.3703 13.1217 0.0000 0.0000 0.0000
# 2 22.3703 132.2877 18.9318 0.0000 0.0000 0.0000
# 3 13.1217 18.9318 58.9843 0.0000 0.0000 0.0000
# 4 0.0000 0.0000 0.0000 28.5112 0.0000 0.0000
# 5 0.0000 0.0000 0.0000 0.0000 22.4624 0.0000
# 6 0.0000 0.0000 0.0000 0.0000 0.0000 27.4165
#
#
#
# Elastic Compliance Matrix: (Units=1/GPa)
#
#
# Indices 1 2 3 4 5 6 
#
# 1 0.010562 -0.001520 -0.001862 0.000000 0.000000 0.000000
# 2 -0.001520 0.008142 -0.002275 0.000000 0.000000 0.000000
# 3 -0.001862 -0.002275 0.018098 0.000000 0.000000 0.000000
# 4 0.000000 0.000000 0.000000 0.035074 0.000000 0.000000
# 5 0.000000 0.000000 0.000000 0.000000 0.044519 0.000000
# 6 0.000000 0.000000 0.000000 0.000000 0.000000 0.036474
#
#
# Mechanical properties :
#
#
# Convention : Reuss Voigt Hill
#
# Bulk Modulus (GPa) = 39.23299 44.48079 41.85689
# Shear Modulus (GPa) = 28.95541 31.48174 30.21858
#
# Velocity S-wave (km/s) = 3.56327 3.71546 3.64016
# Velocity P-wave (km/s) = 5.84232 6.15719 6.00182
#
# Compressibility (1/GPa) = 0.02548875
#
# Stress axis : x y z
#
# Youngs Moduli (GPa) = 94.67589 122.82199 55.25439
#
# Poissons Ratio (x) = 0.18665 0.10288
# Poissons Ratio (y) = 0.14388 0.12571
# Poissons Ratio (z) = 0.17628 0.27944
#
# Static dielectric constant tensor:
#      x y z
#    x 4.329180 0.000000 0.000000 
#    y 0.000000 4.015980 0.000000 
#    z 0.000000 0.000000 3.926490 
# 
# 
# High freq. dielectric constant tensor:
#      x y z
#    x 1.920790 0.000000 0.000000 
#    y 0.000000 1.884120 0.000000 
#    z 0.000000 0.000000 1.890430 
# 
# From -- ./inp_files/6331.got.cif
#   From: 2010.03.12/outbox.cif.g09.slc.cpg/sg73_4_cif.got.tgz:6331.got - 2010.04.16 15:25:48.
