data_PCOD8296700
_publ_section_title
;
Structure prediction by ZEFSAII (Michael W. Deem and Ramdas Pophale) SiO2 
 PCOD8296700
Probable space group: I B C A 
;
_chemical_formula_sum "Si O2"
_cell_formula_units_Z 96
_cell_length_a 12.870416
_cell_length_b 25.262094
_cell_length_c 14.251053
_cell_angle_alpha 90.000000
_cell_angle_beta 90.000000
_cell_angle_gamma 90.000000
_cell_volume 4633.497004
_symmetry_space_group_name_H-M "I B C A "
_symmetry_group_IT_number 73
_symmetry_cell_setting 'orthorhombic'
loop_
_space_group_symop_operation_xyz
x,y,z
-x,1/2-y,z
x,-y,1/2-z
1/2-x,y,-z
-x,-y,-z
x,1/2+y,-z
-x,y,1/2+z
1/2+x,-y,z
1/2+x,1/2+y,1/2+z
1/2-x,-y,1/2+z
1/2+x,1/2-y,-z
-x,1/2+y,1/2-z
1/2-x,1/2-y,1/2-z
1/2+x,y,1/2-z
1/2-x,1/2+y,z
x,1/2-y,1/2+z
loop_
_atom_site_type_symbol
_atom_site_label
_atom_site_fract_x
_atom_site_fract_y
_atom_site_fract_z
Si Si1 0.000000 0.250000 0.694065
Si Si2 0.219906 0.384147 0.638683
Si Si3 0.641929 0.211218 0.467453
Si Si4 0.422518 0.000000 0.250000
Si Si5 0.084650 0.083072 0.302624
Si Si6 0.244429 0.495479 0.895773
Si Si7 0.058427 0.831364 0.646510
O O1 0.903065 0.239806 0.624243
O O2 0.968581 0.299330 0.758732
O O3 0.166167 0.349596 0.558324
O O4 0.152749 0.381514 0.732988
O O5 0.214477 0.443379 0.600421
O O6 0.333488 0.361876 0.663015
O O7 0.750000 0.239614 0.500000
O O8 0.563906 0.208071 0.556660
O O9 0.489900 0.053047 0.247363
O O10 0.352429 0.989965 0.158505
O O11 0.032556 0.125625 0.373461
O O12 0.154072 0.038001 0.348418
O O13 0.250000 0.472519 0.000000
#
# Coordination Sequence:
#
# PCOD8296700 Si02
#       7
#     8  16  16   8  16  16  16
#     4  12  24  46  72  96 128 174 220 282 340 388
#     4  11  21  43  65  93 132 173 212 270 325 392
#     4  10  24  43  67  98 129 168 221 272 333 402
#     4  12  22  40  66  90 132 178 224 260 316 400
#     4  12  22  42  65  95 134 177 219 268 323 387
#     4  12  24  39  63  99 136 173 220 267 321 390
#     4  11  24  43  70  96 128 171 225 268 338 394
#
# _framework density 20.718692999999998
#
# number of rings (size 3 to 8) (size 9 to 14) (size 15 to 20)
#    0.000    0.667    6.667    2.000    0.000    4.667 
#    6.000    0.000    0.000    0.000    0.000    0.000 
#    0.000    0.000    0.000    0.000    0.000    0.000 
#
# Total GULP energy -595035.386837 kJ/mol
# GULP energy per Si atom -12396.570559 kJ/mol
# Density = 2.067154 g / cm^3
# Si number density = 20.718693 Si / 1000 Ang^3
#
#
#
# Elastic Constant Matrix: (Units=GPa)
#
#
# Indices 1 2 3 4 5 6 
#
# 1 102.2908 38.6409 45.2948 -0.0001 0.0000 0.0001
# 2 38.6409 73.4541 22.8755 0.0001 0.0000 -0.0003
# 3 45.2948 22.8755 120.1285 0.0012 -0.0001 -0.0016
# 4 -0.0001 0.0001 0.0012 37.6298 0.0000 -0.0009
# 5 0.0000 0.0000 -0.0001 0.0000 25.7908 0.0001
# 6 0.0001 -0.0003 -0.0016 -0.0009 0.0001 -22.8288
#
#
#
# Elastic Compliance Matrix: (Units=1/GPa)
#
#
# Indices 1 2 3 4 5 6 
#
# 1 0.013855 -0.006019 -0.004078 0.000000 0.000000 0.000000
# 2 -0.006019 0.017087 -0.000984 0.000000 0.000000 0.000000
# 3 -0.004078 -0.000984 0.010050 0.000000 0.000000 -0.000001
# 4 0.000000 0.000000 0.000000 0.026575 0.000000 -0.000001
# 5 0.000000 0.000000 0.000000 0.000000 0.038773 0.000000
# 6 0.000000 0.000000 -0.000001 -0.000001 0.000000 -0.043804
#
#
# Mechanical properties :
#
#
# Convention : Reuss Voigt Hill
#
# Bulk Modulus (GPa) = 53.10877 56.61063 54.85970
# Shear Modulus (GPa) = 54.96062 20.72252 37.84157
#
# Velocity S-wave (km/s) = 5.15603 3.16600 4.27833
# Velocity P-wave (km/s) = 7.81890 6.38338 7.13732
#
# Compressibility (1/GPa) = 0.01882928
#
# Stress axis : x y z
#
# Youngs Moduli (GPa) = 72.17378 58.52521 99.50707
#
# Poissons Ratio (x) = 0.35224 0.40580
# Poissons Ratio (y) = 0.43439 0.09795
# Poissons Ratio (z) = 0.29433 0.05761
#
# Static dielectric constant tensor:
#      x y z
#    x 4.263360 0.000000 0.000000 
#    y 0.000000 3.736610 0.000000 
#    z 0.000000 0.000000 3.265850 
# 
# 
# High freq. dielectric constant tensor:
#      x y z
#    x 1.821870 0.000000 0.000000 
#    y 0.000000 1.808370 0.000000 
#    z 0.000000 0.000000 1.811620 
# 
# From -- ./inp_files/14781.got.cif
#   From: 2010.03.12/outbox.cif.g09.slc.cpg/sg73_8_cif.got.tgz:14781.got - 2010.04.16 15:25:48.
