data_PCOD8296884
_publ_section_title
;
Structure prediction by ZEFSAII (Michael W. Deem and Ramdas Pophale) SiO2 
 PCOD8296884
Probable space group: I B C A 
;
_chemical_formula_sum "Si O2"
_cell_formula_units_Z 72
_cell_length_a 17.054277
_cell_length_b 20.728909
_cell_length_c 9.836696
_cell_angle_alpha 90.000000
_cell_angle_beta 90.000000
_cell_angle_gamma 90.000000
_cell_volume 3477.434892
_symmetry_space_group_name_H-M "I B C A "
_symmetry_group_IT_number 73
_symmetry_cell_setting 'orthorhombic'
loop_
_space_group_symop_operation_xyz
x,y,z
-x,1/2-y,z
x,-y,1/2-z
1/2-x,y,-z
-x,-y,-z
x,1/2+y,-z
-x,y,1/2+z
1/2+x,-y,z
1/2+x,1/2+y,1/2+z
1/2-x,-y,1/2+z
1/2+x,1/2-y,-z
-x,1/2+y,1/2-z
1/2-x,1/2-y,1/2-z
1/2+x,y,1/2-z
1/2-x,1/2+y,z
x,1/2-y,1/2+z
loop_
_atom_site_type_symbol
_atom_site_label
_atom_site_fract_x
_atom_site_fract_y
_atom_site_fract_z
Si Si1 0.000000 0.750000 0.135230
Si Si2 0.026326 0.869441 0.477493
Si Si3 0.725383 0.159766 0.858017
Si Si4 0.912148 0.074563 0.250029
Si Si5 0.639709 0.215956 0.312624
O O1 0.923684 0.759075 0.228901
O O2 0.023352 0.811359 0.043809
O O3 0.052890 0.915072 0.599903
O O4 0.101696 0.835268 0.413397
O O5 0.976159 0.907602 0.365561
O O6 0.667696 0.113663 0.773808
O O7 0.804495 0.170798 0.775451
O O8 0.687683 0.229589 0.893168
O O9 0.750000 0.126345 0.000000
O O10 0.890503 0.000000 0.250000
#
# Coordination Sequence:
#
# PCOD8296884 Si02
#       5
#     8  16  16  16  16
#     4  12  20  42  72 108 136 168 224 296 350 408
#     4  12  23  43  71 101 133 173 235 283 341 403
#     4  11  24  42  66  99 140 171 220 280 356 413
#     4  12  27  47  67  96 138 188 235 277 331 417
#     4  11  22  39  70 104 135 170 215 291 359 406
#
# _framework density 20.704916000000001
#
# number of rings (size 3 to 8) (size 9 to 14) (size 15 to 20)
#    0.000    0.444    4.444    5.333    3.111    0.000 
#    4.000    0.000    0.000    0.000    0.000    0.000 
#    0.000    0.000    0.000    0.000    0.000    0.000 
#
# Total GULP energy -446338.978658 kJ/mol
# GULP energy per Si atom -12398.304963 kJ/mol
# Density = 2.065779 g / cm^3
# Si number density = 20.704916 Si / 1000 Ang^3
#
#
#
# Elastic Constant Matrix: (Units=GPa)
#
#
# Indices 1 2 3 4 5 6 
#
# 1 97.8715 18.1765 44.9797 0.0000 0.0000 0.0000
# 2 18.1765 90.3275 27.7241 0.0000 0.0000 0.0000
# 3 44.9797 27.7241 119.5804 0.0000 0.0000 0.0000
# 4 0.0000 0.0000 0.0000 -67.9274 0.0000 0.0000
# 5 0.0000 0.0000 0.0000 0.0000 76.5522 0.0000
# 6 0.0000 0.0000 0.0000 0.0000 0.0000 15.9093
#
#
#
# Elastic Compliance Matrix: (Units=1/GPa)
#
#
# Indices 1 2 3 4 5 6 
#
# 1 0.012463 -0.001151 -0.004421 0.000000 0.000000 0.000000
# 2 -0.001151 0.012025 -0.002355 0.000000 0.000000 0.000000
# 3 -0.004421 -0.002355 0.010572 0.000000 0.000000 0.000000
# 4 0.000000 0.000000 0.000000 -0.014722 0.000000 0.000000
# 5 0.000000 0.000000 0.000000 0.000000 0.013063 0.000000
# 6 0.000000 0.000000 0.000000 0.000000 0.000000 0.062856
#
#
# Mechanical properties :
#
#
# Convention : Reuss Voigt Hill
#
# Bulk Modulus (GPa) = 52.06798 54.39333 53.23065
# Shear Modulus (GPa) = 42.18921 19.36675 30.77798
#
# Velocity S-wave (km/s) = 4.51892 3.06170 3.85971
# Velocity P-wave (km/s) = 7.24084 6.23109 6.75486
#
# Compressibility (1/GPa) = 0.01920566
#
# Stress axis : x y z
#
# Youngs Moduli (GPa) = 80.23700 83.15818 94.59344
#
# Poissons Ratio (x) = 0.09571 0.41821
# Poissons Ratio (y) = 0.09235 0.22277
# Poissons Ratio (z) = 0.35473 0.19584
#
# Static dielectric constant tensor:
#      x y z
#    x 3.787450 0.000000 0.000000 
#    y 0.000000 3.540880 0.000000 
#    z 0.000000 0.000000 3.985530 
# 
# 
# High freq. dielectric constant tensor:
#      x y z
#    x 1.818620 0.000000 0.000000 
#    y 0.000000 1.788260 0.000000 
#    z 0.000000 0.000000 1.828420 
# 
# From -- ./inp_files/5358.got.cif
#   From: 2010.03.12/outbox.cif.g09.slc.cpg/sg73_3_cif.got.tgz:5358.got - 2010.04.16 15:25:48.
