data_PCOD8296428
_publ_section_title
;
Structure prediction by ZEFSAII (Michael W. Deem and Ramdas Pophale) SiO2 
 PCOD8296428
Probable space group: I B C A 
;
_chemical_formula_sum "Si O2"
_cell_formula_units_Z 88
_cell_length_a 9.514414
_cell_length_b 23.625186
_cell_length_c 19.134542
_cell_angle_alpha 90.000000
_cell_angle_beta 90.000000
_cell_angle_gamma 90.000000
_cell_volume 4301.058532
_symmetry_space_group_name_H-M "I B C A "
_symmetry_group_IT_number 73
_symmetry_cell_setting 'orthorhombic'
loop_
_space_group_symop_operation_xyz
x,y,z
-x,1/2-y,z
x,-y,1/2-z
1/2-x,y,-z
-x,-y,-z
x,1/2+y,-z
-x,y,1/2+z
1/2+x,-y,z
1/2+x,1/2+y,1/2+z
1/2-x,-y,1/2+z
1/2+x,1/2-y,-z
-x,1/2+y,1/2-z
1/2-x,1/2-y,1/2-z
1/2+x,y,1/2-z
1/2-x,1/2+y,z
x,1/2-y,1/2+z
loop_
_atom_site_type_symbol
_atom_site_label
_atom_site_fract_x
_atom_site_fract_y
_atom_site_fract_z
Si Si1 0.750000 0.371743 0.500000
Si Si2 0.015976 0.630391 0.241010
Si Si3 0.838410 0.238385 0.062206
Si Si4 0.596450 0.526088 0.176112
Si Si5 0.615185 0.063730 0.118442
Si Si6 0.219033 0.199681 0.200955
O O1 0.682720 0.330649 0.439548
O O2 0.870131 0.409524 0.460047
O O3 0.018574 0.583424 0.301969
O O4 0.168910 0.648849 0.212267
O O5 0.922281 0.611882 0.174755
O O6 0.938996 0.680924 0.281136
O O7 0.772481 0.272313 0.125820
O O8 0.000000 0.250000 0.051905
O O9 0.750000 0.266235 0.000000
O O10 0.643402 0.500000 0.250000
O O11 0.499628 0.486173 0.127078
O O12 0.733266 0.537075 0.131280
O O13 0.250000 0.250000 0.250000
#
# Coordination Sequence:
#
# PCOD8296428 Si02
#       6
#     8  16  16  16  16  16
#     4  10  26  42  66  88 136 186 218 278 336 410
#     4  11  23  39  69 100 134 168 222 285 347 399
#     4  10  25  43  65  94 142 182 232 279 342 409
#     4  10  22  41  66  98 125 164 216 288 340 399
#     4  11  23  42  67  94 133 172 225 274 347 404
#     4  12  24  39  67 102 133 176 228 277 341 413
#
# _framework density 20.460079
#
# number of rings (size 3 to 8) (size 9 to 14) (size 15 to 20)
#    0.545    0.727    1.818    4.364    7.636    0.727 
#    0.000    0.000    2.000    0.000    0.000    0.000 
#    0.000    0.000    0.000    0.000    0.000    0.000 
#
# Total GULP energy -545179.621037 kJ/mol
# GULP energy per Si atom -12390.445933 kJ/mol
# Density = 2.041351 g / cm^3
# Si number density = 20.460079 Si / 1000 Ang^3
#
#
#
# Elastic Constant Matrix: (Units=GPa)
#
#
# Indices 1 2 3 4 5 6 
#
# 1 85.9281 40.4503 46.3373 0.0000 0.0000 0.0000
# 2 40.4503 97.9537 45.3023 0.0000 0.0000 0.0000
# 3 46.3373 45.3023 102.9866 0.0001 -0.0001 0.0000
# 4 0.0000 0.0000 0.0001 30.1375 0.0000 0.0000
# 5 0.0000 0.0000 -0.0001 0.0000 29.5269 0.0000
# 6 0.0000 0.0000 0.0000 0.0000 0.0000 50.7337
#
#
#
# Elastic Compliance Matrix: (Units=1/GPa)
#
#
# Indices 1 2 3 4 5 6 
#
# 1 0.016689 -0.004292 -0.005621 0.000000 0.000000 0.000000
# 2 -0.004292 0.013920 -0.004192 0.000000 0.000000 0.000000
# 3 -0.005621 -0.004192 0.014083 0.000000 0.000000 0.000000
# 4 0.000000 0.000000 0.000000 0.033181 0.000000 0.000000
# 5 0.000000 0.000000 0.000000 0.000000 0.033867 0.000000
# 6 0.000000 0.000000 0.000000 0.000000 0.000000 0.019711
#
#
# Mechanical properties :
#
#
# Convention : Reuss Voigt Hill
#
# Bulk Modulus (GPa) = 60.67232 61.22760 60.94996
# Shear Modulus (GPa) = 30.27426 32.39820 31.33623
#
# Velocity S-wave (km/s) = 3.85083 3.98362 3.91779
# Velocity P-wave (km/s) = 7.03493 7.15187 7.09364
#
# Compressibility (1/GPa) = 0.01648198
#
# Stress axis : x y z
#
# Youngs Moduli (GPa) = 59.91834 71.83810 71.00701
#
# Poissons Ratio (x) = 0.30835 0.39913
# Poissons Ratio (y) = 0.25719 0.29766
# Poissons Ratio (z) = 0.33680 0.30115
#
# Static dielectric constant tensor:
#      x y z
#    x 3.502390 0.000000 0.000000 
#    y 0.000000 3.839350 0.000000 
#    z 0.000000 0.000000 3.590890 
# 
# 
# High freq. dielectric constant tensor:
#      x y z
#    x 1.801850 0.000000 0.000000 
#    y 0.000000 1.810490 0.000000 
#    z 0.000000 0.000000 1.790380 
# 
# From -- ./inp_files/24782.got.cif
#   From: 2010.03.12/outbox.cif.g09.slc.cpg/sg73_13_cif.got.tgz:24782.got - 2010.04.16 15:25:48.
