data_PCOD8296880
_publ_section_title
;
Structure prediction by ZEFSAII (Michael W. Deem and Ramdas Pophale) SiO2 
 PCOD8296880
Probable space group: I B C A 
;
_chemical_formula_sum "Si O2"
_cell_formula_units_Z 96
_cell_length_a 8.296297
_cell_length_b 18.817112
_cell_length_c 27.202390
_cell_angle_alpha 90.000000
_cell_angle_beta 90.000000
_cell_angle_gamma 90.000000
_cell_volume 4246.629024
_symmetry_space_group_name_H-M "I B C A "
_symmetry_group_IT_number 73
_symmetry_cell_setting 'orthorhombic'
loop_
_space_group_symop_operation_xyz
x,y,z
-x,1/2-y,z
x,-y,1/2-z
1/2-x,y,-z
-x,-y,-z
x,1/2+y,-z
-x,y,1/2+z
1/2+x,-y,z
1/2+x,1/2+y,1/2+z
1/2-x,-y,1/2+z
1/2+x,1/2-y,-z
-x,1/2+y,1/2-z
1/2-x,1/2-y,1/2-z
1/2+x,y,1/2-z
1/2-x,1/2+y,z
x,1/2-y,1/2+z
loop_
_atom_site_type_symbol
_atom_site_label
_atom_site_fract_x
_atom_site_fract_y
_atom_site_fract_z
Si Si1 0.380886 0.074320 0.801199
Si Si2 0.741917 0.477737 0.443139
Si Si3 0.001916 0.085108 0.801196
Si Si4 0.575080 0.647941 0.902950
Si Si5 0.071873 0.898722 0.406019
Si Si6 0.261751 0.724385 0.942883
O O1 0.448833 0.113235 0.752605
O O2 0.458558 0.113445 0.848187
O O3 0.191269 0.080503 0.802339
O O4 0.423069 0.991788 0.806420
O O5 0.750000 0.497082 0.500000
O O6 0.890169 0.426749 0.428833
O O7 0.767988 0.551399 0.413320
O O8 0.575532 0.439070 0.431054
O O9 0.942901 0.137987 0.844170
O O10 0.418077 0.678234 0.929437
O O11 0.725838 0.701860 0.912342
O O12 0.102451 0.821083 0.429399
O O13 0.250000 0.743552 0.000000
#
# Coordination Sequence:
#
# PCOD8296880 Si02
#       6
#    16  16  16  16  16  16
#     4  11  22  38  68 100 134 175 224 285 352 410
#     4  12  24  39  65  99 136 174 227 288 344 409
#     4  11  22  40  67 102 134 178 227 286 353 411
#     4  11  24  43  68  93 137 176 230 287 337 410
#     4  12  23  40  66  98 135 172 228 283 346 412
#     4  11  24  45  68  92 132 186 225 271 345 410
#
# _framework density 22.606164
#
# number of rings (size 3 to 8) (size 9 to 14) (size 15 to 20)
#    0.000    0.667    3.333    6.500    2.333    2.000 
#    0.000    0.833    0.000    0.000    0.000    0.000 
#    0.000    0.000    0.000    0.000    0.000    0.000 
#
# Total GULP energy -595268.671113 kJ/mol
# GULP energy per Si atom -12401.430648 kJ/mol
# Density = 2.255471 g / cm^3
# Si number density = 22.606164 Si / 1000 Ang^3
#
#
#
# Elastic Constant Matrix: (Units=GPa)
#
#
# Indices 1 2 3 4 5 6 
#
# 1 50.7950 -4.6019 37.3062 0.0000 0.0000 0.0000
# 2 -4.6019 64.3711 38.4037 0.0000 0.0000 0.0000
# 3 37.3062 38.4037 196.5677 0.0000 0.0000 0.0000
# 4 0.0000 0.0000 0.0000 35.5357 0.0000 0.0000
# 5 0.0000 0.0000 0.0000 0.0000 36.9117 0.0000
# 6 0.0000 0.0000 0.0000 0.0000 0.0000 34.7690
#
#
#
# Elastic Compliance Matrix: (Units=1/GPa)
#
#
# Indices 1 2 3 4 5 6 
#
# 1 0.024255 0.005071 -0.005594 0.000000 0.000000 0.000000
# 2 0.005071 0.018645 -0.004605 0.000000 0.000000 0.000000
# 3 -0.005594 -0.004605 0.007049 0.000000 0.000000 0.000000
# 4 0.000000 0.000000 0.000000 0.028141 0.000000 0.000000
# 5 0.000000 0.000000 0.000000 0.000000 0.027092 0.000000
# 6 0.000000 0.000000 0.000000 0.000000 0.000000 0.028761
#
#
# Mechanical properties :
#
#
# Convention : Reuss Voigt Hill
#
# Bulk Modulus (GPa) = 25.19337 50.43886 37.81611
# Shear Modulus (GPa) = 31.76034 37.48501 34.62267
#
# Velocity S-wave (km/s) = 3.75232 4.07649 3.91776
# Velocity P-wave (km/s) = 5.47192 6.67214 6.10161
#
# Compressibility (1/GPa) = 0.03969299
#
# Stress axis : x y z
#
# Youngs Moduli (GPa) = 41.22852 53.63385 141.86958
#
# Poissons Ratio (x) = -0.27200 0.79364
# Poissons Ratio (y) = -0.20909 0.65334
# Poissons Ratio (z) = 0.23064 0.24699
#
# Static dielectric constant tensor:
#      x y z
#    x 4.169050 0.000000 0.000000 
#    y 0.000000 4.147240 0.000000 
#    z 0.000000 0.000000 4.485030 
# 
# 
# High freq. dielectric constant tensor:
#      x y z
#    x 1.903090 0.000000 0.000000 
#    y 0.000000 1.872200 0.000000 
#    z 0.000000 0.000000 1.904620 
# 
# From -- ./inp_files/6461.got.cif
#   From: 2010.03.12/outbox.cif.g09.slc.cpg/sg73_4_cif.got.tgz:6461.got - 2010.04.16 15:25:48.
