data_PCOD8296133
_publ_section_title
;
Structure prediction by ZEFSAII (Michael W. Deem and Ramdas Pophale) SiO2 
 PCOD8296133
Probable space group: I B C A 
;
_chemical_formula_sum "Si O2"
_cell_formula_units_Z 112
_cell_length_a 13.739892
_cell_length_b 13.738409
_cell_length_c 29.266245
_cell_angle_alpha 90.000000
_cell_angle_beta 90.000000
_cell_angle_gamma 90.000000
_cell_volume 5524.420961
_symmetry_space_group_name_H-M "I B C A "
_symmetry_group_IT_number 73
_symmetry_cell_setting 'orthorhombic'
loop_
_space_group_symop_operation_xyz
x,y,z
-x,1/2-y,z
x,-y,1/2-z
1/2-x,y,-z
-x,-y,-z
x,1/2+y,-z
-x,y,1/2+z
1/2+x,-y,z
1/2+x,1/2+y,1/2+z
1/2-x,-y,1/2+z
1/2+x,1/2-y,-z
-x,1/2+y,1/2-z
1/2-x,1/2-y,1/2-z
1/2+x,y,1/2-z
1/2-x,1/2+y,z
x,1/2-y,1/2+z
loop_
_atom_site_type_symbol
_atom_site_label
_atom_site_fract_x
_atom_site_fract_y
_atom_site_fract_z
Si Si1 0.761360 0.125838 0.948156
Si Si2 0.389434 0.746955 0.825786
Si Si3 0.895116 0.041127 0.295468
Si Si4 0.622474 0.974245 0.106281
Si Si5 0.893208 0.485607 0.604562
Si Si6 0.784094 0.826417 0.089282
Si Si7 0.619056 0.042508 0.204176
O O1 0.662406 0.102528 0.920044
O O2 0.782146 0.242156 0.949077
O O3 0.849501 0.065536 0.925599
O O4 0.750000 0.090201 0.000000
O O5 0.500000 0.750000 0.846313
O O6 0.380879 0.656521 0.791708
O O7 0.310726 0.734561 0.865497
O O8 0.364759 0.841956 0.796614
O O9 0.007226 0.012194 0.294584
O O10 0.842234 0.000000 0.250000
O O11 0.854463 0.996204 0.342971
O O12 0.506993 0.963006 0.101615
O O13 0.677127 0.875658 0.091300
O O14 0.660072 0.994826 0.157829
O O15 0.864662 0.588877 0.580063
O O16 0.670464 0.000000 0.250000
#
# Coordination Sequence:
#
# PCOD8296133 Si02
#       7
#    16  16  16  16  16  16  16
#     4  11  24  41  62  88 119 153 199 260 305 361
#     4   9  16  31  58  84 113 156 204 239 287 352
#     4   8  15  30  56  89 119 155 196 238 284 351
#     4  10  21  41  63  87 125 157 197 249 302 362
#     4   9  21  40  64  89 120 162 195 242 308 357
#     4  10  21  37  61  87 116 156 201 249 299 353
#     4   9  16  31  56  86 119 156 200 238 284 349
#
# _framework density 20.273617000000002
#
# number of rings (size 3 to 8) (size 9 to 14) (size 15 to 20)
#    0.000    2.571    1.429    0.857    0.000    3.429 
#    2.571    8.571    0.000    0.000    0.000    0.000 
#    0.000    0.000    0.000    0.000    0.000    0.000 
#
# Total GULP energy -693936.359105 kJ/mol
# GULP energy per Si atom -12391.720698 kJ/mol
# Density = 2.022747 g / cm^3
# Si number density = 20.273617 Si / 1000 Ang^3
#
#
#
# Elastic Constant Matrix: (Units=GPa)
#
#
# Indices 1 2 3 4 5 6 
#
# 1 101.1381 24.3365 14.3733 0.0000 0.0000 0.0000
# 2 24.3365 91.4028 30.7122 0.0000 0.0000 0.0000
# 3 14.3733 30.7122 95.0562 0.0000 0.0000 0.0000
# 4 0.0000 0.0000 0.0000 27.1708 0.0000 0.0000
# 5 0.0000 0.0000 0.0000 0.0000 15.8125 0.0000
# 6 0.0000 0.0000 0.0000 0.0000 0.0000 23.7577
#
#
#
# Elastic Compliance Matrix: (Units=1/GPa)
#
#
# Indices 1 2 3 4 5 6 
#
# 1 0.010615 -0.002566 -0.000776 0.000000 0.000000 0.000000
# 2 -0.002566 0.012893 -0.003778 0.000000 0.000000 0.000000
# 3 -0.000776 -0.003778 0.011858 0.000000 0.000000 0.000000
# 4 0.000000 0.000000 0.000000 0.036804 0.000000 0.000000
# 5 0.000000 0.000000 0.000000 0.000000 0.063241 0.000000
# 6 0.000000 0.000000 0.000000 0.000000 0.000000 0.042092
#
#
# Mechanical properties :
#
#
# Convention : Reuss Voigt Hill
#
# Bulk Modulus (GPa) = 47.33221 47.38233 47.35727
# Shear Modulus (GPa) = 25.15290 27.89322 26.52306
#
# Velocity S-wave (km/s) = 3.52614 3.71325 3.62090
# Velocity P-wave (km/s) = 6.32262 6.46579 6.39461
#
# Compressibility (1/GPa) = 0.02112726
#
# Stress axis : x y z
#
# Youngs Moduli (GPa) = 94.20530 77.56125 84.33102
#
# Poissons Ratio (x) = 0.19899 0.06546
# Poissons Ratio (y) = 0.24169 0.31858
# Poissons Ratio (z) = 0.07312 0.29301
#
# Static dielectric constant tensor:
#      x y z
#    x 3.544600 0.000000 0.000000 
#    y 0.000000 3.683820 0.000000 
#    z 0.000000 0.000000 3.738030 
# 
# 
# High freq. dielectric constant tensor:
#      x y z
#    x 1.789790 0.000000 0.000000 
#    y 0.000000 1.789760 0.000000 
#    z 0.000000 0.000000 1.773660 
# 
# From -- ./inp_files/32162.got.cif
#   From: 2010.03.12/outbox.cif.g09.slc.cpg/sg73_17_cif.got.tgz:32162.got - 2010.04.16 15:25:48.
