data_PCOD8296367
_publ_section_title
;
Structure prediction by ZEFSAII (Michael W. Deem and Ramdas Pophale) SiO2 
 PCOD8296367
Probable space group: I B C A 
;
_chemical_formula_sum "Si O2"
_cell_formula_units_Z 96
_cell_length_a 21.484298
_cell_length_b 15.091831
_cell_length_c 13.753543
_cell_angle_alpha 90.000000
_cell_angle_beta 90.000000
_cell_angle_gamma 90.000000
_cell_volume 4459.412948
_symmetry_space_group_name_H-M "I B C A "
_symmetry_group_IT_number 73
_symmetry_cell_setting 'orthorhombic'
loop_
_space_group_symop_operation_xyz
x,y,z
-x,1/2-y,z
x,-y,1/2-z
1/2-x,y,-z
-x,-y,-z
x,1/2+y,-z
-x,y,1/2+z
1/2+x,-y,z
1/2+x,1/2+y,1/2+z
1/2-x,-y,1/2+z
1/2+x,1/2-y,-z
-x,1/2+y,1/2-z
1/2-x,1/2-y,1/2-z
1/2+x,y,1/2-z
1/2-x,1/2+y,z
x,1/2-y,1/2+z
loop_
_atom_site_type_symbol
_atom_site_label
_atom_site_fract_x
_atom_site_fract_y
_atom_site_fract_z
Si Si1 0.273476 0.128295 0.606593
Si Si2 0.123438 0.184064 0.256671
Si Si3 0.104526 0.956739 0.604814
Si Si4 0.146415 0.539265 0.902515
Si Si5 0.527807 0.562240 0.836588
Si Si6 0.355852 0.874056 0.198806
O O1 0.250000 0.160538 0.500000
O O2 0.328866 0.189583 0.651293
O O3 0.216654 0.136483 0.679580
O O4 0.294944 0.025912 0.604347
O O5 0.151632 0.112048 0.181347
O O6 0.055114 0.154095 0.293639
O O7 0.113496 0.276481 0.201281
O O8 0.141900 0.920833 0.510872
O O9 0.139280 0.914658 0.695046
O O10 0.032851 0.923336 0.596608
O O11 0.110394 0.064552 0.616965
O O12 0.082628 0.484095 0.895293
O O13 0.502949 0.500000 0.750000
#
# Coordination Sequence:
#
# PCOD8296367 Si02
#       6
#    16  16  16  16  16  16
#     4  11  22  41  65  94 129 173 219 271 326 403
#     4  10  24  41  65  95 134 169 219 276 330 382
#     4  11  22  40  66  90 130 172 219 262 332 405
#     4  10  22  39  67  90 125 174 219 263 332 394
#     4   9  18  40  64  90 122 170 213 267 325 387
#     4  11  24  40  63  95 133 168 218 269 330 387
#
# _framework density 21.527497
#
# number of rings (size 3 to 8) (size 9 to 14) (size 15 to 20)
#    0.000    1.667    3.333    2.500    4.667    2.000 
#    0.000    0.833    3.667    0.000    0.000    0.000 
#    0.000    0.000    0.000    0.000    0.000    0.000 
#
# Total GULP energy -595062.631218 kJ/mol
# GULP energy per Si atom -12397.138150 kJ/mol
# Density = 2.147850 g / cm^3
# Si number density = 21.527497 Si / 1000 Ang^3
#
#
#
# Elastic Constant Matrix: (Units=GPa)
#
#
# Indices 1 2 3 4 5 6 
#
# 1 72.1277 30.0076 9.8395 0.0000 0.0000 0.0000
# 2 30.0076 91.8409 20.9692 0.0000 0.0000 0.0000
# 3 9.8395 20.9692 91.1500 0.0000 0.0000 0.0000
# 4 0.0000 0.0000 0.0000 18.7882 0.0000 0.0000
# 5 0.0000 0.0000 0.0000 0.0000 35.9492 0.0000
# 6 0.0000 0.0000 0.0000 0.0000 0.0000 13.1123
#
#
#
# Elastic Compliance Matrix: (Units=1/GPa)
#
#
# Indices 1 2 3 4 5 6 
#
# 1 0.016072 -0.005124 -0.000556 0.000000 0.000000 0.000000
# 2 -0.005124 0.013126 -0.002466 0.000000 0.000000 0.000000
# 3 -0.000556 -0.002466 0.011598 0.000000 0.000000 0.000000
# 4 0.000000 0.000000 0.000000 0.053225 0.000000 0.000000
# 5 0.000000 0.000000 0.000000 0.000000 0.027817 0.000000
# 6 0.000000 0.000000 0.000000 0.000000 0.000000 0.076264
#
#
# Mechanical properties :
#
#
# Convention : Reuss Voigt Hill
#
# Bulk Modulus (GPa) = 40.81217 41.86125 41.33671
# Shear Modulus (GPa) = 22.46550 26.52343 24.49447
#
# Velocity S-wave (km/s) = 3.23394 3.51390 3.37682
# Velocity P-wave (km/s) = 5.73967 5.99591 5.86919
#
# Compressibility (1/GPa) = 0.02450250
#
# Stress axis : x y z
#
# Youngs Moduli (GPa) = 62.21983 76.18569 86.21899
#
# Poissons Ratio (x) = 0.39040 0.04795
# Poissons Ratio (y) = 0.31883 0.21266
# Poissons Ratio (z) = 0.03460 0.18791
#
# Static dielectric constant tensor:
#      x y z
#    x 3.798620 0.000000 0.000000 
#    y 0.000000 3.856380 0.000000 
#    z 0.000000 0.000000 3.970010 
# 
# 
# High freq. dielectric constant tensor:
#      x y z
#    x 1.848390 0.000000 0.000000 
#    y 0.000000 1.815840 0.000000 
#    z 0.000000 0.000000 1.848510 
# 
# From -- ./inp_files/18616.got.cif
#   From: 2010.03.12/outbox.cif.g09.slc.cpg/sg73_10_cif.got.tgz:18616.got - 2010.04.16 15:25:48.
