data_PCOD8296386
_publ_section_title
;
Structure prediction by ZEFSAII (Michael W. Deem and Ramdas Pophale) SiO2 
 PCOD8296386
Probable space group: I B C A 
;
_chemical_formula_sum "Si O2"
_cell_formula_units_Z 96
_cell_length_a 9.042115
_cell_length_b 24.328055
_cell_length_c 21.387359
_cell_angle_alpha 90.000000
_cell_angle_beta 90.000000
_cell_angle_gamma 90.000000
_cell_volume 4704.728590
_symmetry_space_group_name_H-M "I B C A "
_symmetry_group_IT_number 73
_symmetry_cell_setting 'orthorhombic'
loop_
_space_group_symop_operation_xyz
x,y,z
-x,1/2-y,z
x,-y,1/2-z
1/2-x,y,-z
-x,-y,-z
x,1/2+y,-z
-x,y,1/2+z
1/2+x,-y,z
1/2+x,1/2+y,1/2+z
1/2-x,-y,1/2+z
1/2+x,1/2-y,-z
-x,1/2+y,1/2-z
1/2-x,1/2-y,1/2-z
1/2+x,y,1/2-z
1/2-x,1/2+y,z
x,1/2-y,1/2+z
loop_
_atom_site_type_symbol
_atom_site_label
_atom_site_fract_x
_atom_site_fract_y
_atom_site_fract_z
Si Si1 0.002457 0.687967 0.582859
Si Si2 0.378653 0.547096 0.582972
Si Si3 0.732065 0.442343 0.715464
Si Si4 0.750000 0.636365 0.000000
Si Si5 0.209816 0.448358 0.586253
Si Si6 0.583304 0.901296 0.814637
Si Si7 0.750000 0.148855 0.500000
O O1 0.159627 0.672147 0.551196
O O2 0.000000 0.750000 0.608033
O O3 0.962269 0.651213 0.643434
O O4 0.879172 0.685889 0.528432
O O5 0.286640 0.559600 0.644690
O O6 0.370004 0.598747 0.535980
O O7 0.301533 0.494797 0.547825
O O8 0.545506 0.530891 0.601932
O O9 0.764228 0.500000 0.750000
O O10 0.558374 0.431927 0.712400
O O11 0.814380 0.391787 0.752823
O O12 0.311539 0.442238 0.646922
O O13 0.186076 0.390443 0.553240
#
# Coordination Sequence:
#
# PCOD8296386 Si02
#       7
#    16  16  16   8  16  16   8
#     4  11  24  46  69  94 124 169 226 281 339 384
#     4  12  24  38  64  97 136 177 209 256 319 398
#     4  12  23  39  63  95 132 173 214 252 322 396
#     4  12  24  42  70  96 132 170 222 270 332 400
#     4  11  23  37  57  95 132 170 211 251 314 389
#     4  11  24  41  65  94 127 175 220 272 317 391
#     4  10  22  40  64  90 130 166 206 272 328 384
#
# _framework density 20.405003000000001
#
# number of rings (size 3 to 8) (size 9 to 14) (size 15 to 20)
#    0.000    0.667    5.000    3.500    2.333    1.333 
#    0.000    0.833    0.000    0.000    0.000    0.000 
#    0.000    0.000    0.000    0.000    0.000    0.000 
#
# Total GULP energy -594766.178890 kJ/mol
# GULP energy per Si atom -12390.962060 kJ/mol
# Density = 2.035856 g / cm^3
# Si number density = 20.405003 Si / 1000 Ang^3
#
#
#
# Elastic Constant Matrix: (Units=GPa)
#
#
# Indices 1 2 3 4 5 6 
#
# 1 153.5009 32.1684 25.6600 0.0000 0.0000 0.0000
# 2 32.1684 92.9345 23.6633 0.0000 0.0000 0.0000
# 3 25.6600 23.6633 63.3354 0.0000 0.0000 0.0000
# 4 0.0000 0.0000 0.0000 16.4095 0.0000 0.0000
# 5 0.0000 0.0000 0.0000 0.0000 36.9813 0.0000
# 6 0.0000 0.0000 0.0000 0.0000 0.0000 23.3177
#
#
#
# Elastic Compliance Matrix: (Units=1/GPa)
#
#
# Indices 1 2 3 4 5 6 
#
# 1 0.007297 -0.001959 -0.002224 0.000000 0.000000 0.000000
# 2 -0.001959 0.012418 -0.003846 0.000000 0.000000 0.000000
# 3 -0.002224 -0.003846 0.018127 0.000000 0.000000 0.000000
# 4 0.000000 0.000000 0.000000 0.060940 0.000000 0.000000
# 5 0.000000 0.000000 0.000000 0.000000 0.027041 0.000000
# 6 0.000000 0.000000 0.000000 0.000000 0.000000 0.042886
#
#
# Mechanical properties :
#
#
# Convention : Reuss Voigt Hill
#
# Bulk Modulus (GPa) = 45.90744 52.52825 49.21785
# Shear Modulus (GPa) = 26.03782 30.56031 28.29906
#
# Velocity S-wave (km/s) = 3.57606 3.87419 3.72811
# Velocity P-wave (km/s) = 6.29269 6.76840 6.53487
#
# Compressibility (1/GPa) = 0.02178296
#
# Stress axis : x y z
#
# Youngs Moduli (GPa) = 137.04120 80.53026 55.16666
#
# Poissons Ratio (x) = 0.15780 0.12271
# Poissons Ratio (y) = 0.26853 0.21215
# Poissons Ratio (z) = 0.30482 0.30969
#
# Static dielectric constant tensor:
#      x y z
#    x 3.868840 0.000000 0.000000 
#    y 0.000000 3.375200 0.000000 
#    z 0.000000 0.000000 3.842380 
# 
# 
# High freq. dielectric constant tensor:
#      x y z
#    x 1.818510 0.000000 0.000000 
#    y 0.000000 1.759610 0.000000 
#    z 0.000000 0.000000 1.807010 
# 
# From -- ./inp_files/7220.got.cif
#   From: 2010.03.12/outbox.cif.g09.slc.cpg/sg73_4_cif.got.tgz:7220.got - 2010.04.16 15:25:48.
