data_PCOD8296753
_publ_section_title
;
Structure prediction by ZEFSAII (Michael W. Deem and Ramdas Pophale) SiO2 
 PCOD8296753
Probable space group: I B C A 
;
_chemical_formula_sum "Si O2"
_cell_formula_units_Z 56
_cell_length_a 9.558481
_cell_length_b 27.506909
_cell_length_c 8.736664
_cell_angle_alpha 90.000000
_cell_angle_beta 90.000000
_cell_angle_gamma 90.000000
_cell_volume 2297.080979
_symmetry_space_group_name_H-M "I B C A "
_symmetry_group_IT_number 73
_symmetry_cell_setting 'orthorhombic'
loop_
_space_group_symop_operation_xyz
x,y,z
-x,1/2-y,z
x,-y,1/2-z
1/2-x,y,-z
-x,-y,-z
x,1/2+y,-z
-x,y,1/2+z
1/2+x,-y,z
1/2+x,1/2+y,1/2+z
1/2-x,-y,1/2+z
1/2+x,1/2-y,-z
-x,1/2+y,1/2-z
1/2-x,1/2-y,1/2-z
1/2+x,y,1/2-z
1/2-x,1/2+y,z
x,1/2-y,1/2+z
loop_
_atom_site_type_symbol
_atom_site_label
_atom_site_fract_x
_atom_site_fract_y
_atom_site_fract_z
Si Si1 0.452971 0.838944 0.072147
Si Si2 0.900597 0.933014 0.009137
Si Si3 0.692752 0.303279 0.719910
Si Si4 0.509873 0.500000 0.750000
O O1 0.475490 0.894079 0.015936
O O2 0.599186 0.818922 0.136527
O O3 0.328354 0.838579 0.199237
O O4 0.403872 0.804928 0.931845
O O5 0.750000 0.906794 0.000000
O O6 0.917632 0.957230 0.175362
O O7 0.897151 0.975576 0.881951
O O8 0.750000 0.250000 0.750000
#
# Coordination Sequence:
#
# PCOD8296753 Si02
#       4
#    16  16  16   8
#     4  11  27  48  76 111 149 203 245 323 372 457
#     4  11  24  46  74 108 152 193 256 305 387 447
#     4  11  27  50  74 108 152 196 260 306 383 447
#     4  10  24  46  72 112 144 202 244 314 372 462
#
# _framework density 24.378768000000001
#
# number of rings (size 3 to 8) (size 9 to 14) (size 15 to 20)
#    0.000    1.143    0.000    3.429    8.000    9.143 
#   20.571    0.000    0.000    0.000    0.000    0.000 
#    0.000    0.000    0.000    0.000    0.000    0.000 
#
# Total GULP energy -347236.865174 kJ/mol
# GULP energy per Si atom -12401.316613 kJ/mol
# Density = 2.432328 g / cm^3
# Si number density = 24.378768 Si / 1000 Ang^3
#
#
#
# Elastic Constant Matrix: (Units=GPa)
#
#
# Indices 1 2 3 4 5 6 
#
# 1 150.8397 77.3435 46.9534 -0.0002 -0.0010 0.0001
# 2 77.3435 137.2265 60.9731 0.0015 0.0011 0.0004
# 3 46.9534 60.9731 102.0785 -0.0004 0.0019 0.0009
# 4 -0.0002 0.0015 -0.0004 43.5221 -0.0013 -0.0002
# 5 -0.0010 0.0011 0.0019 -0.0013 48.2092 0.0000
# 6 0.0001 0.0004 0.0009 -0.0002 0.0000 40.1791
#
#
#
# Elastic Compliance Matrix: (Units=1/GPa)
#
#
# Indices 1 2 3 4 5 6 
#
# 1 0.009512 -0.004652 -0.001597 0.000000 0.000000 0.000000
# 2 -0.004652 0.012195 -0.005145 0.000000 0.000000 0.000000
# 3 -0.001597 -0.005145 0.013604 0.000000 0.000000 0.000000
# 4 0.000000 0.000000 0.000000 0.022977 0.000001 0.000000
# 5 0.000000 0.000000 0.000000 0.000001 0.020743 0.000000
# 6 0.000000 0.000000 0.000000 0.000000 0.000000 0.024889
#
#
# Mechanical properties :
#
#
# Convention : Reuss Voigt Hill
#
# Bulk Modulus (GPa) = 79.84251 84.52051 82.18151
# Shear Modulus (GPa) = 38.20327 40.04038 39.12182
#
# Velocity S-wave (km/s) = 3.96292 4.05708 4.01028
# Velocity P-wave (km/s) = 7.33223 7.52938 7.43146
#
# Compressibility (1/GPa) = 0.01252466
#
# Stress axis : x y z
#
# Youngs Moduli (GPa) = 105.13433 82.00248 73.50919
#
# Poissons Ratio (x) = 0.38143 0.11737
# Poissons Ratio (y) = 0.48903 0.37817
# Poissons Ratio (z) = 0.16787 0.42187
#
# Static dielectric constant tensor:
#      x y z
#    x 4.605790 0.000000 0.000010 
#    y 0.000000 4.207430 0.000030 
#    z 0.000010 0.000030 4.713740 
# 
# 
# High freq. dielectric constant tensor:
#      x y z
#    x 1.973750 0.000000 0.000000 
#    y 0.000000 1.962640 0.000000 
#    z 0.000000 0.000000 1.979850 
# 
# From -- ./inp_files/3905.got.cif
#   From: 2010.03.12/outbox.cif.g09.slc.cpg/sg73_2_cif.got.tgz:3905.got - 2010.04.16 15:25:48.
