data_PCOD8296228
_publ_section_title
;
Structure prediction by ZEFSAII (Michael W. Deem and Ramdas Pophale) SiO2 
 PCOD8296228
Probable space group: I B C A 
;
_chemical_formula_sum "Si O2"
_cell_formula_units_Z 72
_cell_length_a 9.099849
_cell_length_b 12.508805
_cell_length_c 25.956589
_cell_angle_alpha 90.000000
_cell_angle_beta 90.000000
_cell_angle_gamma 90.000000
_cell_volume 2954.592756
_symmetry_space_group_name_H-M "I B C A "
_symmetry_group_IT_number 73
_symmetry_cell_setting 'orthorhombic'
loop_
_space_group_symop_operation_xyz
x,y,z
-x,1/2-y,z
x,-y,1/2-z
1/2-x,y,-z
-x,-y,-z
x,1/2+y,-z
-x,y,1/2+z
1/2+x,-y,z
1/2+x,1/2+y,1/2+z
1/2-x,-y,1/2+z
1/2+x,1/2-y,-z
-x,1/2+y,1/2-z
1/2-x,1/2-y,1/2-z
1/2+x,y,1/2-z
1/2-x,1/2+y,z
x,1/2-y,1/2+z
loop_
_atom_site_type_symbol
_atom_site_label
_atom_site_fract_x
_atom_site_fract_y
_atom_site_fract_z
Si Si1 0.000000 0.750000 0.743474
Si Si2 0.449762 0.632727 0.546338
Si Si3 0.351485 0.575625 0.202695
Si Si4 0.125229 0.574217 0.565410
Si Si5 0.935389 0.078710 0.340076
O O1 0.873745 0.802197 0.779328
O O2 0.934245 0.657180 0.708764
O O3 0.500000 0.750000 0.565891
O O4 0.300721 0.590270 0.575135
O O5 0.419521 0.639191 0.485488
O O6 0.582457 0.550652 0.558204
O O7 0.299347 0.500000 0.250000
O O8 0.239881 0.565369 0.153483
O O9 0.502645 0.535239 0.177770
O O10 0.026877 0.624673 0.611625
#
# Coordination Sequence:
#
# PCOD8296228 Si02
#       5
#     8  16  16  16  16
#     4  10  22  38  64  98 132 184 224 272 350 402
#     4  10  23  45  72  98 147 186 227 293 369 426
#     4  10  21  40  64  92 135 180 221 282 346 403
#     4  10  23  43  68 107 136 183 236 292 349 425
#     4  11  22  40  65  95 136 172 232 284 330 421
#
# _framework density 24.368842000000001
#
# number of rings (size 3 to 8) (size 9 to 14) (size 15 to 20)
#    0.000    1.778    0.000    4.000    1.556    8.889 
#    6.000    0.000    4.889    0.000    0.000    0.000 
#    0.000    0.000    0.000    0.000    0.000    0.000 
#
# Total GULP energy -446192.661010 kJ/mol
# GULP energy per Si atom -12394.240584 kJ/mol
# Density = 2.431338 g / cm^3
# Si number density = 24.368842 Si / 1000 Ang^3
#
#
#
# Elastic Constant Matrix: (Units=GPa)
#
#
# Indices 1 2 3 4 5 6 
#
# 1 168.2696 79.3857 50.7933 0.0000 0.0000 0.0000
# 2 79.3857 138.3715 22.9881 0.0000 0.0000 0.0000
# 3 50.7933 22.9881 101.6133 0.0000 0.0000 0.0000
# 4 0.0000 0.0000 0.0000 5.9065 0.0000 0.0000
# 5 0.0000 0.0000 0.0000 0.0000 47.2073 0.0000
# 6 0.0000 0.0000 0.0000 0.0000 0.0000 30.2669
#
#
#
# Elastic Compliance Matrix: (Units=1/GPa)
#
#
# Indices 1 2 3 4 5 6 
#
# 1 0.009237 -0.004709 -0.003552 0.000000 0.000000 0.000000
# 2 -0.004709 0.009910 0.000112 0.000000 0.000000 0.000000
# 3 -0.003552 0.000112 0.011591 0.000000 0.000000 0.000000
# 4 0.000000 0.000000 0.000000 0.169305 0.000000 0.000000
# 5 0.000000 0.000000 0.000000 0.000000 0.021183 0.000000
# 6 0.000000 0.000000 0.000000 0.000000 0.000000 0.033039
#
#
# Mechanical properties :
#
#
# Convention : Reuss Voigt Hill
#
# Bulk Modulus (GPa) = 69.25126 79.39875 74.32501
# Shear Modulus (GPa) = 18.15695 33.68196 25.91945
#
# Velocity S-wave (km/s) = 2.73259 3.72179 3.26487
# Velocity P-wave (km/s) = 6.19966 7.14995 6.69169
#
# Compressibility (1/GPa) = 0.01444017
#
# Stress axis : x y z
#
# Youngs Moduli (GPa) = 108.26472 100.90813 86.27155
#
# Poissons Ratio (x) = 0.47519 0.30641
# Poissons Ratio (y) = 0.50983 -0.00966
# Poissons Ratio (z) = 0.38453 -0.01130
#
# Static dielectric constant tensor:
#      x y z
#    x 4.481560 0.000000 0.000000 
#    y 0.000000 4.154050 0.000000 
#    z 0.000000 0.000000 4.496200 
# 
# 
# High freq. dielectric constant tensor:
#      x y z
#    x 1.974820 0.000000 0.000000 
#    y 0.000000 1.954410 0.000000 
#    z 0.000000 0.000000 1.968040 
# 
# From -- ./inp_files/33503.got.cif
#   From: 2010.03.12/outbox.cif.g09.slc.cpg/sg73_17_cif.got.tgz:33503.got - 2010.04.16 15:25:48.
