data_PCOD8296891
_publ_section_title
;
Structure prediction by ZEFSAII (Michael W. Deem and Ramdas Pophale) SiO2 
 PCOD8296891
Probable space group: I B C A 
;
_chemical_formula_sum "Si O2"
_cell_formula_units_Z 96
_cell_length_a 23.169117
_cell_length_b 18.423557
_cell_length_c 11.065852
_cell_angle_alpha 90.000000
_cell_angle_beta 90.000000
_cell_angle_gamma 90.000000
_cell_volume 4723.542448
_symmetry_space_group_name_H-M "I B C A "
_symmetry_group_IT_number 73
_symmetry_cell_setting 'orthorhombic'
loop_
_space_group_symop_operation_xyz
x,y,z
-x,1/2-y,z
x,-y,1/2-z
1/2-x,y,-z
-x,-y,-z
x,1/2+y,-z
-x,y,1/2+z
1/2+x,-y,z
1/2+x,1/2+y,1/2+z
1/2-x,-y,1/2+z
1/2+x,1/2-y,-z
-x,1/2+y,1/2-z
1/2-x,1/2-y,1/2-z
1/2+x,y,1/2-z
1/2-x,1/2+y,z
x,1/2-y,1/2+z
loop_
_atom_site_type_symbol
_atom_site_label
_atom_site_fract_x
_atom_site_fract_y
_atom_site_fract_z
Si Si1 0.300949 0.161989 0.778348
Si Si2 0.382670 0.924840 0.321622
Si Si3 0.373448 0.609427 0.415123
Si Si4 0.182545 0.322124 0.153183
Si Si5 0.508806 0.043918 0.124678
Si Si6 0.809920 0.532734 0.455305
O O1 0.359150 0.156797 0.701337
O O2 0.311239 0.235277 0.853431
O O3 0.247777 0.154936 0.684308
O O4 0.291207 0.095266 0.865328
O O5 0.360568 0.853026 0.254363
O O6 0.450161 0.912889 0.347482
O O7 0.347609 0.928909 0.443653
O O8 0.372235 0.000000 0.250000
O O9 0.344115 0.646789 0.530499
O O10 0.442520 0.602167 0.414150
O O11 0.347745 0.529245 0.393847
O O12 0.525020 0.000000 0.250000
O O13 0.500000 0.000000 0.000000
O O14 0.750000 0.497142 0.500000
#
# Coordination Sequence:
#
# PCOD8296891 Si02
#       6
#    16  16  16  16  16  16
#     4  11  26  39  66  95 135 171 216 271 337 405
#     4  11  22  41  67  94 129 176 221 268 332 400
#     4  12  24  41  67  99 128 166 225 278 327 397
#     4  11  24  45  62  92 136 181 209 267 349 406
#     4  11  22  42  68  99 134 175 222 285 341 394
#     4  12  22  37  67  97 129 162 218 278 325 390
#
# _framework density 20.323729
#
# number of rings (size 3 to 8) (size 9 to 14) (size 15 to 20)
#    0.000    0.667    5.000    4.000    2.333    0.000 
#    0.000    0.833    0.000    0.000    0.000    0.000 
#    0.000    0.000    0.000    0.000    0.000    0.000 
#
# Total GULP energy -594784.251472 kJ/mol
# GULP energy per Si atom -12391.338572 kJ/mol
# Density = 2.027747 g / cm^3
# Si number density = 20.323729 Si / 1000 Ang^3
#
#
#
# Elastic Constant Matrix: (Units=GPa)
#
#
# Indices 1 2 3 4 5 6 
#
# 1 125.2778 17.3343 22.9338 0.0000 0.0000 0.0000
# 2 17.3343 51.8346 29.2196 0.0000 0.0000 0.0000
# 3 22.9338 29.2196 89.3628 0.0000 0.0000 0.0000
# 4 0.0000 0.0000 0.0000 28.7955 0.0000 0.0000
# 5 0.0000 0.0000 0.0000 0.0000 28.6464 0.0000
# 6 0.0000 0.0000 0.0000 0.0000 0.0000 20.1881
#
#
#
# Elastic Compliance Matrix: (Units=1/GPa)
#
#
# Indices 1 2 3 4 5 6 
#
# 1 0.008539 -0.001986 -0.001542 0.000000 0.000000 0.000000
# 2 -0.001986 0.024114 -0.007375 0.000000 0.000000 0.000000
# 3 -0.001542 -0.007375 0.013997 0.000000 0.000000 0.000000
# 4 0.000000 0.000000 0.000000 0.034728 0.000000 0.000000
# 5 0.000000 0.000000 0.000000 0.000000 0.034908 0.000000
# 6 0.000000 0.000000 0.000000 0.000000 0.000000 0.049534
#
#
# Mechanical properties :
#
#
# Convention : Reuss Voigt Hill
#
# Bulk Modulus (GPa) = 40.25117 45.05004 42.65060
# Shear Modulus (GPa) = 25.52211 28.65851 27.09031
#
# Velocity S-wave (km/s) = 3.54754 3.75920 3.65491
# Velocity P-wave (km/s) = 6.05211 6.40754 6.23236
#
# Compressibility (1/GPa) = 0.02484400
#
# Stress axis : x y z
#
# Youngs Moduli (GPa) = 117.10415 41.47020 71.44146
#
# Poissons Ratio (x) = 0.08238 0.11016
# Poissons Ratio (y) = 0.23262 0.52687
# Poissons Ratio (z) = 0.18057 0.30584
#
# Static dielectric constant tensor:
#      x y z
#    x 3.916850 0.000000 0.000000 
#    y 0.000000 3.667810 0.000000 
#    z 0.000000 0.000000 3.736510 
# 
# 
# High freq. dielectric constant tensor:
#      x y z
#    x 1.806230 0.000000 0.000000 
#    y 0.000000 1.773220 0.000000 
#    z 0.000000 0.000000 1.810030 
# 
# From -- ./inp_files/13621.got.cif
#   From: 2010.03.12/outbox.cif.g09.slc.cpg/sg73_7_cif.got.tgz:13621.got - 2010.04.16 15:25:48.
