data_PCOD8296440
_publ_section_title
;
Structure prediction by ZEFSAII (Michael W. Deem and Ramdas Pophale) SiO2 
 PCOD8296440
Probable space group: I B C A 
;
_chemical_formula_sum "Si O2"
_cell_formula_units_Z 104
_cell_length_a 9.233106
_cell_length_b 23.338311
_cell_length_c 24.261056
_cell_angle_alpha 90.000000
_cell_angle_beta 90.000000
_cell_angle_gamma 90.000000
_cell_volume 5227.896062
_symmetry_space_group_name_H-M "I B C A "
_symmetry_group_IT_number 73
_symmetry_cell_setting 'orthorhombic'
loop_
_space_group_symop_operation_xyz
x,y,z
-x,1/2-y,z
x,-y,1/2-z
1/2-x,y,-z
-x,-y,-z
x,1/2+y,-z
-x,y,1/2+z
1/2+x,-y,z
1/2+x,1/2+y,1/2+z
1/2-x,-y,1/2+z
1/2+x,1/2-y,-z
-x,1/2+y,1/2-z
1/2-x,1/2-y,1/2-z
1/2+x,y,1/2-z
1/2-x,1/2+y,z
x,1/2-y,1/2+z
loop_
_atom_site_type_symbol
_atom_site_label
_atom_site_fract_x
_atom_site_fract_y
_atom_site_fract_z
Si Si1 0.157720 0.273154 0.910522
Si Si2 0.750000 0.854941 0.500000
Si Si3 0.202342 0.668227 0.879377
Si Si4 0.798079 0.950313 0.937461
Si Si5 0.379892 0.059067 0.414610
Si Si6 0.867810 0.290722 0.774341
Si Si7 0.115825 0.841509 0.839472
O O1 0.145583 0.314600 0.963218
O O2 0.253294 0.216700 0.923910
O O3 0.243378 0.305484 0.860309
O O4 0.000000 0.250000 0.892458
O O5 0.652720 0.894275 0.538338
O O6 0.239599 0.606203 0.903298
O O7 0.305780 0.674824 0.826203
O O8 0.033507 0.679586 0.867497
O O9 0.965539 0.965377 0.931521
O O10 0.724491 0.005452 0.910746
O O11 0.750000 0.942004 0.000000
O O12 0.368433 0.091383 0.355756
O O13 0.750000 0.250000 0.750000
O O14 0.906180 0.336508 0.726204
O O15 0.000000 0.250000 0.791887
#
# Coordination Sequence:
#
# PCOD8296440 Si02
#       7
#    16   8  16  16  16  16  16
#     4  11  23  35  58  90 123 159 208 248 308 379
#     4  10  24  38  58  84 128 160 202 258 318 360
#     4  11  24  38  61  95 125 165 207 252 315 378
#     4  11  24  41  66  87 123 163 210 261 309 376
#     4  10  23  43  63  87 116 166 208 258 312 369
#     4  12  21  39  64  91 128 166 201 247 313 380
#     4  10  22  42  62  86 129 162 202 259 316 366
#
# _framework density 19.893279
#
# number of rings (size 3 to 8) (size 9 to 14) (size 15 to 20)
#    0.000    1.231    3.846    1.385    3.231    3.692 
#    0.000    0.769    0.000    3.692    0.000    0.000 
#    0.000    0.000    0.000    0.000    0.000    0.000 
#
# Total GULP energy -644484.844002 kJ/mol
# GULP energy per Si atom -12393.939308 kJ/mol
# Density = 1.984800 g / cm^3
# Si number density = 19.893279 Si / 1000 Ang^3
#
#
#
# Elastic Constant Matrix: (Units=GPa)
#
#
# Indices 1 2 3 4 5 6 
#
# 1 136.0024 65.2768 22.3684 0.0000 0.0000 0.0000
# 2 65.2768 135.0028 49.7913 0.0000 0.0000 0.0000
# 3 22.3684 49.7913 70.2882 0.0000 0.0000 0.0000
# 4 0.0000 0.0000 0.0000 58.0388 0.0000 0.0000
# 5 0.0000 0.0000 0.0000 0.0000 21.0337 0.0000
# 6 0.0000 0.0000 0.0000 0.0000 0.0000 23.9261
#
#
#
# Elastic Compliance Matrix: (Units=1/GPa)
#
#
# Indices 1 2 3 4 5 6 
#
# 1 0.009580 -0.004748 0.000315 0.000000 0.000000 0.000000
# 2 -0.004748 0.012380 -0.007259 0.000000 0.000000 0.000000
# 3 0.000315 -0.007259 0.019269 0.000000 0.000000 0.000000
# 4 0.000000 0.000000 0.000000 0.017230 0.000000 0.000000
# 5 0.000000 0.000000 0.000000 0.000000 0.047543 0.000000
# 6 0.000000 0.000000 0.000000 0.000000 0.000000 0.041795
#
#
# Mechanical properties :
#
#
# Convention : Reuss Voigt Hill
#
# Bulk Modulus (GPa) = 56.03900 68.46292 62.25096
# Shear Modulus (GPa) = 28.22774 34.19017 31.20896
#
# Velocity S-wave (km/s) = 3.77099 4.15019 3.96513
# Velocity P-wave (km/s) = 6.86961 7.57993 7.23349
#
# Compressibility (1/GPa) = 0.01784472
#
# Stress axis : x y z
#
# Youngs Moduli (GPa) = 104.38352 80.77273 51.89648
#
# Poissons Ratio (x) = 0.38353 -0.01634
# Poissons Ratio (y) = 0.49564 0.37672
# Poissons Ratio (z) = -0.03287 0.58633
#
# Static dielectric constant tensor:
#      x y z
#    x 3.727480 0.000000 0.000000 
#    y 0.000000 3.779340 0.000000 
#    z 0.000000 0.000000 5.725140 
# 
# 
# High freq. dielectric constant tensor:
#      x y z
#    x 1.790290 0.000000 0.000000 
#    y 0.000000 1.773930 0.000000 
#    z 0.000000 0.000000 1.770480 
# 
# From -- ./inp_files/6692.got.cif
#   From: 2010.03.12/outbox.cif.g09.slc.cpg/sg73_4_cif.got.tgz:6692.got - 2010.04.16 15:25:48.
