data_PCOD8296895
_publ_section_title
;
Structure prediction by ZEFSAII (Michael W. Deem and Ramdas Pophale) SiO2 
 PCOD8296895
Probable space group: I B C A 
;
_chemical_formula_sum "Si O2"
_cell_formula_units_Z 72
_cell_length_a 12.963482
_cell_length_b 13.112856
_cell_length_c 19.364473
_cell_angle_alpha 90.000000
_cell_angle_beta 90.000000
_cell_angle_gamma 90.000000
_cell_volume 3291.733317
_symmetry_space_group_name_H-M "I B C A "
_symmetry_group_IT_number 73
_symmetry_cell_setting 'orthorhombic'
loop_
_space_group_symop_operation_xyz
x,y,z
-x,1/2-y,z
x,-y,1/2-z
1/2-x,y,-z
-x,-y,-z
x,1/2+y,-z
-x,y,1/2+z
1/2+x,-y,z
1/2+x,1/2+y,1/2+z
1/2-x,-y,1/2+z
1/2+x,1/2-y,-z
-x,1/2+y,1/2-z
1/2-x,1/2-y,1/2-z
1/2+x,y,1/2-z
1/2-x,1/2+y,z
x,1/2-y,1/2+z
loop_
_atom_site_type_symbol
_atom_site_label
_atom_site_fract_x
_atom_site_fract_y
_atom_site_fract_z
Si Si1 0.415157 0.102922 0.718817
Si Si2 0.888028 0.750464 0.848314
Si Si3 0.804716 0.963245 0.323999
Si Si4 0.000000 0.250000 0.888077
Si Si5 0.796453 0.647021 0.572960
O O1 0.388236 0.186228 0.777017
O O2 0.314018 0.068737 0.677674
O O3 0.487301 0.151522 0.660872
O O4 0.466989 0.000000 0.750000
O O5 0.877286 0.631658 0.835965
O O6 0.794650 0.787902 0.893967
O O7 0.000000 0.750000 0.885414
O O8 0.841333 0.000000 0.250000
O O9 0.822401 0.047046 0.383203
O O10 0.101401 0.220174 0.933440
O O11 0.750000 0.611858 0.500000
#
# Coordination Sequence:
#
# PCOD8296895 Si02
#       5
#    16  16  16   8  16
#     4  11  22  41  75 112 141 185 243 307 364 418
#     4  12  25  43  73 106 146 188 240 304 365 422
#     4  11  23  45  73 104 149 186 246 303 354 431
#     4  12  26  46  76 104 148 192 244 304 364 428
#     4  12  29  49  70 107 147 198 240 293 367 439
#
# _framework density 21.872976000000001
#
# number of rings (size 3 to 8) (size 9 to 14) (size 15 to 20)
#    0.000    0.444    7.778    2.000    4.667    0.889 
#    0.000    2.222    0.000    0.000    0.000    0.000 
#    0.000    0.000    0.000    0.000    0.000    0.000 
#
# Total GULP energy -446214.266489 kJ/mol
# GULP energy per Si atom -12394.840736 kJ/mol
# Density = 2.182319 g / cm^3
# Si number density = 21.872976 Si / 1000 Ang^3
#
#
#
# Elastic Constant Matrix: (Units=GPa)
#
#
# Indices 1 2 3 4 5 6 
#
# 1 124.0452 55.9167 33.8133 0.0000 0.0000 0.0000
# 2 55.9167 164.6587 56.5845 0.0000 0.0000 0.0000
# 3 33.8133 56.5845 116.3610 0.0000 0.0000 0.0000
# 4 0.0000 0.0000 0.0000 49.3083 0.0000 0.0000
# 5 0.0000 0.0000 0.0000 0.0000 8.0977 0.0000
# 6 0.0000 0.0000 0.0000 0.0000 0.0000 42.1682
#
#
#
# Elastic Compliance Matrix: (Units=1/GPa)
#
#
# Indices 1 2 3 4 5 6 
#
# 1 0.009722 -0.002798 -0.001464 0.000000 0.000000 0.000000
# 2 -0.002798 0.008097 -0.003124 0.000000 0.000000 0.000000
# 3 -0.001464 -0.003124 0.010539 0.000000 0.000000 0.000000
# 4 0.000000 0.000000 0.000000 0.020281 0.000000 0.000000
# 5 0.000000 0.000000 0.000000 0.000000 0.123491 0.000000
# 6 0.000000 0.000000 0.000000 0.000000 0.000000 0.023715
#
#
# Mechanical properties :
#
#
# Convention : Reuss Voigt Hill
#
# Bulk Modulus (GPa) = 73.61605 77.52154 75.56879
# Shear Modulus (GPa) = 23.23995 37.16488 30.20242
#
# Velocity S-wave (km/s) = 3.26313 4.12651 3.71996
# Velocity P-wave (km/s) = 6.92290 7.63039 7.28524
#
# Compressibility (1/GPa) = 0.01358399
#
# Stress axis : x y z
#
# Youngs Moduli (GPa) = 102.85762 123.50052 94.88756
#
# Poissons Ratio (x) = 0.34560 0.13895
# Poissons Ratio (y) = 0.28783 0.29646
# Poissons Ratio (z) = 0.15062 0.38586
#
# Static dielectric constant tensor:
#      x y z
#    x 4.243880 0.000000 0.000000 
#    y 0.000000 4.325760 0.000000 
#    z 0.000000 0.000000 3.814820 
# 
# 
# High freq. dielectric constant tensor:
#      x y z
#    x 1.888530 0.000000 0.000000 
#    y 0.000000 1.877630 0.000000 
#    z 0.000000 0.000000 1.823110 
# 
# From -- ./inp_files/25861.got.cif
#   From: 2010.03.12/outbox.cif.g09.slc.cpg/sg73_13_cif.got.tgz:25861.got - 2010.04.16 15:25:48.
