data_PCOD8296635
_publ_section_title
;
Structure prediction by ZEFSAII (Michael W. Deem and Ramdas Pophale) SiO2 
 PCOD8296635
Probable space group: I B C A 
;
_chemical_formula_sum "Si O2"
_cell_formula_units_Z 120
_cell_length_a 9.127012
_cell_length_b 23.390328
_cell_length_c 24.780254
_cell_angle_alpha 90.000000
_cell_angle_beta 90.000000
_cell_angle_gamma 90.000000
_cell_volume 5290.182896
_symmetry_space_group_name_H-M "I B C A "
_symmetry_group_IT_number 73
_symmetry_cell_setting 'orthorhombic'
loop_
_space_group_symop_operation_xyz
x,y,z
-x,1/2-y,z
x,-y,1/2-z
1/2-x,y,-z
-x,-y,-z
x,1/2+y,-z
-x,y,1/2+z
1/2+x,-y,z
1/2+x,1/2+y,1/2+z
1/2-x,-y,1/2+z
1/2+x,1/2-y,-z
-x,1/2+y,1/2-z
1/2-x,1/2-y,1/2-z
1/2+x,y,1/2-z
1/2-x,1/2+y,z
x,1/2-y,1/2+z
loop_
_atom_site_type_symbol
_atom_site_label
_atom_site_fract_x
_atom_site_fract_y
_atom_site_fract_z
Si Si1 0.646268 0.596242 0.816049
Si Si2 0.183822 0.889207 0.711444
Si Si3 0.856601 0.288101 0.164129
Si Si4 0.216750 0.304838 0.895299
Si Si5 0.993689 0.536462 0.445822
Si Si6 0.500000 0.250000 0.525658
Si Si7 0.246544 0.010571 0.872352
Si Si8 0.517900 0.665961 0.558949
O O1 0.774452 0.591558 0.771468
O O2 0.492487 0.618193 0.790763
O O3 0.691232 0.635576 0.865932
O O4 0.645435 0.532967 0.841040
O O5 0.280244 0.830813 0.706522
O O6 0.218039 0.936604 0.667021
O O7 0.727024 0.244260 0.150034
O O8 0.888486 0.329899 0.113521
O O9 0.000000 0.250000 0.183631
O O10 0.364610 0.303335 0.929309
O O11 0.091400 0.292121 0.937282
O O12 0.828632 0.533141 0.424968
O O13 0.017817 0.602375 0.461047
O O14 0.000000 0.500000 0.500000
O O15 0.099926 0.517693 0.396728
O O16 0.409751 0.295707 0.488638
#
# Coordination Sequence:
#
# PCOD8296635 Si02
#       8
#    16  16  16  16  16   8  16  16
#     4  12  29  47  78 110 146 197 250 319 385 443
#     4  12  28  48  77 110 143 199 254 316 382 452
#     4  10  23  46  71 103 143 192 244 306 368 434
#     4  11  24  45  68 102 148 184 241 311 361 444
#     4  12  27  46  73 112 150 198 240 308 377 449
#     4  12  24  40  70 104 138 198 244 284 368 446
#     4  12  26  49  75 108 153 193 256 311 373 461
#     4  11  23  42  72 100 143 197 241 299 361 448
#
# _framework density 22.683526000000001
#
# number of rings (size 3 to 8) (size 9 to 14) (size 15 to 20)
#    0.000    0.533    6.000    2.000    7.467    3.733 
#    3.600    0.000    0.000    0.000    0.000    0.000 
#    0.000    0.000    0.000    0.000    0.000    0.000 
#
# Total GULP energy -743625.298845 kJ/mol
# GULP energy per Si atom -12393.754981 kJ/mol
# Density = 2.263190 g / cm^3
# Si number density = 22.683526 Si / 1000 Ang^3
#
#
#
# Elastic Constant Matrix: (Units=GPa)
#
#
# Indices 1 2 3 4 5 6 
#
# 1 70.5781 6.9724 14.8963 0.0000 0.0000 0.0000
# 2 6.9724 115.9498 23.8845 0.0000 0.0000 0.0000
# 3 14.8963 23.8845 83.2391 0.0000 0.0000 0.0000
# 4 0.0000 0.0000 0.0000 20.4436 0.0000 0.0000
# 5 0.0000 0.0000 0.0000 0.0000 47.3335 0.0000
# 6 0.0000 0.0000 0.0000 0.0000 0.0000 27.8353
#
#
#
# Elastic Compliance Matrix: (Units=1/GPa)
#
#
# Indices 1 2 3 4 5 6 
#
# 1 0.014739 -0.000365 -0.002533 0.000000 0.000000 0.000000
# 2 -0.000365 0.009175 -0.002567 0.000000 0.000000 0.000000
# 3 -0.002533 -0.002567 0.013204 0.000000 0.000000 0.000000
# 4 0.000000 0.000000 0.000000 0.048915 0.000000 0.000000
# 5 0.000000 0.000000 0.000000 0.000000 0.021127 0.000000
# 6 0.000000 0.000000 0.000000 0.000000 0.000000 0.035926
#
#
# Mechanical properties :
#
#
# Convention : Reuss Voigt Hill
#
# Bulk Modulus (GPa) = 38.18554 40.14148 39.16351
# Shear Modulus (GPa) = 30.72291 34.05674 32.38982
#
# Velocity S-wave (km/s) = 3.68423 3.87898 3.78286
# Velocity P-wave (km/s) = 5.91343 6.14790 6.03180
#
# Compressibility (1/GPa) = 0.02618792
#
# Stress axis : x y z
#
# Youngs Moduli (GPa) = 67.84551 108.98923 75.73682
#
# Poissons Ratio (x) = 0.03973 0.19185
# Poissons Ratio (y) = 0.02473 0.19445
# Poissons Ratio (z) = 0.17186 0.27983
#
# Static dielectric constant tensor:
#      x y z
#    x 4.201830 0.000000 0.000000 
#    y 0.000000 3.987420 0.000000 
#    z 0.000000 0.000000 4.041170 
# 
# 
# High freq. dielectric constant tensor:
#      x y z
#    x 1.888300 0.000000 0.000000 
#    y 0.000000 1.910960 0.000000 
#    z 0.000000 0.000000 1.895030 
# 
# From -- ./inp_files/31409.got.cif
#   From: 2010.03.12/outbox.cif.g09.slc.cpg/sg73_16_cif.got.tgz:31409.got - 2010.04.16 15:25:48.
