data_PCOD8296641
_publ_section_title
;
Structure prediction by ZEFSAII (Michael W. Deem and Ramdas Pophale) SiO2 
 PCOD8296641
Probable space group: I B C A 
;
_chemical_formula_sum "Si O2"
_cell_formula_units_Z 120
_cell_length_a 21.901490
_cell_length_b 9.045387
_cell_length_c 27.924460
_cell_angle_alpha 90.000000
_cell_angle_beta 90.000000
_cell_angle_gamma 90.000000
_cell_volume 5532.043645
_symmetry_space_group_name_H-M "I B C A "
_symmetry_group_IT_number 73
_symmetry_cell_setting 'orthorhombic'
loop_
_space_group_symop_operation_xyz
x,y,z
-x,1/2-y,z
x,-y,1/2-z
1/2-x,y,-z
-x,-y,-z
x,1/2+y,-z
-x,y,1/2+z
1/2+x,-y,z
1/2+x,1/2+y,1/2+z
1/2-x,-y,1/2+z
1/2+x,1/2-y,-z
-x,1/2+y,1/2-z
1/2-x,1/2-y,1/2-z
1/2+x,y,1/2-z
1/2-x,1/2+y,z
x,1/2-y,1/2+z
loop_
_atom_site_type_symbol
_atom_site_label
_atom_site_fract_x
_atom_site_fract_y
_atom_site_fract_z
Si Si1 0.352755 0.613275 0.352764
Si Si2 0.556912 0.531211 0.031889
Si Si3 0.381507 0.221143 0.547156
Si Si4 0.563614 0.170033 0.233849
Si Si5 0.718204 0.828876 0.614700
Si Si6 0.234477 0.896978 0.551533
Si Si7 0.614543 0.795218 0.168343
Si Si8 0.500000 0.750000 0.106800
O O1 0.389303 0.630822 0.403244
O O2 0.392606 0.694389 0.311977
O O3 0.283373 0.675705 0.357426
O O4 0.346753 0.445064 0.335956
O O5 0.581060 0.373458 0.049380
O O6 0.535195 0.626392 0.076639
O O7 0.500000 0.500000 0.000000
O O8 0.604695 0.620300 0.998968
O O9 0.310837 0.260310 0.542820
O O10 0.500000 0.250000 0.222259
O O11 0.597761 0.250095 0.277750
O O12 0.552280 0.000000 0.250000
O O13 0.710643 0.681693 0.580973
O O14 0.660138 0.832442 0.649960
O O15 0.706664 0.973271 0.583067
O O16 0.250000 0.965044 0.500000
O O17 0.551879 0.822279 0.139484
#
# Coordination Sequence:
#
# PCOD8296641 Si02
#       8
#    16  16  16  16  16  16  16   8
#     4  10  24  45  71  96 139 179 223 295 348 409
#     4  12  24  41  61  93 133 183 229 275 335 409
#     4  11  26  41  62  96 134 177 231 278 341 404
#     4  10  23  47  73 105 134 178 227 283 357 417
#     4  11  23  44  67  98 137 180 233 278 350 408
#     4  11  25  39  64  95 132 183 227 281 335 404
#     4  11  23  44  71  99 138 175 232 286 346 417
#     4  12  24  38  68  94 138 184 222 288 338 406
#
# _framework density 21.691803
#
# number of rings (size 3 to 8) (size 9 to 14) (size 15 to 20)
#    0.000    1.067    3.333    2.000    7.467    3.733 
#    4.800    0.000    0.000    0.000    0.000    0.000 
#    0.000    0.000    0.000    0.000    0.000    0.000 
#
# Total GULP energy -743821.762206 kJ/mol
# GULP energy per Si atom -12397.029370 kJ/mol
# Density = 2.164243 g / cm^3
# Si number density = 21.691803 Si / 1000 Ang^3
#
#
#
# Elastic Constant Matrix: (Units=GPa)
#
#
# Indices 1 2 3 4 5 6 
#
# 1 111.8785 12.8692 56.6782 0.0000 0.0000 0.0000
# 2 12.8692 54.1901 18.0580 0.0000 0.0000 0.0000
# 3 56.6782 18.0580 134.0655 0.0000 0.0000 0.0000
# 4 0.0000 0.0000 0.0000 33.2802 0.0000 0.0000
# 5 0.0000 0.0000 0.0000 0.0000 35.4299 0.0000
# 6 0.0000 0.0000 0.0000 0.0000 0.0000 41.1533
#
#
#
# Elastic Compliance Matrix: (Units=1/GPa)
#
#
# Indices 1 2 3 4 5 6 
#
# 1 0.011443 -0.001157 -0.004682 0.000000 0.000000 0.000000
# 2 -0.001157 0.019438 -0.002129 0.000000 0.000000 0.000000
# 3 -0.004682 -0.002129 0.009725 0.000000 0.000000 0.000000
# 4 0.000000 0.000000 0.000000 0.030048 0.000000 0.000000
# 5 0.000000 0.000000 0.000000 0.000000 0.028225 0.000000
# 6 0.000000 0.000000 0.000000 0.000000 0.000000 0.024299
#
#
# Mechanical properties :
#
#
# Convention : Reuss Voigt Hill
#
# Bulk Modulus (GPa) = 40.53532 52.81611 46.67571
# Shear Modulus (GPa) = 33.93558 36.14126 35.03842
#
# Velocity S-wave (km/s) = 3.95959 4.08625 4.02342
# Velocity P-wave (km/s) = 6.29540 6.83114 6.56873
#
# Compressibility (1/GPa) = 0.02466985
#
# Stress axis : x y z
#
# Youngs Moduli (GPa) = 87.38744 51.44609 102.82619
#
# Poissons Ratio (x) = 0.05954 0.48142
# Poissons Ratio (y) = 0.10114 0.21890
# Poissons Ratio (z) = 0.40914 0.10952
#
# Static dielectric constant tensor:
#      x y z
#    x 4.014260 0.000000 0.000000 
#    y 0.000000 3.819550 0.000000 
#    z 0.000000 0.000000 3.955610 
# 
# 
# High freq. dielectric constant tensor:
#      x y z
#    x 1.858330 0.000000 0.000000 
#    y 0.000000 1.851480 0.000000 
#    z 0.000000 0.000000 1.854800 
# 
# From -- ./inp_files/7365.got.cif
#   From: 2010.03.12/outbox.cif.g09.slc.cpg/sg73_4_cif.got.tgz:7365.got - 2010.04.16 15:25:48.
