data_PCOD8296724
_publ_section_title
;
Structure prediction by ZEFSAII (Michael W. Deem and Ramdas Pophale) SiO2 
 PCOD8296724
Probable space group: I B C A 
;
_chemical_formula_sum "Si O2"
_cell_formula_units_Z 112
_cell_length_a 13.780990
_cell_length_b 25.837471
_cell_length_c 14.360920
_cell_angle_alpha 90.000000
_cell_angle_beta 90.000000
_cell_angle_gamma 90.000000
_cell_volume 5113.434328
_symmetry_space_group_name_H-M "I B C A "
_symmetry_group_IT_number 73
_symmetry_cell_setting 'orthorhombic'
loop_
_space_group_symop_operation_xyz
x,y,z
-x,1/2-y,z
x,-y,1/2-z
1/2-x,y,-z
-x,-y,-z
x,1/2+y,-z
-x,y,1/2+z
1/2+x,-y,z
1/2+x,1/2+y,1/2+z
1/2-x,-y,1/2+z
1/2+x,1/2-y,-z
-x,1/2+y,1/2-z
1/2-x,1/2-y,1/2-z
1/2+x,y,1/2-z
1/2-x,1/2+y,z
x,1/2-y,1/2+z
loop_
_atom_site_type_symbol
_atom_site_label
_atom_site_fract_x
_atom_site_fract_y
_atom_site_fract_z
Si Si1 0.858435 0.762828 0.226731
Si Si2 0.000000 0.250000 0.614196
Si Si3 0.609395 0.847350 0.336854
Si Si4 0.379258 0.000000 0.750000
Si Si5 0.002325 0.145921 0.014298
Si Si6 0.685895 0.146476 0.586384
Si Si7 0.264263 0.588548 0.740990
Si Si8 0.015153 0.916591 0.804180
O O1 0.750000 0.750000 0.250000
O O2 0.914026 0.775061 0.323154
O O3 0.911857 0.712493 0.185087
O O4 0.859196 0.809317 0.153172
O O5 0.035414 0.296963 0.548838
O O6 0.590079 0.854277 0.446063
O O7 0.722733 0.861953 0.316572
O O8 0.537681 0.881067 0.272176
O O9 0.306223 0.042267 0.706616
O O10 0.453098 0.030425 0.818994
O O11 0.974377 0.109769 0.097846
O O12 0.092093 0.120031 0.959386
O O13 0.750000 0.167941 0.500000
O O14 0.745475 0.104740 0.648993
O O15 0.374543 0.572303 0.725315
#
# Coordination Sequence:
#
# PCOD8296724 Si02
#       8
#    16   8  16   8  16  16  16  16
#     4  12  23  40  64  98 142 192 235 281 336 409
#     4  12  24  42  64 102 142 196 238 278 350 408
#     4  11  23  42  66 100 142 186 236 280 347 416
#     4  10  24  44  82 100 124 182 230 290 364 422
#     4  12  24  41  70 100 143 192 231 287 343 423
#     4  12  23  41  67 103 141 191 236 283 347 411
#     4  11  23  46  73  97 135 181 226 294 361 418
#     4  11  23  48  71 101 140 178 230 294 358 421
#
# _framework density 21.903088
#
# number of rings (size 3 to 8) (size 9 to 14) (size 15 to 20)
#    0.000    0.571    4.286    5.571    0.000    0.571 
#    0.000    2.857   12.571    0.000    0.000    0.000 
#    0.000    0.000    0.000    0.000    0.000    0.000 
#
# Total GULP energy -693999.662601 kJ/mol
# GULP energy per Si atom -12392.851118 kJ/mol
# Density = 2.185324 g / cm^3
# Si number density = 21.903088 Si / 1000 Ang^3
#
#
#
# Elastic Constant Matrix: (Units=GPa)
#
#
# Indices 1 2 3 4 5 6 
#
# 1 124.8725 24.3465 41.5166 0.0000 0.0000 0.0000
# 2 24.3465 95.8438 39.6951 -0.0002 0.0001 0.0000
# 3 41.5166 39.6951 134.3641 -0.0006 0.0000 0.0001
# 4 0.0000 -0.0002 -0.0006 4.9119 -0.0001 0.0000
# 5 0.0000 0.0001 0.0000 -0.0001 39.1564 0.0000
# 6 0.0000 0.0000 0.0001 0.0000 0.0000 37.7781
#
#
#
# Elastic Compliance Matrix: (Units=1/GPa)
#
#
# Indices 1 2 3 4 5 6 
#
# 1 0.009065 -0.001302 -0.002416 0.000000 0.000000 0.000000
# 2 -0.001302 0.012075 -0.003165 0.000000 0.000000 0.000000
# 3 -0.002416 -0.003165 0.009124 0.000001 0.000000 0.000000
# 4 0.000000 0.000000 0.000001 0.203586 0.000000 0.000000
# 5 0.000000 0.000000 0.000000 0.000000 0.025539 0.000000
# 6 0.000000 0.000000 0.000000 0.000000 0.000000 0.026470
#
#
# Mechanical properties :
#
#
# Convention : Reuss Voigt Hill
#
# Bulk Modulus (GPa) = 60.61425 62.91076 61.76250
# Shear Modulus (GPa) = 16.38666 33.00410 24.69538
#
# Velocity S-wave (km/s) = 2.73819 3.88599 3.36145
# Velocity P-wave (km/s) = 6.14254 6.99423 6.58218
#
# Compressibility (1/GPa) = 0.01649777
#
# Stress axis : x y z
#
# Youngs Moduli (GPa) = 110.30926 82.81401 109.59908
#
# Poissons Ratio (x) = 0.10783 0.26484
# Poissons Ratio (y) = 0.14363 0.34689
# Poissons Ratio (z) = 0.26655 0.26211
#
# Static dielectric constant tensor:
#      x y z
#    x 4.168490 0.000000 0.000000 
#    y 0.000000 4.280860 0.000000 
#    z 0.000000 0.000000 4.944550 
# 
# 
# High freq. dielectric constant tensor:
#      x y z
#    x 1.883410 0.000000 0.000000 
#    y 0.000000 1.847510 0.000000 
#    z 0.000000 0.000000 1.850430 
# 
# From -- ./inp_files/17302.got.cif
#   From: 2010.03.12/outbox.cif.g09.slc.cpg/sg73_9_cif.got.tgz:17302.got - 2010.04.16 15:25:48.
