data_PCOD8296864
_publ_section_title
;
Structure prediction by ZEFSAII (Michael W. Deem and Ramdas Pophale) SiO2 
 PCOD8296864
Probable space group: I B C A 
;
_chemical_formula_sum "Si O2"
_cell_formula_units_Z 96
_cell_length_a 13.532487
_cell_length_b 25.805499
_cell_length_c 13.122362
_cell_angle_alpha 90.000000
_cell_angle_beta 90.000000
_cell_angle_gamma 90.000000
_cell_volume 4582.493886
_symmetry_space_group_name_H-M "I B C A "
_symmetry_group_IT_number 73
_symmetry_cell_setting 'orthorhombic'
loop_
_space_group_symop_operation_xyz
x,y,z
-x,1/2-y,z
x,-y,1/2-z
1/2-x,y,-z
-x,-y,-z
x,1/2+y,-z
-x,y,1/2+z
1/2+x,-y,z
1/2+x,1/2+y,1/2+z
1/2-x,-y,1/2+z
1/2+x,1/2-y,-z
-x,1/2+y,1/2-z
1/2-x,1/2-y,1/2-z
1/2+x,y,1/2-z
1/2-x,1/2+y,z
x,1/2-y,1/2+z
loop_
_atom_site_type_symbol
_atom_site_label
_atom_site_fract_x
_atom_site_fract_y
_atom_site_fract_z
Si Si1 0.323409 0.171485 0.257560
Si Si2 0.475949 0.333791 0.343128
Si Si3 0.000000 0.250000 0.001767
Si Si4 0.132886 0.716843 0.670759
Si Si5 0.379733 0.439262 0.397867
Si Si6 0.841474 0.071667 0.369413
Si Si7 0.983851 0.000000 0.250000
O O1 0.406594 0.155341 0.340227
O O2 0.221556 0.174694 0.322127
O O3 0.334735 0.227147 0.207606
O O4 0.323530 0.131020 0.163708
O O5 0.446646 0.294352 0.432427
O O6 0.456875 0.305264 0.236761
O O7 0.409337 0.384337 0.350742
O O8 0.911698 0.221907 0.941550
O O9 0.267003 0.454507 0.370905
O O10 0.392720 0.434699 0.519978
O O11 0.449685 0.482509 0.346454
O O12 0.913315 0.046272 0.286475
#
# Coordination Sequence:
#
# PCOD8296864 Si02
#       7
#    16  16   8  16  16  16   8
#     4  11  21  42  64  91 134 171 217 268 324 390
#     4  12  22  41  61  94 130 175 216 267 330 388
#     4  12  22  38  62  90 140 170 220 270 318 398
#     4  11  23  39  62  94 129 177 215 263 324 387
#     4  11  25  42  70  99 128 174 222 272 344 401
#     4  11  24  44  69  99 130 171 224 275 337 409
#     4  12  24  46  74  92 134 168 220 288 344 396
#
# _framework density 20.949290999999999
#
# number of rings (size 3 to 8) (size 9 to 14) (size 15 to 20)
#    0.000    0.667    6.667    2.000    0.000    0.667 
#    0.000    0.000    0.000    0.000    0.000    0.000 
#    0.000    0.000    0.000    0.000    0.000    0.000 
#
# Total GULP energy -595088.097395 kJ/mol
# GULP energy per Si atom -12397.668696 kJ/mol
# Density = 2.090161 g / cm^3
# Si number density = 20.949291 Si / 1000 Ang^3
#
#
#
# Elastic Constant Matrix: (Units=GPa)
#
#
# Indices 1 2 3 4 5 6 
#
# 1 124.2217 31.6278 51.1088 0.0000 -0.0004 0.0000
# 2 31.6278 79.2352 21.8075 0.0001 -0.0015 0.0000
# 3 51.1088 21.8075 91.7282 -0.0001 -0.0014 -0.0001
# 4 0.0000 0.0001 -0.0001 31.5018 -0.0004 0.0000
# 5 -0.0004 -0.0015 -0.0014 -0.0004 -91.9841 0.0009
# 6 0.0000 0.0000 -0.0001 0.0000 0.0009 17.2047
#
#
#
# Elastic Compliance Matrix: (Units=1/GPa)
#
#
# Indices 1 2 3 4 5 6 
#
# 1 0.011035 -0.002902 -0.005458 0.000000 0.000000 0.000000
# 2 -0.002902 0.014268 -0.001775 0.000000 0.000000 0.000000
# 3 -0.005458 -0.001775 0.014365 0.000000 0.000000 0.000000
# 4 0.000000 0.000000 0.000000 0.031744 0.000000 0.000000
# 5 0.000000 0.000000 0.000000 0.000000 -0.010871 0.000001
# 6 0.000000 0.000000 0.000000 0.000000 0.000001 0.058124
#
#
# Mechanical properties :
#
#
# Convention : Reuss Voigt Hill
#
# Bulk Modulus (GPa) = 51.55623 56.03036 53.79329
# Shear Modulus (GPa) = 34.38772 4.05387 19.22080
#
# Velocity S-wave (km/s) = 4.05591 1.39258 3.03230
# Velocity P-wave (km/s) = 6.82622 5.42121 6.16388
#
# Compressibility (1/GPa) = 0.01939630
#
# Stress axis : x y z
#
# Youngs Moduli (GPa) = 90.62206 70.08848 69.61379
#
# Poissons Ratio (x) = 0.20343 0.37997
# Poissons Ratio (y) = 0.26302 0.12355
# Poissons Ratio (z) = 0.49464 0.12440
#
# Static dielectric constant tensor:
#      x y z
#    x 4.278030 0.000000 0.000000 
#    y 0.000000 3.655860 0.000000 
#    z 0.000000 0.000000 3.726340 
# 
# 
# High freq. dielectric constant tensor:
#      x y z
#    x 1.837800 0.000000 0.000000 
#    y 0.000000 1.808360 0.000000 
#    z 0.000000 0.000000 1.812880 
# 
# From -- ./inp_files/11207.got.cif
#   From: 2010.03.12/outbox.cif.g09.slc.cpg/sg73_6_cif.got.tgz:11207.got - 2010.04.16 15:25:48.
