data_PCOD8296573
_publ_section_title
;
Structure prediction by ZEFSAII (Michael W. Deem and Ramdas Pophale) SiO2 
 PCOD8296573
Probable space group: I B C A 
;
_chemical_formula_sum "Si O2"
_cell_formula_units_Z 88
_cell_length_a 10.977495
_cell_length_b 28.729975
_cell_length_c 13.574861
_cell_angle_alpha 90.000000
_cell_angle_beta 90.000000
_cell_angle_gamma 90.000000
_cell_volume 4281.282517
_symmetry_space_group_name_H-M "I B C A "
_symmetry_group_IT_number 73
_symmetry_cell_setting 'orthorhombic'
loop_
_space_group_symop_operation_xyz
x,y,z
-x,1/2-y,z
x,-y,1/2-z
1/2-x,y,-z
-x,-y,-z
x,1/2+y,-z
-x,y,1/2+z
1/2+x,-y,z
1/2+x,1/2+y,1/2+z
1/2-x,-y,1/2+z
1/2+x,1/2-y,-z
-x,1/2+y,1/2-z
1/2-x,1/2-y,1/2-z
1/2+x,y,1/2-z
1/2-x,1/2+y,z
x,1/2-y,1/2+z
loop_
_atom_site_type_symbol
_atom_site_label
_atom_site_fract_x
_atom_site_fract_y
_atom_site_fract_z
Si Si1 0.126859 0.278231 0.228599
Si Si2 0.220189 0.934811 0.603278
Si Si3 0.378015 0.843822 0.046774
Si Si4 0.969066 0.091682 0.683534
Si Si5 0.589679 0.500000 0.250000
Si Si6 0.541893 0.145312 0.632462
O O1 0.250000 0.250000 0.250000
O O2 0.126039 0.316507 0.314843
O O3 0.000000 0.250000 0.235174
O O4 0.136162 0.299563 0.118736
O O5 0.250000 0.959345 0.500000
O O6 0.333819 0.906354 0.644045
O O7 0.119733 0.895625 0.583673
O O8 0.178370 0.975993 0.672737
O O9 0.463979 0.830724 0.954137
O O10 0.250000 0.859357 0.000000
O O11 0.432866 0.886707 0.108432
O O12 0.004917 0.038065 0.698767
O O13 0.959025 0.121259 0.783810
#
# Coordination Sequence:
#
# PCOD8296573 Si02
#       6
#    16  16  16  16   8  16
#     4  11  26  44  69 101 135 170 216 277 335 393
#     4  11  22  42  67  94 128 173 222 268 323 392
#     4  11  24  42  68  95 128 174 217 265 329 399
#     4  10  23  42  63  95 128 173 215 269 329 378
#     4  10  24  40  60  98 134 168 210 278 326 386
#     4  10  24  42  68  91 131 171 218 264 326 396
#
# _framework density 20.554589
#
# number of rings (size 3 to 8) (size 9 to 14) (size 15 to 20)
#    0.000    1.455    1.818    1.636   12.727    3.636 
#    0.000    0.000    0.000    0.000    0.000    0.000 
#    0.000    0.000    0.000    0.000    0.000    0.000 
#
# Total GULP energy -545559.604159 kJ/mol
# GULP energy per Si atom -12399.081913 kJ/mol
# Density = 2.050781 g / cm^3
# Si number density = 20.554589 Si / 1000 Ang^3
#
#
#
# Elastic Constant Matrix: (Units=GPa)
#
#
# Indices 1 2 3 4 5 6 
#
# 1 100.8980 27.4690 53.6151 -0.0003 0.0000 0.0001
# 2 27.4690 92.8710 44.4141 -0.0002 0.0003 0.0000
# 3 53.6151 44.4141 145.2130 -0.0030 0.0002 0.0010
# 4 -0.0003 -0.0002 -0.0030 28.6423 0.0002 0.0003
# 5 0.0000 0.0003 0.0002 0.0002 36.4067 -0.0001
# 6 0.0001 0.0000 0.0010 0.0003 -0.0001 20.4105
#
#
#
# Elastic Compliance Matrix: (Units=1/GPa)
#
#
# Indices 1 2 3 4 5 6 
#
# 1 0.012570 -0.001755 -0.004104 0.000000 0.000000 0.000000
# 2 -0.001755 0.012858 -0.003285 0.000000 0.000000 0.000000
# 3 -0.004104 -0.003285 0.009406 0.000001 0.000000 0.000000
# 4 0.000000 0.000000 0.000001 0.034913 0.000000 -0.000001
# 5 0.000000 0.000000 0.000000 0.000000 0.027467 0.000000
# 6 0.000000 0.000000 0.000000 -0.000001 0.000000 0.048994
#
#
# Mechanical properties :
#
#
# Convention : Reuss Voigt Hill
#
# Bulk Modulus (GPa) = 60.43738 65.55315 62.99526
# Shear Modulus (GPa) = 29.40976 31.32415 30.36695
#
# Velocity S-wave (km/s) = 3.78671 3.90801 3.84784
# Velocity P-wave (km/s) = 6.97037 7.23359 7.10320
#
# Compressibility (1/GPa) = 0.01654605
#
# Stress axis : x y z
#
# Youngs Moduli (GPa) = 79.55662 77.77556 106.31126
#
# Poissons Ratio (x) = 0.13650 0.43632
# Poissons Ratio (y) = 0.13963 0.34918
# Poissons Ratio (z) = 0.32651 0.25546
#
# Static dielectric constant tensor:
#      x y z
#    x 3.732040 0.000000 0.000000 
#    y 0.000000 3.713640 0.000000 
#    z 0.000000 0.000000 3.994730 
# 
# 
# High freq. dielectric constant tensor:
#      x y z
#    x 1.811960 0.000000 0.000000 
#    y 0.000000 1.797950 0.000000 
#    z 0.000000 0.000000 1.822630 
# 
# From -- ./inp_files/9857.got.cif
#   From: 2010.03.12/outbox.cif.g09.slc.cpg/sg73_5_cif.got.tgz:9857.got - 2010.04.16 15:25:48.
