data_PCOD8296746
_publ_section_title
;
Structure prediction by ZEFSAII (Michael W. Deem and Ramdas Pophale) SiO2 
 PCOD8296746
Probable space group: I B C A 
;
_chemical_formula_sum "Si O2"
_cell_formula_units_Z 96
_cell_length_a 17.885120
_cell_length_b 19.451005
_cell_length_c 11.339313
_cell_angle_alpha 90.000000
_cell_angle_beta 90.000000
_cell_angle_gamma 90.000000
_cell_volume 3944.760558
_symmetry_space_group_name_H-M "I B C A "
_symmetry_group_IT_number 73
_symmetry_cell_setting 'orthorhombic'
loop_
_space_group_symop_operation_xyz
x,y,z
-x,1/2-y,z
x,-y,1/2-z
1/2-x,y,-z
-x,-y,-z
x,1/2+y,-z
-x,y,1/2+z
1/2+x,-y,z
1/2+x,1/2+y,1/2+z
1/2-x,-y,1/2+z
1/2+x,1/2-y,-z
-x,1/2+y,1/2-z
1/2-x,1/2-y,1/2-z
1/2+x,y,1/2-z
1/2-x,1/2+y,z
x,1/2-y,1/2+z
loop_
_atom_site_type_symbol
_atom_site_label
_atom_site_fract_x
_atom_site_fract_y
_atom_site_fract_z
Si Si1 0.177245 0.541725 0.064871
Si Si2 0.958057 0.951474 0.351429
Si Si3 0.361965 0.216674 0.685730
Si Si4 0.164653 0.367466 0.222095
Si Si5 0.750000 0.158592 0.000000
Si Si6 0.000000 0.750000 0.043687
Si Si7 0.591495 0.862764 0.091044
O O1 0.107274 0.488410 0.070955
O O2 0.198853 0.573471 0.192601
O O3 0.250000 0.507949 0.000000
O O4 0.156446 0.610940 0.993454
O O5 0.923296 0.882911 0.292325
O O6 0.032581 0.926261 0.415162
O O7 0.988736 0.000000 0.250000
O O8 0.331429 0.288465 0.739152
O O9 0.305135 0.203597 0.579885
O O10 0.444107 0.211687 0.631148
O O11 0.366735 0.157913 0.786814
O O12 0.203365 0.384519 0.096105
O O13 0.950396 0.797210 0.960136
#
# Coordination Sequence:
#
# PCOD8296746 Si02
#       7
#    16  16  16  16   8   8  16
#     4  11  25  46  73 102 147 193 241 302 365 435
#     4  10  24  46  69 101 142 186 246 299 350 428
#     4  12  25  43  72 109 146 184 238 299 381 442
#     4  11  24  45  68 104 144 184 239 297 363 439
#     4  12  26  42  72 104 148 188 228 298 370 452
#     4  12  24  44  74 108 142 186 234 310 368 442
#     4  12  24  45  75 108 141 191 242 303 367 445
#
# _framework density 24.336077
#
# number of rings (size 3 to 8) (size 9 to 14) (size 15 to 20)
#    0.000    0.667    1.667    6.500    4.667    0.000 
#    3.000    2.500    0.000    0.000    0.000    0.000 
#    0.000    0.000    0.000    0.000    0.000    0.000 
#
# Total GULP energy -594664.248890 kJ/mol
# GULP energy per Si atom -12388.838519 kJ/mol
# Density = 2.428069 g / cm^3
# Si number density = 24.336077 Si / 1000 Ang^3
#
#
#
# Elastic Constant Matrix: (Units=GPa)
#
#
# Indices 1 2 3 4 5 6 
#
# 1 63.0853 26.6419 35.5053 0.0000 0.0000 0.0000
# 2 26.6419 77.0003 36.6461 0.0000 0.0000 0.0000
# 3 35.5053 36.6461 141.2661 0.0000 0.0000 0.0000
# 4 0.0000 0.0000 0.0000 -10.1825 0.0000 0.0000
# 5 0.0000 0.0000 0.0000 0.0000 83.4037 0.0000
# 6 0.0000 0.0000 0.0000 0.0000 0.0000 8.8598
#
#
#
# Elastic Compliance Matrix: (Units=1/GPa)
#
#
# Indices 1 2 3 4 5 6 
#
# 1 0.020137 -0.005201 -0.003712 0.000000 0.000000 0.000000
# 2 -0.005201 0.016159 -0.002885 0.000000 0.000000 0.000000
# 3 -0.003712 -0.002885 0.008760 0.000000 0.000000 0.000000
# 4 0.000000 0.000000 0.000000 -0.098208 0.000000 0.000000
# 5 0.000000 0.000000 0.000000 0.000000 0.011990 0.000000
# 6 0.000000 0.000000 0.000000 0.000000 0.000000 0.112869
#
#
# Mechanical properties :
#
#
# Convention : Reuss Voigt Hill
#
# Bulk Modulus (GPa) = 46.59520 53.21536 49.90528
# Shear Modulus (GPa) = 48.80081 28.58675 38.69378
#
# Velocity S-wave (km/s) = 4.48290 3.43106 3.99178
# Velocity P-wave (km/s) = 6.78110 6.13274 6.46505
#
# Compressibility (1/GPa) = 0.02146144
#
# Stress axis : x y z
#
# Youngs Moduli (GPa) = 49.65958 61.88370 114.15313
#
# Poissons Ratio (x) = 0.32184 0.42374
# Poissons Ratio (y) = 0.25827 0.32931
# Poissons Ratio (z) = 0.18434 0.17852
#
# Static dielectric constant tensor:
#      x y z
#    x 4.560290 0.000000 0.000000 
#    y 0.000000 4.264470 0.000000 
#    z 0.000000 0.000000 4.616720 
# 
# 
# High freq. dielectric constant tensor:
#      x y z
#    x 1.973490 0.000000 0.000000 
#    y 0.000000 1.965440 0.000000 
#    z 0.000000 0.000000 1.977580 
# 
# From -- ./inp_files/12918.got.cif
#   From: 2010.03.12/outbox.cif.g09.slc.cpg/sg73_7_cif.got.tgz:12918.got - 2010.04.16 15:25:48.
