data_PCOD8296667
_publ_section_title
;
Structure prediction by ZEFSAII (Michael W. Deem and Ramdas Pophale) SiO2 
 PCOD8296667
Probable space group: I B C A 
;
_chemical_formula_sum "Si O2"
_cell_formula_units_Z 72
_cell_length_a 18.042967
_cell_length_b 8.906402
_cell_length_c 20.528570
_cell_angle_alpha 90.000000
_cell_angle_beta 90.000000
_cell_angle_gamma 90.000000
_cell_volume 3298.898446
_symmetry_space_group_name_H-M "I B C A "
_symmetry_group_IT_number 73
_symmetry_cell_setting 'orthorhombic'
loop_
_space_group_symop_operation_xyz
x,y,z
-x,1/2-y,z
x,-y,1/2-z
1/2-x,y,-z
-x,-y,-z
x,1/2+y,-z
-x,y,1/2+z
1/2+x,-y,z
1/2+x,1/2+y,1/2+z
1/2-x,-y,1/2+z
1/2+x,1/2-y,-z
-x,1/2+y,1/2-z
1/2-x,1/2-y,1/2-z
1/2+x,y,1/2-z
1/2-x,1/2+y,z
x,1/2-y,1/2+z
loop_
_atom_site_type_symbol
_atom_site_label
_atom_site_fract_x
_atom_site_fract_y
_atom_site_fract_z
Si Si1 0.482815 0.924894 0.067700
Si Si2 0.817542 0.016749 0.417880
Si Si3 0.219031 0.871173 0.298094
Si Si4 0.250000 0.260533 0.000000
Si Si5 0.556838 0.387215 0.809566
O O1 0.500000 0.750000 0.059145
O O2 0.535750 0.982861 0.125712
O O3 0.401542 0.969826 0.092818
O O4 0.500000 0.000000 0.000000
O O5 0.777891 0.076218 0.352416
O O6 0.813869 0.150138 0.471794
O O7 0.777309 0.864320 0.440998
O O8 0.250000 0.750000 0.250000
O O9 0.138885 0.819588 0.325651
O O10 0.195861 0.000000 0.250000
O O11 0.500000 0.250000 0.798859
O O12 0.551115 0.500000 0.750000
#
# Coordination Sequence:
#
# PCOD8296667 Si02
#       5
#    16  16  16   8  16
#     4  11  26  44  71 103 144 185 236 295 367 432
#     4  11  24  43  71 102 142 187 238 300 355 439
#     4  11  26  44  72 103 138 183 242 296 361 436
#     4  10  24  40  70  98 142 182 238 282 364 414
#     4  10  26  46  69 100 142 183 238 292 362 435
#
# _framework density 21.825465999999999
#
# number of rings (size 3 to 8) (size 9 to 14) (size 15 to 20)
#    0.000    1.333    0.000    2.667   21.778    0.889 
#    4.000    0.000    0.000    0.000    0.000    0.000 
#    0.000    0.000    0.000    0.000    0.000    0.000 
#
# Total GULP energy -446030.344909 kJ/mol
# GULP energy per Si atom -12389.731803 kJ/mol
# Density = 2.177579 g / cm^3
# Si number density = 21.825466 Si / 1000 Ang^3
#
#
#
# Elastic Constant Matrix: (Units=GPa)
#
#
# Indices 1 2 3 4 5 6 
#
# 1 207.1698 64.5955 83.9936 0.0000 0.0000 0.0000
# 2 64.5955 114.7999 60.8088 0.0000 0.0000 0.0000
# 3 83.9936 60.8088 174.6350 0.0000 0.0000 0.0000
# 4 0.0000 0.0000 0.0000 45.8071 0.0000 0.0000
# 5 0.0000 0.0000 0.0000 0.0000 36.9500 0.0000
# 6 0.0000 0.0000 0.0000 0.0000 0.0000 25.7970
#
#
#
# Elastic Compliance Matrix: (Units=1/GPa)
#
#
# Indices 1 2 3 4 5 6 
#
# 1 0.006518 -0.002461 -0.002278 0.000000 0.000000 0.000000
# 2 -0.002461 0.011610 -0.002859 0.000000 0.000000 0.000000
# 3 -0.002278 -0.002859 0.007817 0.000000 0.000000 0.000000
# 4 0.000000 0.000000 0.000000 0.021831 0.000000 0.000000
# 5 0.000000 0.000000 0.000000 0.000000 0.027064 0.000000
# 6 0.000000 0.000000 0.000000 0.000000 0.000000 0.038764
#
#
# Mechanical properties :
#
#
# Convention : Reuss Voigt Hill
#
# Bulk Modulus (GPa) = 93.02840 101.71117 97.36979
# Shear Modulus (GPa) = 37.76937 40.85792 39.31365
#
# Velocity S-wave (km/s) = 4.16446 4.33139 4.24875
# Velocity P-wave (km/s) = 8.11418 8.46864 8.29330
#
# Compressibility (1/GPa) = 0.01074941
#
# Stress axis : x y z
#
# Youngs Moduli (GPa) = 153.42581 86.13357 127.91974
#
# Poissons Ratio (x) = 0.21196 0.29140
# Poissons Ratio (y) = 0.37755 0.36573
# Poissons Ratio (z) = 0.34950 0.24626
#
# Static dielectric constant tensor:
#      x y z
#    x 0.763070 0.000000 0.000000 
#    y 0.000000 4.028380 0.000000 
#    z 0.000000 0.000000 9.894670 
# 
# 
# High freq. dielectric constant tensor:
#      x y z
#    x 1.866020 0.000000 0.000000 
#    y 0.000000 1.864800 0.000000 
#    z 0.000000 0.000000 1.877110 
# 
# From -- ./inp_files/5338.got.cif
#   From: 2010.03.12/outbox.cif.g09.slc.cpg/sg73_3_cif.got.tgz:5338.got - 2010.04.16 15:25:48.
