data_PCOD8296659
_publ_section_title
;
Structure prediction by ZEFSAII (Michael W. Deem and Ramdas Pophale) SiO2 
 PCOD8296659
Probable space group: I B C A 
;
_chemical_formula_sum "Si O2"
_cell_formula_units_Z 104
_cell_length_a 29.278972
_cell_length_b 14.122006
_cell_length_c 11.945886
_cell_angle_alpha 90.000000
_cell_angle_beta 90.000000
_cell_angle_gamma 90.000000
_cell_volume 4939.358880
_symmetry_space_group_name_H-M "I B C A "
_symmetry_group_IT_number 73
_symmetry_cell_setting 'orthorhombic'
loop_
_space_group_symop_operation_xyz
x,y,z
-x,1/2-y,z
x,-y,1/2-z
1/2-x,y,-z
-x,-y,-z
x,1/2+y,-z
-x,y,1/2+z
1/2+x,-y,z
1/2+x,1/2+y,1/2+z
1/2-x,-y,1/2+z
1/2+x,1/2-y,-z
-x,1/2+y,1/2-z
1/2-x,1/2-y,1/2-z
1/2+x,y,1/2-z
1/2-x,1/2+y,z
x,1/2-y,1/2+z
loop_
_atom_site_type_symbol
_atom_site_label
_atom_site_fract_x
_atom_site_fract_y
_atom_site_fract_z
Si Si1 0.588589 0.634239 0.494024
Si Si2 0.684566 0.106957 0.126340
Si Si3 0.962147 0.463156 0.582373
Si Si4 0.525153 0.152434 0.291579
Si Si5 0.750000 0.751133 0.500000
Si Si6 0.585896 0.337434 0.581724
Si Si7 0.316128 0.605945 0.115335
O O1 0.575106 0.547574 0.410875
O O2 0.552431 0.653987 0.592147
O O3 0.590444 0.724500 0.412922
O O4 0.637633 0.614557 0.546109
O O5 0.719950 0.182922 0.079670
O O6 0.635310 0.115287 0.069604
O O7 0.675114 0.128352 0.255712
O O8 0.703565 0.000970 0.103254
O O9 0.940210 0.368351 0.529955
O O10 0.000000 0.500000 0.500000
O O11 0.985522 0.428732 0.698753
O O12 0.500000 0.250000 0.263736
O O13 0.558836 0.124368 0.190610
O O14 0.719592 0.683492 0.575676
#
# Coordination Sequence:
#
# PCOD8296659 Si02
#       7
#    16  16  16  16   8  16  16
#     4  11  22  42  64  94 127 171 222 275 330 402
#     4  11  24  42  69  99 132 178 225 281 343 419
#     4  10  24  39  60  92 125 165 224 268 318 387
#     4  11  24  39  61  89 129 169 218 272 323 393
#     4  12  24  44  68  98 140 176 222 284 352 416
#     4  12  23  42  64  92 130 176 216 272 341 392
#     4  11  23  42  69 101 130 171 231 277 349 421
#
# _framework density 21.055364000000001
#
# number of rings (size 3 to 8) (size 9 to 14) (size 15 to 20)
#    0.000    0.923    6.154    0.923    4.308    2.462 
#    0.000    0.000    0.000    0.000    0.000    0.000 
#    0.000    0.000    0.000    0.000    0.000    0.000 
#
# Total GULP energy -644705.169762 kJ/mol
# GULP energy per Si atom -12398.176342 kJ/mol
# Density = 2.100744 g / cm^3
# Si number density = 21.055364 Si / 1000 Ang^3
#
#
#
# Elastic Constant Matrix: (Units=GPa)
#
#
# Indices 1 2 3 4 5 6 
#
# 1 122.0313 57.7505 33.0959 0.0000 0.0000 0.0000
# 2 57.7505 148.1162 45.5150 0.0000 0.0000 0.0000
# 3 33.0959 45.5150 57.5188 0.0000 0.0000 0.0000
# 4 0.0000 0.0000 0.0000 34.1325 0.0000 0.0000
# 5 0.0000 0.0000 0.0000 0.0000 38.0134 0.0000
# 6 0.0000 0.0000 0.0000 0.0000 0.0000 37.7288
#
#
#
# Elastic Compliance Matrix: (Units=1/GPa)
#
#
# Indices 1 2 3 4 5 6 
#
# 1 0.010627 -0.002992 -0.003747 0.000000 0.000000 0.000000
# 2 -0.002992 0.009763 -0.006004 0.000000 0.000000 0.000000
# 3 -0.003747 -0.006004 0.024293 0.000000 0.000000 0.000000
# 4 0.000000 0.000000 0.000000 0.029298 0.000000 0.000000
# 5 0.000000 0.000000 0.000000 0.000000 0.026307 0.000000
# 6 0.000000 0.000000 0.000000 0.000000 0.000000 0.026505
#
#
# Mechanical properties :
#
#
# Convention : Reuss Voigt Hill
#
# Bulk Modulus (GPa) = 52.09283 66.70989 59.40136
# Shear Modulus (GPa) = 31.51071 34.72859 33.11965
#
# Velocity S-wave (km/s) = 3.87274 4.06568 3.97038
# Velocity P-wave (km/s) = 6.69269 7.33427 7.02081
#
# Compressibility (1/GPa) = 0.01919650
#
# Stress axis : x y z
#
# Youngs Moduli (GPa) = 94.10206 102.42761 41.16472
#
# Poissons Ratio (x) = 0.30646 0.15425
# Poissons Ratio (y) = 0.28155 0.24715
# Poissons Ratio (z) = 0.35260 0.61497
#
# Static dielectric constant tensor:
#      x y z
#    x 4.026550 0.000000 0.000000 
#    y 0.000000 4.186360 0.000000 
#    z 0.000000 0.000000 3.558160 
# 
# 
# High freq. dielectric constant tensor:
#      x y z
#    x 1.823740 0.000000 0.000000 
#    y 0.000000 1.849550 0.000000 
#    z 0.000000 0.000000 1.810170 
# 
# From -- ./inp_files/14791.got.cif
#   From: 2010.03.12/outbox.cif.g09.slc.cpg/sg73_8_cif.got.tgz:14791.got - 2010.04.16 15:25:48.
