data_PCOD8296482
_publ_section_title
;
Structure prediction by ZEFSAII (Michael W. Deem and Ramdas Pophale) SiO2 
 PCOD8296482
Probable space group: I B C A 
;
_chemical_formula_sum "Si O2"
_cell_formula_units_Z 120
_cell_length_a 24.062210
_cell_length_b 27.942789
_cell_length_c 8.268470
_cell_angle_alpha 90.000000
_cell_angle_beta 90.000000
_cell_angle_gamma 90.000000
_cell_volume 5559.431956
_symmetry_space_group_name_H-M "I B C A "
_symmetry_group_IT_number 73
_symmetry_cell_setting 'orthorhombic'
loop_
_space_group_symop_operation_xyz
x,y,z
-x,1/2-y,z
x,-y,1/2-z
1/2-x,y,-z
-x,-y,-z
x,1/2+y,-z
-x,y,1/2+z
1/2+x,-y,z
1/2+x,1/2+y,1/2+z
1/2-x,-y,1/2+z
1/2+x,1/2-y,-z
-x,1/2+y,1/2-z
1/2-x,1/2-y,1/2-z
1/2+x,y,1/2-z
1/2-x,1/2+y,z
x,1/2-y,1/2+z
loop_
_atom_site_type_symbol
_atom_site_label
_atom_site_fract_x
_atom_site_fract_y
_atom_site_fract_z
Si Si1 0.371264 0.306944 0.634836
Si Si2 0.250000 0.419562 0.000000
Si Si3 0.260433 0.146410 0.188799
Si Si4 0.354654 0.530161 0.395214
Si Si5 0.657143 0.204251 0.268093
Si Si6 0.034824 0.370200 0.459806
Si Si7 0.445795 0.022076 0.079548
Si Si8 0.579461 0.625593 0.819433
O O1 0.324931 0.341499 0.712343
O O2 0.363070 0.302202 0.447025
O O3 0.363750 0.255708 0.714752
O O4 0.432181 0.331043 0.651652
O O5 0.245205 0.391580 0.828451
O O6 0.194527 0.451428 0.010781
O O7 0.223566 0.194065 0.229798
O O8 0.250000 0.129120 0.000000
O O9 0.326915 0.500000 0.250000
O O10 0.391293 0.489622 0.478786
O O11 0.395286 0.572988 0.339337
O O12 0.628207 0.164393 0.154336
O O13 0.049537 0.421802 0.389946
O O14 0.051342 0.368352 0.645786
O O15 0.968503 0.362506 0.449400
O O16 0.435970 0.000000 0.250000
O O17 0.500000 0.000000 0.000000
#
# Coordination Sequence:
#
# PCOD8296482 Si02
#       8
#    16   8  16  16  16  16  16  16
#     4  10  24  40  67 101 138 181 230 298 354 417
#     4  12  28  46  76 102 134 204 224 294 382 410
#     4  10  23  45  73 102 138 181 245 298 346 432
#     4  12  26  48  68 101 142 179 240 294 349 442
#     4  10  22  43  65  97 139 183 228 291 356 420
#     4  11  24  41  67 102 134 181 231 295 356 410
#     4  12  24  41  71 102 134 182 233 285 354 427
#     4  11  23  43  68  96 136 181 231 292 348 424
#
# _framework density 21.58494
#
# number of rings (size 3 to 8) (size 9 to 14) (size 15 to 20)
#    0.000    1.067    4.000    1.600    3.733    2.133 
#    1.200    2.667    0.000    0.000    0.000    0.000 
#    0.000    0.000    0.000    0.000    0.000    0.000 
#
# Total GULP energy -743662.354698 kJ/mol
# GULP energy per Si atom -12394.372578 kJ/mol
# Density = 2.153581 g / cm^3
# Si number density = 21.584940 Si / 1000 Ang^3
#
#
#
# Elastic Constant Matrix: (Units=GPa)
#
#
# Indices 1 2 3 4 5 6 
#
# 1 121.0719 31.3533 22.6237 0.0000 0.0000 0.0000
# 2 31.3533 66.3607 14.8950 0.0000 0.0000 0.0000
# 3 22.6237 14.8950 57.2062 0.0000 0.0000 0.0000
# 4 0.0000 0.0000 0.0000 32.5273 0.0000 0.0000
# 5 0.0000 0.0000 0.0000 0.0000 29.9917 0.0000
# 6 0.0000 0.0000 0.0000 0.0000 0.0000 32.3462
#
#
#
# Elastic Compliance Matrix: (Units=1/GPa)
#
#
# Indices 1 2 3 4 5 6 
#
# 1 0.009828 -0.004005 -0.002844 0.000000 0.000000 0.000000
# 2 -0.004005 0.017637 -0.003008 0.000000 0.000000 0.000000
# 3 -0.002844 -0.003008 0.019389 0.000000 0.000000 0.000000
# 4 0.000000 0.000000 0.000000 0.030743 0.000000 0.000000
# 5 0.000000 0.000000 0.000000 0.000000 0.033343 0.000000
# 6 0.000000 0.000000 0.000000 0.000000 0.000000 0.030915
#
#
# Mechanical properties :
#
#
# Convention : Reuss Voigt Hill
#
# Bulk Modulus (GPa) = 36.84759 42.48697 39.66728
# Shear Modulus (GPa) = 29.30560 30.69082 29.99821
#
# Velocity S-wave (km/s) = 3.68868 3.77485 3.73201
# Velocity P-wave (km/s) = 5.93716 6.22300 6.08176
#
# Compressibility (1/GPa) = 0.02713882
#
# Stress axis : x y z
#
# Youngs Moduli (GPa) = 101.74830 56.70002 51.57672
#
# Poissons Ratio (x) = 0.22709 0.14668
# Poissons Ratio (y) = 0.40752 0.15515
# Poissons Ratio (z) = 0.28937 0.17056
#
# Static dielectric constant tensor:
#      x y z
#    x 4.421710 0.000000 0.000000 
#    y 0.000000 3.801260 0.000000 
#    z 0.000000 0.000000 3.944250 
# 
# 
# High freq. dielectric constant tensor:
#      x y z
#    x 1.858140 0.000000 0.000000 
#    y 0.000000 1.843080 0.000000 
#    z 0.000000 0.000000 1.848440 
# 
# From -- ./inp_files/7403.got.cif
#   From: 2010.03.12/outbox.cif.g09.slc.cpg/sg73_4_cif.got.tgz:7403.got - 2010.04.16 15:25:48.
