data_PCOD8296829
_publ_section_title
;
Structure prediction by ZEFSAII (Michael W. Deem and Ramdas Pophale) SiO2 
 PCOD8296829
Probable space group: I B C A 
;
_chemical_formula_sum "Si O2"
_cell_formula_units_Z 56
_cell_length_a 9.733864
_cell_length_b 9.085516
_cell_length_c 23.603254
_cell_angle_alpha 90.000000
_cell_angle_beta 90.000000
_cell_angle_gamma 90.000000
_cell_volume 2087.405154
_symmetry_space_group_name_H-M "I B C A "
_symmetry_group_IT_number 73
_symmetry_cell_setting 'orthorhombic'
loop_
_space_group_symop_operation_xyz
x,y,z
-x,1/2-y,z
x,-y,1/2-z
1/2-x,y,-z
-x,-y,-z
x,1/2+y,-z
-x,y,1/2+z
1/2+x,-y,z
1/2+x,1/2+y,1/2+z
1/2-x,-y,1/2+z
1/2+x,1/2-y,-z
-x,1/2+y,1/2-z
1/2-x,1/2-y,1/2-z
1/2+x,y,1/2-z
1/2-x,1/2+y,z
x,1/2-y,1/2+z
loop_
_atom_site_type_symbol
_atom_site_label
_atom_site_fract_x
_atom_site_fract_y
_atom_site_fract_z
Si Si1 0.817230 0.500000 0.250000
Si Si2 0.000000 0.750000 0.513269
Si Si3 0.500000 0.750000 0.275282
Si Si4 0.393748 0.973958 0.574621
Si Si5 0.641014 0.474896 0.149599
O O1 0.920361 0.365385 0.234632
O O2 0.725888 0.563789 0.197903
O O3 0.091784 0.642205 0.552446
O O4 0.905995 0.645263 0.474849
O O5 0.607675 0.675339 0.317970
O O6 0.504452 0.946150 0.625302
O O7 0.239829 0.947950 0.596273
#
# Coordination Sequence:
#
# PCOD8296829 Si02
#       5
#     8   8   8  16  16
#     4  12  28  52  82 122 168 210 268 336 400 506
#     4  10  27  51  74 120 154 206 269 341 390 476
#     4  12  27  53  78 118 170 212 271 327 404 486
#     4  11  27  47  83 112 160 206 268 327 407 466
#     4  12  27  48  81 118 159 212 264 328 402 486
#
# _framework density 26.827567999999999
#
# number of rings (size 3 to 8) (size 9 to 14) (size 15 to 20)
#    0.000    0.571    2.857    2.571    4.000    8.000 
#    0.000    0.000    0.000    0.000    0.000    0.000 
#    0.000    0.000    0.000    0.000    0.000    0.000 
#
# Total GULP energy -347078.749209 kJ/mol
# GULP energy per Si atom -12395.669615 kJ/mol
# Density = 2.676651 g / cm^3
# Si number density = 26.827568 Si / 1000 Ang^3
#
#
#
# Elastic Constant Matrix: (Units=GPa)
#
#
# Indices 1 2 3 4 5 6 
#
# 1 103.0916 23.1797 12.7004 0.0000 0.0000 0.0000
# 2 23.1797 111.9297 24.8495 0.0000 0.0000 0.0000
# 3 12.7004 24.8495 112.4577 0.0000 0.0000 0.0000
# 4 0.0000 0.0000 0.0000 42.6859 0.0000 0.0000
# 5 0.0000 0.0000 0.0000 0.0000 28.8571 0.0000
# 6 0.0000 0.0000 0.0000 0.0000 0.0000 24.5287
#
#
#
# Elastic Compliance Matrix: (Units=1/GPa)
#
#
# Indices 1 2 3 4 5 6 
#
# 1 0.010229 -0.001958 -0.000723 0.000000 0.000000 0.000000
# 2 -0.001958 0.009770 -0.001938 0.000000 0.000000 0.000000
# 3 -0.000723 -0.001938 0.009402 0.000000 0.000000 0.000000
# 4 0.000000 0.000000 0.000000 0.023427 0.000000 0.000000
# 5 0.000000 0.000000 0.000000 0.000000 0.034654 0.000000
# 6 0.000000 0.000000 0.000000 0.000000 0.000000 0.040769
#
#
# Mechanical properties :
#
#
# Convention : Reuss Voigt Hill
#
# Bulk Modulus (GPa) = 49.59172 49.88203 49.73688
# Shear Modulus (GPa) = 34.67202 36.99763 35.83483
#
# Velocity S-wave (km/s) = 3.59890 3.71764 3.65875
# Velocity P-wave (km/s) = 5.98289 6.08783 6.03559
#
# Compressibility (1/GPa) = 0.02016466
#
# Stress axis : x y z
#
# Youngs Moduli (GPa) = 97.75767 102.35573 106.36033
#
# Poissons Ratio (x) = 0.20041 0.07686
# Poissons Ratio (y) = 0.19141 0.20609
# Poissons Ratio (z) = 0.07064 0.19833
#
# Static dielectric constant tensor:
#      x y z
#    x 5.101100 0.000000 0.000000 
#    y 0.000000 4.731350 0.000000 
#    z 0.000000 0.000000 5.071760 
# 
# 
# High freq. dielectric constant tensor:
#      x y z
#    x 2.089910 0.000000 0.000000 
#    y 0.000000 2.064590 0.000000 
#    z 0.000000 0.000000 2.089360 
# 
# From -- ./inp_files/8209.got.cif
#   From: 2010.03.12/outbox.cif.g09.slc.cpg/sg73_5_cif.got.tgz:8209.got - 2010.04.16 15:25:48.
