data_PCOD8296381
_publ_section_title
;
Structure prediction by ZEFSAII (Michael W. Deem and Ramdas Pophale) SiO2 
 PCOD8296381
Probable space group: I B C A 
;
_chemical_formula_sum "Si O2"
_cell_formula_units_Z 80
_cell_length_a 11.550130
_cell_length_b 25.426872
_cell_length_c 14.610633
_cell_angle_alpha 90.000000
_cell_angle_beta 90.000000
_cell_angle_gamma 90.000000
_cell_volume 4290.904424
_symmetry_space_group_name_H-M "I B C A "
_symmetry_group_IT_number 73
_symmetry_cell_setting 'orthorhombic'
loop_
_space_group_symop_operation_xyz
x,y,z
-x,1/2-y,z
x,-y,1/2-z
1/2-x,y,-z
-x,-y,-z
x,1/2+y,-z
-x,y,1/2+z
1/2+x,-y,z
1/2+x,1/2+y,1/2+z
1/2-x,-y,1/2+z
1/2+x,1/2-y,-z
-x,1/2+y,1/2-z
1/2-x,1/2-y,1/2-z
1/2+x,y,1/2-z
1/2-x,1/2+y,z
x,1/2-y,1/2+z
loop_
_atom_site_type_symbol
_atom_site_label
_atom_site_fract_x
_atom_site_fract_y
_atom_site_fract_z
Si Si1 0.500000 0.250000 0.448025
Si Si2 0.994655 0.098954 0.818181
Si Si3 0.241153 0.570866 0.105176
Si Si4 0.951314 0.354592 0.130963
Si Si5 0.356603 0.000000 0.750000
Si Si6 0.881920 0.155115 0.978889
O O1 0.566366 0.208333 0.382119
O O2 0.590274 0.282128 0.512469
O O3 0.014465 0.132118 0.726043
O O4 0.907537 0.133696 0.878382
O O5 0.113564 0.090957 0.872004
O O6 0.938515 0.043070 0.795728
O O7 0.326251 0.619394 0.123307
O O8 0.274558 0.522523 0.170448
O O9 0.250000 0.552121 0.000000
O O10 0.037705 0.376298 0.051939
O O11 0.750000 0.143452 0.000000
#
# Coordination Sequence:
#
# PCOD8296381 Si02
#       6
#     8  16  16  16   8  16
#     4   8  20  40  58  94 120 154 208 234 302 368
#     4  11  23  42  63  90 123 168 200 258 313 361
#     4  11  21  43  64  87 125 164 204 259 304 373
#     4   9  22  40  60  92 124 157 207 245 306 366
#     4  10  26  38  60  96 122 160 216 250 316 366
#     4  10  22  40  63  91 127 160 203 254 301 365
#
# _framework density 18.644089000000001
#
# number of rings (size 3 to 8) (size 9 to 14) (size 15 to 20)
#    1.200    0.800    2.000    0.600    5.600    4.800 
#    0.000    2.000    0.000    0.000    0.000    0.000 
#    0.000    0.000    0.000    0.000    0.000    0.000 
#
# Total GULP energy -495825.065591 kJ/mol
# GULP energy per Si atom -12395.626640 kJ/mol
# Density = 1.860165 g / cm^3
# Si number density = 18.644089 Si / 1000 Ang^3
#
#
#
# Elastic Constant Matrix: (Units=GPa)
#
#
# Indices 1 2 3 4 5 6 
#
# 1 104.4981 32.5763 35.4536 -0.0006 0.0000 0.0000
# 2 32.5763 118.8896 52.2818 -0.0004 -0.0001 -0.0001
# 3 35.4536 52.2818 127.7349 -0.0030 -0.0003 -0.0003
# 4 -0.0006 -0.0004 -0.0030 -46.4487 0.0005 0.0003
# 5 0.0000 -0.0001 -0.0003 0.0005 34.1870 0.0000
# 6 0.0000 -0.0001 -0.0003 0.0003 0.0000 19.6015
#
#
#
# Elastic Compliance Matrix: (Units=1/GPa)
#
#
# Indices 1 2 3 4 5 6 
#
# 1 0.010952 -0.002029 -0.002209 0.000000 0.000000 0.000000
# 2 -0.002029 0.010633 -0.003789 0.000000 0.000000 0.000000
# 3 -0.002209 -0.003789 0.009993 -0.000001 0.000000 0.000000
# 4 0.000000 0.000000 -0.000001 -0.021529 0.000000 0.000000
# 5 0.000000 0.000000 0.000000 0.000000 0.029251 0.000000
# 6 0.000000 0.000000 0.000000 0.000000 0.000000 0.051016
#
#
# Mechanical properties :
#
#
# Convention : Reuss Voigt Hill
#
# Bulk Modulus (GPa) = 64.42090 65.74956 65.08523
# Shear Modulus (GPa) = 44.82488 16.85537 30.84013
#
# Velocity S-wave (km/s) = 4.90863 3.01002 4.07154
# Velocity P-wave (km/s) = 8.17032 6.88640 7.55568
#
# Compressibility (1/GPa) = 0.01552291
#
# Stress axis : x y z
#
# Youngs Moduli (GPa) = 91.31023 94.04305 100.07321
#
# Poissons Ratio (x) = 0.19085 0.22107
# Poissons Ratio (y) = 0.18530 0.37918
# Poissons Ratio (z) = 0.20171 0.35633
#
# Static dielectric constant tensor:
#      x y z
#    x 3.248180 0.000000 0.000000 
#    y 0.000000 3.307060 0.000000 
#    z 0.000000 0.000000 3.551620 
# 
# 
# High freq. dielectric constant tensor:
#      x y z
#    x 1.723290 0.000000 0.000000 
#    y 0.000000 1.715870 0.000000 
#    z 0.000000 0.000000 1.733270 
# 
# From -- ./inp_files/14190.got.cif
#   From: 2010.03.12/outbox.cif.g09.slc.cpg/sg73_8_cif.got.tgz:14190.got - 2010.04.16 15:25:48.
