data_PCOD8296522
_publ_section_title
;
Structure prediction by ZEFSAII (Michael W. Deem and Ramdas Pophale) SiO2 
 PCOD8296522
Probable space group: I B C A 
;
_chemical_formula_sum "Si O2"
_cell_formula_units_Z 112
_cell_length_a 13.694925
_cell_length_b 26.514650
_cell_length_c 14.081874
_cell_angle_alpha 90.000000
_cell_angle_beta 90.000000
_cell_angle_gamma 90.000000
_cell_volume 5113.355775
_symmetry_space_group_name_H-M "I B C A "
_symmetry_group_IT_number 73
_symmetry_cell_setting 'orthorhombic'
loop_
_space_group_symop_operation_xyz
x,y,z
-x,1/2-y,z
x,-y,1/2-z
1/2-x,y,-z
-x,-y,-z
x,1/2+y,-z
-x,y,1/2+z
1/2+x,-y,z
1/2+x,1/2+y,1/2+z
1/2-x,-y,1/2+z
1/2+x,1/2-y,-z
-x,1/2+y,1/2-z
1/2-x,1/2-y,1/2-z
1/2+x,y,1/2-z
1/2-x,1/2+y,z
x,1/2-y,1/2+z
loop_
_atom_site_type_symbol
_atom_site_label
_atom_site_fract_x
_atom_site_fract_y
_atom_site_fract_z
Si Si1 0.343662 0.508224 0.060214
Si Si2 0.709205 0.729519 0.398178
Si Si3 0.000000 0.750000 0.644885
Si Si4 0.457668 0.359007 0.183608
Si Si5 0.598597 0.910681 0.682334
Si Si6 0.994090 0.072950 0.982472
Si Si7 0.745321 0.327581 0.287128
Si Si8 0.763678 0.500000 0.750000
O O1 0.393904 0.555550 0.003793
O O2 0.304728 0.520714 0.165284
O O3 0.250000 0.488949 0.000000
O O4 0.429869 0.467494 0.076191
O O5 0.750000 0.713997 0.500000
O O6 0.596070 0.742705 0.418268
O O7 0.727428 0.683845 0.324674
O O8 0.759621 0.777987 0.351712
O O9 0.010310 0.698875 0.707731
O O10 0.505577 0.400662 0.251003
O O11 0.341861 0.361153 0.198501
O O12 0.490725 0.374480 0.076091
O O13 0.561776 0.924128 0.580141
O O14 0.656587 0.859147 0.673524
O O15 0.666302 0.954508 0.721624
#
# Coordination Sequence:
#
# PCOD8296522 Si02
#       8
#    16  16   8  16  16  16  16   8
#     4  11  24  49  69 104 139 179 231 292 347 423
#     4  10  22  45  71 101 141 184 234 291 354 418
#     4  10  22  46  68  98 144 182 230 290 344 418
#     4  11  25  45  70 101 142 185 236 294 344 425
#     4  12  26  46  69 106 136 187 232 290 357 418
#     4  11  27  43  72 104 137 180 239 283 348 424
#     4  10  24  44  69 104 136 183 237 290 346 429
#     4  12  26  44  76  92 146 190 226 294 364 414
#
# _framework density 21.903424000000001
#
# number of rings (size 3 to 8) (size 9 to 14) (size 15 to 20)
#    0.000    1.143    2.857    1.714   10.000    1.143 
#    0.000    0.714    0.000    0.000    0.000    0.000 
#    0.000    0.000    0.000    0.000    0.000    0.000 
#
# Total GULP energy -694235.803103 kJ/mol
# GULP energy per Si atom -12397.067913 kJ/mol
# Density = 2.185357 g / cm^3
# Si number density = 21.903424 Si / 1000 Ang^3
#
#
#
# Elastic Constant Matrix: (Units=GPa)
#
#
# Indices 1 2 3 4 5 6 
#
# 1 82.8665 20.3273 19.2729 0.0000 0.0000 0.0000
# 2 20.3273 74.6779 22.8038 -0.0002 0.0000 0.0000
# 3 19.2729 22.8038 97.1776 -0.0013 0.0001 0.0000
# 4 0.0000 -0.0002 -0.0013 14.8450 0.0001 0.0000
# 5 0.0000 0.0000 0.0001 0.0001 33.2942 0.0000
# 6 0.0000 0.0000 0.0000 0.0000 0.0000 27.9455
#
#
#
# Elastic Compliance Matrix: (Units=1/GPa)
#
#
# Indices 1 2 3 4 5 6 
#
# 1 0.013255 -0.003022 -0.001920 0.000000 0.000000 0.000000
# 2 -0.003022 0.015113 -0.002947 0.000000 0.000000 0.000000
# 3 -0.001920 -0.002947 0.011363 0.000001 0.000000 0.000000
# 4 0.000000 0.000000 0.000001 0.067363 0.000000 0.000000
# 5 0.000000 0.000000 0.000000 0.000000 0.030035 0.000000
# 6 0.000000 0.000000 0.000000 0.000000 0.000000 0.035784
#
#
# Mechanical properties :
#
#
# Convention : Reuss Voigt Hill
#
# Bulk Modulus (GPa) = 41.74704 42.17000 41.95852
# Shear Modulus (GPa) = 25.42255 28.03813 26.73034
#
# Velocity S-wave (km/s) = 3.41055 3.58170 3.49717
# Velocity P-wave (km/s) = 5.88304 6.03318 5.95858
#
# Compressibility (1/GPa) = 0.02395380
#
# Stress axis : x y z
#
# Youngs Moduli (GPa) = 75.44104 66.16665 88.00673
#
# Poissons Ratio (x) = 0.19995 0.16895
# Poissons Ratio (y) = 0.22797 0.25937
# Poissons Ratio (z) = 0.14483 0.19501
#
# Static dielectric constant tensor:
#      x y z
#    x 4.155670 0.000000 0.000000 
#    y 0.000000 4.134860 0.000000 
#    z 0.000000 0.000000 3.806850 
# 
# 
# High freq. dielectric constant tensor:
#      x y z
#    x 1.880730 0.000000 0.000000 
#    y 0.000000 1.859950 0.000000 
#    z 0.000000 0.000000 1.849400 
# 
# From -- ./inp_files/16373.got.cif
#   From: 2010.03.12/outbox.cif.g09.slc.cpg/sg73_9_cif.got.tgz:16373.got - 2010.04.16 15:25:48.
