data_PCOD8296477
_publ_section_title
;
Structure prediction by ZEFSAII (Michael W. Deem and Ramdas Pophale) SiO2 
 PCOD8296477
Probable space group: I B C A 
;
_chemical_formula_sum "Si O2"
_cell_formula_units_Z 104
_cell_length_a 9.519027
_cell_length_b 20.186028
_cell_length_c 24.234974
_cell_angle_alpha 90.000000
_cell_angle_beta 90.000000
_cell_angle_gamma 90.000000
_cell_volume 4656.782864
_symmetry_space_group_name_H-M "I B C A "
_symmetry_group_IT_number 73
_symmetry_cell_setting 'orthorhombic'
loop_
_space_group_symop_operation_xyz
x,y,z
-x,1/2-y,z
x,-y,1/2-z
1/2-x,y,-z
-x,-y,-z
x,1/2+y,-z
-x,y,1/2+z
1/2+x,-y,z
1/2+x,1/2+y,1/2+z
1/2-x,-y,1/2+z
1/2+x,1/2-y,-z
-x,1/2+y,1/2-z
1/2-x,1/2-y,1/2-z
1/2+x,y,1/2-z
1/2-x,1/2+y,z
x,1/2-y,1/2+z
loop_
_atom_site_type_symbol
_atom_site_label
_atom_site_fract_x
_atom_site_fract_y
_atom_site_fract_z
Si Si1 0.784633 0.599461 0.251689
Si Si2 0.636908 0.286499 0.895709
Si Si3 0.532595 0.322617 0.203959
Si Si4 0.873267 0.437552 0.137196
Si Si5 0.362395 0.818904 0.901202
Si Si6 0.500000 0.250000 0.001426
Si Si7 0.696434 0.056739 0.867150
O O1 0.689626 0.655922 0.280995
O O2 0.829024 0.547378 0.299091
O O3 0.711377 0.567541 0.198623
O O4 0.932964 0.629034 0.236739
O O5 0.500000 0.250000 0.867964
O O6 0.659711 0.361758 0.877511
O O7 0.776347 0.245523 0.879019
O O8 0.616709 0.284912 0.962353
O O9 0.500000 0.250000 0.226271
O O10 0.495302 0.329836 0.138864
O O11 0.775758 0.492425 0.107432
O O12 0.032662 0.453734 0.121551
O O13 0.424151 0.806336 0.961944
O O14 0.255156 0.880402 0.901239
#
# Coordination Sequence:
#
# PCOD8296477 Si02
#       7
#    16  16  16  16  16   8  16
#     4  11  24  40  61  92 140 186 234 272 345 413
#     4  10  23  43  73  99 132 181 228 293 362 420
#     4  11  22  38  62 100 138 181 228 285 339 414
#     4  12  25  44  67  97 140 184 239 283 352 418
#     4  11  22  44  68 103 139 177 232 294 358 425
#     4  10  22  42  78 100 136 172 244 292 378 430
#     4  11  26  42  65  97 141 187 229 290 347 425
#
# _framework density 22.333013999999999
#
# number of rings (size 3 to 8) (size 9 to 14) (size 15 to 20)
#    0.462    0.615    3.846    2.308    4.308    3.077 
#    0.000    0.769    0.000    1.846    0.000    0.000 
#    0.000    0.000    0.000    0.000    0.000    0.000 
#
# Total GULP energy -644474.246146 kJ/mol
# GULP energy per Si atom -12393.735503 kJ/mol
# Density = 2.228218 g / cm^3
# Si number density = 22.333014 Si / 1000 Ang^3
#
#
#
# Elastic Constant Matrix: (Units=GPa)
#
#
# Indices 1 2 3 4 5 6 
#
# 1 58.0963 38.2913 21.7094 0.0000 0.0000 0.0000
# 2 38.2913 140.2994 15.2720 0.0000 0.0000 0.0000
# 3 21.7094 15.2720 72.3165 0.0000 0.0000 0.0000
# 4 0.0000 0.0000 0.0000 28.9775 0.0000 0.0000
# 5 0.0000 0.0000 0.0000 0.0000 107.2936 0.0000
# 6 0.0000 0.0000 0.0000 0.0000 0.0000 38.1786
#
#
#
# Elastic Compliance Matrix: (Units=1/GPa)
#
#
# Indices 1 2 3 4 5 6 
#
# 1 0.023100 -0.005680 -0.005735 0.000000 0.000000 0.000000
# 2 -0.005680 0.008692 -0.000130 0.000000 0.000000 0.000000
# 3 -0.005735 -0.000130 0.015577 0.000000 0.000000 0.000000
# 4 0.000000 0.000000 0.000000 0.034509 0.000000 0.000000
# 5 0.000000 0.000000 0.000000 0.000000 0.009320 0.000000
# 6 0.000000 0.000000 0.000000 0.000000 0.000000 0.026193
#
#
# Mechanical properties :
#
#
# Convention : Reuss Voigt Hill
#
# Bulk Modulus (GPa) = 41.18982 46.80640 43.99811
# Shear Modulus (GPa) = 33.65297 47.91925 40.78611
#
# Velocity S-wave (km/s) = 3.88605 4.63716 4.27812
# Velocity P-wave (km/s) = 6.21440 7.04804 6.64431
#
# Compressibility (1/GPa) = 0.02427784
#
# Stress axis : x y z
#
# Youngs Moduli (GPa) = 43.29061 115.04718 64.19605
#
# Poissons Ratio (x) = 0.65349 0.36816
# Poissons Ratio (y) = 0.24590 0.00837
# Poissons Ratio (z) = 0.24827 0.01500
#
# Static dielectric constant tensor:
#      x y z
#    x 4.159410 0.000000 0.000000 
#    y 0.000000 4.089520 0.000000 
#    z 0.000000 0.000000 3.841940 
# 
# 
# High freq. dielectric constant tensor:
#      x y z
#    x 1.897310 0.000000 0.000000 
#    y 0.000000 1.877680 0.000000 
#    z 0.000000 0.000000 1.851460 
# 
# From -- ./inp_files/31258.got.cif
#   From: 2010.03.12/outbox.cif.g09.slc.cpg/sg73_16_cif.got.tgz:31258.got - 2010.04.16 15:25:48.
