data_PCOD8296122
_publ_section_title
;
Structure prediction by ZEFSAII (Michael W. Deem and Ramdas Pophale) SiO2 
 PCOD8296122
Probable space group: I B C A 
;
_chemical_formula_sum "Si O2"
_cell_formula_units_Z 120
_cell_length_a 26.107110
_cell_length_b 12.340352
_cell_length_c 17.375376
_cell_angle_alpha 90.000000
_cell_angle_beta 90.000000
_cell_angle_gamma 90.000000
_cell_volume 5597.840995
_symmetry_space_group_name_H-M "I B C A "
_symmetry_group_IT_number 73
_symmetry_cell_setting 'orthorhombic'
loop_
_space_group_symop_operation_xyz
x,y,z
-x,1/2-y,z
x,-y,1/2-z
1/2-x,y,-z
-x,-y,-z
x,1/2+y,-z
-x,y,1/2+z
1/2+x,-y,z
1/2+x,1/2+y,1/2+z
1/2-x,-y,1/2+z
1/2+x,1/2-y,-z
-x,1/2+y,1/2-z
1/2-x,1/2-y,1/2-z
1/2+x,y,1/2-z
1/2-x,1/2+y,z
x,1/2-y,1/2+z
loop_
_atom_site_type_symbol
_atom_site_label
_atom_site_fract_x
_atom_site_fract_y
_atom_site_fract_z
Si Si1 0.444752 0.231796 0.887996
Si Si2 0.779783 0.026876 0.079290
Si Si3 0.811497 0.942843 0.827876
Si Si4 0.366291 0.000000 0.250000
Si Si5 0.555952 0.779935 0.435883
Si Si6 0.906902 0.490934 0.073089
Si Si7 0.116372 0.073996 0.909287
Si Si8 0.836175 0.698830 0.830710
O O1 0.500000 0.250000 0.847229
O O2 0.441686 0.102105 0.891088
O O3 0.396900 0.281332 0.842476
O O4 0.444221 0.284870 0.972212
O O5 0.743022 0.992122 0.149007
O O6 0.822550 0.932437 0.076285
O O7 0.808023 0.142266 0.096140
O O8 0.750000 0.037851 0.000000
O O9 0.849139 0.972174 0.898082
O O10 0.808467 0.812819 0.813556
O O11 0.830772 0.000000 0.750000
O O12 0.398977 0.015147 0.171386
O O13 0.331994 0.109981 0.261313
O O14 0.500000 0.750000 0.403618
O O15 0.599038 0.698003 0.405326
O O16 0.571088 0.894823 0.399522
O O17 0.911026 0.485947 0.980279
#
# Coordination Sequence:
#
# PCOD8296122 Si02
#       8
#    16  16  16   8  16  16  16  16
#     4   9  20  39  68  94 125 167 210 272 328 389
#     4  11  23  42  65  98 128 172 217 272 318 381
#     4  11  26  43  65  95 132 177 216 264 330 389
#     4  10  22  40  66  88 132 174 206 274 320 376
#     4  10  21  36  66  99 123 166 215 268 326 387
#     4  10  21  41  64  93 130 165 216 268 322 382
#     4  10  22  40  62  92 129 166 213 264 320 382
#     4  10  24  44  63  96 133 170 218 267 327 384
#
# _framework density 21.436836
#
# number of rings (size 3 to 8) (size 9 to 14) (size 15 to 20)
#    0.000    1.867    1.333    1.600    5.600    9.067 
#    0.000    0.667    7.333    0.800    0.000    0.000 
#    0.000    0.000    0.000    0.000    0.000    0.000 
#
# Total GULP energy -743652.148324 kJ/mol
# GULP energy per Si atom -12394.202472 kJ/mol
# Density = 2.138805 g / cm^3
# Si number density = 21.436836 Si / 1000 Ang^3
#
#
#
# Elastic Constant Matrix: (Units=GPa)
#
#
# Indices 1 2 3 4 5 6 
#
# 1 114.3483 65.9843 23.5902 0.0000 0.0000 0.0000
# 2 65.9843 189.5870 43.0937 0.0000 0.0000 0.0000
# 3 23.5902 43.0937 95.2784 0.0000 0.0000 0.0000
# 4 0.0000 0.0000 0.0000 25.2779 0.0000 0.0000
# 5 0.0000 0.0000 0.0000 0.0000 7.2593 0.0000
# 6 0.0000 0.0000 0.0000 0.0000 0.0000 29.2643
#
#
#
# Elastic Compliance Matrix: (Units=1/GPa)
#
#
# Indices 1 2 3 4 5 6 
#
# 1 0.011047 -0.003593 -0.001110 0.000000 0.000000 0.000000
# 2 -0.003593 0.007047 -0.002298 0.000000 0.000000 0.000000
# 3 -0.001110 -0.002298 0.011810 0.000000 0.000000 0.000000
# 4 0.000000 0.000000 0.000000 0.039560 0.000000 0.000000
# 5 0.000000 0.000000 0.000000 0.000000 0.137754 0.000000
# 6 0.000000 0.000000 0.000000 0.000000 0.000000 0.034171
#
#
# Mechanical properties :
#
#
# Convention : Reuss Voigt Hill
#
# Bulk Modulus (GPa) = 62.88219 73.83889 68.36054
# Shear Modulus (GPa) = 19.17966 30.13002 24.65484
#
# Velocity S-wave (km/s) = 2.99441 3.75310 3.39501
# Velocity P-wave (km/s) = 6.43061 7.30073 6.87944
#
# Compressibility (1/GPa) = 0.01590275
#
# Stress axis : x y z
#
# Youngs Moduli (GPa) = 90.51945 141.89798 84.67529
#
# Poissons Ratio (x) = 0.50978 0.09402
# Poissons Ratio (y) = 0.32520 0.19458
# Poissons Ratio (z) = 0.10051 0.32608
#
# Static dielectric constant tensor:
#      x y z
#    x 3.855150 0.000000 0.000000 
#    y 0.000000 3.976420 0.000000 
#    z 0.000000 0.000000 3.691930 
# 
# 
# High freq. dielectric constant tensor:
#      x y z
#    x 1.834290 0.000000 0.000000 
#    y 0.000000 1.851290 0.000000 
#    z 0.000000 0.000000 1.821990 
# 
# From -- ./inp_files/23950.got.cif
#   From: 2010.03.12/outbox.cif.g09.slc.cpg/sg73_12_cif.got.tgz:23950.got - 2010.04.16 15:25:48.
