data_PCOD8296496
_publ_section_title
;
Structure prediction by ZEFSAII (Michael W. Deem and Ramdas Pophale) SiO2 
 PCOD8296496
Probable space group: I B C A 
;
_chemical_formula_sum "Si O2"
_cell_formula_units_Z 120
_cell_length_a 15.897189
_cell_length_b 26.554871
_cell_length_c 13.257642
_cell_angle_alpha 90.000000
_cell_angle_beta 90.000000
_cell_angle_gamma 90.000000
_cell_volume 5596.684445
_symmetry_space_group_name_H-M "I B C A "
_symmetry_group_IT_number 73
_symmetry_cell_setting 'orthorhombic'
loop_
_space_group_symop_operation_xyz
x,y,z
-x,1/2-y,z
x,-y,1/2-z
1/2-x,y,-z
-x,-y,-z
x,1/2+y,-z
-x,y,1/2+z
1/2+x,-y,z
1/2+x,1/2+y,1/2+z
1/2-x,-y,1/2+z
1/2+x,1/2-y,-z
-x,1/2+y,1/2-z
1/2-x,1/2-y,1/2-z
1/2+x,y,1/2-z
1/2-x,1/2+y,z
x,1/2-y,1/2+z
loop_
_atom_site_type_symbol
_atom_site_label
_atom_site_fract_x
_atom_site_fract_y
_atom_site_fract_z
Si Si1 0.171045 0.471355 0.556656
Si Si2 0.140892 0.936998 0.911973
Si Si3 0.039811 0.196553 0.923938
Si Si4 0.344612 0.229557 0.247949
Si Si5 0.541606 0.388662 0.914255
Si Si6 0.268285 0.338361 0.895248
Si Si7 0.903003 0.666789 0.224397
Si Si8 0.734114 0.000000 0.750000
O O1 0.250000 0.447083 0.500000
O O2 0.145661 0.524934 0.506661
O O3 0.094347 0.434092 0.539083
O O4 0.200118 0.475388 0.672228
O O5 0.206403 0.893127 0.932621
O O6 0.169787 0.962540 0.806952
O O7 0.051045 0.910564 0.902869
O O8 0.125981 0.205682 0.859360
O O9 0.000000 0.250000 0.957223
O O10 0.975590 0.163626 0.858157
O O11 0.054855 0.162017 0.020987
O O12 0.250000 0.250000 0.250000
O O13 0.346889 0.187625 0.336087
O O14 0.405463 0.276719 0.272741
O O15 0.578893 0.376058 0.805005
O O16 0.187071 0.342748 0.825205
O O17 0.250000 0.307737 0.000000
#
# Coordination Sequence:
#
# PCOD8296496 Si02
#       8
#    16  16  16  16  16  16  16   8
#     4  10  24  43  63  92 124 162 214 266 322 391
#     4  11  24  41  63  93 125 166 216 265 328 404
#     4  10  23  42  62  91 131 169 207 263 325 386
#     4   9  21  39  60  90 125 164 215 262 313 393
#     4  12  25  40  66  95 128 167 211 271 329 391
#     4  11  21  39  65  91 124 169 217 267 326 390
#     4  10  23  39  60  93 125 164 217 264 322 397
#     4  10  22  44  66  84 124 164 202 274 328 372
#
# _framework density 21.441265999999999
#
# number of rings (size 3 to 8) (size 9 to 14) (size 15 to 20)
#    0.000    1.600    0.000    4.000    0.000   13.867 
#    0.000    0.000    0.000    0.000    0.000    0.000 
#    0.000    0.000    0.000    0.000    0.000    0.000 
#
# Total GULP energy -743575.695227 kJ/mol
# GULP energy per Si atom -12392.928254 kJ/mol
# Density = 2.139247 g / cm^3
# Si number density = 21.441266 Si / 1000 Ang^3
#
#
#
# Elastic Constant Matrix: (Units=GPa)
#
#
# Indices 1 2 3 4 5 6 
#
# 1 112.7907 45.5330 46.7725 0.0000 0.0000 -0.0001
# 2 45.5330 115.4165 53.7486 0.0002 0.0000 0.0000
# 3 46.7725 53.7486 122.7643 0.0004 0.0001 -0.0003
# 4 0.0000 0.0002 0.0004 20.6754 0.0000 -0.0001
# 5 0.0000 0.0000 0.0001 0.0000 31.6918 0.0000
# 6 -0.0001 0.0000 -0.0003 -0.0001 0.0000 32.4515
#
#
#
# Elastic Compliance Matrix: (Units=1/GPa)
#
#
# Indices 1 2 3 4 5 6 
#
# 1 0.011346 -0.003094 -0.002968 0.000000 0.000000 0.000000
# 2 -0.003094 0.011727 -0.003956 0.000000 0.000000 0.000000
# 3 -0.002968 -0.003956 0.011008 0.000000 0.000000 0.000000
# 4 0.000000 0.000000 0.000000 0.048367 0.000000 0.000000
# 5 0.000000 0.000000 0.000000 0.000000 0.031554 0.000000
# 6 0.000000 0.000000 0.000000 0.000000 0.000000 0.030815
#
#
# Mechanical properties :
#
#
# Convention : Reuss Voigt Hill
#
# Bulk Modulus (GPa) = 71.19443 71.45330 71.32386
# Shear Modulus (GPa) = 29.49267 30.62491 30.05879
#
# Velocity S-wave (km/s) = 3.71281 3.78341 3.74827
# Velocity P-wave (km/s) = 7.18724 7.24452 7.21594
#
# Compressibility (1/GPa) = 0.01404604
#
# Stress axis : x y z
#
# Youngs Moduli (GPa) = 88.13855 85.27438 90.84013
#
# Poissons Ratio (x) = 0.26382 0.26963
# Poissons Ratio (y) = 0.27268 0.35932
# Poissons Ratio (z) = 0.26161 0.33731
#
# Static dielectric constant tensor:
#      x y z
#    x 3.951710 0.000000 0.000000 
#    y 0.000000 4.118930 0.000000 
#    z 0.000000 0.000000 4.368970 
# 
# 
# High freq. dielectric constant tensor:
#      x y z
#    x 1.848470 0.000000 0.000000 
#    y 0.000000 1.843500 0.000000 
#    z 0.000000 0.000000 1.843940 
# 
# From -- ./inp_files/12244.got.cif
#   From: 2010.03.12/outbox.cif.g09.slc.cpg/sg73_7_cif.got.tgz:12244.got - 2010.04.16 15:25:48.
