data_PCOD8296896
_publ_section_title
;
Structure prediction by ZEFSAII (Michael W. Deem and Ramdas Pophale) SiO2 
 PCOD8296896
Probable space group: I B C A 
;
_chemical_formula_sum "Si O2"
_cell_formula_units_Z 88
_cell_length_a 9.437769
_cell_length_b 19.222096
_cell_length_c 21.168426
_cell_angle_alpha 90.000000
_cell_angle_beta 90.000000
_cell_angle_gamma 90.000000
_cell_volume 3840.242521
_symmetry_space_group_name_H-M "I B C A "
_symmetry_group_IT_number 73
_symmetry_cell_setting 'orthorhombic'
loop_
_space_group_symop_operation_xyz
x,y,z
-x,1/2-y,z
x,-y,1/2-z
1/2-x,y,-z
-x,-y,-z
x,1/2+y,-z
-x,y,1/2+z
1/2+x,-y,z
1/2+x,1/2+y,1/2+z
1/2-x,-y,1/2+z
1/2+x,1/2-y,-z
-x,1/2+y,1/2-z
1/2-x,1/2-y,1/2-z
1/2+x,y,1/2-z
1/2-x,1/2+y,z
x,1/2-y,1/2+z
loop_
_atom_site_type_symbol
_atom_site_label
_atom_site_fract_x
_atom_site_fract_y
_atom_site_fract_z
Si Si1 0.793537 0.854032 0.600860
Si Si2 0.750000 0.600773 0.500000
Si Si3 0.972301 0.169266 0.019623
Si Si4 0.839185 0.768340 0.188315
Si Si5 0.910427 0.018811 0.821720
Si Si6 0.191445 0.076574 0.866822
O O1 0.923006 0.851501 0.551105
O O2 0.642066 0.864292 0.567262
O O3 0.782387 0.778983 0.632230
O O4 0.826044 0.912766 0.653234
O O5 0.628064 0.642405 0.536575
O O6 0.668179 0.563609 0.442335
O O7 0.000000 0.250000 0.026330
O O8 0.750000 0.750000 0.250000
O O9 0.825948 0.846835 0.162630
O O10 0.000000 0.750000 0.205344
O O11 0.077396 0.026583 0.833099
O O12 0.878191 0.000000 0.750000
O O13 0.850238 0.951181 0.856766
#
# Coordination Sequence:
#
# PCOD8296896 Si02
#       6
#    16   8  16  16  16  16
#     4  11  24  47  74 109 147 202 251 323 393 473
#     4  12  24  44  72 110 150 188 254 314 384 472
#     4  11  22  41  76 112 155 191 248 322 406 474
#     4  12  25  47  76 109 150 194 270 328 389 460
#     4  12  27  51  73 103 151 205 261 311 383 463
#     4  12  28  47  76 109 151 204 253 320 389 467
#
# _framework density 22.915217999999999
#
# number of rings (size 3 to 8) (size 9 to 14) (size 15 to 20)
#    0.000    0.364    3.636    5.455    2.545    4.364 
#    0.000    0.000    0.000    0.000    0.000    0.000 
#    0.000    0.000    0.000    0.000    0.000    0.000 
#
# Total GULP energy -545225.432871 kJ/mol
# GULP energy per Si atom -12391.487111 kJ/mol
# Density = 2.286306 g / cm^3
# Si number density = 22.915218 Si / 1000 Ang^3
#
#
#
# Elastic Constant Matrix: (Units=GPa)
#
#
# Indices 1 2 3 4 5 6 
#
# 1 107.3863 37.6443 46.2135 0.0000 0.0000 0.0000
# 2 37.6443 106.2253 50.1496 0.0000 0.0000 0.0000
# 3 46.2135 50.1496 145.3998 0.0000 0.0000 0.0000
# 4 0.0000 0.0000 0.0000 38.9867 0.0000 0.0000
# 5 0.0000 0.0000 0.0000 0.0000 25.8561 0.0000
# 6 0.0000 0.0000 0.0000 0.0000 0.0000 39.3016
#
#
#
# Elastic Compliance Matrix: (Units=1/GPa)
#
#
# Indices 1 2 3 4 5 6 
#
# 1 0.011442 -0.002793 -0.002673 0.000000 0.000000 0.000000
# 2 -0.002793 0.011927 -0.003226 0.000000 0.000000 0.000000
# 3 -0.002673 -0.003226 0.008840 0.000000 0.000000 0.000000
# 4 0.000000 0.000000 0.000000 0.025650 0.000000 0.000000
# 5 0.000000 0.000000 0.000000 0.000000 0.038676 0.000000
# 6 0.000000 0.000000 0.000000 0.000000 0.000000 0.025444
#
#
# Mechanical properties :
#
#
# Convention : Reuss Voigt Hill
#
# Bulk Modulus (GPa) = 67.45705 69.66958 68.56331
# Shear Modulus (GPa) = 34.64927 35.82914 35.23921
#
# Velocity S-wave (km/s) = 3.89275 3.95847 3.92574
# Velocity P-wave (km/s) = 7.05026 7.16672 7.10873
#
# Compressibility (1/GPa) = 0.01482425
#
# Stress axis : x y z
#
# Youngs Moduli (GPa) = 87.40035 83.84619 113.12264
#
# Poissons Ratio (x) = 0.23415 0.30242
# Poissons Ratio (y) = 0.24407 0.36493
# Poissons Ratio (z) = 0.23365 0.27049
#
# Static dielectric constant tensor:
#      x y z
#    x 4.480000 0.000000 0.000000 
#    y 0.000000 4.070760 0.000000 
#    z 0.000000 0.000000 4.394070 
# 
# 
# High freq. dielectric constant tensor:
#      x y z
#    x 1.924930 0.000000 0.000000 
#    y 0.000000 1.897760 0.000000 
#    z 0.000000 0.000000 1.916310 
# 
# From -- ./inp_files/28326.got.cif
#   From: 2010.03.12/outbox.cif.g09.slc.cpg/sg73_15_cif.got.tgz:28326.got - 2010.04.16 15:25:48.
