data_PCOD8296729
_publ_section_title
;
Structure prediction by ZEFSAII (Michael W. Deem and Ramdas Pophale) SiO2 
 PCOD8296729
Probable space group: I B C A 
;
_chemical_formula_sum "Si O2"
_cell_formula_units_Z 112
_cell_length_a 13.192990
_cell_length_b 28.616144
_cell_length_c 13.155081
_cell_angle_alpha 90.000000
_cell_angle_beta 90.000000
_cell_angle_gamma 90.000000
_cell_volume 4966.470639
_symmetry_space_group_name_H-M "I B C A "
_symmetry_group_IT_number 73
_symmetry_cell_setting 'orthorhombic'
loop_
_space_group_symop_operation_xyz
x,y,z
-x,1/2-y,z
x,-y,1/2-z
1/2-x,y,-z
-x,-y,-z
x,1/2+y,-z
-x,y,1/2+z
1/2+x,-y,z
1/2+x,1/2+y,1/2+z
1/2-x,-y,1/2+z
1/2+x,1/2-y,-z
-x,1/2+y,1/2-z
1/2-x,1/2-y,1/2-z
1/2+x,y,1/2-z
1/2-x,1/2+y,z
x,1/2-y,1/2+z
loop_
_atom_site_type_symbol
_atom_site_label
_atom_site_fract_x
_atom_site_fract_y
_atom_site_fract_z
Si Si1 0.250000 0.538090 0.000000
Si Si2 0.879706 0.742332 0.351320
Si Si3 0.091380 0.618439 0.540520
Si Si4 0.166412 0.596074 0.315250
Si Si5 0.211687 0.181869 0.323360
Si Si6 0.376060 0.385518 0.606475
Si Si7 0.750000 0.187161 0.500000
Si Si8 0.332006 0.528752 0.344914
O O1 0.179990 0.567800 0.073533
O O2 0.328540 0.507014 0.062655
O O3 0.815920 0.790222 0.345527
O O4 0.860916 0.710840 0.251263
O O5 0.840348 0.717578 0.453084
O O6 0.000000 0.750000 0.360364
O O7 0.125737 0.607452 0.426477
O O8 0.146860 0.666460 0.576136
O O9 0.108134 0.574417 0.616187
O O10 0.971792 0.626924 0.536960
O O11 0.254362 0.632095 0.278944
O O12 0.086662 0.604099 0.223150
O O13 0.217458 0.544884 0.314706
O O14 0.297804 0.342700 0.592053
O O15 0.381732 0.500000 0.250000
#
# Coordination Sequence:
#
# PCOD8296729 Si02
#       8
#     8  16  16  16  16  16   8  16
#     4  11  22  44  65  94 146 182 231 292 352 401
#     4  11  26  44  74 105 140 187 236 297 353 430
#     4  11  26  42  74 101 136 191 239 279 360 432
#     4  11  22  45  68  97 141 186 223 287 358 409
#     4  10  24  45  69 102 139 179 232 294 349 419
#     4  11  26  43  70 101 139 191 227 292 348 430
#     4  11  26  46  63 104 148 180 231 286 362 409
#     4  11  21  42  68  98 138 186 227 296 349 407
#
# _framework density 22.551224999999999
#
# number of rings (size 3 to 8) (size 9 to 14) (size 15 to 20)
#    0.000    1.143    4.286    1.286    6.000    1.714 
#    2.571    0.714    0.000    0.000    0.000    0.000 
#    0.000    0.000    0.000    0.000    0.000    0.000 
#
# Total GULP energy -693857.878835 kJ/mol
# GULP energy per Si atom -12390.319265 kJ/mol
# Density = 2.249990 g / cm^3
# Si number density = 22.551225 Si / 1000 Ang^3
#
#
#
# Elastic Constant Matrix: (Units=GPa)
#
#
# Indices 1 2 3 4 5 6 
#
# 1 127.2267 38.4457 36.9141 0.0003 -0.0002 -0.0001
# 2 38.4457 110.9700 42.5827 0.0002 -0.0001 -0.0003
# 3 36.9141 42.5827 145.2222 0.0006 -0.0009 -0.0003
# 4 0.0003 0.0002 0.0006 -2.9507 -0.0001 -0.0004
# 5 -0.0002 -0.0001 -0.0009 -0.0001 26.4268 -0.0001
# 6 -0.0001 -0.0003 -0.0003 -0.0004 -0.0001 10.6625
#
#
#
# Elastic Compliance Matrix: (Units=1/GPa)
#
#
# Indices 1 2 3 4 5 6 
#
# 1 0.009083 -0.002547 -0.001562 0.000000 0.000000 0.000000
# 2 -0.002547 0.010868 -0.002539 0.000000 0.000000 0.000000
# 3 -0.001562 -0.002539 0.008028 0.000001 0.000000 0.000000
# 4 0.000000 0.000000 0.000001 -0.338904 -0.000001 -0.000013
# 5 0.000000 0.000000 0.000000 -0.000001 0.037840 0.000000
# 6 0.000000 0.000000 0.000000 -0.000013 0.000000 0.093786
#
#
# Mechanical properties :
#
#
# Convention : Reuss Voigt Hill
#
# Bulk Modulus (GPa) = 68.11199 68.81154 68.46177
# Shear Modulus (GPa) = -31.03521 24.52617 -3.25452
#
# Velocity S-wave (km/s) = -3.71375 3.30142 -1.20262
# Velocity P-wave (km/s) = 3.44667 6.71656 5.33815
#
# Compressibility (1/GPa) = 0.01468170
#
# Stress axis : x y z
#
# Youngs Moduli (GPa) = 110.09650 92.00947 124.57027
#
# Poissons Ratio (x) = 0.23439 0.19456
# Poissons Ratio (y) = 0.28047 0.31633
# Poissons Ratio (z) = 0.17195 0.23364
#
# Static dielectric constant tensor:
#      x y z
#    x 3.828690 0.000000 0.000000 
#    y 0.000000 4.278570 0.000000 
#    z 0.000000 0.000000 4.134200 
# 
# 
# High freq. dielectric constant tensor:
#      x y z
#    x 1.863390 0.000000 0.000000 
#    y 0.000000 1.904000 0.000000 
#    z 0.000000 0.000000 1.901140 
# 
# From -- ./inp_files/11293.got.cif
#   From: 2010.03.12/outbox.cif.g09.slc.cpg/sg73_6_cif.got.tgz:11293.got - 2010.04.16 15:25:48.
