data_PCOD8296438
_publ_section_title
;
Structure prediction by ZEFSAII (Michael W. Deem and Ramdas Pophale) SiO2 
 PCOD8296438
Probable space group: I B C A 
;
_chemical_formula_sum "Si O2"
_cell_formula_units_Z 96
_cell_length_a 10.817864
_cell_length_b 17.673246
_cell_length_c 21.217184
_cell_angle_alpha 90.000000
_cell_angle_beta 90.000000
_cell_angle_gamma 90.000000
_cell_volume 4056.444913
_symmetry_space_group_name_H-M "I B C A "
_symmetry_group_IT_number 73
_symmetry_cell_setting 'orthorhombic'
loop_
_space_group_symop_operation_xyz
x,y,z
-x,1/2-y,z
x,-y,1/2-z
1/2-x,y,-z
-x,-y,-z
x,1/2+y,-z
-x,y,1/2+z
1/2+x,-y,z
1/2+x,1/2+y,1/2+z
1/2-x,-y,1/2+z
1/2+x,1/2-y,-z
-x,1/2+y,1/2-z
1/2-x,1/2-y,1/2-z
1/2+x,y,1/2-z
1/2-x,1/2+y,z
x,1/2-y,1/2+z
loop_
_atom_site_type_symbol
_atom_site_label
_atom_site_fract_x
_atom_site_fract_y
_atom_site_fract_z
Si Si1 0.250000 0.758755 0.500000
Si Si2 0.959367 0.500000 0.750000
Si Si3 0.067865 0.387114 0.470664
Si Si4 0.250000 0.991399 0.000000
Si Si5 0.927297 0.375004 0.172761
Si Si6 0.646358 0.624350 0.336303
Si Si7 0.866992 0.368230 0.566064
Si Si8 0.500000 0.750000 0.769149
O O1 0.134310 0.807212 0.521199
O O2 0.211112 0.708809 0.438743
O O3 0.870551 0.561996 0.718038
O O4 0.049073 0.542153 0.798938
O O5 0.132521 0.453858 0.511552
O O6 0.067285 0.404397 0.396182
O O7 0.930938 0.378974 0.497206
O O8 0.275776 0.941534 0.064361
O O9 0.790536 0.371563 0.142826
O O10 0.929286 0.311117 0.226492
O O11 0.034793 0.360477 0.121606
O O12 0.599774 0.706383 0.312502
#
# Coordination Sequence:
#
# PCOD8296438 Si02
#       8
#     8   8  16   8  16  16  16   8
#     4  10  24  40  60 102 138 174 214 264 334 410
#     4  10  24  46  66  98 126 176 232 280 332 394
#     4  11  23  39  67  95 136 171 215 269 341 402
#     4  10  22  42  60 100 130 172 212 268 330 406
#     4  11  23  43  70  92 134 178 226 279 336 403
#     4  11  24  43  66  95 131 176 224 283 334 398
#     4  11  24  41  66 100 137 173 220 271 342 408
#     4  10  26  42  62  96 130 176 238 278 332 394
#
# _framework density 23.666042000000001
#
# number of rings (size 3 to 8) (size 9 to 14) (size 15 to 20)
#    0.000    1.333    0.000    5.000    7.000    1.333 
#    0.000    3.333    0.000    0.000    0.000    0.000 
#    0.000    0.000    0.000    0.000    0.000    0.000 
#
# Total GULP energy -595114.971479 kJ/mol
# GULP energy per Si atom -12398.228572 kJ/mol
# Density = 2.361218 g / cm^3
# Si number density = 23.666042 Si / 1000 Ang^3
#
#
#
# Elastic Constant Matrix: (Units=GPa)
#
#
# Indices 1 2 3 4 5 6 
#
# 1 79.8093 37.0092 34.5737 0.0000 0.0000 0.0000
# 2 37.0092 143.8083 30.6775 0.0000 0.0000 0.0000
# 3 34.5737 30.6775 104.4092 0.0000 0.0000 0.0000
# 4 0.0000 0.0000 0.0000 23.1118 0.0000 0.0000
# 5 0.0000 0.0000 0.0000 0.0000 41.7618 0.0000
# 6 0.0000 0.0000 0.0000 0.0000 0.0000 19.9416
#
#
#
# Elastic Compliance Matrix: (Units=1/GPa)
#
#
# Indices 1 2 3 4 5 6 
#
# 1 0.015870 -0.003161 -0.004326 0.000000 0.000000 0.000000
# 2 -0.003161 0.008048 -0.001318 0.000000 0.000000 0.000000
# 3 -0.004326 -0.001318 0.011398 0.000000 0.000000 0.000000
# 4 0.000000 0.000000 0.000000 0.043268 0.000000 0.000000
# 5 0.000000 0.000000 0.000000 0.000000 0.023945 0.000000
# 6 0.000000 0.000000 0.000000 0.000000 0.000000 0.050146
#
#
# Mechanical properties :
#
#
# Convention : Reuss Voigt Hill
#
# Bulk Modulus (GPa) = 56.48163 59.17196 57.82679
# Shear Modulus (GPa) = 28.37874 32.01413 30.19644
#
# Velocity S-wave (km/s) = 3.46661 3.68196 3.57590
# Velocity P-wave (km/s) = 6.31989 6.56757 6.44492
#
# Compressibility (1/GPa) = 0.01770487
#
# Stress axis : x y z
#
# Youngs Moduli (GPa) = 63.01210 124.24815 87.73823
#
# Poissons Ratio (x) = 0.39278 0.37958
# Poissons Ratio (y) = 0.19920 0.11564
# Poissons Ratio (z) = 0.27261 0.16376
#
# Static dielectric constant tensor:
#      x y z
#    x 4.108220 0.000000 0.000000 
#    y 0.000000 4.554590 0.000000 
#    z 0.000000 0.000000 4.117160 
# 
# 
# High freq. dielectric constant tensor:
#      x y z
#    x 1.934780 0.000000 0.000000 
#    y 0.000000 1.963290 0.000000 
#    z 0.000000 0.000000 1.917710 
# 
# From -- ./inp_files/28966.got.cif
#   From: 2010.03.12/outbox.cif.g09.slc.cpg/sg73_15_cif.got.tgz:28966.got - 2010.04.16 15:25:48.
