data_PCOD8296876
_publ_section_title
;
Structure prediction by ZEFSAII (Michael W. Deem and Ramdas Pophale) SiO2 
 PCOD8296876
Probable space group: I B C A 
;
_chemical_formula_sum "Si O2"
_cell_formula_units_Z 104
_cell_length_a 19.547634
_cell_length_b 13.921424
_cell_length_c 18.158996
_cell_angle_alpha 90.000000
_cell_angle_beta 90.000000
_cell_angle_gamma 90.000000
_cell_volume 4941.623945
_symmetry_space_group_name_H-M "I B C A "
_symmetry_group_IT_number 73
_symmetry_cell_setting 'orthorhombic'
loop_
_space_group_symop_operation_xyz
x,y,z
-x,1/2-y,z
x,-y,1/2-z
1/2-x,y,-z
-x,-y,-z
x,1/2+y,-z
-x,y,1/2+z
1/2+x,-y,z
1/2+x,1/2+y,1/2+z
1/2-x,-y,1/2+z
1/2+x,1/2-y,-z
-x,1/2+y,1/2-z
1/2-x,1/2-y,1/2-z
1/2+x,y,1/2-z
1/2-x,1/2+y,z
x,1/2-y,1/2+z
loop_
_atom_site_type_symbol
_atom_site_label
_atom_site_fract_x
_atom_site_fract_y
_atom_site_fract_z
Si Si1 0.459423 0.164444 0.350875
Si Si2 0.461773 0.661950 0.354905
Si Si3 0.819200 0.782420 0.583971
Si Si4 0.679826 0.072981 0.542448
Si Si5 0.177551 0.359104 0.081865
Si Si6 0.031874 0.397506 0.503173
Si Si7 0.998593 0.000000 0.250000
O O1 0.500000 0.250000 0.308589
O O2 0.381528 0.191437 0.370380
O O3 0.504087 0.153661 0.424822
O O4 0.453524 0.069850 0.300594
O O5 0.500000 0.750000 0.312672
O O6 0.382834 0.683157 0.369064
O O7 0.507967 0.654379 0.428645
O O8 0.457615 0.566060 0.305433
O O9 0.810776 0.667233 0.592980
O O10 0.750758 0.831568 0.616449
O O11 0.828727 0.816833 0.500165
O O12 0.750000 0.054543 0.500000
O O13 0.614375 0.095428 0.490676
O O14 0.665434 0.974315 0.586193
O O15 0.000000 0.500000 0.500000
#
# Coordination Sequence:
#
# PCOD8296876 Si02
#       7
#    16  16  16  16  16  16   8
#     4  12  25  44  68  98 133 175 224 279 329 393
#     4  12  23  44  69  96 133 170 226 276 329 394
#     4  11  22  37  63 103 131 170 215 270 341 389
#     4  12  21  34  58  99 143 169 200 276 342 395
#     4  11  22  39  62 100 140 167 212 274 338 394
#     4  12  21  39  70 100 125 170 226 276 333 384
#     4  12  28  44  66  96 134 180 226 272 328 394
#
# _framework density 21.045714
#
# number of rings (size 3 to 8) (size 9 to 14) (size 15 to 20)
#    0.000    0.308    9.231    1.846    0.000    0.000 
#    0.000    0.769    0.000    5.538    0.000    0.000 
#    0.000    0.000    0.000    0.000    0.000    0.000 
#
# Total GULP energy -644475.039798 kJ/mol
# GULP energy per Si atom -12393.750765 kJ/mol
# Density = 2.099781 g / cm^3
# Si number density = 21.045714 Si / 1000 Ang^3
#
#
#
# Elastic Constant Matrix: (Units=GPa)
#
#
# Indices 1 2 3 4 5 6 
#
# 1 196.7296 39.8845 36.1576 0.0000 0.0000 0.0000
# 2 39.8845 141.1708 25.0763 0.0000 0.0000 0.0000
# 3 36.1576 25.0763 66.5977 0.0000 0.0000 0.0000
# 4 0.0000 0.0000 0.0000 -7.3188 0.0000 0.0000
# 5 0.0000 0.0000 0.0000 0.0000 -25.7766 0.0000
# 6 0.0000 0.0000 0.0000 0.0000 0.0000 35.7806
#
#
#
# Elastic Compliance Matrix: (Units=1/GPa)
#
#
# Indices 1 2 3 4 5 6 
#
# 1 0.005819 -0.001160 -0.002722 0.000000 0.000000 0.000000
# 2 -0.001160 0.007823 -0.002316 0.000000 0.000000 0.000000
# 3 -0.002722 -0.002316 0.017365 0.000000 0.000000 0.000000
# 4 0.000000 0.000000 0.000000 -0.136635 0.000000 0.000000
# 5 0.000000 0.000000 0.000000 0.000000 -0.038795 0.000000
# 6 0.000000 0.000000 0.000000 0.000000 0.000000 0.027948
#
#
# Mechanical properties :
#
#
# Convention : Reuss Voigt Hill
#
# Bulk Modulus (GPa) = 53.73283 67.41497 60.57390
# Shear Modulus (GPa) = -51.08548 20.76236 -15.16156
#
# Velocity S-wave (km/s) = -4.93217 3.14433 -2.68696
# Velocity P-wave (km/s) = 2.61689 6.72938 4.38386
#
# Compressibility (1/GPa) = 0.01861060
#
# Stress axis : x y z
#
# Youngs Moduli (GPa) = 171.85991 127.83200 57.58593
#
# Poissons Ratio (x) = 0.14833 0.15676
# Poissons Ratio (y) = 0.19942 0.13334
# Poissons Ratio (z) = 0.46784 0.29600
#
# Static dielectric constant tensor:
#      x y z
#    x 4.006700 0.000000 0.000000 
#    y 0.000000 4.259990 0.000000 
#    z 0.000000 0.000000 1.571630 
# 
# 
# High freq. dielectric constant tensor:
#      x y z
#    x 1.834700 0.000000 0.000000 
#    y 0.000000 1.855570 0.000000 
#    z 0.000000 0.000000 1.779970 
# 
# From -- ./inp_files/23188.got.cif
#   From: 2010.03.12/outbox.cif.g09.slc.cpg/sg73_12_cif.got.tgz:23188.got - 2010.04.16 15:25:48.
