data_PCOD8296739
_publ_section_title
;
Structure prediction by ZEFSAII (Michael W. Deem and Ramdas Pophale) SiO2 
 PCOD8296739
Probable space group: I B C A 
;
_chemical_formula_sum "Si O2"
_cell_formula_units_Z 112
_cell_length_a 21.562391
_cell_length_b 12.649206
_cell_length_c 20.699965
_cell_angle_alpha 90.000000
_cell_angle_beta 90.000000
_cell_angle_gamma 90.000000
_cell_volume 5645.855954
_symmetry_space_group_name_H-M "I B C A "
_symmetry_group_IT_number 73
_symmetry_cell_setting 'orthorhombic'
loop_
_space_group_symop_operation_xyz
x,y,z
-x,1/2-y,z
x,-y,1/2-z
1/2-x,y,-z
-x,-y,-z
x,1/2+y,-z
-x,y,1/2+z
1/2+x,-y,z
1/2+x,1/2+y,1/2+z
1/2-x,-y,1/2+z
1/2+x,1/2-y,-z
-x,1/2+y,1/2-z
1/2-x,1/2-y,1/2-z
1/2+x,y,1/2-z
1/2-x,1/2+y,z
x,1/2-y,1/2+z
loop_
_atom_site_type_symbol
_atom_site_label
_atom_site_fract_x
_atom_site_fract_y
_atom_site_fract_z
Si Si1 0.789358 0.609418 0.279533
Si Si2 0.190591 0.246870 0.842703
Si Si3 0.377015 0.089048 0.889078
Si Si4 0.510444 0.033736 0.927294
Si Si5 0.558604 0.184883 0.603216
Si Si6 0.591943 0.216331 0.969408
Si Si7 0.193223 0.905350 0.044263
O O1 0.764484 0.500000 0.250000
O O2 0.805976 0.688888 0.222952
O O3 0.737468 0.649093 0.331251
O O4 0.854965 0.596039 0.315448
O O5 0.120308 0.209948 0.856265
O O6 0.212965 0.317355 0.903147
O O7 0.445811 0.041780 0.889551
O O8 0.373440 0.203729 0.921848
O O9 0.328550 0.012616 0.923552
O O10 0.542499 0.149002 0.927285
O O11 0.549125 0.941537 0.891601
O O12 0.500000 0.000000 0.000000
O O13 0.500000 0.250000 0.632757
O O14 0.562249 0.216776 0.527731
O O15 0.639167 0.132685 0.997757
O O16 0.250000 0.936320 0.000000
#
# Coordination Sequence:
#
# PCOD8296739 Si02
#       7
#    16  16  16  16  16  16  16
#     4  11  24  46  70  85 122 176 226 263 317 379
#     4  10  24  46  65  90 123 173 214 271 318 379
#     4  12  23  38  64  93 124 173 215 261 318 387
#     4  12  20  37  61  96 131 168 199 255 332 398
#     4  11  20  37  67  94 128 165 205 254 331 394
#     4  11  21  37  59  94 135 164 202 255 333 395
#     4  11  22  37  62  97 129 159 210 267 328 391
#
# _framework density 19.837558999999999
#
# number of rings (size 3 to 8) (size 9 to 14) (size 15 to 20)
#    0.000    0.857    5.714    2.143    0.000    4.000 
#    5.143    1.429    0.000    0.000    0.000    0.000 
#    0.000    0.000    0.000    0.000    0.000    0.000 
#
# Total GULP energy -694428.636252 kJ/mol
# GULP energy per Si atom -12400.511362 kJ/mol
# Density = 1.979241 g / cm^3
# Si number density = 19.837559 Si / 1000 Ang^3
#
#
#
# Elastic Constant Matrix: (Units=GPa)
#
#
# Indices 1 2 3 4 5 6 
#
# 1 114.2073 43.5176 58.9652 0.0000 0.0000 0.0000
# 2 43.5176 119.1162 44.3203 0.0000 0.0000 0.0000
# 3 58.9652 44.3203 58.9843 0.0000 0.0000 0.0000
# 4 0.0000 0.0000 0.0000 20.1768 0.0000 0.0000
# 5 0.0000 0.0000 0.0000 0.0000 32.5660 0.0000
# 6 0.0000 0.0000 0.0000 0.0000 0.0000 32.9303
#
#
#
# Elastic Compliance Matrix: (Units=1/GPa)
#
#
# Indices 1 2 3 4 5 6 
#
# 1 0.018098 0.000166 -0.018217 0.000000 0.000000 0.000000
# 2 0.000166 0.011655 -0.008923 0.000000 0.000000 0.000000
# 3 -0.018217 -0.008923 0.041870 0.000000 0.000000 0.000000
# 4 0.000000 0.000000 0.000000 0.049562 0.000000 0.000000
# 5 0.000000 0.000000 0.000000 0.000000 0.030707 0.000000
# 6 0.000000 0.000000 0.000000 0.000000 0.000000 0.030367
#
#
# Mechanical properties :
#
#
# Convention : Reuss Voigt Hill
#
# Bulk Modulus (GPa) = 56.58020 65.10155 60.84087
# Shear Modulus (GPa) = 20.65269 26.83492 23.74381
#
# Velocity S-wave (km/s) = 3.23009 3.68194 3.46339
# Velocity P-wave (km/s) = 6.51882 7.13892 6.83590
#
# Compressibility (1/GPa) = 0.01767403
#
# Stress axis : x y z
#
# Youngs Moduli (GPa) = 55.25387 85.80305 23.88338
#
# Poissons Ratio (x) = -0.01427 0.43509
# Poissons Ratio (y) = -0.00919 0.21312
# Poissons Ratio (z) = 1.00658 0.76565
#
# Static dielectric constant tensor:
#      x y z
#    x 3.316620 0.000000 0.000000 
#    y 0.000000 3.992180 0.000000 
#    z 0.000000 0.000000 3.456990 
# 
# 
# High freq. dielectric constant tensor:
#      x y z
#    x 1.779710 0.000000 0.000000 
#    y 0.000000 1.792230 0.000000 
#    z 0.000000 0.000000 1.747830 
# 
# From -- ./inp_files/30152.got.cif
#   From: 2010.03.12/outbox.cif.g09.slc.cpg/sg73_16_cif.got.tgz:30152.got - 2010.04.16 15:25:48.
