data_PCOD8296247
_publ_section_title
;
Structure prediction by ZEFSAII (Michael W. Deem and Ramdas Pophale) SiO2 
 PCOD8296247
Probable space group: I B C A 
;
_chemical_formula_sum "Si O2"
_cell_formula_units_Z 120
_cell_length_a 13.153918
_cell_length_b 22.892174
_cell_length_c 19.657529
_cell_angle_alpha 90.000000
_cell_angle_beta 90.000000
_cell_angle_gamma 90.000000
_cell_volume 5919.310116
_symmetry_space_group_name_H-M "I B C A "
_symmetry_group_IT_number 73
_symmetry_cell_setting 'orthorhombic'
loop_
_space_group_symop_operation_xyz
x,y,z
-x,1/2-y,z
x,-y,1/2-z
1/2-x,y,-z
-x,-y,-z
x,1/2+y,-z
-x,y,1/2+z
1/2+x,-y,z
1/2+x,1/2+y,1/2+z
1/2-x,-y,1/2+z
1/2+x,1/2-y,-z
-x,1/2+y,1/2-z
1/2-x,1/2-y,1/2-z
1/2+x,y,1/2-z
1/2-x,1/2+y,z
x,1/2-y,1/2+z
loop_
_atom_site_type_symbol
_atom_site_label
_atom_site_fract_x
_atom_site_fract_y
_atom_site_fract_z
Si Si1 0.343219 0.621311 0.050362
Si Si2 0.736639 0.797526 0.849664
Si Si3 0.950109 0.590791 0.778193
Si Si4 0.540235 0.188520 0.556509
Si Si5 0.086592 0.887695 0.151697
Si Si6 0.888405 0.517390 0.360478
Si Si7 0.288887 0.672380 0.692724
Si Si8 0.781612 0.000000 0.250000
O O1 0.320985 0.659912 0.117508
O O2 0.367466 0.555084 0.072279
O O3 0.250000 0.619111 0.000000
O O4 0.436083 0.649668 0.009522
O O5 0.634726 0.801910 0.893405
O O6 0.716312 0.816066 0.773045
O O7 0.778712 0.731338 0.851013
O O8 0.900454 0.643957 0.822174
O O9 0.851271 0.556972 0.751537
O O10 0.015093 0.617868 0.717370
O O11 0.019147 0.547304 0.820896
O O12 0.500000 0.250000 0.529201
O O13 0.448694 0.158114 0.596027
O O14 0.201528 0.873417 0.172456
O O15 0.077448 0.952307 0.119162
O O16 0.788070 0.511011 0.315350
#
# Coordination Sequence:
#
# PCOD8296247 Si02
#       8
#    16  16  16  16  16  16  16   8
#     4  10  25  44  66  85 127 180 221 259 311 400
#     4  10  21  41  64  96 124 167 217 260 335 383
#     4  12  21  35  61 100 134 167 196 268 333 393
#     4  11  23  42  66  85 125 177 219 270 319 381
#     4  12  22  38  63  98 132 167 215 262 333 393
#     4  12  24  40  64  99 130 170 215 259 334 394
#     4  11  22  37  66 100 133 159 206 282 328 392
#     4  12  20  36  62  94 134 168 198 264 330 394
#
# _framework density 20.272632999999999
#
# number of rings (size 3 to 8) (size 9 to 14) (size 15 to 20)
#    0.000    0.800    6.667    1.600    1.867    1.600 
#    0.000    1.333    2.933    0.000    0.000    0.000 
#    0.000    0.000    0.000    0.000    0.000    0.000 
#
# Total GULP energy -744033.299455 kJ/mol
# GULP energy per Si atom -12400.554991 kJ/mol
# Density = 2.022649 g / cm^3
# Si number density = 20.272633 Si / 1000 Ang^3
#
#
#
# Elastic Constant Matrix: (Units=GPa)
#
#
# Indices 1 2 3 4 5 6 
#
# 1 65.2744 27.2985 6.0238 0.0000 0.0000 0.0000
# 2 27.2985 118.8019 23.1485 0.0000 0.0000 0.0000
# 3 6.0238 23.1485 55.6865 -0.0001 0.0000 0.0000
# 4 0.0000 0.0000 -0.0001 40.3611 0.0000 0.0000
# 5 0.0000 0.0000 0.0000 0.0000 10.6404 0.0000
# 6 0.0000 0.0000 0.0000 0.0000 0.0000 35.2751
#
#
#
# Elastic Compliance Matrix: (Units=1/GPa)
#
#
# Indices 1 2 3 4 5 6 
#
# 1 0.016951 -0.003850 -0.000233 0.000000 0.000000 0.000000
# 2 -0.003850 0.010034 -0.003754 0.000000 0.000000 0.000000
# 3 -0.000233 -0.003754 0.019544 0.000000 0.000000 0.000000
# 4 0.000000 0.000000 0.000000 0.024776 0.000000 0.000000
# 5 0.000000 0.000000 0.000000 0.000000 0.093981 0.000000
# 6 0.000000 0.000000 0.000000 0.000000 0.000000 0.028349
#
#
# Mechanical properties :
#
#
# Convention : Reuss Voigt Hill
#
# Bulk Modulus (GPa) = 32.41118 39.18939 35.80028
# Shear Modulus (GPa) = 22.76924 29.47477 26.12200
#
# Velocity S-wave (km/s) = 3.35498 3.81717 3.59351
# Velocity P-wave (km/s) = 5.57048 6.22903 5.90894
#
# Compressibility (1/GPa) = 0.03085355
#
# Stress axis : x y z
#
# Youngs Moduli (GPa) = 58.99197 99.66606 51.16757
#
# Poissons Ratio (x) = 0.38368 0.01194
# Poissons Ratio (y) = 0.22710 0.19211
# Poissons Ratio (z) = 0.01377 0.37419
#
# Static dielectric constant tensor:
#      x y z
#    x 3.789890 0.000000 0.000000 
#    y 0.000000 4.206570 0.000000 
#    z 0.000000 0.000000 3.560020 
# 
# 
# High freq. dielectric constant tensor:
#      x y z
#    x 1.799570 0.000000 0.000000 
#    y 0.000000 1.813200 0.000000 
#    z 0.000000 0.000000 1.765400 
# 
# From -- ./inp_files/25626.got.cif
#   From: 2010.03.12/outbox.cif.g09.slc.cpg/sg73_13_cif.got.tgz:25626.got - 2010.04.16 15:25:48.
