data_PCOD8296319
_publ_section_title
;
Structure prediction by ZEFSAII (Michael W. Deem and Ramdas Pophale) SiO2 
 PCOD8296319
Probable space group: I B C A 
;
_chemical_formula_sum "Si O2"
_cell_formula_units_Z 96
_cell_length_a 16.858283
_cell_length_b 9.635865
_cell_length_c 30.656731
_cell_angle_alpha 90.000000
_cell_angle_beta 90.000000
_cell_angle_gamma 90.000000
_cell_volume 4980.006276
_symmetry_space_group_name_H-M "I B C A "
_symmetry_group_IT_number 73
_symmetry_cell_setting 'orthorhombic'
loop_
_space_group_symop_operation_xyz
x,y,z
-x,1/2-y,z
x,-y,1/2-z
1/2-x,y,-z
-x,-y,-z
x,1/2+y,-z
-x,y,1/2+z
1/2+x,-y,z
1/2+x,1/2+y,1/2+z
1/2-x,-y,1/2+z
1/2+x,1/2-y,-z
-x,1/2+y,1/2-z
1/2-x,1/2-y,1/2-z
1/2+x,y,1/2-z
1/2-x,1/2+y,z
x,1/2-y,1/2+z
loop_
_atom_site_type_symbol
_atom_site_label
_atom_site_fract_x
_atom_site_fract_y
_atom_site_fract_z
Si Si1 0.686207 0.016104 0.072994
Si Si2 0.708143 0.520661 0.671764
Si Si3 0.331561 0.800049 0.063331
Si Si4 0.000000 0.750000 0.785921
Si Si5 0.654138 0.675923 0.162561
Si Si6 0.406452 0.000000 0.750000
Si Si7 0.553417 0.374087 0.513571
O O1 0.679200 0.035955 0.124983
O O2 0.699231 0.856931 0.060014
O O3 0.759263 0.098724 0.052119
O O4 0.606878 0.079431 0.053641
O O5 0.796380 0.457937 0.679931
O O6 0.708307 0.688307 0.672748
O O7 0.647888 0.466082 0.708290
O O8 0.364510 0.834853 0.111315
O O9 0.400243 0.822635 0.028844
O O10 0.931496 0.680622 0.815156
O O11 0.037905 0.632834 0.755781
O O12 0.500000 0.250000 0.531814
O O13 0.500000 0.500000 0.500000
#
# Coordination Sequence:
#
# PCOD8296319 Si02
#       7
#    16  16  16   8  16   8  16
#     4  10  22  41  59  84 116 153 199 238 290 346
#     4   9  20  39  60  84 114 153 194 241 281 360
#     4  10  22  39  63  81 115 155 196 239 283 350
#     4  10  22  36  58  88 118 148 186 240 300 346
#     4   9  20  38  62  86 113 152 194 238 294 341
#     4  10  22  38  58  86 120 152 192 236 296 350
#     4  12  25  38  57  86 118 155 192 241 294 340
#
# _framework density 19.277083999999999
#
# number of rings (size 3 to 8) (size 9 to 14) (size 15 to 20)
#    0.000    2.000    1.667    0.500    3.500    7.333 
#    1.500    0.000    0.000    0.000    0.000    0.000 
#    0.000    0.000    0.000    0.000    0.000    0.000 
#
# Total GULP energy -595311.017788 kJ/mol
# GULP energy per Si atom -12402.312871 kJ/mol
# Density = 1.923321 g / cm^3
# Si number density = 19.277084 Si / 1000 Ang^3
#
#
#
# Elastic Constant Matrix: (Units=GPa)
#
#
# Indices 1 2 3 4 5 6 
#
# 1 109.4609 47.0850 46.3169 0.0000 0.0000 0.0000
# 2 47.0850 91.6044 34.0884 0.0000 0.0000 0.0000
# 3 46.3169 34.0884 79.2121 0.0000 0.0000 0.0000
# 4 0.0000 0.0000 0.0000 26.7980 0.0000 0.0000
# 5 0.0000 0.0000 0.0000 0.0000 32.4691 0.0000
# 6 0.0000 0.0000 0.0000 0.0000 0.0000 48.1647
#
#
#
# Elastic Compliance Matrix: (Units=1/GPa)
#
#
# Indices 1 2 3 4 5 6 
#
# 1 0.013737 -0.004848 -0.005946 0.000000 0.000000 0.000000
# 2 -0.004848 0.014709 -0.003495 0.000000 0.000000 0.000000
# 3 -0.005946 -0.003495 0.017605 0.000000 0.000000 0.000000
# 4 0.000000 0.000000 0.000000 0.037316 0.000000 0.000000
# 5 0.000000 0.000000 0.000000 0.000000 0.030799 0.000000
# 6 0.000000 0.000000 0.000000 0.000000 0.000000 0.020762
#
#
# Mechanical properties :
#
#
# Convention : Reuss Voigt Hill
#
# Bulk Modulus (GPa) = 57.23193 59.47312 58.35253
# Shear Modulus (GPa) = 29.52792 31.67215 30.60004
#
# Velocity S-wave (km/s) = 3.91802 4.05778 3.98851
# Velocity P-wave (km/s) = 7.08671 7.27137 7.17963
#
# Compressibility (1/GPa) = 0.01747276
#
# Stress axis : x y z
#
# Youngs Moduli (GPa) = 72.79535 67.98474 56.80161
#
# Poissons Ratio (x) = 0.32961 0.33774
# Poissons Ratio (y) = 0.35293 0.19853
# Poissons Ratio (z) = 0.43284 0.23761
#
# Static dielectric constant tensor:
#      x y z
#    x 3.426500 0.000000 0.000000 
#    y 0.000000 3.684450 0.000000 
#    z 0.000000 0.000000 4.796890 
# 
# 
# High freq. dielectric constant tensor:
#      x y z
#    x 1.749530 0.000000 0.000000 
#    y 0.000000 1.758300 0.000000 
#    z 0.000000 0.000000 1.755040 
# 
# From -- ./inp_files/34277.got.cif
#   From: 2010.03.12/outbox.cif.g09.slc.cpg/sg73_18_cif.got.tgz:34277.got - 2010.04.16 15:25:48.
