data_PCOD8296338
_publ_section_title
;
Structure prediction by ZEFSAII (Michael W. Deem and Ramdas Pophale) SiO2 
 PCOD8296338
Probable space group: I B C A 
;
_chemical_formula_sum "Si O2"
_cell_formula_units_Z 56
_cell_length_a 16.939156
_cell_length_b 13.953870
_cell_length_c 11.008868
_cell_angle_alpha 90.000000
_cell_angle_beta 90.000000
_cell_angle_gamma 90.000000
_cell_volume 2602.130689
_symmetry_space_group_name_H-M "I B C A "
_symmetry_group_IT_number 73
_symmetry_cell_setting 'orthorhombic'
loop_
_space_group_symop_operation_xyz
x,y,z
-x,1/2-y,z
x,-y,1/2-z
1/2-x,y,-z
-x,-y,-z
x,1/2+y,-z
-x,y,1/2+z
1/2+x,-y,z
1/2+x,1/2+y,1/2+z
1/2-x,-y,1/2+z
1/2+x,1/2-y,-z
-x,1/2+y,1/2-z
1/2-x,1/2-y,1/2-z
1/2+x,y,1/2-z
1/2-x,1/2+y,z
x,1/2-y,1/2+z
loop_
_atom_site_type_symbol
_atom_site_label
_atom_site_fract_x
_atom_site_fract_y
_atom_site_fract_z
Si Si1 0.710023 0.500000 0.250000
Si Si2 0.607096 0.150317 0.845739
Si Si3 0.351984 0.458728 0.088138
Si Si4 0.421038 0.363358 0.324268
O O1 0.653977 0.594791 0.262372
O O2 0.762185 0.515037 0.128127
O O3 0.624025 0.263449 0.849744
O O4 0.514660 0.140829 0.825162
O O5 0.640110 0.102891 0.968030
O O6 0.393056 0.397693 0.193328
O O7 0.396250 0.560605 0.072068
#
# Coordination Sequence:
#
# PCOD8296338 Si02
#       4
#     8  16  16  16
#     4  10  22  38  58  88 120 158 206 252 310 382
#     4  11  21  38  64  89 121 167 211 264 321 371
#     4  10  22  40  57  88 128 162 207 264 320 375
#     4   9  22  38  60  89 120 162 215 260 309 385
#
# _framework density 21.520826
#
# number of rings (size 3 to 8) (size 9 to 14) (size 15 to 20)
#    0.000    2.286    0.000    3.429    0.000   11.429 
#    0.000    5.714    0.000    0.000    0.000    0.000 
#    0.000    0.000    0.000    0.000    0.000    0.000 
#
# Total GULP energy -346956.164920 kJ/mol
# GULP energy per Si atom -12391.291604 kJ/mol
# Density = 2.147184 g / cm^3
# Si number density = 21.520826 Si / 1000 Ang^3
#
#
#
# Elastic Constant Matrix: (Units=GPa)
#
#
# Indices 1 2 3 4 5 6 
#
# 1 111.3369 80.1480 37.3300 0.0000 0.0000 0.0000
# 2 80.1480 222.8703 60.3035 0.0000 0.0000 0.0000
# 3 37.3300 60.3035 86.3640 0.0000 0.0000 0.0000
# 4 0.0000 0.0000 0.0000 27.4981 0.0000 0.0000
# 5 0.0000 0.0000 0.0000 0.0000 3.8833 0.0000
# 6 0.0000 0.0000 0.0000 0.0000 0.0000 29.4298
#
#
#
# Elastic Compliance Matrix: (Units=1/GPa)
#
#
# Indices 1 2 3 4 5 6 
#
# 1 0.012655 -0.003786 -0.002826 0.000000 0.000000 0.000000
# 2 -0.003786 0.006665 -0.003017 0.000000 0.000000 0.000000
# 3 -0.002826 -0.003017 0.014907 0.000000 0.000000 0.000000
# 4 0.000000 0.000000 0.000000 0.036366 0.000000 0.000000
# 5 0.000000 0.000000 0.000000 0.000000 0.257513 0.000000
# 6 0.000000 0.000000 0.000000 0.000000 0.000000 0.033979
#
#
# Mechanical properties :
#
#
# Convention : Reuss Voigt Hill
#
# Bulk Modulus (GPa) = 66.81020 86.23711 76.52365
# Shear Modulus (GPa) = 12.94217 28.34824 20.64520
#
# Velocity S-wave (km/s) = 2.45496 3.63333 3.10064
# Velocity P-wave (km/s) = 6.25681 7.59999 6.96087
#
# Compressibility (1/GPa) = 0.01496777
#
# Stress axis : x y z
#
# Youngs Moduli (GPa) = 79.02054 150.04023 67.08136
#
# Poissons Ratio (x) = 0.56808 0.18959
# Poissons Ratio (y) = 0.29919 0.20240
# Poissons Ratio (z) = 0.22333 0.45270
#
# Static dielectric constant tensor:
#      x y z
#    x 4.114130 0.000000 0.000000 
#    y 0.000000 4.480050 0.000000 
#    z 0.000000 0.000000 3.657250 
# 
# 
# High freq. dielectric constant tensor:
#      x y z
#    x 1.864440 0.000000 0.000000 
#    y 0.000000 1.859360 0.000000 
#    z 0.000000 0.000000 1.824780 
# 
# From -- ./inp_files/10249.got.cif
#   From: 2010.03.12/outbox.cif.g09.slc.cpg/sg73_6_cif.got.tgz:10249.got - 2010.04.16 15:25:48.
