data_PCOD8296154
_publ_section_title
;
Structure prediction by ZEFSAII (Michael W. Deem and Ramdas Pophale) SiO2 
 PCOD8296154
Probable space group: I B C A 
;
_chemical_formula_sum "Si O2"
_cell_formula_units_Z 112
_cell_length_a 20.617476
_cell_length_b 12.782205
_cell_length_c 20.610171
_cell_angle_alpha 90.000000
_cell_angle_beta 90.000000
_cell_angle_gamma 90.000000
_cell_volume 5431.538612
_symmetry_space_group_name_H-M "I B C A "
_symmetry_group_IT_number 73
_symmetry_cell_setting 'orthorhombic'
loop_
_space_group_symop_operation_xyz
x,y,z
-x,1/2-y,z
x,-y,1/2-z
1/2-x,y,-z
-x,-y,-z
x,1/2+y,-z
-x,y,1/2+z
1/2+x,-y,z
1/2+x,1/2+y,1/2+z
1/2-x,-y,1/2+z
1/2+x,1/2-y,-z
-x,1/2+y,1/2-z
1/2-x,1/2-y,1/2-z
1/2+x,y,1/2-z
1/2-x,1/2+y,z
x,1/2-y,1/2+z
loop_
_atom_site_type_symbol
_atom_site_label
_atom_site_fract_x
_atom_site_fract_y
_atom_site_fract_z
Si Si1 0.084985 0.583100 0.696054
Si Si2 0.487098 0.139411 0.408723
Si Si3 0.369778 0.653341 0.501694
Si Si4 0.355744 0.730295 0.868159
Si Si5 0.558827 0.044999 0.683799
Si Si6 0.275826 0.298380 0.432009
Si Si7 0.117214 0.542708 0.928562
O O1 0.109453 0.500000 0.750000
O O2 0.125537 0.692305 0.692305
O O3 0.097691 0.533095 0.627939
O O4 0.007874 0.605841 0.703117
O O5 0.500000 0.250000 0.370839
O O6 0.438330 0.166086 0.465475
O O7 0.552182 0.104753 0.446762
O O8 0.458443 0.054213 0.360347
O O9 0.376690 0.726488 0.438256
O O10 0.311148 0.688791 0.549178
O O11 0.357149 0.530823 0.486728
O O12 0.390827 0.619827 0.853677
O O13 0.277733 0.716417 0.875344
O O14 0.590997 0.000000 0.750000
O O15 0.250000 0.345841 0.500000
O O16 0.327867 0.378804 0.403844
#
# Coordination Sequence:
#
# PCOD8296154 Si02
#       7
#    16  16  16  16  16  16  16
#     4   9  20  40  66  89 120 162 213 265 326 374
#     4  11  22  37  63  96 127 159 210 274 333 386
#     4  10  22  38  62  92 128 164 210 263 328 393
#     4  10  22  42  62  94 124 169 217 258 326 396
#     4  10  23  41  64  94 124 171 211 272 327 385
#     4  10  22  39  57  87 126 170 205 251 319 389
#     4  10  21  38  59  91 123 166 204 258 325 389
#
# _framework density 20.620308999999999
#
# number of rings (size 3 to 8) (size 9 to 14) (size 15 to 20)
#    0.000    2.000    1.429    0.857    4.000    9.714 
#    0.000    1.429    0.000    0.000    0.000    0.000 
#    0.000    0.000    0.000    0.000    0.000    0.000 
#
# Total GULP energy -693850.438323 kJ/mol
# GULP energy per Si atom -12390.186399 kJ/mol
# Density = 2.057338 g / cm^3
# Si number density = 20.620309 Si / 1000 Ang^3
#
#
#
# Elastic Constant Matrix: (Units=GPa)
#
#
# Indices 1 2 3 4 5 6 
#
# 1 140.8054 73.4617 43.0365 0.0000 0.0000 0.0000
# 2 73.4617 150.1154 43.0281 0.0000 0.0000 0.0000
# 3 43.0365 43.0281 44.4237 0.0000 0.0000 0.0000
# 4 0.0000 0.0000 0.0000 23.1404 0.0000 0.0000
# 5 0.0000 0.0000 0.0000 0.0000 27.1330 0.0000
# 6 0.0000 0.0000 0.0000 0.0000 0.0000 21.1054
#
#
#
# Elastic Compliance Matrix: (Units=1/GPa)
#
#
# Indices 1 2 3 4 5 6 
#
# 1 0.011136 -0.003263 -0.007627 0.000000 0.000000 0.000000
# 2 -0.003263 0.010178 -0.006697 0.000000 0.000000 0.000000
# 3 -0.007627 -0.006697 0.036386 0.000000 0.000000 0.000000
# 4 0.000000 0.000000 0.000000 0.043214 0.000000 0.000000
# 5 0.000000 0.000000 0.000000 0.000000 0.036855 0.000000
# 6 0.000000 0.000000 0.000000 0.000000 0.000000 0.047381
#
#
# Mechanical properties :
#
#
# Convention : Reuss Voigt Hill
#
# Bulk Modulus (GPa) = 44.39511 72.71079 58.55295
# Shear Modulus (GPa) = 21.94576 25.99698 23.97137
#
# Velocity S-wave (km/s) = 3.26587 3.55455 3.41326
# Velocity P-wave (km/s) = 5.98312 7.22390 6.63259
#
# Compressibility (1/GPa) = 0.02252501
#
# Stress axis : x y z
#
# Youngs Moduli (GPa) = 89.80075 98.25077 27.48298
#
# Poissons Ratio (x) = 0.32062 0.20962
# Poissons Ratio (y) = 0.29304 0.18405
# Poissons Ratio (z) = 0.68494 0.65798
#
# Static dielectric constant tensor:
#      x y z
#    x 3.980700 0.000000 0.000000 
#    y 0.000000 4.636960 0.000000 
#    z 0.000000 0.000000 3.716310 
# 
# 
# High freq. dielectric constant tensor:
#      x y z
#    x 1.802030 0.000000 0.000000 
#    y 0.000000 1.819950 0.000000 
#    z 0.000000 0.000000 1.779150 
# 
# From -- ./inp_files/30157.got.cif
#   From: 2010.03.12/outbox.cif.g09.slc.cpg/sg73_16_cif.got.tgz:30157.got - 2010.04.16 15:25:48.
