data_PCOD8296765
_publ_section_title
;
Structure prediction by ZEFSAII (Michael W. Deem and Ramdas Pophale) SiO2 
 PCOD8296765
Probable space group: I B C A 
;
_chemical_formula_sum "Si O2"
_cell_formula_units_Z 112
_cell_length_a 13.888972
_cell_length_b 28.270234
_cell_length_c 12.665721
_cell_angle_alpha 90.000000
_cell_angle_beta 90.000000
_cell_angle_gamma 90.000000
_cell_volume 4973.125543
_symmetry_space_group_name_H-M "I B C A "
_symmetry_group_IT_number 73
_symmetry_cell_setting 'orthorhombic'
loop_
_space_group_symop_operation_xyz
x,y,z
-x,1/2-y,z
x,-y,1/2-z
1/2-x,y,-z
-x,-y,-z
x,1/2+y,-z
-x,y,1/2+z
1/2+x,-y,z
1/2+x,1/2+y,1/2+z
1/2-x,-y,1/2+z
1/2+x,1/2-y,-z
-x,1/2+y,1/2-z
1/2-x,1/2-y,1/2-z
1/2+x,y,1/2-z
1/2-x,1/2+y,z
x,1/2-y,1/2+z
loop_
_atom_site_type_symbol
_atom_site_label
_atom_site_fract_x
_atom_site_fract_y
_atom_site_fract_z
Si Si1 0.622503 0.148220 0.780400
Si Si2 0.874277 0.545901 0.711873
Si Si3 0.983283 0.304015 0.895410
Si Si4 0.208309 0.954395 0.115068
Si Si5 0.951322 0.863832 0.913127
Si Si6 0.652360 0.139889 0.197070
Si Si7 0.591275 0.031783 0.479545
O O1 0.584942 0.098824 0.725216
O O2 0.587538 0.190898 0.705391
O O3 0.561794 0.150177 0.887717
O O4 0.734206 0.152280 0.808474
O O5 0.940056 0.500000 0.750000
O O6 0.784960 0.541872 0.791880
O O7 0.847694 0.538743 0.588322
O O8 0.089086 0.325490 0.874496
O O9 0.000000 0.250000 0.925662
O O10 0.925216 0.330757 0.988307
O O11 0.134741 0.912858 0.150984
O O12 0.155744 0.005016 0.107007
O O13 0.250000 0.940055 0.000000
O O14 0.878190 0.853574 0.818215
O O15 0.944801 0.918775 0.937504
O O16 0.500000 0.000000 0.500000
#
# Coordination Sequence:
#
# PCOD8296765 Si02
#       7
#    16  16  16  16  16  16  16
#     4  10  24  47  71 100 145 180 245 288 360 435
#     4  11  22  41  64 101 140 188 236 288 333 427
#     4  11  25  48  75 107 138 179 239 302 373 434
#     4  11  25  41  68 100 139 194 240 286 346 430
#     4  11  25  44  69 102 142 187 230 307 350 425
#     4  10  26  45  73 101 141 188 230 291 368 424
#     4  12  25  40  66  96 145 188 237 283 359 408
#
# _framework density 22.521048
#
# number of rings (size 3 to 8) (size 9 to 14) (size 15 to 20)
#    0.000    1.143    2.857    1.714   12.000    3.429 
#    0.000    1.429    0.000    0.000    0.000    0.000 
#    0.000    0.000    0.000    0.000    0.000    0.000 
#
# Total GULP energy -694049.476777 kJ/mol
# GULP energy per Si atom -12393.740657 kJ/mol
# Density = 2.246979 g / cm^3
# Si number density = 22.521048 Si / 1000 Ang^3
#
#
#
# Elastic Constant Matrix: (Units=GPa)
#
#
# Indices 1 2 3 4 5 6 
#
# 1 80.2120 7.1111 36.6309 -0.0003 -0.0007 -0.0001
# 2 7.1111 112.3058 26.8553 -0.0004 -0.0007 0.0000
# 3 36.6309 26.8553 118.0434 -0.0020 -0.0059 0.0006
# 4 -0.0003 -0.0004 -0.0020 25.7523 -0.0004 -0.0001
# 5 -0.0007 -0.0007 -0.0059 -0.0004 22.7959 -0.0003
# 6 -0.0001 0.0000 0.0006 -0.0001 -0.0003 26.0611
#
#
#
# Elastic Compliance Matrix: (Units=1/GPa)
#
#
# Indices 1 2 3 4 5 6 
#
# 1 0.014528 0.000167 -0.004546 0.000000 -0.000001 0.000000
# 2 0.000167 0.009418 -0.002195 0.000000 0.000000 0.000000
# 3 -0.004546 -0.002195 0.010382 0.000001 0.000002 0.000000
# 4 0.000000 0.000000 0.000001 0.038832 0.000001 0.000000
# 5 -0.000001 0.000000 0.000002 0.000001 0.043868 0.000000
# 6 0.000000 0.000000 0.000000 0.000000 0.000000 0.038371
#
#
# Mechanical properties :
#
#
# Convention : Reuss Voigt Hill
#
# Bulk Modulus (GPa) = 47.21261 50.19506 48.70384
# Shear Modulus (GPa) = 28.47270 30.91945 29.69608
#
# Velocity S-wave (km/s) = 3.55952 3.70930 3.63518
# Velocity P-wave (km/s) = 6.15653 6.37822 6.26835
#
# Compressibility (1/GPa) = 0.02118078
#
# Stress axis : x y z
#
# Youngs Moduli (GPa) = 68.83069 106.17444 96.32431
#
# Poissons Ratio (x) = -0.01776 0.43794
# Poissons Ratio (y) = -0.01151 0.21140
# Poissons Ratio (z) = 0.31294 0.23301
#
# Static dielectric constant tensor:
#      x y z
#    x 3.806150 0.000000 -0.000010 
#    y 0.000000 4.326020 0.000020 
#    z -0.000010 0.000020 3.906010 
# 
# 
# High freq. dielectric constant tensor:
#      x y z
#    x 1.874770 0.000000 0.000000 
#    y 0.000000 1.875050 0.000000 
#    z 0.000000 0.000000 1.905820 
# 
# From -- ./inp_files/11250.got.cif
#   From: 2010.03.12/outbox.cif.g09.slc.cpg/sg73_6_cif.got.tgz:11250.got - 2010.04.16 15:25:48.
