data_PCOD8296866
_publ_section_title
;
Structure prediction by ZEFSAII (Michael W. Deem and Ramdas Pophale) SiO2 
 PCOD8296866
Probable space group: I B C A 
;
_chemical_formula_sum "Si O2"
_cell_formula_units_Z 88
_cell_length_a 12.824224
_cell_length_b 22.234626
_cell_length_c 14.317609
_cell_angle_alpha 90.000000
_cell_angle_beta 90.000000
_cell_angle_gamma 90.000000
_cell_volume 4082.549151
_symmetry_space_group_name_H-M "I B C A "
_symmetry_group_IT_number 73
_symmetry_cell_setting 'orthorhombic'
loop_
_space_group_symop_operation_xyz
x,y,z
-x,1/2-y,z
x,-y,1/2-z
1/2-x,y,-z
-x,-y,-z
x,1/2+y,-z
-x,y,1/2+z
1/2+x,-y,z
1/2+x,1/2+y,1/2+z
1/2-x,-y,1/2+z
1/2+x,1/2-y,-z
-x,1/2+y,1/2-z
1/2-x,1/2-y,1/2-z
1/2+x,y,1/2-z
1/2-x,1/2+y,z
x,1/2-y,1/2+z
loop_
_atom_site_type_symbol
_atom_site_label
_atom_site_fract_x
_atom_site_fract_y
_atom_site_fract_z
Si Si1 0.871263 0.352854 0.597669
Si Si2 0.614871 0.104239 0.694828
Si Si3 0.014805 0.000000 0.250000
Si Si4 0.578156 0.339284 0.010660
Si Si5 0.827956 0.061182 0.619102
Si Si6 0.250000 0.740525 0.500000
Si Si7 0.250000 0.045157 0.500000
O O1 0.896914 0.363697 0.705452
O O2 0.777972 0.303749 0.587369
O O3 0.840016 0.415140 0.547751
O O4 0.972721 0.326135 0.545448
O O5 0.560168 0.039556 0.685250
O O6 0.556692 0.145313 0.618618
O O7 0.736736 0.095161 0.673973
O O8 0.079744 0.048803 0.191481
O O9 0.637989 0.395825 0.965123
O O10 0.648517 0.280171 0.016636
O O11 0.798607 0.995863 0.580532
#
# Coordination Sequence:
#
# PCOD8296866 Si02
#       7
#    16  16   8  16  16   8   8
#     4  11  26  44  72 103 135 184 239 289 352 421
#     4  12  24  42  69 102 141 179 232 281 349 431
#     4  12  24  36  66 106 142 180 222 282 342 450
#     4  12  24  48  69  99 139 186 233 291 359 416
#     4  12  23  41  67 101 144 185 222 283 361 425
#     4  11  25  52  70  92 137 177 238 310 336 405
#     4  11  21  42  66 102 145 179 220 286 344 427
#
# _framework density 21.555159
#
# number of rings (size 3 to 8) (size 9 to 14) (size 15 to 20)
#    0.000    0.364    5.455    4.364    0.000    3.636 
#    0.000    1.818    0.000    0.000    0.000    0.000 
#    0.000    0.000    0.000    0.000    0.000    0.000 
#
# Total GULP energy -545685.679279 kJ/mol
# GULP energy per Si atom -12401.947256 kJ/mol
# Density = 2.150610 g / cm^3
# Si number density = 21.555159 Si / 1000 Ang^3
#
#
#
# Elastic Constant Matrix: (Units=GPa)
#
#
# Indices 1 2 3 4 5 6 
#
# 1 97.2820 36.9641 46.6476 0.0002 0.0000 0.0000
# 2 36.9641 112.6839 44.1926 0.0009 0.0000 0.0001
# 3 46.6476 44.1926 146.4431 0.0009 -0.0001 0.0000
# 4 0.0002 0.0009 0.0009 17.5579 -0.0001 0.0000
# 5 0.0000 0.0000 -0.0001 -0.0001 31.0525 0.0000
# 6 0.0000 0.0001 0.0000 0.0000 0.0000 21.6416
#
#
#
# Elastic Compliance Matrix: (Units=1/GPa)
#
#
# Indices 1 2 3 4 5 6 
#
# 1 0.012962 -0.002986 -0.003228 0.000000 0.000000 0.000000
# 2 -0.002986 0.010754 -0.002294 0.000000 0.000000 0.000000
# 3 -0.003228 -0.002294 0.008549 0.000000 0.000000 0.000000
# 4 0.000000 0.000000 0.000000 0.056954 0.000000 0.000000
# 5 0.000000 0.000000 0.000000 0.000000 0.032204 0.000000
# 6 0.000000 0.000000 0.000000 0.000000 0.000000 0.046207
#
#
# Mechanical properties :
#
#
# Convention : Reuss Voigt Hill
#
# Bulk Modulus (GPa) = 65.57865 68.00197 66.79031
# Shear Modulus (GPa) = 26.35354 29.29071 27.82212
#
# Velocity S-wave (km/s) = 3.50038 3.69029 3.59659
# Velocity P-wave (km/s) = 6.84299 7.05507 6.94984
#
# Compressibility (1/GPa) = 0.01524886
#
# Stress axis : x y z
#
# Youngs Moduli (GPa) = 77.15036 92.99250 116.97288
#
# Poissons Ratio (x) = 0.27768 0.37755
# Poissons Ratio (y) = 0.23037 0.26833
# Poissons Ratio (z) = 0.24902 0.21332
#
# Static dielectric constant tensor:
#      x y z
#    x 4.095670 0.000000 0.000000 
#    y 0.000000 3.961200 0.000000 
#    z 0.000000 0.000000 3.908080 
# 
# 
# High freq. dielectric constant tensor:
#      x y z
#    x 1.857430 0.000000 0.000000 
#    y 0.000000 1.852390 0.000000 
#    z 0.000000 0.000000 1.842030 
# 
# From -- ./inp_files/16167.got.cif
#   From: 2010.03.12/outbox.cif.g09.slc.cpg/sg73_9_cif.got.tgz:16167.got - 2010.04.16 15:25:48.
