data_PCOD8296111
_publ_section_title
;
Structure prediction by ZEFSAII (Michael W. Deem and Ramdas Pophale) SiO2 
 PCOD8296111
Probable space group: I B C A 
;
_chemical_formula_sum "Si O2"
_cell_formula_units_Z 112
_cell_length_a 13.867159
_cell_length_b 27.468809
_cell_length_c 13.934957
_cell_angle_alpha 90.000000
_cell_angle_beta 90.000000
_cell_angle_gamma 90.000000
_cell_volume 5308.024976
_symmetry_space_group_name_H-M "I B C A "
_symmetry_group_IT_number 73
_symmetry_cell_setting 'orthorhombic'
loop_
_space_group_symop_operation_xyz
x,y,z
-x,1/2-y,z
x,-y,1/2-z
1/2-x,y,-z
-x,-y,-z
x,1/2+y,-z
-x,y,1/2+z
1/2+x,-y,z
1/2+x,1/2+y,1/2+z
1/2-x,-y,1/2+z
1/2+x,1/2-y,-z
-x,1/2+y,1/2-z
1/2-x,1/2-y,1/2-z
1/2+x,y,1/2-z
1/2-x,1/2+y,z
x,1/2-y,1/2+z
loop_
_atom_site_type_symbol
_atom_site_label
_atom_site_fract_x
_atom_site_fract_y
_atom_site_fract_z
Si Si1 0.567726 0.910310 0.153336
Si Si2 0.145953 0.806146 0.626076
Si Si3 0.655579 0.500000 0.250000
Si Si4 0.945950 0.595562 0.674468
Si Si5 0.000000 0.250000 0.235900
Si Si6 0.865840 0.689836 0.403432
Si Si7 0.953650 0.947351 0.503793
Si Si8 0.798540 0.504657 0.409110
O O1 0.538890 0.892411 0.259347
O O2 0.629548 0.868444 0.103238
O O3 0.632505 0.959261 0.150724
O O4 0.464734 0.922284 0.100455
O O5 0.131218 0.861109 0.666241
O O6 0.082129 0.772495 0.695643
O O7 0.114437 0.797289 0.515302
O O8 0.259675 0.793244 0.632240
O O9 0.594165 0.545350 0.284447
O O10 0.719105 0.482381 0.339300
O O11 0.984318 0.588710 0.568284
O O12 0.948205 0.288090 0.164986
O O13 0.847625 0.955902 0.546067
O O14 0.000000 0.000000 0.500000
O O15 0.750000 0.532957 0.500000
#
# Coordination Sequence:
#
# PCOD8296111 Si02
#       8
#    16  16   8  16   8  16  16  16
#     4  11  21  38  61  88 123 170 217 263 318 382
#     4  11  25  43  73 100 130 172 220 268 332 408
#     4  12  22  34  56  86 128 168 216 268 304 368
#     4  12  22  40  60  91 126 175 220 262 319 382
#     4  12  24  50  70 104 132 164 208 284 350 388
#     4  11  24  43  72 101 128 166 217 270 331 408
#     4  10  21  36  57  82 121 170 211 259 314 365
#     4  11  22  35  55  87 127 171 220 267 310 371
#
# _framework density 21.100125999999999
#
# number of rings (size 3 to 8) (size 9 to 14) (size 15 to 20)
#    0.000    0.857    2.857    6.857    2.000    0.000 
#    0.000    0.000    0.000    0.000    0.000    0.000 
#    0.000    0.000    0.000    0.000    0.000    0.000 
#
# Total GULP energy -693950.849911 kJ/mol
# GULP energy per Si atom -12391.979463 kJ/mol
# Density = 2.105210 g / cm^3
# Si number density = 21.100126 Si / 1000 Ang^3
#
#
#
# Elastic Constant Matrix: (Units=GPa)
#
#
# Indices 1 2 3 4 5 6 
#
# 1 84.6315 18.6141 28.7909 0.0000 0.0000 0.0002
# 2 18.6141 67.6313 15.4642 -0.0002 0.0000 0.0001
# 3 28.7909 15.4642 97.3327 -0.0010 0.0002 0.0010
# 4 0.0000 -0.0002 -0.0010 28.5300 0.0001 0.0003
# 5 0.0000 0.0000 0.0002 0.0001 43.0452 0.0001
# 6 0.0002 0.0001 0.0010 0.0003 0.0001 66.1391
#
#
#
# Elastic Compliance Matrix: (Units=1/GPa)
#
#
# Indices 1 2 3 4 5 6 
#
# 1 0.013682 -0.002947 -0.003579 0.000000 0.000000 0.000000
# 2 -0.002947 0.015978 -0.001667 0.000000 0.000000 0.000000
# 3 -0.003579 -0.001667 0.011597 0.000000 0.000000 0.000000
# 4 0.000000 0.000000 0.000000 0.035051 0.000000 0.000000
# 5 0.000000 0.000000 0.000000 0.000000 0.023231 0.000000
# 6 0.000000 0.000000 0.000000 0.000000 0.000000 0.015120
#
#
# Mechanical properties :
#
#
# Convention : Reuss Voigt Hill
#
# Bulk Modulus (GPa) = 40.20632 41.70376 40.95504
# Shear Modulus (GPa) = 35.88458 39.99127 37.93793
#
# Velocity S-wave (km/s) = 4.12841 4.35824 4.24488
# Velocity P-wave (km/s) = 6.46694 6.71813 6.59373
#
# Compressibility (1/GPa) = 0.02487171
#
# Stress axis : x y z
#
# Youngs Moduli (GPa) = 73.09073 62.58469 86.22586
#
# Poissons Ratio (x) = 0.18445 0.30858
# Poissons Ratio (y) = 0.21542 0.14372
# Poissons Ratio (z) = 0.26157 0.10432
#
# Static dielectric constant tensor:
#      x y z
#    x 3.685420 0.000000 0.000000 
#    y 0.000000 3.379730 0.000000 
#    z 0.000000 0.000000 4.135310 
# 
# 
# High freq. dielectric constant tensor:
#      x y z
#    x 1.828090 0.000000 0.000000 
#    y 0.000000 1.797060 0.000000 
#    z 0.000000 0.000000 1.852610 
# 
# From -- ./inp_files/17412.got.cif
#   From: 2010.03.12/outbox.cif.g09.slc.cpg/sg73_9_cif.got.tgz:17412.got - 2010.04.16 15:25:48.
