data_PCOD8296392
_publ_section_title
;
Structure prediction by ZEFSAII (Michael W. Deem and Ramdas Pophale) SiO2 
 PCOD8296392
Probable space group: I B C A 
;
_chemical_formula_sum "Si O2"
_cell_formula_units_Z 104
_cell_length_a 19.549590
_cell_length_b 8.694072
_cell_length_c 29.381323
_cell_angle_alpha 90.000000
_cell_angle_beta 90.000000
_cell_angle_gamma 90.000000
_cell_volume 4993.812519
_symmetry_space_group_name_H-M "I B C A "
_symmetry_group_IT_number 73
_symmetry_cell_setting 'orthorhombic'
loop_
_space_group_symop_operation_xyz
x,y,z
-x,1/2-y,z
x,-y,1/2-z
1/2-x,y,-z
-x,-y,-z
x,1/2+y,-z
-x,y,1/2+z
1/2+x,-y,z
1/2+x,1/2+y,1/2+z
1/2-x,-y,1/2+z
1/2+x,1/2-y,-z
-x,1/2+y,1/2-z
1/2-x,1/2-y,1/2-z
1/2+x,y,1/2-z
1/2-x,1/2+y,z
x,1/2-y,1/2+z
loop_
_atom_site_type_symbol
_atom_site_label
_atom_site_fract_x
_atom_site_fract_y
_atom_site_fract_z
Si Si1 0.500000 0.750000 0.010014
Si Si2 0.048196 0.604761 0.709537
Si Si3 0.762487 0.191448 0.670410
Si Si4 0.658108 0.587015 0.863881
Si Si5 0.844673 0.954073 0.297761
Si Si6 0.467692 0.416007 0.859294
Si Si7 0.550628 0.020029 0.062172
O O1 0.446744 0.652385 0.041034
O O2 0.455677 0.862110 0.978936
O O3 0.079269 0.500000 0.750000
O O4 0.109744 0.657152 0.676297
O O5 0.000000 0.750000 0.723884
O O6 0.003160 0.479517 0.684926
O O7 0.723333 0.299486 0.633022
O O8 0.801864 0.296543 0.707472
O O9 0.818364 0.086438 0.645725
O O10 0.707573 0.092208 0.696863
O O11 0.618611 0.571625 0.911498
O O12 0.888692 0.925594 0.344088
O O13 0.883936 0.000000 0.250000
O O14 0.500000 0.250000 0.869604
O O15 0.484702 0.522941 0.903311
#
# Coordination Sequence:
#
# PCOD8296392 Si02
#       7
#     8  16  16  16  16  16  16
#     4  10  22  40  68 100 124 148 186 254 324 396
#     4  11  23  37  57  89 125 163 210 265 323 368
#     4  10  23  39  58  85 117 178 210 256 284 348
#     4  10  23  41  62  87 125 164 213 251 300 372
#     4  11  22  37  57  86 121 168 213 253 292 344
#     4  11  22  36  59  89 126 158 199 255 315 376
#     4  10  22  40  65  99 122 154 193 249 327 377
#
# _framework density 20.825771
#
# number of rings (size 3 to 8) (size 9 to 14) (size 15 to 20)
#    0.000    1.538    0.769    4.154    6.462    6.154 
#    0.000    0.000    0.000    2.769    0.000    0.000 
#    0.000    0.000    0.000    0.000    0.000    0.000 
#
# Total GULP energy -644227.527774 kJ/mol
# GULP energy per Si atom -12388.990919 kJ/mol
# Density = 2.077837 g / cm^3
# Si number density = 20.825771 Si / 1000 Ang^3
#
#
#
# Elastic Constant Matrix: (Units=GPa)
#
#
# Indices 1 2 3 4 5 6 
#
# 1 70.4247 17.9784 22.0236 0.0000 0.0000 0.0000
# 2 17.9784 79.6931 19.6906 0.0000 0.0000 0.0000
# 3 22.0236 19.6906 94.3532 0.0000 0.0000 0.0000
# 4 0.0000 0.0000 0.0000 21.9544 0.0000 0.0000
# 5 0.0000 0.0000 0.0000 0.0000 29.9125 0.0000
# 6 0.0000 0.0000 0.0000 0.0000 0.0000 35.8480
#
#
#
# Elastic Compliance Matrix: (Units=1/GPa)
#
#
# Indices 1 2 3 4 5 6 
#
# 1 0.015895 -0.002814 -0.003123 0.000000 0.000000 0.000000
# 2 -0.002814 0.013729 -0.002208 0.000000 0.000000 0.000000
# 3 -0.003123 -0.002208 0.011788 0.000000 0.000000 0.000000
# 4 0.000000 0.000000 0.000000 0.045549 0.000000 0.000000
# 5 0.000000 0.000000 0.000000 0.000000 0.033431 0.000000
# 6 0.000000 0.000000 0.000000 0.000000 0.000000 0.027896
#
#
# Mechanical properties :
#
#
# Convention : Reuss Voigt Hill
#
# Bulk Modulus (GPa) = 39.80705 40.42847 40.11776
# Shear Modulus (GPa) = 28.90999 29.86153 29.38576
#
# Velocity S-wave (km/s) = 3.72988 3.79076 3.76044
# Velocity P-wave (km/s) = 6.14045 6.21407 6.17737
#
# Compressibility (1/GPa) = 0.02512118
#
# Stress axis : x y z
#
# Youngs Moduli (GPa) = 62.91463 72.84066 84.83060
#
# Poissons Ratio (x) = 0.20499 0.26491
# Poissons Ratio (y) = 0.17705 0.18732
# Poissons Ratio (z) = 0.19647 0.16084
#
# Static dielectric constant tensor:
#      x y z
#    x 4.101870 0.000000 0.000000 
#    y 0.000000 3.783760 0.000000 
#    z 0.000000 0.000000 3.778140 
# 
# 
# High freq. dielectric constant tensor:
#      x y z
#    x 1.800020 0.000000 0.000000 
#    y 0.000000 1.839840 0.000000 
#    z 0.000000 0.000000 1.793910 
# 
# From -- ./inp_files/24967.got.cif
#   From: 2010.03.12/outbox.cif.g09.slc.cpg/sg73_13_cif.got.tgz:24967.got - 2010.04.16 15:25:48.
