data_PCOD8296249
_publ_section_title
;
Structure prediction by ZEFSAII (Michael W. Deem and Ramdas Pophale) SiO2 
 PCOD8296249
Probable space group: I B C A 
;
_chemical_formula_sum "Si O2"
_cell_formula_units_Z 120
_cell_length_a 24.360008
_cell_length_b 26.633647
_cell_length_c 8.939131
_cell_angle_alpha 90.000000
_cell_angle_beta 90.000000
_cell_angle_gamma 90.000000
_cell_volume 5799.671131
_symmetry_space_group_name_H-M "I B C A "
_symmetry_group_IT_number 73
_symmetry_cell_setting 'orthorhombic'
loop_
_space_group_symop_operation_xyz
x,y,z
-x,1/2-y,z
x,-y,1/2-z
1/2-x,y,-z
-x,-y,-z
x,1/2+y,-z
-x,y,1/2+z
1/2+x,-y,z
1/2+x,1/2+y,1/2+z
1/2-x,-y,1/2+z
1/2+x,1/2-y,-z
-x,1/2+y,1/2-z
1/2-x,1/2-y,1/2-z
1/2+x,y,1/2-z
1/2-x,1/2+y,z
x,1/2-y,1/2+z
loop_
_atom_site_type_symbol
_atom_site_label
_atom_site_fract_x
_atom_site_fract_y
_atom_site_fract_z
Si Si1 0.891284 0.545467 0.143810
Si Si2 0.189680 0.265969 0.296104
Si Si3 0.665832 0.599719 0.603336
Si Si4 0.565451 0.329743 0.931052
Si Si5 0.250000 0.164945 0.000000
Si Si6 0.616196 0.221379 0.980279
Si Si7 0.308464 0.004058 0.071482
Si Si8 0.460318 0.858227 0.897556
O O1 0.913972 0.500000 0.250000
O O2 0.845165 0.573934 0.239269
O O3 0.941335 0.583176 0.103926
O O4 0.859735 0.528109 0.994327
O O5 0.250000 0.250000 0.250000
O O6 0.198804 0.305368 0.429359
O O7 0.156660 0.288442 0.157977
O O8 0.153070 0.221674 0.368156
O O9 0.616977 0.634622 0.548600
O O10 0.720941 0.632343 0.629315
O O11 0.678580 0.561255 0.469999
O O12 0.580001 0.272026 0.968352
O O13 0.541708 0.332717 0.764389
O O14 0.522198 0.353059 0.047137
O O15 0.577606 0.173090 0.988263
O O16 0.306079 0.000000 0.250000
O O17 0.250000 0.987178 0.000000
#
# Coordination Sequence:
#
# PCOD8296249 Si02
#       8
#    16  16  16  16   8  16  16  16
#     4   9  22  46  66  92 132 168 218 277 332 387
#     4  12  23  40  61  93 135 178 215 261 323 386
#     4  10  21  41  65  92 127 170 211 267 323 397
#     4  11  24  43  64  92 128 170 214 273 327 388
#     4  12  22  36  68  92 132 172 218 256 332 386
#     4  12  24  42  63  92 136 172 220 269 322 398
#     4  11  22  39  66  95 128 168 211 265 331 397
#     4  11  26  43  67  96 126 172 227 272 334 387
#
# _framework density 20.690828
#
# number of rings (size 3 to 8) (size 9 to 14) (size 15 to 20)
#    0.000    1.067    4.667    1.600    3.733    3.200 
#    0.000    6.667    0.000    0.000    0.000    0.000 
#    0.000    0.000    0.000    0.000    0.000    0.000 
#
# Total GULP energy -743793.816677 kJ/mol
# GULP energy per Si atom -12396.563611 kJ/mol
# Density = 2.064373 g / cm^3
# Si number density = 20.690828 Si / 1000 Ang^3
#
#
#
# Elastic Constant Matrix: (Units=GPa)
#
#
# Indices 1 2 3 4 5 6 
#
# 1 98.4530 37.6187 31.9005 0.0000 0.0000 0.0000
# 2 37.6187 100.8272 20.6952 0.0000 0.0000 0.0000
# 3 31.9005 20.6952 101.9850 0.0000 0.0000 0.0000
# 4 0.0000 0.0000 0.0000 20.9529 0.0000 0.0000
# 5 0.0000 0.0000 0.0000 0.0000 37.9873 0.0000
# 6 0.0000 0.0000 0.0000 0.0000 0.0000 25.4065
#
#
#
# Elastic Compliance Matrix: (Units=1/GPa)
#
#
# Indices 1 2 3 4 5 6 
#
# 1 0.012749 -0.004109 -0.003154 0.000000 0.000000 0.000000
# 2 -0.004109 0.011674 -0.001083 0.000000 0.000000 0.000000
# 3 -0.003154 -0.001083 0.011012 0.000000 0.000000 0.000000
# 4 0.000000 0.000000 0.000000 0.047726 0.000000 0.000000
# 5 0.000000 0.000000 0.000000 0.000000 0.026325 0.000000
# 6 0.000000 0.000000 0.000000 0.000000 0.000000 0.039360
#
#
# Mechanical properties :
#
#
# Convention : Reuss Voigt Hill
#
# Bulk Modulus (GPa) = 53.35920 53.52153 53.44037
# Shear Modulus (GPa) = 29.10597 30.93939 30.02268
#
# Velocity S-wave (km/s) = 3.75468 3.87113 3.81335
# Velocity P-wave (km/s) = 6.68144 6.77527 6.72852
#
# Compressibility (1/GPa) = 0.01874091
#
# Stress axis : x y z
#
# Youngs Moduli (GPa) = 78.43585 85.66369 90.81176
#
# Poissons Ratio (x) = 0.35203 0.28642
# Poissons Ratio (y) = 0.32232 0.09839
# Poissons Ratio (z) = 0.24739 0.09281
#
# Static dielectric constant tensor:
#      x y z
#    x 3.539930 0.000000 0.000000 
#    y 0.000000 4.315460 0.000000 
#    z 0.000000 0.000000 3.413770 
# 
# 
# High freq. dielectric constant tensor:
#      x y z
#    x 1.817210 0.000000 0.000000 
#    y 0.000000 1.808520 0.000000 
#    z 0.000000 0.000000 1.809930 
# 
# From -- ./inp_files/7480.got.cif
#   From: 2010.03.12/outbox.cif.g09.slc.cpg/sg73_4_cif.got.tgz:7480.got - 2010.04.16 15:25:48.
