data_PCOD8296913
_publ_section_title
;
Structure prediction by ZEFSAII (Michael W. Deem and Ramdas Pophale) SiO2 
 PCOD8296913
Probable space group: I B C A 
;
_chemical_formula_sum "Si O2"
_cell_formula_units_Z 104
_cell_length_a 9.548472
_cell_length_b 18.799011
_cell_length_c 25.355167
_cell_angle_alpha 90.000000
_cell_angle_beta 90.000000
_cell_angle_gamma 90.000000
_cell_volume 4551.298881
_symmetry_space_group_name_H-M "I B C A "
_symmetry_group_IT_number 73
_symmetry_cell_setting 'orthorhombic'
loop_
_space_group_symop_operation_xyz
x,y,z
-x,1/2-y,z
x,-y,1/2-z
1/2-x,y,-z
-x,-y,-z
x,1/2+y,-z
-x,y,1/2+z
1/2+x,-y,z
1/2+x,1/2+y,1/2+z
1/2-x,-y,1/2+z
1/2+x,1/2-y,-z
-x,1/2+y,1/2-z
1/2-x,1/2-y,1/2-z
1/2+x,y,1/2-z
1/2-x,1/2+y,z
x,1/2-y,1/2+z
loop_
_atom_site_type_symbol
_atom_site_label
_atom_site_fract_x
_atom_site_fract_y
_atom_site_fract_z
Si Si1 0.003739 0.645256 0.760639
Si Si2 0.766280 0.286747 0.409693
Si Si3 0.280278 0.556127 0.593341
Si Si4 0.750000 0.174570 0.500000
Si Si5 0.500000 0.250000 0.346737
Si Si6 0.247764 0.061070 0.286376
Si Si7 0.000000 0.750000 0.171273
Si Si8 0.070723 0.951116 0.457065
O O1 0.073678 0.692737 0.807162
O O2 0.858483 0.624009 0.787444
O O3 0.956033 0.685134 0.708057
O O4 0.104459 0.581771 0.743155
O O5 0.781642 0.368862 0.429214
O O6 0.800998 0.227702 0.453835
O O7 0.611879 0.281889 0.386567
O O8 0.870619 0.274863 0.362381
O O9 0.229077 0.540129 0.652831
O O10 0.211709 0.490566 0.561903
O O11 0.450427 0.557442 0.587896
O O12 0.879893 0.125754 0.520039
O O13 0.314404 0.000000 0.250000
O O14 0.000000 0.000000 0.500000
#
# Coordination Sequence:
#
# PCOD8296913 Si02
#       8
#    16  16  16   8   8  16   8  16
#     4  11  23  45  68 108 146 192 243 291 373 436
#     4  12  27  46  75 113 143 191 254 318 372 439
#     4  12  28  51  78 110 155 199 252 310 384 443
#     4  12  30  46  80 110 142 194 254 314 378 450
#     4  11  22  47  76 100 152 193 232 307 378 438
#     4  12  27  42  71 107 149 195 246 300 351 454
#     4  11  24  43  76 100 146 187 240 307 366 438
#     4  12  28  54  76 106 150 204 248 313 385 455
#
# _framework density 22.850619999999999
#
# number of rings (size 3 to 8) (size 9 to 14) (size 15 to 20)
#    0.000    0.308    4.615    2.308    8.615    4.308 
#    0.000    0.000    0.000    0.000    0.000    0.000 
#    0.000    0.000    0.000    0.000    0.000    0.000 
#
# Total GULP energy -644647.404358 kJ/mol
# GULP energy per Si atom -12397.065468 kJ/mol
# Density = 2.279861 g / cm^3
# Si number density = 22.850620 Si / 1000 Ang^3
#
#
#
# Elastic Constant Matrix: (Units=GPa)
#
#
# Indices 1 2 3 4 5 6 
#
# 1 98.4860 21.2521 -9.2846 0.0000 0.0000 0.0000
# 2 21.2521 126.2523 36.7238 0.0000 0.0000 0.0000
# 3 -9.2846 36.7238 166.9975 0.0000 0.0000 0.0000
# 4 0.0000 0.0000 0.0000 34.0594 0.0000 0.0000
# 5 0.0000 0.0000 0.0000 0.0000 43.8546 0.0000
# 6 0.0000 0.0000 0.0000 0.0000 0.0000 31.4950
#
#
#
# Elastic Compliance Matrix: (Units=1/GPa)
#
#
# Indices 1 2 3 4 5 6 
#
# 1 0.010709 -0.002111 0.001060 0.000000 0.000000 0.000000
# 2 -0.002111 0.008878 -0.002070 0.000000 0.000000 0.000000
# 3 0.001060 -0.002070 0.006502 0.000000 0.000000 0.000000
# 4 0.000000 0.000000 0.000000 0.029360 0.000000 0.000000
# 5 0.000000 0.000000 0.000000 0.000000 0.022803 0.000000
# 6 0.000000 0.000000 0.000000 0.000000 0.000000 0.031751
#
#
# Mechanical properties :
#
#
# Convention : Reuss Voigt Hill
#
# Bulk Modulus (GPa) = 50.38462 54.34650 52.36556
# Shear Modulus (GPa) = 40.69634 44.75143 42.72388
#
# Velocity S-wave (km/s) = 4.22474 4.43022 4.32870
# Velocity P-wave (km/s) = 6.77461 7.07136 6.92457
#
# Compressibility (1/GPa) = 0.01984733
#
# Stress axis : x y z
#
# Youngs Moduli (GPa) = 93.37831 112.63801 153.79508
#
# Poissons Ratio (x) = 0.23777 -0.16296
# Poissons Ratio (y) = 0.19711 0.31831
# Poissons Ratio (z) = -0.09894 0.23313
#
# Static dielectric constant tensor:
#      x y z
#    x 4.023190 0.000000 0.000000 
#    y 0.000000 4.256410 0.000000 
#    z 0.000000 0.000000 3.475510 
# 
# 
# High freq. dielectric constant tensor:
#      x y z
#    x 1.897820 0.000000 0.000000 
#    y 0.000000 1.913340 0.000000 
#    z 0.000000 0.000000 1.913600 
# 
# From -- ./inp_files/31288.got.cif
#   From: 2010.03.12/outbox.cif.g09.slc.cpg/sg73_16_cif.got.tgz:31288.got - 2010.04.16 15:25:48.
