data_PCOD8296441
_publ_section_title
;
Structure prediction by ZEFSAII (Michael W. Deem and Ramdas Pophale) SiO2 
 PCOD8296441
Probable space group: I B C A 
;
_chemical_formula_sum "Si O2"
_cell_formula_units_Z 120
_cell_length_a 8.870707
_cell_length_b 23.411750
_cell_length_c 27.478499
_cell_angle_alpha 90.000000
_cell_angle_beta 90.000000
_cell_angle_gamma 90.000000
_cell_volume 5706.701000
_symmetry_space_group_name_H-M "I B C A "
_symmetry_group_IT_number 73
_symmetry_cell_setting 'orthorhombic'
loop_
_space_group_symop_operation_xyz
x,y,z
-x,1/2-y,z
x,-y,1/2-z
1/2-x,y,-z
-x,-y,-z
x,1/2+y,-z
-x,y,1/2+z
1/2+x,-y,z
1/2+x,1/2+y,1/2+z
1/2-x,-y,1/2+z
1/2+x,1/2-y,-z
-x,1/2+y,1/2-z
1/2-x,1/2-y,1/2-z
1/2+x,y,1/2-z
1/2-x,1/2+y,z
x,1/2-y,1/2+z
loop_
_atom_site_type_symbol
_atom_site_label
_atom_site_fract_x
_atom_site_fract_y
_atom_site_fract_z
Si Si1 0.651904 0.669030 0.549465
Si Si2 0.626816 0.967947 0.647062
Si Si3 0.633771 0.789243 0.721664
Si Si4 0.791972 0.575814 0.368772
Si Si5 0.300000 0.142562 0.638490
Si Si6 0.934199 0.114016 0.296318
Si Si7 0.680645 0.202700 0.948198
Si Si8 0.417770 0.500000 0.750000
O O1 0.750000 0.659974 0.500000
O O2 0.704841 0.621393 0.587878
O O3 0.665912 0.732550 0.571574
O O4 0.470381 0.664501 0.544263
O O5 0.450503 0.954552 0.641744
O O6 0.722284 0.916839 0.625890
O O7 0.670763 0.025857 0.618012
O O8 0.676067 0.975393 0.704139
O O9 0.500000 0.750000 0.701426
O O10 0.750000 0.750000 0.750000
O O11 0.703401 0.820433 0.675860
O O12 0.564518 0.836573 0.756992
O O13 0.734117 0.604973 0.318250
O O14 0.467042 0.133592 0.657855
O O15 0.303129 0.174357 0.587194
O O16 0.005049 0.055596 0.272509
O O17 0.750000 0.208542 0.000000
#
# Coordination Sequence:
#
# PCOD8296441 Si02
#       8
#    16  16  16  16  16  16  16   8
#     4  10  23  46  74 103 134 175 226 294 358 421
#     4  11  23  41  67  95 137 180 232 278 338 412
#     4  12  27  43  63 100 144 186 234 283 358 424
#     4  11  25  43  67 100 136 179 235 284 346 417
#     4  12  25  44  69 100 139 186 232 288 350 417
#     4  11  26  41  66  99 141 185 235 288 345 413
#     4  10  24  46  74 104 136 181 232 287 358 430
#     4  10  22  42  62  92 132 182 232 276 324 404
#
# _framework density 21.027912000000001
#
# number of rings (size 3 to 8) (size 9 to 14) (size 15 to 20)
#    0.000    1.067    4.000    1.600    9.333    2.667 
#    0.000    1.333    0.000    0.000    0.000    0.000 
#    0.000    0.000    0.000    0.000    0.000    0.000 
#
# Total GULP energy -743467.939451 kJ/mol
# GULP energy per Si atom -12391.132324 kJ/mol
# Density = 2.098005 g / cm^3
# Si number density = 21.027912 Si / 1000 Ang^3
#
#
#
# Elastic Constant Matrix: (Units=GPa)
#
#
# Indices 1 2 3 4 5 6 
#
# 1 79.7145 33.4881 18.2293 0.0000 0.0000 0.0000
# 2 33.4881 126.2708 53.5235 0.0000 0.0000 0.0000
# 3 18.2293 53.5235 73.6498 0.0000 0.0000 0.0000
# 4 0.0000 0.0000 0.0000 46.9676 0.0000 0.0000
# 5 0.0000 0.0000 0.0000 0.0000 18.7964 0.0000
# 6 0.0000 0.0000 0.0000 0.0000 0.0000 34.1215
#
#
#
# Elastic Compliance Matrix: (Units=1/GPa)
#
#
# Indices 1 2 3 4 5 6 
#
# 1 0.014182 -0.003285 -0.001123 0.000000 0.000000 0.000000
# 2 -0.003285 0.012206 -0.008057 0.000000 0.000000 0.000000
# 3 -0.001123 -0.008057 0.019711 0.000000 0.000000 0.000000
# 4 0.000000 0.000000 0.000000 0.021291 0.000000 0.000000
# 5 0.000000 0.000000 0.000000 0.000000 0.053202 0.000000
# 6 0.000000 0.000000 0.000000 0.000000 0.000000 0.029307
#
#
# Mechanical properties :
#
#
# Convention : Reuss Voigt Hill
#
# Bulk Modulus (GPa) = 47.24034 54.45741 50.84888
# Shear Modulus (GPa) = 27.48979 31.60338 29.54658
#
# Velocity S-wave (km/s) = 3.61958 3.88096 3.75255
# Velocity P-wave (km/s) = 6.32320 6.78501 6.55817
#
# Compressibility (1/GPa) = 0.02116835
#
# Stress axis : x y z
#
# Youngs Moduli (GPa) = 70.51378 81.92616 50.73254
#
# Poissons Ratio (x) = 0.26914 0.05696
# Poissons Ratio (y) = 0.23165 0.40877
# Poissons Ratio (z) = 0.07917 0.66011
#
# Static dielectric constant tensor:
#      x y z
#    x 3.938270 0.000000 0.000000 
#    y 0.000000 4.420580 0.000000 
#    z 0.000000 0.000000 3.580900 
# 
# 
# High freq. dielectric constant tensor:
#      x y z
#    x 1.820760 0.000000 0.000000 
#    y 0.000000 1.847340 0.000000 
#    z 0.000000 0.000000 1.804200 
# 
# From -- ./inp_files/31419.got.cif
#   From: 2010.03.12/outbox.cif.g09.slc.cpg/sg73_16_cif.got.tgz:31419.got - 2010.04.16 15:25:48.
