data_PCOD8296840
_publ_section_title
;
Structure prediction by ZEFSAII (Michael W. Deem and Ramdas Pophale) SiO2 
 PCOD8296840
Probable space group: I B C A 
;
_chemical_formula_sum "Si O2"
_cell_formula_units_Z 112
_cell_length_a 19.764993
_cell_length_b 20.938488
_cell_length_c 12.775141
_cell_angle_alpha 90.000000
_cell_angle_beta 90.000000
_cell_angle_gamma 90.000000
_cell_volume 5286.980206
_symmetry_space_group_name_H-M "I B C A "
_symmetry_group_IT_number 73
_symmetry_cell_setting 'orthorhombic'
loop_
_space_group_symop_operation_xyz
x,y,z
-x,1/2-y,z
x,-y,1/2-z
1/2-x,y,-z
-x,-y,-z
x,1/2+y,-z
-x,y,1/2+z
1/2+x,-y,z
1/2+x,1/2+y,1/2+z
1/2-x,-y,1/2+z
1/2+x,1/2-y,-z
-x,1/2+y,1/2-z
1/2-x,1/2-y,1/2-z
1/2+x,y,1/2-z
1/2-x,1/2+y,z
x,1/2-y,1/2+z
loop_
_atom_site_type_symbol
_atom_site_label
_atom_site_fract_x
_atom_site_fract_y
_atom_site_fract_z
Si Si1 0.437191 0.154275 0.674556
Si Si2 0.495068 0.573808 0.496136
Si Si3 0.562884 0.650536 0.179606
Si Si4 0.139761 0.616894 0.008306
Si Si5 0.334042 0.929888 0.714351
Si Si6 0.581186 0.745855 0.001955
Si Si7 0.317194 0.572289 0.777329
O O1 0.442749 0.097105 0.590469
O O2 0.508487 0.173306 0.731786
O O3 0.382956 0.128316 0.755788
O O4 0.403672 0.212777 0.610147
O O5 0.500000 0.500000 0.500000
O O6 0.478066 0.599502 0.610868
O O7 0.565738 0.598482 0.454723
O O8 0.594023 0.707054 0.109038
O O9 0.629912 0.619574 0.225469
O O10 0.166683 0.576038 0.910799
O O11 0.131252 0.693386 0.990365
O O12 0.188328 0.593150 0.101179
O O13 0.259589 0.919207 0.764660
O O14 0.360846 0.000000 0.750000
O O15 0.500000 0.750000 0.002077
O O16 0.340677 0.500000 0.750000
#
# Coordination Sequence:
#
# PCOD8296840 Si02
#       7
#    16  16  16  16  16  16  16
#     4  11  22  39  64  96 130 169 219 264 317 382
#     4  11  21  35  61  96 127 160 213 273 317 366
#     4  11  22  39  64  96 130 169 219 264 317 382
#     4  12  22  43  65  93 128 166 216 264 320 382
#     4  11  25  44  66  94 130 171 213 265 328 385
#     4  11  22  41  61  98 134 170 210 269 323 374
#     4  11  25  44  66  94 130 171 213 265 328 385
#
# _framework density 21.184114999999998
#
# number of rings (size 3 to 8) (size 9 to 14) (size 15 to 20)
#    0.000    0.857    5.714    2.143    0.000    5.143 
#    0.000   10.000    0.000    0.000    0.000    0.000 
#    0.000    0.000    0.000    0.000    0.000    0.000 
#
# Total GULP energy -693839.202845 kJ/mol
# GULP energy per Si atom -12389.985765 kJ/mol
# Density = 2.113590 g / cm^3
# Si number density = 21.184115 Si / 1000 Ang^3
#
#
#
# Elastic Constant Matrix: (Units=GPa)
#
#
# Indices 1 2 3 4 5 6 
#
# 1 73.8866 19.0495 11.6673 0.0000 0.0000 0.0000
# 2 19.0495 135.5441 48.0799 0.0000 0.0000 0.0000
# 3 11.6673 48.0799 95.6378 0.0000 0.0000 0.0000
# 4 0.0000 0.0000 0.0000 31.1447 0.0000 0.0000
# 5 0.0000 0.0000 0.0000 0.0000 34.4356 0.0000
# 6 0.0000 0.0000 0.0000 0.0000 0.0000 -32.8657
#
#
#
# Elastic Compliance Matrix: (Units=1/GPa)
#
#
# Indices 1 2 3 4 5 6 
#
# 1 0.014104 -0.001670 -0.000881 0.000000 0.000000 0.000000
# 2 -0.001670 0.009176 -0.004410 0.000000 0.000000 0.000000
# 3 -0.000881 -0.004410 0.012780 0.000000 0.000000 0.000000
# 4 0.000000 0.000000 0.000000 0.032108 0.000000 0.000000
# 5 0.000000 0.000000 0.000000 0.000000 0.029040 0.000000
# 6 0.000000 0.000000 0.000000 0.000000 0.000000 -0.030427
#
#
# Mechanical properties :
#
#
# Convention : Reuss Voigt Hill
#
# Bulk Modulus (GPa) = 45.16724 51.40688 48.28706
# Shear Modulus (GPa) = 56.76484 21.62771 39.19627
#
# Velocity S-wave (km/s) = 5.18210 3.19868 4.30614
# Velocity P-wave (km/s) = 7.56129 6.16129 6.89690
#
# Compressibility (1/GPa) = 0.02213994
#
# Stress axis : x y z
#
# Youngs Moduli (GPa) = 70.90253 108.97423 78.24439
#
# Poissons Ratio (x) = 0.18194 0.06895
# Poissons Ratio (y) = 0.11838 0.34503
# Poissons Ratio (z) = 0.06248 0.48053
#
# Static dielectric constant tensor:
#      x y z
#    x 3.653200 0.000000 0.000000 
#    y 0.000000 4.057140 0.000000 
#    z 0.000000 0.000000 4.047690 
# 
# 
# High freq. dielectric constant tensor:
#      x y z
#    x 1.810990 0.000000 0.000000 
#    y 0.000000 1.833700 0.000000 
#    z 0.000000 0.000000 1.847470 
# 
# From -- ./inp_files/13044.got.cif
#   From: 2010.03.12/outbox.cif.g09.slc.cpg/sg73_7_cif.got.tgz:13044.got - 2010.04.16 15:25:48.
