data_PCOD8296353
_publ_section_title
;
Structure prediction by ZEFSAII (Michael W. Deem and Ramdas Pophale) SiO2 
 PCOD8296353
Probable space group: I B C A 
;
_chemical_formula_sum "Si O2"
_cell_formula_units_Z 88
_cell_length_a 14.348795
_cell_length_b 28.738266
_cell_length_c 10.110183
_cell_angle_alpha 90.000000
_cell_angle_beta 90.000000
_cell_angle_gamma 90.000000
_cell_volume 4169.029880
_symmetry_space_group_name_H-M "I B C A "
_symmetry_group_IT_number 73
_symmetry_cell_setting 'orthorhombic'
loop_
_space_group_symop_operation_xyz
x,y,z
-x,1/2-y,z
x,-y,1/2-z
1/2-x,y,-z
-x,-y,-z
x,1/2+y,-z
-x,y,1/2+z
1/2+x,-y,z
1/2+x,1/2+y,1/2+z
1/2-x,-y,1/2+z
1/2+x,1/2-y,-z
-x,1/2+y,1/2-z
1/2-x,1/2-y,1/2-z
1/2+x,y,1/2-z
1/2-x,1/2+y,z
x,1/2-y,1/2+z
loop_
_atom_site_type_symbol
_atom_site_label
_atom_site_fract_x
_atom_site_fract_y
_atom_site_fract_z
Si Si1 0.573238 0.359794 0.654146
Si Si2 0.591212 0.861830 0.651680
Si Si3 0.390056 0.450688 0.313824
Si Si4 0.250000 0.480093 0.500000
Si Si5 0.242495 0.291955 0.850550
Si Si6 0.092416 0.536536 0.365768
O O1 0.549742 0.361649 0.498063
O O2 0.484860 0.345662 0.741793
O O3 0.606290 0.410843 0.702248
O O4 0.648388 0.319787 0.678618
O O5 0.674136 0.826958 0.672746
O O6 0.631663 0.913532 0.681629
O O7 0.375571 0.500000 0.250000
O O8 0.293067 0.444220 0.393747
O O9 0.483794 0.452346 0.407481
O O10 0.162236 0.514112 0.470858
O O11 0.250000 0.250000 0.750000
O O12 0.250000 0.272457 0.000000
O O13 0.086619 0.500000 0.250000
#
# Coordination Sequence:
#
# PCOD8296353 Si02
#       6
#    16  16  16   8  16  16
#     4  10  23  44  66  95 128 173 209 263 317 382
#     4  10  23  43  69  91 131 170 213 258 321 378
#     4  10  22  39  56  87 132 171 218 260 315 375
#     4  12  22  32  60  92 124 178 222 268 302 370
#     4  10  24  45  69  96 127 163 207 265 326 386
#     4  10  23  38  58  88 131 176 215 260 314 372
#
# _framework density 21.108028000000001
#
# number of rings (size 3 to 8) (size 9 to 14) (size 15 to 20)
#    0.000    1.818    0.000    2.182    8.909    9.455 
#    1.636    3.636    0.000    0.000    0.000    0.000 
#    0.000    0.000    0.000    0.000    0.000    0.000 
#
# Total GULP energy -545116.629265 kJ/mol
# GULP energy per Si atom -12389.014301 kJ/mol
# Density = 2.105999 g / cm^3
# Si number density = 21.108028 Si / 1000 Ang^3
#
#
#
# Elastic Constant Matrix: (Units=GPa)
#
#
# Indices 1 2 3 4 5 6 
#
# 1 77.8600 27.6750 46.2019 -0.0007 0.0001 -0.0002
# 2 27.6750 100.2424 40.1853 -0.0017 -0.0004 -0.0005
# 3 46.2019 40.1853 82.9293 -0.0008 0.0037 -0.0001
# 4 -0.0007 -0.0017 -0.0008 35.1088 -0.0008 -0.0001
# 5 0.0001 -0.0004 0.0037 -0.0008 49.0211 -0.0001
# 6 -0.0002 -0.0005 -0.0001 -0.0001 -0.0001 20.1777
#
#
#
# Elastic Compliance Matrix: (Units=1/GPa)
#
#
# Indices 1 2 3 4 5 6 
#
# 1 0.019315 -0.001264 -0.010148 0.000000 0.000001 0.000000
# 2 -0.001264 0.012464 -0.005335 0.000000 0.000001 0.000000
# 3 -0.010148 -0.005335 0.020297 0.000000 -0.000002 0.000000
# 4 0.000000 0.000000 0.000000 0.028483 0.000000 0.000000
# 5 0.000001 0.000001 -0.000002 0.000000 0.020399 0.000000
# 6 0.000000 0.000000 0.000000 0.000000 0.000000 0.049560
#
#
# Mechanical properties :
#
#
# Convention : Reuss Voigt Hill
#
# Bulk Modulus (GPa) = 53.81893 54.35067 54.08480
# Shear Modulus (GPa) = 26.28724 30.65952 28.47338
#
# Velocity S-wave (km/s) = 3.53280 3.81531 3.67677
# Velocity P-wave (km/s) = 6.49563 6.72410 6.61085
#
# Compressibility (1/GPa) = 0.01858082
#
# Stress axis : x y z
#
# Youngs Moduli (GPa) = 51.77383 80.23350 49.26717
#
# Poissons Ratio (x) = 0.10144 0.49997
# Poissons Ratio (y) = 0.06546 0.26285
# Poissons Ratio (z) = 0.52541 0.42806
#
# Static dielectric constant tensor:
#      x y z
#    x 4.381100 0.000010 -0.000010 
#    y 0.000010 3.775370 -0.000020 
#    z -0.000010 -0.000020 4.123560 
# 
# 
# High freq. dielectric constant tensor:
#      x y z
#    x 1.840270 0.000000 0.000000 
#    y 0.000000 1.817440 0.000000 
#    z 0.000000 0.000000 1.824770 
# 
# From -- ./inp_files/11110.got.cif
#   From: 2010.03.12/outbox.cif.g09.slc.cpg/sg73_6_cif.got.tgz:11110.got - 2010.04.16 15:25:48.
