data_PCOD8296569
_publ_section_title
;
Structure prediction by ZEFSAII (Michael W. Deem and Ramdas Pophale) SiO2 
 PCOD8296569
Probable space group: I B C A 
;
_chemical_formula_sum "Si O2"
_cell_formula_units_Z 72
_cell_length_a 21.116417
_cell_length_b 8.872870
_cell_length_c 17.268138
_cell_angle_alpha 90.000000
_cell_angle_beta 90.000000
_cell_angle_gamma 90.000000
_cell_volume 3235.413989
_symmetry_space_group_name_H-M "I B C A "
_symmetry_group_IT_number 73
_symmetry_cell_setting 'orthorhombic'
loop_
_space_group_symop_operation_xyz
x,y,z
-x,1/2-y,z
x,-y,1/2-z
1/2-x,y,-z
-x,-y,-z
x,1/2+y,-z
-x,y,1/2+z
1/2+x,-y,z
1/2+x,1/2+y,1/2+z
1/2-x,-y,1/2+z
1/2+x,1/2-y,-z
-x,1/2+y,1/2-z
1/2-x,1/2-y,1/2-z
1/2+x,y,1/2-z
1/2-x,1/2+y,z
x,1/2-y,1/2+z
loop_
_atom_site_type_symbol
_atom_site_label
_atom_site_fract_x
_atom_site_fract_y
_atom_site_fract_z
Si Si1 0.085816 0.047761 0.836915
Si Si2 0.000000 0.750000 0.071658
Si Si3 0.181363 0.433649 0.572007
Si Si4 0.195675 0.287949 0.405628
Si Si5 0.569527 0.738326 0.078494
O O1 0.143232 0.167892 0.841279
O O2 0.020625 0.112399 0.873602
O O3 0.071590 0.000000 0.750000
O O4 0.106576 0.904007 0.887467
O O5 0.059908 0.789059 0.014913
O O6 0.183676 0.381442 0.483411
O O7 0.234144 0.340791 0.621842
O O8 0.193267 0.610142 0.580214
O O9 0.110730 0.386173 0.599638
O O10 0.500000 0.750000 0.118337
#
# Coordination Sequence:
#
# PCOD8296569 Si02
#       5
#    16   8  16  16  16
#     4  12  26  43  66 104 149 184 238 305 373 436
#     4  10  24  40  74  92 136 188 246 292 362 426
#     4  11  21  39  71 100 137 181 245 295 353 423
#     4  11  22  39  66 103 136 184 238 299 357 432
#     4  10  23  41  69 101 135 182 243 292 354 436
#
# _framework density 22.253720999999999
#
# number of rings (size 3 to 8) (size 9 to 14) (size 15 to 20)
#    0.667    0.444    2.222    6.000    4.667    0.000 
#    0.000    5.556    0.000    0.000    0.000    0.000 
#    0.000    0.000    0.000    0.000    0.000    0.000 
#
# Total GULP energy -446165.266453 kJ/mol
# GULP energy per Si atom -12393.479624 kJ/mol
# Density = 2.220307 g / cm^3
# Si number density = 22.253721 Si / 1000 Ang^3
#
#
#
# Elastic Constant Matrix: (Units=GPa)
#
#
# Indices 1 2 3 4 5 6 
#
# 1 128.0785 67.7377 25.6409 0.0000 0.0000 0.0000
# 2 67.7377 188.1251 58.4089 0.0000 0.0000 0.0000
# 3 25.6409 58.4089 98.0394 0.0000 0.0000 0.0000
# 4 0.0000 0.0000 0.0000 19.3288 0.0000 0.0000
# 5 0.0000 0.0000 0.0000 0.0000 19.6836 0.0000
# 6 0.0000 0.0000 0.0000 0.0000 0.0000 37.2689
#
#
#
# Elastic Compliance Matrix: (Units=1/GPa)
#
#
# Indices 1 2 3 4 5 6 
#
# 1 0.009669 -0.003308 -0.000558 0.000000 0.000000 0.000000
# 2 -0.003308 0.007654 -0.003695 0.000000 0.000000 0.000000
# 3 -0.000558 -0.003695 0.012547 0.000000 0.000000 0.000000
# 4 0.000000 0.000000 0.000000 0.051736 0.000000 0.000000
# 5 0.000000 0.000000 0.000000 0.000000 0.050804 0.000000
# 6 0.000000 0.000000 0.000000 0.000000 0.000000 0.026832
#
#
# Mechanical properties :
#
#
# Convention : Reuss Voigt Hill
#
# Bulk Modulus (GPa) = 67.80422 79.75756 73.78089
# Shear Modulus (GPa) = 27.88930 32.75328 30.32129
#
# Velocity S-wave (km/s) = 3.54396 3.84058 3.69525
# Velocity P-wave (km/s) = 6.87612 7.45551 7.17167
#
# Compressibility (1/GPa) = 0.01474834
#
# Stress axis : x y z
#
# Youngs Moduli (GPa) = 103.42248 130.65107 79.69969
#
# Poissons Ratio (x) = 0.43224 0.04446
# Poissons Ratio (y) = 0.34216 0.29447
# Poissons Ratio (z) = 0.05769 0.48272
#
# Static dielectric constant tensor:
#      x y z
#    x 4.670790 0.000000 0.000000 
#    y 0.000000 3.997140 0.000000 
#    z 0.000000 0.000000 3.457330 
# 
# 
# High freq. dielectric constant tensor:
#      x y z
#    x 1.896290 0.000000 0.000000 
#    y 0.000000 1.884260 0.000000 
#    z 0.000000 0.000000 1.814550 
# 
# From -- ./inp_files/26836.got.cif
#   From: 2010.03.12/outbox.cif.g09.slc.cpg/sg73_14_cif.got.tgz:26836.got - 2010.04.16 15:25:48.
