data_PCOD8296191
_publ_section_title
;
Structure prediction by ZEFSAII (Michael W. Deem and Ramdas Pophale) SiO2 
 PCOD8296191
Probable space group: I B C A 
;
_chemical_formula_sum "Si O2"
_cell_formula_units_Z 80
_cell_length_a 9.594995
_cell_length_b 13.631848
_cell_length_c 26.593224
_cell_angle_alpha 90.000000
_cell_angle_beta 90.000000
_cell_angle_gamma 90.000000
_cell_volume 3478.327573
_symmetry_space_group_name_H-M "I B C A "
_symmetry_group_IT_number 73
_symmetry_cell_setting 'orthorhombic'
loop_
_space_group_symop_operation_xyz
x,y,z
-x,1/2-y,z
x,-y,1/2-z
1/2-x,y,-z
-x,-y,-z
x,1/2+y,-z
-x,y,1/2+z
1/2+x,-y,z
1/2+x,1/2+y,1/2+z
1/2-x,-y,1/2+z
1/2+x,1/2-y,-z
-x,1/2+y,1/2-z
1/2-x,1/2-y,1/2-z
1/2+x,y,1/2-z
1/2-x,1/2+y,z
x,1/2-y,1/2+z
loop_
_atom_site_type_symbol
_atom_site_label
_atom_site_fract_x
_atom_site_fract_y
_atom_site_fract_z
Si Si1 0.253221 0.603286 0.428383
Si Si2 0.080166 0.922636 0.558117
Si Si3 0.782846 0.500000 0.750000
Si Si4 0.811158 0.657777 0.177367
Si Si5 0.750000 0.723540 0.500000
Si Si6 0.373933 0.364882 0.665688
O O1 0.145097 0.528953 0.455111
O O2 0.413781 0.570646 0.437238
O O3 0.221605 0.612103 0.368487
O O4 0.217491 0.708495 0.452126
O O5 0.117958 0.844997 0.514391
O O6 0.166896 0.895085 0.609111
O O7 0.696295 0.591428 0.772608
O O8 0.871389 0.544217 0.704405
O O9 0.776049 0.774179 0.185795
O O10 0.967700 0.665049 0.159181
#
# Coordination Sequence:
#
# PCOD8296191 Si02
#       6
#    16  16   8  16   8  16
#     4  11  24  44  68  96 133 175 222 277 336 398
#     4  11  24  44  68  96 133 175 222 277 336 398
#     4  12  20  36  68  94 124 172 220 272 322 396
#     4  10  21  39  62  91 129 172 217 269 330 391
#     4  12  24  40  72  94 122 178 226 264 334 394
#     4  10  21  39  62  91 129 172 217 269 330 391
#
# _framework density 22.999559000000001
#
# number of rings (size 3 to 8) (size 9 to 14) (size 15 to 20)
#    0.000    1.200    4.000    2.400    0.000    4.800 
#    0.000    0.000    0.000    2.400    0.000    0.000 
#    0.000    0.000    0.000    0.000    0.000    0.000 
#
# Total GULP energy -495587.345900 kJ/mol
# GULP energy per Si atom -12389.683648 kJ/mol
# Density = 2.294721 g / cm^3
# Si number density = 22.999559 Si / 1000 Ang^3
#
#
#
# Elastic Constant Matrix: (Units=GPa)
#
#
# Indices 1 2 3 4 5 6 
#
# 1 41.6219 22.1834 19.2813 0.0000 0.0000 0.0000
# 2 22.1834 127.0767 36.8401 0.0000 0.0000 0.0000
# 3 19.2813 36.8401 105.7417 0.0000 0.0000 0.0000
# 4 0.0000 0.0000 0.0000 47.5535 0.0000 0.0000
# 5 0.0000 0.0000 0.0000 0.0000 21.8360 0.0000
# 6 0.0000 0.0000 0.0000 0.0000 0.0000 25.9849
#
#
#
# Elastic Compliance Matrix: (Units=1/GPa)
#
#
# Indices 1 2 3 4 5 6 
#
# 1 0.027768 -0.003759 -0.003754 0.000000 0.000000 0.000000
# 2 -0.003759 0.009262 -0.002541 0.000000 0.000000 0.000000
# 3 -0.003754 -0.002541 0.011027 0.000000 0.000000 0.000000
# 4 0.000000 0.000000 0.000000 0.021029 0.000000 0.000000
# 5 0.000000 0.000000 0.000000 0.000000 0.045796 0.000000
# 6 0.000000 0.000000 0.000000 0.000000 0.000000 0.038484
#
#
# Mechanical properties :
#
#
# Convention : Reuss Voigt Hill
#
# Bulk Modulus (GPa) = 35.77980 47.89445 41.83713
# Shear Modulus (GPa) = 27.35362 32.15059 29.75210
#
# Velocity S-wave (km/s) = 3.45238 3.74288 3.60056
# Velocity P-wave (km/s) = 5.61092 6.28873 5.95947
#
# Compressibility (1/GPa) = 0.02794873
#
# Stress axis : x y z
#
# Youngs Moduli (GPa) = 36.01227 107.96464 90.68723
#
# Poissons Ratio (x) = 0.40586 0.34041
# Poissons Ratio (y) = 0.13538 0.23048
# Poissons Ratio (z) = 0.13518 0.27439
#
# Static dielectric constant tensor:
#      x y z
#    x 3.524690 0.000000 0.000000 
#    y 0.000000 4.543600 0.000000 
#    z 0.000000 0.000000 4.256470 
# 
# 
# High freq. dielectric constant tensor:
#      x y z
#    x 1.857060 0.000000 0.000000 
#    y 0.000000 1.932880 0.000000 
#    z 0.000000 0.000000 1.920390 
# 
# From -- ./inp_files/11066.got.cif
#   From: 2010.03.12/outbox.cif.g09.slc.cpg/sg73_6_cif.got.tgz:11066.got - 2010.04.16 15:25:48.
