data_PCOD8296684
_publ_section_title
;
Structure prediction by ZEFSAII (Michael W. Deem and Ramdas Pophale) SiO2 
 PCOD8296684
Probable space group: I B C A 
;
_chemical_formula_sum "Si O2"
_cell_formula_units_Z 56
_cell_length_a 8.637385
_cell_length_b 12.412556
_cell_length_c 21.410120
_cell_angle_alpha 90.000000
_cell_angle_beta 90.000000
_cell_angle_gamma 90.000000
_cell_volume 2295.422321
_symmetry_space_group_name_H-M "I B C A "
_symmetry_group_IT_number 73
_symmetry_cell_setting 'orthorhombic'
loop_
_space_group_symop_operation_xyz
x,y,z
-x,1/2-y,z
x,-y,1/2-z
1/2-x,y,-z
-x,-y,-z
x,1/2+y,-z
-x,y,1/2+z
1/2+x,-y,z
1/2+x,1/2+y,1/2+z
1/2-x,-y,1/2+z
1/2+x,1/2-y,-z
-x,1/2+y,1/2-z
1/2-x,1/2-y,1/2-z
1/2+x,y,1/2-z
1/2-x,1/2+y,z
x,1/2-y,1/2+z
loop_
_atom_site_type_symbol
_atom_site_label
_atom_site_fract_x
_atom_site_fract_y
_atom_site_fract_z
Si Si1 0.750000 0.897164 0.500000
Si Si2 0.000000 0.250000 0.055446
Si Si3 0.045278 0.370988 0.319304
Si Si4 0.202637 0.500000 0.750000
Si Si5 0.753082 0.600425 0.429764
O O1 0.903662 0.829690 0.489034
O O2 0.784436 0.972600 0.561388
O O3 0.892795 0.327036 0.100105
O O4 0.194085 0.405230 0.278709
O O5 0.094785 0.380373 0.391859
O O6 0.000000 0.250000 0.301596
O O7 0.901959 0.450664 0.305567
O O8 0.750000 0.652401 0.500000
#
# Coordination Sequence:
#
# PCOD8296684 Si02
#       5
#     8   8  16   8  16
#     4  10  24  42  68 106 152 190 250 294 378 464
#     4  12  22  44  66 102 152 198 240 302 384 454
#     4  11  25  50  81 110 154 200 249 322 379 449
#     4  10  26  50  80 118 144 198 268 316 372 448
#     4  10  26  41  72 108 152 192 252 299 384 457
#
# _framework density 24.396381999999999
#
# number of rings (size 3 to 8) (size 9 to 14) (size 15 to 20)
#    0.857    0.571    1.429    1.714    6.000    2.286 
#    7.714    0.000    0.000    0.000    0.000    0.000 
#    0.000    0.000    0.000    0.000    0.000    0.000 
#
# Total GULP energy -346922.344555 kJ/mol
# GULP energy per Si atom -12390.083734 kJ/mol
# Density = 2.434085 g / cm^3
# Si number density = 24.396382 Si / 1000 Ang^3
#
#
#
# Elastic Constant Matrix: (Units=GPa)
#
#
# Indices 1 2 3 4 5 6 
#
# 1 163.2575 102.2489 58.8350 0.0000 0.0000 0.0000
# 2 102.2489 203.7132 42.9838 0.0000 0.0000 0.0000
# 3 58.8350 42.9838 106.4199 0.0000 0.0000 0.0000
# 4 0.0000 0.0000 0.0000 12.7202 0.0000 0.0000
# 5 0.0000 0.0000 0.0000 0.0000 34.6899 0.0000
# 6 0.0000 0.0000 0.0000 0.0000 0.0000 56.0913
#
#
#
# Elastic Compliance Matrix: (Units=1/GPa)
#
#
# Indices 1 2 3 4 5 6 
#
# 1 0.010238 -0.004312 -0.003919 0.000000 0.000000 0.000000
# 2 -0.004312 0.007182 -0.000517 0.000000 0.000000 0.000000
# 3 -0.003919 -0.000517 0.011772 0.000000 0.000000 0.000000
# 4 0.000000 0.000000 0.000000 0.078615 0.000000 0.000000
# 5 0.000000 0.000000 0.000000 0.000000 0.028827 0.000000
# 6 0.000000 0.000000 0.000000 0.000000 0.000000 0.017828
#
#
# Mechanical properties :
#
#
# Convention : Reuss Voigt Hill
#
# Bulk Modulus (GPa) = 85.49089 97.94733 91.71911
# Shear Modulus (GPa) = 28.43224 38.65513 33.54369
#
# Velocity S-wave (km/s) = 3.41754 3.98485 3.71205
# Velocity P-wave (km/s) = 7.11978 7.83629 7.48661
#
# Compressibility (1/GPa) = 0.01169715
#
# Stress axis : x y z
#
# Youngs Moduli (GPa) = 97.67494 139.23260 84.94735
#
# Poissons Ratio (x) = 0.60036 0.33287
# Poissons Ratio (y) = 0.42117 0.04392
# Poissons Ratio (z) = 0.38275 0.07199
#
# Static dielectric constant tensor:
#      x y z
#    x 4.704970 0.000000 0.000000 
#    y 0.000000 4.528850 0.000000 
#    z 0.000000 0.000000 4.010980 
# 
# 
# High freq. dielectric constant tensor:
#      x y z
#    x 1.982590 0.000000 0.000000 
#    y 0.000000 1.989570 0.000000 
#    z 0.000000 0.000000 1.927370 
# 
# From -- ./inp_files/15490.got.cif
#   From: 2010.03.12/outbox.cif.g09.slc.cpg/sg73_8_cif.got.tgz:15490.got - 2010.04.16 15:25:48.
