data_PCOD8296190
_publ_section_title
;
Structure prediction by ZEFSAII (Michael W. Deem and Ramdas Pophale) SiO2 
 PCOD8296190
Probable space group: I B C A 
;
_chemical_formula_sum "Si O2"
_cell_formula_units_Z 96
_cell_length_a 18.855032
_cell_length_b 14.754781
_cell_length_c 17.635027
_cell_angle_alpha 90.000000
_cell_angle_beta 90.000000
_cell_angle_gamma 90.000000
_cell_volume 4906.097452
_symmetry_space_group_name_H-M "I B C A "
_symmetry_group_IT_number 73
_symmetry_cell_setting 'orthorhombic'
loop_
_space_group_symop_operation_xyz
x,y,z
-x,1/2-y,z
x,-y,1/2-z
1/2-x,y,-z
-x,-y,-z
x,1/2+y,-z
-x,y,1/2+z
1/2+x,-y,z
1/2+x,1/2+y,1/2+z
1/2-x,-y,1/2+z
1/2+x,1/2-y,-z
-x,1/2+y,1/2-z
1/2-x,1/2-y,1/2-z
1/2+x,y,1/2-z
1/2-x,1/2+y,z
x,1/2-y,1/2+z
loop_
_atom_site_type_symbol
_atom_site_label
_atom_site_fract_x
_atom_site_fract_y
_atom_site_fract_z
Si Si1 0.010436 0.478033 0.162249
Si Si2 0.462226 0.657843 0.907968
Si Si3 0.055682 0.823551 0.418248
Si Si4 0.168150 0.079594 0.657746
Si Si5 0.814646 0.122794 0.329576
Si Si6 0.213373 0.752178 0.418958
O O1 0.011844 0.500000 0.250000
O O2 0.993261 0.572616 0.121633
O O3 0.085721 0.435286 0.136225
O O4 0.948476 0.408999 0.138679
O O5 0.500000 0.750000 0.881210
O O6 0.383674 0.656269 0.874150
O O7 0.464529 0.646614 0.997724
O O8 0.133802 0.785748 0.419586
O O9 0.000000 0.750000 0.387302
O O10 0.172009 0.127226 0.739880
O O11 0.210026 0.145270 0.600210
O O12 0.205914 0.981545 0.651492
O O13 0.752406 0.190171 0.354057
O O14 0.250000 0.766595 0.500000
#
# Coordination Sequence:
#
# PCOD8296190 Si02
#       6
#    16  16  16  16  16  16
#     4  11  21  40  66  91 125 168 211 263 321 381
#     4  10  21  39  62  91 124 163 208 260 320 380
#     4  11  23  41  64  92 125 162 214 269 318 378
#     4  10  21  42  67  87 126 170 208 256 328 383
#     4  10  21  43  64  89 127 166 204 263 321 379
#     4  12  24  41  63  94 128 167 216 263 320 386
#
# _framework density 19.567488000000001
#
# number of rings (size 3 to 8) (size 9 to 14) (size 15 to 20)
#    0.000    1.333    6.667    1.000    0.000    2.667 
#    6.000    0.000    0.000    0.000    0.000    0.000 
#    0.000    0.000    0.000    0.000    0.000    0.000 
#
# Total GULP energy -595181.093223 kJ/mol
# GULP energy per Si atom -12399.606109 kJ/mol
# Density = 1.952295 g / cm^3
# Si number density = 19.567488 Si / 1000 Ang^3
#
#
#
# Elastic Constant Matrix: (Units=GPa)
#
#
# Indices 1 2 3 4 5 6 
#
# 1 83.6249 53.6313 19.4097 0.0000 0.0000 0.0000
# 2 53.6313 137.6294 34.1393 0.0000 0.0000 0.0000
# 3 19.4097 34.1393 38.7114 0.0000 0.0000 0.0000
# 4 0.0000 0.0000 0.0000 36.0218 0.0000 0.0000
# 5 0.0000 0.0000 0.0000 0.0000 18.6577 0.0000
# 6 0.0000 0.0000 0.0000 0.0000 0.0000 36.2392
#
#
#
# Elastic Compliance Matrix: (Units=1/GPa)
#
#
# Indices 1 2 3 4 5 6 
#
# 1 0.016262 -0.005523 -0.003283 0.000000 0.000000 0.000000
# 2 -0.005523 0.011176 -0.007087 0.000000 0.000000 0.000000
# 3 -0.003283 -0.007087 0.033728 0.000000 0.000000 0.000000
# 4 0.000000 0.000000 0.000000 0.027761 0.000000 0.000000
# 5 0.000000 0.000000 0.000000 0.000000 0.053597 0.000000
# 6 0.000000 0.000000 0.000000 0.000000 0.000000 0.027594
#
#
# Mechanical properties :
#
#
# Convention : Reuss Voigt Hill
#
# Bulk Modulus (GPa) = 34.03620 52.70291 43.36955
# Shear Modulus (GPa) = 23.61856 28.36944 25.99400
#
# Velocity S-wave (km/s) = 3.47800 3.81179 3.64871
# Velocity P-wave (km/s) = 5.79316 6.80921 6.32163
#
# Compressibility (1/GPa) = 0.02938049
#
# Stress axis : x y z
#
# Youngs Moduli (GPa) = 61.49300 89.47894 29.64867
#
# Poissons Ratio (x) = 0.49415 0.09735
# Poissons Ratio (y) = 0.33960 0.21012
# Poissons Ratio (z) = 0.20191 0.63413
#
# Static dielectric constant tensor:
#      x y z
#    x 3.577210 0.000000 0.000000 
#    y 0.000000 3.859700 0.000000 
#    z 0.000000 0.000000 3.780740 
# 
# 
# High freq. dielectric constant tensor:
#      x y z
#    x 1.745240 0.000000 0.000000 
#    y 0.000000 1.778870 0.000000 
#    z 0.000000 0.000000 1.764940 
# 
# From -- ./inp_files/18649.got.cif
#   From: 2010.03.12/outbox.cif.g09.slc.cpg/sg73_10_cif.got.tgz:18649.got - 2010.04.16 15:25:48.
