data_PCOD8296056
_publ_section_title
;
Structure prediction by ZEFSAII (Michael W. Deem and Ramdas Pophale) SiO2 
 PCOD8296056
Probable space group: I B C A 
;
_chemical_formula_sum "Si O2"
_cell_formula_units_Z 88
_cell_length_a 21.959393
_cell_length_b 20.910303
_cell_length_c 9.521452
_cell_angle_alpha 90.000000
_cell_angle_beta 90.000000
_cell_angle_gamma 90.000000
_cell_volume 4372.037110
_symmetry_space_group_name_H-M "I B C A "
_symmetry_group_IT_number 73
_symmetry_cell_setting 'orthorhombic'
loop_
_space_group_symop_operation_xyz
x,y,z
-x,1/2-y,z
x,-y,1/2-z
1/2-x,y,-z
-x,-y,-z
x,1/2+y,-z
-x,y,1/2+z
1/2+x,-y,z
1/2+x,1/2+y,1/2+z
1/2-x,-y,1/2+z
1/2+x,1/2-y,-z
-x,1/2+y,1/2-z
1/2-x,1/2-y,1/2-z
1/2+x,y,1/2-z
1/2-x,1/2+y,z
x,1/2-y,1/2+z
loop_
_atom_site_type_symbol
_atom_site_label
_atom_site_fract_x
_atom_site_fract_y
_atom_site_fract_z
Si Si1 0.702206 0.530789 0.102511
Si Si2 0.852846 0.755162 0.750790
Si Si3 0.994355 0.500000 0.250000
Si Si4 0.747885 0.166446 0.843514
Si Si5 0.070552 0.930915 0.991540
Si Si6 0.566487 0.222483 0.997127
O O1 0.684287 0.500000 0.250000
O O2 0.742606 0.591434 0.144920
O O3 0.640552 0.547118 0.019323
O O4 0.750000 0.491803 0.000000
O O5 0.810095 0.817895 0.739457
O O6 0.809914 0.692992 0.759201
O O7 0.897017 0.748169 0.623042
O O8 0.899515 0.759477 0.875469
O O9 0.954501 0.456564 0.357876
O O10 0.034621 0.455563 0.146753
O O11 0.750000 0.198218 0.000000
O O12 0.067293 0.854266 0.989121
O O13 0.500000 0.250000 0.005214
#
# Coordination Sequence:
#
# PCOD8296056 Si02
#       6
#    16  16   8  16  16  16
#     4  11  23  44  65  97 133 172 225 283 333 388
#     4  11  22  42  63  94 126 177 214 263 340 389
#     4  10  26  46  74  94 128 192 220 274 340 392
#     4  10  20  42  67  86 130 174 214 271 328 401
#     4  11  24  49  69  97 137 173 232 276 333 406
#     4  12  26  41  66 101 137 173 220 276 330 405
#
# _framework density 20.127917
#
# number of rings (size 3 to 8) (size 9 to 14) (size 15 to 20)
#    0.000    1.091    4.545    1.636    6.364    0.000 
#    3.273    0.000    0.000    0.000    0.000    0.000 
#    0.000    0.000    0.000    0.000    0.000    0.000 
#
# Total GULP energy -545155.524202 kJ/mol
# GULP energy per Si atom -12389.898277 kJ/mol
# Density = 2.008211 g / cm^3
# Si number density = 20.127917 Si / 1000 Ang^3
#
#
#
# Elastic Constant Matrix: (Units=GPa)
#
#
# Indices 1 2 3 4 5 6 
#
# 1 179.3675 37.3817 81.0114 0.0000 0.0000 0.0000
# 2 37.3817 58.6939 50.6557 0.0000 0.0000 0.0000
# 3 81.0114 50.6557 159.6656 0.0000 0.0000 0.0000
# 4 0.0000 0.0000 0.0000 13.8304 0.0000 0.0000
# 5 0.0000 0.0000 0.0000 0.0000 53.9246 0.0000
# 6 0.0000 0.0000 0.0000 0.0000 0.0000 24.3191
#
#
#
# Elastic Compliance Matrix: (Units=1/GPa)
#
#
# Indices 1 2 3 4 5 6 
#
# 1 0.007404 -0.002029 -0.003113 0.000000 0.000000 0.000000
# 2 -0.002029 0.024018 -0.006590 0.000000 0.000000 0.000000
# 3 -0.003113 -0.006590 0.009933 0.000000 0.000000 0.000000
# 4 0.000000 0.000000 0.000000 0.072305 0.000000 0.000000
# 5 0.000000 0.000000 0.000000 0.000000 0.018544 0.000000
# 6 0.000000 0.000000 0.000000 0.000000 0.000000 0.041120
#
#
# Mechanical properties :
#
#
# Convention : Reuss Voigt Hill
#
# Bulk Modulus (GPa) = 55.89581 81.75831 68.82706
# Shear Modulus (GPa) = 24.66070 33.66004 29.16037
#
# Velocity S-wave (km/s) = 3.50408 4.09382 3.81038
# Velocity P-wave (km/s) = 6.64846 7.94061 7.32309
#
# Compressibility (1/GPa) = 0.01789043
#
# Stress axis : x y z
#
# Youngs Moduli (GPa) = 135.06312 41.63620 100.67031
#
# Poissons Ratio (x) = 0.08448 0.31338
# Poissons Ratio (y) = 0.27403 0.66346
# Poissons Ratio (z) = 0.42044 0.27440
#
# Static dielectric constant tensor:
#      x y z
#    x 3.993980 0.000000 0.000000 
#    y 0.000000 3.499970 0.000000 
#    z 0.000000 0.000000 4.259600 
# 
# 
# High freq. dielectric constant tensor:
#      x y z
#    x 1.813060 0.000000 0.000000 
#    y 0.000000 1.764450 0.000000 
#    z 0.000000 0.000000 1.802820 
# 
# From -- ./inp_files/6289.got.cif
#   From: 2010.03.12/outbox.cif.g09.slc.cpg/sg73_4_cif.got.tgz:6289.got - 2010.04.16 15:25:48.
