data_PCOD8296417
_publ_section_title
;
Structure prediction by ZEFSAII (Michael W. Deem and Ramdas Pophale) SiO2 
 PCOD8296417
Probable space group: I B C A 
;
_chemical_formula_sum "Si O2"
_cell_formula_units_Z 88
_cell_length_a 13.851644
_cell_length_b 26.002532
_cell_length_c 10.411984
_cell_angle_alpha 90.000000
_cell_angle_beta 90.000000
_cell_angle_gamma 90.000000
_cell_volume 3750.165661
_symmetry_space_group_name_H-M "I B C A "
_symmetry_group_IT_number 73
_symmetry_cell_setting 'orthorhombic'
loop_
_space_group_symop_operation_xyz
x,y,z
-x,1/2-y,z
x,-y,1/2-z
1/2-x,y,-z
-x,-y,-z
x,1/2+y,-z
-x,y,1/2+z
1/2+x,-y,z
1/2+x,1/2+y,1/2+z
1/2-x,-y,1/2+z
1/2+x,1/2-y,-z
-x,1/2+y,1/2-z
1/2-x,1/2-y,1/2-z
1/2+x,y,1/2-z
1/2-x,1/2+y,z
x,1/2-y,1/2+z
loop_
_atom_site_type_symbol
_atom_site_label
_atom_site_fract_x
_atom_site_fract_y
_atom_site_fract_z
Si Si1 0.618115 0.298739 0.651533
Si Si2 0.109094 0.871323 0.372432
Si Si3 0.250000 0.373082 0.000000
Si Si4 0.259650 0.043496 0.151332
Si Si5 0.098218 0.099044 0.690832
Si Si6 0.595589 0.315012 0.122215
O O1 0.602851 0.316870 0.798250
O O2 0.697602 0.336085 0.598174
O O3 0.515598 0.306003 0.580826
O O4 0.651124 0.239325 0.638033
O O5 0.194941 0.906564 0.319785
O O6 0.137098 0.854292 0.516372
O O7 0.012010 0.906553 0.358133
O O8 0.172294 0.409218 0.072255
O O9 0.370047 0.058479 0.196479
O O10 0.221956 0.000000 0.250000
O O11 0.250000 0.027353 0.000000
O O12 0.107654 0.157492 0.741076
#
# Coordination Sequence:
#
# PCOD8296417 Si02
#       6
#    16  16   8  16  16  16
#     4  10  23  35  65 102 143 188 228 282 332 421
#     4  11  23  46  72 101 145 188 236 291 355 428
#     4  12  22  38  62 100 138 180 234 284 340 412
#     4  12  28  51  76 106 140 184 246 314 375 439
#     4  11  25  44  71 102 141 189 232 295 365 424
#     4  10  22  41  63 100 144 190 232 275 345 423
#
# _framework density 23.465630000000001
#
# number of rings (size 3 to 8) (size 9 to 14) (size 15 to 20)
#    0.000    1.091    5.455    0.000    3.818    4.364 
#    0.000    1.818    0.000    0.000    0.000    0.000 
#    0.000    0.000    0.000    0.000    0.000    0.000 
#
# Total GULP energy -545297.200363 kJ/mol
# GULP energy per Si atom -12393.118190 kJ/mol
# Density = 2.341222 g / cm^3
# Si number density = 23.465630 Si / 1000 Ang^3
#
#
#
# Elastic Constant Matrix: (Units=GPa)
#
#
# Indices 1 2 3 4 5 6 
#
# 1 76.8303 10.9542 23.1125 -0.0001 0.0000 0.0000
# 2 10.9542 86.5084 33.3293 -0.0002 0.0000 0.0000
# 3 23.1125 33.3293 103.5271 -0.0007 0.0000 0.0001
# 4 -0.0001 -0.0002 -0.0007 38.9025 0.0001 0.0000
# 5 0.0000 0.0000 0.0000 0.0001 34.3379 0.0000
# 6 0.0000 0.0000 0.0001 0.0000 0.0000 26.8676
#
#
#
# Elastic Compliance Matrix: (Units=1/GPa)
#
#
# Indices 1 2 3 4 5 6 
#
# 1 0.013985 -0.000648 -0.002913 0.000000 0.000000 0.000000
# 2 -0.000648 0.013226 -0.004113 0.000000 0.000000 0.000000
# 3 -0.002913 -0.004113 0.011634 0.000000 0.000000 0.000000
# 4 0.000000 0.000000 0.000000 0.025705 0.000000 0.000000
# 5 0.000000 0.000000 0.000000 0.000000 0.029122 0.000000
# 6 0.000000 0.000000 0.000000 0.000000 0.000000 0.037220
#
#
# Mechanical properties :
#
#
# Convention : Reuss Voigt Hill
#
# Bulk Modulus (GPa) = 42.56257 44.62867 43.59562
# Shear Modulus (GPa) = 32.45197 33.31957 32.88577
#
# Velocity S-wave (km/s) = 3.72285 3.77228 3.74765
# Velocity P-wave (km/s) = 6.05451 6.16713 6.11108
#
# Compressibility (1/GPa) = 0.02349482
#
# Stress axis : x y z
#
# Youngs Moduli (GPa) = 71.50753 75.60623 85.95533
#
# Poissons Ratio (x) = 0.04902 0.25042
# Poissons Ratio (y) = 0.04636 0.35356
# Poissons Ratio (z) = 0.20832 0.31099
#
# Static dielectric constant tensor:
#      x y z
#    x 4.232080 0.000000 0.000000 
#    y 0.000000 3.979210 0.000000 
#    z 0.000000 0.000000 4.276870 
# 
# 
# High freq. dielectric constant tensor:
#      x y z
#    x 1.926220 0.000000 0.000000 
#    y 0.000000 1.909530 0.000000 
#    z 0.000000 0.000000 1.931670 
# 
# From -- ./inp_files/10948.got.cif
#   From: 2010.03.12/outbox.cif.g09.slc.cpg/sg73_6_cif.got.tgz:10948.got - 2010.04.16 15:25:48.
