data_PCOD8296707
_publ_section_title
;
Structure prediction by ZEFSAII (Michael W. Deem and Ramdas Pophale) SiO2 
 PCOD8296707
Probable space group: I B C A 
;
_chemical_formula_sum "Si O2"
_cell_formula_units_Z 72
_cell_length_a 11.992445
_cell_length_b 26.593746
_cell_length_c 8.787825
_cell_angle_alpha 90.000000
_cell_angle_beta 90.000000
_cell_angle_gamma 90.000000
_cell_volume 2802.648619
_symmetry_space_group_name_H-M "I B C A "
_symmetry_group_IT_number 73
_symmetry_cell_setting 'orthorhombic'
loop_
_space_group_symop_operation_xyz
x,y,z
-x,1/2-y,z
x,-y,1/2-z
1/2-x,y,-z
-x,-y,-z
x,1/2+y,-z
-x,y,1/2+z
1/2+x,-y,z
1/2+x,1/2+y,1/2+z
1/2-x,-y,1/2+z
1/2+x,1/2-y,-z
-x,1/2+y,1/2-z
1/2-x,1/2-y,1/2-z
1/2+x,y,1/2-z
1/2-x,1/2+y,z
x,1/2-y,1/2+z
loop_
_atom_site_type_symbol
_atom_site_label
_atom_site_fract_x
_atom_site_fract_y
_atom_site_fract_z
Si Si1 0.595439 0.290617 0.744871
Si Si2 0.504970 0.099339 0.206486
Si Si3 0.375539 0.054650 0.957962
Si Si4 0.174251 0.960619 0.873756
Si Si5 0.750000 0.755516 0.000000
O O1 0.500000 0.250000 0.770967
O O2 0.532881 0.343028 0.729931
O O3 0.666652 0.280112 0.593786
O O4 0.678391 0.291436 0.889368
O O5 0.604505 0.063973 0.276051
O O6 0.390201 0.083036 0.289329
O O7 0.475462 0.089592 0.029851
O O8 0.250000 0.072176 0.000000
O O9 0.399117 0.998252 0.018914
O O10 0.231919 0.000000 0.750000
O O11 0.250000 0.932872 0.000000
#
# Coordination Sequence:
#
# PCOD8296707 Si02
#       5
#    16  16  16  16   8
#     4  11  26  48  76 106 140 185 243 301 364 437
#     4  11  25  42  72 105 140 185 244 294 357 422
#     4  10  24  44  68 105 146 187 234 294 353 434
#     4   9  20  43  71 103 147 192 235 293 357 432
#     4  10  26  50  78  98 144 190 234 304 376 426
#
# _framework density 25.689985
#
# number of rings (size 3 to 8) (size 9 to 14) (size 15 to 20)
#    0.000    1.778    0.000    1.333    7.778    7.111 
#    2.000    5.556    0.000    0.000    0.000    0.000 
#    0.000    0.000    0.000    0.000    0.000    0.000 
#
# Total GULP energy -445984.579892 kJ/mol
# GULP energy per Si atom -12388.460553 kJ/mol
# Density = 2.563151 g / cm^3
# Si number density = 25.689985 Si / 1000 Ang^3
#
#
#
# Elastic Constant Matrix: (Units=GPa)
#
#
# Indices 1 2 3 4 5 6 
#
# 1 95.0755 16.0570 21.5045 0.0007 0.0016 0.0144
# 2 16.0570 136.4260 8.9503 0.0007 0.0010 0.0121
# 3 21.5045 8.9503 107.0612 0.0023 0.0103 0.0373
# 4 0.0007 0.0007 0.0023 23.9047 0.0004 0.0066
# 5 0.0016 0.0010 0.0103 0.0004 50.9321 -0.0136
# 6 0.0144 0.0121 0.0373 0.0066 -0.0136 14.1187
#
#
#
# Elastic Compliance Matrix: (Units=1/GPa)
#
#
# Indices 1 2 3 4 5 6 
#
# 1 0.011204 -0.001177 -0.002152 0.000000 0.000000 -0.000005
# 2 -0.001177 0.007494 -0.000390 0.000000 0.000000 -0.000004
# 3 -0.002152 -0.000390 0.009805 -0.000001 -0.000002 -0.000023
# 4 0.000000 0.000000 -0.000001 0.041833 0.000000 -0.000019
# 5 0.000000 0.000000 -0.000002 0.000000 0.019634 0.000019
# 6 -0.000005 -0.000004 -0.000023 -0.000019 0.000019 0.070828
#
#
# Mechanical properties :
#
#
# Convention : Reuss Voigt Hill
#
# Bulk Modulus (GPa) = 47.47383 47.95404 47.71394
# Shear Modulus (GPa) = 28.52938 37.26116 32.89527
#
# Velocity S-wave (km/s) = 3.33607 3.81256 3.58225
# Velocity P-wave (km/s) = 5.77571 6.17153 5.97690
#
# Compressibility (1/GPa) = 0.02106424
#
# Stress axis : x y z
#
# Youngs Moduli (GPa) = 89.25750 133.43741 101.98558
#
# Poissons Ratio (x) = 0.15712 0.21947
# Poissons Ratio (y) = 0.10510 0.03977
# Poissons Ratio (z) = 0.19208 0.05204
#
# Static dielectric constant tensor:
#      x y z
#    x 4.887180 0.000000 0.000000 
#    y 0.000000 4.099570 -0.000010 
#    z 0.000000 -0.000010 5.760630 
# 
# 
# High freq. dielectric constant tensor:
#      x y z
#    x 2.045550 0.000000 0.000000 
#    y 0.000000 1.984270 0.000000 
#    z 0.000000 0.000000 2.063190 
# 
# From -- ./inp_files/4813.got.cif
#   From: 2010.03.12/outbox.cif.g09.slc.cpg/sg73_3_cif.got.tgz:4813.got - 2010.04.16 15:25:48.
