data_PCOD8296201
_publ_section_title
;
Structure prediction by ZEFSAII (Michael W. Deem and Ramdas Pophale) SiO2 
 PCOD8296201
Probable space group: I B C A 
;
_chemical_formula_sum "Si O2"
_cell_formula_units_Z 96
_cell_length_a 9.369319
_cell_length_b 20.746884
_cell_length_c 25.895414
_cell_angle_alpha 90.000000
_cell_angle_beta 90.000000
_cell_angle_gamma 90.000000
_cell_volume 5033.658672
_symmetry_space_group_name_H-M "I B C A "
_symmetry_group_IT_number 73
_symmetry_cell_setting 'orthorhombic'
loop_
_space_group_symop_operation_xyz
x,y,z
-x,1/2-y,z
x,-y,1/2-z
1/2-x,y,-z
-x,-y,-z
x,1/2+y,-z
-x,y,1/2+z
1/2+x,-y,z
1/2+x,1/2+y,1/2+z
1/2-x,-y,1/2+z
1/2+x,1/2-y,-z
-x,1/2+y,1/2-z
1/2-x,1/2-y,1/2-z
1/2+x,y,1/2-z
1/2-x,1/2+y,z
x,1/2-y,1/2+z
loop_
_atom_site_type_symbol
_atom_site_label
_atom_site_fract_x
_atom_site_fract_y
_atom_site_fract_z
Si Si1 0.570525 0.500000 0.250000
Si Si2 0.820711 0.575103 0.306687
Si Si3 0.525712 0.426112 0.007766
Si Si4 0.833704 0.249726 0.091309
Si Si5 0.750000 0.158584 0.000000
Si Si6 0.151532 0.772442 0.294733
Si Si7 0.264020 0.106615 0.918842
O O1 0.675435 0.549549 0.279676
O O2 0.465097 0.461377 0.288707
O O3 0.839546 0.650758 0.298316
O O4 0.802157 0.565438 0.368006
O O5 0.612168 0.417747 0.060804
O O6 0.500000 0.500000 0.000000
O O7 0.381458 0.387072 0.010933
O O8 0.610667 0.401139 0.959153
O O9 0.816070 0.232789 0.152043
O O10 0.752480 0.317194 0.088078
O O11 0.000000 0.250000 0.076238
O O12 0.759640 0.200707 0.052023
O O13 0.250000 0.750000 0.250000
O O14 0.000000 0.750000 0.274808
#
# Coordination Sequence:
#
# PCOD8296201 Si02
#       7
#     8  16  16  16   8  16  16
#     4  10  22  42  64  92 122 168 214 246 300 368
#     4  10  22  41  64  92 123 165 205 256 304 367
#     4  11  24  41  58  91 124 160 203 253 299 371
#     4  10  21  39  64  90 120 162 200 255 312 361
#     4  12  22  40  66  92 118 166 212 248 310 380
#     4  10  21  41  62  91 126 158 199 256 314 362
#     4  10  22  41  61  85 128 157 198 256 311 353
#
# _framework density 19.071612999999999
#
# number of rings (size 3 to 8) (size 9 to 14) (size 15 to 20)
#    0.000    1.667    1.667    3.000    2.333    0.000 
#    9.000    0.000    0.000    0.000    0.000    0.000 
#    0.000    0.000    0.000    0.000    0.000    0.000 
#
# Total GULP energy -594920.542309 kJ/mol
# GULP energy per Si atom -12394.177965 kJ/mol
# Density = 1.902821 g / cm^3
# Si number density = 19.071613 Si / 1000 Ang^3
#
#
#
# Elastic Constant Matrix: (Units=GPa)
#
#
# Indices 1 2 3 4 5 6 
#
# 1 147.8408 56.3137 76.2195 0.0000 0.0000 0.0000
# 2 56.3137 97.1734 46.1692 0.0000 0.0000 0.0000
# 3 76.2195 46.1692 123.1883 0.0000 0.0000 0.0000
# 4 0.0000 0.0000 0.0000 42.4037 0.0000 0.0000
# 5 0.0000 0.0000 0.0000 0.0000 22.1556 0.0000
# 6 0.0000 0.0000 0.0000 0.0000 0.0000 40.3760
#
#
#
# Elastic Compliance Matrix: (Units=1/GPa)
#
#
# Indices 1 2 3 4 5 6 
#
# 1 0.010984 -0.003816 -0.005366 0.000000 0.000000 0.000000
# 2 -0.003816 0.013846 -0.002828 0.000000 0.000000 0.000000
# 3 -0.005366 -0.002828 0.012498 0.000000 0.000000 0.000000
# 4 0.000000 0.000000 0.000000 0.023583 0.000000 0.000000
# 5 0.000000 0.000000 0.000000 0.000000 0.045135 0.000000
# 6 0.000000 0.000000 0.000000 0.000000 0.000000 0.024767
#
#
# Mechanical properties :
#
#
# Convention : Reuss Voigt Hill
#
# Bulk Modulus (GPa) = 75.14585 80.62304 77.88445
# Shear Modulus (GPa) = 31.39344 33.62041 32.50692
#
# Velocity S-wave (km/s) = 4.06160 4.20319 4.13300
# Velocity P-wave (km/s) = 7.84110 8.11919 7.98136
#
# Compressibility (1/GPa) = 0.01330745
#
# Stress axis : x y z
#
# Youngs Moduli (GPa) = 91.04205 72.22259 80.01512
#
# Poissons Ratio (x) = 0.27560 0.42935
# Poissons Ratio (y) = 0.34741 0.22631
# Poissons Ratio (z) = 0.48852 0.20427
#
# Static dielectric constant tensor:
#      x y z
#    x 3.585560 0.000000 0.000000 
#    y 0.000000 3.598260 0.000000 
#    z 0.000000 0.000000 3.697930 
# 
# 
# High freq. dielectric constant tensor:
#      x y z
#    x 1.749220 0.000000 0.000000 
#    y 0.000000 1.747550 0.000000 
#    z 0.000000 0.000000 1.753710 
# 
# From -- ./inp_files/7841.got.cif
#   From: 2010.03.12/outbox.cif.g09.slc.cpg/sg73_4_cif.got.tgz:7841.got - 2010.04.16 15:25:48.
