data_PCOD8296923
_publ_section_title
;
Structure prediction by ZEFSAII (Michael W. Deem and Ramdas Pophale) SiO2 
 PCOD8296923
Probable space group: I B C A 
;
_chemical_formula_sum "Si O2"
_cell_formula_units_Z 80
_cell_length_a 18.263792
_cell_length_b 13.852727
_cell_length_c 14.821494
_cell_angle_alpha 90.000000
_cell_angle_beta 90.000000
_cell_angle_gamma 90.000000
_cell_volume 3749.887257
_symmetry_space_group_name_H-M "I B C A "
_symmetry_group_IT_number 73
_symmetry_cell_setting 'orthorhombic'
loop_
_space_group_symop_operation_xyz
x,y,z
-x,1/2-y,z
x,-y,1/2-z
1/2-x,y,-z
-x,-y,-z
x,1/2+y,-z
-x,y,1/2+z
1/2+x,-y,z
1/2+x,1/2+y,1/2+z
1/2-x,-y,1/2+z
1/2+x,1/2-y,-z
-x,1/2+y,1/2-z
1/2-x,1/2-y,1/2-z
1/2+x,y,1/2-z
1/2-x,1/2+y,z
x,1/2-y,1/2+z
loop_
_atom_site_type_symbol
_atom_site_label
_atom_site_fract_x
_atom_site_fract_y
_atom_site_fract_z
Si Si1 0.620617 0.500000 0.250000
Si Si2 0.150646 0.314543 0.823423
Si Si3 0.057495 0.553313 0.062264
Si Si4 0.687191 0.485223 0.553655
Si Si5 0.263590 0.135655 0.178151
Si Si6 0.000000 0.250000 0.867985
O O1 0.568427 0.497241 0.160971
O O2 0.674803 0.407102 0.247150
O O3 0.144098 0.409533 0.885118
O O4 0.197481 0.227830 0.869469
O O5 0.189388 0.336026 0.729314
O O6 0.066420 0.285531 0.804476
O O7 0.031451 0.664059 0.069747
O O8 0.134173 0.547180 0.010068
O O9 0.000000 0.500000 0.000000
O O10 0.750000 0.425648 0.500000
O O11 0.738630 0.559148 0.606383
#
# Coordination Sequence:
#
# PCOD8296923 Si02
#       6
#     8  16  16  16  16   8
#     4  12  22  48  72  96 146 180 236 300 352 414
#     4  11  23  41  69 101 140 182 238 288 352 419
#     4  12  27  46  71 104 144 189 231 294 362 427
#     4  12  22  43  72 101 139 186 236 293 350 420
#     4  11  23  43  71 106 135 185 239 295 349 417
#     4  12  24  46  66 102 148 178 234 296 348 434
#
# _framework density 21.333974999999999
#
# number of rings (size 3 to 8) (size 9 to 14) (size 15 to 20)
#    0.000    0.400    8.000    0.000    0.000    4.000 
#    7.200    1.000    0.000    0.000    0.000    0.000 
#    0.000    0.000    0.000    0.000    0.000    0.000 
#
# Total GULP energy -495651.003015 kJ/mol
# GULP energy per Si atom -12391.275075 kJ/mol
# Density = 2.128542 g / cm^3
# Si number density = 21.333975 Si / 1000 Ang^3
#
#
#
# Elastic Constant Matrix: (Units=GPa)
#
#
# Indices 1 2 3 4 5 6 
#
# 1 169.6410 43.8674 67.1174 0.0000 0.0000 0.0000
# 2 43.8674 97.7943 42.9680 0.0000 0.0000 0.0000
# 3 67.1174 42.9680 95.8766 0.0000 0.0000 0.0000
# 4 0.0000 0.0000 0.0000 13.7106 0.0000 0.0000
# 5 0.0000 0.0000 0.0000 0.0000 41.4119 0.0000
# 6 0.0000 0.0000 0.0000 0.0000 0.0000 43.2777
#
#
#
# Elastic Compliance Matrix: (Units=1/GPa)
#
#
# Indices 1 2 3 4 5 6 
#
# 1 0.008317 -0.001460 -0.005168 0.000000 0.000000 0.000000
# 2 -0.001460 0.012989 -0.004799 0.000000 0.000000 0.000000
# 3 -0.005168 -0.004799 0.016198 0.000000 0.000000 0.000000
# 4 0.000000 0.000000 0.000000 0.072936 0.000000 0.000000
# 5 0.000000 0.000000 0.000000 0.000000 0.024148 0.000000
# 6 0.000000 0.000000 0.000000 0.000000 0.000000 0.023107
#
#
# Mechanical properties :
#
#
# Convention : Reuss Voigt Hill
#
# Bulk Modulus (GPa) = 68.25684 74.57973 71.41829
# Shear Modulus (GPa) = 26.96400 33.63732 30.30066
#
# Velocity S-wave (km/s) = 3.55899 3.97508 3.77278
# Velocity P-wave (km/s) = 6.99660 7.49015 7.24758
#
# Compressibility (1/GPa) = 0.01465055
#
# Stress axis : x y z
#
# Youngs Moduli (GPa) = 120.23549 76.98780 61.73412
#
# Poissons Ratio (x) = 0.11241 0.31903
# Poissons Ratio (y) = 0.17556 0.29626
# Poissons Ratio (z) = 0.62136 0.36947
#
# Static dielectric constant tensor:
#      x y z
#    x 4.218760 0.000000 0.000000 
#    y 0.000000 4.282060 0.000000 
#    z 0.000000 0.000000 3.702160 
# 
# 
# High freq. dielectric constant tensor:
#      x y z
#    x 1.864200 0.000000 0.000000 
#    y 0.000000 1.842890 0.000000 
#    z 0.000000 0.000000 1.812360 
# 
# From -- ./inp_files/22414.got.cif
#   From: 2010.03.12/outbox.cif.g09.slc.cpg/sg73_12_cif.got.tgz:22414.got - 2010.04.16 15:25:48.
