data_PCOD8296043
_publ_section_title
;
Structure prediction by ZEFSAII (Michael W. Deem and Ramdas Pophale) SiO2 
 PCOD8296043
Probable space group: I B C A 
;
_chemical_formula_sum "Si O2"
_cell_formula_units_Z 88
_cell_length_a 17.618872
_cell_length_b 19.010327
_cell_length_c 12.044059
_cell_angle_alpha 90.000000
_cell_angle_beta 90.000000
_cell_angle_gamma 90.000000
_cell_volume 4034.043361
_symmetry_space_group_name_H-M "I B C A "
_symmetry_group_IT_number 73
_symmetry_cell_setting 'orthorhombic'
loop_
_space_group_symop_operation_xyz
x,y,z
-x,1/2-y,z
x,-y,1/2-z
1/2-x,y,-z
-x,-y,-z
x,1/2+y,-z
-x,y,1/2+z
1/2+x,-y,z
1/2+x,1/2+y,1/2+z
1/2-x,-y,1/2+z
1/2+x,1/2-y,-z
-x,1/2+y,1/2-z
1/2-x,1/2-y,1/2-z
1/2+x,y,1/2-z
1/2-x,1/2+y,z
x,1/2-y,1/2+z
loop_
_atom_site_type_symbol
_atom_site_label
_atom_site_fract_x
_atom_site_fract_y
_atom_site_fract_z
Si Si1 0.674732 0.372489 0.939011
Si Si2 0.306888 0.123443 0.692830
Si Si3 0.862609 0.600292 0.877813
Si Si4 0.094308 0.985776 0.094799
Si Si5 0.540786 0.500000 0.250000
Si Si6 0.339586 0.273739 0.009848
O O1 0.702367 0.347518 0.816938
O O2 0.613915 0.433414 0.927201
O O3 0.750000 0.400505 0.000000
O O4 0.632467 0.307279 0.002443
O O5 0.227697 0.097814 0.639960
O O6 0.357599 0.052615 0.691752
O O7 0.351579 0.185151 0.625672
O O8 0.906774 0.569530 0.770788
O O9 0.889414 0.553765 0.980948
O O10 0.879467 0.681893 0.909546
O O11 0.007629 0.983743 0.138719
O O12 0.250000 0.266980 0.000000
#
# Coordination Sequence:
#
# PCOD8296043 Si02
#       6
#    16  16  16  16   8  16
#     4  11  21  34  66  98 120 154 208 259 319 377
#     4  10  20  41  65  90 126 158 202 270 321 351
#     4  10  23  39  61  88 121 164 210 251 314 375
#     4  11  22  41  61  92 127 158 210 263 309 371
#     4  12  24  38  62  86 124 174 202 250 308 372
#     4   8  19  38  58  90 123 153 191 263 312 364
#
# _framework density 21.814343000000001
#
# number of rings (size 3 to 8) (size 9 to 14) (size 15 to 20)
#    0.000    1.818    1.818    3.273    5.091    6.545 
#    0.000    0.909    0.000    0.000    0.000    0.000 
#    0.000    0.000    0.000    0.000    0.000    0.000 
#
# Total GULP energy -545121.118207 kJ/mol
# GULP energy per Si atom -12389.116323 kJ/mol
# Density = 2.176469 g / cm^3
# Si number density = 21.814343 Si / 1000 Ang^3
#
#
#
# Elastic Constant Matrix: (Units=GPa)
#
#
# Indices 1 2 3 4 5 6 
#
# 1 68.5220 39.7673 22.2769 0.0000 0.0000 0.0000
# 2 39.7673 150.7755 48.2893 0.0000 0.0000 0.0000
# 3 22.2769 48.2893 84.6734 0.0000 0.0000 0.0000
# 4 0.0000 0.0000 0.0000 31.8495 0.0000 0.0000
# 5 0.0000 0.0000 0.0000 0.0000 35.8678 0.0000
# 6 0.0000 0.0000 0.0000 0.0000 0.0000 12.2207
#
#
#
# Elastic Compliance Matrix: (Units=1/GPa)
#
#
# Indices 1 2 3 4 5 6 
#
# 1 0.017631 -0.003872 -0.002430 0.000000 0.000000 0.000000
# 2 -0.003872 0.008965 -0.004094 0.000000 0.000000 0.000000
# 3 -0.002430 -0.004094 0.014784 0.000000 0.000000 0.000000
# 4 0.000000 0.000000 0.000000 0.031398 0.000000 0.000000
# 5 0.000000 0.000000 0.000000 0.000000 0.027880 0.000000
# 6 0.000000 0.000000 0.000000 0.000000 0.000000 0.081829
#
#
# Mechanical properties :
#
#
# Convention : Reuss Voigt Hill
#
# Bulk Modulus (GPa) = 48.57293 58.29310 53.43301
# Shear Modulus (GPa) = 23.79347 28.89675 26.34511
#
# Velocity S-wave (km/s) = 3.30620 3.64355 3.47896
# Velocity P-wave (km/s) = 6.07367 6.66940 6.37849
#
# Compressibility (1/GPa) = 0.02058760
#
# Stress axis : x y z
#
# Youngs Moduli (GPa) = 56.71818 111.54796 67.63921
#
# Poissons Ratio (x) = 0.43189 0.16440
# Poissons Ratio (y) = 0.21960 0.27691
# Poissons Ratio (z) = 0.13785 0.45667
#
# Static dielectric constant tensor:
#      x y z
#    x 3.667150 0.000000 0.000000 
#    y 0.000000 4.474350 0.000000 
#    z 0.000000 0.000000 4.137300 
# 
# 
# High freq. dielectric constant tensor:
#      x y z
#    x 1.819540 0.000000 0.000000 
#    y 0.000000 1.863370 0.000000 
#    z 0.000000 0.000000 1.867480 
# 
# From -- ./inp_files/11879.got.cif
#   From: 2010.03.12/outbox.cif.g09.slc.cpg/sg73_6_cif.got.tgz:11879.got - 2010.04.16 15:25:48.
