data_PCOD8296804
_publ_section_title
;
Structure prediction by ZEFSAII (Michael W. Deem and Ramdas Pophale) SiO2 
 PCOD8296804
Probable space group: I B C A 
;
_chemical_formula_sum "Si O2"
_cell_formula_units_Z 120
_cell_length_a 24.116864
_cell_length_b 28.541694
_cell_length_c 8.327778
_cell_angle_alpha 90.000000
_cell_angle_beta 90.000000
_cell_angle_gamma 90.000000
_cell_volume 5732.310668
_symmetry_space_group_name_H-M "I B C A "
_symmetry_group_IT_number 73
_symmetry_cell_setting 'orthorhombic'
loop_
_space_group_symop_operation_xyz
x,y,z
-x,1/2-y,z
x,-y,1/2-z
1/2-x,y,-z
-x,-y,-z
x,1/2+y,-z
-x,y,1/2+z
1/2+x,-y,z
1/2+x,1/2+y,1/2+z
1/2-x,-y,1/2+z
1/2+x,1/2-y,-z
-x,1/2+y,1/2-z
1/2-x,1/2-y,1/2-z
1/2+x,y,1/2-z
1/2-x,1/2+y,z
x,1/2-y,1/2+z
loop_
_atom_site_type_symbol
_atom_site_label
_atom_site_fract_x
_atom_site_fract_y
_atom_site_fract_z
Si Si1 0.974203 0.202320 0.511149
Si Si2 0.750000 0.348884 0.500000
Si Si3 0.064963 0.445807 0.714405
Si Si4 0.150429 0.201111 0.102489
Si Si5 0.421210 0.156391 0.371680
Si Si6 0.037695 0.399768 0.377568
Si Si7 0.144155 0.121255 0.341366
Si Si8 0.817109 0.707706 0.746784
O O1 0.913904 0.216313 0.581438
O O2 0.965246 0.156372 0.403344
O O3 0.000000 0.250000 0.429398
O O4 0.019645 0.183720 0.639462
O O5 0.799661 0.382798 0.444159
O O6 0.768978 0.317267 0.650671
O O7 0.057375 0.500000 0.750000
O O8 0.060153 0.430646 0.526401
O O9 0.124738 0.429978 0.782124
O O10 0.020462 0.420067 0.824169
O O11 0.153378 0.150233 0.179671
O O12 0.182832 0.236806 0.219602
O O13 0.188030 0.199309 0.942453
O O14 0.423141 0.104507 0.281389
O O15 0.403888 0.146599 0.555339
O O16 0.377370 0.190027 0.292396
#
# Coordination Sequence:
#
# PCOD8296804 Si02
#       8
#    16   8  16  16  16  16  16  16
#     4  12  23  34  58  96 138 183 207 246 309 403
#     4  10  26  44  70  82 120 164 226 284 346 384
#     4  12  24  41  67  96 132 172 221 272 336 401
#     4  12  24  37  62  88 135 166 221 259 325 388
#     4  11  21  37  59  86 137 167 216 254 316 387
#     4  12  22  40  61  97 137 178 212 261 320 408
#     4  11  23  44  63  89 116 168 212 284 335 391
#     4  11  23  40  56  94 120 176 219 271 316 394
#
# _framework density 20.933966000000002
#
# number of rings (size 3 to 8) (size 9 to 14) (size 15 to 20)
#    0.000    0.533    6.667    2.000    0.000    3.200 
#    0.000    0.000    0.000    4.800    0.000    0.000 
#    0.000    0.000    0.000    0.000    0.000    0.000 
#
# Total GULP energy -743296.659671 kJ/mol
# GULP energy per Si atom -12388.277661 kJ/mol
# Density = 2.088632 g / cm^3
# Si number density = 20.933966 Si / 1000 Ang^3
#
#
#
# Elastic Constant Matrix: (Units=GPa)
#
#
# Indices 1 2 3 4 5 6 
#
# 1 74.3183 13.4221 29.9480 0.0000 0.0000 0.0000
# 2 13.4221 79.9655 39.1504 0.0000 0.0000 0.0000
# 3 29.9480 39.1504 123.7656 0.0000 0.0000 0.0000
# 4 0.0000 0.0000 0.0000 22.3160 0.0000 0.0000
# 5 0.0000 0.0000 0.0000 0.0000 25.2689 0.0000
# 6 0.0000 0.0000 0.0000 0.0000 0.0000 13.6272
#
#
#
# Elastic Compliance Matrix: (Units=1/GPa)
#
#
# Indices 1 2 3 4 5 6 
#
# 1 0.014961 -0.000874 -0.003344 0.000000 0.000000 0.000000
# 2 -0.000874 0.014848 -0.004485 0.000000 0.000000 0.000000
# 3 -0.003344 -0.004485 0.010308 0.000000 0.000000 0.000000
# 4 0.000000 0.000000 0.000000 0.044811 0.000000 0.000000
# 5 0.000000 0.000000 0.000000 0.000000 0.039574 0.000000
# 6 0.000000 0.000000 0.000000 0.000000 0.000000 0.073383
#
#
# Mechanical properties :
#
#
# Convention : Reuss Voigt Hill
#
# Bulk Modulus (GPa) = 44.03259 49.23227 46.63243
# Shear Modulus (GPa) = 22.43552 25.27769 23.85660
#
# Velocity S-wave (km/s) = 3.27728 3.47867 3.37948
# Velocity P-wave (km/s) = 5.94983 6.30110 6.12798
#
# Compressibility (1/GPa) = 0.02271045
#
# Stress axis : x y z
#
# Youngs Moduli (GPa) = 66.84098 67.34875 97.01505
#
# Poissons Ratio (x) = 0.05887 0.32438
# Poissons Ratio (y) = 0.05843 0.43514
# Poissons Ratio (z) = 0.22349 0.30208
#
# Static dielectric constant tensor:
#      x y z
#    x 4.008790 0.000000 0.000000 
#    y 0.000000 3.520870 0.000000 
#    z 0.000000 0.000000 4.218970 
# 
# 
# High freq. dielectric constant tensor:
#      x y z
#    x 1.820070 0.000000 0.000000 
#    y 0.000000 1.779790 0.000000 
#    z 0.000000 0.000000 1.840280 
# 
# From -- ./inp_files/8103.got.cif
#   From: 2010.03.12/outbox.cif.g09.slc.cpg/sg73_5_cif.got.tgz:8103.got - 2010.04.16 15:25:48.
