data_PCOD8296713
_publ_section_title
;
Structure prediction by ZEFSAII (Michael W. Deem and Ramdas Pophale) SiO2 
 PCOD8296713
Probable space group: I B C A 
;
_chemical_formula_sum "Si O2"
_cell_formula_units_Z 88
_cell_length_a 10.974731
_cell_length_b 21.661660
_cell_length_c 16.310520
_cell_angle_alpha 90.000000
_cell_angle_beta 90.000000
_cell_angle_gamma 90.000000
_cell_volume 3877.514461
_symmetry_space_group_name_H-M "I B C A "
_symmetry_group_IT_number 73
_symmetry_cell_setting 'orthorhombic'
loop_
_space_group_symop_operation_xyz
x,y,z
-x,1/2-y,z
x,-y,1/2-z
1/2-x,y,-z
-x,-y,-z
x,1/2+y,-z
-x,y,1/2+z
1/2+x,-y,z
1/2+x,1/2+y,1/2+z
1/2-x,-y,1/2+z
1/2+x,1/2-y,-z
-x,1/2+y,1/2-z
1/2-x,1/2-y,1/2-z
1/2+x,y,1/2-z
1/2-x,1/2+y,z
x,1/2-y,1/2+z
loop_
_atom_site_type_symbol
_atom_site_label
_atom_site_fract_x
_atom_site_fract_y
_atom_site_fract_z
Si Si1 0.630850 0.495208 0.952001
Si Si2 0.350716 0.121174 0.629153
Si Si3 0.264048 0.756256 0.093776
Si Si4 0.284594 0.062932 0.792373
Si Si5 0.089403 0.165331 0.822073
Si Si6 0.000000 0.750000 0.315120
O O1 0.670795 0.564010 0.929594
O O2 0.625020 0.452938 0.869309
O O3 0.750000 0.468706 0.000000
O O4 0.500000 0.500000 0.000000
O O5 0.244671 0.170163 0.609337
O O6 0.357400 0.102079 0.724941
O O7 0.482482 0.151376 0.612710
O O8 0.159923 0.724431 0.145916
O O9 0.390915 0.729740 0.125602
O O10 0.250000 0.738112 0.000000
O O11 0.167524 0.102740 0.818128
O O12 0.235589 0.000000 0.750000
O O13 0.035875 0.188810 0.735615
#
# Coordination Sequence:
#
# PCOD8296713 Si02
#       6
#    16  16  16  16  16   8
#     4  11  25  47  70 104 147 190 246 310 384 442
#     4  11  23  44  70  97 142 187 240 302 364 461
#     4  12  27  45  68 110 144 189 245 311 393 448
#     4  10  24  44  70 103 139 195 243 299 367 457
#     4  12  23  45  72 104 144 185 255 298 371 462
#     4  12  24  44  76  98 146 200 242 310 376 468
#
# _framework density 22.694949999999999
#
# number of rings (size 3 to 8) (size 9 to 14) (size 15 to 20)
#    0.000    0.727    3.636    3.273    2.545    7.273 
#    6.545    0.000    0.000    0.000    0.000    0.000 
#    0.000    0.000    0.000    0.000    0.000    0.000 
#
# Total GULP energy -545442.296592 kJ/mol
# GULP energy per Si atom -12396.415832 kJ/mol
# Density = 2.264330 g / cm^3
# Si number density = 22.694950 Si / 1000 Ang^3
#
#
#
# Elastic Constant Matrix: (Units=GPa)
#
#
# Indices 1 2 3 4 5 6 
#
# 1 110.2186 19.7943 47.0594 0.0000 0.0000 0.0000
# 2 19.7943 88.6981 29.3179 0.0000 0.0000 0.0000
# 3 47.0594 29.3179 123.5718 -0.0001 0.0000 0.0000
# 4 0.0000 0.0000 -0.0001 9.3453 0.0000 0.0000
# 5 0.0000 0.0000 0.0000 0.0000 39.8481 0.0000
# 6 0.0000 0.0000 0.0000 0.0000 0.0000 54.8501
#
#
#
# Elastic Compliance Matrix: (Units=1/GPa)
#
#
# Indices 1 2 3 4 5 6 
#
# 1 0.010943 -0.001155 -0.003893 0.000000 0.000000 0.000000
# 2 -0.001155 0.012356 -0.002491 0.000000 0.000000 0.000000
# 3 -0.003893 -0.002491 0.010166 0.000000 0.000000 0.000000
# 4 0.000000 0.000000 0.000000 0.107006 0.000000 0.000000
# 5 0.000000 0.000000 0.000000 0.000000 0.025095 0.000000
# 6 0.000000 0.000000 0.000000 0.000000 0.000000 0.018232
#
#
# Mechanical properties :
#
#
# Convention : Reuss Voigt Hill
#
# Bulk Modulus (GPa) = 54.39313 57.20354 55.79833
# Shear Modulus (GPa) = 24.38967 35.89650 30.14309
#
# Velocity S-wave (km/s) = 3.28178 3.98137 3.64838
# Velocity P-wave (km/s) = 6.19509 6.81140 6.51054
#
# Compressibility (1/GPa) = 0.01838467
#
# Stress axis : x y z
#
# Youngs Moduli (GPa) = 91.38622 80.93552 98.36533
#
# Poissons Ratio (x) = 0.09349 0.38295
# Poissons Ratio (y) = 0.10557 0.24507
# Poissons Ratio (z) = 0.35578 0.20165
#
# Static dielectric constant tensor:
#      x y z
#    x 4.074490 0.000000 0.000000 
#    y 0.000000 4.087740 0.000000 
#    z 0.000000 0.000000 4.181210 
# 
# 
# High freq. dielectric constant tensor:
#      x y z
#    x 1.893380 0.000000 0.000000 
#    y 0.000000 1.905330 0.000000 
#    z 0.000000 0.000000 1.893960 
# 
# From -- ./inp_files/16114.got.cif
#   From: 2010.03.12/outbox.cif.g09.slc.cpg/sg73_9_cif.got.tgz:16114.got - 2010.04.16 15:25:48.
