data_PCOD8296855
_publ_section_title
;
Structure prediction by ZEFSAII (Michael W. Deem and Ramdas Pophale) SiO2 
 PCOD8296855
Probable space group: I B C A 
;
_chemical_formula_sum "Si O2"
_cell_formula_units_Z 120
_cell_length_a 18.867739
_cell_length_b 13.354021
_cell_length_c 22.323917
_cell_angle_alpha 90.000000
_cell_angle_beta 90.000000
_cell_angle_gamma 90.000000
_cell_volume 5624.738209
_symmetry_space_group_name_H-M "I B C A "
_symmetry_group_IT_number 73
_symmetry_cell_setting 'orthorhombic'
loop_
_space_group_symop_operation_xyz
x,y,z
-x,1/2-y,z
x,-y,1/2-z
1/2-x,y,-z
-x,-y,-z
x,1/2+y,-z
-x,y,1/2+z
1/2+x,-y,z
1/2+x,1/2+y,1/2+z
1/2-x,-y,1/2+z
1/2+x,1/2-y,-z
-x,1/2+y,1/2-z
1/2-x,1/2-y,1/2-z
1/2+x,y,1/2-z
1/2-x,1/2+y,z
x,1/2-y,1/2+z
loop_
_atom_site_type_symbol
_atom_site_label
_atom_site_fract_x
_atom_site_fract_y
_atom_site_fract_z
Si Si1 0.128151 0.849562 0.213178
Si Si2 0.340088 0.865933 0.326275
Si Si3 0.235236 0.000000 0.250000
Si Si4 0.488447 0.052779 0.165200
Si Si5 0.436739 0.013649 0.456180
Si Si6 0.922733 0.258679 0.544251
Si Si7 0.675581 0.632911 0.467932
Si Si8 0.052818 0.836335 0.330047
O O1 0.163266 0.750813 0.187548
O O2 0.185116 0.938055 0.204048
O O3 0.053732 0.873399 0.179837
O O4 0.118486 0.836309 0.284820
O O5 0.281074 0.925283 0.289874
O O6 0.415923 0.909975 0.303221
O O7 0.320015 0.870115 0.396377
O O8 0.464445 0.056863 0.096799
O O9 0.510923 0.939967 0.181005
O O10 0.367915 0.965658 0.487404
O O11 0.500000 0.000000 0.500000
O O12 0.415510 0.125583 0.435162
O O13 0.864455 0.230966 0.494673
O O14 0.919580 0.184451 0.602232
O O15 0.000000 0.250000 0.513726
O O16 0.750000 0.626958 0.500000
O O17 0.000000 0.750000 0.309686
#
# Coordination Sequence:
#
# PCOD8296855 Si02
#       8
#    16  16   8  16  16  16  16  16
#     4  12  26  45  73 102 137 187 235 299 355 422
#     4  11  29  47  69 105 142 188 232 299 351 426
#     4  12  28  48  68  96 146 190 236 278 364 436
#     4  11  22  43  70 106 133 177 237 287 351 409
#     4  11  22  41  73 105 137 180 234 294 348 422
#     4  11  22  42  72 105 135 186 237 294 350 432
#     4  11  27  47  68 101 146 185 235 295 361 424
#     4  11  21  39  73 106 133 178 235 293 352 417
#
# _framework density 21.334326999999998
#
# number of rings (size 3 to 8) (size 9 to 14) (size 15 to 20)
#    0.000    0.800    5.333    1.600    7.467    1.600 
#    4.800    0.000    0.000    0.000    0.000    0.000 
#    0.000    0.000    0.000    0.000    0.000    0.000 
#
# Total GULP energy -743609.379928 kJ/mol
# GULP energy per Si atom -12393.489665 kJ/mol
# Density = 2.128577 g / cm^3
# Si number density = 21.334327 Si / 1000 Ang^3
#
#
#
# Elastic Constant Matrix: (Units=GPa)
#
#
# Indices 1 2 3 4 5 6 
#
# 1 158.0626 54.3725 53.1309 0.0000 0.0000 0.0000
# 2 54.3725 125.6062 32.0757 0.0000 0.0000 0.0000
# 3 53.1309 32.0757 72.6699 0.0000 0.0000 0.0000
# 4 0.0000 0.0000 0.0000 33.0086 0.0000 0.0000
# 5 0.0000 0.0000 0.0000 0.0000 33.3462 0.0000
# 6 0.0000 0.0000 0.0000 0.0000 0.0000 39.4005
#
#
#
# Elastic Compliance Matrix: (Units=1/GPa)
#
#
# Indices 1 2 3 4 5 6 
#
# 1 0.009038 -0.002508 -0.005501 0.000000 0.000000 0.000000
# 2 -0.002508 0.009669 -0.002434 0.000000 0.000000 0.000000
# 3 -0.005501 -0.002434 0.018857 0.000000 0.000000 0.000000
# 4 0.000000 0.000000 0.000000 0.030295 0.000000 0.000000
# 5 0.000000 0.000000 0.000000 0.000000 0.029988 0.000000
# 6 0.000000 0.000000 0.000000 0.000000 0.000000 0.025380
#
#
# Mechanical properties :
#
#
# Convention : Reuss Voigt Hill
#
# Bulk Modulus (GPa) = 59.95923 70.61078 65.28501
# Shear Modulus (GPa) = 33.40589 35.60170 34.50380
#
# Velocity S-wave (km/s) = 3.96135 4.08947 4.02592
# Velocity P-wave (km/s) = 7.00633 7.44765 7.23036
#
# Compressibility (1/GPa) = 0.01667800
#
# Stress axis : x y z
#
# Youngs Moduli (GPa) = 110.63817 103.42842 53.02938
#
# Poissons Ratio (x) = 0.25937 0.29174
# Poissons Ratio (y) = 0.27745 0.12908
# Poissons Ratio (z) = 0.60866 0.25176
#
# Static dielectric constant tensor:
#      x y z
#    x 4.129630 0.000000 0.000000 
#    y 0.000000 6.660910 0.000000 
#    z 0.000000 0.000000 3.908510 
# 
# 
# High freq. dielectric constant tensor:
#      x y z
#    x 1.836460 0.000000 0.000000 
#    y 0.000000 1.848970 0.000000 
#    z 0.000000 0.000000 1.834150 
# 
# From -- ./inp_files/32466.got.cif
#   From: 2010.03.12/outbox.cif.g09.slc.cpg/sg73_17_cif.got.tgz:32466.got - 2010.04.16 15:25:48.
