data_PCOD8296578
_publ_section_title
;
Structure prediction by ZEFSAII (Michael W. Deem and Ramdas Pophale) SiO2 
 PCOD8296578
Probable space group: I B C A 
;
_chemical_formula_sum "Si O2"
_cell_formula_units_Z 48
_cell_length_a 13.568505
_cell_length_b 5.336508
_cell_length_c 24.190726
_cell_angle_alpha 90.000000
_cell_angle_beta 90.000000
_cell_angle_gamma 90.000000
_cell_volume 1751.612623
_symmetry_space_group_name_H-M "I B C A "
_symmetry_group_IT_number 73
_symmetry_cell_setting 'orthorhombic'
loop_
_space_group_symop_operation_xyz
x,y,z
-x,1/2-y,z
x,-y,1/2-z
1/2-x,y,-z
-x,-y,-z
x,1/2+y,-z
-x,y,1/2+z
1/2+x,-y,z
1/2+x,1/2+y,1/2+z
1/2-x,-y,1/2+z
1/2+x,1/2-y,-z
-x,1/2+y,1/2-z
1/2-x,1/2-y,1/2-z
1/2+x,y,1/2-z
1/2-x,1/2+y,z
x,1/2-y,1/2+z
loop_
_atom_site_type_symbol
_atom_site_label
_atom_site_fract_x
_atom_site_fract_y
_atom_site_fract_z
Si Si1 0.210258 0.328162 0.439107
Si Si2 0.789770 0.907264 0.310172
Si Si3 0.000000 0.750000 0.338843
Si Si4 0.500000 0.750000 0.407226
O O1 0.250000 0.389666 0.500000
O O2 0.230157 0.598053 0.408930
O O3 0.094577 0.283439 0.445759
O O4 0.720432 0.685641 0.339367
O O5 0.901945 0.809975 0.303256
O O6 0.747386 0.000000 0.250000
O O7 0.978642 0.500485 0.373027
#
# Coordination Sequence:
#
# PCOD8296578 Si02
#       4
#    16  16   8   8
#     4  10  23  42  66  91 124 170 219 274 330 400
#     4  10  23  43  67  95 130 175 221 262 317 394
#     4  12  26  41  67 100 138 172 214 282 340 389
#     4  12  26  41  63 100 132 170 222 278 342 393
#
# _framework density 27.403317999999999
#
# number of rings (size 3 to 8) (size 9 to 14) (size 15 to 20)
#    0.000    1.333    0.000    4.000    0.000   18.667 
#    0.000    0.000    0.000    0.000    0.000    0.000 
#    0.000    0.000    0.000    0.000    0.000    0.000 
#
# Total GULP energy -297532.391111 kJ/mol
# GULP energy per Si atom -12397.182963 kJ/mol
# Density = 2.734095 g / cm^3
# Si number density = 27.403318 Si / 1000 Ang^3
#
#
#
# Elastic Constant Matrix: (Units=GPa)
#
#
# Indices 1 2 3 4 5 6 
#
# 1 225.4864 79.4550 16.5832 0.0000 0.0000 0.0000
# 2 79.4550 284.9337 63.7786 0.0000 0.0000 0.0000
# 3 16.5832 63.7786 50.3409 0.0000 0.0000 0.0000
# 4 0.0000 0.0000 0.0000 22.4707 0.0000 0.0000
# 5 0.0000 0.0000 0.0000 0.0000 84.5228 0.0000
# 6 0.0000 0.0000 0.0000 0.0000 0.0000 60.4444
#
#
#
# Elastic Compliance Matrix: (Units=1/GPa)
#
#
# Indices 1 2 3 4 5 6 
#
# 1 0.004919 -0.001408 0.000164 0.000000 0.000000 0.000000
# 2 -0.001408 0.005302 -0.006253 0.000000 0.000000 0.000000
# 3 0.000164 -0.006253 0.027733 0.000000 0.000000 0.000000
# 4 0.000000 0.000000 0.000000 0.044502 0.000000 0.000000
# 5 0.000000 0.000000 0.000000 0.000000 0.011831 0.000000
# 6 0.000000 0.000000 0.000000 0.000000 0.000000 0.016544
#
#
# Mechanical properties :
#
#
# Convention : Reuss Voigt Hill
#
# Bulk Modulus (GPa) = 43.55672 97.82163 70.68918
# Shear Modulus (GPa) = 37.45861 60.21720 48.83790
#
# Velocity S-wave (km/s) = 3.70122 4.69277 4.22618
# Velocity P-wave (km/s) = 5.84761 8.07077 7.04741
#
# Compressibility (1/GPa) = 0.02295857
#
# Stress axis : x y z
#
# Youngs Moduli (GPa) = 203.29000 188.60568 36.05783
#
# Poissons Ratio (x) = 0.26563 -0.00591
# Poissons Ratio (y) = 0.28631 0.22548
# Poissons Ratio (z) = -0.03332 1.17943
#
# Static dielectric constant tensor:
#      x y z
#    x 4.865880 0.000000 0.000000 
#    y 0.000000 6.467580 0.000000 
#    z 0.000000 0.000000 5.322100 
# 
# 
# High freq. dielectric constant tensor:
#      x y z
#    x 2.087600 0.000000 0.000000 
#    y 0.000000 2.177600 0.000000 
#    z 0.000000 0.000000 2.139140 
# 
# From -- ./inp_files/650.got.cif
#   From: 2010.03.12/outbox.cif.g09.slc.cpg/sg73_1_cif.got.tgz:650.got - 2010.04.16 15:25:48.
