data_PCOD8296720
_publ_section_title
;
Structure prediction by ZEFSAII (Michael W. Deem and Ramdas Pophale) SiO2 
 PCOD8296720
Probable space group: I B C A 
;
_chemical_formula_sum "Si O2"
_cell_formula_units_Z 88
_cell_length_a 14.819263
_cell_length_b 20.586641
_cell_length_c 13.577684
_cell_angle_alpha 90.000000
_cell_angle_beta 90.000000
_cell_angle_gamma 90.000000
_cell_volume 4142.264183
_symmetry_space_group_name_H-M "I B C A "
_symmetry_group_IT_number 73
_symmetry_cell_setting 'orthorhombic'
loop_
_space_group_symop_operation_xyz
x,y,z
-x,1/2-y,z
x,-y,1/2-z
1/2-x,y,-z
-x,-y,-z
x,1/2+y,-z
-x,y,1/2+z
1/2+x,-y,z
1/2+x,1/2+y,1/2+z
1/2-x,-y,1/2+z
1/2+x,1/2-y,-z
-x,1/2+y,1/2-z
1/2-x,1/2-y,1/2-z
1/2+x,y,1/2-z
1/2-x,1/2+y,z
x,1/2-y,1/2+z
loop_
_atom_site_type_symbol
_atom_site_label
_atom_site_fract_x
_atom_site_fract_y
_atom_site_fract_z
Si Si1 0.694560 0.500000 0.750000
Si Si2 0.486458 0.576700 0.512836
Si Si3 0.609641 0.376514 0.826215
Si Si4 0.283430 0.820531 0.273391
Si Si5 0.012547 0.323535 0.340197
Si Si6 0.296659 0.918673 0.103522
O O1 0.623812 0.443488 0.769554
O O2 0.760035 0.484041 0.657097
O O3 0.500000 0.500000 0.500000
O O4 0.569497 0.610588 0.566884
O O5 0.476397 0.619601 0.413363
O O6 0.402806 0.580599 0.586739
O O7 0.708188 0.346895 0.848983
O O8 0.545452 0.329844 0.760234
O O9 0.250000 0.750000 0.250000
O O10 0.381424 0.831700 0.319135
O O11 0.272613 0.857844 0.170770
O O12 0.000000 0.250000 0.382451
O O13 0.250000 0.909382 0.000000
#
# Coordination Sequence:
#
# PCOD8296720 Si02
#       6
#     8  16  16  16  16  16
#     4  10  24  44  72  98 144 182 240 296 360 428
#     4  12  27  43  71 105 145 185 241 297 361 439
#     4  11  23  46  68 100 137 185 236 295 357 430
#     4  11  24  45  72  99 141 190 242 303 362 432
#     4  12  26  46  71 103 144 190 243 300 371 434
#     4  11  24  44  70 105 137 189 240 297 360 433
#
# _framework density 21.244419000000001
#
# number of rings (size 3 to 8) (size 9 to 14) (size 15 to 20)
#    0.000    0.727    3.636    4.364    5.091    3.636 
#    0.000    0.000    0.000    0.000    0.000    0.000 
#    0.000    0.000    0.000    0.000    0.000    0.000 
#
# Total GULP energy -545386.149266 kJ/mol
# GULP energy per Si atom -12395.139756 kJ/mol
# Density = 2.119607 g / cm^3
# Si number density = 21.244419 Si / 1000 Ang^3
#
#
#
# Elastic Constant Matrix: (Units=GPa)
#
#
# Indices 1 2 3 4 5 6 
#
# 1 130.0708 19.1473 32.9519 0.0000 0.0000 0.0000
# 2 19.1473 128.9032 28.8616 0.0000 0.0000 0.0000
# 3 32.9519 28.8616 97.2914 -0.0001 0.0000 0.0000
# 4 0.0000 0.0000 -0.0001 29.8863 0.0000 0.0000
# 5 0.0000 0.0000 0.0000 0.0000 46.8318 0.0000
# 6 0.0000 0.0000 0.0000 0.0000 0.0000 31.2156
#
#
#
# Elastic Compliance Matrix: (Units=1/GPa)
#
#
# Indices 1 2 3 4 5 6 
#
# 1 0.008462 -0.000659 -0.002670 0.000000 0.000000 0.000000
# 2 -0.000659 0.008361 -0.002257 0.000000 0.000000 0.000000
# 3 -0.002670 -0.002257 0.011852 0.000000 0.000000 0.000000
# 4 0.000000 0.000000 0.000000 0.033460 0.000000 0.000000
# 5 0.000000 0.000000 0.000000 0.000000 0.021353 0.000000
# 6 0.000000 0.000000 0.000000 0.000000 0.000000 0.032035
#
#
# Mechanical properties :
#
#
# Convention : Reuss Voigt Hill
#
# Bulk Modulus (GPa) = 57.13610 57.57634 57.35622
# Shear Modulus (GPa) = 37.72715 39.94038 38.83376
#
# Velocity S-wave (km/s) = 4.21867 4.34065 4.28009
# Velocity P-wave (km/s) = 7.11917 7.23065 7.17513
#
# Compressibility (1/GPa) = 0.01750207
#
# Stress axis : x y z
#
# Youngs Moduli (GPa) = 118.18035 119.60266 84.37090
#
# Poissons Ratio (x) = 0.07882 0.22531
# Poissons Ratio (y) = 0.07788 0.19043
# Poissons Ratio (z) = 0.31559 0.26996
#
# Static dielectric constant tensor:
#      x y z
#    x 4.337740 0.000000 0.000000 
#    y 0.000000 3.960910 0.000000 
#    z 0.000000 0.000000 3.618500 
# 
# 
# High freq. dielectric constant tensor:
#      x y z
#    x 1.857310 0.000000 0.000000 
#    y 0.000000 1.844490 0.000000 
#    z 0.000000 0.000000 1.820200 
# 
# From -- ./inp_files/10983.got.cif
#   From: 2010.03.12/outbox.cif.g09.slc.cpg/sg73_6_cif.got.tgz:10983.got - 2010.04.16 15:25:48.
