data_PCOD8296788
_publ_section_title
;
Structure prediction by ZEFSAII (Michael W. Deem and Ramdas Pophale) SiO2 
 PCOD8296788
Probable space group: I B C A 
;
_chemical_formula_sum "Si O2"
_cell_formula_units_Z 112
_cell_length_a 11.652062
_cell_length_b 14.526193
_cell_length_c 30.441519
_cell_angle_alpha 90.000000
_cell_angle_beta 90.000000
_cell_angle_gamma 90.000000
_cell_volume 5152.534595
_symmetry_space_group_name_H-M "I B C A "
_symmetry_group_IT_number 73
_symmetry_cell_setting 'orthorhombic'
loop_
_space_group_symop_operation_xyz
x,y,z
-x,1/2-y,z
x,-y,1/2-z
1/2-x,y,-z
-x,-y,-z
x,1/2+y,-z
-x,y,1/2+z
1/2+x,-y,z
1/2+x,1/2+y,1/2+z
1/2-x,-y,1/2+z
1/2+x,1/2-y,-z
-x,1/2+y,1/2-z
1/2-x,1/2-y,1/2-z
1/2+x,y,1/2-z
1/2-x,1/2+y,z
x,1/2-y,1/2+z
loop_
_atom_site_type_symbol
_atom_site_label
_atom_site_fract_x
_atom_site_fract_y
_atom_site_fract_z
Si Si1 0.122684 0.928798 0.815268
Si Si2 0.774106 0.380700 0.051615
Si Si3 0.647926 0.690777 0.815313
Si Si4 0.120860 0.275362 0.912460
Si Si5 0.584026 0.877779 0.781106
Si Si6 0.729155 0.419081 0.448953
Si Si7 0.487499 0.855027 0.098023
O O1 0.240033 0.871759 0.821501
O O2 0.066251 0.893703 0.770600
O O3 0.038769 0.913245 0.857369
O O4 0.145354 0.038363 0.807827
O O5 0.719122 0.295943 0.075840
O O6 0.713646 0.475672 0.066194
O O7 0.905129 0.388874 0.068650
O O8 0.750000 0.365885 0.000000
O O9 0.605260 0.730239 0.861048
O O10 0.660834 0.784899 0.786623
O O11 0.546811 0.628107 0.796752
O O12 0.157470 0.377532 0.926449
O O13 0.000000 0.250000 0.935531
O O14 0.750000 0.410900 0.500000
O O15 0.618207 0.361699 0.435435
O O16 0.500000 0.750000 0.113278
#
# Coordination Sequence:
#
# PCOD8296788 Si02
#       7
#    16  16  16  16  16  16  16
#     4  11  25  45  71 103 137 185 234 289 349 410
#     4  11  28  46  71 103 137 185 227 286 347 409
#     4  11  23  46  67 101 138 182 233 283 351 415
#     4  12  25  44  71 100 137 183 226 282 348 416
#     4  10  25  45  69 101 137 187 233 286 352 419
#     4  11  27  45  70 104 137 182 228 288 349 413
#     4  12  26  46  71 105 141 180 234 287 346 411
#
# _framework density 21.736874
#
# number of rings (size 3 to 8) (size 9 to 14) (size 15 to 20)
#    0.000    0.857    4.286    0.857   10.000    3.429 
#    5.143    0.000    0.000    0.000    0.000    0.000 
#    0.000    0.000    0.000    0.000    0.000    0.000 
#
# Total GULP energy -694098.893285 kJ/mol
# GULP energy per Si atom -12394.623094 kJ/mol
# Density = 2.168740 g / cm^3
# Si number density = 21.736874 Si / 1000 Ang^3
#
#
#
# Elastic Constant Matrix: (Units=GPa)
#
#
# Indices 1 2 3 4 5 6 
#
# 1 124.8046 35.1370 46.4400 0.0000 0.0000 0.0000
# 2 35.1370 120.3898 40.1012 0.0000 0.0000 0.0000
# 3 46.4400 40.1012 118.8215 0.0000 0.0000 0.0000
# 4 0.0000 0.0000 0.0000 12.1843 0.0000 0.0000
# 5 0.0000 0.0000 0.0000 0.0000 22.4624 0.0000
# 6 0.0000 0.0000 0.0000 0.0000 0.0000 33.8720
#
#
#
# Elastic Compliance Matrix: (Units=1/GPa)
#
#
# Indices 1 2 3 4 5 6 
#
# 1 0.009698 -0.001767 -0.003194 0.000000 0.000000 0.000000
# 2 -0.001767 0.009680 -0.002577 0.000000 0.000000 0.000000
# 3 -0.003194 -0.002577 0.010534 0.000000 0.000000 0.000000
# 4 0.000000 0.000000 0.000000 0.082073 0.000000 0.000000
# 5 0.000000 0.000000 0.000000 0.000000 0.044519 0.000000
# 6 0.000000 0.000000 0.000000 0.000000 0.000000 0.029523
#
#
# Mechanical properties :
#
#
# Convention : Reuss Voigt Hill
#
# Bulk Modulus (GPa) = 67.39549 67.48580 67.44064
# Shear Modulus (GPa) = 24.26615 29.85959 27.06287
#
# Velocity S-wave (km/s) = 3.34482 3.71034 3.53231
# Velocity P-wave (km/s) = 6.78156 7.03347 6.90866
#
# Compressibility (1/GPa) = 0.01483779
#
# Stress axis : x y z
#
# Youngs Moduli (GPa) = 103.10876 103.30390 94.93064
#
# Poissons Ratio (x) = 0.18250 0.30324
# Poissons Ratio (y) = 0.18215 0.24459
# Poissons Ratio (z) = 0.32936 0.26616
#
# Static dielectric constant tensor:
#      x y z
#    x 3.865360 0.000000 0.000000 
#    y 0.000000 4.385550 0.000000 
#    z 0.000000 0.000000 4.080040 
# 
# 
# High freq. dielectric constant tensor:
#      x y z
#    x 1.848690 0.000000 0.000000 
#    y 0.000000 1.870490 0.000000 
#    z 0.000000 0.000000 1.865970 
# 
# From -- ./inp_files/34028.got.cif
#   From: 2010.03.12/outbox.cif.g09.slc.cpg/sg73_18_cif.got.tgz:34028.got - 2010.04.16 15:25:48.
