data_PCOD8296723
_publ_section_title
;
Structure prediction by ZEFSAII (Michael W. Deem and Ramdas Pophale) SiO2 
 PCOD8296723
Probable space group: I B C A 
;
_chemical_formula_sum "Si O2"
_cell_formula_units_Z 72
_cell_length_a 18.622905
_cell_length_b 8.278800
_cell_length_c 20.499149
_cell_angle_alpha 90.000000
_cell_angle_beta 90.000000
_cell_angle_gamma 90.000000
_cell_volume 3160.462568
_symmetry_space_group_name_H-M "I B C A "
_symmetry_group_IT_number 73
_symmetry_cell_setting 'orthorhombic'
loop_
_space_group_symop_operation_xyz
x,y,z
-x,1/2-y,z
x,-y,1/2-z
1/2-x,y,-z
-x,-y,-z
x,1/2+y,-z
-x,y,1/2+z
1/2+x,-y,z
1/2+x,1/2+y,1/2+z
1/2-x,-y,1/2+z
1/2+x,1/2-y,-z
-x,1/2+y,1/2-z
1/2-x,1/2-y,1/2-z
1/2+x,y,1/2-z
1/2-x,1/2+y,z
x,1/2-y,1/2+z
loop_
_atom_site_type_symbol
_atom_site_label
_atom_site_fract_x
_atom_site_fract_y
_atom_site_fract_z
Si Si1 0.487676 0.060101 0.073357
Si Si2 0.823662 0.990403 0.418901
Si Si3 0.190217 0.653791 0.289869
Si Si4 0.250000 0.249046 0.000000
Si Si5 0.559002 0.378761 0.809348
O O1 0.500000 0.250000 0.078430
O O2 0.407069 0.020243 0.096408
O O3 0.542029 0.967695 0.122093
O O4 0.500000 0.000000 0.000000
O O5 0.779793 0.927804 0.355804
O O6 0.816594 0.858019 0.475967
O O7 0.782757 0.151030 0.440148
O O8 0.158186 0.500000 0.250000
O O9 0.250000 0.750000 0.250000
O O10 0.132668 0.782356 0.314912
O O11 0.500000 0.250000 0.789728
O O12 0.565698 0.500000 0.750000
#
# Coordination Sequence:
#
# PCOD8296723 Si02
#       5
#    16  16  16   8  16
#     4  12  27  47  79 114 158 203 257 325 398 478
#     4  11  24  47  71 107 148 196 260 308 396 456
#     4  12  27  49  75 109 151 201 263 323 390 469
#     4  10  24  44  74 102 148 198 246 326 374 472
#     4  12  26  47  75 107 149 198 257 322 388 465
#
# _framework density 22.781475
#
# number of rings (size 3 to 8) (size 9 to 14) (size 15 to 20)
#    0.000    0.444    2.222    5.333    6.222    0.000 
#    8.000    0.000    0.000    0.000    0.000    0.000 
#    0.000    0.000    0.000    0.000    0.000    0.000 
#
# Total GULP energy -446386.055571 kJ/mol
# GULP energy per Si atom -12399.612655 kJ/mol
# Density = 2.272962 g / cm^3
# Si number density = 22.781475 Si / 1000 Ang^3
#
#
#
# Elastic Constant Matrix: (Units=GPa)
#
#
# Indices 1 2 3 4 5 6 
#
# 1 120.9486 61.5593 40.8938 0.0000 0.0000 0.0000
# 2 61.5593 174.5711 72.7479 0.0000 0.0000 0.0000
# 3 40.8938 72.7479 144.3095 0.0000 0.0000 0.0000
# 4 0.0000 0.0000 0.0000 56.9518 0.0000 0.0000
# 5 0.0000 0.0000 0.0000 0.0000 37.4577 0.0000
# 6 0.0000 0.0000 0.0000 0.0000 0.0000 18.2282
#
#
#
# Elastic Compliance Matrix: (Units=1/GPa)
#
#
# Indices 1 2 3 4 5 6 
#
# 1 0.010288 -0.003055 -0.001375 0.000000 0.000000 0.000000
# 2 -0.003055 0.008159 -0.003247 0.000000 0.000000 0.000000
# 3 -0.001375 -0.003247 0.008956 0.000000 0.000000 0.000000
# 4 0.000000 0.000000 0.000000 0.017559 0.000000 0.000000
# 5 0.000000 0.000000 0.000000 0.000000 0.026697 0.000000
# 6 0.000000 0.000000 0.000000 0.000000 0.000000 0.054860
#
#
# Mechanical properties :
#
#
# Convention : Reuss Voigt Hill
#
# Bulk Modulus (GPa) = 83.00073 87.80346 85.40209
# Shear Modulus (GPa) = 34.27266 40.16942 37.22104
#
# Velocity S-wave (km/s) = 3.88288 4.20366 4.04645
# Velocity P-wave (km/s) = 7.52428 7.88583 7.70718
#
# Compressibility (1/GPa) = 0.01204809
#
# Stress axis : x y z
#
# Youngs Moduli (GPa) = 97.20321 122.56869 111.65319
#
# Poissons Ratio (x) = 0.37440 0.15357
# Poissons Ratio (y) = 0.29692 0.36257
# Poissons Ratio (z) = 0.13370 0.39801
#
# Static dielectric constant tensor:
#      x y z
#    x 3.981230 0.000000 0.000000 
#    y 0.000000 4.651450 0.000000 
#    z 0.000000 0.000000 4.354520 
# 
# 
# High freq. dielectric constant tensor:
#      x y z
#    x 1.887380 0.000000 0.000000 
#    y 0.000000 1.930260 0.000000 
#    z 0.000000 0.000000 1.917000 
# 
# From -- ./inp_files/5368.got.cif
#   From: 2010.03.12/outbox.cif.g09.slc.cpg/sg73_3_cif.got.tgz:5368.got - 2010.04.16 15:25:48.
