data_PCOD8296867
_publ_section_title
;
Structure prediction by ZEFSAII (Michael W. Deem and Ramdas Pophale) SiO2 
 PCOD8296867
Probable space group: I B C A 
;
_chemical_formula_sum "Si O2"
_cell_formula_units_Z 96
_cell_length_a 21.478127
_cell_length_b 14.014161
_cell_length_c 14.152534
_cell_angle_alpha 90.000000
_cell_angle_beta 90.000000
_cell_angle_gamma 90.000000
_cell_volume 4259.883435
_symmetry_space_group_name_H-M "I B C A "
_symmetry_group_IT_number 73
_symmetry_cell_setting 'orthorhombic'
loop_
_space_group_symop_operation_xyz
x,y,z
-x,1/2-y,z
x,-y,1/2-z
1/2-x,y,-z
-x,-y,-z
x,1/2+y,-z
-x,y,1/2+z
1/2+x,-y,z
1/2+x,1/2+y,1/2+z
1/2-x,-y,1/2+z
1/2+x,1/2-y,-z
-x,1/2+y,1/2-z
1/2-x,1/2-y,1/2-z
1/2+x,y,1/2-z
1/2-x,1/2+y,z
x,1/2-y,1/2+z
loop_
_atom_site_type_symbol
_atom_site_label
_atom_site_fract_x
_atom_site_fract_y
_atom_site_fract_z
Si Si1 0.569328 0.758630 0.943458
Si Si2 0.750000 0.616132 0.500000
Si Si3 0.528745 0.000000 0.250000
Si Si4 0.335182 0.272455 0.907969
Si Si5 0.449807 0.032667 0.077481
Si Si6 0.321823 0.474116 0.861237
Si Si7 0.935555 0.201224 0.730765
O O1 0.500000 0.750000 0.986058
O O2 0.585773 0.870387 0.949707
O O3 0.573826 0.713311 0.841328
O O4 0.618916 0.702127 0.005561
O O5 0.791906 0.683928 0.434727
O O6 0.713478 0.550771 0.425281
O O7 0.487712 0.945738 0.327612
O O8 0.567134 0.912270 0.204378
O O9 0.294937 0.367180 0.880877
O O10 0.376307 0.247633 0.817257
O O11 0.393840 0.961181 0.103630
O O12 0.500000 0.000000 0.000000
O O13 0.317070 0.500000 0.750000
O O14 0.000000 0.250000 0.695819
#
# Coordination Sequence:
#
# PCOD8296867 Si02
#       7
#    16   8   8  16  16  16  16
#     4  11  21  42  66 105 148 179 223 293 360 434
#     4  12  30  52  72 108 138 194 262 300 362 436
#     4  12  22  38  66 108 150 188 224 292 366 438
#     4  12  26  47  74 102 142 189 244 306 358 434
#     4  12  22  40  70 105 147 185 230 288 362 443
#     4  12  27  52  77 104 145 199 246 304 377 437
#     4  11  23  41  67 108 145 185 235 289 368 439
#
# _framework density 22.535827999999999
#
# number of rings (size 3 to 8) (size 9 to 14) (size 15 to 20)
#    0.000    0.333    5.833    5.000    0.000    0.667 
#    4.500    0.000    0.000    0.000    0.000    0.000 
#    0.000    0.000    0.000    0.000    0.000    0.000 
#
# Total GULP energy -594993.451171 kJ/mol
# GULP energy per Si atom -12395.696899 kJ/mol
# Density = 2.248454 g / cm^3
# Si number density = 22.535828 Si / 1000 Ang^3
#
#
#
# Elastic Constant Matrix: (Units=GPa)
#
#
# Indices 1 2 3 4 5 6 
#
# 1 87.4633 39.5762 50.8043 0.0000 0.0000 0.0000
# 2 39.5762 178.5899 53.6056 0.0000 0.0000 0.0000
# 3 50.8043 53.6056 122.4469 0.0000 0.0000 0.0000
# 4 0.0000 0.0000 0.0000 35.7707 0.0000 0.0000
# 5 0.0000 0.0000 0.0000 0.0000 359.2746 0.0000
# 6 0.0000 0.0000 0.0000 0.0000 0.0000 33.2546
#
#
#
# Elastic Compliance Matrix: (Units=1/GPa)
#
#
# Indices 1 2 3 4 5 6 
#
# 1 0.015517 -0.001734 -0.005679 0.000000 0.000000 0.000000
# 2 -0.001734 0.006640 -0.002188 0.000000 0.000000 0.000000
# 3 -0.005679 -0.002188 0.011481 0.000000 0.000000 0.000000
# 4 0.000000 0.000000 0.000000 0.027956 0.000000 0.000000
# 5 0.000000 0.000000 0.000000 0.000000 0.002783 0.000000
# 6 0.000000 0.000000 0.000000 0.000000 0.000000 0.030071
#
#
# Mechanical properties :
#
#
# Convention : Reuss Voigt Hill
#
# Bulk Modulus (GPa) = 69.26761 75.16360 72.21560
# Shear Modulus (GPa) = 42.20798 101.96092 72.08445
#
# Velocity S-wave (km/s) = 4.33243 6.73366 5.66181
# Velocity P-wave (km/s) = 7.47195 9.68925 8.65192
#
# Compressibility (1/GPa) = 0.01443676
#
# Stress axis : x y z
#
# Youngs Moduli (GPa) = 64.44702 150.59554 87.10253
#
# Poissons Ratio (x) = 0.26113 0.49464
# Poissons Ratio (y) = 0.11175 0.19054
# Poissons Ratio (z) = 0.36599 0.32944
#
# Static dielectric constant tensor:
#      x y z
#    x 4.126880 0.000000 0.000000 
#    y 0.000000 4.357120 0.000000 
#    z 0.000000 0.000000 3.967530 
# 
# 
# High freq. dielectric constant tensor:
#      x y z
#    x 1.863280 0.000000 0.000000 
#    y 0.000000 1.910640 0.000000 
#    z 0.000000 0.000000 1.898870 
# 
# From -- ./inp_files/19355.got.cif
#   From: 2010.03.12/outbox.cif.g09.slc.cpg/sg73_10_cif.got.tgz:19355.got - 2010.04.16 15:25:48.
