data_PCOD8296995
_publ_section_title
;
Structure prediction by ZEFSAII (Michael W. Deem and Ramdas Pophale) SiO2 
 PCOD8296995
Probable space group: I B C A 
;
_chemical_formula_sum "Si O2"
_cell_formula_units_Z 120
_cell_length_a 17.196363
_cell_length_b 26.573749
_cell_length_c 11.015492
_cell_angle_alpha 90.000000
_cell_angle_beta 90.000000
_cell_angle_gamma 90.000000
_cell_volume 5033.769582
_symmetry_space_group_name_H-M "I B C A "
_symmetry_group_IT_number 73
_symmetry_cell_setting 'orthorhombic'
loop_
_space_group_symop_operation_xyz
x,y,z
-x,1/2-y,z
x,-y,1/2-z
1/2-x,y,-z
-x,-y,-z
x,1/2+y,-z
-x,y,1/2+z
1/2+x,-y,z
1/2+x,1/2+y,1/2+z
1/2-x,-y,1/2+z
1/2+x,1/2-y,-z
-x,1/2+y,1/2-z
1/2-x,1/2-y,1/2-z
1/2+x,y,1/2-z
1/2-x,1/2+y,z
x,1/2-y,1/2+z
loop_
_atom_site_type_symbol
_atom_site_label
_atom_site_fract_x
_atom_site_fract_y
_atom_site_fract_z
Si Si1 0.469630 0.306082 0.275479
Si Si2 0.740252 0.421334 0.364841
Si Si3 0.455732 0.836903 0.467516
Si Si4 0.187708 0.226607 0.907405
Si Si5 0.295977 0.180993 0.724500
Si Si6 0.077810 0.056954 0.047439
Si Si7 0.916562 0.027034 0.130517
Si Si8 0.658218 0.500000 0.750000
O O1 0.500000 0.250000 0.250965
O O2 0.503888 0.325416 0.406480
O O3 0.376458 0.310270 0.298728
O O4 0.491638 0.340406 0.156343
O O5 0.750000 0.401811 0.500000
O O6 0.777014 0.377752 0.283258
O O7 0.650009 0.432804 0.335151
O O8 0.788175 0.472460 0.348129
O O9 0.398111 0.790851 0.440386
O O10 0.405764 0.887849 0.492207
O O11 0.216821 0.204599 0.779187
O O12 0.188402 0.287865 0.900697
O O13 0.250000 0.204829 0.000000
O O14 0.109717 0.043860 0.181650
O O15 0.984083 0.054641 0.055439
O O16 0.116341 0.016879 0.956303
O O17 0.950464 0.000000 0.250000
#
# Coordination Sequence:
#
# PCOD8296995 Si02
#       8
#    16  16  16  16  16  16  16   8
#     4  12  26  50  74 112 155 197 251 318 388 460
#     4  12  26  45  71 109 144 196 249 311 384 446
#     4  12  28  45  82 111 151 205 256 314 389 470
#     4  11  24  48  70 107 146 199 248 313 376 451
#     4  11  26  46  74 105 151 194 254 314 377 461
#     4  11  27  47  74 106 155 198 256 313 387 466
#     4  11  25  46  71 106 150 195 252 317 375 451
#     4  12  24  46  72 106 154 194 254 318 374 460
#
# _framework density 23.838992000000001
#
# number of rings (size 3 to 8) (size 9 to 14) (size 15 to 20)
#    0.000    0.533    5.333    1.600    5.600    0.000 
#    0.000    0.000    0.000    0.000    0.000    0.000 
#    0.000    0.000    0.000    0.000    0.000    0.000 
#
# Total GULP energy -743561.441511 kJ/mol
# GULP energy per Si atom -12392.690692 kJ/mol
# Density = 2.378473 g / cm^3
# Si number density = 23.838992 Si / 1000 Ang^3
#
#
#
# Elastic Constant Matrix: (Units=GPa)
#
#
# Indices 1 2 3 4 5 6 
#
# 1 80.4662 32.1374 20.8625 0.0000 0.0000 0.0000
# 2 32.1374 121.2098 23.3642 -0.0003 -0.0001 0.0001
# 3 20.8625 23.3642 123.6095 -0.0008 -0.0004 0.0007
# 4 0.0000 -0.0003 -0.0008 31.4400 -0.0002 0.0005
# 5 0.0000 -0.0001 -0.0004 -0.0002 29.8495 0.0004
# 6 0.0000 0.0001 0.0007 0.0005 0.0004 23.9071
#
#
#
# Elastic Compliance Matrix: (Units=1/GPa)
#
#
# Indices 1 2 3 4 5 6 
#
# 1 0.014257 -0.003442 -0.001756 0.000000 0.000000 0.000000
# 2 -0.003442 0.009393 -0.001195 0.000000 0.000000 0.000000
# 3 -0.001756 -0.001195 0.008612 0.000000 0.000000 0.000000
# 4 0.000000 0.000000 0.000000 0.031807 0.000000 -0.000001
# 5 0.000000 0.000000 0.000000 0.000000 0.033501 0.000000
# 6 0.000000 0.000000 0.000000 -0.000001 0.000000 0.041829
#
#
# Mechanical properties :
#
#
# Convention : Reuss Voigt Hill
#
# Bulk Modulus (GPa) = 51.33903 53.11262 52.22583
# Shear Modulus (GPa) = 31.51073 33.63406 32.57240
#
# Velocity S-wave (km/s) = 3.63962 3.76025 3.70043
# Velocity P-wave (km/s) = 6.26458 6.41722 6.34136
#
# Compressibility (1/GPa) = 0.01947836
#
# Stress axis : x y z
#
# Youngs Moduli (GPa) = 70.13902 106.46284 116.11552
#
# Poissons Ratio (x) = 0.36642 0.20387
# Poissons Ratio (y) = 0.24140 0.13870
# Poissons Ratio (z) = 0.12315 0.12717
#
# Static dielectric constant tensor:
#      x y z
#    x 4.084350 0.000000 0.000000 
#    y 0.000000 4.179470 0.000000 
#    z 0.000000 0.000000 4.484350 
# 
# 
# High freq. dielectric constant tensor:
#      x y z
#    x 1.932100 0.000000 0.000000 
#    y 0.000000 1.942310 0.000000 
#    z 0.000000 0.000000 1.950910 
# 
# From -- ./inp_files/12259.got.cif
#   From: 2010.03.12/outbox.cif.g09.slc.cpg/sg73_7_cif.got.tgz:12259.got - 2010.04.16 15:25:48.
