data_PCOD8296696
_publ_section_title
;
Structure prediction by ZEFSAII (Michael W. Deem and Ramdas Pophale) SiO2 
 PCOD8296696
Probable space group: I B C A 
;
_chemical_formula_sum "Si O2"
_cell_formula_units_Z 112
_cell_length_a 21.833388
_cell_length_b 16.173982
_cell_length_c 14.765052
_cell_angle_alpha 90.000000
_cell_angle_beta 90.000000
_cell_angle_gamma 90.000000
_cell_volume 5214.024517
_symmetry_space_group_name_H-M "I B C A "
_symmetry_group_IT_number 73
_symmetry_cell_setting 'orthorhombic'
loop_
_space_group_symop_operation_xyz
x,y,z
-x,1/2-y,z
x,-y,1/2-z
1/2-x,y,-z
-x,-y,-z
x,1/2+y,-z
-x,y,1/2+z
1/2+x,-y,z
1/2+x,1/2+y,1/2+z
1/2-x,-y,1/2+z
1/2+x,1/2-y,-z
-x,1/2+y,1/2-z
1/2-x,1/2-y,1/2-z
1/2+x,y,1/2-z
1/2-x,1/2+y,z
x,1/2-y,1/2+z
loop_
_atom_site_type_symbol
_atom_site_label
_atom_site_fract_x
_atom_site_fract_y
_atom_site_fract_z
Si Si1 0.359015 0.202943 0.336361
Si Si2 0.998811 0.655976 0.130374
Si Si3 0.390034 0.074849 0.048742
Si Si4 0.206625 0.083004 0.802670
Si Si5 0.300094 0.339261 0.423570
Si Si6 0.539842 0.669428 0.681834
Si Si7 0.452834 0.902968 0.050275
O O1 0.327960 0.155494 0.252958
O O2 0.308920 0.240588 0.405274
O O3 0.391674 0.292071 0.310477
O O4 0.402573 0.138174 0.385738
O O5 0.068643 0.638099 0.105127
O O6 0.000000 0.750000 0.157571
O O7 0.976806 0.617024 0.226636
O O8 0.952305 0.638165 0.048718
O O9 0.333463 0.052152 0.112642
O O10 0.435724 0.997938 0.032789
O O11 0.363214 0.114946 0.956004
O O12 0.272481 0.117023 0.834382
O O13 0.221193 0.000000 0.750000
O O14 0.250000 0.345577 0.500000
O O15 0.500000 0.750000 0.661576
O O16 0.520723 0.607991 0.597201
#
# Coordination Sequence:
#
# PCOD8296696 Si02
#       7
#    16  16  16  16  16  16  16
#     4  11  21  41  65  91 124 167 214 271 332 388
#     4  11  21  35  59  91 125 165 208 257 316 400
#     4  11  22  40  63  86 132 164 207 262 334 376
#     4  11  22  42  65  88 118 170 221 272 328 384
#     4  10  24  43  61  89 122 164 218 282 323 384
#     4   9  20  35  59  93 128 161 213 257 308 407
#     4  11  21  37  61  94 128 173 206 257 329 403
#
# _framework density 21.480529000000001
#
# number of rings (size 3 to 8) (size 9 to 14) (size 15 to 20)
#    0.000    1.429    1.429    6.429    0.000    1.143 
#    5.143    0.000    0.000    0.000    0.000    0.000 
#    0.000    0.000    0.000    0.000    0.000    0.000 
#
# Total GULP energy -693854.778941 kJ/mol
# GULP energy per Si atom -12390.263910 kJ/mol
# Density = 2.143164 g / cm^3
# Si number density = 21.480529 Si / 1000 Ang^3
#
#
#
# Elastic Constant Matrix: (Units=GPa)
#
#
# Indices 1 2 3 4 5 6 
#
# 1 59.8267 30.9992 -5.2850 0.0000 0.0000 0.0000
# 2 30.9992 87.9797 35.1688 0.0000 0.0000 0.0000
# 3 -5.2850 35.1688 77.1221 0.0000 0.0000 0.0000
# 4 0.0000 0.0000 0.0000 39.4676 0.0000 0.0000
# 5 0.0000 0.0000 0.0000 0.0000 20.7695 0.0000
# 6 0.0000 0.0000 0.0000 0.0000 0.0000 27.9502
#
#
#
# Elastic Compliance Matrix: (Units=1/GPa)
#
#
# Indices 1 2 3 4 5 6 
#
# 1 0.022753 -0.010566 0.006378 0.000000 0.000000 0.000000
# 2 -0.010566 0.018807 -0.009300 0.000000 0.000000 0.000000
# 3 0.006378 -0.009300 0.017645 0.000000 0.000000 0.000000
# 4 0.000000 0.000000 0.000000 0.025337 0.000000 0.000000
# 5 0.000000 0.000000 0.000000 0.000000 0.048148 0.000000
# 6 0.000000 0.000000 0.000000 0.000000 0.000000 0.035778
#
#
# Mechanical properties :
#
#
# Convention : Reuss Voigt Hill
#
# Bulk Modulus (GPa) = 31.03016 38.52160 34.77588
# Shear Modulus (GPa) = 24.24972 28.57383 26.41177
#
# Velocity S-wave (km/s) = 3.36358 3.65117 3.51032
# Velocity P-wave (km/s) = 5.43709 5.97888 5.71441
#
# Compressibility (1/GPa) = 0.03222671
#
# Stress axis : x y z
#
# Youngs Moduli (GPa) = 43.94964 53.17182 56.67462
#
# Poissons Ratio (x) = 0.56183 -0.36145
# Poissons Ratio (y) = 0.46439 0.52709
# Poissons Ratio (z) = -0.28030 0.49452
#
# Static dielectric constant tensor:
#      x y z
#    x 4.264780 0.000000 0.000000 
#    y 0.000000 3.787410 0.000000 
#    z 0.000000 0.000000 4.073400 
# 
# 
# High freq. dielectric constant tensor:
#      x y z
#    x 1.843270 0.000000 0.000000 
#    y 0.000000 1.831380 0.000000 
#    z 0.000000 0.000000 1.855100 
# 
# From -- ./inp_files/19426.got.cif
#   From: 2010.03.12/outbox.cif.g09.slc.cpg/sg73_10_cif.got.tgz:19426.got - 2010.04.16 15:25:48.
