data_PCOD8296692
_publ_section_title
;
Structure prediction by ZEFSAII (Michael W. Deem and Ramdas Pophale) SiO2 
 PCOD8296692
Probable space group: I B C A 
;
_chemical_formula_sum "Si O2"
_cell_formula_units_Z 80
_cell_length_a 16.835034
_cell_length_b 8.222956
_cell_length_c 25.870456
_cell_angle_alpha 90.000000
_cell_angle_beta 90.000000
_cell_angle_gamma 90.000000
_cell_volume 3581.344079
_symmetry_space_group_name_H-M "I B C A "
_symmetry_group_IT_number 73
_symmetry_cell_setting 'orthorhombic'
loop_
_space_group_symop_operation_xyz
x,y,z
-x,1/2-y,z
x,-y,1/2-z
1/2-x,y,-z
-x,-y,-z
x,1/2+y,-z
-x,y,1/2+z
1/2+x,-y,z
1/2+x,1/2+y,1/2+z
1/2-x,-y,1/2+z
1/2+x,1/2-y,-z
-x,1/2+y,1/2-z
1/2-x,1/2-y,1/2-z
1/2+x,y,1/2-z
1/2-x,1/2+y,z
x,1/2-y,1/2+z
loop_
_atom_site_type_symbol
_atom_site_label
_atom_site_fract_x
_atom_site_fract_y
_atom_site_fract_z
Si Si1 0.000000 0.250000 0.318857
Si Si2 0.818583 0.129946 0.658386
Si Si3 0.411132 0.000000 0.750000
Si Si4 0.084691 0.792615 0.926110
Si Si5 0.841724 0.235532 0.872524
Si Si6 0.416976 0.343464 0.533182
O O1 0.970022 0.399796 0.285421
O O2 0.926026 0.190878 0.353326
O O3 0.855590 0.123534 0.716282
O O4 0.854179 0.271315 0.621269
O O5 0.725183 0.169223 0.660167
O O6 0.834507 0.955745 0.633884
O O7 0.000000 0.750000 0.901238
O O8 0.078624 0.969042 0.951333
O O9 0.105682 0.668533 0.972801
O O10 0.843341 0.268527 0.933885
O O11 0.500000 0.250000 0.544112
#
# Coordination Sequence:
#
# PCOD8296692 Si02
#       6
#     8  16   8  16  16  16
#     4  10  24  42  70  90 128 176 224 284 340 416
#     4  11  25  43  65 101 134 179 231 288 343 405
#     4  10  26  44  66 100 130 176 238 286 342 412
#     4  11  23  38  67 101 138 182 224 276 338 416
#     4  11  23  43  66  96 136 176 223 279 344 410
#     4  11  21  40  66 100 141 180 222 275 338 415
#
# _framework density 22.337982
#
# number of rings (size 3 to 8) (size 9 to 14) (size 15 to 20)
#    0.000    1.200    1.000    6.000    4.200    6.400 
#    0.000    4.000    0.000    0.000    0.000    0.000 
#    0.000    0.000    0.000    0.000    0.000    0.000 
#
# Total GULP energy -495867.525819 kJ/mol
# GULP energy per Si atom -12396.688145 kJ/mol
# Density = 2.228714 g / cm^3
# Si number density = 22.337982 Si / 1000 Ang^3
#
#
#
# Elastic Constant Matrix: (Units=GPa)
#
#
# Indices 1 2 3 4 5 6 
#
# 1 133.8342 27.8601 50.5855 0.0000 0.0000 0.0000
# 2 27.8601 83.7615 25.5759 0.0000 0.0000 0.0000
# 3 50.5855 25.5759 103.4786 0.0000 0.0000 0.0000
# 4 0.0000 0.0000 0.0000 35.4683 0.0000 0.0000
# 5 0.0000 0.0000 0.0000 0.0000 18.8327 0.0000
# 6 0.0000 0.0000 0.0000 0.0000 0.0000 34.3793
#
#
#
# Elastic Compliance Matrix: (Units=1/GPa)
#
#
# Indices 1 2 3 4 5 6 
#
# 1 0.009429 -0.001870 -0.004147 0.000000 0.000000 0.000000
# 2 -0.001870 0.013284 -0.002369 0.000000 0.000000 0.000000
# 3 -0.004147 -0.002369 0.012277 0.000000 0.000000 0.000000
# 4 0.000000 0.000000 0.000000 0.028194 0.000000 0.000000
# 5 0.000000 0.000000 0.000000 0.000000 0.053099 0.000000
# 6 0.000000 0.000000 0.000000 0.000000 0.000000 0.029087
#
#
# Mechanical properties :
#
#
# Convention : Reuss Voigt Hill
#
# Bulk Modulus (GPa) = 54.89333 58.79085 56.84209
# Shear Modulus (GPa) = 29.72396 32.20626 30.96511
#
# Velocity S-wave (km/s) = 3.65176 3.80119 3.72722
# Velocity P-wave (km/s) = 6.51213 6.75583 6.63510
#
# Compressibility (1/GPa) = 0.01821715
#
# Stress axis : x y z
#
# Youngs Moduli (GPa) = 106.05994 75.27850 81.45513
#
# Poissons Ratio (x) = 0.14076 0.33780
# Poissons Ratio (y) = 0.19831 0.19299
# Poissons Ratio (z) = 0.43983 0.17835
#
# Static dielectric constant tensor:
#      x y z
#    x 4.210690 0.000000 0.000000 
#    y 0.000000 3.899930 0.000000 
#    z 0.000000 0.000000 4.462610 
# 
# 
# High freq. dielectric constant tensor:
#      x y z
#    x 1.874560 0.000000 0.000000 
#    y 0.000000 1.881430 0.000000 
#    z 0.000000 0.000000 1.887200 
# 
# From -- ./inp_files/5624.got.cif
#   From: 2010.03.12/outbox.cif.g09.slc.cpg/sg73_3_cif.got.tgz:5624.got - 2010.04.16 15:25:48.
