data_PCOD8296817
_publ_section_title
;
Structure prediction by ZEFSAII (Michael W. Deem and Ramdas Pophale) SiO2 
 PCOD8296817
Probable space group: I B C A 
;
_chemical_formula_sum "Si O2"
_cell_formula_units_Z 104
_cell_length_a 21.409264
_cell_length_b 24.485616
_cell_length_c 9.371805
_cell_angle_alpha 90.000000
_cell_angle_beta 90.000000
_cell_angle_gamma 90.000000
_cell_volume 4912.878406
_symmetry_space_group_name_H-M "I B C A "
_symmetry_group_IT_number 73
_symmetry_cell_setting 'orthorhombic'
loop_
_space_group_symop_operation_xyz
x,y,z
-x,1/2-y,z
x,-y,1/2-z
1/2-x,y,-z
-x,-y,-z
x,1/2+y,-z
-x,y,1/2+z
1/2+x,-y,z
1/2+x,1/2+y,1/2+z
1/2-x,-y,1/2+z
1/2+x,1/2-y,-z
-x,1/2+y,1/2-z
1/2-x,1/2-y,1/2-z
1/2+x,y,1/2-z
1/2-x,1/2+y,z
x,1/2-y,1/2+z
loop_
_atom_site_type_symbol
_atom_site_label
_atom_site_fract_x
_atom_site_fract_y
_atom_site_fract_z
Si Si1 0.750000 0.379605 0.500000
Si Si2 0.149558 0.951131 0.145137
Si Si3 0.438552 0.361770 0.169085
Si Si4 0.423059 0.373860 0.618266
Si Si5 0.564064 0.221038 0.413152
Si Si6 0.867414 0.326369 0.607342
Si Si7 0.566386 0.508415 0.421509
O O1 0.712137 0.418342 0.607593
O O2 0.794050 0.339573 0.593756
O O3 0.102114 0.911676 0.233330
O O4 0.167631 0.000000 0.250000
O O5 0.116032 0.967610 0.995777
O O6 0.503235 0.384955 0.114401
O O7 0.455967 0.314929 0.279739
O O8 0.399637 0.336007 0.042586
O O9 0.405751 0.319454 0.529953
O O10 0.396214 0.366558 0.775842
O O11 0.401397 0.431772 0.553306
O O12 0.500000 0.250000 0.469386
O O13 0.617903 0.262767 0.360677
O O14 0.559375 0.500000 0.250000
O O15 0.500000 0.500000 0.500000
#
# Coordination Sequence:
#
# PCOD8296817 Si02
#       7
#     8  16  16  16  16  16  16
#     4  10  26  48  68  92 136 194 232 264 332 414
#     4  11  24  45  70  94 135 184 229 284 335 400
#     4  11  21  38  62  97 135 169 211 277 343 401
#     4  12  23  37  64 101 138 168 221 273 344 406
#     4  12  23  37  64  99 137 171 214 277 348 403
#     4  11  24  42  65  93 132 180 225 271 328 403
#     4  12  25  39  65 102 142 176 218 280 353 406
#
# _framework density 21.168852000000001
#
# number of rings (size 3 to 8) (size 9 to 14) (size 15 to 20)
#    0.000    0.615    4.615    4.154    2.154    1.846 
#    0.000    6.923    0.000    0.923    0.000    0.000 
#    0.000    0.000    0.000    0.000    0.000    0.000 
#
# Total GULP energy -644604.700439 kJ/mol
# GULP energy per Si atom -12396.244239 kJ/mol
# Density = 2.112067 g / cm^3
# Si number density = 21.168852 Si / 1000 Ang^3
#
#
#
# Elastic Constant Matrix: (Units=GPa)
#
#
# Indices 1 2 3 4 5 6 
#
# 1 93.2838 32.5996 3.4698 0.0000 0.0000 0.0000
# 2 32.5996 126.2518 16.9560 0.0000 0.0000 0.0000
# 3 3.4698 16.9560 71.8856 0.0000 0.0000 0.0000
# 4 0.0000 0.0000 0.0000 54.3283 0.0000 0.0000
# 5 0.0000 0.0000 0.0000 0.0000 8.6513 0.0000
# 6 0.0000 0.0000 0.0000 0.0000 0.0000 29.6891
#
#
#
# Elastic Compliance Matrix: (Units=1/GPa)
#
#
# Indices 1 2 3 4 5 6 
#
# 1 0.011785 -0.003064 0.000154 0.000000 0.000000 0.000000
# 2 -0.003064 0.008976 -0.001969 0.000000 0.000000 0.000000
# 3 0.000154 -0.001969 0.014368 0.000000 0.000000 0.000000
# 4 0.000000 0.000000 0.000000 0.018407 0.000000 0.000000
# 5 0.000000 0.000000 0.000000 0.000000 0.115589 0.000000
# 6 0.000000 0.000000 0.000000 0.000000 0.000000 0.033682
#
#
# Mechanical properties :
#
#
# Convention : Reuss Voigt Hill
#
# Bulk Modulus (GPa) = 39.41547 44.16357 41.78952
# Shear Modulus (GPa) = 22.62211 34.42679 28.52445
#
# Velocity S-wave (km/s) = 3.27257 4.03711 3.67478
# Velocity P-wave (km/s) = 5.73930 6.52984 6.14729
#
# Compressibility (1/GPa) = 0.02537075
#
# Stress axis : x y z
#
# Youngs Moduli (GPa) = 84.85437 111.40521 69.59861
#
# Poissons Ratio (x) = 0.34131 -0.01070
# Poissons Ratio (y) = 0.25996 0.13707
# Poissons Ratio (z) = -0.01305 0.21940
#
# Static dielectric constant tensor:
#      x y z
#    x 3.555920 0.000000 0.000000 
#    y 0.000000 4.504870 0.000000 
#    z 0.000000 0.000000 3.806530 
# 
# 
# High freq. dielectric constant tensor:
#      x y z
#    x 1.796240 0.000000 0.000000 
#    y 0.000000 1.858710 0.000000 
#    z 0.000000 0.000000 1.829770 
# 
# From -- ./inp_files/6561.got.cif
#   From: 2010.03.12/outbox.cif.g09.slc.cpg/sg73_4_cif.got.tgz:6561.got - 2010.04.16 15:25:48.
