data_PCOD8296518
_publ_section_title
;
Structure prediction by ZEFSAII (Michael W. Deem and Ramdas Pophale) SiO2 
 PCOD8296518
Probable space group: I B C A 
;
_chemical_formula_sum "Si O2"
_cell_formula_units_Z 88
_cell_length_a 10.623169
_cell_length_b 25.565440
_cell_length_c 14.628250
_cell_angle_alpha 90.000000
_cell_angle_beta 90.000000
_cell_angle_gamma 90.000000
_cell_volume 3972.827754
_symmetry_space_group_name_H-M "I B C A "
_symmetry_group_IT_number 73
_symmetry_cell_setting 'orthorhombic'
loop_
_space_group_symop_operation_xyz
x,y,z
-x,1/2-y,z
x,-y,1/2-z
1/2-x,y,-z
-x,-y,-z
x,1/2+y,-z
-x,y,1/2+z
1/2+x,-y,z
1/2+x,1/2+y,1/2+z
1/2-x,-y,1/2+z
1/2+x,1/2-y,-z
-x,1/2+y,1/2-z
1/2-x,1/2-y,1/2-z
1/2+x,y,1/2-z
1/2-x,1/2+y,z
x,1/2-y,1/2+z
loop_
_atom_site_type_symbol
_atom_site_label
_atom_site_fract_x
_atom_site_fract_y
_atom_site_fract_z
Si Si1 0.250000 0.389073 0.000000
Si Si2 0.083062 0.937835 0.333648
Si Si3 0.317893 0.875171 0.360734
Si Si4 0.500000 0.750000 0.593432
Si Si5 0.062289 0.053817 0.372606
Si Si6 0.250000 0.789604 0.500000
Si Si7 0.612357 0.349717 0.335246
O O1 0.353394 0.426786 0.044237
O O2 0.204687 0.349230 0.078263
O O3 0.197788 0.910556 0.385838
O O4 0.126197 0.941041 0.227385
O O5 0.959313 0.904034 0.342779
O O6 0.042529 0.991620 0.383102
O O7 0.435824 0.912664 0.376645
O O8 0.318940 0.825144 0.425174
O O9 0.312094 0.849759 0.259598
O O10 0.368775 0.755704 0.537079
O O11 0.482749 0.699440 0.658555
#
# Coordination Sequence:
#
# PCOD8296518 Si02
#       7
#     8  16  16   8  16   8  16
#     4  12  23  43  64 110 136 180 232 296 342 430
#     4  10  22  45  65 101 140 187 225 282 340 429
#     4  11  24  47  71 103 140 189 229 297 345 439
#     4  12  26  48  72 106 138 198 238 314 358 430
#     4  10  24  38  72  98 143 185 227 276 355 418
#     4  12  27  49  76 104 148 182 252 300 370 422
#     4  11  25  45  72  98 143 177 242 289 360 411
#
# _framework density 22.150468
#
# number of rings (size 3 to 8) (size 9 to 14) (size 15 to 20)
#    0.000    1.091    3.636    1.636    2.545    4.364 
#    0.000    0.000    0.000    0.000    0.000    0.000 
#    0.000    0.000    0.000    0.000    0.000    0.000 
#
# Total GULP energy -545480.672789 kJ/mol
# GULP energy per Si atom -12397.288018 kJ/mol
# Density = 2.210005 g / cm^3
# Si number density = 22.150468 Si / 1000 Ang^3
#
#
#
# Elastic Constant Matrix: (Units=GPa)
#
#
# Indices 1 2 3 4 5 6 
#
# 1 73.8217 16.0026 23.9782 -0.0002 0.0001 0.0000
# 2 16.0026 112.1402 32.1575 -0.0003 0.0001 0.0000
# 3 23.9782 32.1575 101.7322 -0.0010 0.0004 0.0000
# 4 -0.0002 -0.0003 -0.0010 18.8731 0.0002 0.0000
# 5 0.0001 0.0001 0.0004 0.0002 39.6974 -0.0001
# 6 0.0000 0.0000 0.0000 0.0000 -0.0001 42.9228
#
#
#
# Elastic Compliance Matrix: (Units=1/GPa)
#
#
# Indices 1 2 3 4 5 6 
#
# 1 0.014820 -0.001224 -0.003106 0.000000 0.000000 0.000000
# 2 -0.001224 0.009907 -0.002843 0.000000 0.000000 0.000000
# 3 -0.003106 -0.002843 0.011461 0.000001 0.000000 0.000000
# 4 0.000000 0.000000 0.000001 0.052985 0.000000 0.000000
# 5 0.000000 0.000000 0.000000 0.000000 0.025191 0.000000
# 6 0.000000 0.000000 0.000000 0.000000 0.000000 0.023298
#
#
# Mechanical properties :
#
#
# Convention : Reuss Voigt Hill
#
# Bulk Modulus (GPa) = 45.78477 47.99674 46.89076
# Shear Modulus (GPa) = 31.38936 34.66906 33.02921
#
# Velocity S-wave (km/s) = 3.76852 3.96050 3.86570
# Velocity P-wave (km/s) = 6.29686 6.52914 6.41405
#
# Compressibility (1/GPa) = 0.02184132
#
# Stress axis : x y z
#
# Youngs Moduli (GPa) = 67.47435 100.93451 87.25557
#
# Poissons Ratio (x) = 0.12356 0.27103
# Poissons Ratio (y) = 0.08260 0.24808
# Poissons Ratio (z) = 0.20959 0.28698
#
# Static dielectric constant tensor:
#      x y z
#    x 3.888690 0.000000 0.000000 
#    y 0.000000 3.992740 0.000000 
#    z 0.000000 0.000000 4.227350 
# 
# 
# High freq. dielectric constant tensor:
#      x y z
#    x 1.869790 0.000000 0.000000 
#    y 0.000000 1.881220 0.000000 
#    z 0.000000 0.000000 1.876790 
# 
# From -- ./inp_files/10990.got.cif
#   From: 2010.03.12/outbox.cif.g09.slc.cpg/sg73_6_cif.got.tgz:10990.got - 2010.04.16 15:25:48.
