data_PCOD8296090
_publ_section_title
;
Structure prediction by ZEFSAII (Michael W. Deem and Ramdas Pophale) SiO2 
 PCOD8296090
Probable space group: I B C A 
;
_chemical_formula_sum "Si O2"
_cell_formula_units_Z 80
_cell_length_a 18.121869
_cell_length_b 13.344071
_cell_length_c 16.066796
_cell_angle_alpha 90.000000
_cell_angle_beta 90.000000
_cell_angle_gamma 90.000000
_cell_volume 3885.264681
_symmetry_space_group_name_H-M "I B C A "
_symmetry_group_IT_number 73
_symmetry_cell_setting 'orthorhombic'
loop_
_space_group_symop_operation_xyz
x,y,z
-x,1/2-y,z
x,-y,1/2-z
1/2-x,y,-z
-x,-y,-z
x,1/2+y,-z
-x,y,1/2+z
1/2+x,-y,z
1/2+x,1/2+y,1/2+z
1/2-x,-y,1/2+z
1/2+x,1/2-y,-z
-x,1/2+y,1/2-z
1/2-x,1/2-y,1/2-z
1/2+x,y,1/2-z
1/2-x,1/2+y,z
x,1/2-y,1/2+z
loop_
_atom_site_type_symbol
_atom_site_label
_atom_site_fract_x
_atom_site_fract_y
_atom_site_fract_z
Si Si1 0.918587 0.215198 0.295416
Si Si2 0.329885 0.378050 0.856103
Si Si3 0.174966 0.892942 0.229116
Si Si4 0.356514 0.087853 0.066699
Si Si5 0.306941 0.828381 0.588421
O O1 0.885762 0.151841 0.218053
O O2 0.875377 0.316749 0.323099
O O3 0.916791 0.145047 0.377344
O O4 0.000000 0.250000 0.271302
O O5 0.252729 0.412118 0.815187
O O6 0.360102 0.528204 0.590998
O O7 0.318301 0.291118 0.925185
O O8 0.180103 0.834562 0.314600
O O9 0.137611 0.000000 0.250000
O O10 0.276702 0.138672 0.075805
O O11 0.366564 0.107078 0.966719
#
# Coordination Sequence:
#
# PCOD8296090 Si02
#       5
#    16  16  16  16  16
#     4  11  23  39  60  87 127 169 205 251 312 383
#     4  11  20  40  64  89 125 158 211 268 310 366
#     4  11  19  37  61  89 117 155 213 265 306 372
#     4  11  21  36  62  94 125 158 206 258 325 366
#     4  10  21  34  59  96 120 151 199 268 317 360
#
# _framework density 20.590616000000001
#
# number of rings (size 3 to 8) (size 9 to 14) (size 15 to 20)
#    0.000    1.200    6.000    1.800    0.000    6.400 
#    0.000    4.000    0.000    7.200    0.000    0.000 
#    0.000    0.000    0.000    0.000    0.000    0.000 
#
# Total GULP energy -495552.884505 kJ/mol
# GULP energy per Si atom -12388.822113 kJ/mol
# Density = 2.054375 g / cm^3
# Si number density = 20.590616 Si / 1000 Ang^3
#
#
#
# Elastic Constant Matrix: (Units=GPa)
#
#
# Indices 1 2 3 4 5 6 
#
# 1 56.5858 8.0931 -4.9417 0.0000 0.0000 0.0000
# 2 8.0931 121.9577 -0.3112 0.0000 0.0000 0.0000
# 3 -4.9417 -0.3112 48.4587 0.0000 0.0000 0.0000
# 4 0.0000 0.0000 0.0000 27.2731 0.0000 0.0000
# 5 0.0000 0.0000 0.0000 0.0000 11.7344 0.0000
# 6 0.0000 0.0000 0.0000 0.0000 0.0000 -17.9205
#
#
#
# Elastic Compliance Matrix: (Units=1/GPa)
#
#
# Indices 1 2 3 4 5 6 
#
# 1 0.018002 -0.001190 0.001828 0.000000 0.000000 0.000000
# 2 -0.001190 0.008278 -0.000068 0.000000 0.000000 0.000000
# 3 0.001828 -0.000068 0.020822 0.000000 0.000000 0.000000
# 4 0.000000 0.000000 0.000000 0.036666 0.000000 0.000000
# 5 0.000000 0.000000 0.000000 0.000000 0.085220 0.000000
# 6 0.000000 0.000000 0.000000 0.000000 0.000000 -0.055802
#
#
# Mechanical properties :
#
#
# Convention : Reuss Voigt Hill
#
# Bulk Modulus (GPa) = 20.72853 25.85361 23.29107
# Shear Modulus (GPa) = 39.02371 19.16152 29.09262
#
# Velocity S-wave (km/s) = 4.35813 3.05387 3.76294
# Velocity P-wave (km/s) = 5.95091 5.00181 5.49688
#
# Compressibility (1/GPa) = 0.04824268
#
# Stress axis : x y z
#
# Youngs Moduli (GPa) = 55.54897 120.79692 48.02583
#
# Poissons Ratio (x) = 0.14374 -0.08780
# Poissons Ratio (y) = 0.06610 0.00327
# Poissons Ratio (z) = -0.10155 0.00824
#
# Static dielectric constant tensor:
#      x y z
#    x 3.304530 0.000000 0.000000 
#    y 0.000000 3.982250 0.000000 
#    z 0.000000 0.000000 2.363840 
# 
# 
# High freq. dielectric constant tensor:
#      x y z
#    x 1.749050 0.000000 0.000000 
#    y 0.000000 1.831640 0.000000 
#    z 0.000000 0.000000 1.805610 
# 
# From -- ./inp_files/17863.got.cif
#   From: 2010.03.12/outbox.cif.g09.slc.cpg/sg73_9_cif.got.tgz:17863.got - 2010.04.16 15:25:48.
