data_PCOD8296149
_publ_section_title
;
Structure prediction by ZEFSAII (Michael W. Deem and Ramdas Pophale) SiO2 
 PCOD8296149
Probable space group: I B C A 
;
_chemical_formula_sum "Si O2"
_cell_formula_units_Z 88
_cell_length_a 29.693123
_cell_length_b 28.560536
_cell_length_c 4.819517
_cell_angle_alpha 90.000000
_cell_angle_beta 90.000000
_cell_angle_gamma 90.000000
_cell_volume 4087.198662
_symmetry_space_group_name_H-M "I B C A "
_symmetry_group_IT_number 73
_symmetry_cell_setting 'orthorhombic'
loop_
_space_group_symop_operation_xyz
x,y,z
-x,1/2-y,z
x,-y,1/2-z
1/2-x,y,-z
-x,-y,-z
x,1/2+y,-z
-x,y,1/2+z
1/2+x,-y,z
1/2+x,1/2+y,1/2+z
1/2-x,-y,1/2+z
1/2+x,1/2-y,-z
-x,1/2+y,1/2-z
1/2-x,1/2-y,1/2-z
1/2+x,y,1/2-z
1/2-x,1/2+y,z
x,1/2-y,1/2+z
loop_
_atom_site_type_symbol
_atom_site_label
_atom_site_fract_x
_atom_site_fract_y
_atom_site_fract_z
Si Si1 0.644080 0.592121 0.385359
Si Si2 0.903844 0.631919 0.103845
Si Si3 0.030318 0.944012 0.062432
Si Si4 0.220279 0.654027 0.246362
Si Si5 0.896233 0.000000 0.250000
Si Si6 0.638642 0.281488 0.374101
O O1 0.611340 0.624368 0.576561
O O2 0.695464 0.609955 0.407650
O O3 0.635301 0.536587 0.422517
O O4 0.632183 0.601840 0.066232
O O5 0.953921 0.610559 0.053302
O O6 0.901531 0.685174 0.990136
O O7 0.013560 0.954651 0.374111
O O8 0.072798 0.975531 0.982226
O O9 0.250000 0.634930 0.500000
O O10 0.186280 0.691542 0.385821
O O11 0.250000 0.677578 0.000000
O O12 0.634954 0.265776 0.054831
#
# Coordination Sequence:
#
# PCOD8296149 Si02
#       6
#    16  16  16  16   8  16
#     4  10  21  38  58  80 114 161 195 227 287 352
#     4  10  21  39  57  81 119 156 188 228 290 364
#     4  11  22  36  59  90 121 149 187 242 300 342
#     4  11  22  38  57  83 120 153 190 246 306 350
#     4  10  22  38  60  88 118 154 202 246 280 348
#     4  11  22  37  61  87 111 150 199 242 291 354
#
# _framework density 21.530639000000001
#
# number of rings (size 3 to 8) (size 9 to 14) (size 15 to 20)
#    0.000    1.455    0.000    8.182    0.000    8.000 
#    0.000    0.909    0.000    3.273    0.000    0.000 
#    0.000    0.000    0.000    0.000    0.000    0.000 
#
# Total GULP energy -545173.691788 kJ/mol
# GULP energy per Si atom -12390.311177 kJ/mol
# Density = 2.148163 g / cm^3
# Si number density = 21.530639 Si / 1000 Ang^3
#
#
#
# Elastic Constant Matrix: (Units=GPa)
#
#
# Indices 1 2 3 4 5 6 
#
# 1 29.3623 34.7059 19.8368 0.0000 0.0000 0.0000
# 2 34.7059 116.6509 22.9471 0.0000 0.0000 0.0000
# 3 19.8368 22.9471 86.4924 0.0000 0.0000 0.0000
# 4 0.0000 0.0000 0.0000 31.6555 0.0000 0.0000
# 5 0.0000 0.0000 0.0000 0.0000 22.3544 0.0000
# 6 0.0000 0.0000 0.0000 0.0000 0.0000 27.2474
#
#
#
# Elastic Compliance Matrix: (Units=1/GPa)
#
#
# Indices 1 2 3 4 5 6 
#
# 1 0.058920 -0.015691 -0.009350 0.000000 0.000000 0.000000
# 2 -0.015691 0.013223 0.000090 0.000000 0.000000 0.000000
# 3 -0.009350 0.000090 0.013682 0.000000 0.000000 0.000000
# 4 0.000000 0.000000 0.000000 0.031590 0.000000 0.000000
# 5 0.000000 0.000000 0.000000 0.000000 0.044734 0.000000
# 6 0.000000 0.000000 0.000000 0.000000 0.000000 0.036701
#
#
# Mechanical properties :
#
#
# Convention : Reuss Voigt Hill
#
# Bulk Modulus (GPa) = 27.83613 43.05391 35.44502
# Shear Modulus (GPa) = 19.17718 26.58584 22.88151
#
# Velocity S-wave (km/s) = 2.98769 3.51777 3.26351
# Velocity P-wave (km/s) = 4.98582 6.04480 5.54067
#
# Compressibility (1/GPa) = 0.03592453
#
# Stress axis : x y z
#
# Youngs Moduli (GPa) = 16.97204 75.62555 73.08759
#
# Poissons Ratio (x) = 1.18661 0.68340
# Poissons Ratio (y) = 0.26630 -0.00661
# Poissons Ratio (z) = 0.15870 -0.00684
#
# Static dielectric constant tensor:
#      x y z
#    x 3.886090 0.000000 0.000000 
#    y 0.000000 4.199150 0.000000 
#    z 0.000000 0.000000 3.899730 
# 
# 
# High freq. dielectric constant tensor:
#      x y z
#    x 1.812490 0.000000 0.000000 
#    y 0.000000 1.834520 0.000000 
#    z 0.000000 0.000000 1.865390 
# 
# From -- ./inp_files/3106.got.cif
#   From: 2010.03.12/outbox.cif.g09.slc.cpg/sg73_2_cif.got.tgz:3106.got - 2010.04.16 15:25:48.
