data_PCOD8296536
_publ_section_title
;
Structure prediction by ZEFSAII (Michael W. Deem and Ramdas Pophale) SiO2 
 PCOD8296536
Probable space group: I B C A 
;
_chemical_formula_sum "Si O2"
_cell_formula_units_Z 72
_cell_length_a 12.266311
_cell_length_b 29.565510
_cell_length_c 8.356444
_cell_angle_alpha 90.000000
_cell_angle_beta 90.000000
_cell_angle_gamma 90.000000
_cell_volume 3030.545813
_symmetry_space_group_name_H-M "I B C A "
_symmetry_group_IT_number 73
_symmetry_cell_setting 'orthorhombic'
loop_
_space_group_symop_operation_xyz
x,y,z
-x,1/2-y,z
x,-y,1/2-z
1/2-x,y,-z
-x,-y,-z
x,1/2+y,-z
-x,y,1/2+z
1/2+x,-y,z
1/2+x,1/2+y,1/2+z
1/2-x,-y,1/2+z
1/2+x,1/2-y,-z
-x,1/2+y,1/2-z
1/2-x,1/2-y,1/2-z
1/2+x,y,1/2-z
1/2-x,1/2+y,z
x,1/2-y,1/2+z
loop_
_atom_site_type_symbol
_atom_site_label
_atom_site_fract_x
_atom_site_fract_y
_atom_site_fract_z
Si Si1 0.183114 0.000000 0.250000
Si Si2 0.095283 0.284395 0.729111
Si Si3 0.250000 0.770186 0.000000
Si Si4 0.750000 0.568827 0.500000
Si Si5 0.873520 0.577295 0.047198
Si Si6 0.943581 0.119080 0.636612
O O1 0.257260 0.037437 0.159597
O O2 0.109985 0.025865 0.383979
O O3 0.175125 0.261752 0.604884
O O4 0.041278 0.326825 0.633622
O O5 0.000000 0.250000 0.783775
O O6 0.168820 0.299213 0.884585
O O7 0.855116 0.601261 0.492456
O O8 0.905312 0.612024 0.183775
O O9 0.750000 0.584517 0.000000
O O10 0.947397 0.589909 0.894822
#
# Coordination Sequence:
#
# PCOD8296536 Si02
#       6
#     8  16   8   8  16  16
#     4  10  22  46  76 106 150 188 248 298 386 448
#     4  11  25  46  72 105 145 191 244 296 373 434
#     4  10  25  44  73 102 138 196 230 311 350 447
#     4  10  23  46  73 110 142 196 244 309 366 453
#     4  11  27  47  71 108 146 192 245 310 363 453
#     4  11  28  43  75 106 149 193 247 310 368 439
#
# _framework density 23.758095999999998
#
# number of rings (size 3 to 8) (size 9 to 14) (size 15 to 20)
#    0.000    1.333    1.111    1.333   14.000    6.222 
#    0.000    0.000    0.000    0.000    0.000    0.000 
#    0.000    0.000    0.000    0.000    0.000    0.000 
#
# Total GULP energy -446134.549384 kJ/mol
# GULP energy per Si atom -12392.626372 kJ/mol
# Density = 2.370402 g / cm^3
# Si number density = 23.758096 Si / 1000 Ang^3
#
#
#
# Elastic Constant Matrix: (Units=GPa)
#
#
# Indices 1 2 3 4 5 6 
#
# 1 152.5262 64.6263 50.8327 -0.0014 0.0022 0.0001
# 2 64.6263 147.0533 45.7407 -0.0046 0.0018 -0.0018
# 3 50.8327 45.7407 101.5978 -0.0300 0.0364 0.0083
# 4 -0.0014 -0.0046 -0.0300 40.8271 0.0102 -0.0026
# 5 0.0022 0.0018 0.0364 0.0102 37.2729 -0.0040
# 6 0.0001 -0.0018 0.0083 -0.0026 -0.0040 28.1150
#
#
#
# Elastic Compliance Matrix: (Units=1/GPa)
#
#
# Indices 1 2 3 4 5 6 
#
# 1 0.008825 -0.002913 -0.003104 -0.000002 0.000003 0.000001
# 2 -0.002913 0.008869 -0.002536 -0.000001 0.000002 0.000001
# 3 -0.003104 -0.002536 0.012537 0.000009 -0.000012 -0.000004
# 4 -0.000002 -0.000001 0.000009 0.024494 -0.000007 0.000002
# 5 0.000003 0.000002 -0.000012 -0.000007 0.026829 0.000004
# 6 0.000001 0.000001 -0.000004 0.000002 0.000004 0.035568
#
#
# Mechanical properties :
#
#
# Convention : Reuss Voigt Hill
#
# Bulk Modulus (GPa) = 76.18194 80.39738 78.28966
# Shear Modulus (GPa) = 36.07440 37.24152 36.65796
#
# Velocity S-wave (km/s) = 3.90090 3.96350 3.93232
# Velocity P-wave (km/s) = 7.24049 7.40670 7.32406
#
# Compressibility (1/GPa) = 0.01312647
#
# Stress axis : x y z
#
# Youngs Moduli (GPa) = 113.31556 112.75145 79.76182
#
# Poissons Ratio (x) = 0.32843 0.24758
# Poissons Ratio (y) = 0.33007 0.20224
# Poissons Ratio (z) = 0.35173 0.28589
#
# Static dielectric constant tensor:
#      x y z
#    x 4.586950 0.000010 0.000010 
#    y 0.000010 4.283270 -0.000020 
#    z 0.000010 -0.000020 4.787070 
# 
# 
# High freq. dielectric constant tensor:
#      x y z
#    x 1.931630 0.000000 0.000000 
#    y 0.000000 1.938720 0.000000 
#    z 0.000000 0.000000 1.954390 
# 
# From -- ./inp_files/4924.got.cif
#   From: 2010.03.12/outbox.cif.g09.slc.cpg/sg73_3_cif.got.tgz:4924.got - 2010.04.16 15:25:48.
