data_PCOD8296552
_publ_section_title
;
Structure prediction by ZEFSAII (Michael W. Deem and Ramdas Pophale) SiO2 
 PCOD8296552
Probable space group: I B C A 
;
_chemical_formula_sum "Si O2"
_cell_formula_units_Z 104
_cell_length_a 19.584131
_cell_length_b 26.653564
_cell_length_c 8.877889
_cell_angle_alpha 90.000000
_cell_angle_beta 90.000000
_cell_angle_gamma 90.000000
_cell_volume 4634.141660
_symmetry_space_group_name_H-M "I B C A "
_symmetry_group_IT_number 73
_symmetry_cell_setting 'orthorhombic'
loop_
_space_group_symop_operation_xyz
x,y,z
-x,1/2-y,z
x,-y,1/2-z
1/2-x,y,-z
-x,-y,-z
x,1/2+y,-z
-x,y,1/2+z
1/2+x,-y,z
1/2+x,1/2+y,1/2+z
1/2-x,-y,1/2+z
1/2+x,1/2-y,-z
-x,1/2+y,1/2-z
1/2-x,1/2-y,1/2-z
1/2+x,y,1/2-z
1/2-x,1/2+y,z
x,1/2-y,1/2+z
loop_
_atom_site_type_symbol
_atom_site_label
_atom_site_fract_x
_atom_site_fract_y
_atom_site_fract_z
Si Si1 0.250000 0.697124 0.500000
Si Si2 0.535852 0.890637 0.506376
Si Si3 0.921535 0.186580 0.396213
Si Si4 0.352690 0.152045 0.699705
Si Si5 0.882515 0.753367 0.366210
Si Si6 0.329763 0.606745 0.997538
Si Si7 0.557321 0.055024 0.685964
O O1 0.277822 0.661411 0.367472
O O2 0.192489 0.731352 0.422070
O O3 0.475611 0.851933 0.463835
O O4 0.604753 0.868297 0.441428
O O5 0.547548 0.902597 0.682646
O O6 0.509343 0.941327 0.422351
O O7 0.923820 0.201468 0.218779
O O8 0.926524 0.238896 0.487280
O O9 0.846505 0.161364 0.424833
O O10 0.380714 0.205187 0.757639
O O11 0.352951 0.109339 0.827401
O O12 0.372675 0.564719 0.907206
O O13 0.250000 0.593913 0.000000
O O14 0.563141 0.000000 0.750000
#
# Coordination Sequence:
#
# PCOD8296552 Si02
#       7
#     8  16  16  16  16  16  16
#     4  12  24  38  64  96 134 192 252 270 320 398
#     4  11  25  45  67 102 137 171 228 280 358 412
#     4  10  23  40  63  94 135 184 227 283 326 395
#     4  11  25  40  63  98 137 187 228 286 325 401
#     4  11  22  40  59  92 136 186 235 278 318 382
#     4  10  23  43  68  96 137 179 222 278 342 400
#     4  11  24  47  77 103 131 172 219 287 353 436
#
# _framework density 22.442128
#
# number of rings (size 3 to 8) (size 9 to 14) (size 15 to 20)
#    0.000    1.231    1.538    4.615   10.769    0.615 
#    2.769    1.538    0.000    0.923    0.000    0.000 
#    0.000    0.000    0.000    0.000    0.000    0.000 
#
# Total GULP energy -644388.930697 kJ/mol
# GULP energy per Si atom -12392.094821 kJ/mol
# Density = 2.239105 g / cm^3
# Si number density = 22.442128 Si / 1000 Ang^3
#
#
#
# Elastic Constant Matrix: (Units=GPa)
#
#
# Indices 1 2 3 4 5 6 
#
# 1 77.7899 22.3114 17.7416 0.0000 0.0000 0.0000
# 2 22.3114 74.0612 14.8966 0.0000 0.0000 0.0000
# 3 17.7416 14.8966 84.5622 0.0000 0.0000 0.0000
# 4 0.0000 0.0000 0.0000 38.2778 0.0000 0.0000
# 5 0.0000 0.0000 0.0000 0.0000 40.1552 0.0000
# 6 0.0000 0.0000 0.0000 0.0000 0.0000 19.9699
#
#
#
# Elastic Compliance Matrix: (Units=1/GPa)
#
#
# Indices 1 2 3 4 5 6 
#
# 1 0.014511 -0.003897 -0.002358 0.000000 0.000000 0.000000
# 2 -0.003897 0.015045 -0.001833 0.000000 0.000000 0.000000
# 3 -0.002358 -0.001833 0.012643 0.000000 0.000000 0.000000
# 4 0.000000 0.000000 0.000000 0.026125 0.000000 0.000000
# 5 0.000000 0.000000 0.000000 0.000000 0.024903 0.000000
# 6 0.000000 0.000000 0.000000 0.000000 0.000000 0.050075
#
#
# Mechanical properties :
#
#
# Convention : Reuss Voigt Hill
#
# Bulk Modulus (GPa) = 38.42703 38.47916 38.45309
# Shear Modulus (GPa) = 29.73495 31.77817 30.75656
#
# Velocity S-wave (km/s) = 3.64395 3.76707 3.70602
# Velocity P-wave (km/s) = 5.90461 6.00868 5.95687
#
# Compressibility (1/GPa) = 0.02602335
#
# Stress axis : x y z
#
# Youngs Moduli (GPa) = 68.91482 66.46716 79.09414
#
# Poissons Ratio (x) = 0.25903 0.18649
# Poissons Ratio (y) = 0.26857 0.14496
# Poissons Ratio (z) = 0.16249 0.12181
#
# Static dielectric constant tensor:
#      x y z
#    x 3.966300 0.000000 0.000000 
#    y 0.000000 3.845620 0.000000 
#    z 0.000000 0.000000 4.561360 
# 
# 
# High freq. dielectric constant tensor:
#      x y z
#    x 1.874360 0.000000 0.000000 
#    y 0.000000 1.856770 0.000000 
#    z 0.000000 0.000000 1.913300 
# 
# From -- ./inp_files/6676.got.cif
#   From: 2010.03.12/outbox.cif.g09.slc.cpg/sg73_4_cif.got.tgz:6676.got - 2010.04.16 15:25:48.
