data_PCOD8296220
_publ_section_title
;
Structure prediction by ZEFSAII (Michael W. Deem and Ramdas Pophale) SiO2 
 PCOD8296220
Probable space group: I B C A 
;
_chemical_formula_sum "Si O2"
_cell_formula_units_Z 112
_cell_length_a 26.781172
_cell_length_b 14.409226
_cell_length_c 13.990931
_cell_angle_alpha 90.000000
_cell_angle_beta 90.000000
_cell_angle_gamma 90.000000
_cell_volume 5399.043748
_symmetry_space_group_name_H-M "I B C A "
_symmetry_group_IT_number 73
_symmetry_cell_setting 'orthorhombic'
loop_
_space_group_symop_operation_xyz
x,y,z
-x,1/2-y,z
x,-y,1/2-z
1/2-x,y,-z
-x,-y,-z
x,1/2+y,-z
-x,y,1/2+z
1/2+x,-y,z
1/2+x,1/2+y,1/2+z
1/2-x,-y,1/2+z
1/2+x,1/2-y,-z
-x,1/2+y,1/2-z
1/2-x,1/2-y,1/2-z
1/2+x,y,1/2-z
1/2-x,1/2+y,z
x,1/2-y,1/2+z
loop_
_atom_site_type_symbol
_atom_site_label
_atom_site_fract_x
_atom_site_fract_y
_atom_site_fract_z
Si Si1 0.870983 0.061145 0.661113
Si Si2 0.460297 0.171738 0.383094
Si Si3 0.473570 0.512169 0.100489
Si Si4 0.725990 0.649873 0.258533
Si Si5 0.452831 0.812763 0.893750
Si Si6 0.876070 0.257376 0.746431
Si Si7 0.764060 0.999808 0.891863
O O1 0.919087 0.063100 0.590175
O O2 0.855773 0.164929 0.693411
O O3 0.823931 0.009281 0.613898
O O4 0.888903 0.000000 0.750000
O O5 0.500000 0.250000 0.361087
O O6 0.487243 0.078103 0.345210
O O7 0.443441 0.173409 0.493870
O O8 0.411667 0.185425 0.321909
O O9 0.465396 0.413350 0.152215
O O10 0.500000 0.500000 0.000000
O O11 0.750000 0.750000 0.250000
O O12 0.667124 0.668067 0.264845
O O13 0.743969 0.586350 0.170039
O O14 0.740180 0.596748 0.356015
O O15 0.500000 0.750000 0.870759
O O16 0.403319 0.770521 0.845381
O O17 0.750000 0.019796 0.000000
#
# Coordination Sequence:
#
# PCOD8296220 Si02
#       7
#    16  16  16  16  16  16  16
#     4  12  21  41  73  94 128 190 233 272 355 436
#     4  10  21  40  62  95 136 171 229 281 332 421
#     4  10  22  40  65  94 131 172 226 280 328 407
#     4  11  24  49  69 106 140 173 240 307 336 432
#     4  10  23  40  60  94 132 177 228 280 336 421
#     4  12  23  40  69  94 136 186 225 283 366 404
#     4  11  26  48  74 101 142 179 236 303 364 421
#
# _framework density 20.744413000000002
#
# number of rings (size 3 to 8) (size 9 to 14) (size 15 to 20)
#    0.000    1.143    5.714    0.429    0.000    4.000 
#    5.143    0.000    0.000    0.000    0.000    0.000 
#    0.000    0.000    0.000    0.000    0.000    0.000 
#
# Total GULP energy -694158.104163 kJ/mol
# GULP energy per Si atom -12395.680431 kJ/mol
# Density = 2.069720 g / cm^3
# Si number density = 20.744413 Si / 1000 Ang^3
#
#
#
# Elastic Constant Matrix: (Units=GPa)
#
#
# Indices 1 2 3 4 5 6 
#
# 1 150.9595 51.1231 54.5761 0.0000 0.0000 0.0000
# 2 51.1231 127.1526 26.9847 0.0000 0.0000 0.0000
# 3 54.5761 26.9847 77.9225 0.0000 0.0000 0.0000
# 4 0.0000 0.0000 0.0000 14.1457 0.0000 0.0000
# 5 0.0000 0.0000 0.0000 0.0000 39.8306 0.0000
# 6 0.0000 0.0000 0.0000 0.0000 0.0000 43.7421
#
#
#
# Elastic Compliance Matrix: (Units=1/GPa)
#
#
# Indices 1 2 3 4 5 6 
#
# 1 0.009623 -0.002632 -0.005828 0.000000 0.000000 0.000000
# 2 -0.002632 0.009208 -0.001345 0.000000 0.000000 0.000000
# 3 -0.005828 -0.001345 0.017381 0.000000 0.000000 0.000000
# 4 0.000000 0.000000 0.000000 0.070693 0.000000 0.000000
# 5 0.000000 0.000000 0.000000 0.000000 0.025106 0.000000
# 6 0.000000 0.000000 0.000000 0.000000 0.000000 0.022861
#
#
# Mechanical properties :
#
#
# Convention : Reuss Voigt Hill
#
# Bulk Modulus (GPa) = 60.23739 69.04471 64.64105
# Shear Modulus (GPa) = 27.77508 34.43373 31.10441
#
# Velocity S-wave (km/s) = 3.66309 4.07861 3.87642
# Velocity P-wave (km/s) = 6.85507 7.45224 7.15988
#
# Compressibility (1/GPa) = 0.01660098
#
# Stress axis : x y z
#
# Youngs Moduli (GPa) = 103.92108 108.59735 57.53358
#
# Poissons Ratio (x) = 0.28583 0.33531
# Poissons Ratio (y) = 0.27352 0.07741
# Poissons Ratio (z) = 0.60567 0.14611
#
# Static dielectric constant tensor:
#      x y z
#    x 3.334610 0.000000 0.000000 
#    y 0.000000 4.347800 0.000000 
#    z 0.000000 0.000000 3.684970 
# 
# 
# High freq. dielectric constant tensor:
#      x y z
#    x 1.820920 0.000000 0.000000 
#    y 0.000000 1.828730 0.000000 
#    z 0.000000 0.000000 1.795400 
# 
# From -- ./inp_files/19410.got.cif
#   From: 2010.03.12/outbox.cif.g09.slc.cpg/sg73_10_cif.got.tgz:19410.got - 2010.04.16 15:25:48.
