data_PCOD8296451
_publ_section_title
;
Structure prediction by ZEFSAII (Michael W. Deem and Ramdas Pophale) SiO2 
 PCOD8296451
Probable space group: I B C A 
;
_chemical_formula_sum "Si O2"
_cell_formula_units_Z 88
_cell_length_a 24.547175
_cell_length_b 19.535546
_cell_length_c 7.996770
_cell_angle_alpha 90.000000
_cell_angle_beta 90.000000
_cell_angle_gamma 90.000000
_cell_volume 3834.790809
_symmetry_space_group_name_H-M "I B C A "
_symmetry_group_IT_number 73
_symmetry_cell_setting 'orthorhombic'
loop_
_space_group_symop_operation_xyz
x,y,z
-x,1/2-y,z
x,-y,1/2-z
1/2-x,y,-z
-x,-y,-z
x,1/2+y,-z
-x,y,1/2+z
1/2+x,-y,z
1/2+x,1/2+y,1/2+z
1/2-x,-y,1/2+z
1/2+x,1/2-y,-z
-x,1/2+y,1/2-z
1/2-x,1/2-y,1/2-z
1/2+x,y,1/2-z
1/2-x,1/2+y,z
x,1/2-y,1/2+z
loop_
_atom_site_type_symbol
_atom_site_label
_atom_site_fract_x
_atom_site_fract_y
_atom_site_fract_z
Si Si1 0.927276 0.000000 0.250000
Si Si2 0.742149 0.327395 0.196240
Si Si3 0.131257 0.626314 0.099906
Si Si4 0.445594 0.597919 0.475777
Si Si5 0.662766 0.919811 0.264372
Si Si6 0.028803 0.321775 0.281425
O O1 0.887768 0.058971 0.308386
O O2 0.960392 0.969630 0.411144
O O3 0.750000 0.250000 0.250000
O O4 0.679277 0.347103 0.221029
O O5 0.781834 0.377224 0.306117
O O6 0.750000 0.337248 0.000000
O O7 0.081433 0.680874 0.097514
O O8 0.144665 0.611990 0.909891
O O9 0.384980 0.591308 0.399178
O O10 0.490417 0.612317 0.331429
O O11 0.450053 0.665087 0.593417
O O12 0.677026 0.000000 0.250000
O O13 0.000000 0.250000 0.292506
#
# Coordination Sequence:
#
# PCOD8296451 Si02
#       6
#     8  16  16  16  16  16
#     4  10  22  42  66 104 136 180 240 296 350 422
#     4  10  25  46  71 105 142 187 231 295 354 430
#     4  10  23  45  69 103 141 181 241 289 351 434
#     4  11  24  43  70 102 138 191 235 297 359 427
#     4  11  23  46  74 105 146 189 235 298 364 428
#     4  11  25  45  68 101 142 191 238 298 361 434
#
# _framework density 22.947797999999999
#
# number of rings (size 3 to 8) (size 9 to 14) (size 15 to 20)
#    0.000    1.455    1.818    1.636    3.818    5.818 
#   11.455    0.909    0.000    0.000    0.000    0.000 
#    0.000    0.000    0.000    0.000    0.000    0.000 
#
# Total GULP energy -545198.095271 kJ/mol
# GULP energy per Si atom -12390.865802 kJ/mol
# Density = 2.289557 g / cm^3
# Si number density = 22.947798 Si / 1000 Ang^3
#
#
#
# Elastic Constant Matrix: (Units=GPa)
#
#
# Indices 1 2 3 4 5 6 
#
# 1 165.7595 96.4511 39.8620 0.0000 0.0000 0.0000
# 2 96.4511 150.3093 46.6183 0.0000 0.0000 0.0000
# 3 39.8620 46.6183 79.5681 0.0000 0.0000 0.0000
# 4 0.0000 0.0000 0.0000 28.1735 0.0000 0.0000
# 5 0.0000 0.0000 0.0000 0.0000 10.3676 0.0000
# 6 0.0000 0.0000 0.0000 0.0000 0.0000 33.8534
#
#
#
# Elastic Compliance Matrix: (Units=1/GPa)
#
#
# Indices 1 2 3 4 5 6 
#
# 1 0.009771 -0.005807 -0.001493 0.000000 0.000000 0.000000
# 2 -0.005807 0.011581 -0.003876 0.000000 0.000000 0.000000
# 3 -0.001493 -0.003876 0.015587 0.000000 0.000000 0.000000
# 4 0.000000 0.000000 0.000000 0.035494 0.000000 0.000000
# 5 0.000000 0.000000 0.000000 0.000000 0.096454 0.000000
# 6 0.000000 0.000000 0.000000 0.000000 0.000000 0.029539
#
#
# Mechanical properties :
#
#
# Convention : Reuss Voigt Hill
#
# Bulk Modulus (GPa) = 68.55383 84.61110 76.58246
# Shear Modulus (GPa) = 22.15918 28.65926 25.40922
#
# Velocity S-wave (km/s) = 3.11084 3.53780 3.33116
# Velocity P-wave (km/s) = 6.54536 7.32388 6.94554
#
# Compressibility (1/GPa) = 0.01458708
#
# Stress axis : x y z
#
# Youngs Moduli (GPa) = 102.34842 86.34679 64.15671
#
# Poissons Ratio (x) = 0.50138 0.09577
# Poissons Ratio (y) = 0.59430 0.24869
# Poissons Ratio (z) = 0.15279 0.33471
#
# Static dielectric constant tensor:
#      x y z
#    x 5.082290 0.000000 0.000000 
#    y 0.000000 4.173860 0.000000 
#    z 0.000000 0.000000 4.633250 
# 
# 
# High freq. dielectric constant tensor:
#      x y z
#    x 1.913700 0.000000 0.000000 
#    y 0.000000 1.908400 0.000000 
#    z 0.000000 0.000000 1.912010 
# 
# From -- ./inp_files/7071.got.cif
#   From: 2010.03.12/outbox.cif.g09.slc.cpg/sg73_4_cif.got.tgz:7071.got - 2010.04.16 15:25:48.
