data_PCOD8296362
_publ_section_title
;
Structure prediction by ZEFSAII (Michael W. Deem and Ramdas Pophale) SiO2 
 PCOD8296362
Probable space group: I B C A 
;
_chemical_formula_sum "Si O2"
_cell_formula_units_Z 112
_cell_length_a 31.657320
_cell_length_b 14.090384
_cell_length_c 11.751517
_cell_angle_alpha 90.000000
_cell_angle_beta 90.000000
_cell_angle_gamma 90.000000
_cell_volume 5241.926273
_symmetry_space_group_name_H-M "I B C A "
_symmetry_group_IT_number 73
_symmetry_cell_setting 'orthorhombic'
loop_
_space_group_symop_operation_xyz
x,y,z
-x,1/2-y,z
x,-y,1/2-z
1/2-x,y,-z
-x,-y,-z
x,1/2+y,-z
-x,y,1/2+z
1/2+x,-y,z
1/2+x,1/2+y,1/2+z
1/2-x,-y,1/2+z
1/2+x,1/2-y,-z
-x,1/2+y,1/2-z
1/2-x,1/2-y,1/2-z
1/2+x,y,1/2-z
1/2-x,1/2+y,z
x,1/2-y,1/2+z
loop_
_atom_site_type_symbol
_atom_site_label
_atom_site_fract_x
_atom_site_fract_y
_atom_site_fract_z
Si Si1 0.349714 0.519645 0.618812
Si Si2 0.838657 0.392110 0.251464
Si Si3 0.558796 0.514439 0.470043
Si Si4 0.202003 0.340981 0.985984
Si Si5 0.010213 0.357144 0.893994
Si Si6 0.796371 0.625557 0.478114
Si Si7 0.428738 0.604761 0.204167
O O1 0.340701 0.500000 0.750000
O O2 0.399043 0.520022 0.592092
O O3 0.327155 0.619787 0.588730
O O4 0.330359 0.438689 0.539630
O O5 0.852210 0.500000 0.250000
O O6 0.816935 0.378676 0.370561
O O7 0.804595 0.366211 0.156050
O O8 0.884148 0.340372 0.231674
O O9 0.530583 0.573534 0.378851
O O10 0.538701 0.415236 0.514139
O O11 0.564925 0.594513 0.568725
O O12 0.250000 0.377136 0.000000
O O13 0.200204 0.229389 0.971118
O O14 0.033570 0.341982 0.771863
O O15 0.000000 0.250000 0.938541
O O16 0.750000 0.582513 0.500000
O O17 0.429000 0.500000 0.250000
#
# Coordination Sequence:
#
# PCOD8296362 Si02
#       7
#    16  16  16  16  16  16  16
#     4  12  26  44  67 100 138 173 227 289 342 398
#     4  11  21  42  72  91 128 186 231 266 329 427
#     4  10  22  43  62  93 136 170 211 275 341 397
#     4  11  26  42  64  99 136 179 225 283 344 402
#     4  10  22  39  66  95 125 167 221 270 324 395
#     4  11  26  43  67 100 134 177 229 281 345 404
#     4   9  18  39  64  85 121 169 219 261 319 399
#
# _framework density 21.366192000000002
#
# number of rings (size 3 to 8) (size 9 to 14) (size 15 to 20)
#    0.000    1.429    2.857    2.143    4.000    6.857 
#    0.000    0.000    0.000    0.000    0.000    0.000 
#    0.000    0.000    0.000    0.000    0.000    0.000 
#
# Total GULP energy -694051.161481 kJ/mol
# GULP energy per Si atom -12393.770741 kJ/mol
# Density = 2.131756 g / cm^3
# Si number density = 21.366192 Si / 1000 Ang^3
#
#
#
# Elastic Constant Matrix: (Units=GPa)
#
#
# Indices 1 2 3 4 5 6 
#
# 1 140.1984 15.7884 20.8292 0.0000 0.0000 0.0000
# 2 15.7884 71.1851 -7.2320 0.0000 0.0000 0.0000
# 3 20.8292 -7.2320 87.4161 0.0000 0.0000 0.0000
# 4 0.0000 0.0000 0.0000 16.2045 0.0000 0.0000
# 5 0.0000 0.0000 0.0000 0.0000 36.5836 0.0000
# 6 0.0000 0.0000 0.0000 0.0000 0.0000 28.9442
#
#
#
# Elastic Compliance Matrix: (Units=1/GPa)
#
#
# Indices 1 2 3 4 5 6 
#
# 1 0.007640 -0.001895 -0.001977 0.000000 0.000000 0.000000
# 2 -0.001895 0.014637 0.001663 0.000000 0.000000 0.000000
# 3 -0.001977 0.001663 0.012048 0.000000 0.000000 0.000000
# 4 0.000000 0.000000 0.000000 0.061711 0.000000 0.000000
# 5 0.000000 0.000000 0.000000 0.000000 0.027335 0.000000
# 6 0.000000 0.000000 0.000000 0.000000 0.000000 0.034549
#
#
# Mechanical properties :
#
#
# Convention : Reuss Voigt Hill
#
# Bulk Modulus (GPa) = 33.43892 39.73010 36.58451
# Shear Modulus (GPa) = 29.01766 34.30739 31.66253
#
# Velocity S-wave (km/s) = 3.68925 4.01145 3.85372
# Velocity P-wave (km/s) = 5.81651 6.33173 6.07958
#
# Compressibility (1/GPa) = 0.02990527
#
# Stress axis : x y z
#
# Youngs Moduli (GPa) = 130.89089 68.31921 82.99983
#
# Poissons Ratio (x) = 0.12949 0.16411
# Poissons Ratio (y) = 0.24809 -0.13799
# Poissons Ratio (z) = 0.25880 -0.11358
#
# Static dielectric constant tensor:
#      x y z
#    x 4.329090 0.000000 0.000000 
#    y 0.000000 3.643600 0.000000 
#    z 0.000000 0.000000 4.204970 
# 
# 
# High freq. dielectric constant tensor:
#      x y z
#    x 1.858260 0.000000 0.000000 
#    y 0.000000 1.821420 0.000000 
#    z 0.000000 0.000000 1.832250 
# 
# From -- ./inp_files/14797.got.cif
#   From: 2010.03.12/outbox.cif.g09.slc.cpg/sg73_8_cif.got.tgz:14797.got - 2010.04.16 15:25:48.
