data_PCOD8296577
_publ_section_title
;
Structure prediction by ZEFSAII (Michael W. Deem and Ramdas Pophale) SiO2 
 PCOD8296577
Probable space group: I B C A 
;
_chemical_formula_sum "Si O2"
_cell_formula_units_Z 80
_cell_length_a 13.836495
_cell_length_b 11.288935
_cell_length_c 23.381312
_cell_angle_alpha 90.000000
_cell_angle_beta 90.000000
_cell_angle_gamma 90.000000
_cell_volume 3652.144396
_symmetry_space_group_name_H-M "I B C A "
_symmetry_group_IT_number 73
_symmetry_cell_setting 'orthorhombic'
loop_
_space_group_symop_operation_xyz
x,y,z
-x,1/2-y,z
x,-y,1/2-z
1/2-x,y,-z
-x,-y,-z
x,1/2+y,-z
-x,y,1/2+z
1/2+x,-y,z
1/2+x,1/2+y,1/2+z
1/2-x,-y,1/2+z
1/2+x,1/2-y,-z
-x,1/2+y,1/2-z
1/2-x,1/2-y,1/2-z
1/2+x,y,1/2-z
1/2-x,1/2+y,z
x,1/2-y,1/2+z
loop_
_atom_site_type_symbol
_atom_site_label
_atom_site_fract_x
_atom_site_fract_y
_atom_site_fract_z
Si Si1 0.108257 0.789820 0.389630
Si Si2 0.180682 0.482619 0.685238
Si Si3 0.040585 0.381352 0.880911
Si Si4 0.151290 0.970652 0.897459
Si Si5 0.890517 0.488780 0.020520
O O1 0.124073 0.861003 0.330042
O O2 0.168280 0.668934 0.388511
O O3 0.133937 0.867844 0.445776
O O4 0.000000 0.750000 0.395592
O O5 0.215120 0.500000 0.750000
O O6 0.107695 0.593029 0.674048
O O7 0.274081 0.468374 0.645036
O O8 0.115331 0.401931 0.934134
O O9 0.000000 0.250000 0.880197
O O10 0.955333 0.479438 0.882788
O O11 0.177672 0.999970 0.964181
O O12 0.000000 0.500000 0.000000
#
# Coordination Sequence:
#
# PCOD8296577 Si02
#       5
#    16  16  16  16  16
#     4  11  21  44  69 100 135 180 226 278 345 411
#     4  11  27  47  66  97 135 183 239 281 327 393
#     4  10  23  42  66 105 135 170 223 279 347 408
#     4  11  24  42  70 101 137 180 224 276 350 405
#     4   9  19  36  69  98 133 168 209 275 340 409
#
# _framework density 21.904938999999999
#
# number of rings (size 3 to 8) (size 9 to 14) (size 15 to 20)
#    0.000    1.600    6.000    0.000    8.400    5.600 
#    0.000    4.000    0.000    0.000    0.000    0.000 
#    0.000    0.000    0.000    0.000    0.000    0.000 
#
# Total GULP energy -495566.725658 kJ/mol
# GULP energy per Si atom -12389.168141 kJ/mol
# Density = 2.185508 g / cm^3
# Si number density = 21.904939 Si / 1000 Ang^3
#
#
#
# Elastic Constant Matrix: (Units=GPa)
#
#
# Indices 1 2 3 4 5 6 
#
# 1 48.0395 17.0198 56.3131 0.0000 0.0000 0.0000
# 2 17.0198 135.0577 50.9389 0.0000 0.0000 0.0000
# 3 56.3131 50.9389 162.4336 0.0000 0.0000 0.0000
# 4 0.0000 0.0000 0.0000 22.2993 0.0000 0.0000
# 5 0.0000 0.0000 0.0000 0.0000 33.5960 0.0000
# 6 0.0000 0.0000 0.0000 0.0000 0.0000 17.4895
#
#
#
# Elastic Compliance Matrix: (Units=1/GPa)
#
#
# Indices 1 2 3 4 5 6 
#
# 1 0.035071 0.000188 -0.012218 0.000000 0.000000 0.000000
# 2 0.000188 0.008398 -0.002699 0.000000 0.000000 0.000000
# 3 -0.012218 -0.002699 0.011239 0.000000 0.000000 0.000000
# 4 0.000000 0.000000 0.000000 0.044844 0.000000 0.000000
# 5 0.000000 0.000000 0.000000 0.000000 0.029765 0.000000
# 6 0.000000 0.000000 0.000000 0.000000 0.000000 0.057177
#
#
# Mechanical properties :
#
#
# Convention : Reuss Voigt Hill
#
# Bulk Modulus (GPa) = 39.60151 66.00829 52.80490
# Shear Modulus (GPa) = 22.28465 29.42754 25.85609
#
# Velocity S-wave (km/s) = 3.19303 3.66925 3.43939
# Velocity P-wave (km/s) = 5.63134 6.93906 6.31912
#
# Compressibility (1/GPa) = 0.02525156
#
# Stress axis : x y z
#
# Youngs Moduli (GPa) = 28.51322 119.06892 88.97977
#
# Poissons Ratio (x) = -0.02244 1.08714
# Poissons Ratio (y) = -0.00537 0.24016
# Poissons Ratio (z) = 0.34837 0.32138
#
# Static dielectric constant tensor:
#      x y z
#    x 3.976720 0.000000 0.000000 
#    y 0.000000 8.126320 0.000000 
#    z 0.000000 0.000000 4.121800 
# 
# 
# High freq. dielectric constant tensor:
#      x y z
#    x 1.870200 0.000000 0.000000 
#    y 0.000000 1.855540 0.000000 
#    z 0.000000 0.000000 1.846140 
# 
# From -- ./inp_files/10765.got.cif
#   From: 2010.03.12/outbox.cif.g09.slc.cpg/sg73_6_cif.got.tgz:10765.got - 2010.04.16 15:25:48.
