data_PCOD8296419
_publ_section_title
;
Structure prediction by ZEFSAII (Michael W. Deem and Ramdas Pophale) SiO2 
 PCOD8296419
Probable space group: I B C A 
;
_chemical_formula_sum "Si O2"
_cell_formula_units_Z 88
_cell_length_a 10.148037
_cell_length_b 12.241387
_cell_length_c 32.404777
_cell_angle_alpha 90.000000
_cell_angle_beta 90.000000
_cell_angle_gamma 90.000000
_cell_volume 4025.517390
_symmetry_space_group_name_H-M "I B C A "
_symmetry_group_IT_number 73
_symmetry_cell_setting 'orthorhombic'
loop_
_space_group_symop_operation_xyz
x,y,z
-x,1/2-y,z
x,-y,1/2-z
1/2-x,y,-z
-x,-y,-z
x,1/2+y,-z
-x,y,1/2+z
1/2+x,-y,z
1/2+x,1/2+y,1/2+z
1/2-x,-y,1/2+z
1/2+x,1/2-y,-z
-x,1/2+y,1/2-z
1/2-x,1/2-y,1/2-z
1/2+x,y,1/2-z
1/2-x,1/2+y,z
x,1/2-y,1/2+z
loop_
_atom_site_type_symbol
_atom_site_label
_atom_site_fract_x
_atom_site_fract_y
_atom_site_fract_z
Si Si1 0.633620 0.697520 0.197994
Si Si2 0.083007 0.046381 0.092008
Si Si3 0.500000 0.250000 0.462139
Si Si4 0.613689 0.333391 0.211051
Si Si5 0.115779 0.925911 0.015172
Si Si6 0.831061 0.502797 0.855779
O O1 0.500000 0.750000 0.178912
O O2 0.594515 0.635024 0.240713
O O3 0.737749 0.791280 0.206879
O O4 0.702760 0.618550 0.164956
O O5 0.076475 0.160220 0.065999
O O6 0.938687 0.023634 0.109318
O O7 0.115997 0.937464 0.064859
O O8 0.199199 0.054373 0.126140
O O9 0.603409 0.306634 0.493958
O O10 0.500000 0.250000 0.197499
O O11 0.599744 0.434362 0.180436
O O12 0.250000 0.980410 0.000000
O O13 0.000000 0.000000 0.000000
#
# Coordination Sequence:
#
# PCOD8296419 Si02
#       6
#    16  16   8  16  16  16
#     4  10  22  41  66  90 131 183 221 257 322 386
#     4  11  25  42  66  99 128 167 213 276 331 389
#     4  10  24  44  70  90 128 176 212 264 332 406
#     4  10  22  41  63  94 130 178 224 260 312 395
#     4  10  22  45  67  92 126 167 220 259 323 406
#     4  12  24  41  64 100 139 164 218 279 332 373
#
# _framework density 21.860544000000001
#
# number of rings (size 3 to 8) (size 9 to 14) (size 15 to 20)
#    0.000    1.455    0.000    4.909    3.818    4.364 
#    8.182    7.273    0.000    0.000    0.000    0.000 
#    0.000    0.000    0.000    0.000    0.000    0.000 
#
# Total GULP energy -545309.515530 kJ/mol
# GULP energy per Si atom -12393.398080 kJ/mol
# Density = 2.181079 g / cm^3
# Si number density = 21.860544 Si / 1000 Ang^3
#
#
#
# Elastic Constant Matrix: (Units=GPa)
#
#
# Indices 1 2 3 4 5 6 
#
# 1 122.1920 25.2403 16.4998 0.0000 0.0000 0.0000
# 2 25.2403 84.5563 48.7169 0.0000 0.0000 0.0000
# 3 16.4998 48.7169 98.9662 0.0000 0.0000 0.0000
# 4 0.0000 0.0000 0.0000 47.0857 0.0000 0.0000
# 5 0.0000 0.0000 0.0000 0.0000 36.9145 0.0000
# 6 0.0000 0.0000 0.0000 0.0000 0.0000 26.7662
#
#
#
# Elastic Compliance Matrix: (Units=1/GPa)
#
#
# Indices 1 2 3 4 5 6 
#
# 1 0.008726 -0.002466 -0.000241 0.000000 0.000000 0.000000
# 2 -0.002466 0.017205 -0.008058 0.000000 0.000000 0.000000
# 3 -0.000241 -0.008058 0.014111 0.000000 0.000000 0.000000
# 4 0.000000 0.000000 0.000000 0.021238 0.000000 0.000000
# 5 0.000000 0.000000 0.000000 0.000000 0.027090 0.000000
# 6 0.000000 0.000000 0.000000 0.000000 0.000000 0.037361
#
#
# Mechanical properties :
#
#
# Convention : Reuss Voigt Hill
#
# Bulk Modulus (GPa) = 54.01843 54.06985 54.04414
# Shear Modulus (GPa) = 32.58786 36.50378 34.54582
#
# Velocity S-wave (km/s) = 3.86517 4.09081 3.97959
# Velocity P-wave (km/s) = 6.68457 6.86299 6.77437
#
# Compressibility (1/GPa) = 0.01851220
#
# Stress axis : x y z
#
# Youngs Moduli (GPa) = 114.60367 58.12172 70.86473
#
# Poissons Ratio (x) = 0.14332 0.01707
# Poissons Ratio (y) = 0.28259 0.57105
# Poissons Ratio (z) = 0.02761 0.46836
#
# Static dielectric constant tensor:
#      x y z
#    x 3.924220 0.000000 0.000000 
#    y 0.000000 4.136160 0.000000 
#    z 0.000000 0.000000 4.292090 
# 
# 
# High freq. dielectric constant tensor:
#      x y z
#    x 1.868330 0.000000 0.000000 
#    y 0.000000 1.839850 0.000000 
#    z 0.000000 0.000000 1.874130 
# 
# From -- ./inp_files/33912.got.cif
#   From: 2010.03.12/outbox.cif.g09.slc.cpg/sg73_17_cif.got.tgz:33912.got - 2010.04.16 15:25:48.
