data_PCOD8296596
_publ_section_title
;
Structure prediction by ZEFSAII (Michael W. Deem and Ramdas Pophale) SiO2 
 PCOD8296596
Probable space group: I B C A 
;
_chemical_formula_sum "Si O2"
_cell_formula_units_Z 96
_cell_length_a 15.176956
_cell_length_b 20.877397
_cell_length_c 14.665276
_cell_angle_alpha 90.000000
_cell_angle_beta 90.000000
_cell_angle_gamma 90.000000
_cell_volume 4646.770950
_symmetry_space_group_name_H-M "I B C A "
_symmetry_group_IT_number 73
_symmetry_cell_setting 'orthorhombic'
loop_
_space_group_symop_operation_xyz
x,y,z
-x,1/2-y,z
x,-y,1/2-z
1/2-x,y,-z
-x,-y,-z
x,1/2+y,-z
-x,y,1/2+z
1/2+x,-y,z
1/2+x,1/2+y,1/2+z
1/2-x,-y,1/2+z
1/2+x,1/2-y,-z
-x,1/2+y,1/2-z
1/2-x,1/2-y,1/2-z
1/2+x,y,1/2-z
1/2-x,1/2+y,z
x,1/2-y,1/2+z
loop_
_atom_site_type_symbol
_atom_site_label
_atom_site_fract_x
_atom_site_fract_y
_atom_site_fract_z
Si Si1 0.088949 0.113170 0.191941
Si Si2 0.768662 0.570064 0.753949
Si Si3 0.499027 0.577393 0.509784
Si Si4 0.819741 0.359979 0.574431
Si Si5 0.067185 0.633292 0.177463
Si Si6 0.093984 0.743758 0.303008
O O1 0.168163 0.067084 0.219720
O O2 0.129955 0.184409 0.210234
O O3 0.000322 0.100572 0.250243
O O4 0.066433 0.098547 0.087818
O O5 0.808677 0.500000 0.750000
O O6 0.769633 0.592459 0.858097
O O7 0.833149 0.609431 0.688315
O O8 0.500000 0.500000 0.500000
O O9 0.401350 0.602336 0.530645
O O10 0.532238 0.616707 0.421993
O O11 0.750000 0.337179 0.500000
O O12 0.844265 0.296627 0.630804
O O13 0.074910 0.708808 0.204855
O O14 0.000000 0.750000 0.354484
#
# Coordination Sequence:
#
# PCOD8296596 Si02
#       6
#    16  16  16  16  16  16
#     4  11  24  45  68  98 134 177 222 281 331 396
#     4  11  24  42  65  93 136 173 219 273 335 403
#     4  12  25  42  69 100 136 174 226 272 343 409
#     4  11  23  43  67  98 130 178 219 276 340 401
#     4  10  23  43  67  96 127 182 212 276 339 394
#     4   9  19  47  64  91 134 167 220 274 326 394
#
# _framework density 20.659507999999999
#
# number of rings (size 3 to 8) (size 9 to 14) (size 15 to 20)
#    0.000    1.333    5.000    2.000    4.667    3.333 
#   15.000    0.000    0.000    0.000    0.000    0.000 
#    0.000    0.000    0.000    0.000    0.000    0.000 
#
# Total GULP energy -594905.231490 kJ/mol
# GULP energy per Si atom -12393.858989 kJ/mol
# Density = 2.061249 g / cm^3
# Si number density = 20.659508 Si / 1000 Ang^3
#
#
#
# Elastic Constant Matrix: (Units=GPa)
#
#
# Indices 1 2 3 4 5 6 
#
# 1 92.7781 20.9850 40.0612 0.0000 0.0000 0.0000
# 2 20.9850 105.0629 41.7799 0.0000 0.0000 0.0000
# 3 40.0612 41.7799 156.1741 -0.0001 0.0000 0.0000
# 4 0.0000 0.0000 -0.0001 18.1726 0.0000 0.0000
# 5 0.0000 0.0000 0.0000 0.0000 35.6612 0.0000
# 6 0.0000 0.0000 0.0000 0.0000 0.0000 20.7304
#
#
#
# Elastic Compliance Matrix: (Units=1/GPa)
#
#
# Indices 1 2 3 4 5 6 
#
# 1 0.012288 -0.001344 -0.002793 0.000000 0.000000 0.000000
# 2 -0.001344 0.010798 -0.002544 0.000000 0.000000 0.000000
# 3 -0.002793 -0.002544 0.007800 0.000000 0.000000 0.000000
# 4 0.000000 0.000000 0.000000 0.055028 0.000000 0.000000
# 5 0.000000 0.000000 0.000000 0.000000 0.028042 0.000000
# 6 0.000000 0.000000 0.000000 0.000000 0.000000 0.048238
#
#
# Mechanical properties :
#
#
# Convention : Reuss Voigt Hill
#
# Bulk Modulus (GPa) = 57.05999 62.18525 59.62262
# Shear Modulus (GPa) = 27.56382 31.65877 29.61130
#
# Velocity S-wave (km/s) = 3.65663 3.91884 3.79000
# Velocity P-wave (km/s) = 6.74589 7.11631 6.93358
#
# Compressibility (1/GPa) = 0.01752541
#
# Stress axis : x y z
#
# Youngs Moduli (GPa) = 81.37884 92.60805 128.20458
#
# Poissons Ratio (x) = 0.12446 0.35802
# Poissons Ratio (y) = 0.10936 0.32615
# Poissons Ratio (z) = 0.22726 0.23560
#
# Static dielectric constant tensor:
#      x y z
#    x 3.711070 0.000000 0.000000 
#    y 0.000000 3.987900 0.000000 
#    z 0.000000 0.000000 3.711620 
# 
# 
# High freq. dielectric constant tensor:
#      x y z
#    x 1.818900 0.000000 0.000000 
#    y 0.000000 1.814060 0.000000 
#    z 0.000000 0.000000 1.798790 
# 
# From -- ./inp_files/17031.got.cif
#   From: 2010.03.12/outbox.cif.g09.slc.cpg/sg73_9_cif.got.tgz:17031.got - 2010.04.16 15:25:48.
