data_PCOD8296893
_publ_section_title
;
Structure prediction by ZEFSAII (Michael W. Deem and Ramdas Pophale) SiO2 
 PCOD8296893
Probable space group: I B C A 
;
_chemical_formula_sum "Si O2"
_cell_formula_units_Z 96
_cell_length_a 23.082616
_cell_length_b 11.073502
_cell_length_c 16.948137
_cell_angle_alpha 90.000000
_cell_angle_beta 90.000000
_cell_angle_gamma 90.000000
_cell_volume 4332.035243
_symmetry_space_group_name_H-M "I B C A "
_symmetry_group_IT_number 73
_symmetry_cell_setting 'orthorhombic'
loop_
_space_group_symop_operation_xyz
x,y,z
-x,1/2-y,z
x,-y,1/2-z
1/2-x,y,-z
-x,-y,-z
x,1/2+y,-z
-x,y,1/2+z
1/2+x,-y,z
1/2+x,1/2+y,1/2+z
1/2-x,-y,1/2+z
1/2+x,1/2-y,-z
-x,1/2+y,1/2-z
1/2-x,1/2-y,1/2-z
1/2+x,y,1/2-z
1/2-x,1/2+y,z
x,1/2-y,1/2+z
loop_
_atom_site_type_symbol
_atom_site_label
_atom_site_fract_x
_atom_site_fract_y
_atom_site_fract_z
Si Si1 0.642320 0.155837 0.602564
Si Si2 0.750961 0.124873 0.701630
Si Si3 0.448795 0.170808 0.444440
Si Si4 0.910568 0.594785 0.106462
Si Si5 0.351747 0.644308 0.081163
Si Si6 0.471142 0.533820 0.836718
O O1 0.688460 0.099264 0.662460
O O2 0.635014 0.297915 0.621733
O O3 0.661268 0.130093 0.512276
O O4 0.579384 0.100487 0.616560
O O5 0.750000 0.250000 0.750000
O O6 0.792662 0.159623 0.628953
O O7 0.766710 0.000000 0.750000
O O8 0.500000 0.250000 0.482393
O O9 0.426291 0.087204 0.514406
O O10 0.395086 0.243390 0.406414
O O11 0.481283 0.093989 0.378541
O O12 0.879395 0.470327 0.124870
O O13 0.968515 0.608539 0.160276
O O14 0.451085 0.500000 0.750000
#
# Coordination Sequence:
#
# PCOD8296893 Si02
#       6
#    16  16  16  16  16  16
#     4  11  25  45  72 100 134 184 237 286 341 425
#     4  12  29  49  72 102 144 186 233 303 362 413
#     4  11  22  41  70 100 139 178 228 284 339 417
#     4  11  22  44  69 100 137 179 229 278 342 417
#     4  11  24  45  73  99 133 185 238 282 342 423
#     4  12  25  40  67 104 142 179 222 286 353 419
#
# _framework density 22.160485999999999
#
# number of rings (size 3 to 8) (size 9 to 14) (size 15 to 20)
#    0.000    0.667    3.333    5.000    4.667    3.333 
#    0.000    3.333    0.000    0.000    0.000    0.000 
#    0.000    0.000    0.000    0.000    0.000    0.000 
#
# Total GULP energy -595031.930550 kJ/mol
# GULP energy per Si atom -12396.498553 kJ/mol
# Density = 2.211005 g / cm^3
# Si number density = 22.160486 Si / 1000 Ang^3
#
#
#
# Elastic Constant Matrix: (Units=GPa)
#
#
# Indices 1 2 3 4 5 6 
#
# 1 102.5160 15.4077 29.7287 0.0000 0.0000 0.0000
# 2 15.4077 79.5936 25.6803 0.0000 0.0000 0.0000
# 3 29.7287 25.6803 94.3652 0.0000 0.0000 0.0000
# 4 0.0000 0.0000 0.0000 29.2933 0.0000 0.0000
# 5 0.0000 0.0000 0.0000 0.0000 40.1697 0.0000
# 6 0.0000 0.0000 0.0000 0.0000 0.0000 31.4176
#
#
#
# Elastic Compliance Matrix: (Units=1/GPa)
#
#
# Indices 1 2 3 4 5 6 
#
# 1 0.010821 -0.001091 -0.003112 0.000000 0.000000 0.000000
# 2 -0.001091 0.013883 -0.003435 0.000000 0.000000 0.000000
# 3 -0.003112 -0.003435 0.012512 0.000000 0.000000 0.000000
# 4 0.000000 0.000000 0.000000 0.034137 0.000000 0.000000
# 5 0.000000 0.000000 0.000000 0.000000 0.024894 0.000000
# 6 0.000000 0.000000 0.000000 0.000000 0.000000 0.031829
#
#
# Mechanical properties :
#
#
# Convention : Reuss Voigt Hill
#
# Bulk Modulus (GPa) = 45.57547 46.45646 46.01597
# Shear Modulus (GPa) = 33.18596 33.88666 33.53631
#
# Velocity S-wave (km/s) = 3.87399 3.91467 3.89439
# Velocity P-wave (km/s) = 6.37347 6.43755 6.40559
#
# Compressibility (1/GPa) = 0.02194163
#
# Stress axis : x y z
#
# Youngs Moduli (GPa) = 92.41286 72.03016 79.92153
#
# Poissons Ratio (x) = 0.07855 0.24874
# Poissons Ratio (y) = 0.10078 0.27449
# Poissons Ratio (z) = 0.28761 0.24739
#
# Static dielectric constant tensor:
#      x y z
#    x 3.936790 0.000000 0.000000 
#    y 0.000000 4.136900 0.000000 
#    z 0.000000 0.000000 3.899790 
# 
# 
# High freq. dielectric constant tensor:
#      x y z
#    x 1.876580 0.000000 0.000000 
#    y 0.000000 1.880070 0.000000 
#    z 0.000000 0.000000 1.867760 
# 
# From -- ./inp_files/13627.got.cif
#   From: 2010.03.12/outbox.cif.g09.slc.cpg/sg73_7_cif.got.tgz:13627.got - 2010.04.16 15:25:48.
