data_PCOD8296494
_publ_section_title
;
Structure prediction by ZEFSAII (Michael W. Deem and Ramdas Pophale) SiO2 
 PCOD8296494
Probable space group: I B C A 
;
_chemical_formula_sum "Si O2"
_cell_formula_units_Z 80
_cell_length_a 14.063645
_cell_length_b 10.613277
_cell_length_c 23.645381
_cell_angle_alpha 90.000000
_cell_angle_beta 90.000000
_cell_angle_gamma 90.000000
_cell_volume 3529.341726
_symmetry_space_group_name_H-M "I B C A "
_symmetry_group_IT_number 73
_symmetry_cell_setting 'orthorhombic'
loop_
_space_group_symop_operation_xyz
x,y,z
-x,1/2-y,z
x,-y,1/2-z
1/2-x,y,-z
-x,-y,-z
x,1/2+y,-z
-x,y,1/2+z
1/2+x,-y,z
1/2+x,1/2+y,1/2+z
1/2-x,-y,1/2+z
1/2+x,1/2-y,-z
-x,1/2+y,1/2-z
1/2-x,1/2-y,1/2-z
1/2+x,y,1/2-z
1/2-x,1/2+y,z
x,1/2-y,1/2+z
loop_
_atom_site_type_symbol
_atom_site_label
_atom_site_fract_x
_atom_site_fract_y
_atom_site_fract_z
Si Si1 0.656899 0.064099 0.618729
Si Si2 0.501593 0.394961 0.702968
Si Si3 0.365504 0.501565 0.390404
Si Si4 0.844961 0.774463 0.530518
Si Si5 0.529672 0.901636 0.547234
O O1 0.602287 0.075753 0.677847
O O2 0.769013 0.060386 0.633212
O O3 0.627008 0.182785 0.580770
O O4 0.621486 0.943238 0.583922
O O5 0.500000 0.250000 0.726147
O O6 0.523353 0.500000 0.750000
O O7 0.584394 0.409313 0.656031
O O8 0.335507 0.584744 0.444821
O O9 0.439528 0.391143 0.409690
O O10 0.750000 0.726772 0.500000
O O11 0.930205 0.773847 0.483367
O O12 0.500000 0.000000 0.500000
#
# Coordination Sequence:
#
# PCOD8296494 Si02
#       5
#    16  16  16  16  16
#     4  11  23  43  66 100 143 186 240 306 357 447
#     4  11  25  52  79 101 139 191 254 323 383 428
#     4  10  22  44  65 101 141 182 245 298 365 446
#     4  11  21  36  63  96 143 189 230 274 363 432
#     4   9  21  35  57  92 137 182 230 271 347 430
#
# _framework density 22.667114999999999
#
# number of rings (size 3 to 8) (size 9 to 14) (size 15 to 20)
#    0.000    1.600    4.000    0.000    5.600    0.800 
#    3.600    2.000    0.000    0.000    0.000    0.000 
#    0.000    0.000    0.000    0.000    0.000    0.000 
#
# Total GULP energy -495769.778618 kJ/mol
# GULP energy per Si atom -12394.244465 kJ/mol
# Density = 2.261552 g / cm^3
# Si number density = 22.667115 Si / 1000 Ang^3
#
#
#
# Elastic Constant Matrix: (Units=GPa)
#
#
# Indices 1 2 3 4 5 6 
#
# 1 172.2026 28.0694 32.6183 0.0000 0.0000 0.0000
# 2 28.0694 94.5285 29.4449 0.0000 0.0000 0.0000
# 3 32.6183 29.4449 73.4910 0.0000 0.0000 0.0000
# 4 0.0000 0.0000 0.0000 42.2027 0.0000 0.0000
# 5 0.0000 0.0000 0.0000 0.0000 26.3612 0.0000
# 6 0.0000 0.0000 0.0000 0.0000 0.0000 24.1817
#
#
#
# Elastic Compliance Matrix: (Units=1/GPa)
#
#
# Indices 1 2 3 4 5 6 
#
# 1 0.006451 -0.001170 -0.002395 0.000000 0.000000 0.000000
# 2 -0.001170 0.012299 -0.004409 0.000000 0.000000 0.000000
# 3 -0.002395 -0.004409 0.016436 0.000000 0.000000 0.000000
# 4 0.000000 0.000000 0.000000 0.023695 0.000000 0.000000
# 5 0.000000 0.000000 0.000000 0.000000 0.037935 0.000000
# 6 0.000000 0.000000 0.000000 0.000000 0.000000 0.041354
#
#
# Mechanical properties :
#
#
# Convention : Reuss Voigt Hill
#
# Bulk Modulus (GPa) = 51.97274 57.83192 54.90233
# Shear Modulus (GPa) = 31.14673 35.22176 33.18424
#
# Velocity S-wave (km/s) = 3.71090 3.94619 3.83035
# Velocity P-wave (km/s) = 6.42958 6.80678 6.62087
#
# Compressibility (1/GPa) = 0.01924085
#
# Stress axis : x y z
#
# Youngs Moduli (GPa) = 155.00544 81.30445 60.84065
#
# Poissons Ratio (x) = 0.09511 0.14570
# Poissons Ratio (y) = 0.18132 0.26823
# Poissons Ratio (z) = 0.37119 0.35845
#
# Static dielectric constant tensor:
#      x y z
#    x 4.320560 0.000000 0.000000 
#    y 0.000000 3.973090 0.000000 
#    z 0.000000 0.000000 3.941230 
# 
# 
# High freq. dielectric constant tensor:
#      x y z
#    x 1.919260 0.000000 0.000000 
#    y 0.000000 1.889010 0.000000 
#    z 0.000000 0.000000 1.862730 
# 
# From -- ./inp_files/28791.got.cif
#   From: 2010.03.12/outbox.cif.g09.slc.cpg/sg73_15_cif.got.tgz:28791.got - 2010.04.16 15:25:48.
