data_PCOD8296479
_publ_section_title
;
Structure prediction by ZEFSAII (Michael W. Deem and Ramdas Pophale) SiO2 
 PCOD8296479
Probable space group: I B C A 
;
_chemical_formula_sum "Si O2"
_cell_formula_units_Z 80
_cell_length_a 10.385450
_cell_length_b 23.922509
_cell_length_c 14.088014
_cell_angle_alpha 90.000000
_cell_angle_beta 90.000000
_cell_angle_gamma 90.000000
_cell_volume 3500.111023
_symmetry_space_group_name_H-M "I B C A "
_symmetry_group_IT_number 73
_symmetry_cell_setting 'orthorhombic'
loop_
_space_group_symop_operation_xyz
x,y,z
-x,1/2-y,z
x,-y,1/2-z
1/2-x,y,-z
-x,-y,-z
x,1/2+y,-z
-x,y,1/2+z
1/2+x,-y,z
1/2+x,1/2+y,1/2+z
1/2-x,-y,1/2+z
1/2+x,1/2-y,-z
-x,1/2+y,1/2-z
1/2-x,1/2-y,1/2-z
1/2+x,y,1/2-z
1/2-x,1/2+y,z
x,1/2-y,1/2+z
loop_
_atom_site_type_symbol
_atom_site_label
_atom_site_fract_x
_atom_site_fract_y
_atom_site_fract_z
Si Si1 0.437712 0.370012 0.326440
Si Si2 0.498585 0.357174 0.115849
Si Si3 0.894261 0.797604 0.448594
Si Si4 0.725710 0.719357 0.347124
Si Si5 0.396067 0.951883 0.513197
O O1 0.438739 0.380899 0.213309
O O2 0.567108 0.337562 0.359443
O O3 0.316372 0.333778 0.358327
O O4 0.420490 0.428657 0.380629
O O5 0.580856 0.301479 0.139493
O O6 0.387466 0.337205 0.042606
O O7 0.585010 0.404204 0.066230
O O8 0.757965 0.766798 0.426118
O O9 0.000000 0.750000 0.460744
O O10 0.750000 0.750000 0.250000
O O11 0.250000 0.974848 0.500000
O O12 0.500000 0.000000 0.500000
#
# Coordination Sequence:
#
# PCOD8296479 Si02
#       5
#    16  16  16  16  16
#     4  10  22  43  64 103 140 181 244 298 367 447
#     4  11  23  43  68 100 149 189 238 311 364 455
#     4   9  21  34  59  97 137 185 234 267 352 441
#     4  11  21  39  66  98 147 195 232 285 363 450
#     4  11  25  52  78 101 139 192 255 326 385 436
#
# _framework density 22.856418999999999
#
# number of rings (size 3 to 8) (size 9 to 14) (size 15 to 20)
#    0.000    1.600    4.000    0.000    2.800    0.800 
#    3.600    2.000    0.000    0.000    0.000    0.000 
#    0.000    0.000    0.000    0.000    0.000    0.000 
#
# Total GULP energy -495876.159233 kJ/mol
# GULP energy per Si atom -12396.903981 kJ/mol
# Density = 2.280440 g / cm^3
# Si number density = 22.856419 Si / 1000 Ang^3
#
#
#
# Elastic Constant Matrix: (Units=GPa)
#
#
# Indices 1 2 3 4 5 6 
#
# 1 73.3569 45.7001 19.5807 0.0000 0.0000 0.0000
# 2 45.7001 102.2584 47.1928 0.0002 0.0000 0.0000
# 3 19.5807 47.1928 183.6139 0.0000 0.0000 0.0000
# 4 0.0000 0.0002 0.0000 31.0157 0.0000 0.0000
# 5 0.0000 0.0000 0.0000 0.0000 26.3336 0.0000
# 6 0.0000 0.0000 0.0000 0.0000 0.0000 45.4610
#
#
#
# Elastic Compliance Matrix: (Units=1/GPa)
#
#
# Indices 1 2 3 4 5 6 
#
# 1 0.018897 -0.008527 0.000176 0.000000 0.000000 0.000000
# 2 -0.008527 0.014943 -0.002931 0.000000 0.000000 0.000000
# 3 0.000176 -0.002931 0.006181 0.000000 0.000000 0.000000
# 4 0.000000 0.000000 0.000000 0.032242 0.000000 0.000000
# 5 0.000000 0.000000 0.000000 0.000000 0.037974 0.000000
# 6 0.000000 0.000000 0.000000 0.000000 0.000000 0.021997
#
#
# Mechanical properties :
#
#
# Convention : Reuss Voigt Hill
#
# Bulk Modulus (GPa) = 57.28295 64.90850 61.09573
# Shear Modulus (GPa) = 31.13033 37.01242 34.07138
#
# Velocity S-wave (km/s) = 3.69453 4.02847 3.86511
# Velocity P-wave (km/s) = 6.58148 7.07801 6.83425
#
# Compressibility (1/GPa) = 0.01745720
#
# Stress axis : x y z
#
# Youngs Moduli (GPa) = 52.91903 66.92309 161.79107
#
# Poissons Ratio (x) = 0.57062 -0.02853
# Poissons Ratio (y) = 0.45121 0.47426
# Poissons Ratio (z) = -0.00933 0.19617
#
# Static dielectric constant tensor:
#      x y z
#    x 4.320660 0.000000 0.000000 
#    y 0.000000 3.843930 0.000000 
#    z 0.000000 0.000000 4.377650 
# 
# 
# High freq. dielectric constant tensor:
#      x y z
#    x 1.902140 0.000000 0.000000 
#    y 0.000000 1.874720 0.000000 
#    z 0.000000 0.000000 1.928700 
# 
# From -- ./inp_files/16029.got.cif
#   From: 2010.03.12/outbox.cif.g09.slc.cpg/sg73_9_cif.got.tgz:16029.got - 2010.04.16 15:25:48.
