data_PCOD8296387
_publ_section_title
;
Structure prediction by ZEFSAII (Michael W. Deem and Ramdas Pophale) SiO2 
 PCOD8296387
Probable space group: I B C A 
;
_chemical_formula_sum "Si O2"
_cell_formula_units_Z 56
_cell_length_a 9.989086
_cell_length_b 12.665565
_cell_length_c 20.044533
_cell_angle_alpha 90.000000
_cell_angle_beta 90.000000
_cell_angle_gamma 90.000000
_cell_volume 2535.982561
_symmetry_space_group_name_H-M "I B C A "
_symmetry_group_IT_number 73
_symmetry_cell_setting 'orthorhombic'
loop_
_space_group_symop_operation_xyz
x,y,z
-x,1/2-y,z
x,-y,1/2-z
1/2-x,y,-z
-x,-y,-z
x,1/2+y,-z
-x,y,1/2+z
1/2+x,-y,z
1/2+x,1/2+y,1/2+z
1/2-x,-y,1/2+z
1/2+x,1/2-y,-z
-x,1/2+y,1/2-z
1/2-x,1/2-y,1/2-z
1/2+x,y,1/2-z
1/2-x,1/2+y,z
x,1/2-y,1/2+z
loop_
_atom_site_type_symbol
_atom_site_label
_atom_site_fract_x
_atom_site_fract_y
_atom_site_fract_z
Si Si1 0.335942 0.095442 0.860114
Si Si2 0.000000 0.750000 0.065622
Si Si3 0.250000 0.168489 0.000000
Si Si4 0.042005 0.417542 0.327062
Si Si5 0.000000 0.750000 0.786024
O O1 0.312632 0.097264 0.940319
O O2 0.374688 0.214117 0.833498
O O3 0.198164 0.052901 0.829326
O O4 0.454814 0.022851 0.831986
O O5 0.133622 0.747422 0.022450
O O6 0.008568 0.853645 0.109693
O O7 0.029063 0.352015 0.259192
#
# Coordination Sequence:
#
# PCOD8296387 Si02
#       5
#    16   8   8  16   8
#     4  11  24  41  65  94 129 169 213 269 325 394
#     4   9  21  40  60  88 127 167 216 268 316 385
#     4  10  22  40  64  94 126 174 218 258 328 386
#     4  10  24  41  62  94 128 167 214 269 328 384
#     4  11  23  42  66  92 127 167 218 270 324 383
#
# _framework density 22.082172
#
# number of rings (size 3 to 8) (size 9 to 14) (size 15 to 20)
#    0.000    1.714    0.000    2.571    0.000   19.429 
#    0.000    0.000    0.000    0.000    0.000    0.000 
#    0.000    0.000    0.000    0.000    0.000    0.000 
#
# Total GULP energy -346943.712439 kJ/mol
# GULP energy per Si atom -12390.846873 kJ/mol
# Density = 2.203191 g / cm^3
# Si number density = 22.082172 Si / 1000 Ang^3
#
#
#
# Elastic Constant Matrix: (Units=GPa)
#
#
# Indices 1 2 3 4 5 6 
#
# 1 170.8028 79.7783 65.3810 0.0000 0.0000 0.0000
# 2 79.7783 86.4718 60.7604 0.0000 0.0000 0.0000
# 3 65.3810 60.7604 147.0601 0.0000 0.0000 0.0000
# 4 0.0000 0.0000 0.0000 25.7306 0.0000 0.0000
# 5 0.0000 0.0000 0.0000 0.0000 -21.0602 0.0000
# 6 0.0000 0.0000 0.0000 0.0000 0.0000 44.4432
#
#
#
# Elastic Compliance Matrix: (Units=1/GPa)
#
#
# Indices 1 2 3 4 5 6 
#
# 1 0.010377 -0.008922 -0.000927 0.000000 0.000000 0.000000
# 2 -0.008922 0.023967 -0.005936 0.000000 0.000000 0.000000
# 3 -0.000927 -0.005936 0.009664 0.000000 0.000000 0.000000
# 4 0.000000 0.000000 0.000000 0.038864 0.000000 0.000000
# 5 0.000000 0.000000 0.000000 0.000000 -0.047483 0.000000
# 6 0.000000 0.000000 0.000000 0.000000 0.000000 0.022501
#
#
# Mechanical properties :
#
#
# Convention : Reuss Voigt Hill
#
# Bulk Modulus (GPa) = 80.39615 90.68602 85.54108
# Shear Modulus (GPa) = 53.41524 23.05040 38.23282
#
# Velocity S-wave (km/s) = 4.92360 3.23437 4.16551
# Velocity P-wave (km/s) = 8.29513 7.42326 7.87128
#
# Compressibility (1/GPa) = 0.01243841
#
# Stress axis : x y z
#
# Youngs Moduli (GPa) = 96.36695 41.72433 103.47177
#
# Poissons Ratio (x) = 0.37228 0.09593
# Poissons Ratio (y) = 0.85982 0.61416
# Poissons Ratio (z) = 0.08934 0.24766
#
# Static dielectric constant tensor:
#      x y z
#    x 4.110810 0.000000 0.000000 
#    y 0.000000 3.755920 0.000000 
#    z 0.000000 0.000000 4.309190 
# 
# 
# High freq. dielectric constant tensor:
#      x y z
#    x 1.877770 0.000000 0.000000 
#    y 0.000000 1.853190 0.000000 
#    z 0.000000 0.000000 1.892310 
# 
# From -- ./inp_files/4488.got.cif
#   From: 2010.03.12/outbox.cif.g09.slc.cpg/sg73_3_cif.got.tgz:4488.got - 2010.04.16 15:25:48.
