data_PCOD8296218
_publ_section_title
;
Structure prediction by ZEFSAII (Michael W. Deem and Ramdas Pophale) SiO2 
 PCOD8296218
Probable space group: I B C A 
;
_chemical_formula_sum "Si O2"
_cell_formula_units_Z 80
_cell_length_a 14.748533
_cell_length_b 9.821413
_cell_length_c 27.029684
_cell_angle_alpha 90.000000
_cell_angle_beta 90.000000
_cell_angle_gamma 90.000000
_cell_volume 3915.288481
_symmetry_space_group_name_H-M "I B C A "
_symmetry_group_IT_number 73
_symmetry_cell_setting 'orthorhombic'
loop_
_space_group_symop_operation_xyz
x,y,z
-x,1/2-y,z
x,-y,1/2-z
1/2-x,y,-z
-x,-y,-z
x,1/2+y,-z
-x,y,1/2+z
1/2+x,-y,z
1/2+x,1/2+y,1/2+z
1/2-x,-y,1/2+z
1/2+x,1/2-y,-z
-x,1/2+y,1/2-z
1/2-x,1/2-y,1/2-z
1/2+x,y,1/2-z
1/2-x,1/2+y,z
x,1/2-y,1/2+z
loop_
_atom_site_type_symbol
_atom_site_label
_atom_site_fract_x
_atom_site_fract_y
_atom_site_fract_z
Si Si1 0.653786 0.464963 0.478671
Si Si2 0.152777 0.035871 0.638237
Si Si3 0.094593 0.811835 0.457878
Si Si4 0.017853 0.593447 0.797667
Si Si5 0.810836 0.160733 0.643651
O O1 0.750000 0.514837 0.500000
O O2 0.640525 0.479119 0.420228
O O3 0.640098 0.306289 0.491596
O O4 0.579355 0.559764 0.506047
O O5 0.200532 0.178271 0.653518
O O6 0.055009 0.031595 0.663926
O O7 0.215403 0.911094 0.655779
O O8 0.157901 0.859056 0.412890
O O9 0.000000 0.750000 0.436687
O O10 0.015608 0.500000 0.750000
O O11 0.116416 0.585969 0.821913
O O12 0.000000 0.750000 0.783198
#
# Coordination Sequence:
#
# PCOD8296218 Si02
#       5
#    16  16  16  16  16
#     4  11  21  36  58  86 124 162 202 246 294 359
#     4  10  22  39  63  89 125 163 204 252 310 365
#     4  11  22  36  57  87 123 164 204 246 299 357
#     4  10  23  44  65  88 119 158 204 261 315 368
#     4  10  21  40  62  88 123 162 200 253 311 365
#
# _framework density 20.432722999999999
#
# number of rings (size 3 to 8) (size 9 to 14) (size 15 to 20)
#    0.000    1.600    2.000    4.200    2.800    2.400 
#    0.000    5.000    0.000    0.000    0.000    0.000 
#    0.000    0.000    0.000    0.000    0.000    0.000 
#
# Total GULP energy -495892.673581 kJ/mol
# GULP energy per Si atom -12397.316840 kJ/mol
# Density = 2.038622 g / cm^3
# Si number density = 20.432723 Si / 1000 Ang^3
#
#
#
# Elastic Constant Matrix: (Units=GPa)
#
#
# Indices 1 2 3 4 5 6 
#
# 1 38.6847 9.8358 8.9026 0.0000 0.0000 0.0000
# 2 9.8358 70.2690 41.5492 0.0000 0.0000 0.0000
# 3 8.9026 41.5492 86.9273 0.0000 0.0000 0.0000
# 4 0.0000 0.0000 0.0000 102.1144 0.0000 0.0000
# 5 0.0000 0.0000 0.0000 0.0000 20.6170 0.0000
# 6 0.0000 0.0000 0.0000 0.0000 0.0000 38.0798
#
#
#
# Elastic Compliance Matrix: (Units=1/GPa)
#
#
# Indices 1 2 3 4 5 6 
#
# 1 0.026914 -0.002980 -0.001332 0.000000 0.000000 0.000000
# 2 -0.002980 0.020167 -0.009334 0.000000 0.000000 0.000000
# 3 -0.001332 -0.009334 0.016102 0.000000 0.000000 0.000000
# 4 0.000000 0.000000 0.000000 0.009793 0.000000 0.000000
# 5 0.000000 0.000000 0.000000 0.000000 0.048504 0.000000
# 6 0.000000 0.000000 0.000000 0.000000 0.000000 0.026261
#
#
# Mechanical properties :
#
#
# Convention : Reuss Voigt Hill
#
# Bulk Modulus (GPa) = 27.86200 35.16178 31.51189
# Shear Modulus (GPa) = 26.73845 41.20182 33.97014
#
# Velocity S-wave (km/s) = 3.62140 4.49538 4.08184
# Velocity P-wave (km/s) = 5.58136 6.64759 6.13767
#
# Compressibility (1/GPa) = 0.03589117
#
# Stress axis : x y z
#
# Youngs Moduli (GPa) = 37.15515 49.58506 62.10437
#
# Poissons Ratio (x) = 0.14774 0.08274
# Poissons Ratio (y) = 0.11070 0.57971
# Poissons Ratio (z) = 0.04950 0.46285
#
# Static dielectric constant tensor:
#      x y z
#    x 3.759610 0.000000 0.000000 
#    y 0.000000 3.967590 0.000000 
#    z 0.000000 0.000000 3.474610 
# 
# 
# High freq. dielectric constant tensor:
#      x y z
#    x 1.800260 0.000000 0.000000 
#    y 0.000000 1.806560 0.000000 
#    z 0.000000 0.000000 1.782470 
# 
# From -- ./inp_files/5595.got.cif
#   From: 2010.03.12/outbox.cif.g09.slc.cpg/sg73_3_cif.got.tgz:5595.got - 2010.04.16 15:25:48.
