data_PCOD8296537
_publ_section_title
;
Structure prediction by ZEFSAII (Michael W. Deem and Ramdas Pophale) SiO2 
 PCOD8296537
Probable space group: I B C A 
;
_chemical_formula_sum "Si O2"
_cell_formula_units_Z 112
_cell_length_a 14.602627
_cell_length_b 20.454128
_cell_length_c 15.919853
_cell_angle_alpha 90.000000
_cell_angle_beta 90.000000
_cell_angle_gamma 90.000000
_cell_volume 4755.005402
_symmetry_space_group_name_H-M "I B C A "
_symmetry_group_IT_number 73
_symmetry_cell_setting 'orthorhombic'
loop_
_space_group_symop_operation_xyz
x,y,z
-x,1/2-y,z
x,-y,1/2-z
1/2-x,y,-z
-x,-y,-z
x,1/2+y,-z
-x,y,1/2+z
1/2+x,-y,z
1/2+x,1/2+y,1/2+z
1/2-x,-y,1/2+z
1/2+x,1/2-y,-z
-x,1/2+y,1/2-z
1/2-x,1/2-y,1/2-z
1/2+x,y,1/2-z
1/2-x,1/2+y,z
x,1/2-y,1/2+z
loop_
_atom_site_type_symbol
_atom_site_label
_atom_site_fract_x
_atom_site_fract_y
_atom_site_fract_z
Si Si1 0.185665 0.869475 0.198155
Si Si2 0.988821 0.822910 0.784320
Si Si3 0.973630 0.837434 0.476483
Si Si4 0.847684 0.551344 0.044123
Si Si5 0.147561 0.412642 0.483366
Si Si6 0.827856 0.244551 0.930517
Si Si7 0.647401 0.628240 0.316068
O O1 0.113980 0.848417 0.270622
O O2 0.154556 0.932357 0.143529
O O3 0.204677 0.813302 0.130552
O O4 0.277721 0.886350 0.246308
O O5 0.000000 0.750000 0.747794
O O6 0.025845 0.822376 0.878464
O O7 0.049982 0.870247 0.728223
O O8 0.919928 0.904078 0.495323
O O9 0.925279 0.776593 0.525279
O O10 0.079955 0.850451 0.501533
O O11 0.750000 0.560707 0.000000
O O12 0.879423 0.475786 0.037876
O O13 0.250000 0.387293 0.500000
O O14 0.143200 0.430930 0.383796
O O15 0.833904 0.306946 0.870821
O O16 0.750000 0.253466 0.000000
#
# Coordination Sequence:
#
# PCOD8296537 Si02
#       7
#    16  16  16  16  16  16  16
#     4  11  23  44  68  99 138 179 224 290 340 404
#     4  12  26  40  62  99 141 176 221 273 351 405
#     4  11  24  42  68  95 136 184 227 280 336 414
#     4  10  22  47  72  94 130 180 235 283 346 406
#     4  11  25  44  68  97 133 180 236 280 332 410
#     4  11  23  39  68  98 133 183 223 274 350 422
#     4  12  24  42  66 104 138 174 226 284 344 407
#
# _framework density 23.554126
#
# number of rings (size 3 to 8) (size 9 to 14) (size 15 to 20)
#    0.000    0.857    1.429    7.286    4.000    0.000 
#    0.000   11.429    0.000    0.000    0.000    0.000 
#    0.000    0.000    0.000    0.000    0.000    0.000 
#
# Total GULP energy -694323.603773 kJ/mol
# GULP energy per Si atom -12398.635782 kJ/mol
# Density = 2.350052 g / cm^3
# Si number density = 23.554126 Si / 1000 Ang^3
#
#
#
# Elastic Constant Matrix: (Units=GPa)
#
#
# Indices 1 2 3 4 5 6 
#
# 1 108.2748 11.1062 8.6677 0.0000 0.0000 0.0000
# 2 11.1062 91.6225 27.9827 0.0003 0.0000 0.0000
# 3 8.6677 27.9827 119.6368 0.0007 0.0000 0.0000
# 4 0.0000 0.0003 0.0007 14.5563 0.0000 0.0000
# 5 0.0000 0.0000 0.0000 0.0000 51.9096 0.0000
# 6 0.0000 0.0000 0.0000 0.0000 0.0000 11.9052
#
#
#
# Elastic Compliance Matrix: (Units=1/GPa)
#
#
# Indices 1 2 3 4 5 6 
#
# 1 0.009374 -0.001000 -0.000445 0.000000 0.000000 0.000000
# 2 -0.001000 0.011861 -0.002702 0.000000 0.000000 0.000000
# 3 -0.000445 -0.002702 0.009023 0.000000 0.000000 0.000000
# 4 0.000000 0.000000 0.000000 0.068699 0.000000 0.000000
# 5 0.000000 0.000000 0.000000 0.000000 0.019264 0.000000
# 6 0.000000 0.000000 0.000000 0.000000 0.000000 0.083997
#
#
# Mechanical properties :
#
#
# Convention : Reuss Voigt Hill
#
# Bulk Modulus (GPa) = 45.53089 46.11637 45.82363
# Shear Modulus (GPa) = 22.95340 33.79274 28.37307
#
# Velocity S-wave (km/s) = 3.12508 3.79183 3.47449
# Velocity P-wave (km/s) = 5.69155 6.22833 5.96598
#
# Compressibility (1/GPa) = 0.02196311
#
# Stress axis : x y z
#
# Youngs Moduli (GPa) = 106.67800 84.31175 110.83019
#
# Poissons Ratio (x) = 0.08434 0.04934
# Poissons Ratio (y) = 0.10671 0.29943
# Poissons Ratio (z) = 0.04749 0.22779
#
# Static dielectric constant tensor:
#      x y z
#    x 4.365540 0.000000 0.000000 
#    y 0.000000 4.390340 0.000000 
#    z 0.000000 0.000000 4.537040 
# 
# 
# High freq. dielectric constant tensor:
#      x y z
#    x 1.946380 0.000000 0.000000 
#    y 0.000000 1.922050 0.000000 
#    z 0.000000 0.000000 1.946790 
# 
# From -- ./inp_files/17241.got.cif
#   From: 2010.03.12/outbox.cif.g09.slc.cpg/sg73_9_cif.got.tgz:17241.got - 2010.04.16 15:25:48.
