data_PCOD8296638
_publ_section_title
;
Structure prediction by ZEFSAII (Michael W. Deem and Ramdas Pophale) SiO2 
 PCOD8296638
Probable space group: I B C A 
;
_chemical_formula_sum "Si O2"
_cell_formula_units_Z 112
_cell_length_a 26.302253
_cell_length_b 13.256159
_cell_length_c 14.091245
_cell_angle_alpha 90.000000
_cell_angle_beta 90.000000
_cell_angle_gamma 90.000000
_cell_volume 4913.149976
_symmetry_space_group_name_H-M "I B C A "
_symmetry_group_IT_number 73
_symmetry_cell_setting 'orthorhombic'
loop_
_space_group_symop_operation_xyz
x,y,z
-x,1/2-y,z
x,-y,1/2-z
1/2-x,y,-z
-x,-y,-z
x,1/2+y,-z
-x,y,1/2+z
1/2+x,-y,z
1/2+x,1/2+y,1/2+z
1/2-x,-y,1/2+z
1/2+x,1/2-y,-z
-x,1/2+y,1/2-z
1/2-x,1/2-y,1/2-z
1/2+x,y,1/2-z
1/2-x,1/2+y,z
x,1/2-y,1/2+z
loop_
_atom_site_type_symbol
_atom_site_label
_atom_site_fract_x
_atom_site_fract_y
_atom_site_fract_z
Si Si1 0.486157 0.930469 0.837271
Si Si2 0.081816 0.162408 0.934553
Si Si3 0.688727 0.420616 0.676592
Si Si4 0.107911 0.018928 0.463920
Si Si5 0.085521 0.184138 0.597388
Si Si6 0.785035 0.000000 0.250000
Si Si7 0.154606 0.795198 0.732843
Si Si8 0.500000 0.250000 0.274839
O O1 0.531746 0.903076 0.909665
O O2 0.439156 0.980856 0.890943
O O3 0.467000 0.824311 0.791943
O O4 0.504881 0.000000 0.750000
O O5 0.107641 0.201394 0.839153
O O6 0.071141 0.257858 0.000839
O O7 0.118141 0.095249 0.002909
O O8 0.661544 0.500000 0.750000
O O9 0.658721 0.430767 0.578283
O O10 0.747515 0.457969 0.665812
O O11 0.688806 0.303556 0.710988
O O12 0.096050 0.071553 0.563996
O O13 0.133784 0.220150 0.660005
O O14 0.035921 0.180479 0.662083
O O15 0.817223 0.902811 0.217602
#
# Coordination Sequence:
#
# PCOD8296638 Si02
#       8
#    16  16  16  16  16   8  16   8
#     4  12  24  41  65 103 142 198 236 287 346 429
#     4  12  25  42  68 103 145 185 236 290 353 430
#     4  10  23  46  74 102 137 187 236 294 365 427
#     4  12  23  42  66 103 145 187 243 286 354 424
#     4  12  24  41  69 100 142 186 232 293 342 429
#     4  10  26  44  84  98 144 182 238 310 368 444
#     4  12  23  49  72 107 141 191 236 298 378 429
#     4  12  22  40  64  98 140 190 240 274 350 408
#
# _framework density 22.795966
#
# number of rings (size 3 to 8) (size 9 to 14) (size 15 to 20)
#    0.429    0.000    2.857    7.286    1.000    0.000 
#    0.000    2.857    0.000    0.000    0.000    0.000 
#    0.000    0.000    0.000    0.000    0.000    0.000 
#
# Total GULP energy -694015.379180 kJ/mol
# GULP energy per Si atom -12393.131771 kJ/mol
# Density = 2.274408 g / cm^3
# Si number density = 22.795966 Si / 1000 Ang^3
#
#
#
# Elastic Constant Matrix: (Units=GPa)
#
#
# Indices 1 2 3 4 5 6 
#
# 1 72.6575 17.1066 32.6122 0.0000 0.0000 0.0000
# 2 17.1066 110.4469 24.5932 0.0000 0.0000 0.0000
# 3 32.6122 24.5932 103.8865 0.0000 0.0000 0.0000
# 4 0.0000 0.0000 0.0000 41.1432 0.0000 0.0000
# 5 0.0000 0.0000 0.0000 0.0000 7.3527 0.0000
# 6 0.0000 0.0000 0.0000 0.0000 0.0000 38.3924
#
#
#
# Elastic Compliance Matrix: (Units=1/GPa)
#
#
# Indices 1 2 3 4 5 6 
#
# 1 0.016240 -0.001457 -0.004753 0.000000 0.000000 0.000000
# 2 -0.001457 0.009689 -0.001836 0.000000 0.000000 0.000000
# 3 -0.004753 -0.001836 0.011553 0.000000 0.000000 0.000000
# 4 0.000000 0.000000 0.000000 0.024305 0.000000 0.000000
# 5 0.000000 0.000000 0.000000 0.000000 0.136005 0.000000
# 6 0.000000 0.000000 0.000000 0.000000 0.000000 0.026047
#
#
# Mechanical properties :
#
#
# Convention : Reuss Voigt Hill
#
# Bulk Modulus (GPa) = 46.75408 48.40162 47.57785
# Shear Modulus (GPa) = 20.23802 31.55624 25.89713
#
# Velocity S-wave (km/s) = 2.98281 3.72464 3.37418
# Velocity P-wave (km/s) = 5.69361 6.30681 6.00804
#
# Compressibility (1/GPa) = 0.02138851
#
# Stress axis : x y z
#
# Youngs Moduli (GPa) = 61.57772 103.21346 86.55997
#
# Poissons Ratio (x) = 0.15037 0.41143
# Poissons Ratio (y) = 0.08971 0.15895
# Poissons Ratio (z) = 0.29268 0.18953
#
# Static dielectric constant tensor:
#      x y z
#    x 3.835000 0.000000 0.000000 
#    y 0.000000 4.316050 0.000000 
#    z 0.000000 0.000000 4.114250 
# 
# 
# High freq. dielectric constant tensor:
#      x y z
#    x 1.871850 0.000000 0.000000 
#    y 0.000000 1.924230 0.000000 
#    z 0.000000 0.000000 1.900790 
# 
# From -- ./inp_files/14868.got.cif
#   From: 2010.03.12/outbox.cif.g09.slc.cpg/sg73_8_cif.got.tgz:14868.got - 2010.04.16 15:25:48.
