data_PCOD8296107
_publ_section_title
;
Structure prediction by ZEFSAII (Michael W. Deem and Ramdas Pophale) SiO2 
 PCOD8296107
Probable space group: I B C A 
;
_chemical_formula_sum "Si O2"
_cell_formula_units_Z 96
_cell_length_a 28.739555
_cell_length_b 17.483986
_cell_length_c 9.527225
_cell_angle_alpha 90.000000
_cell_angle_beta 90.000000
_cell_angle_gamma 90.000000
_cell_volume 4787.258856
_symmetry_space_group_name_H-M "I B C A "
_symmetry_group_IT_number 73
_symmetry_cell_setting 'orthorhombic'
loop_
_space_group_symop_operation_xyz
x,y,z
-x,1/2-y,z
x,-y,1/2-z
1/2-x,y,-z
-x,-y,-z
x,1/2+y,-z
-x,y,1/2+z
1/2+x,-y,z
1/2+x,1/2+y,1/2+z
1/2-x,-y,1/2+z
1/2+x,1/2-y,-z
-x,1/2+y,1/2-z
1/2-x,1/2-y,1/2-z
1/2+x,y,1/2-z
1/2-x,1/2+y,z
x,1/2-y,1/2+z
loop_
_atom_site_type_symbol
_atom_site_label
_atom_site_fract_x
_atom_site_fract_y
_atom_site_fract_z
Si Si1 0.430429 0.306287 0.451911
Si Si2 0.240564 0.066100 0.156366
Si Si3 0.323874 0.200128 0.932529
Si Si4 0.822251 0.661347 0.745265
Si Si5 0.570856 0.161298 0.770653
Si Si6 0.493193 0.053778 0.867012
O O1 0.377414 0.321082 0.406684
O O2 0.439939 0.302759 0.618132
O O3 0.444300 0.224605 0.385759
O O4 0.459414 0.375474 0.389184
O O5 0.205966 0.136976 0.147509
O O6 0.288120 0.088646 0.239598
O O7 0.217000 0.000000 0.250000
O O8 0.250000 0.034726 0.000000
O O9 0.308606 0.281370 0.869776
O O10 0.314626 0.205237 0.097876
O O11 0.875284 0.635349 0.772170
O O12 0.542257 0.085116 0.806860
O O13 0.469968 0.000000 0.750000
O O14 0.500000 0.000000 0.000000
#
# Coordination Sequence:
#
# PCOD8296107 Si02
#       6
#    16  16  16  16  16  16
#     4  10  22  40  61  85 115 155 197 245 291 351
#     4  10  21  36  55  85 120 152 187 234 293 349
#     4   9  19  37  59  83 113 145 194 239 284 340
#     4   9  19  37  59  85 110 150 192 239 284 342
#     4  10  22  40  61  85 116 154 201 242 293 352
#     4  12  25  40  58  86 120 158 196 244 301 353
#
# _framework density 20.053229000000002
#
# number of rings (size 3 to 8) (size 9 to 14) (size 15 to 20)
#    0.000    2.000    1.667    1.000    2.333    4.000 
#    3.000    0.000    0.000    0.000    0.000    0.000 
#    0.000    0.000    0.000    0.000    0.000    0.000 
#
# Total GULP energy -595143.661285 kJ/mol
# GULP energy per Si atom -12398.826277 kJ/mol
# Density = 2.000759 g / cm^3
# Si number density = 20.053229 Si / 1000 Ang^3
#
#
#
# Elastic Constant Matrix: (Units=GPa)
#
#
# Indices 1 2 3 4 5 6 
#
# 1 59.5309 30.3880 27.6346 0.0000 0.0000 0.0000
# 2 30.3880 68.7870 37.1337 0.0000 0.0000 0.0000
# 3 27.6346 37.1337 91.5237 0.0000 0.0000 0.0000
# 4 0.0000 0.0000 0.0000 48.5811 0.0000 0.0000
# 5 0.0000 0.0000 0.0000 0.0000 29.6811 0.0000
# 6 0.0000 0.0000 0.0000 0.0000 0.0000 24.2516
#
#
#
# Elastic Compliance Matrix: (Units=1/GPa)
#
#
# Indices 1 2 3 4 5 6 
#
# 1 0.022552 -0.008050 -0.003543 0.000000 0.000000 0.000000
# 2 -0.008050 0.021488 -0.006288 0.000000 0.000000 0.000000
# 3 -0.003543 -0.006288 0.014547 0.000000 0.000000 0.000000
# 4 0.000000 0.000000 0.000000 0.020584 0.000000 0.000000
# 5 0.000000 0.000000 0.000000 0.000000 0.033691 0.000000
# 6 0.000000 0.000000 0.000000 0.000000 0.000000 0.041234
#
#
# Mechanical properties :
#
#
# Convention : Reuss Voigt Hill
#
# Bulk Modulus (GPa) = 43.81099 45.57269 44.69184
# Shear Modulus (GPa) = 25.32059 28.81512 27.06785
#
# Velocity S-wave (km/s) = 3.55726 3.79480 3.67795
# Velocity P-wave (km/s) = 6.22631 6.47888 6.35385
#
# Compressibility (1/GPa) = 0.02282532
#
# Stress axis : x y z
#
# Youngs Moduli (GPa) = 44.34202 46.53705 68.74233
#
# Poissons Ratio (x) = 0.37462 0.24357
# Poissons Ratio (y) = 0.35695 0.43224
# Poissons Ratio (z) = 0.15711 0.29261
#
# Static dielectric constant tensor:
#      x y z
#    x 3.779110 0.000000 0.000000 
#    y 0.000000 3.467120 0.000000 
#    z 0.000000 0.000000 3.796740 
# 
# 
# High freq. dielectric constant tensor:
#      x y z
#    x 1.786440 0.000000 0.000000 
#    y 0.000000 1.774260 0.000000 
#    z 0.000000 0.000000 1.791780 
# 
# From -- ./inp_files/7798.got.cif
#   From: 2010.03.12/outbox.cif.g09.slc.cpg/sg73_4_cif.got.tgz:7798.got - 2010.04.16 15:25:48.
