data_PCOD8296588
_publ_section_title
;
Structure prediction by ZEFSAII (Michael W. Deem and Ramdas Pophale) SiO2 
 PCOD8296588
Probable space group: I B C A 
;
_chemical_formula_sum "Si O2"
_cell_formula_units_Z 64
_cell_length_a 17.798674
_cell_length_b 17.032016
_cell_length_c 9.650542
_cell_angle_alpha 90.000000
_cell_angle_beta 90.000000
_cell_angle_gamma 90.000000
_cell_volume 2925.535754
_symmetry_space_group_name_H-M "I B C A "
_symmetry_group_IT_number 73
_symmetry_cell_setting 'orthorhombic'
loop_
_space_group_symop_operation_xyz
x,y,z
-x,1/2-y,z
x,-y,1/2-z
1/2-x,y,-z
-x,-y,-z
x,1/2+y,-z
-x,y,1/2+z
1/2+x,-y,z
1/2+x,1/2+y,1/2+z
1/2-x,-y,1/2+z
1/2+x,1/2-y,-z
-x,1/2+y,1/2-z
1/2-x,1/2-y,1/2-z
1/2+x,y,1/2-z
1/2-x,1/2+y,z
x,1/2-y,1/2+z
loop_
_atom_site_type_symbol
_atom_site_label
_atom_site_fract_x
_atom_site_fract_y
_atom_site_fract_z
Si Si1 0.813096 0.500000 0.750000
Si Si2 0.827329 0.278968 0.179413
Si Si3 0.580961 0.624864 0.128871
Si Si4 0.250000 0.897981 0.500000
Si Si5 0.962580 0.832262 0.652841
O O1 0.861922 0.555483 0.845713
O O2 0.766695 0.550734 0.637556
O O3 0.750000 0.250000 0.250000
O O4 0.874176 0.206371 0.120931
O O5 0.815826 0.338610 0.049723
O O6 0.877870 0.323058 0.292210
O O7 0.515373 0.622521 0.240762
O O8 0.541642 0.612385 0.981176
O O9 0.000000 0.750000 0.611052
#
# Coordination Sequence:
#
# PCOD8296588 Si02
#       5
#     8  16  16   8  16
#     4  12  30  46  70 108 156 186 236 304 380 436
#     4  11  22  44  77 101 134 190 249 299 345 433
#     4  11  25  45  70 103 143 186 237 292 366 427
#     4  12  28  48  70 110 146 190 248 300 366 432
#     4  10  23  42  71 103 138 182 241 298 346 427
#
# _framework density 21.876335000000001
#
# number of rings (size 3 to 8) (size 9 to 14) (size 15 to 20)
#    0.000    1.000    2.500    3.750   10.500    2.000 
#    0.000    0.000    0.000    0.000    0.000    0.000 
#    0.000    0.000    0.000    0.000    0.000    0.000 
#
# Total GULP energy -396771.121505 kJ/mol
# GULP energy per Si atom -12399.097547 kJ/mol
# Density = 2.182654 g / cm^3
# Si number density = 21.876335 Si / 1000 Ang^3
#
#
#
# Elastic Constant Matrix: (Units=GPa)
#
#
# Indices 1 2 3 4 5 6 
#
# 1 112.9222 27.8283 56.3088 0.0000 0.0000 0.0000
# 2 27.8283 85.8465 55.8151 0.0000 0.0000 0.0000
# 3 56.3088 55.8151 155.7703 0.0000 0.0000 0.0000
# 4 0.0000 0.0000 0.0000 46.1617 0.0000 0.0000
# 5 0.0000 0.0000 0.0000 0.0000 37.6956 0.0000
# 6 0.0000 0.0000 0.0000 0.0000 0.0000 -24.7960
#
#
#
# Elastic Compliance Matrix: (Units=1/GPa)
#
#
# Indices 1 2 3 4 5 6 
#
# 1 0.010908 -0.001268 -0.003489 0.000000 0.000000 0.000000
# 2 -0.001268 0.015334 -0.005036 0.000000 0.000000 0.000000
# 3 -0.003489 -0.005036 0.009485 0.000000 0.000000 0.000000
# 4 0.000000 0.000000 0.000000 0.021663 0.000000 0.000000
# 5 0.000000 0.000000 0.000000 0.000000 0.026528 0.000000
# 6 0.000000 0.000000 0.000000 0.000000 0.000000 -0.040329
#
#
# Mechanical properties :
#
#
# Convention : Reuss Voigt Hill
#
# Bulk Modulus (GPa) = 61.95024 70.49370 66.22197
# Shear Modulus (GPa) = 72.93395 26.11805 49.52600
#
# Velocity S-wave (km/s) = 5.78027 3.45903 4.76322
# Velocity P-wave (km/s) = 8.53983 6.94599 7.78381
#
# Compressibility (1/GPa) = 0.01614199
#
# Stress axis : x y z
#
# Youngs Moduli (GPa) = 91.67814 65.21447 105.42493
#
# Poissons Ratio (x) = 0.08266 0.36781
# Poissons Ratio (y) = 0.11621 0.53094
# Poissons Ratio (z) = 0.31985 0.32843
#
# Static dielectric constant tensor:
#      x y z
#    x 4.055170 0.000000 0.000000 
#    y 0.000000 3.806790 0.000000 
#    z 0.000000 0.000000 4.015430 
# 
# 
# High freq. dielectric constant tensor:
#      x y z
#    x 1.867350 0.000000 0.000000 
#    y 0.000000 1.847640 0.000000 
#    z 0.000000 0.000000 1.877610 
# 
# From -- ./inp_files/5241.got.cif
#   From: 2010.03.12/outbox.cif.g09.slc.cpg/sg73_3_cif.got.tgz:5241.got - 2010.04.16 15:25:48.
