data_PCOD8296306
_publ_section_title
;
Structure prediction by ZEFSAII (Michael W. Deem and Ramdas Pophale) SiO2 
 PCOD8296306
Probable space group: I B C A 
;
_chemical_formula_sum "Si O2"
_cell_formula_units_Z 88
_cell_length_a 16.198307
_cell_length_b 13.084637
_cell_length_c 18.747965
_cell_angle_alpha 90.000000
_cell_angle_beta 90.000000
_cell_angle_gamma 90.000000
_cell_volume 3973.611817
_symmetry_space_group_name_H-M "I B C A "
_symmetry_group_IT_number 73
_symmetry_cell_setting 'orthorhombic'
loop_
_space_group_symop_operation_xyz
x,y,z
-x,1/2-y,z
x,-y,1/2-z
1/2-x,y,-z
-x,-y,-z
x,1/2+y,-z
-x,y,1/2+z
1/2+x,-y,z
1/2+x,1/2+y,1/2+z
1/2-x,-y,1/2+z
1/2+x,1/2-y,-z
-x,1/2+y,1/2-z
1/2-x,1/2-y,1/2-z
1/2+x,y,1/2-z
1/2-x,1/2+y,z
x,1/2-y,1/2+z
loop_
_atom_site_type_symbol
_atom_site_label
_atom_site_fract_x
_atom_site_fract_y
_atom_site_fract_z
Si Si1 0.142391 0.919698 0.611652
Si Si2 0.539470 0.106273 0.482535
Si Si3 0.112923 0.000000 0.250000
Si Si4 0.405143 0.647155 0.620010
Si Si5 0.475165 0.639514 0.773403
Si Si6 0.175196 0.362150 0.628626
O O1 0.081877 0.858184 0.556636
O O2 0.110240 0.895322 0.690899
O O3 0.232713 0.874408 0.599520
O O4 0.144574 0.043116 0.602272
O O5 0.465359 0.175078 0.447595
O O6 0.612314 0.087622 0.426233
O O7 0.500000 0.000000 0.500000
O O8 0.169242 0.076299 0.203275
O O9 0.051258 0.068355 0.298437
O O10 0.465117 0.632094 0.687889
O O11 0.343184 0.740680 0.636113
O O12 0.500000 0.750000 0.799648
#
# Coordination Sequence:
#
# PCOD8296306 Si02
#       6
#    16  16   8  16  16  16
#     4  11  26  42  68 103 142 171 234 297 346 408
#     4  10  21  45  70  93 129 186 226 271 340 425
#     4  12  22  38  68  98 130 186 236 270 340 430
#     4  11  22  45  71  90 139 190 224 277 358 417
#     4  12  22  41  65  98 131 180 237 279 332 424
#     4  12  25  42  69 104 139 183 226 292 360 402
#
# _framework density 22.146099
#
# number of rings (size 3 to 8) (size 9 to 14) (size 15 to 20)
#    0.000    0.727    5.455    2.182    2.545    3.636 
#    0.000    9.091    0.000    0.000    0.000    0.000 
#    0.000    0.000    0.000    0.000    0.000    0.000 
#
# Total GULP energy -545351.327019 kJ/mol
# GULP energy per Si atom -12394.348341 kJ/mol
# Density = 2.209569 g / cm^3
# Si number density = 22.146099 Si / 1000 Ang^3
#
#
#
# Elastic Constant Matrix: (Units=GPa)
#
#
# Indices 1 2 3 4 5 6 
#
# 1 120.5420 45.9924 29.0523 0.0000 0.0000 0.0000
# 2 45.9924 134.4212 30.5486 0.0000 0.0000 0.0000
# 3 29.0523 30.5486 85.5666 0.0000 0.0000 0.0000
# 4 0.0000 0.0000 0.0000 29.1620 0.0000 0.0000
# 5 0.0000 0.0000 0.0000 0.0000 31.6958 0.0000
# 6 0.0000 0.0000 0.0000 0.0000 0.0000 34.0395
#
#
#
# Elastic Compliance Matrix: (Units=1/GPa)
#
#
# Indices 1 2 3 4 5 6 
#
# 1 0.009960 -0.002872 -0.002356 0.000000 0.000000 0.000000
# 2 -0.002872 0.008925 -0.002211 0.000000 0.000000 0.000000
# 3 -0.002356 -0.002211 0.013276 0.000000 0.000000 0.000000
# 4 0.000000 0.000000 0.000000 0.034291 0.000000 0.000000
# 5 0.000000 0.000000 0.000000 0.000000 0.031550 0.000000
# 6 0.000000 0.000000 0.000000 0.000000 0.000000 0.029378
#
#
# Mechanical properties :
#
#
# Convention : Reuss Voigt Hill
#
# Bulk Modulus (GPa) = 57.86521 61.30182 59.58351
# Shear Modulus (GPa) = 33.77962 34.64189 34.21075
#
# Velocity S-wave (km/s) = 3.90976 3.95934 3.93463
# Velocity P-wave (km/s) = 6.82401 6.97442 6.89963
#
# Compressibility (1/GPa) = 0.01728154
#
# Stress axis : x y z
#
# Youngs Moduli (GPa) = 100.40547 112.05090 75.32314
#
# Poissons Ratio (x) = 0.32184 0.17747
# Poissons Ratio (y) = 0.28839 0.16654
# Poissons Ratio (z) = 0.23657 0.24774
#
# Static dielectric constant tensor:
#      x y z
#    x 3.950180 0.000000 0.000000 
#    y 0.000000 3.933690 0.000000 
#    z 0.000000 0.000000 8.477280 
# 
# 
# High freq. dielectric constant tensor:
#      x y z
#    x 1.861920 0.000000 0.000000 
#    y 0.000000 1.881120 0.000000 
#    z 0.000000 0.000000 1.867230 
# 
# From -- ./inp_files/25925.got.cif
#   From: 2010.03.12/outbox.cif.g09.slc.cpg/sg73_13_cif.got.tgz:25925.got - 2010.04.16 15:25:48.
