data_PCOD8296435
_publ_section_title
;
Structure prediction by ZEFSAII (Michael W. Deem and Ramdas Pophale) SiO2 
 PCOD8296435
Probable space group: I B C A 
;
_chemical_formula_sum "Si O2"
_cell_formula_units_Z 80
_cell_length_a 21.798427
_cell_length_b 12.734735
_cell_length_c 13.558152
_cell_angle_alpha 90.000000
_cell_angle_beta 90.000000
_cell_angle_gamma 90.000000
_cell_volume 3763.704914
_symmetry_space_group_name_H-M "I B C A "
_symmetry_group_IT_number 73
_symmetry_cell_setting 'orthorhombic'
loop_
_space_group_symop_operation_xyz
x,y,z
-x,1/2-y,z
x,-y,1/2-z
1/2-x,y,-z
-x,-y,-z
x,1/2+y,-z
-x,y,1/2+z
1/2+x,-y,z
1/2+x,1/2+y,1/2+z
1/2-x,-y,1/2+z
1/2+x,1/2-y,-z
-x,1/2+y,1/2-z
1/2-x,1/2-y,1/2-z
1/2+x,y,1/2-z
1/2-x,1/2+y,z
x,1/2-y,1/2+z
loop_
_atom_site_type_symbol
_atom_site_label
_atom_site_fract_x
_atom_site_fract_y
_atom_site_fract_z
Si Si1 0.000000 0.750000 0.547900
Si Si2 0.924410 0.303559 0.787866
Si Si3 0.296325 0.122019 0.250583
Si Si4 0.428003 0.150362 0.887633
Si Si5 0.508343 0.000000 0.250000
Si Si6 0.291626 0.789509 0.596736
O O1 0.943947 0.776691 0.623711
O O2 0.975179 0.656009 0.479544
O O3 0.853113 0.323636 0.804838
O O4 0.938391 0.250226 0.683384
O O5 0.035580 0.090078 0.794234
O O6 0.293703 0.168877 0.362616
O O7 0.235470 0.144121 0.188177
O O8 0.309100 0.000000 0.250000
O O9 0.357615 0.157544 0.925709
O O10 0.445105 0.042234 0.833907
O O11 0.250000 0.795528 0.500000
#
# Coordination Sequence:
#
# PCOD8296435 Si02
#       6
#     8  16  16  16   8  16
#     4  12  20  40  60  92 130 168 204 266 324 382
#     4  11  22  41  63  92 136 166 210 272 328 381
#     4  10  22  41  69  91 125 179 216 269 328 382
#     4  11  24  41  63  95 134 169 217 269 323 388
#     4  12  20  42  62  98 130 172 206 268 326 394
#     4  10  23  44  63  93 131 170 221 272 320 378
#
# _framework density 21.255652000000001
#
# number of rings (size 3 to 8) (size 9 to 14) (size 15 to 20)
#    0.000    1.200    5.000    1.200    1.400    1.600 
#    0.000    2.000    0.000    0.000    0.000    0.000 
#    0.000    0.000    0.000    0.000    0.000    0.000 
#
# Total GULP energy -495596.071834 kJ/mol
# GULP energy per Si atom -12389.901796 kJ/mol
# Density = 2.120727 g / cm^3
# Si number density = 21.255652 Si / 1000 Ang^3
#
#
#
# Elastic Constant Matrix: (Units=GPa)
#
#
# Indices 1 2 3 4 5 6 
#
# 1 131.0832 42.4029 54.1622 0.0000 0.0000 0.0000
# 2 42.4029 68.3510 23.8286 0.0000 0.0000 0.0000
# 3 54.1622 23.8286 113.5207 0.0000 0.0000 0.0000
# 4 0.0000 0.0000 0.0000 16.9375 0.0000 0.0000
# 5 0.0000 0.0000 0.0000 0.0000 43.2210 0.0000
# 6 0.0000 0.0000 0.0000 0.0000 0.0000 27.9323
#
#
#
# Elastic Compliance Matrix: (Units=1/GPa)
#
#
# Indices 1 2 3 4 5 6 
#
# 1 0.011106 -0.005441 -0.004157 0.000000 0.000000 0.000000
# 2 -0.005441 0.018451 -0.001277 0.000000 0.000000 0.000000
# 3 -0.004157 -0.001277 0.011060 0.000000 0.000000 0.000000
# 4 0.000000 0.000000 0.000000 0.059040 0.000000 0.000000
# 5 0.000000 0.000000 0.000000 0.000000 0.023137 0.000000
# 6 0.000000 0.000000 0.000000 0.000000 0.000000 0.035801
#
#
# Mechanical properties :
#
#
# Convention : Reuss Voigt Hill
#
# Bulk Modulus (GPa) = 52.99986 61.52692 57.26339
# Shear Modulus (GPa) = 26.79030 30.45559 28.62295
#
# Velocity S-wave (km/s) = 3.55404 3.78937 3.67359
# Velocity P-wave (km/s) = 6.46763 6.93936 6.70764
#
# Compressibility (1/GPa) = 0.01886798
#
# Stress axis : x y z
#
# Youngs Moduli (GPa) = 90.03863 54.19782 90.41317
#
# Poissons Ratio (x) = 0.29488 0.37584
# Poissons Ratio (y) = 0.48989 0.11546
# Poissons Ratio (z) = 0.37428 0.06921
#
# Static dielectric constant tensor:
#      x y z
#    x 4.222960 0.000000 0.000000 
#    y 0.000000 3.627340 0.000000 
#    z 0.000000 0.000000 3.922150 
# 
# 
# High freq. dielectric constant tensor:
#      x y z
#    x 1.854390 0.000000 0.000000 
#    y 0.000000 1.805670 0.000000 
#    z 0.000000 0.000000 1.833600 
# 
# From -- ./inp_files/19197.got.cif
#   From: 2010.03.12/outbox.cif.g09.slc.cpg/sg73_10_cif.got.tgz:19197.got - 2010.04.16 15:25:48.
