data_PCOD8296348
_publ_section_title
;
Structure prediction by ZEFSAII (Michael W. Deem and Ramdas Pophale) SiO2 
 PCOD8296348
Probable space group: I B C A 
;
_chemical_formula_sum "Si O2"
_cell_formula_units_Z 80
_cell_length_a 23.396597
_cell_length_b 8.815048
_cell_length_c 18.039821
_cell_angle_alpha 90.000000
_cell_angle_beta 90.000000
_cell_angle_gamma 90.000000
_cell_volume 3720.571028
_symmetry_space_group_name_H-M "I B C A "
_symmetry_group_IT_number 73
_symmetry_cell_setting 'orthorhombic'
loop_
_space_group_symop_operation_xyz
x,y,z
-x,1/2-y,z
x,-y,1/2-z
1/2-x,y,-z
-x,-y,-z
x,1/2+y,-z
-x,y,1/2+z
1/2+x,-y,z
1/2+x,1/2+y,1/2+z
1/2-x,-y,1/2+z
1/2+x,1/2-y,-z
-x,1/2+y,1/2-z
1/2-x,1/2-y,1/2-z
1/2+x,y,1/2-z
1/2-x,1/2+y,z
x,1/2-y,1/2+z
loop_
_atom_site_type_symbol
_atom_site_label
_atom_site_fract_x
_atom_site_fract_y
_atom_site_fract_z
Si Si1 0.324078 0.698797 0.142395
Si Si2 0.630530 0.163160 0.715705
Si Si3 0.871501 0.033965 0.517983
Si Si4 0.933585 0.757644 0.082825
Si Si5 0.715402 0.475467 0.105060
O O1 0.351045 0.708564 0.224452
O O2 0.373827 0.663127 0.082622
O O3 0.281336 0.560224 0.123177
O O4 0.291250 0.853918 0.131319
O O5 0.576358 0.231929 0.671555
O O6 0.680889 0.142443 0.656182
O O7 0.613817 0.000000 0.750000
O O8 0.914133 0.083514 0.452960
O O9 0.807196 0.028625 0.480592
O O10 0.894427 0.875377 0.548873
O O11 0.000000 0.750000 0.065218
#
# Coordination Sequence:
#
# PCOD8296348 Si02
#       5
#    16  16  16  16  16
#     4  11  22  39  64  97 136 173 212 258 330 404
#     4   9  22  44  63  92 135 171 221 277 325 397
#     4  11  23  41  66  96 132 166 223 277 329 396
#     4  11  24  46  69  93 125 174 227 285 338 383
#     4  10  22  38  64  93 132 179 209 259 324 399
#
# _framework density 21.502075000000001
#
# number of rings (size 3 to 8) (size 9 to 14) (size 15 to 20)
#    0.000    1.600    2.000    1.800    5.600    2.400 
#    3.600    0.000    0.000    0.000    0.000    0.000 
#    0.000    0.000    0.000    0.000    0.000    0.000 
#
# Total GULP energy -495701.704706 kJ/mol
# GULP energy per Si atom -12392.542618 kJ/mol
# Density = 2.145314 g / cm^3
# Si number density = 21.502075 Si / 1000 Ang^3
#
#
#
# Elastic Constant Matrix: (Units=GPa)
#
#
# Indices 1 2 3 4 5 6 
#
# 1 80.4950 26.9051 34.5909 0.0000 0.0000 0.0000
# 2 26.9051 70.0459 42.3351 0.0000 0.0000 0.0000
# 3 34.5909 42.3351 146.2309 0.0000 0.0000 0.0000
# 4 0.0000 0.0000 0.0000 41.4198 0.0000 0.0000
# 5 0.0000 0.0000 0.0000 0.0000 18.2215 0.0000
# 6 0.0000 0.0000 0.0000 0.0000 0.0000 23.9473
#
#
#
# Elastic Compliance Matrix: (Units=1/GPa)
#
#
# Indices 1 2 3 4 5 6 
#
# 1 0.014842 -0.004338 -0.002255 0.000000 0.000000 0.000000
# 2 -0.004338 0.018572 -0.004351 0.000000 0.000000 0.000000
# 3 -0.002255 -0.004351 0.008631 0.000000 0.000000 0.000000
# 4 0.000000 0.000000 0.000000 0.024143 0.000000 0.000000
# 5 0.000000 0.000000 0.000000 0.000000 0.054880 0.000000
# 6 0.000000 0.000000 0.000000 0.000000 0.000000 0.041758
#
#
# Mechanical properties :
#
#
# Convention : Reuss Voigt Hill
#
# Bulk Modulus (GPa) = 49.60723 56.04822 52.82773
# Shear Modulus (GPa) = 26.11863 29.58042 27.84952
#
# Velocity S-wave (km/s) = 3.48904 3.71307 3.60280
# Velocity P-wave (km/s) = 6.27313 6.67124 6.47525
#
# Compressibility (1/GPa) = 0.02015835
#
# Stress axis : x y z
#
# Youngs Moduli (GPa) = 67.37570 53.84418 115.85519
#
# Poissons Ratio (x) = 0.23358 0.26125
# Poissons Ratio (y) = 0.29228 0.50404
# Poissons Ratio (z) = 0.15193 0.23426
#
# Static dielectric constant tensor:
#      x y z
#    x 3.593380 0.000000 0.000000 
#    y 0.000000 3.720180 0.000000 
#    z 0.000000 0.000000 4.249930 
# 
# 
# High freq. dielectric constant tensor:
#      x y z
#    x 1.811850 0.000000 0.000000 
#    y 0.000000 1.842200 0.000000 
#    z 0.000000 0.000000 1.863070 
# 
# From -- ./inp_files/5596.got.cif
#   From: 2010.03.12/outbox.cif.g09.slc.cpg/sg73_3_cif.got.tgz:5596.got - 2010.04.16 15:25:48.
