data_PCOD8296627
_publ_section_title
;
Structure prediction by ZEFSAII (Michael W. Deem and Ramdas Pophale) SiO2 
 PCOD8296627
Probable space group: I B C A 
;
_chemical_formula_sum "Si O2"
_cell_formula_units_Z 112
_cell_length_a 14.564825
_cell_length_b 15.797451
_cell_length_c 24.088315
_cell_angle_alpha 90.000000
_cell_angle_beta 90.000000
_cell_angle_gamma 90.000000
_cell_volume 5542.410765
_symmetry_space_group_name_H-M "I B C A "
_symmetry_group_IT_number 73
_symmetry_cell_setting 'orthorhombic'
loop_
_space_group_symop_operation_xyz
x,y,z
-x,1/2-y,z
x,-y,1/2-z
1/2-x,y,-z
-x,-y,-z
x,1/2+y,-z
-x,y,1/2+z
1/2+x,-y,z
1/2+x,1/2+y,1/2+z
1/2-x,-y,1/2+z
1/2+x,1/2-y,-z
-x,1/2+y,1/2-z
1/2-x,1/2-y,1/2-z
1/2+x,y,1/2-z
1/2-x,1/2+y,z
x,1/2-y,1/2+z
loop_
_atom_site_type_symbol
_atom_site_label
_atom_site_fract_x
_atom_site_fract_y
_atom_site_fract_z
Si Si1 0.353576 0.404392 0.754598
Si Si2 0.673473 0.878453 0.198741
Si Si3 0.534812 0.341940 0.707793
Si Si4 0.406351 0.785857 0.598720
Si Si5 0.652986 0.612035 0.116892
Si Si6 0.518896 0.551094 0.555670
Si Si7 0.651071 0.042385 0.135424
O O1 0.320447 0.500000 0.750000
O O2 0.271387 0.352351 0.725019
O O3 0.446062 0.399103 0.719121
O O4 0.366401 0.371884 0.817575
O O5 0.594606 0.840066 0.236845
O O6 0.661212 0.835338 0.139356
O O7 0.663824 0.979618 0.188124
O O8 0.500000 0.250000 0.690919
O O9 0.595356 0.376695 0.657257
O O10 0.500000 0.750000 0.627503
O O11 0.349767 0.700993 0.581920
O O12 0.439900 0.851843 0.549836
O O13 0.574169 0.551125 0.092187
O O14 0.751445 0.569067 0.109584
O O15 0.500000 0.500000 0.500000
O O16 0.596036 0.497731 0.585727
#
# Coordination Sequence:
#
# PCOD8296627 Si02
#       7
#    16  16  16  16  16  16  16
#     4  12  21  34  59  90 130 183 213 251 310 390
#     4  11  20  37  59  90 130 177 216 243 307 401
#     4  12  24  35  53  87 132 174 214 259 315 378
#     4   9  20  38  64  96 127 167 210 269 329 390
#     4  11  21  39  66  97 132 166 217 277 332 386
#     4  10  23  45  71  91 118 169 227 278 338 405
#     4  11  23  40  62  94 130 164 218 276 322 398
#
# _framework density 20.207813000000002
#
# number of rings (size 3 to 8) (size 9 to 14) (size 15 to 20)
#    0.000    1.143    2.857    6.000    2.000    1.714 
#    0.000    2.143    0.000    8.571    0.000    0.000 
#    0.000    0.000    0.000    0.000    0.000    0.000 
#
# Total GULP energy -694010.345012 kJ/mol
# GULP energy per Si atom -12393.041875 kJ/mol
# Density = 2.016182 g / cm^3
# Si number density = 20.207813 Si / 1000 Ang^3
#
#
#
# Elastic Constant Matrix: (Units=GPa)
#
#
# Indices 1 2 3 4 5 6 
#
# 1 141.8677 35.9369 37.1402 0.0000 0.0000 0.0000
# 2 35.9369 92.2747 28.4183 0.0000 0.0000 0.0000
# 3 37.1402 28.4183 77.3433 0.0000 0.0000 0.0000
# 4 0.0000 0.0000 0.0000 27.3920 0.0000 0.0000
# 5 0.0000 0.0000 0.0000 0.0000 25.3838 0.0000
# 6 0.0000 0.0000 0.0000 0.0000 0.0000 31.0585
#
#
#
# Elastic Compliance Matrix: (Units=1/GPa)
#
#
# Indices 1 2 3 4 5 6 
#
# 1 0.008477 -0.002309 -0.003222 0.000000 0.000000 0.000000
# 2 -0.002309 0.012849 -0.003612 0.000000 0.000000 0.000000
# 3 -0.003222 -0.003612 0.015804 0.000000 0.000000 0.000000
# 4 0.000000 0.000000 0.000000 0.036507 0.000000 0.000000
# 5 0.000000 0.000000 0.000000 0.000000 0.039395 0.000000
# 6 0.000000 0.000000 0.000000 0.000000 0.000000 0.032197
#
#
# Mechanical properties :
#
#
# Convention : Reuss Voigt Hill
#
# Bulk Modulus (GPa) = 53.07065 57.16405 55.11735
# Shear Modulus (GPa) = 29.44668 30.76621 30.10644
#
# Velocity S-wave (km/s) = 3.82146 3.90614 3.86403
# Velocity P-wave (km/s) = 6.76690 6.97807 6.87329
#
# Compressibility (1/GPa) = 0.01884281
#
# Stress axis : x y z
#
# Youngs Moduli (GPa) = 117.96128 77.82707 63.27509
#
# Poissons Ratio (x) = 0.17971 0.20390
# Poissons Ratio (y) = 0.27239 0.22857
# Poissons Ratio (z) = 0.38012 0.28113
#
# Static dielectric constant tensor:
#      x y z
#    x 3.860490 0.000000 0.000000 
#    y 0.000000 3.940450 0.000000 
#    z 0.000000 0.000000 3.226270 
# 
# 
# High freq. dielectric constant tensor:
#      x y z
#    x 1.808820 0.000000 0.000000 
#    y 0.000000 1.800420 0.000000 
#    z 0.000000 0.000000 1.735380 
# 
# From -- ./inp_files/29552.got.cif
#   From: 2010.03.12/outbox.cif.g09.slc.cpg/sg73_15_cif.got.tgz:29552.got - 2010.04.16 15:25:48.
