data_PCOD8296755
_publ_section_title
;
Structure prediction by ZEFSAII (Michael W. Deem and Ramdas Pophale) SiO2 
 PCOD8296755
Probable space group: I B C A 
;
_chemical_formula_sum "Si O2"
_cell_formula_units_Z 72
_cell_length_a 8.351475
_cell_length_b 29.493416
_cell_length_c 13.231451
_cell_angle_alpha 90.000000
_cell_angle_beta 90.000000
_cell_angle_gamma 90.000000
_cell_volume 3259.085355
_symmetry_space_group_name_H-M "I B C A "
_symmetry_group_IT_number 73
_symmetry_cell_setting 'orthorhombic'
loop_
_space_group_symop_operation_xyz
x,y,z
-x,1/2-y,z
x,-y,1/2-z
1/2-x,y,-z
-x,-y,-z
x,1/2+y,-z
-x,y,1/2+z
1/2+x,-y,z
1/2+x,1/2+y,1/2+z
1/2-x,-y,1/2+z
1/2+x,1/2-y,-z
-x,1/2+y,1/2-z
1/2-x,1/2-y,1/2-z
1/2+x,y,1/2-z
1/2-x,1/2+y,z
x,1/2-y,1/2+z
loop_
_atom_site_type_symbol
_atom_site_label
_atom_site_fract_x
_atom_site_fract_y
_atom_site_fract_z
Si Si1 0.572000 0.703528 0.826172
Si Si2 0.503702 0.465467 0.095706
Si Si3 0.067693 0.365879 0.465430
Si Si4 0.940346 0.796127 0.386445
Si Si5 0.745453 0.000000 0.250000
O O1 0.500000 0.750000 0.869273
O O2 0.464246 0.661086 0.862148
O O3 0.563250 0.701502 0.706143
O O4 0.755844 0.703247 0.857253
O O5 0.504445 0.416742 0.044210
O O6 0.355756 0.468895 0.173297
O O7 0.654735 0.469822 0.170907
O O8 0.500000 0.500000 0.000000
O O9 0.250000 0.365278 0.500000
O O10 0.959231 0.340662 0.547253
O O11 0.000000 0.750000 0.444258
#
# Coordination Sequence:
#
# PCOD8296755 Si02
#       5
#    16  16  16  16   8
#     4  11  23  41  64  93 129 172 219 273 330 401
#     4  11  25  46  71 100 136 175 223 280 339 405
#     4  12  25  41  64  95 130 171 219 272 331 396
#     4  11  23  42  65  93 130 174 220 274 335 399
#     4  10  24  46  72  98 132 178 222 274 342 406
#
# _framework density 22.092088
#
# number of rings (size 3 to 8) (size 9 to 14) (size 15 to 20)
#    0.000    0.889    0.000    8.667    0.000   10.667 
#    0.000    0.000    0.000    0.000    0.000    0.000 
#    0.000    0.000    0.000    0.000    0.000    0.000 
#
# Total GULP energy -446127.944297 kJ/mol
# GULP energy per Si atom -12392.442897 kJ/mol
# Density = 2.204181 g / cm^3
# Si number density = 22.092088 Si / 1000 Ang^3
#
#
#
# Elastic Constant Matrix: (Units=GPa)
#
#
# Indices 1 2 3 4 5 6 
#
# 1 140.9646 61.0978 52.0203 -0.0001 -0.0001 0.0000
# 2 61.0978 198.1932 68.8712 -0.0001 -0.0002 0.0000
# 3 52.0203 68.8712 137.6064 -0.0006 -0.0005 0.0001
# 4 -0.0001 -0.0001 -0.0006 46.0294 -0.0002 0.0000
# 5 -0.0001 -0.0002 -0.0005 -0.0002 40.7998 0.0001
# 6 0.0000 0.0000 0.0001 0.0000 0.0001 23.6726
#
#
#
# Elastic Compliance Matrix: (Units=1/GPa)
#
#
# Indices 1 2 3 4 5 6 
#
# 1 0.008788 -0.001882 -0.002380 0.000000 0.000000 0.000000
# 2 -0.001882 0.006511 -0.002547 0.000000 0.000000 0.000000
# 3 -0.002380 -0.002547 0.009442 0.000000 0.000000 0.000000
# 4 0.000000 0.000000 0.000000 0.021725 0.000000 0.000000
# 5 0.000000 0.000000 0.000000 0.000000 0.024510 0.000000
# 6 0.000000 0.000000 0.000000 0.000000 0.000000 0.042243
#
#
# Mechanical properties :
#
#
# Convention : Reuss Voigt Hill
#
# Bulk Modulus (GPa) = 89.91350 93.41587 91.66469
# Shear Modulus (GPa) = 38.30094 41.75202 40.02648
#
# Velocity S-wave (km/s) = 4.16828 4.35202 4.26114
# Velocity P-wave (km/s) = 7.99712 8.22375 8.11122
#
# Compressibility (1/GPa) = 0.01112180
#
# Stress axis : x y z
#
# Youngs Moduli (GPa) = 113.79039 153.58883 105.91197
#
# Poissons Ratio (x) = 0.28905 0.25210
# Poissons Ratio (y) = 0.21415 0.26978
# Poissons Ratio (z) = 0.27085 0.39122
#
# Static dielectric constant tensor:
#      x y z
#    x 4.192230 0.000000 0.000000 
#    y 0.000000 3.800580 0.000000 
#    z 0.000000 0.000000 4.448870 
# 
# 
# High freq. dielectric constant tensor:
#      x y z
#    x 1.886340 0.000000 0.000000 
#    y 0.000000 1.862360 0.000000 
#    z 0.000000 0.000000 1.891980 
# 
# From -- ./inp_files/15537.got.cif
#   From: 2010.03.12/outbox.cif.g09.slc.cpg/sg73_8_cif.got.tgz:15537.got - 2010.04.16 15:25:48.
