data_PCOD8296059
_publ_section_title
;
Structure prediction by ZEFSAII (Michael W. Deem and Ramdas Pophale) SiO2 
 PCOD8296059
Probable space group: I B C A 
;
_chemical_formula_sum "Si O2"
_cell_formula_units_Z 88
_cell_length_a 11.587753
_cell_length_b 23.113627
_cell_length_c 13.859459
_cell_angle_alpha 90.000000
_cell_angle_beta 90.000000
_cell_angle_gamma 90.000000
_cell_volume 3712.048210
_symmetry_space_group_name_H-M "I B C A "
_symmetry_group_IT_number 73
_symmetry_cell_setting 'orthorhombic'
loop_
_space_group_symop_operation_xyz
x,y,z
-x,1/2-y,z
x,-y,1/2-z
1/2-x,y,-z
-x,-y,-z
x,1/2+y,-z
-x,y,1/2+z
1/2+x,-y,z
1/2+x,1/2+y,1/2+z
1/2-x,-y,1/2+z
1/2+x,1/2-y,-z
-x,1/2+y,1/2-z
1/2-x,1/2-y,1/2-z
1/2+x,y,1/2-z
1/2-x,1/2+y,z
x,1/2-y,1/2+z
loop_
_atom_site_type_symbol
_atom_site_label
_atom_site_fract_x
_atom_site_fract_y
_atom_site_fract_z
Si Si1 0.250000 0.885682 0.000000
Si Si2 0.271395 0.209967 0.111433
Si Si3 0.790415 0.500000 0.250000
Si Si4 0.054564 0.538947 0.581948
Si Si5 0.500000 0.250000 0.037284
Si Si6 0.368560 0.394306 0.710175
Si Si7 0.615633 0.311953 0.372908
O O1 0.362922 0.921887 0.980614
O O2 0.229457 0.845339 0.908005
O O3 0.274415 0.147136 0.159753
O O4 0.169962 0.249581 0.161066
O O5 0.250000 0.201020 0.000000
O O6 0.398580 0.238089 0.113270
O O7 0.873025 0.500797 0.343554
O O8 0.707034 0.555339 0.241280
O O9 0.000000 0.500000 0.500000
O O10 0.960691 0.578038 0.637453
O O11 0.473012 0.303451 0.962519
O O12 0.435986 0.352643 0.787808
#
# Coordination Sequence:
#
# PCOD8296059 Si02
#       7
#     8  16   8  16   8  16  16
#     4  12  22  50  72  98 154 192 232 322 372 432
#     4  10  23  41  69 102 140 187 234 294 376 449
#     4  12  28  50  70 106 152 180 256 318 364 448
#     4  12  29  47  77 105 143 202 251 305 381 446
#     4  10  20  42  68 106 146 192 238 292 374 474
#     4  12  27  46  70 107 139 196 248 309 376 447
#     4  11  23  44  70 104 147 189 239 302 377 442
#
# _framework density 23.706589999999998
#
# number of rings (size 3 to 8) (size 9 to 14) (size 15 to 20)
#    0.000    0.727    4.545    3.273    5.091    3.636 
#    0.000    0.000    0.000    0.000    0.000    0.000 
#    0.000    0.000    0.000    0.000    0.000    0.000 
#
# Total GULP energy -545196.846050 kJ/mol
# GULP energy per Si atom -12390.837410 kJ/mol
# Density = 2.365263 g / cm^3
# Si number density = 23.706590 Si / 1000 Ang^3
#
#
#
# Elastic Constant Matrix: (Units=GPa)
#
#
# Indices 1 2 3 4 5 6 
#
# 1 77.8260 33.5494 25.7994 -0.0002 0.0000 0.0000
# 2 33.5494 133.8637 51.0967 0.0003 -0.0001 -0.0001
# 3 25.7994 51.0967 87.6064 0.0002 -0.0001 -0.0001
# 4 -0.0002 0.0003 0.0002 47.2632 -0.0001 -0.0001
# 5 0.0000 -0.0001 -0.0001 -0.0001 36.5018 0.0000
# 6 0.0000 -0.0001 -0.0001 -0.0001 0.0000 34.7759
#
#
#
# Elastic Compliance Matrix: (Units=1/GPa)
#
#
# Indices 1 2 3 4 5 6 
#
# 1 0.014939 -0.002656 -0.002850 0.000000 0.000000 0.000000
# 2 -0.002656 0.010082 -0.005098 0.000000 0.000000 0.000000
# 3 -0.002850 -0.005098 0.015228 0.000000 0.000000 0.000000
# 4 0.000000 0.000000 0.000000 0.021158 0.000000 0.000000
# 5 0.000000 0.000000 0.000000 0.000000 0.027396 0.000000
# 6 0.000000 0.000000 0.000000 0.000000 0.000000 0.028756
#
#
# Mechanical properties :
#
#
# Convention : Reuss Voigt Hill
#
# Bulk Modulus (GPa) = 52.52216 57.79858 55.16037
# Shear Modulus (GPa) = 34.45575 36.29822 35.37698
#
# Velocity S-wave (km/s) = 3.81652 3.91723 3.86720
# Velocity P-wave (km/s) = 6.45169 6.70025 6.57714
#
# Compressibility (1/GPa) = 0.01903958
#
# Stress axis : x y z
#
# Youngs Moduli (GPa) = 66.93870 99.18697 65.67032
#
# Poissons Ratio (x) = 0.26345 0.18718
# Poissons Ratio (y) = 0.17780 0.33480
# Poissons Ratio (z) = 0.19079 0.50567
#
# Static dielectric constant tensor:
#      x y z
#    x 4.883540 0.000000 0.000000 
#    y 0.000000 4.646760 0.000000 
#    z 0.000000 0.000000 4.377160 
# 
# 
# High freq. dielectric constant tensor:
#      x y z
#    x 1.937820 0.000000 0.000000 
#    y 0.000000 1.946270 0.000000 
#    z 0.000000 0.000000 1.943890 
# 
# From -- ./inp_files/16152.got.cif
#   From: 2010.03.12/outbox.cif.g09.slc.cpg/sg73_9_cif.got.tgz:16152.got - 2010.04.16 15:25:48.
