data_PCOD8296368
_publ_section_title
;
Structure prediction by ZEFSAII (Michael W. Deem and Ramdas Pophale) SiO2 
 PCOD8296368
Probable space group: I B C A 
;
_chemical_formula_sum "Si O2"
_cell_formula_units_Z 96
_cell_length_a 14.803982
_cell_length_b 14.332914
_cell_length_c 22.273720
_cell_angle_alpha 90.000000
_cell_angle_beta 90.000000
_cell_angle_gamma 90.000000
_cell_volume 4726.131478
_symmetry_space_group_name_H-M "I B C A "
_symmetry_group_IT_number 73
_symmetry_cell_setting 'orthorhombic'
loop_
_space_group_symop_operation_xyz
x,y,z
-x,1/2-y,z
x,-y,1/2-z
1/2-x,y,-z
-x,-y,-z
x,1/2+y,-z
-x,y,1/2+z
1/2+x,-y,z
1/2+x,1/2+y,1/2+z
1/2-x,-y,1/2+z
1/2+x,1/2-y,-z
-x,1/2+y,1/2-z
1/2-x,1/2-y,1/2-z
1/2+x,y,1/2-z
1/2-x,1/2+y,z
x,1/2-y,1/2+z
loop_
_atom_site_type_symbol
_atom_site_label
_atom_site_fract_x
_atom_site_fract_y
_atom_site_fract_z
Si Si1 0.437877 0.660324 0.590667
Si Si2 0.179346 0.586513 0.115047
Si Si3 0.743799 0.278107 0.571886
Si Si4 0.479856 0.502728 0.819902
Si Si5 0.842576 0.459290 0.379211
Si Si6 0.146297 0.526349 0.495914
O O1 0.500000 0.750000 0.580050
O O2 0.337518 0.695462 0.603289
O O3 0.469384 0.597877 0.647495
O O4 0.428187 0.599144 0.529429
O O5 0.215192 0.689995 0.111884
O O6 0.089847 0.579025 0.154962
O O7 0.252479 0.512796 0.142480
O O8 0.153339 0.561416 0.047102
O O9 0.750000 0.256964 0.500000
O O10 0.672170 0.356996 0.591962
O O11 0.460323 0.500000 0.750000
O O12 0.582186 0.540422 0.827944
O O13 0.882503 0.513252 0.438699
O O14 0.250000 0.572780 0.500000
#
# Coordination Sequence:
#
# PCOD8296368 Si02
#       6
#    16  16  16  16  16  16
#     4  11  21  38  63  94 126 159 210 259 318 390
#     4  10  22  39  67  94 129 167 201 259 328 379
#     4  12  20  39  65 101 136 158 198 263 338 406
#     4  11  26  46  61  84 127 173 228 268 300 366
#     4  11  20  41  64  93 131 165 203 262 324 379
#     4   9  16  38  58  92 133 156 186 255 316 396
#
# _framework density 20.312595000000002
#
# number of rings (size 3 to 8) (size 9 to 14) (size 15 to 20)
#    0.000    1.333    6.667    2.500    0.000    5.333 
#    3.000    0.833    0.000    0.000    0.000    0.000 
#    0.000    0.000    0.000    0.000    0.000    0.000 
#
# Total GULP energy -594709.054260 kJ/mol
# GULP energy per Si atom -12389.771964 kJ/mol
# Density = 2.026636 g / cm^3
# Si number density = 20.312595 Si / 1000 Ang^3
#
#
#
# Elastic Constant Matrix: (Units=GPa)
#
#
# Indices 1 2 3 4 5 6 
#
# 1 81.2650 23.1265 23.9560 0.0000 0.0000 0.0000
# 2 23.1265 73.8312 9.4153 0.0000 0.0000 0.0000
# 3 23.9560 9.4153 66.8263 0.0000 0.0000 0.0000
# 4 0.0000 0.0000 0.0000 10.4591 0.0000 0.0000
# 5 0.0000 0.0000 0.0000 0.0000 23.1107 0.0000
# 6 0.0000 0.0000 0.0000 0.0000 0.0000 30.9149
#
#
#
# Elastic Compliance Matrix: (Units=1/GPa)
#
#
# Indices 1 2 3 4 5 6 
#
# 1 0.014860 -0.004048 -0.004757 0.000000 0.000000 0.000000
# 2 -0.004048 0.014895 -0.000647 0.000000 0.000000 0.000000
# 3 -0.004757 -0.000647 0.016761 0.000000 0.000000 0.000000
# 4 0.000000 0.000000 0.000000 0.095610 0.000000 0.000000
# 5 0.000000 0.000000 0.000000 0.000000 0.043270 0.000000
# 6 0.000000 0.000000 0.000000 0.000000 0.000000 0.032347
#
#
# Mechanical properties :
#
#
# Convention : Reuss Voigt Hill
#
# Bulk Modulus (GPa) = 36.21734 37.21313 36.71524
# Shear Modulus (GPa) = 20.33763 23.92528 22.13145
#
# Velocity S-wave (km/s) = 3.16766 3.43571 3.30440
# Velocity P-wave (km/s) = 5.58994 5.83942 5.71604
#
# Compressibility (1/GPa) = 0.02761108
#
# Stress axis : x y z
#
# Youngs Moduli (GPa) = 67.29675 67.13694 59.66399
#
# Poissons Ratio (x) = 0.27177 0.28380
# Poissons Ratio (y) = 0.27241 0.03863
# Poissons Ratio (z) = 0.32010 0.04347
#
# Static dielectric constant tensor:
#      x y z
#    x 3.782470 0.000000 0.000000 
#    y 0.000000 3.721740 0.000000 
#    z 0.000000 0.000000 3.629440 
# 
# 
# High freq. dielectric constant tensor:
#      x y z
#    x 1.800320 0.000000 0.000000 
#    y 0.000000 1.790560 0.000000 
#    z 0.000000 0.000000 1.758260 
# 
# From -- ./inp_files/25969.got.cif
#   From: 2010.03.12/outbox.cif.g09.slc.cpg/sg73_13_cif.got.tgz:25969.got - 2010.04.16 15:25:48.
