data_PCOD8296041
_publ_section_title
;
Structure prediction by ZEFSAII (Michael W. Deem and Ramdas Pophale) SiO2 
 PCOD8296041
Probable space group: I B C A 
;
_chemical_formula_sum "Si O2"
_cell_formula_units_Z 80
_cell_length_a 9.497234
_cell_length_b 16.978484
_cell_length_c 24.420596
_cell_angle_alpha 90.000000
_cell_angle_beta 90.000000
_cell_angle_gamma 90.000000
_cell_volume 3937.787783
_symmetry_space_group_name_H-M "I B C A "
_symmetry_group_IT_number 73
_symmetry_cell_setting 'orthorhombic'
loop_
_space_group_symop_operation_xyz
x,y,z
-x,1/2-y,z
x,-y,1/2-z
1/2-x,y,-z
-x,-y,-z
x,1/2+y,-z
-x,y,1/2+z
1/2+x,-y,z
1/2+x,1/2+y,1/2+z
1/2-x,-y,1/2+z
1/2+x,1/2-y,-z
-x,1/2+y,1/2-z
1/2-x,1/2-y,1/2-z
1/2+x,y,1/2-z
1/2-x,1/2+y,z
x,1/2-y,1/2+z
loop_
_atom_site_type_symbol
_atom_site_label
_atom_site_fract_x
_atom_site_fract_y
_atom_site_fract_z
Si Si1 0.987701 0.910440 0.600110
Si Si2 0.367639 0.306024 0.811468
Si Si3 0.124152 0.196421 0.808591
Si Si4 0.404238 0.818929 0.006142
Si Si5 0.662332 0.066653 0.898305
O O1 0.980094 0.850553 0.549008
O O2 0.830191 0.942249 0.610919
O O3 0.060570 0.867663 0.651101
O O4 0.092493 0.982655 0.592427
O O5 0.500000 0.250000 0.814243
O O6 0.241574 0.252278 0.837042
O O7 0.322330 0.337239 0.750399
O O8 0.396953 0.384082 0.847020
O O9 0.000000 0.250000 0.787679
O O10 0.500000 0.750000 0.031424
O O11 0.250000 0.780453 0.000000
O O12 0.382883 0.891197 0.046338
#
# Coordination Sequence:
#
# PCOD8296041 Si02
#       5
#    16  16  16  16  16
#     4  11  24  40  63  89 129 166 203 259 318 372
#     4  10  22  38  65  93 123 161 215 258 307 376
#     4  10  20  41  64  90 123 166 207 260 311 368
#     4  10  23  41  66  93 121 164 212 259 312 379
#     4  11  24  41  59  93 127 162 208 257 315 377
#
# _framework density 20.315974000000001
#
# number of rings (size 3 to 8) (size 9 to 14) (size 15 to 20)
#    0.000    1.600    2.000    1.800    5.600    2.400 
#    0.000    2.000    0.000    0.000    0.000    0.000 
#    0.000    0.000    0.000    0.000    0.000    0.000 
#
# Total GULP energy -495620.876418 kJ/mol
# GULP energy per Si atom -12390.521910 kJ/mol
# Density = 2.026973 g / cm^3
# Si number density = 20.315974 Si / 1000 Ang^3
#
#
#
# Elastic Constant Matrix: (Units=GPa)
#
#
# Indices 1 2 3 4 5 6 
#
# 1 124.4737 67.2731 39.3788 0.0000 0.0000 0.0000
# 2 67.2731 78.8259 19.8549 0.0000 0.0000 0.0000
# 3 39.3788 19.8549 72.8499 0.0000 0.0000 0.0000
# 4 0.0000 0.0000 0.0000 15.6659 0.0000 0.0000
# 5 0.0000 0.0000 0.0000 0.0000 29.4004 0.0000
# 6 0.0000 0.0000 0.0000 0.0000 0.0000 44.0729
#
#
#
# Elastic Compliance Matrix: (Units=1/GPa)
#
#
# Indices 1 2 3 4 5 6 
#
# 1 0.016767 -0.012913 -0.005544 0.000000 0.000000 0.000000
# 2 -0.012913 0.023566 0.000557 0.000000 0.000000 0.000000
# 3 -0.005544 0.000557 0.016572 0.000000 0.000000 0.000000
# 4 0.000000 0.000000 0.000000 0.063833 0.000000 0.000000
# 5 0.000000 0.000000 0.000000 0.000000 0.034013 0.000000
# 6 0.000000 0.000000 0.000000 0.000000 0.000000 0.022690
#
#
# Mechanical properties :
#
#
# Convention : Reuss Voigt Hill
#
# Bulk Modulus (GPa) = 47.38114 58.79592 53.08853
# Shear Modulus (GPa) = 22.69898 27.80402 25.25150
#
# Velocity S-wave (km/s) = 3.34623 3.70344 3.52936
# Velocity P-wave (km/s) = 6.18889 6.87684 6.54191
#
# Compressibility (1/GPa) = 0.02110545
#
# Stress axis : x y z
#
# Youngs Moduli (GPa) = 59.64259 42.43367 60.34398
#
# Poissons Ratio (x) = 0.54794 0.33453
# Poissons Ratio (y) = 0.77016 -0.03362
# Poissons Ratio (z) = 0.33064 -0.02364
#
# Static dielectric constant tensor:
#      x y z
#    x 4.360700 0.000000 0.000000 
#    y 0.000000 3.380350 0.000000 
#    z 0.000000 0.000000 3.866670 
# 
# 
# High freq. dielectric constant tensor:
#      x y z
#    x 1.809190 0.000000 0.000000 
#    y 0.000000 1.777980 0.000000 
#    z 0.000000 0.000000 1.802250 
# 
# From -- ./inp_files/20743.got.cif
#   From: 2010.03.12/outbox.cif.g09.slc.cpg/sg73_11_cif.got.tgz:20743.got - 2010.04.16 15:25:48.
