data_PCOD8296284
_publ_section_title
;
Structure prediction by ZEFSAII (Michael W. Deem and Ramdas Pophale) SiO2 
 PCOD8296284
Probable space group: I B C A 
;
_chemical_formula_sum "Si O2"
_cell_formula_units_Z 120
_cell_length_a 22.472958
_cell_length_b 24.572525
_cell_length_c 9.880118
_cell_angle_alpha 90.000000
_cell_angle_beta 90.000000
_cell_angle_gamma 90.000000
_cell_volume 5455.972306
_symmetry_space_group_name_H-M "I B C A "
_symmetry_group_IT_number 73
_symmetry_cell_setting 'orthorhombic'
loop_
_space_group_symop_operation_xyz
x,y,z
-x,1/2-y,z
x,-y,1/2-z
1/2-x,y,-z
-x,-y,-z
x,1/2+y,-z
-x,y,1/2+z
1/2+x,-y,z
1/2+x,1/2+y,1/2+z
1/2-x,-y,1/2+z
1/2+x,1/2-y,-z
-x,1/2+y,1/2-z
1/2-x,1/2-y,1/2-z
1/2+x,y,1/2-z
1/2-x,1/2+y,z
x,1/2-y,1/2+z
loop_
_atom_site_type_symbol
_atom_site_label
_atom_site_fract_x
_atom_site_fract_y
_atom_site_fract_z
Si Si1 0.927527 0.685890 0.441887
Si Si2 0.790387 0.088232 0.125117
Si Si3 0.210857 0.500000 0.750000
Si Si4 0.623150 0.479371 0.545343
Si Si5 0.959037 0.458195 0.862049
Si Si6 0.068019 0.617190 0.669201
Si Si7 0.437027 0.306544 0.938734
Si Si8 0.116990 0.134126 0.796066
O O1 0.927940 0.645154 0.314702
O O2 0.906258 0.747750 0.412789
O O3 0.883792 0.662708 0.557270
O O4 0.995030 0.694704 0.489729
O O5 0.749575 0.052892 0.222378
O O6 0.818980 0.136822 0.217577
O O7 0.750000 0.110681 0.000000
O O8 0.846625 0.051829 0.078934
O O9 0.171818 0.482514 0.617672
O O10 0.560984 0.509123 0.499478
O O11 0.609002 0.436155 0.665519
O O12 0.983836 0.500000 0.750000
O O13 0.897879 0.429917 0.813322
O O14 0.003577 0.406883 0.881666
O O15 0.094594 0.659886 0.559384
O O16 0.433204 0.337422 0.796219
#
# Coordination Sequence:
#
# PCOD8296284 Si02
#       8
#    16  16   8  16  16  16  16  16
#     4  11  24  38  64  99 134 170 223 271 318 386
#     4  10  21  43  66  87 120 171 221 276 330 380
#     4  10  24  42  62  92 118 168 230 278 310 384
#     4  11  24  39  63  90 133 176 217 260 322 395
#     4  12  23  37  60  92 139 179 206 254 308 404
#     4  12  24  39  61 100 138 179 214 254 322 400
#     4  11  21  43  63  92 134 179 219 265 321 396
#     4  12  22  40  67  93 127 177 218 267 328 391
#
# _framework density 21.994244999999999
#
# number of rings (size 3 to 8) (size 9 to 14) (size 15 to 20)
#    0.000    0.800    5.333    2.000    2.800    2.133 
#    0.000    0.000    0.000    0.800    0.000    0.000 
#    0.000    0.000    0.000    0.000    0.000    0.000 
#
# Total GULP energy -743429.463250 kJ/mol
# GULP energy per Si atom -12390.491054 kJ/mol
# Density = 2.194419 g / cm^3
# Si number density = 21.994245 Si / 1000 Ang^3
#
#
#
# Elastic Constant Matrix: (Units=GPa)
#
#
# Indices 1 2 3 4 5 6 
#
# 1 72.0600 29.8536 38.3778 0.0000 0.0000 0.0000
# 2 29.8536 123.7014 65.0129 0.0000 0.0000 0.0000
# 3 38.3778 65.0129 139.5104 0.0000 0.0000 0.0000
# 4 0.0000 0.0000 0.0000 28.0388 0.0000 0.0000
# 5 0.0000 0.0000 0.0000 0.0000 38.2179 0.0000
# 6 0.0000 0.0000 0.0000 0.0000 0.0000 17.8955
#
#
#
# Elastic Compliance Matrix: (Units=1/GPa)
#
#
# Indices 1 2 3 4 5 6 
#
# 1 0.016675 -0.002137 -0.003591 0.000000 0.000000 0.000000
# 2 -0.002137 0.010980 -0.004529 0.000000 0.000000 0.000000
# 3 -0.003591 -0.004529 0.010266 0.000000 0.000000 0.000000
# 4 0.000000 0.000000 0.000000 0.035665 0.000000 0.000000
# 5 0.000000 0.000000 0.000000 0.000000 0.026166 0.000000
# 6 0.000000 0.000000 0.000000 0.000000 0.000000 0.055880
#
#
# Mechanical properties :
#
#
# Convention : Reuss Voigt Hill
#
# Bulk Modulus (GPa) = 57.44716 66.86227 62.15471
# Shear Modulus (GPa) = 27.48024 30.29894 28.88959
#
# Velocity S-wave (km/s) = 3.53856 3.71561 3.62817
# Velocity P-wave (km/s) = 6.54760 6.99096 6.77291
#
# Compressibility (1/GPa) = 0.01740730
#
# Stress axis : x y z
#
# Youngs Moduli (GPa) = 59.96885 91.07557 97.40536
#
# Poissons Ratio (x) = 0.19461 0.34982
# Poissons Ratio (y) = 0.12814 0.44114
# Poissons Ratio (z) = 0.21537 0.41247
#
# Static dielectric constant tensor:
#      x y z
#    x 3.922680 0.000000 0.000000 
#    y 0.000000 4.065420 0.000000 
#    z 0.000000 0.000000 3.905380 
# 
# 
# High freq. dielectric constant tensor:
#      x y z
#    x 1.835150 0.000000 0.000000 
#    y 0.000000 1.853230 0.000000 
#    z 0.000000 0.000000 1.874670 
# 
# From -- ./inp_files/7366.got.cif
#   From: 2010.03.12/outbox.cif.g09.slc.cpg/sg73_4_cif.got.tgz:7366.got - 2010.04.16 15:25:48.
