data_PCOD8296443
_publ_section_title
;
Structure prediction by ZEFSAII (Michael W. Deem and Ramdas Pophale) SiO2 
 PCOD8296443
Probable space group: I B C A 
;
_chemical_formula_sum "Si O2"
_cell_formula_units_Z 96
_cell_length_a 16.393851
_cell_length_b 13.757446
_cell_length_c 18.522809
_cell_angle_alpha 90.000000
_cell_angle_beta 90.000000
_cell_angle_gamma 90.000000
_cell_volume 4177.588403
_symmetry_space_group_name_H-M "I B C A "
_symmetry_group_IT_number 73
_symmetry_cell_setting 'orthorhombic'
loop_
_space_group_symop_operation_xyz
x,y,z
-x,1/2-y,z
x,-y,1/2-z
1/2-x,y,-z
-x,-y,-z
x,1/2+y,-z
-x,y,1/2+z
1/2+x,-y,z
1/2+x,1/2+y,1/2+z
1/2-x,-y,1/2+z
1/2+x,1/2-y,-z
-x,1/2+y,1/2-z
1/2-x,1/2-y,1/2-z
1/2+x,y,1/2-z
1/2-x,1/2+y,z
x,1/2-y,1/2+z
loop_
_atom_site_type_symbol
_atom_site_label
_atom_site_fract_x
_atom_site_fract_y
_atom_site_fract_z
Si Si1 0.253036 0.173140 0.343971
Si Si2 0.116145 0.878659 0.954346
Si Si3 0.593485 0.236197 0.097099
Si Si4 0.000000 0.250000 0.640497
Si Si5 0.654772 0.910100 0.992048
Si Si6 0.854195 0.644474 0.345380
Si Si7 0.274919 0.000000 0.750000
O O1 0.293636 0.145871 0.421692
O O2 0.154261 0.184372 0.345390
O O3 0.284899 0.279154 0.321325
O O4 0.277027 0.087277 0.286720
O O5 0.048602 0.833918 0.902186
O O6 0.095037 0.834831 0.030524
O O7 0.107064 0.993608 0.967706
O O8 0.500000 0.250000 0.125514
O O9 0.635585 0.336920 0.073033
O O10 0.062990 0.311471 0.689094
O O11 0.627298 0.863657 0.068572
O O12 0.750000 0.932767 0.000000
O O13 0.832103 0.540166 0.313996
#
# Coordination Sequence:
#
# PCOD8296443 Si02
#       7
#    16  16  16   8  16  16   8
#     4  11  24  44  67  95 137 177 227 281 332 401
#     4  11  21  40  66 100 137 170 220 268 346 412
#     4  12  22  39  65 103 140 167 209 283 352 411
#     4  10  22  42  62  94 136 182 204 290 342 392
#     4  12  21  37  70 100 132 175 215 277 352 408
#     4  11  23  44  67  93 137 172 227 275 339 390
#     4  12  26  44  70  94 124 190 238 278 314 414
#
# _framework density 22.979765
#
# number of rings (size 3 to 8) (size 9 to 14) (size 15 to 20)
#    0.000    0.667    5.833    4.000    0.000    4.000 
#    1.500    3.333    0.000    0.000    0.000    0.000 
#    0.000    0.000    0.000    0.000    0.000    0.000 
#
# Total GULP energy -594720.066968 kJ/mol
# GULP energy per Si atom -12390.001395 kJ/mol
# Density = 2.292746 g / cm^3
# Si number density = 22.979765 Si / 1000 Ang^3
#
#
#
# Elastic Constant Matrix: (Units=GPa)
#
#
# Indices 1 2 3 4 5 6 
#
# 1 121.9127 11.6239 14.6484 0.0000 0.0000 0.0000
# 2 11.6239 134.8072 14.6068 0.0000 0.0000 0.0000
# 3 14.6484 14.6068 29.8990 0.0000 0.0000 0.0000
# 4 0.0000 0.0000 0.0000 -19.3973 0.0000 0.0000
# 5 0.0000 0.0000 0.0000 0.0000 31.0629 0.0000
# 6 0.0000 0.0000 0.0000 0.0000 0.0000 24.4305
#
#
#
# Elastic Compliance Matrix: (Units=1/GPa)
#
#
# Indices 1 2 3 4 5 6 
#
# 1 0.008728 -0.000305 -0.004127 0.000000 0.000000 0.000000
# 2 -0.000305 0.007843 -0.003682 0.000000 0.000000 0.000000
# 3 -0.004127 -0.003682 0.037267 0.000000 0.000000 0.000000
# 4 0.000000 0.000000 0.000000 -0.051553 0.000000 0.000000
# 5 0.000000 0.000000 0.000000 0.000000 0.032193 0.000000
# 6 0.000000 0.000000 0.000000 0.000000 0.000000 0.040933
#
#
# Mechanical properties :
#
#
# Convention : Reuss Voigt Hill
#
# Bulk Modulus (GPa) = 26.58941 40.93081 33.76011
# Shear Modulus (GPa) = 47.99667 23.60186 35.79927
#
# Velocity S-wave (km/s) = 4.57513 3.20827 3.95126
# Velocity P-wave (km/s) = 6.28530 5.61911 5.96152
#
# Compressibility (1/GPa) = 0.03760896
#
# Stress axis : x y z
#
# Youngs Moduli (GPa) = 114.57976 127.49725 26.83374
#
# Poissons Ratio (x) = 0.03894 0.11073
# Poissons Ratio (y) = 0.03499 0.09881
# Poissons Ratio (z) = 0.47283 0.46946
#
# Static dielectric constant tensor:
#      x y z
#    x 4.016520 0.000000 0.000000 
#    y 0.000000 4.834200 0.000000 
#    z 0.000000 0.000000 4.032240 
# 
# 
# High freq. dielectric constant tensor:
#      x y z
#    x 1.900970 0.000000 0.000000 
#    y 0.000000 1.930240 0.000000 
#    z 0.000000 0.000000 1.878480 
# 
# From -- ./inp_files/26031.got.cif
#   From: 2010.03.12/outbox.cif.g09.slc.cpg/sg73_14_cif.got.tgz:26031.got - 2010.04.16 15:25:48.
