data_PCOD8296358
_publ_section_title
;
Structure prediction by ZEFSAII (Michael W. Deem and Ramdas Pophale) SiO2 
 PCOD8296358
Probable space group: I B C A 
;
_chemical_formula_sum "Si O2"
_cell_formula_units_Z 96
_cell_length_a 13.274482
_cell_length_b 17.102295
_cell_length_c 20.760478
_cell_angle_alpha 90.000000
_cell_angle_beta 90.000000
_cell_angle_gamma 90.000000
_cell_volume 4713.128982
_symmetry_space_group_name_H-M "I B C A "
_symmetry_group_IT_number 73
_symmetry_cell_setting 'orthorhombic'
loop_
_space_group_symop_operation_xyz
x,y,z
-x,1/2-y,z
x,-y,1/2-z
1/2-x,y,-z
-x,-y,-z
x,1/2+y,-z
-x,y,1/2+z
1/2+x,-y,z
1/2+x,1/2+y,1/2+z
1/2-x,-y,1/2+z
1/2+x,1/2-y,-z
-x,1/2+y,1/2-z
1/2-x,1/2-y,1/2-z
1/2+x,y,1/2-z
1/2-x,1/2+y,z
x,1/2-y,1/2+z
loop_
_atom_site_type_symbol
_atom_site_label
_atom_site_fract_x
_atom_site_fract_y
_atom_site_fract_z
Si Si1 0.601097 0.295072 0.280785
Si Si2 0.388729 0.588986 0.609807
Si Si3 0.199248 0.678025 0.564022
Si Si4 0.316491 0.430326 0.561234
Si Si5 0.000952 0.657727 0.503629
Si Si6 0.267585 0.193296 0.157641
O O1 0.500000 0.250000 0.259772
O O2 0.582874 0.376108 0.319996
O O3 0.663874 0.323644 0.219367
O O4 0.660793 0.231008 0.323380
O O5 0.276559 0.616404 0.592702
O O6 0.378502 0.495968 0.600814
O O7 0.479575 0.618018 0.565016
O O8 0.250000 0.715936 0.500000
O O9 0.095009 0.633422 0.549049
O O10 0.171818 0.745244 0.614190
O O11 0.250000 0.461069 0.500000
O O12 0.397037 0.369714 0.533205
O O13 0.249450 0.384928 0.614990
O O14 0.000000 0.750000 0.492881
#
# Coordination Sequence:
#
# PCOD8296358 Si02
#       6
#    16  16  16  16  16  16
#     4  10  23  42  68  89 120 167 216 256 302 368
#     4  10  23  40  59  87 130 159 199 260 312 369
#     4   9  18  37  59  88 120 158 195 257 306 361
#     4  12  25  38  61  96 129 162 205 258 323 379
#     4  11  21  34  63  91 120 163 201 248 311 375
#     4  10  22  39  64  92 121 159 215 253 303 370
#
# _framework density 20.368634
#
# number of rings (size 3 to 8) (size 9 to 14) (size 15 to 20)
#    0.000    1.667    1.667    3.000    9.333    0.667 
#    0.000    0.000    0.000    2.000    0.000    0.000 
#    0.000    0.000    0.000    0.000    0.000    0.000 
#
# Total GULP energy -594931.779072 kJ/mol
# GULP energy per Si atom -12394.412064 kJ/mol
# Density = 2.032227 g / cm^3
# Si number density = 20.368634 Si / 1000 Ang^3
#
#
#
# Elastic Constant Matrix: (Units=GPa)
#
#
# Indices 1 2 3 4 5 6 
#
# 1 59.1110 4.1353 1.9008 0.0000 0.0000 0.0000
# 2 4.1353 98.6590 27.3404 0.0000 0.0000 0.0000
# 3 1.9008 27.3404 86.9556 0.0000 0.0000 0.0000
# 4 0.0000 0.0000 0.0000 16.6629 0.0000 0.0000
# 5 0.0000 0.0000 0.0000 0.0000 22.9166 0.0000
# 6 0.0000 0.0000 0.0000 0.0000 0.0000 20.5795
#
#
#
# Elastic Compliance Matrix: (Units=1/GPa)
#
#
# Indices 1 2 3 4 5 6 
#
# 1 0.016969 -0.000667 -0.000161 0.000000 0.000000 0.000000
# 2 -0.000667 0.011130 -0.003485 0.000000 0.000000 0.000000
# 3 -0.000161 -0.003485 0.012599 0.000000 0.000000 0.000000
# 4 0.000000 0.000000 0.000000 0.060014 0.000000 0.000000
# 5 0.000000 0.000000 0.000000 0.000000 0.043636 0.000000
# 6 0.000000 0.000000 0.000000 0.000000 0.000000 0.048592
#
#
# Mechanical properties :
#
#
# Convention : Reuss Voigt Hill
#
# Bulk Modulus (GPa) = 31.17920 34.60874 32.89397
# Shear Modulus (GPa) = 23.55641 26.12174 24.83907
#
# Velocity S-wave (km/s) = 3.40443 3.58501 3.49589
# Velocity P-wave (km/s) = 5.54925 5.84504 5.69907
#
# Compressibility (1/GPa) = 0.03207266
#
# Stress axis : x y z
#
# Youngs Moduli (GPa) = 58.93053 89.85083 79.36932
#
# Poissons Ratio (x) = 0.05989 0.01281
# Poissons Ratio (y) = 0.03928 0.27658
# Poissons Ratio (z) = 0.00951 0.31311
#
# Static dielectric constant tensor:
#      x y z
#    x 3.797360 0.000000 0.000000 
#    y 0.000000 3.556580 0.000000 
#    z 0.000000 0.000000 3.820900 
# 
# 
# High freq. dielectric constant tensor:
#      x y z
#    x 1.794890 0.000000 0.000000 
#    y 0.000000 1.780580 0.000000 
#    z 0.000000 0.000000 1.792640 
# 
# From -- ./inp_files/25993.got.cif
#   From: 2010.03.12/outbox.cif.g09.slc.cpg/sg73_13_cif.got.tgz:25993.got - 2010.04.16 15:25:48.
