data_PCOD8296971
_publ_section_title
;
Structure prediction by ZEFSAII (Michael W. Deem and Ramdas Pophale) SiO2 
 PCOD8296971
Probable space group: I B C A 
;
_chemical_formula_sum "Si O2"
_cell_formula_units_Z 80
_cell_length_a 17.993605
_cell_length_b 14.511231
_cell_length_c 13.057351
_cell_angle_alpha 90.000000
_cell_angle_beta 90.000000
_cell_angle_gamma 90.000000
_cell_volume 3409.396546
_symmetry_space_group_name_H-M "I B C A "
_symmetry_group_IT_number 73
_symmetry_cell_setting 'orthorhombic'
loop_
_space_group_symop_operation_xyz
x,y,z
-x,1/2-y,z
x,-y,1/2-z
1/2-x,y,-z
-x,-y,-z
x,1/2+y,-z
-x,y,1/2+z
1/2+x,-y,z
1/2+x,1/2+y,1/2+z
1/2-x,-y,1/2+z
1/2+x,1/2-y,-z
-x,1/2+y,1/2-z
1/2-x,1/2-y,1/2-z
1/2+x,y,1/2-z
1/2-x,1/2+y,z
x,1/2-y,1/2+z
loop_
_atom_site_type_symbol
_atom_site_label
_atom_site_fract_x
_atom_site_fract_y
_atom_site_fract_z
Si Si1 0.672672 0.946005 0.037956
Si Si2 0.676853 0.714921 0.692687
Si Si3 0.410189 0.110857 0.635822
Si Si4 0.564719 0.177714 0.925360
Si Si5 0.935086 0.978284 0.139975
O O1 0.692012 0.850554 0.095150
O O2 0.635100 0.017476 0.115203
O O3 0.750000 0.989956 0.000000
O O4 0.621500 0.928110 0.937650
O O5 0.750000 0.750000 0.750000
O O6 0.623419 0.660298 0.767389
O O7 0.633304 0.804360 0.651137
O O8 0.406097 0.182795 0.541779
O O9 0.504385 0.411897 0.661136
O O10 0.500000 0.250000 0.903973
O O11 0.535184 0.073542 0.910439
O O12 0.896632 0.000000 0.250000
#
# Coordination Sequence:
#
# PCOD8296971 Si02
#       5
#    16  16  16  16  16
#     4  11  26  45  75 100 146 192 244 297 367 450
#     4  12  29  45  71 108 152 191 243 308 382 440
#     4  11  25  48  73 100 148 192 248 300 370 450
#     4  11  24  43  73 108 143 184 243 312 370 434
#     4  11  24  45  77 105 138 192 250 297 369 454
#
# _framework density 23.464561
#
# number of rings (size 3 to 8) (size 9 to 14) (size 15 to 20)
#    0.000    0.800    0.000    7.800   11.200    2.400 
#    0.000    0.000    0.000    0.000    0.000    0.000 
#    0.000    0.000    0.000    0.000    0.000    0.000 
#
# Total GULP energy -496177.756733 kJ/mol
# GULP energy per Si atom -12404.443918 kJ/mol
# Density = 2.341115 g / cm^3
# Si number density = 23.464561 Si / 1000 Ang^3
#
#
#
# Elastic Constant Matrix: (Units=GPa)
#
#
# Indices 1 2 3 4 5 6 
#
# 1 142.1871 51.7061 53.1842 0.0000 0.0000 0.0000
# 2 51.7061 88.2996 41.5378 0.0000 0.0000 0.0000
# 3 53.1842 41.5378 148.9129 0.0000 0.0000 0.0000
# 4 0.0000 0.0000 0.0000 38.6752 0.0000 0.0000
# 5 0.0000 0.0000 0.0000 0.0000 38.9828 0.0000
# 6 0.0000 0.0000 0.0000 0.0000 0.0000 19.6745
#
#
#
# Elastic Compliance Matrix: (Units=1/GPa)
#
#
# Indices 1 2 3 4 5 6 
#
# 1 0.009481 -0.004557 -0.002115 0.000000 0.000000 0.000000
# 2 -0.004557 0.015226 -0.002620 0.000000 0.000000 0.000000
# 3 -0.002115 -0.002620 0.008201 0.000000 0.000000 0.000000
# 4 0.000000 0.000000 0.000000 0.025856 0.000000 0.000000
# 5 0.000000 0.000000 0.000000 0.000000 0.025652 0.000000
# 6 0.000000 0.000000 0.000000 0.000000 0.000000 0.050827
#
#
# Mechanical properties :
#
#
# Convention : Reuss Voigt Hill
#
# Bulk Modulus (GPa) = 69.80701 74.69508 72.25104
# Shear Modulus (GPa) = 31.52528 34.99794 33.26161
#
# Velocity S-wave (km/s) = 3.66939 3.86621 3.76909
# Velocity P-wave (km/s) = 6.91138 7.19947 7.05690
#
# Compressibility (1/GPa) = 0.01432521
#
# Stress axis : x y z
#
# Youngs Moduli (GPa) = 105.47095 65.67776 121.92975
#
# Poissons Ratio (x) = 0.29930 0.25789
# Poissons Ratio (y) = 0.48063 0.31940
# Poissons Ratio (z) = 0.22308 0.17205
#
# Static dielectric constant tensor:
#      x y z
#    x 4.133720 0.000000 0.000000 
#    y 0.000000 4.136810 0.000000 
#    z 0.000000 0.000000 4.540440 
# 
# 
# High freq. dielectric constant tensor:
#      x y z
#    x 1.922230 0.000000 0.000000 
#    y 0.000000 1.924480 0.000000 
#    z 0.000000 0.000000 1.953510 
# 
# From -- ./inp_files/19185.got.cif
#   From: 2010.03.12/outbox.cif.g09.slc.cpg/sg73_10_cif.got.tgz:19185.got - 2010.04.16 15:25:48.
