data_PCOD8296592
_publ_section_title
;
Structure prediction by ZEFSAII (Michael W. Deem and Ramdas Pophale) SiO2 
 PCOD8296592
Probable space group: I B C A 
;
_chemical_formula_sum "Si O2"
_cell_formula_units_Z 72
_cell_length_a 13.670705
_cell_length_b 9.974364
_cell_length_c 23.889079
_cell_angle_alpha 90.000000
_cell_angle_beta 90.000000
_cell_angle_gamma 90.000000
_cell_volume 3257.433298
_symmetry_space_group_name_H-M "I B C A "
_symmetry_group_IT_number 73
_symmetry_cell_setting 'orthorhombic'
loop_
_space_group_symop_operation_xyz
x,y,z
-x,1/2-y,z
x,-y,1/2-z
1/2-x,y,-z
-x,-y,-z
x,1/2+y,-z
-x,y,1/2+z
1/2+x,-y,z
1/2+x,1/2+y,1/2+z
1/2-x,-y,1/2+z
1/2+x,1/2-y,-z
-x,1/2+y,1/2-z
1/2-x,1/2-y,1/2-z
1/2+x,y,1/2-z
1/2-x,1/2+y,z
x,1/2-y,1/2+z
loop_
_atom_site_type_symbol
_atom_site_label
_atom_site_fract_x
_atom_site_fract_y
_atom_site_fract_z
Si Si1 0.700457 0.309756 0.117215
Si Si2 0.447543 0.111371 0.463309
Si Si3 0.850771 0.411168 0.646589
Si Si4 0.750000 0.784662 0.500000
Si Si5 0.459560 0.000000 0.250000
Si Si6 0.000000 0.250000 0.321029
O O1 0.720177 0.462048 0.135765
O O2 0.788280 0.223448 0.142538
O O3 0.594551 0.263712 0.139464
O O4 0.705620 0.305810 0.049771
O O5 0.500000 0.250000 0.475926
O O6 0.443972 0.081284 0.396621
O O7 0.333887 0.116446 0.478970
O O8 0.500000 0.000000 0.500000
O O9 0.892188 0.413693 0.708732
O O10 0.518961 0.114926 0.216057
#
# Coordination Sequence:
#
# PCOD8296592 Si02
#       6
#    16  16  16   8   8   8
#     4  10  23  43  65  98 134 178 229 286 344 419
#     4  11  25  42  69  99 138 180 226 288 348 423
#     4  10  24  43  65  99 131 180 232 280 347 410
#     4  10  24  42  66 100 134 180 224 280 348 422
#     4  10  24  42  66 100 134 180 238 280 346 418
#     4  10  24  42  68  96 136 182 230 290 350 414
#
# _framework density 22.103293000000001
#
# number of rings (size 3 to 8) (size 9 to 14) (size 15 to 20)
#    0.000    1.778    0.000    1.333    9.333   17.778 
#    0.000    0.000    0.000    0.000    0.000    0.000 
#    0.000    0.000    0.000    0.000    0.000    0.000 
#
# Total GULP energy -446296.137065 kJ/mol
# GULP energy per Si atom -12397.114918 kJ/mol
# Density = 2.205298 g / cm^3
# Si number density = 22.103293 Si / 1000 Ang^3
#
#
#
# Elastic Constant Matrix: (Units=GPa)
#
#
# Indices 1 2 3 4 5 6 
#
# 1 87.5646 33.7557 42.9071 0.0000 0.0000 0.0000
# 2 33.7557 135.8172 33.5827 0.0000 0.0000 0.0000
# 3 42.9071 33.5827 132.8347 0.0000 0.0000 0.0000
# 4 0.0000 0.0000 0.0000 26.7186 0.0000 0.0000
# 5 0.0000 0.0000 0.0000 0.0000 32.3048 0.0000
# 6 0.0000 0.0000 0.0000 0.0000 0.0000 24.7431
#
#
#
# Elastic Compliance Matrix: (Units=1/GPa)
#
#
# Indices 1 2 3 4 5 6 
#
# 1 0.014371 -0.002586 -0.003988 0.000000 0.000000 0.000000
# 2 -0.002586 0.008319 -0.001268 0.000000 0.000000 0.000000
# 3 -0.003988 -0.001268 0.009137 0.000000 0.000000 0.000000
# 4 0.000000 0.000000 0.000000 0.037427 0.000000 0.000000
# 5 0.000000 0.000000 0.000000 0.000000 0.030955 0.000000
# 6 0.000000 0.000000 0.000000 0.000000 0.000000 0.040415
#
#
# Mechanical properties :
#
#
# Convention : Reuss Voigt Hill
#
# Bulk Modulus (GPa) = 61.94540 64.07862 63.01201
# Shear Modulus (GPa) = 30.92341 33.15137 32.03739
#
# Velocity S-wave (km/s) = 3.74443 3.87698 3.81128
# Velocity P-wave (km/s) = 6.83964 7.00676 6.92370
#
# Compressibility (1/GPa) = 0.01614325
#
# Stress axis : x y z
#
# Youngs Moduli (GPa) = 69.58363 120.20698 109.44498
#
# Poissons Ratio (x) = 0.31081 0.43651
# Poissons Ratio (y) = 0.17992 0.13878
# Poissons Ratio (z) = 0.27753 0.15242
#
# Static dielectric constant tensor:
#      x y z
#    x 3.709900 0.000000 0.000000 
#    y 0.000000 3.877280 0.000000 
#    z 0.000000 0.000000 4.431730 
# 
# 
# High freq. dielectric constant tensor:
#      x y z
#    x 1.852030 0.000000 0.000000 
#    y 0.000000 1.881700 0.000000 
#    z 0.000000 0.000000 1.887180 
# 
# From -- ./inp_files/4863.got.cif
#   From: 2010.03.12/outbox.cif.g09.slc.cpg/sg73_3_cif.got.tgz:4863.got - 2010.04.16 15:25:48.
