data_PCOD8296426
_publ_section_title
;
Structure prediction by ZEFSAII (Michael W. Deem and Ramdas Pophale) SiO2 
 PCOD8296426
Probable space group: I B C A 
;
_chemical_formula_sum "Si O2"
_cell_formula_units_Z 104
_cell_length_a 9.523208
_cell_length_b 25.488036
_cell_length_c 20.739826
_cell_angle_alpha 90.000000
_cell_angle_beta 90.000000
_cell_angle_gamma 90.000000
_cell_volume 5034.133755
_symmetry_space_group_name_H-M "I B C A "
_symmetry_group_IT_number 73
_symmetry_cell_setting 'orthorhombic'
loop_
_space_group_symop_operation_xyz
x,y,z
-x,1/2-y,z
x,-y,1/2-z
1/2-x,y,-z
-x,-y,-z
x,1/2+y,-z
-x,y,1/2+z
1/2+x,-y,z
1/2+x,1/2+y,1/2+z
1/2-x,-y,1/2+z
1/2+x,1/2-y,-z
-x,1/2+y,1/2-z
1/2-x,1/2-y,1/2-z
1/2+x,y,1/2-z
1/2-x,1/2+y,z
x,1/2-y,1/2+z
loop_
_atom_site_type_symbol
_atom_site_label
_atom_site_fract_x
_atom_site_fract_y
_atom_site_fract_z
Si Si1 0.803771 0.153187 0.805130
Si Si2 0.683999 0.046032 0.127193
Si Si3 0.750000 0.899672 0.500000
Si Si4 0.802209 0.198798 0.567560
Si Si5 0.604262 0.527280 0.319486
Si Si6 0.382594 0.186222 0.418745
Si Si7 0.369423 0.651412 0.818742
O O1 0.782150 0.092308 0.822276
O O2 0.713315 0.185779 0.855574
O O3 0.737108 0.168617 0.737013
O O4 0.969030 0.168407 0.805920
O O5 0.548686 0.016402 0.153218
O O6 0.802291 0.002265 0.128243
O O7 0.668469 0.066072 0.053677
O O8 0.637148 0.862783 0.534046
O O9 0.750000 0.173230 0.500000
O O10 0.830561 0.259709 0.550107
O O11 0.681316 0.182576 0.618004
O O12 0.951886 0.180032 0.596171
O O13 0.623222 0.500000 0.250000
O O14 0.640875 0.588594 0.322970
#
# Coordination Sequence:
#
# PCOD8296426 Si02
#       7
#    16  16   8  16  16  16  16
#     4  10  22  41  66  95 126 173 209 279 322 391
#     4  10  23  38  64  89 128 166 214 261 322 386
#     4  10  22  44  64  92 122 172 212 262 330 380
#     4  11  25  41  66  99 127 175 215 266 323 398
#     4  11  22  39  62  94 128 171 214 269 322 387
#     4  10  23  43  68  89 133 168 218 264 330 389
#     4  11  24  40  66  97 131 165 224 265 331 386
#
# _framework density 20.658967000000001
#
# number of rings (size 3 to 8) (size 9 to 14) (size 15 to 20)
#    0.000    1.538    2.308    1.385    8.615    4.308 
#    1.385    0.000    0.000    0.000    0.000    0.000 
#    0.000    0.000    0.000    0.000    0.000    0.000 
#
# Total GULP energy -644411.498452 kJ/mol
# GULP energy per Si atom -12392.528816 kJ/mol
# Density = 2.061195 g / cm^3
# Si number density = 20.658967 Si / 1000 Ang^3
#
#
#
# Elastic Constant Matrix: (Units=GPa)
#
#
# Indices 1 2 3 4 5 6 
#
# 1 135.4743 31.8719 56.6996 0.0000 0.0000 0.0000
# 2 31.8719 48.3681 23.8671 0.0000 0.0000 0.0000
# 3 56.6996 23.8671 135.2421 -0.0001 0.0000 0.0000
# 4 0.0000 0.0000 -0.0001 -7.1742 0.0000 0.0000
# 5 0.0000 0.0000 0.0000 0.0000 22.4544 0.0000
# 6 0.0000 0.0000 0.0000 0.0000 0.0000 34.0961
#
#
#
# Elastic Compliance Matrix: (Units=1/GPa)
#
#
# Indices 1 2 3 4 5 6 
#
# 1 0.009913 -0.004909 -0.003290 0.000000 0.000000 0.000000
# 2 -0.004909 0.025078 -0.002368 0.000000 0.000000 0.000000
# 3 -0.003290 -0.002368 0.009191 0.000000 0.000000 0.000000
# 4 0.000000 0.000000 0.000000 -0.139389 0.000000 0.000000
# 5 0.000000 0.000000 0.000000 0.000000 0.044535 0.000000
# 6 0.000000 0.000000 0.000000 0.000000 0.000000 0.029329
#
#
# Mechanical properties :
#
#
# Convention : Reuss Voigt Hill
#
# Bulk Modulus (GPa) = 43.38467 60.44018 51.91242
# Shear Modulus (GPa) = 669.15208 23.65168 346.40188
#
# Velocity S-wave (km/s) = 18.01686 3.38725 12.96304
# Velocity P-wave (km/s) = 21.30388 6.67964 15.78723
#
# Compressibility (1/GPa) = 0.02304962
#
# Stress axis : x y z
#
# Youngs Moduli (GPa) = 100.87555 39.87590 108.79992
#
# Poissons Ratio (x) = 0.19575 0.35792
# Poissons Ratio (y) = 0.49519 0.25759
# Poissons Ratio (z) = 0.33186 0.09441
#
# Static dielectric constant tensor:
#      x y z
#    x 3.871730 0.000000 0.000000 
#    y 0.000000 3.663400 0.000000 
#    z 0.000000 0.000000 3.926070 
# 
# 
# High freq. dielectric constant tensor:
#      x y z
#    x 1.819020 0.000000 0.000000 
#    y 0.000000 1.800920 0.000000 
#    z 0.000000 0.000000 1.808510 
# 
# From -- ./inp_files/24958.got.cif
#   From: 2010.03.12/outbox.cif.g09.slc.cpg/sg73_13_cif.got.tgz:24958.got - 2010.04.16 15:25:48.
