data_PCOD8296685
_publ_section_title
;
Structure prediction by ZEFSAII (Michael W. Deem and Ramdas Pophale) SiO2 
 PCOD8296685
Probable space group: I B C A 
;
_chemical_formula_sum "Si O2"
_cell_formula_units_Z 64
_cell_length_a 12.046906
_cell_length_b 8.894859
_cell_length_c 27.700850
_cell_angle_alpha 90.000000
_cell_angle_beta 90.000000
_cell_angle_gamma 90.000000
_cell_volume 2968.299270
_symmetry_space_group_name_H-M "I B C A "
_symmetry_group_IT_number 73
_symmetry_cell_setting 'orthorhombic'
loop_
_space_group_symop_operation_xyz
x,y,z
-x,1/2-y,z
x,-y,1/2-z
1/2-x,y,-z
-x,-y,-z
x,1/2+y,-z
-x,y,1/2+z
1/2+x,-y,z
1/2+x,1/2+y,1/2+z
1/2-x,-y,1/2+z
1/2+x,1/2-y,-z
-x,1/2+y,1/2-z
1/2-x,1/2-y,1/2-z
1/2+x,y,1/2-z
1/2-x,1/2+y,z
x,1/2-y,1/2+z
loop_
_atom_site_type_symbol
_atom_site_label
_atom_site_fract_x
_atom_site_fract_y
_atom_site_fract_z
Si Si1 0.000000 0.750000 0.018065
Si Si2 0.243122 0.500000 0.250000
Si Si3 0.126528 0.246880 0.805881
Si Si4 0.885590 0.306899 0.073501
Si Si5 0.171979 0.871393 0.091206
O O1 0.922158 0.648397 0.050976
O O2 0.918568 0.846532 0.982387
O O3 0.316408 0.378269 0.223503
O O4 0.170699 0.582550 0.209002
O O5 0.142733 0.271964 0.862551
O O6 0.000000 0.250000 0.791099
O O7 0.832539 0.449408 0.101297
O O8 0.794956 0.173001 0.073484
O O9 0.000000 0.250000 0.100010
#
# Coordination Sequence:
#
# PCOD8296685 Si02
#       5
#     8   8  16  16  16
#     4  10  24  42  68  92 140 182 228 280 328 390
#     4  10  24  44  66 102 128 168 212 270 348 394
#     4  11  23  43  71  97 132 169 215 275 328 408
#     4  10  27  41  65  96 139 183 227 279 328 397
#     4  12  23  44  68  99 133 182 230 274 337 399
#
# _framework density 21.561167000000001
#
# number of rings (size 3 to 8) (size 9 to 14) (size 15 to 20)
#    0.750    0.500    1.250    3.750    3.500    4.000 
#    0.000    6.250    0.000    0.000    0.000    0.000 
#    0.000    0.000    0.000    0.000    0.000    0.000 
#
# Total GULP energy -396641.122322 kJ/mol
# GULP energy per Si atom -12395.035073 kJ/mol
# Density = 2.151209 g / cm^3
# Si number density = 21.561167 Si / 1000 Ang^3
#
#
#
# Elastic Constant Matrix: (Units=GPa)
#
#
# Indices 1 2 3 4 5 6 
#
# 1 174.2106 75.3929 35.9848 0.0000 0.0000 0.0000
# 2 75.3929 132.7335 46.5146 0.0000 0.0000 0.0000
# 3 35.9848 46.5146 100.8595 0.0000 0.0000 0.0000
# 4 0.0000 0.0000 0.0000 25.8123 0.0000 0.0000
# 5 0.0000 0.0000 0.0000 0.0000 29.1509 0.0000
# 6 0.0000 0.0000 0.0000 0.0000 0.0000 23.1484
#
#
#
# Elastic Compliance Matrix: (Units=1/GPa)
#
#
# Indices 1 2 3 4 5 6 
#
# 1 0.007674 -0.004055 -0.000868 0.000000 0.000000 0.000000
# 2 -0.004055 0.011129 -0.003686 0.000000 0.000000 0.000000
# 3 -0.000868 -0.003686 0.011924 0.000000 0.000000 0.000000
# 4 0.000000 0.000000 0.000000 0.038741 0.000000 0.000000
# 5 0.000000 0.000000 0.000000 0.000000 0.034304 0.000000
# 6 0.000000 0.000000 0.000000 0.000000 0.000000 0.043200
#
#
# Mechanical properties :
#
#
# Convention : Reuss Voigt Hill
#
# Bulk Modulus (GPa) = 74.01840 80.39869 77.20855
# Shear Modulus (GPa) = 29.63973 32.28307 30.96140
#
# Velocity S-wave (km/s) = 3.71169 3.87367 3.79354
# Velocity P-wave (km/s) = 7.26450 7.57474 7.42124
#
# Compressibility (1/GPa) = 0.01351015
#
# Stress axis : x y z
#
# Youngs Moduli (GPa) = 130.30552 89.85845 83.86289
#
# Poissons Ratio (x) = 0.36436 0.07280
# Poissons Ratio (y) = 0.52836 0.30909
# Poissons Ratio (z) = 0.11311 0.33119
#
# Static dielectric constant tensor:
#      x y z
#    x 4.034510 0.000000 0.000000 
#    y 0.000000 3.771050 0.000000 
#    z 0.000000 0.000000 3.846860 
# 
# 
# High freq. dielectric constant tensor:
#      x y z
#    x 1.861790 0.000000 0.000000 
#    y 0.000000 1.845150 0.000000 
#    z 0.000000 0.000000 1.836320 
# 
# From -- ./inp_files/9067.got.cif
#   From: 2010.03.12/outbox.cif.g09.slc.cpg/sg73_5_cif.got.tgz:9067.got - 2010.04.16 15:25:48.
