data_PCOD8296901
_publ_section_title
;
Structure prediction by ZEFSAII (Michael W. Deem and Ramdas Pophale) SiO2 
 PCOD8296901
Probable space group: I B C A 
;
_chemical_formula_sum "Si O2"
_cell_formula_units_Z 72
_cell_length_a 22.426768
_cell_length_b 14.080533
_cell_length_c 9.178225
_cell_angle_alpha 90.000000
_cell_angle_beta 90.000000
_cell_angle_gamma 90.000000
_cell_volume 2898.307664
_symmetry_space_group_name_H-M "I B C A "
_symmetry_group_IT_number 73
_symmetry_cell_setting 'orthorhombic'
loop_
_space_group_symop_operation_xyz
x,y,z
-x,1/2-y,z
x,-y,1/2-z
1/2-x,y,-z
-x,-y,-z
x,1/2+y,-z
-x,y,1/2+z
1/2+x,-y,z
1/2+x,1/2+y,1/2+z
1/2-x,-y,1/2+z
1/2+x,1/2-y,-z
-x,1/2+y,1/2-z
1/2-x,1/2-y,1/2-z
1/2+x,y,1/2-z
1/2-x,1/2+y,z
x,1/2-y,1/2+z
loop_
_atom_site_type_symbol
_atom_site_label
_atom_site_fract_x
_atom_site_fract_y
_atom_site_fract_z
Si Si1 0.250000 0.470539 0.000000
Si Si2 0.815136 0.675659 0.807199
Si Si3 0.831631 0.141668 0.530798
Si Si4 0.437318 0.401261 0.808821
Si Si5 0.031855 0.846300 0.501369
O O1 0.230611 0.403441 0.134090
O O2 0.303905 0.537523 0.057224
O O3 0.798805 0.782334 0.861631
O O4 0.818319 0.674044 0.633598
O O5 0.881043 0.655554 0.873984
O O6 0.902054 0.138347 0.563083
O O7 0.410218 0.500000 0.750000
O O8 0.487027 0.424354 0.931152
O O9 0.468622 0.346884 0.675012
O O10 0.000000 0.750000 0.445022
#
# Coordination Sequence:
#
# PCOD8296901 Si02
#       5
#     8  16  16  16  16
#     4  12  26  46  70  98 138 190 246 302 356 422
#     4  11  25  47  72 103 144 189 244 305 364 432
#     4  11  26  46  74 105 144 195 244 303 367 434
#     4  11  23  41  69 105 144 184 233 297 359 431
#     4  11  22  42  71 103 142 184 234 291 364 430
#
# _framework density 24.842084
#
# number of rings (size 3 to 8) (size 9 to 14) (size 15 to 20)
#    0.000    0.889    2.222    5.333    3.111    5.333 
#    0.000    2.222    0.000    0.000    0.000    0.000 
#    0.000    0.000    0.000    0.000    0.000    0.000 
#
# Total GULP energy -446402.583543 kJ/mol
# GULP energy per Si atom -12400.071765 kJ/mol
# Density = 2.478554 g / cm^3
# Si number density = 24.842084 Si / 1000 Ang^3
#
#
#
# Elastic Constant Matrix: (Units=GPa)
#
#
# Indices 1 2 3 4 5 6 
#
# 1 123.8125 15.0049 3.3558 0.0000 0.0000 0.0000
# 2 15.0049 91.4915 11.6883 0.0000 0.0000 0.0000
# 3 3.3558 11.6883 65.9643 0.0000 0.0000 0.0000
# 4 0.0000 0.0000 0.0000 36.2948 0.0000 0.0000
# 5 0.0000 0.0000 0.0000 0.0000 66.4527 0.0000
# 6 0.0000 0.0000 0.0000 0.0000 0.0000 42.8670
#
#
#
# Elastic Compliance Matrix: (Units=1/GPa)
#
#
# Indices 1 2 3 4 5 6 
#
# 1 0.008243 -0.001328 -0.000184 0.000000 0.000000 0.000000
# 2 -0.001328 0.011397 -0.001952 0.000000 0.000000 0.000000
# 3 -0.000184 -0.001952 0.015515 0.000000 0.000000 0.000000
# 4 0.000000 0.000000 0.000000 0.027552 0.000000 0.000000
# 5 0.000000 0.000000 0.000000 0.000000 0.015048 0.000000
# 6 0.000000 0.000000 0.000000 0.000000 0.000000 0.023328
#
#
# Mechanical properties :
#
#
# Convention : Reuss Voigt Hill
#
# Bulk Modulus (GPa) = 35.42780 37.92960 36.67870
# Shear Modulus (GPa) = 42.58200 45.87083 44.22642
#
# Velocity S-wave (km/s) = 4.14467 4.30175 4.22394
# Velocity P-wave (km/s) = 6.09890 6.32257 6.21174
#
# Compressibility (1/GPa) = 0.02822642
#
# Stress axis : x y z
#
# Youngs Moduli (GPa) = 121.31956 87.74088 64.45399
#
# Poissons Ratio (x) = 0.11655 0.01186
# Poissons Ratio (y) = 0.16115 0.12581
# Poissons Ratio (z) = 0.02232 0.17126
#
# Static dielectric constant tensor:
#      x y z
#    x 4.789890 0.000000 0.000000 
#    y 0.000000 4.557650 0.000000 
#    z 0.000000 0.000000 4.270430 
# 
# 
# High freq. dielectric constant tensor:
#      x y z
#    x 2.007950 0.000000 0.000000 
#    y 0.000000 1.997430 0.000000 
#    z 0.000000 0.000000 1.975730 
# 
# From -- ./inp_files/6925.got.cif
#   From: 2010.03.12/outbox.cif.g09.slc.cpg/sg73_4_cif.got.tgz:6925.got - 2010.04.16 15:25:48.
