data_PCOD8296677
_publ_section_title
;
Structure prediction by ZEFSAII (Michael W. Deem and Ramdas Pophale) SiO2 
 PCOD8296677
Probable space group: I B C A 
;
_chemical_formula_sum "Si O2"
_cell_formula_units_Z 88
_cell_length_a 8.114922
_cell_length_b 22.161616
_cell_length_c 21.537065
_cell_angle_alpha 90.000000
_cell_angle_beta 90.000000
_cell_angle_gamma 90.000000
_cell_volume 3873.221144
_symmetry_space_group_name_H-M "I B C A "
_symmetry_group_IT_number 73
_symmetry_cell_setting 'orthorhombic'
loop_
_space_group_symop_operation_xyz
x,y,z
-x,1/2-y,z
x,-y,1/2-z
1/2-x,y,-z
-x,-y,-z
x,1/2+y,-z
-x,y,1/2+z
1/2+x,-y,z
1/2+x,1/2+y,1/2+z
1/2-x,-y,1/2+z
1/2+x,1/2-y,-z
-x,1/2+y,1/2-z
1/2-x,1/2-y,1/2-z
1/2+x,y,1/2-z
1/2-x,1/2+y,z
x,1/2-y,1/2+z
loop_
_atom_site_type_symbol
_atom_site_label
_atom_site_fract_x
_atom_site_fract_y
_atom_site_fract_z
Si Si1 0.250000 0.516908 0.000000
Si Si2 0.359887 0.297625 0.185860
Si Si3 0.358253 0.632256 0.773045
Si Si4 0.648653 0.798181 0.564393
Si Si5 0.460851 0.434701 0.928524
Si Si6 0.574014 0.448693 0.800538
O O1 0.403018 0.559548 0.017300
O O2 0.203317 0.471395 0.055569
O O3 0.500000 0.250000 0.204237
O O4 0.479247 0.356933 0.184004
O O5 0.226996 0.307845 0.241774
O O6 0.273286 0.281637 0.120756
O O7 0.412358 0.589075 0.717281
O O8 0.226474 0.596063 0.813057
O O9 0.500000 0.750000 0.562105
O O10 0.750000 0.796762 0.500000
O O11 0.575787 0.863856 0.579512
O O12 0.529470 0.471007 0.868778
O O13 0.614696 0.500000 0.750000
#
# Coordination Sequence:
#
# PCOD8296677 Si02
#       6
#     8  16  16  16  16  16
#     4  10  26  46  76  98 132 200 232 302 356 436
#     4  11  24  44  70  99 142 186 236 293 358 424
#     4  10  24  42  66 102 138 184 228 291 358 434
#     4  12  28  49  74 107 147 193 249 306 362 437
#     4  11  25  48  71 103 145 183 249 292 369 431
#     4  11  24  41  68 105 139 182 230 298 362 429
#
# _framework density 22.720106999999999
#
# number of rings (size 3 to 8) (size 9 to 14) (size 15 to 20)
#    0.000    1.091    2.727    1.636    8.909    2.182 
#    0.000    0.000    0.000    0.000    0.000    0.000 
#    0.000    0.000    0.000    0.000    0.000    0.000 
#
# Total GULP energy -545163.033281 kJ/mol
# GULP energy per Si atom -12390.068938 kJ/mol
# Density = 2.266840 g / cm^3
# Si number density = 22.720107 Si / 1000 Ang^3
#
#
#
# Elastic Constant Matrix: (Units=GPa)
#
#
# Indices 1 2 3 4 5 6 
#
# 1 127.0307 33.6154 50.0469 0.0000 0.0000 0.0000
# 2 33.6154 87.8017 17.2478 0.0000 0.0000 0.0000
# 3 50.0469 17.2478 106.3297 0.0000 0.0000 0.0000
# 4 0.0000 0.0000 0.0000 -12.5473 0.0000 0.0000
# 5 0.0000 0.0000 0.0000 0.0000 25.9105 0.0000
# 6 0.0000 0.0000 0.0000 0.0000 0.0000 12.8831
#
#
#
# Elastic Compliance Matrix: (Units=1/GPa)
#
#
# Indices 1 2 3 4 5 6 
#
# 1 0.010435 -0.003130 -0.004404 0.000000 0.000000 0.000000
# 2 -0.003130 0.012703 -0.000587 0.000000 0.000000 0.000000
# 3 -0.004404 -0.000587 0.011573 0.000000 0.000000 0.000000
# 4 0.000000 0.000000 0.000000 -0.079698 0.000000 0.000000
# 5 0.000000 0.000000 0.000000 0.000000 0.038594 0.000000
# 6 0.000000 0.000000 0.000000 0.000000 0.000000 0.077621
#
#
# Mechanical properties :
#
#
# Convention : Reuss Voigt Hill
#
# Bulk Modulus (GPa) = 54.14621 58.10915 56.12768
# Shear Modulus (GPa) = 53.40282 19.93271 36.66776
#
# Velocity S-wave (km/s) = 4.85342 2.96516 4.02168
# Velocity P-wave (km/s) = 7.43580 6.11184 6.80609
#
# Compressibility (1/GPa) = 0.01846851
#
# Stress axis : x y z
#
# Youngs Moduli (GPa) = 95.82682 78.72113 86.40932
#
# Poissons Ratio (x) = 0.24641 0.38055
# Poissons Ratio (y) = 0.29995 0.05075
# Poissons Ratio (z) = 0.42202 0.04623
#
# Static dielectric constant tensor:
#      x y z
#    x 4.535290 0.000000 0.000000 
#    y 0.000000 4.281030 0.000000 
#    z 0.000000 0.000000 3.856500 
# 
# 
# High freq. dielectric constant tensor:
#      x y z
#    x 1.924450 0.000000 0.000000 
#    y 0.000000 1.897050 0.000000 
#    z 0.000000 0.000000 1.882900 
# 
# From -- ./inp_files/28325.got.cif
#   From: 2010.03.12/outbox.cif.g09.slc.cpg/sg73_15_cif.got.tgz:28325.got - 2010.04.16 15:25:48.
