data_PCOD8296245
_publ_section_title
;
Structure prediction by ZEFSAII (Michael W. Deem and Ramdas Pophale) SiO2 
 PCOD8296245
Probable space group: I B C A 
;
_chemical_formula_sum "Si O2"
_cell_formula_units_Z 104
_cell_length_a 18.287704
_cell_length_b 15.672667
_cell_length_c 17.450665
_cell_angle_alpha 90.000000
_cell_angle_beta 90.000000
_cell_angle_gamma 90.000000
_cell_volume 5001.658908
_symmetry_space_group_name_H-M "I B C A "
_symmetry_group_IT_number 73
_symmetry_cell_setting 'orthorhombic'
loop_
_space_group_symop_operation_xyz
x,y,z
-x,1/2-y,z
x,-y,1/2-z
1/2-x,y,-z
-x,-y,-z
x,1/2+y,-z
-x,y,1/2+z
1/2+x,-y,z
1/2+x,1/2+y,1/2+z
1/2-x,-y,1/2+z
1/2+x,1/2-y,-z
-x,1/2+y,1/2-z
1/2-x,1/2-y,1/2-z
1/2+x,y,1/2-z
1/2-x,1/2+y,z
x,1/2-y,1/2+z
loop_
_atom_site_type_symbol
_atom_site_label
_atom_site_fract_x
_atom_site_fract_y
_atom_site_fract_z
Si Si1 0.745683 0.911062 0.218865
Si Si2 0.807559 0.519681 0.432695
Si Si3 0.516194 0.576217 0.393144
Si Si4 0.000000 0.750000 0.326574
Si Si5 0.465951 0.901568 0.560787
Si Si6 0.634430 0.869877 0.341638
Si Si7 0.383508 0.811145 0.297154
O O1 0.728646 0.918665 0.129595
O O2 0.669236 0.886499 0.258517
O O3 0.805788 0.839329 0.236954
O O4 0.776901 0.000000 0.250000
O O5 0.750000 0.516097 0.500000
O O6 0.885386 0.559854 0.454524
O O7 0.818729 0.421562 0.404733
O O8 0.506107 0.623772 0.475576
O O9 0.520575 0.474147 0.405486
O O10 0.447739 0.595640 0.338521
O O11 0.586503 0.610541 0.347931
O O12 0.033466 0.822550 0.381530
O O13 0.064347 0.714023 0.273279
O O14 0.630278 0.768230 0.355009
#
# Coordination Sequence:
#
# PCOD8296245 Si02
#       7
#    16  16  16   8  16  16  16
#     4  10  23  40  64  93 134 176 221 269 331 408
#     4  10  21  43  67  93 133 179 225 271 344 403
#     4  10  22  43  68  90 131 174 226 266 344 394
#     4  12  26  38  66 102 138 164 230 280 346 392
#     4  10  24  42  66  98 132 176 218 288 330 407
#     4  10  21  41  64  92 130 175 214 275 329 396
#     4  12  23  41  65 100 131 174 224 278 327 407
#
# _framework density 20.793102000000001
#
# number of rings (size 3 to 8) (size 9 to 14) (size 15 to 20)
#    0.000    1.538    1.538    2.308    4.308    1.231 
#    5.538    2.308    0.000    0.000    0.000    0.000 
#    0.000    0.000    0.000    0.000    0.000    0.000 
#
# Total GULP energy -644712.139264 kJ/mol
# GULP energy per Si atom -12398.310370 kJ/mol
# Density = 2.074578 g / cm^3
# Si number density = 20.793102 Si / 1000 Ang^3
#
#
#
# Elastic Constant Matrix: (Units=GPa)
#
#
# Indices 1 2 3 4 5 6 
#
# 1 104.2308 39.8111 53.4504 0.0000 0.0000 0.0000
# 2 39.8111 87.5287 40.3169 0.0000 0.0000 0.0000
# 3 53.4504 40.3169 112.3983 0.0000 0.0000 0.0000
# 4 0.0000 0.0000 0.0000 33.9002 0.0000 0.0000
# 5 0.0000 0.0000 0.0000 0.0000 34.1442 0.0000
# 6 0.0000 0.0000 0.0000 0.0000 0.0000 34.2258
#
#
#
# Elastic Compliance Matrix: (Units=1/GPa)
#
#
# Indices 1 2 3 4 5 6 
#
# 1 0.013702 -0.003870 -0.005128 0.000000 0.000000 0.000000
# 2 -0.003870 0.014779 -0.003461 0.000000 0.000000 0.000000
# 3 -0.005128 -0.003461 0.012577 0.000000 0.000000 0.000000
# 4 0.000000 0.000000 0.000000 0.029498 0.000000 0.000000
# 5 0.000000 0.000000 0.000000 0.000000 0.029288 0.000000
# 6 0.000000 0.000000 0.000000 0.000000 0.000000 0.029218
#
#
# Mechanical properties :
#
#
# Convention : Reuss Voigt Hill
#
# Bulk Modulus (GPa) = 61.95585 63.47940 62.71763
# Shear Modulus (GPa) = 31.37573 31.82598 31.60086
#
# Velocity S-wave (km/s) = 3.88873 3.91654 3.90266
# Velocity P-wave (km/s) = 7.07277 7.14477 7.10886
#
# Compressibility (1/GPa) = 0.01614053
#
# Stress axis : x y z
#
# Youngs Moduli (GPa) = 72.98307 67.66254 79.51212
#
# Poissons Ratio (x) = 0.26187 0.40771
# Poissons Ratio (y) = 0.28246 0.27517
# Poissons Ratio (z) = 0.37423 0.23417
#
# Static dielectric constant tensor:
#      x y z
#    x 3.717240 0.000000 0.000000 
#    y 0.000000 3.964140 0.000000 
#    z 0.000000 0.000000 3.732670 
# 
# 
# High freq. dielectric constant tensor:
#      x y z
#    x 1.816930 0.000000 0.000000 
#    y 0.000000 1.814480 0.000000 
#    z 0.000000 0.000000 1.810930 
# 
# From -- ./inp_files/23216.got.cif
#   From: 2010.03.12/outbox.cif.g09.slc.cpg/sg73_12_cif.got.tgz:23216.got - 2010.04.16 15:25:48.
