data_PCOD8296327
_publ_section_title
;
Structure prediction by ZEFSAII (Michael W. Deem and Ramdas Pophale) SiO2 
 PCOD8296327
Probable space group: I B C A 
;
_chemical_formula_sum "Si O2"
_cell_formula_units_Z 88
_cell_length_a 9.181652
_cell_length_b 26.966077
_cell_length_c 18.390963
_cell_angle_alpha 90.000000
_cell_angle_beta 90.000000
_cell_angle_gamma 90.000000
_cell_volume 4553.476182
_symmetry_space_group_name_H-M "I B C A "
_symmetry_group_IT_number 73
_symmetry_cell_setting 'orthorhombic'
loop_
_space_group_symop_operation_xyz
x,y,z
-x,1/2-y,z
x,-y,1/2-z
1/2-x,y,-z
-x,-y,-z
x,1/2+y,-z
-x,y,1/2+z
1/2+x,-y,z
1/2+x,1/2+y,1/2+z
1/2-x,-y,1/2+z
1/2+x,1/2-y,-z
-x,1/2+y,1/2-z
1/2-x,1/2-y,1/2-z
1/2+x,y,1/2-z
1/2-x,1/2+y,z
x,1/2-y,1/2+z
loop_
_atom_site_type_symbol
_atom_site_label
_atom_site_fract_x
_atom_site_fract_y
_atom_site_fract_z
Si Si1 0.739910 0.799571 0.794786
Si Si2 0.763410 0.866712 0.414343
Si Si3 0.161802 0.744818 0.429434
Si Si4 0.460464 0.141425 0.702811
Si Si5 0.357735 0.000000 0.750000
Si Si6 0.597375 0.435873 0.304642
O O1 0.750000 0.750000 0.750000
O O2 0.809050 0.788374 0.872480
O O3 0.570596 0.812743 0.805799
O O4 0.827478 0.844104 0.756297
O O5 0.750000 0.878322 0.500000
O O6 0.808519 0.810048 0.397964
O O7 0.606715 0.873969 0.375348
O O8 0.884842 0.902848 0.377740
O O9 0.250000 0.757186 0.500000
O O10 0.000000 0.750000 0.456617
O O11 0.552218 0.096002 0.734454
O O12 0.255668 0.040213 0.710518
O O13 0.465821 0.024042 0.811648
#
# Coordination Sequence:
#
# PCOD8296327 Si02
#       6
#    16  16  16  16   8  16
#     4  12  22  35  60  88 121 163 227 258 301 357
#     4  11  24  40  63  90 134 168 206 261 324 374
#     4  11  25  39  57  85 128 174 216 267 315 364
#     4  12  22  39  64  89 124 169 209 266 308 378
#     4  10  22  36  74  94 120 144 208 264 310 388
#     4  11  20  42  64  97 118 158 202 254 322 382
#
# _framework density 19.325894999999999
#
# number of rings (size 3 to 8) (size 9 to 14) (size 15 to 20)
#    0.000    0.727    5.455    2.727    5.091    0.000 
#    0.000    0.909    0.000    0.000    0.000    0.000 
#    0.000    0.000    0.000    0.000    0.000    0.000 
#
# Total GULP energy -545557.589986 kJ/mol
# GULP energy per Si atom -12399.036136 kJ/mol
# Density = 1.928191 g / cm^3
# Si number density = 19.325895 Si / 1000 Ang^3
#
#
#
# Elastic Constant Matrix: (Units=GPa)
#
#
# Indices 1 2 3 4 5 6 
#
# 1 141.0216 34.5544 61.5592 0.0000 0.0000 0.0000
# 2 34.5544 56.1793 48.3799 -0.0001 0.0000 0.0000
# 3 61.5592 48.3799 131.6329 0.0002 0.0000 0.0000
# 4 0.0000 -0.0001 0.0002 20.1215 0.0000 0.0000
# 5 0.0000 0.0000 0.0000 0.0000 33.4894 0.0000
# 6 0.0000 0.0000 0.0000 0.0000 0.0000 55.6218
#
#
#
# Elastic Compliance Matrix: (Units=1/GPa)
#
#
# Indices 1 2 3 4 5 6 
#
# 1 0.009214 -0.002863 -0.003257 0.000000 0.000000 0.000000
# 2 -0.002863 0.026932 -0.008560 0.000000 0.000000 0.000000
# 3 -0.003257 -0.008560 0.012266 0.000000 0.000000 0.000000
# 4 0.000000 0.000000 0.000000 0.049698 0.000000 0.000000
# 5 0.000000 0.000000 0.000000 0.000000 0.029860 0.000000
# 6 0.000000 0.000000 0.000000 0.000000 0.000000 0.017979
#
#
# Mechanical properties :
#
#
# Convention : Reuss Voigt Hill
#
# Bulk Modulus (GPa) = 52.48315 68.64677 60.56496
# Shear Modulus (GPa) = 27.52391 34.13589 30.82990
#
# Velocity S-wave (km/s) = 3.77795 4.20733 3.99841
# Velocity P-wave (km/s) = 6.80047 7.69415 7.26107
#
# Compressibility (1/GPa) = 0.01905373
#
# Stress axis : x y z
#
# Youngs Moduli (GPa) = 108.52685 37.12991 81.52519
#
# Poissons Ratio (x) = 0.10629 0.26553
# Poissons Ratio (y) = 0.31067 0.69785
# Poissons Ratio (z) = 0.35347 0.31783
#
# Static dielectric constant tensor:
#      x y z
#    x 3.727430 0.000000 0.000000 
#    y 0.000000 3.763300 0.000000 
#    z 0.000000 0.000000 3.072270 
# 
# 
# High freq. dielectric constant tensor:
#      x y z
#    x 1.771060 0.000000 0.000000 
#    y 0.000000 1.755840 0.000000 
#    z 0.000000 0.000000 1.728560 
# 
# From -- ./inp_files/5732.got.cif
#   From: 2010.03.12/outbox.cif.g09.slc.cpg/sg73_3_cif.got.tgz:5732.got - 2010.04.16 15:25:48.
