data_PCOD8296135
_publ_section_title
;
Structure prediction by ZEFSAII (Michael W. Deem and Ramdas Pophale) SiO2 
 PCOD8296135
Probable space group: I B C A 
;
_chemical_formula_sum "Si O2"
_cell_formula_units_Z 112
_cell_length_a 10.584042
_cell_length_b 28.603971
_cell_length_c 17.404659
_cell_angle_alpha 90.000000
_cell_angle_beta 90.000000
_cell_angle_gamma 90.000000
_cell_volume 5269.184461
_symmetry_space_group_name_H-M "I B C A "
_symmetry_group_IT_number 73
_symmetry_cell_setting 'orthorhombic'
loop_
_space_group_symop_operation_xyz
x,y,z
-x,1/2-y,z
x,-y,1/2-z
1/2-x,y,-z
-x,-y,-z
x,1/2+y,-z
-x,y,1/2+z
1/2+x,-y,z
1/2+x,1/2+y,1/2+z
1/2-x,-y,1/2+z
1/2+x,1/2-y,-z
-x,1/2+y,1/2-z
1/2-x,1/2-y,1/2-z
1/2+x,y,1/2-z
1/2-x,1/2+y,z
x,1/2-y,1/2+z
loop_
_atom_site_type_symbol
_atom_site_label
_atom_site_fract_x
_atom_site_fract_y
_atom_site_fract_z
Si Si1 0.242762 0.685161 0.169666
Si Si2 0.481035 0.523716 0.917408
Si Si3 0.373997 0.123350 0.049967
Si Si4 0.148001 0.452778 0.790757
Si Si5 0.008532 0.148200 0.098423
Si Si6 0.125138 0.223320 0.681970
Si Si7 0.918999 0.563008 0.816240
O O1 0.133984 0.660736 0.119192
O O2 0.368632 0.654554 0.153930
O O3 0.190794 0.688364 0.256549
O O4 0.274938 0.739168 0.148187
O O5 0.399124 0.570758 0.922019
O O6 0.616355 0.538356 0.880995
O O7 0.417498 0.488749 0.854621
O O8 0.500000 0.500000 0.000000
O O9 0.250000 0.120085 0.000000
O O10 0.475598 0.146067 0.993009
O O11 0.185193 0.500000 0.750000
O O12 0.278820 0.423542 0.784273
O O13 0.024442 0.430264 0.750283
O O14 0.913538 0.190984 0.111042
O O15 0.949075 0.098468 0.116470
O O16 0.000000 0.250000 0.716238
#
# Coordination Sequence:
#
# PCOD8296135 Si02
#       7
#    16  16  16  16  16  16  16
#     4   9  20  39  65  91 123 166 217 264 337 403
#     4  11  23  40  60  92 135 179 218 278 327 399
#     4  10  22  39  62  93 126 178 224 258 332 407
#     4  10  24  41  61  90 125 174 232 274 334 388
#     4  10  21  37  61  95 128 164 212 273 329 395
#     4   9  19  39  66  95 123 158 212 281 337 389
#     4  11  24  41  64  94 133 175 223 277 331 393
#
# _framework density 21.255659999999999
#
# number of rings (size 3 to 8) (size 9 to 14) (size 15 to 20)
#    0.000    2.000    1.429    1.286    6.000    2.286 
#    0.000    5.000    0.000    3.429    0.000    0.000 
#    0.000    0.000    0.000    0.000    0.000    0.000 
#
# Total GULP energy -693796.241936 kJ/mol
# GULP energy per Si atom -12389.218606 kJ/mol
# Density = 2.120728 g / cm^3
# Si number density = 21.255660 Si / 1000 Ang^3
#
#
#
# Elastic Constant Matrix: (Units=GPa)
#
#
# Indices 1 2 3 4 5 6 
#
# 1 80.3927 27.4312 37.9135 -0.0001 0.0001 0.0000
# 2 27.4312 110.2611 53.5120 -0.0001 0.0000 0.0000
# 3 37.9135 53.5120 95.9768 -0.0004 0.0001 0.0001
# 4 -0.0001 -0.0001 -0.0004 36.2118 0.0000 0.0000
# 5 0.0001 0.0000 0.0001 0.0000 30.0241 0.0000
# 6 0.0000 0.0000 0.0001 0.0000 0.0000 26.5502
#
#
#
# Elastic Compliance Matrix: (Units=1/GPa)
#
#
# Indices 1 2 3 4 5 6 
#
# 1 0.015403 -0.001205 -0.005413 0.000000 0.000000 0.000000
# 2 -0.001205 0.012528 -0.006509 0.000000 0.000000 0.000000
# 3 -0.005413 -0.006509 0.016186 0.000000 0.000000 0.000000
# 4 0.000000 0.000000 0.000000 0.027615 0.000000 0.000000
# 5 0.000000 0.000000 0.000000 0.000000 0.033307 0.000000
# 6 0.000000 0.000000 0.000000 0.000000 0.000000 0.037664
#
#
# Mechanical properties :
#
#
# Convention : Reuss Voigt Hill
#
# Bulk Modulus (GPa) = 55.97902 58.26045 57.11973
# Shear Modulus (GPa) = 28.58583 29.74215 29.16399
#
# Velocity S-wave (km/s) = 3.67121 3.74472 3.70815
# Velocity P-wave (km/s) = 6.66060 6.79457 6.72792
#
# Compressibility (1/GPa) = 0.01786384
#
# Stress axis : x y z
#
# Youngs Moduli (GPa) = 64.92353 79.82019 61.78017
#
# Poissons Ratio (x) = 0.09619 0.33439
# Poissons Ratio (y) = 0.07824 0.40213
# Poissons Ratio (z) = 0.35141 0.51955
#
# Static dielectric constant tensor:
#      x y z
#    x 4.001720 0.000000 0.000000 
#    y 0.000000 3.892630 0.000000 
#    z 0.000000 0.000000 4.060930 
# 
# 
# High freq. dielectric constant tensor:
#      x y z
#    x 1.824670 0.000000 0.000000 
#    y 0.000000 1.837340 0.000000 
#    z 0.000000 0.000000 1.821780 
# 
# From -- ./inp_files/16324.got.cif
#   From: 2010.03.12/outbox.cif.g09.slc.cpg/sg73_9_cif.got.tgz:16324.got - 2010.04.16 15:25:48.
