data_PCOD8296399
_publ_section_title
;
Structure prediction by ZEFSAII (Michael W. Deem and Ramdas Pophale) SiO2 
 PCOD8296399
Probable space group: I B C A 
;
_chemical_formula_sum "Si O2"
_cell_formula_units_Z 112
_cell_length_a 10.731864
_cell_length_b 29.671193
_cell_length_c 15.475020
_cell_angle_alpha 90.000000
_cell_angle_beta 90.000000
_cell_angle_gamma 90.000000
_cell_volume 4927.667412
_symmetry_space_group_name_H-M "I B C A "
_symmetry_group_IT_number 73
_symmetry_cell_setting 'orthorhombic'
loop_
_space_group_symop_operation_xyz
x,y,z
-x,1/2-y,z
x,-y,1/2-z
1/2-x,y,-z
-x,-y,-z
x,1/2+y,-z
-x,y,1/2+z
1/2+x,-y,z
1/2+x,1/2+y,1/2+z
1/2-x,-y,1/2+z
1/2+x,1/2-y,-z
-x,1/2+y,1/2-z
1/2-x,1/2-y,1/2-z
1/2+x,y,1/2-z
1/2-x,1/2+y,z
x,1/2-y,1/2+z
loop_
_atom_site_type_symbol
_atom_site_label
_atom_site_fract_x
_atom_site_fract_y
_atom_site_fract_z
Si Si1 0.278080 0.091737 0.399266
Si Si2 0.623350 0.277397 0.749113
Si Si3 0.929170 0.876972 0.047527
Si Si4 0.310681 0.135949 0.862213
Si Si5 0.025651 0.057620 0.172889
Si Si6 0.045325 0.541245 0.637730
Si Si7 0.835116 0.820529 0.577092
O O1 0.250000 0.088248 0.500000
O O2 0.421609 0.084792 0.379110
O O3 0.246653 0.142795 0.369409
O O4 0.189849 0.055654 0.352417
O O5 0.500000 0.250000 0.779487
O O6 0.750000 0.250000 0.750000
O O7 0.634935 0.320934 0.811324
O O8 0.609600 0.286521 0.646863
O O9 0.839934 0.861304 0.127814
O O10 0.972441 0.928818 0.066294
O O11 0.048350 0.845647 0.035448
O O12 0.859658 0.870779 0.958669
O O13 0.352449 0.089455 0.816289
O O14 0.979044 0.047288 0.269471
O O15 0.048442 0.012077 0.117094
O O16 0.750000 0.798247 0.500000
#
# Coordination Sequence:
#
# PCOD8296399 Si02
#       7
#    16  16  16  16  16  16  16
#     4  10  22  40  66  95 133 184 237 283 351 435
#     4  12  29  49  74 111 140 182 241 306 373 456
#     4  10  23  43  68 106 140 183 237 287 347 442
#     4  11  24  44  71  99 142 185 232 298 370 422
#     4  11  24  38  69  94 143 191 232 294 349 423
#     4  10  24  39  60 105 139 185 241 286 345 419
#     4  10  22  46  74  98 139 183 230 286 368 431
#
# _framework density 22.728805000000001
#
# number of rings (size 3 to 8) (size 9 to 14) (size 15 to 20)
#    0.000    1.429    0.000    5.143   10.000    3.429 
#    5.143    0.000    0.000    0.000    0.000    0.000 
#    0.000    0.000    0.000    0.000    0.000    0.000 
#
# Total GULP energy -693891.814519 kJ/mol
# GULP energy per Si atom -12390.925259 kJ/mol
# Density = 2.267707 g / cm^3
# Si number density = 22.728805 Si / 1000 Ang^3
#
#
#
# Elastic Constant Matrix: (Units=GPa)
#
#
# Indices 1 2 3 4 5 6 
#
# 1 106.1174 32.9327 23.8138 -0.0009 0.0002 0.0002
# 2 32.9327 111.4814 43.4610 -0.0006 0.0003 0.0002
# 3 23.8138 43.4610 67.1162 -0.0027 0.0011 0.0009
# 4 -0.0009 -0.0006 -0.0027 29.6369 0.0007 0.0004
# 5 0.0002 0.0003 0.0011 0.0007 34.1533 -0.0005
# 6 0.0002 0.0002 0.0009 0.0004 -0.0005 28.7800
#
#
#
# Elastic Compliance Matrix: (Units=1/GPa)
#
#
# Indices 1 2 3 4 5 6 
#
# 1 0.010640 -0.002236 -0.002327 0.000000 0.000000 0.000000
# 2 -0.002236 0.012469 -0.007281 0.000000 0.000000 0.000000
# 3 -0.002327 -0.007281 0.020440 0.000002 -0.000001 -0.000001
# 4 0.000000 0.000000 0.000002 0.033742 -0.000001 -0.000001
# 5 0.000000 0.000000 -0.000001 -0.000001 0.029280 0.000000
# 6 0.000000 0.000000 -0.000001 -0.000001 0.000000 0.034746
#
#
# Mechanical properties :
#
#
# Convention : Reuss Voigt Hill
#
# Bulk Modulus (GPa) = 50.35101 53.90335 52.12718
# Shear Modulus (GPa) = 29.13323 30.81453 29.97388
#
# Velocity S-wave (km/s) = 3.58407 3.68604 3.63542
# Velocity P-wave (km/s) = 6.27124 6.47173 6.37227
#
# Compressibility (1/GPa) = 0.01986057
#
# Stress axis : x y z
#
# Youngs Moduli (GPa) = 93.98803 80.19830 48.92324
#
# Poissons Ratio (x) = 0.17930 0.11386
# Poissons Ratio (y) = 0.21013 0.35621
# Poissons Ratio (z) = 0.21874 0.58393
#
# Static dielectric constant tensor:
#      x y z
#    x 4.428910 0.000000 0.000000 
#    y 0.000000 3.661590 0.000000 
#    z 0.000000 0.000000 4.034850 
# 
# 
# High freq. dielectric constant tensor:
#      x y z
#    x 1.905260 0.000000 0.000000 
#    y 0.000000 1.882750 0.000000 
#    z 0.000000 0.000000 1.903380 
# 
# From -- ./inp_files/16320.got.cif
#   From: 2010.03.12/outbox.cif.g09.slc.cpg/sg73_9_cif.got.tgz:16320.got - 2010.04.16 15:25:48.
