data_PCOD8296003
_publ_section_title
;
Structure prediction by ZEFSAII (Michael W. Deem and Ramdas Pophale) SiO2 
 PCOD8296003
Probable space group: I B C A 
;
_chemical_formula_sum "Si O2"
_cell_formula_units_Z 120
_cell_length_a 28.513488
_cell_length_b 13.949853
_cell_length_c 15.024323
_cell_angle_alpha 90.000000
_cell_angle_beta 90.000000
_cell_angle_gamma 90.000000
_cell_volume 5976.059183
_symmetry_space_group_name_H-M "I B C A "
_symmetry_group_IT_number 73
_symmetry_cell_setting 'orthorhombic'
loop_
_space_group_symop_operation_xyz
x,y,z
-x,1/2-y,z
x,-y,1/2-z
1/2-x,y,-z
-x,-y,-z
x,1/2+y,-z
-x,y,1/2+z
1/2+x,-y,z
1/2+x,1/2+y,1/2+z
1/2-x,-y,1/2+z
1/2+x,1/2-y,-z
-x,1/2+y,1/2-z
1/2-x,1/2-y,1/2-z
1/2+x,y,1/2-z
1/2-x,1/2+y,z
x,1/2-y,1/2+z
loop_
_atom_site_type_symbol
_atom_site_label
_atom_site_fract_x
_atom_site_fract_y
_atom_site_fract_z
Si Si1 0.697395 0.364511 0.909251
Si Si2 0.198783 0.392364 0.392879
Si Si3 0.379693 0.533527 0.650962
Si Si4 0.500000 0.750000 0.871750
Si Si5 0.458053 0.061735 0.038981
Si Si6 0.161766 0.785077 0.777772
Si Si7 0.897038 0.961113 0.878822
Si Si8 0.414614 0.147384 0.708152
O O1 0.746305 0.420402 0.892951
O O2 0.695739 0.270695 0.846153
O O3 0.657937 0.438864 0.877497
O O4 0.690503 0.334369 0.013828
O O5 0.164676 0.484542 0.398775
O O6 0.190611 0.337673 0.299845
O O7 0.382163 0.500000 0.750000
O O8 0.429949 0.504205 0.609762
O O9 0.369724 0.647144 0.657286
O O10 0.522611 0.836400 0.928081
O O11 0.460444 0.790918 0.808163
O O12 0.420326 0.086868 0.964153
O O13 0.500000 0.000000 0.000000
O O14 0.129102 0.716039 0.720847
O O15 0.923542 0.914892 0.795545
O O16 0.904249 0.076225 0.875277
#
# Coordination Sequence:
#
# PCOD8296003 Si02
#       8
#    16  16  16   8  16  16  16  16
#     4  10  21  39  65  93 127 174 212 262 324 388
#     4  10  20  40  62  93 132 165 213 265 315 389
#     4  10  22  42  64  90 130 168 207 272 327 381
#     4  12  24  40  66  96 124 170 222 260 324 388
#     4  12  25  41  66  96 128 168 218 274 324 387
#     4  10  22  41  64  95 128 169 217 266 326 389
#     4  10  22  44  61  89 131 167 208 266 327 379
#     4  10  23  42  63  89 127 170 208 268 320 384
#
# _framework density 20.080121999999999
#
# number of rings (size 3 to 8) (size 9 to 14) (size 15 to 20)
#    0.000    1.600    2.667    2.000    0.000    5.867 
#   16.800    1.333    0.000    0.000    0.000    0.000 
#    0.000    0.000    0.000    0.000    0.000    0.000 
#
# Total GULP energy -743501.554230 kJ/mol
# GULP energy per Si atom -12391.692570 kJ/mol
# Density = 2.003442 g / cm^3
# Si number density = 20.080122 Si / 1000 Ang^3
#
#
#
# Elastic Constant Matrix: (Units=GPa)
#
#
# Indices 1 2 3 4 5 6 
#
# 1 124.1146 49.8650 38.4376 0.0000 0.0000 0.0000
# 2 49.8650 94.4208 31.7367 0.0000 0.0000 0.0000
# 3 38.4376 31.7367 93.3630 0.0000 0.0000 0.0000
# 4 0.0000 0.0000 0.0000 16.0786 0.0000 0.0000
# 5 0.0000 0.0000 0.0000 0.0000 32.5709 0.0000
# 6 0.0000 0.0000 0.0000 0.0000 0.0000 16.6161
#
#
#
# Elastic Compliance Matrix: (Units=1/GPa)
#
#
# Indices 1 2 3 4 5 6 
#
# 1 0.010858 -0.004778 -0.002846 0.000000 0.000000 0.000000
# 2 -0.004778 0.014059 -0.002812 0.000000 0.000000 0.000000
# 3 -0.002846 -0.002812 0.012839 0.000000 0.000000 0.000000
# 4 0.000000 0.000000 0.000000 0.062194 0.000000 0.000000
# 5 0.000000 0.000000 0.000000 0.000000 0.030702 0.000000
# 6 0.000000 0.000000 0.000000 0.000000 0.000000 0.060183
#
#
# Mechanical properties :
#
#
# Convention : Reuss Voigt Hill
#
# Bulk Modulus (GPa) = 59.22818 61.33078 60.27948
# Shear Modulus (GPa) = 23.00597 25.84374 24.42485
#
# Velocity S-wave (km/s) = 3.38850 3.59141 3.49143
# Velocity P-wave (km/s) = 6.69845 6.91426 6.80721
#
# Compressibility (1/GPa) = 0.01688386
#
# Stress axis : x y z
#
# Youngs Moduli (GPa) = 92.09800 71.12754 77.89011
#
# Poissons Ratio (x) = 0.33982 0.22169
# Poissons Ratio (y) = 0.44001 0.21904
# Poissons Ratio (z) = 0.26213 0.20002
#
# Static dielectric constant tensor:
#      x y z
#    x 3.962650 0.000000 0.000000 
#    y 0.000000 5.806230 0.000000 
#    z 0.000000 0.000000 4.283130 
# 
# 
# High freq. dielectric constant tensor:
#      x y z
#    x 1.793130 0.000000 0.000000 
#    y 0.000000 1.771270 0.000000 
#    z 0.000000 0.000000 1.796880 
# 
# From -- ./inp_files/20143.got.cif
#   From: 2010.03.12/outbox.cif.g09.slc.cpg/sg73_11_cif.got.tgz:20143.got - 2010.04.16 15:25:48.
