data_PCOD8296256
_publ_section_title
;
Structure prediction by ZEFSAII (Michael W. Deem and Ramdas Pophale) SiO2 
 PCOD8296256
Probable space group: I B C A 
;
_chemical_formula_sum "Si O2"
_cell_formula_units_Z 72
_cell_length_a 14.068596
_cell_length_b 10.309849
_cell_length_c 20.002274
_cell_angle_alpha 90.000000
_cell_angle_beta 90.000000
_cell_angle_gamma 90.000000
_cell_volume 2901.231841
_symmetry_space_group_name_H-M "I B C A "
_symmetry_group_IT_number 73
_symmetry_cell_setting 'orthorhombic'
loop_
_space_group_symop_operation_xyz
x,y,z
-x,1/2-y,z
x,-y,1/2-z
1/2-x,y,-z
-x,-y,-z
x,1/2+y,-z
-x,y,1/2+z
1/2+x,-y,z
1/2+x,1/2+y,1/2+z
1/2-x,-y,1/2+z
1/2+x,1/2-y,-z
-x,1/2+y,1/2-z
1/2-x,1/2-y,1/2-z
1/2+x,y,1/2-z
1/2-x,1/2+y,z
x,1/2-y,1/2+z
loop_
_atom_site_type_symbol
_atom_site_label
_atom_site_fract_x
_atom_site_fract_y
_atom_site_fract_z
Si Si1 0.105684 0.392238 0.946849
Si Si2 0.639103 0.937902 0.678948
Si Si3 0.842759 0.614817 0.198510
Si Si4 0.115919 0.898582 0.549141
Si Si5 0.000000 0.250000 0.219399
O O1 0.112483 0.435672 0.870110
O O2 0.154907 0.249487 0.957657
O O3 0.995441 0.386796 0.963422
O O4 0.156944 0.501236 0.993310
O O5 0.733165 0.844669 0.681848
O O6 0.541722 0.856387 0.667990
O O7 0.621007 0.000000 0.750000
O O8 0.646656 0.046742 0.621671
O O9 0.835792 0.500000 0.250000
O O10 0.910790 0.721633 0.231442
#
# Coordination Sequence:
#
# PCOD8296256 Si02
#       5
#    16  16  16  16   8
#     4  10  21  41  66  95 131 177 224 275 334 400
#     4  11  24  41  64  97 132 174 226 281 340 409
#     4  11  24  41  65  97 133 177 225 280 344 410
#     4  10  22  41  66  95 133 176 224 277 335 402
#     4  12  22  40  66  94 130 174 226 284 342 406
#
# _framework density 24.817043999999999
#
# number of rings (size 3 to 8) (size 9 to 14) (size 15 to 20)
#    0.000    1.333    0.000    6.667    0.000    8.000 
#    0.000    2.222    0.000    0.000    0.000    0.000 
#    0.000    0.000    0.000    0.000    0.000    0.000 
#
# Total GULP energy -446028.678160 kJ/mol
# GULP energy per Si atom -12389.685504 kJ/mol
# Density = 2.476056 g / cm^3
# Si number density = 24.817044 Si / 1000 Ang^3
#
#
#
# Elastic Constant Matrix: (Units=GPa)
#
#
# Indices 1 2 3 4 5 6 
#
# 1 83.5583 46.8319 -5.5555 0.0000 0.0000 0.0000
# 2 46.8319 140.2179 61.8727 0.0000 0.0000 0.0000
# 3 -5.5555 61.8727 125.7403 0.0000 0.0000 0.0000
# 4 0.0000 0.0000 0.0000 32.7062 0.0000 0.0000
# 5 0.0000 0.0000 0.0000 0.0000 28.4142 0.0000
# 6 0.0000 0.0000 0.0000 0.0000 0.0000 42.0997
#
#
#
# Elastic Compliance Matrix: (Units=1/GPa)
#
#
# Indices 1 2 3 4 5 6 
#
# 1 0.016412 -0.007410 0.004371 0.000000 0.000000 0.000000
# 2 -0.007410 0.012456 -0.006456 0.000000 0.000000 0.000000
# 3 0.004371 -0.006456 0.011323 0.000000 0.000000 0.000000
# 4 0.000000 0.000000 0.000000 0.030575 0.000000 0.000000
# 5 0.000000 0.000000 0.000000 0.000000 0.035194 0.000000
# 6 0.000000 0.000000 0.000000 0.000000 0.000000 0.023753
#
#
# Mechanical properties :
#
#
# Convention : Reuss Voigt Hill
#
# Bulk Modulus (GPa) = 47.17030 61.75719 54.46374
# Shear Modulus (GPa) = 32.09866 37.06851 34.58359
#
# Velocity S-wave (km/s) = 3.60031 3.86900 3.73707
# Velocity P-wave (km/s) = 6.02755 6.70059 6.37296
#
# Compressibility (1/GPa) = 0.02119978
#
# Stress axis : x y z
#
# Youngs Moduli (GPa) = 60.93246 80.28417 88.31526
#
# Poissons Ratio (x) = 0.59493 -0.38607
# Poissons Ratio (y) = 0.45153 0.57021
# Poissons Ratio (z) = -0.26637 0.51835
#
# Static dielectric constant tensor:
#      x y z
#    x 4.925020 0.000000 0.000000 
#    y 0.000000 4.891960 0.000000 
#    z 0.000000 0.000000 4.403190 
# 
# 
# High freq. dielectric constant tensor:
#      x y z
#    x 1.990850 0.000000 0.000000 
#    y 0.000000 1.980960 0.000000 
#    z 0.000000 0.000000 1.985100 
# 
# From -- ./inp_files/25853.got.cif
#   From: 2010.03.12/outbox.cif.g09.slc.cpg/sg73_13_cif.got.tgz:25853.got - 2010.04.16 15:25:48.
