data_PCOD8296481
_publ_section_title
;
Structure prediction by ZEFSAII (Michael W. Deem and Ramdas Pophale) SiO2 
 PCOD8296481
Probable space group: I B C A 
;
_chemical_formula_sum "Si O2"
_cell_formula_units_Z 120
_cell_length_a 18.700788
_cell_length_b 17.751996
_cell_length_c 16.191601
_cell_angle_alpha 90.000000
_cell_angle_beta 90.000000
_cell_angle_gamma 90.000000
_cell_volume 5375.228014
_symmetry_space_group_name_H-M "I B C A "
_symmetry_group_IT_number 73
_symmetry_cell_setting 'orthorhombic'
loop_
_space_group_symop_operation_xyz
x,y,z
-x,1/2-y,z
x,-y,1/2-z
1/2-x,y,-z
-x,-y,-z
x,1/2+y,-z
-x,y,1/2+z
1/2+x,-y,z
1/2+x,1/2+y,1/2+z
1/2-x,-y,1/2+z
1/2+x,1/2-y,-z
-x,1/2+y,1/2-z
1/2-x,1/2-y,1/2-z
1/2+x,y,1/2-z
1/2-x,1/2+y,z
x,1/2-y,1/2+z
loop_
_atom_site_type_symbol
_atom_site_label
_atom_site_fract_x
_atom_site_fract_y
_atom_site_fract_z
Si Si1 0.041098 0.445684 0.105852
Si Si2 0.652026 0.699171 0.429012
Si Si3 0.935470 0.206851 0.812399
Si Si4 0.100093 0.423468 0.699929
Si Si5 0.243491 0.916558 0.661766
Si Si6 0.803648 0.582611 0.848036
Si Si7 0.250000 0.680976 0.500000
Si Si8 0.518255 0.391947 0.058987
O O1 0.110452 0.407068 0.147004
O O2 0.043857 0.536664 0.114375
O O3 0.970670 0.412384 0.147340
O O4 0.035578 0.422059 0.010607
O O5 0.621312 0.732467 0.343861
O O6 0.717441 0.646212 0.401942
O O7 0.680616 0.765964 0.487349
O O8 0.589209 0.651335 0.474470
O O9 0.892188 0.148711 0.757745
O O10 0.000000 0.250000 0.764077
O O11 0.970957 0.165045 0.889605
O O12 0.094638 0.500000 0.750000
O O13 0.171759 0.424336 0.645963
O O14 0.225066 0.895542 0.757165
O O15 0.209632 0.995163 0.634553
O O16 0.763461 0.631196 0.918201
#
# Coordination Sequence:
#
# PCOD8296481 Si02
#       8
#    16  16  16  16  16  16   8  16
#     4  11  24  39  73  99 138 171 241 293 339 408
#     4  11  25  46  69  98 143 187 228 281 365 422
#     4  10  23  42  66  94 136 179 218 277 351 417
#     4  12  24  41  69 104 135 179 233 289 342 420
#     4  11  26  46  72 102 140 186 238 294 350 430
#     4  11  25  46  72 105 137 189 242 293 353 423
#     4  12  28  44  72 102 142 190 228 296 358 432
#     4  10  22  43  65 103 132 182 223 287 347 414
#
# _framework density 22.324634
#
# number of rings (size 3 to 8) (size 9 to 14) (size 15 to 20)
#    0.000    1.067    4.000    1.600    7.467    4.800 
#    0.000    2.000    0.000    0.000    0.000    0.000 
#    0.000    0.000    0.000    0.000    0.000    0.000 
#
# Total GULP energy -744038.636778 kJ/mol
# GULP energy per Si atom -12400.643946 kJ/mol
# Density = 2.227382 g / cm^3
# Si number density = 22.324634 Si / 1000 Ang^3
#
#
#
# Elastic Constant Matrix: (Units=GPa)
#
#
# Indices 1 2 3 4 5 6 
#
# 1 127.2596 13.2866 20.5958 0.0000 0.0000 0.0000
# 2 13.2866 85.0070 30.5362 0.0000 0.0000 0.0000
# 3 20.5958 30.5362 41.9717 0.0000 0.0000 0.0000
# 4 0.0000 0.0000 0.0000 27.4558 0.0000 0.0000
# 5 0.0000 0.0000 0.0000 0.0000 28.4085 0.0000
# 6 0.0000 0.0000 0.0000 0.0000 0.0000 22.2315
#
#
#
# Elastic Compliance Matrix: (Units=1/GPa)
#
#
# Indices 1 2 3 4 5 6 
#
# 1 0.008539 0.000231 -0.004358 0.000000 0.000000 0.000000
# 2 0.000231 0.015932 -0.011705 0.000000 0.000000 0.000000
# 3 -0.004358 -0.011705 0.034480 0.000000 0.000000 0.000000
# 4 0.000000 0.000000 0.000000 0.036422 0.000000 0.000000
# 5 0.000000 0.000000 0.000000 0.000000 0.035201 0.000000
# 6 0.000000 0.000000 0.000000 0.000000 0.000000 0.044981
#
#
# Mechanical properties :
#
#
# Convention : Reuss Voigt Hill
#
# Bulk Modulus (GPa) = 36.64715 42.56394 39.60555
# Shear Modulus (GPa) = 23.11444 28.27381 25.69412
#
# Velocity S-wave (km/s) = 3.22122 3.56263 3.39622
# Velocity P-wave (km/s) = 5.50329 6.00253 5.75833
#
# Compressibility (1/GPa) = 0.02728725
#
# Stress axis : x y z
#
# Youngs Moduli (GPa) = 117.10725 62.76595 29.00245
#
# Poissons Ratio (x) = -0.01449 0.12640
# Poissons Ratio (y) = -0.02704 0.33946
# Poissons Ratio (z) = 0.51038 0.73465
#
# Static dielectric constant tensor:
#      x y z
#    x 4.190650 0.000000 0.000000 
#    y 0.000000 4.235520 0.000000 
#    z 0.000000 0.000000 3.692390 
# 
# 
# High freq. dielectric constant tensor:
#      x y z
#    x 1.895710 0.000000 0.000000 
#    y 0.000000 1.891960 0.000000 
#    z 0.000000 0.000000 1.852070 
# 
# From -- ./inp_files/22671.got.cif
#   From: 2010.03.12/outbox.cif.g09.slc.cpg/sg73_12_cif.got.tgz:22671.got - 2010.04.16 15:25:48.
