data_PCOD8296077
_publ_section_title
;
Structure prediction by ZEFSAII (Michael W. Deem and Ramdas Pophale) SiO2 
 PCOD8296077
Probable space group: I B C A 
;
_chemical_formula_sum "Si O2"
_cell_formula_units_Z 112
_cell_length_a 12.695219
_cell_length_b 17.956512
_cell_length_c 23.919114
_cell_angle_alpha 90.000000
_cell_angle_beta 90.000000
_cell_angle_gamma 90.000000
_cell_volume 5452.645533
_symmetry_space_group_name_H-M "I B C A "
_symmetry_group_IT_number 73
_symmetry_cell_setting 'orthorhombic'
loop_
_space_group_symop_operation_xyz
x,y,z
-x,1/2-y,z
x,-y,1/2-z
1/2-x,y,-z
-x,-y,-z
x,1/2+y,-z
-x,y,1/2+z
1/2+x,-y,z
1/2+x,1/2+y,1/2+z
1/2-x,-y,1/2+z
1/2+x,1/2-y,-z
-x,1/2+y,1/2-z
1/2-x,1/2-y,1/2-z
1/2+x,y,1/2-z
1/2-x,1/2+y,z
x,1/2-y,1/2+z
loop_
_atom_site_type_symbol
_atom_site_label
_atom_site_fract_x
_atom_site_fract_y
_atom_site_fract_z
Si Si1 0.140282 0.500000 0.750000
Si Si2 0.646084 0.098233 0.658789
Si Si3 0.806285 0.931256 0.331350
Si Si4 0.991049 0.624951 0.760116
Si Si5 0.692955 0.797777 0.596134
Si Si6 0.312560 0.298089 0.294523
Si Si7 0.167699 0.680817 0.043138
Si Si8 0.500000 0.750000 0.027756
O O1 0.206244 0.449153 0.792955
O O2 0.061065 0.555641 0.781106
O O3 0.543451 0.122856 0.694749
O O4 0.751038 0.123584 0.693141
O O5 0.643703 0.131964 0.597276
O O6 0.642534 0.009391 0.651536
O O7 0.774619 0.881977 0.385521
O O8 0.886842 0.877070 0.298139
O O9 0.068442 0.694759 0.770689
O O10 0.680246 0.743468 0.647810
O O11 0.785606 0.762738 0.558341
O O12 0.581414 0.798095 0.564478
O O13 0.250000 0.250000 0.250000
O O14 0.250000 0.641134 0.000000
O O15 0.058384 0.690129 0.011028
#
# Coordination Sequence:
#
# PCOD8296077 Si02
#       8
#     8  16  16  16  16  16  16   8
#     4  12  20  36  54  84 138 168 188 238 290 366
#     4  11  22  38  60  91 125 168 210 256 321 373
#     4  12  22  39  58  95 130 168 207 242 315 395
#     4  12  21  36  59  87 131 169 200 244 304 381
#     4  10  22  39  64  87 119 166 205 256 321 374
#     4  11  23  38  58  91 128 166 209 250 303 383
#     4   9  22  43  64  86 116 159 215 279 323 355
#     4  10  20  44  64  84 114 154 216 278 316 362
#
# _framework density 20.540488
#
# number of rings (size 3 to 8) (size 9 to 14) (size 15 to 20)
#    0.000    1.143    4.286    2.571    0.000    5.143 
#    0.000    2.857    0.000    0.000    0.000    0.000 
#    0.000    0.000    0.000    0.000    0.000    0.000 
#
# Total GULP energy -694105.773972 kJ/mol
# GULP energy per Si atom -12394.745964 kJ/mol
# Density = 2.049374 g / cm^3
# Si number density = 20.540488 Si / 1000 Ang^3
#
#
#
# Elastic Constant Matrix: (Units=GPa)
#
#
# Indices 1 2 3 4 5 6 
#
# 1 98.0069 20.0645 41.0035 0.0000 0.0000 0.0000
# 2 20.0645 65.1526 34.5464 0.0000 0.0000 0.0000
# 3 41.0035 34.5464 115.5088 0.0000 0.0000 0.0000
# 4 0.0000 0.0000 0.0000 37.1065 0.0000 0.0000
# 5 0.0000 0.0000 0.0000 0.0000 34.4227 0.0000
# 6 0.0000 0.0000 0.0000 0.0000 0.0000 39.9572
#
#
#
# Elastic Compliance Matrix: (Units=1/GPa)
#
#
# Indices 1 2 3 4 5 6 
#
# 1 0.012145 -0.001728 -0.003794 0.000000 0.000000 0.000000
# 2 -0.001728 0.018487 -0.004916 0.000000 0.000000 0.000000
# 3 -0.003794 -0.004916 0.011474 0.000000 0.000000 0.000000
# 4 0.000000 0.000000 0.000000 0.026949 0.000000 0.000000
# 5 0.000000 0.000000 0.000000 0.000000 0.029051 0.000000
# 6 0.000000 0.000000 0.000000 0.000000 0.000000 0.025027
#
#
# Mechanical properties :
#
#
# Convention : Reuss Voigt Hill
#
# Bulk Modulus (GPa) = 47.10316 52.21079 49.65697
# Shear Modulus (GPa) = 33.09373 34.50088 33.79730
#
# Velocity S-wave (km/s) = 4.01826 4.10280 4.06075
# Velocity P-wave (km/s) = 6.67160 6.92226 6.79808
#
# Compressibility (1/GPa) = 0.02123000
#
# Stress axis : x y z
#
# Youngs Moduli (GPa) = 82.34132 54.09123 87.15049
#
# Poissons Ratio (x) = 0.09348 0.33067
# Poissons Ratio (y) = 0.14230 0.42840
# Poissons Ratio (z) = 0.31242 0.26590
#
# Static dielectric constant tensor:
#      x y z
#    x 3.963650 0.000000 0.000000 
#    y 0.000000 3.746620 0.000000 
#    z 0.000000 0.000000 3.275260 
# 
# 
# High freq. dielectric constant tensor:
#      x y z
#    x 1.814500 0.000000 0.000000 
#    y 0.000000 1.796010 0.000000 
#    z 0.000000 0.000000 1.795960 
# 
# From -- ./inp_files/31898.got.cif
#   From: 2010.03.12/outbox.cif.g09.slc.cpg/sg73_16_cif.got.tgz:31898.got - 2010.04.16 15:25:48.
