data_PCOD8296157
_publ_section_title
;
Structure prediction by ZEFSAII (Michael W. Deem and Ramdas Pophale) SiO2 
 PCOD8296157
Probable space group: I B C A 
;
_chemical_formula_sum "Si O2"
_cell_formula_units_Z 80
_cell_length_a 18.572685
_cell_length_b 20.381502
_cell_length_c 11.607804
_cell_angle_alpha 90.000000
_cell_angle_beta 90.000000
_cell_angle_gamma 90.000000
_cell_volume 4394.009031
_symmetry_space_group_name_H-M "I B C A "
_symmetry_group_IT_number 73
_symmetry_cell_setting 'orthorhombic'
loop_
_space_group_symop_operation_xyz
x,y,z
-x,1/2-y,z
x,-y,1/2-z
1/2-x,y,-z
-x,-y,-z
x,1/2+y,-z
-x,y,1/2+z
1/2+x,-y,z
1/2+x,1/2+y,1/2+z
1/2-x,-y,1/2+z
1/2+x,1/2-y,-z
-x,1/2+y,1/2-z
1/2-x,1/2-y,1/2-z
1/2+x,y,1/2-z
1/2-x,1/2+y,z
x,1/2-y,1/2+z
loop_
_atom_site_type_symbol
_atom_site_label
_atom_site_fract_x
_atom_site_fract_y
_atom_site_fract_z
Si Si1 0.678713 0.341132 0.553864
Si Si2 0.750000 0.215555 0.500000
Si Si3 0.089901 0.557904 0.429899
Si Si4 0.065623 0.540775 0.864636
Si Si5 0.700895 0.000000 0.750000
Si Si6 0.197882 0.882305 0.312424
O O1 0.750000 0.375638 0.500000
O O2 0.681020 0.262921 0.526332
O O3 0.609751 0.373988 0.493282
O O4 0.679336 0.352500 0.689230
O O5 0.763006 0.172546 0.612478
O O6 0.078779 0.502255 0.523631
O O7 0.151781 0.536066 0.343162
O O8 0.015384 0.569296 0.361365
O O9 0.081971 0.500000 0.750000
O O10 0.121969 0.600215 0.871642
O O11 0.751266 0.053956 0.690061
#
# Coordination Sequence:
#
# PCOD8296157 Si02
#       6
#    16   8  16  16   8  16
#     4  10  21  38  61  82 118 160 200 253 292 358
#     4  10  24  38  60  90 118 156 208 248 298 364
#     4  11  22  37  56  91 124 159 201 249 314 368
#     4  11  22  37  59  87 129 158 194 258 320 372
#     4  12  20  32  64  90 120 150 202 256 312 368
#     4  12  21  38  61  91 119 155 201 255 313 365
#
# _framework density 18.206607999999999
#
# number of rings (size 3 to 8) (size 9 to 14) (size 15 to 20)
#    0.600    0.400    6.000    1.800    0.000    0.000 
#    0.000    1.000    0.000    2.400    0.000    0.000 
#    0.000    0.000    0.000    0.000    0.000    0.000 
#
# Total GULP energy -495959.545469 kJ/mol
# GULP energy per Si atom -12398.988637 kJ/mol
# Density = 1.816517 g / cm^3
# Si number density = 18.206608 Si / 1000 Ang^3
#
#
#
# Elastic Constant Matrix: (Units=GPa)
#
#
# Indices 1 2 3 4 5 6 
#
# 1 100.5925 49.6036 33.0885 0.0000 0.0000 0.0000
# 2 49.6036 117.3248 38.5167 0.0000 0.0000 0.0000
# 3 33.0885 38.5167 84.4685 0.0000 0.0000 0.0000
# 4 0.0000 0.0000 0.0000 31.7562 0.0000 0.0000
# 5 0.0000 0.0000 0.0000 0.0000 33.0003 0.0000
# 6 0.0000 0.0000 0.0000 0.0000 0.0000 60.5618
#
#
#
# Elastic Compliance Matrix: (Units=1/GPa)
#
#
# Indices 1 2 3 4 5 6 
#
# 1 0.013212 -0.004571 -0.003091 0.000000 0.000000 0.000000
# 2 -0.004571 0.011605 -0.003501 0.000000 0.000000 0.000000
# 3 -0.003091 -0.003501 0.014646 0.000000 0.000000 0.000000
# 4 0.000000 0.000000 0.000000 0.031490 0.000000 0.000000
# 5 0.000000 0.000000 0.000000 0.000000 0.030303 0.000000
# 6 0.000000 0.000000 0.000000 0.000000 0.000000 0.016512
#
#
# Mechanical properties :
#
#
# Convention : Reuss Voigt Hill
#
# Bulk Modulus (GPa) = 58.35498 60.53371 59.44435
# Shear Modulus (GPa) = 34.29180 37.14211 35.71695
#
# Velocity S-wave (km/s) = 4.34462 4.52157 4.43398
# Velocity P-wave (km/s) = 7.56893 7.78331 7.67687
#
# Compressibility (1/GPa) = 0.01713650
#
# Stress axis : x y z
#
# Youngs Moduli (GPa) = 75.68912 86.16675 68.27726
#
# Poissons Ratio (x) = 0.39387 0.21105
# Poissons Ratio (y) = 0.34598 0.23906
# Poissons Ratio (z) = 0.23396 0.30170
#
# Static dielectric constant tensor:
#      x y z
#    x 3.571630 0.000000 0.000000 
#    y 0.000000 3.230450 0.000000 
#    z 0.000000 0.000000 3.496030 
# 
# 
# High freq. dielectric constant tensor:
#      x y z
#    x 1.702520 0.000000 0.000000 
#    y 0.000000 1.690210 0.000000 
#    z 0.000000 0.000000 1.721610 
# 
# From -- ./inp_files/11837.got.cif
#   From: 2010.03.12/outbox.cif.g09.slc.cpg/sg73_6_cif.got.tgz:11837.got - 2010.04.16 15:25:48.
