data_PCOD8296145
_publ_section_title
;
Structure prediction by ZEFSAII (Michael W. Deem and Ramdas Pophale) SiO2 
 PCOD8296145
Probable space group: I B C A 
;
_chemical_formula_sum "Si O2"
_cell_formula_units_Z 72
_cell_length_a 30.427352
_cell_length_b 24.371644
_cell_length_c 5.192834
_cell_angle_alpha 90.000000
_cell_angle_beta 90.000000
_cell_angle_gamma 90.000000
_cell_volume 3850.821820
_symmetry_space_group_name_H-M "I B C A "
_symmetry_group_IT_number 73
_symmetry_cell_setting 'orthorhombic'
loop_
_space_group_symop_operation_xyz
x,y,z
-x,1/2-y,z
x,-y,1/2-z
1/2-x,y,-z
-x,-y,-z
x,1/2+y,-z
-x,y,1/2+z
1/2+x,-y,z
1/2+x,1/2+y,1/2+z
1/2-x,-y,1/2+z
1/2+x,1/2-y,-z
-x,1/2+y,1/2-z
1/2-x,1/2-y,1/2-z
1/2+x,y,1/2-z
1/2-x,1/2+y,z
x,1/2-y,1/2+z
loop_
_atom_site_type_symbol
_atom_site_label
_atom_site_fract_x
_atom_site_fract_y
_atom_site_fract_z
Si Si1 0.200362 0.226044 0.757217
Si Si2 0.624452 0.434981 0.713251
Si Si3 0.173459 0.602649 0.199587
Si Si4 0.750000 0.529429 0.500000
Si Si5 0.523540 0.935172 0.268724
O O1 0.250000 0.250000 0.750000
O O2 0.175697 0.247382 0.501984
O O3 0.197204 0.160959 0.771302
O O4 0.630662 0.500000 0.750000
O O5 0.650117 0.415142 0.461672
O O6 0.573739 0.419283 0.678494
O O7 0.640023 0.400542 0.961590
O O8 0.212728 0.561980 0.146216
O O9 0.772336 0.500000 0.250000
O O10 0.494365 0.910153 0.500971
O O11 0.517682 0.000000 0.250000
#
# Coordination Sequence:
#
# PCOD8296145 Si02
#       5
#    16  16  16   8  16
#     4  10  21  38  56  74  96 131 181 237 286 316
#     4  11  22  36  54  83 120 150 181 220 265 325
#     4  12  23  37  55  77 108 147 187 230 279 321
#     4  12  24  36  50  72 108 152 192 216 254 326
#     4   9  17  31  52  77 109 149 182 211 255 314
#
# _framework density 18.697308
#
# number of rings (size 3 to 8) (size 9 to 14) (size 15 to 20)
#    0.000    1.333    0.000    8.000    0.000    7.111 
#    0.000    0.000    0.000    0.000    0.000    0.000 
#    0.000   62.222    0.000    0.000    0.000    0.000 
#
# Total GULP energy -446131.101471 kJ/mol
# GULP energy per Si atom -12392.530596 kJ/mol
# Density = 1.865475 g / cm^3
# Si number density = 18.697308 Si / 1000 Ang^3
#
#
#
# Elastic Constant Matrix: (Units=GPa)
#
#
# Indices 1 2 3 4 5 6 
#
# 1 98.1517 47.8430 49.9522 0.0000 0.0000 0.0000
# 2 47.8430 99.0921 59.8940 0.0000 0.0000 0.0000
# 3 49.9522 59.8940 193.9124 0.0000 0.0000 0.0000
# 4 0.0000 0.0000 0.0000 -9.5237 0.0000 0.0000
# 5 0.0000 0.0000 0.0000 0.0000 27.9348 0.0000
# 6 0.0000 0.0000 0.0000 0.0000 0.0000 16.6955
#
#
#
# Elastic Compliance Matrix: (Units=1/GPa)
#
#
# Indices 1 2 3 4 5 6 
#
# 1 0.013841 -0.005567 -0.001846 0.000000 0.000000 0.000000
# 2 -0.005567 0.014647 -0.003090 0.000000 0.000000 0.000000
# 3 -0.001846 -0.003090 0.006587 0.000000 0.000000 0.000000
# 4 0.000000 0.000000 0.000000 -0.105001 0.000000 0.000000
# 5 0.000000 0.000000 0.000000 0.000000 0.035798 0.000000
# 6 0.000000 0.000000 0.000000 0.000000 0.000000 0.059896
#
#
# Mechanical properties :
#
#
# Convention : Reuss Voigt Hill
#
# Bulk Modulus (GPa) = 71.07679 78.50385 74.79032
# Shear Modulus (GPa) = 97.15453 22.58579 59.87016
#
# Velocity S-wave (km/s) = 7.21627 3.47936 5.66483
# Velocity P-wave (km/s) = 10.36966 7.63014 9.10354
#
# Compressibility (1/GPa) = 0.01406929
#
# Stress axis : x y z
#
# Youngs Moduli (GPa) = 72.24695 68.27273 151.81555
#
# Poissons Ratio (x) = 0.38007 0.28026
# Poissons Ratio (y) = 0.40220 0.46911
# Poissons Ratio (z) = 0.13337 0.21096
#
# Static dielectric constant tensor:
#      x y z
#    x 3.345930 0.000000 0.000000 
#    y 0.000000 3.203060 0.000000 
#    z 0.000000 0.000000 9.552590 
# 
# 
# High freq. dielectric constant tensor:
#      x y z
#    x 1.710080 0.000000 0.000000 
#    y 0.000000 1.684520 0.000000 
#    z 0.000000 0.000000 1.767360 
# 
# From -- ./inp_files/3006.got.cif
#   From: 2010.03.12/outbox.cif.g09.slc.cpg/sg73_2_cif.got.tgz:3006.got - 2010.04.16 15:25:48.
