data_PCOD8296211
_publ_section_title
;
Structure prediction by ZEFSAII (Michael W. Deem and Ramdas Pophale) SiO2 
 PCOD8296211
Probable space group: I B C A 
;
_chemical_formula_sum "Si O2"
_cell_formula_units_Z 72
_cell_length_a 12.624920
_cell_length_b 28.306653
_cell_length_c 9.341163
_cell_angle_alpha 90.000000
_cell_angle_beta 90.000000
_cell_angle_gamma 90.000000
_cell_volume 3338.244225
_symmetry_space_group_name_H-M "I B C A "
_symmetry_group_IT_number 73
_symmetry_cell_setting 'orthorhombic'
loop_
_space_group_symop_operation_xyz
x,y,z
-x,1/2-y,z
x,-y,1/2-z
1/2-x,y,-z
-x,-y,-z
x,1/2+y,-z
-x,y,1/2+z
1/2+x,-y,z
1/2+x,1/2+y,1/2+z
1/2-x,-y,1/2+z
1/2+x,1/2-y,-z
-x,1/2+y,1/2-z
1/2-x,1/2-y,1/2-z
1/2+x,y,1/2-z
1/2-x,1/2+y,z
x,1/2-y,1/2+z
loop_
_atom_site_type_symbol
_atom_site_label
_atom_site_fract_x
_atom_site_fract_y
_atom_site_fract_z
Si Si1 0.422449 0.835617 0.612811
Si Si2 0.750000 0.734809 0.500000
Si Si3 0.570684 0.707019 0.894398
Si Si4 0.131549 0.037512 0.459149
Si Si5 0.567657 0.440394 0.863026
O O1 0.328013 0.799403 0.584303
O O2 0.439497 0.835506 0.782591
O O3 0.529925 0.815950 0.541719
O O4 0.396249 0.889678 0.572688
O O5 0.812112 0.771436 0.600314
O O6 0.500000 0.750000 0.839474
O O7 0.250000 0.055474 0.500000
O O8 0.085615 0.058310 0.309084
O O9 0.056007 0.051784 0.592744
O O10 0.136076 0.980634 0.441896
#
# Coordination Sequence:
#
# PCOD8296211 Si02
#       5
#    16   8  16  16  16
#     4  11  22  40  63  93 124 165 218 269 306 397
#     4  10  22  38  64  92 124 172 208 264 328 382
#     4  10  21  40  60  86 127 166 204 264 325 371
#     4  10  23  45  69  95 140 178 209 275 343 390
#     4  10  23  43  66  99 131 171 225 273 321 395
#
# _framework density 21.568225000000002
#
# number of rings (size 3 to 8) (size 9 to 14) (size 15 to 20)
#    0.000    1.778    0.000    4.000    1.556    8.889 
#   16.000    0.000    0.000    0.000    0.000    0.000 
#    0.000    0.000    0.000    0.000    0.000    0.000 
#
# Total GULP energy -446060.181968 kJ/mol
# GULP energy per Si atom -12390.560610 kJ/mol
# Density = 2.151913 g / cm^3
# Si number density = 21.568225 Si / 1000 Ang^3
#
#
#
# Elastic Constant Matrix: (Units=GPa)
#
#
# Indices 1 2 3 4 5 6 
#
# 1 122.0840 22.1474 61.6621 -0.0003 0.0000 0.0001
# 2 22.1474 135.8323 39.0302 0.0003 0.0000 0.0000
# 3 61.6621 39.0302 117.6459 0.0034 0.0007 -0.0002
# 4 -0.0003 0.0003 0.0034 21.8805 0.0001 -0.0002
# 5 0.0000 0.0000 0.0007 0.0001 19.1713 -0.0003
# 6 0.0001 0.0000 -0.0002 -0.0002 -0.0003 12.8934
#
#
#
# Elastic Compliance Matrix: (Units=1/GPa)
#
#
# Indices 1 2 3 4 5 6 
#
# 1 0.011143 -0.000153 -0.005790 0.000001 0.000000 0.000000
# 2 -0.000153 0.008140 -0.002620 0.000000 0.000000 0.000000
# 3 -0.005790 -0.002620 0.012404 -0.000002 0.000000 0.000000
# 4 0.000001 0.000000 -0.000002 0.045703 0.000000 0.000001
# 5 0.000000 0.000000 0.000000 0.000000 0.052161 0.000001
# 6 0.000000 0.000000 0.000000 0.000001 0.000001 0.077559
#
#
# Mechanical properties :
#
#
# Convention : Reuss Voigt Hill
#
# Bulk Modulus (GPa) = 68.67766 69.02682 68.85224
# Shear Modulus (GPa) = 21.82552 27.63722 24.73137
#
# Velocity S-wave (km/s) = 3.18453 3.58353 3.38991
# Velocity P-wave (km/s) = 6.74039 7.01396 6.87854
#
# Compressibility (1/GPa) = 0.01456078
#
# Stress axis : x y z
#
# Youngs Moduli (GPa) = 89.74165 122.85179 80.62001
#
# Poissons Ratio (x) = 0.01883 0.46676
# Poissons Ratio (y) = 0.01376 0.21124
# Poissons Ratio (z) = 0.51957 0.32189
#
# Static dielectric constant tensor:
#      x y z
#    x 4.072910 0.000000 0.000000 
#    y 0.000000 3.995090 0.000000 
#    z 0.000000 0.000000 3.772380 
# 
# 
# High freq. dielectric constant tensor:
#      x y z
#    x 1.835270 0.000000 0.000000 
#    y 0.000000 1.856810 0.000000 
#    z 0.000000 0.000000 1.841870 
# 
# From -- ./inp_files/4903.got.cif
#   From: 2010.03.12/outbox.cif.g09.slc.cpg/sg73_3_cif.got.tgz:4903.got - 2010.04.16 15:25:48.
