data_PCOD8296456
_publ_section_title
;
Structure prediction by ZEFSAII (Michael W. Deem and Ramdas Pophale) SiO2 
 PCOD8296456
Probable space group: I B C A 
;
_chemical_formula_sum "Si O2"
_cell_formula_units_Z 48
_cell_length_a 8.886321
_cell_length_b 13.431556
_cell_length_c 17.273318
_cell_angle_alpha 90.000000
_cell_angle_beta 90.000000
_cell_angle_gamma 90.000000
_cell_volume 2061.693457
_symmetry_space_group_name_H-M "I B C A "
_symmetry_group_IT_number 73
_symmetry_cell_setting 'orthorhombic'
loop_
_space_group_symop_operation_xyz
x,y,z
-x,1/2-y,z
x,-y,1/2-z
1/2-x,y,-z
-x,-y,-z
x,1/2+y,-z
-x,y,1/2+z
1/2+x,-y,z
1/2+x,1/2+y,1/2+z
1/2-x,-y,1/2+z
1/2+x,1/2-y,-z
-x,1/2+y,1/2-z
1/2-x,1/2-y,1/2-z
1/2+x,y,1/2-z
1/2-x,1/2+y,z
x,1/2-y,1/2+z
loop_
_atom_site_type_symbol
_atom_site_label
_atom_site_fract_x
_atom_site_fract_y
_atom_site_fract_z
Si Si1 0.355124 0.186428 0.328002
Si Si2 0.509653 0.980928 0.090165
Si Si3 0.705423 0.379901 0.163069
O O1 0.500000 0.250000 0.298803
O O2 0.396805 0.111039 0.395723
O O3 0.289894 0.120683 0.256796
O O4 0.233475 0.264909 0.362172
O O5 0.672631 0.953783 0.124020
O O6 0.456166 0.081270 0.134142
O O7 0.500000 0.000000 0.000000
#
# Coordination Sequence:
#
# PCOD8296456 Si02
#       3
#    16  16  16
#     4   9  21  42  68  95 125 170 225 271 316 381
#     4  11  23  42  66  98 136 170 210 268 334 391
#     4  10  22  42  67  96 128 170 220 268 321 387
#
# _framework density 23.281831
#
# number of rings (size 3 to 8) (size 9 to 14) (size 15 to 20)
#    0.000    2.000    0.000    2.000    0.000   13.333 
#    0.000   28.333    0.000    0.000    0.000    0.000 
#    0.000    0.000    0.000    0.000    0.000    0.000 
#
# Total GULP energy -297476.138929 kJ/mol
# GULP energy per Si atom -12394.839122 kJ/mol
# Density = 2.322884 g / cm^3
# Si number density = 23.281831 Si / 1000 Ang^3
#
#
#
# Elastic Constant Matrix: (Units=GPa)
#
#
# Indices 1 2 3 4 5 6 
#
# 1 44.0486 47.1791 54.7444 0.0000 0.0000 0.0000
# 2 47.1791 106.1129 82.9066 0.0000 0.0000 0.0000
# 3 54.7444 82.9066 158.4644 0.0000 0.0000 0.0000
# 4 0.0000 0.0000 0.0000 37.2708 0.0000 0.0000
# 5 0.0000 0.0000 0.0000 0.0000 32.2648 0.0000
# 6 0.0000 0.0000 0.0000 0.0000 0.0000 52.5992
#
#
#
# Elastic Compliance Matrix: (Units=1/GPa)
#
#
# Indices 1 2 3 4 5 6 
#
# 1 0.050868 -0.015030 -0.009710 0.000000 0.000000 0.000000
# 2 -0.015030 0.020381 -0.005470 0.000000 0.000000 0.000000
# 3 -0.009710 -0.005470 0.012527 0.000000 0.000000 0.000000
# 4 0.000000 0.000000 0.000000 0.026831 0.000000 0.000000
# 5 0.000000 0.000000 0.000000 0.000000 0.030994 0.000000
# 6 0.000000 0.000000 0.000000 0.000000 0.000000 0.019012
#
#
# Mechanical properties :
#
#
# Convention : Reuss Voigt Hill
#
# Bulk Modulus (GPa) = 42.81755 75.36513 59.09134
# Shear Modulus (GPa) = 21.85150 32.68001 27.26576
#
# Velocity S-wave (km/s) = 3.06692 3.75062 3.42587
# Velocity P-wave (km/s) = 5.56527 7.15523 6.40974
#
# Compressibility (1/GPa) = 0.02335491
#
# Stress axis : x y z
#
# Youngs Moduli (GPa) = 19.65873 49.06608 79.82794
#
# Poissons Ratio (x) = 0.73748 0.77509
# Poissons Ratio (y) = 0.29548 0.43669
# Poissons Ratio (z) = 0.19088 0.26841
#
# Static dielectric constant tensor:
#      x y z
#    x 4.698700 0.000000 0.000000 
#    y 0.000000 4.593790 0.000000 
#    z 0.000000 0.000000 3.763230 
# 
# 
# High freq. dielectric constant tensor:
#      x y z
#    x 1.922180 0.000000 0.000000 
#    y 0.000000 1.940570 0.000000 
#    z 0.000000 0.000000 1.891780 
# 
# From -- ./inp_files/4301.got.cif
#   From: 2010.03.12/outbox.cif.g09.slc.cpg/sg73_3_cif.got.tgz:4301.got - 2010.04.16 15:25:48.
