data_PCOD8296849
_publ_section_title
;
Structure prediction by ZEFSAII (Michael W. Deem and Ramdas Pophale) SiO2 
 PCOD8296849
Probable space group: I B C A 
;
_chemical_formula_sum "Si O2"
_cell_formula_units_Z 96
_cell_length_a 12.861739
_cell_length_b 18.545692
_cell_length_c 18.966575
_cell_angle_alpha 90.000000
_cell_angle_beta 90.000000
_cell_angle_gamma 90.000000
_cell_volume 4524.094291
_symmetry_space_group_name_H-M "I B C A "
_symmetry_group_IT_number 73
_symmetry_cell_setting 'orthorhombic'
loop_
_space_group_symop_operation_xyz
x,y,z
-x,1/2-y,z
x,-y,1/2-z
1/2-x,y,-z
-x,-y,-z
x,1/2+y,-z
-x,y,1/2+z
1/2+x,-y,z
1/2+x,1/2+y,1/2+z
1/2-x,-y,1/2+z
1/2+x,1/2-y,-z
-x,1/2+y,1/2-z
1/2-x,1/2-y,1/2-z
1/2+x,y,1/2-z
1/2-x,1/2+y,z
x,1/2-y,1/2+z
loop_
_atom_site_type_symbol
_atom_site_label
_atom_site_fract_x
_atom_site_fract_y
_atom_site_fract_z
Si Si1 0.558891 0.363124 0.477416
Si Si2 0.287679 0.732628 0.827379
Si Si3 0.654017 0.208832 0.452542
Si Si4 0.871819 0.384023 0.369512
Si Si5 0.848111 0.051599 0.149535
Si Si6 0.419196 0.402023 0.701198
O O1 0.623637 0.290130 0.471134
O O2 0.437505 0.347696 0.466145
O O3 0.578847 0.398044 0.553737
O O4 0.595404 0.421239 0.420448
O O5 0.250000 0.750000 0.750000
O O6 0.186796 0.706077 0.870564
O O7 0.337180 0.801330 0.865133
O O8 0.375977 0.672272 0.829383
O O9 0.750000 0.183755 0.500000
O O10 0.775048 0.436227 0.355659
O O11 0.956910 0.403125 0.310188
O O12 0.896140 0.094393 0.215760
O O13 0.865023 0.966796 0.158942
#
# Coordination Sequence:
#
# PCOD8296849 Si02
#       6
#    16  16  16  16  16  16
#     4  11  23  41  70  99 137 183 231 280 353 416
#     4  12  23  43  71 107 134 177 236 292 346 415
#     4  11  21  38  66 104 133 177 227 293 340 407
#     4  12  24  46  74  97 144 183 232 296 350 415
#     4  11  25  48  67  98 142 188 228 284 359 427
#     4  11  27  43  70 103 134 183 234 287 354 417
#
# _framework density 21.219716999999999
#
# number of rings (size 3 to 8) (size 9 to 14) (size 15 to 20)
#    0.000    0.667    5.000    2.000    4.667    4.667 
#    0.000    3.333    0.000    0.000    0.000    0.000 
#    0.000    0.000    0.000    0.000    0.000    0.000 
#
# Total GULP energy -595533.292637 kJ/mol
# GULP energy per Si atom -12406.943597 kJ/mol
# Density = 2.117142 g / cm^3
# Si number density = 21.219717 Si / 1000 Ang^3
#
#
#
# Elastic Constant Matrix: (Units=GPa)
#
#
# Indices 1 2 3 4 5 6 
#
# 1 170.7424 36.7395 74.4916 0.0000 0.0000 0.0000
# 2 36.7395 79.1221 11.2033 0.0000 0.0000 0.0000
# 3 74.4916 11.2033 151.9899 0.0000 0.0000 0.0000
# 4 0.0000 0.0000 0.0000 25.5456 0.0000 0.0000
# 5 0.0000 0.0000 0.0000 0.0000 40.2188 0.0000
# 6 0.0000 0.0000 0.0000 0.0000 0.0000 25.3951
#
#
#
# Elastic Compliance Matrix: (Units=1/GPa)
#
#
# Indices 1 2 3 4 5 6 
#
# 1 0.008213 -0.003278 -0.003784 0.000000 0.000000 0.000000
# 2 -0.003278 0.014080 0.000569 0.000000 0.000000 0.000000
# 3 -0.003784 0.000569 0.008392 0.000000 0.000000 0.000000
# 4 0.000000 0.000000 0.000000 0.039146 0.000000 0.000000
# 5 0.000000 0.000000 0.000000 0.000000 0.024864 0.000000
# 6 0.000000 0.000000 0.000000 0.000000 0.000000 0.039378
#
#
# Mechanical properties :
#
#
# Convention : Reuss Voigt Hill
#
# Bulk Modulus (GPa) = 56.49927 71.85811 64.17869
# Shear Modulus (GPa) = 32.68886 36.85990 34.77438
#
# Velocity S-wave (km/s) = 3.92917 4.17233 4.05257
# Velocity P-wave (km/s) = 6.87518 7.55966 7.22553
#
# Compressibility (1/GPa) = 0.01769934
#
# Stress axis : x y z
#
# Youngs Moduli (GPa) = 121.76180 71.02183 119.16369
#
# Poissons Ratio (x) = 0.23279 0.45086
# Poissons Ratio (y) = 0.39911 -0.06776
# Poissons Ratio (z) = 0.46069 -0.04038
#
# Static dielectric constant tensor:
#      x y z
#    x 4.028560 0.000000 0.000000 
#    y 0.000000 4.141840 0.000000 
#    z 0.000000 0.000000 4.053600 
# 
# 
# High freq. dielectric constant tensor:
#      x y z
#    x 1.844000 0.000000 0.000000 
#    y 0.000000 1.820820 0.000000 
#    z 0.000000 0.000000 1.847290 
# 
# From -- ./inp_files/25452.got.cif
#   From: 2010.03.12/outbox.cif.g09.slc.cpg/sg73_13_cif.got.tgz:25452.got - 2010.04.16 15:25:48.
