data_PCOD8296470
_publ_section_title
;
Structure prediction by ZEFSAII (Michael W. Deem and Ramdas Pophale) SiO2 
 PCOD8296470
Probable space group: I B C A 
;
_chemical_formula_sum "Si O2"
_cell_formula_units_Z 96
_cell_length_a 23.694636
_cell_length_b 10.697877
_cell_length_c 17.284541
_cell_angle_alpha 90.000000
_cell_angle_beta 90.000000
_cell_angle_gamma 90.000000
_cell_volume 4381.325233
_symmetry_space_group_name_H-M "I B C A "
_symmetry_group_IT_number 73
_symmetry_cell_setting 'orthorhombic'
loop_
_space_group_symop_operation_xyz
x,y,z
-x,1/2-y,z
x,-y,1/2-z
1/2-x,y,-z
-x,-y,-z
x,1/2+y,-z
-x,y,1/2+z
1/2+x,-y,z
1/2+x,1/2+y,1/2+z
1/2-x,-y,1/2+z
1/2+x,1/2-y,-z
-x,1/2+y,1/2-z
1/2-x,1/2-y,1/2-z
1/2+x,y,1/2-z
1/2-x,1/2+y,z
x,1/2-y,1/2+z
loop_
_atom_site_type_symbol
_atom_site_label
_atom_site_fract_x
_atom_site_fract_y
_atom_site_fract_z
Si Si1 0.415863 0.430115 0.120172
Si Si2 0.365204 0.204874 0.183887
Si Si3 0.447598 0.660487 0.542843
Si Si4 0.532916 0.545497 0.334177
Si Si5 0.632091 0.192134 0.352645
Si Si6 0.247773 0.124900 0.199886
O O1 0.363275 0.342682 0.145630
O O2 0.472728 0.383959 0.164389
O O3 0.405273 0.568246 0.152052
O O4 0.426227 0.422821 0.028489
O O5 0.417087 0.137870 0.140915
O O6 0.373843 0.221982 0.276147
O O7 0.310009 0.121979 0.161561
O O8 0.500000 0.750000 0.518859
O O9 0.472509 0.569910 0.607572
O O10 0.391579 0.730916 0.574441
O O11 0.549703 0.500000 0.250000
O O12 0.697501 0.146283 0.362411
O O13 0.250000 0.250000 0.250000
O O14 0.236603 0.000000 0.250000
#
# Coordination Sequence:
#
# PCOD8296470 Si02
#       6
#    16  16  16  16  16  16
#     4  12  26  41  69  96 141 180 227 275 358 414
#     4  11  23  41  70 104 131 173 233 287 343 406
#     4  12  26  44  64  98 145 186 225 284 348 420
#     4  12  23  40  68 100 134 177 227 286 341 413
#     4  11  23  44  68  96 133 179 232 287 335 414
#     4  10  22  42  71 101 137 177 231 294 350 401
#
# _framework density 21.911176999999999
#
# number of rings (size 3 to 8) (size 9 to 14) (size 15 to 20)
#    0.000    0.667    3.333    6.000    4.667    0.000 
#    0.000    0.833    0.000    0.000    0.000    0.000 
#    0.000    0.000    0.000    0.000    0.000    0.000 
#
# Total GULP energy -594991.567912 kJ/mol
# GULP energy per Si atom -12395.657665 kJ/mol
# Density = 2.186131 g / cm^3
# Si number density = 21.911177 Si / 1000 Ang^3
#
#
#
# Elastic Constant Matrix: (Units=GPa)
#
#
# Indices 1 2 3 4 5 6 
#
# 1 163.9931 35.7419 24.8721 0.0000 0.0000 0.0000
# 2 35.7419 78.1031 5.8810 0.0000 0.0000 0.0000
# 3 24.8721 5.8810 48.1085 0.0000 0.0000 0.0000
# 4 0.0000 0.0000 0.0000 29.1160 0.0000 0.0000
# 5 0.0000 0.0000 0.0000 0.0000 19.1577 0.0000
# 6 0.0000 0.0000 0.0000 0.0000 0.0000 35.1064
#
#
#
# Elastic Compliance Matrix: (Units=1/GPa)
#
#
# Indices 1 2 3 4 5 6 
#
# 1 0.007283 -0.003077 -0.003389 0.000000 0.000000 0.000000
# 2 -0.003077 0.014223 -0.000148 0.000000 0.000000 0.000000
# 3 -0.003389 -0.000148 0.022556 0.000000 0.000000 0.000000
# 4 0.000000 0.000000 0.000000 0.034345 0.000000 0.000000
# 5 0.000000 0.000000 0.000000 0.000000 0.052198 0.000000
# 6 0.000000 0.000000 0.000000 0.000000 0.000000 0.028485
#
#
# Mechanical properties :
#
#
# Convention : Reuss Voigt Hill
#
# Bulk Modulus (GPa) = 32.43170 47.02163 39.72666
# Shear Modulus (GPa) = 27.38281 31.59002 29.48641
#
# Velocity S-wave (km/s) = 3.53897 3.80113 3.67239
# Velocity P-wave (km/s) = 5.61540 6.38526 6.01266
#
# Compressibility (1/GPa) = 0.03083403
#
# Stress axis : x y z
#
# Youngs Moduli (GPa) = 137.31512 70.30842 44.33330
#
# Poissons Ratio (x) = 0.21637 0.15024
# Poissons Ratio (y) = 0.42259 0.00655
# Poissons Ratio (z) = 0.46534 0.01038
#
# Static dielectric constant tensor:
#      x y z
#    x 4.868700 0.000000 0.000000 
#    y 0.000000 4.210090 0.000000 
#    z 0.000000 0.000000 3.615510 
# 
# 
# High freq. dielectric constant tensor:
#      x y z
#    x 1.873540 0.000000 0.000000 
#    y 0.000000 1.876440 0.000000 
#    z 0.000000 0.000000 1.825980 
# 
# From -- ./inp_files/23528.got.cif
#   From: 2010.03.12/outbox.cif.g09.slc.cpg/sg73_12_cif.got.tgz:23528.got - 2010.04.16 15:25:48.
