data_PCOD8296977
_publ_section_title
;
Structure prediction by ZEFSAII (Michael W. Deem and Ramdas Pophale) SiO2 
 PCOD8296977
Probable space group: I B C A 
;
_chemical_formula_sum "Si O2"
_cell_formula_units_Z 64
_cell_length_a 16.733966
_cell_length_b 9.783719
_cell_length_c 18.468772
_cell_angle_alpha 90.000000
_cell_angle_beta 90.000000
_cell_angle_gamma 90.000000
_cell_volume 3023.715129
_symmetry_space_group_name_H-M "I B C A "
_symmetry_group_IT_number 73
_symmetry_cell_setting 'orthorhombic'
loop_
_space_group_symop_operation_xyz
x,y,z
-x,1/2-y,z
x,-y,1/2-z
1/2-x,y,-z
-x,-y,-z
x,1/2+y,-z
-x,y,1/2+z
1/2+x,-y,z
1/2+x,1/2+y,1/2+z
1/2-x,-y,1/2+z
1/2+x,1/2-y,-z
-x,1/2+y,1/2-z
1/2-x,1/2-y,1/2-z
1/2+x,y,1/2-z
1/2-x,1/2+y,z
x,1/2-y,1/2+z
loop_
_atom_site_type_symbol
_atom_site_label
_atom_site_fract_x
_atom_site_fract_y
_atom_site_fract_z
Si Si1 0.213492 0.535312 0.577567
Si Si2 0.946075 0.873563 0.199353
Si Si3 0.770418 0.286567 0.832368
Si Si4 0.968466 0.399428 0.441330
O O1 0.250000 0.493438 0.500000
O O2 0.257198 0.662747 0.615829
O O3 0.219948 0.413091 0.635879
O O4 0.125498 0.586520 0.561841
O O5 0.865434 0.812192 0.164918
O O6 0.000000 0.750000 0.234488
O O7 0.997207 0.942136 0.136145
O O8 0.924066 0.000000 0.250000
O O9 0.750000 0.250000 0.750000
O O10 0.000000 0.250000 0.462533
O O11 0.000000 0.500000 0.500000
#
# Coordination Sequence:
#
# PCOD8296977 Si02
#       4
#    16  16  16  16
#     4  12  26  45  73 101 144 181 234 291 349 417
#     4  11  24  45  68 101 139 176 232 280 348 415
#     4  12  26  46  71 106 137 185 233 289 351 420
#     4  11  25  46  71 102 138 180 232 282 348 415
#
# _framework density 21.166013
#
# number of rings (size 3 to 8) (size 9 to 14) (size 15 to 20)
#    0.000    0.500    5.000    4.500    7.000    1.000 
#    0.000    0.000    0.000    0.000    0.000    0.000 
#    0.000    0.000    0.000    0.000    0.000    0.000 
#
# Total GULP energy -396653.367060 kJ/mol
# GULP energy per Si atom -12395.417721 kJ/mol
# Density = 2.111784 g / cm^3
# Si number density = 21.166013 Si / 1000 Ang^3
#
#
#
# Elastic Constant Matrix: (Units=GPa)
#
#
# Indices 1 2 3 4 5 6 
#
# 1 99.4085 32.3495 31.3233 0.0000 0.0000 0.0000
# 2 32.3495 157.1688 66.1017 0.0000 0.0000 0.0000
# 3 31.3233 66.1017 131.9048 0.0000 0.0000 0.0000
# 4 0.0000 0.0000 0.0000 47.2828 0.0000 0.0000
# 5 0.0000 0.0000 0.0000 0.0000 33.0918 0.0000
# 6 0.0000 0.0000 0.0000 0.0000 0.0000 25.3284
#
#
#
# Elastic Compliance Matrix: (Units=1/GPa)
#
#
# Indices 1 2 3 4 5 6 
#
# 1 0.011144 -0.001496 -0.001897 0.000000 0.000000 0.000000
# 2 -0.001496 0.008263 -0.003785 0.000000 0.000000 0.000000
# 3 -0.001897 -0.003785 0.009929 0.000000 0.000000 0.000000
# 4 0.000000 0.000000 0.000000 0.021149 0.000000 0.000000
# 5 0.000000 0.000000 0.000000 0.000000 0.030219 0.000000
# 6 0.000000 0.000000 0.000000 0.000000 0.000000 0.039481
#
#
# Mechanical properties :
#
#
# Convention : Reuss Voigt Hill
#
# Bulk Modulus (GPa) = 66.76002 72.00346 69.38174
# Shear Modulus (GPa) = 35.83359 38.38778 37.11068
#
# Velocity S-wave (km/s) = 4.11904 4.26332 4.19180
# Velocity P-wave (km/s) = 7.36421 7.63720 7.50195
#
# Compressibility (1/GPa) = 0.01497902
#
# Stress axis : x y z
#
# Youngs Moduli (GPa) = 89.73467 121.02799 100.71931
#
# Poissons Ratio (x) = 0.18106 0.19103
# Poissons Ratio (y) = 0.13425 0.38126
# Poissons Ratio (z) = 0.17019 0.45814
#
# Static dielectric constant tensor:
#      x y z
#    x 3.905240 0.000000 0.000000 
#    y 0.000000 3.952730 0.000000 
#    z 0.000000 0.000000 3.876110 
# 
# 
# High freq. dielectric constant tensor:
#      x y z
#    x 1.837030 0.000000 0.000000 
#    y 0.000000 1.843820 0.000000 
#    z 0.000000 0.000000 1.837580 
# 
# From -- ./inp_files/5228.got.cif
#   From: 2010.03.12/outbox.cif.g09.slc.cpg/sg73_3_cif.got.tgz:5228.got - 2010.04.16 15:25:48.
