data_PCOD8296831
_publ_section_title
;
Structure prediction by ZEFSAII (Michael W. Deem and Ramdas Pophale) SiO2 
 PCOD8296831
Probable space group: I B C A 
;
_chemical_formula_sum "Si O2"
_cell_formula_units_Z 120
_cell_length_a 20.740505
_cell_length_b 13.429511
_cell_length_c 21.920717
_cell_angle_alpha 90.000000
_cell_angle_beta 90.000000
_cell_angle_gamma 90.000000
_cell_volume 6105.683403
_symmetry_space_group_name_H-M "I B C A "
_symmetry_group_IT_number 73
_symmetry_cell_setting 'orthorhombic'
loop_
_space_group_symop_operation_xyz
x,y,z
-x,1/2-y,z
x,-y,1/2-z
1/2-x,y,-z
-x,-y,-z
x,1/2+y,-z
-x,y,1/2+z
1/2+x,-y,z
1/2+x,1/2+y,1/2+z
1/2-x,-y,1/2+z
1/2+x,1/2-y,-z
-x,1/2+y,1/2-z
1/2-x,1/2-y,1/2-z
1/2+x,y,1/2-z
1/2-x,1/2+y,z
x,1/2-y,1/2+z
loop_
_atom_site_type_symbol
_atom_site_label
_atom_site_fract_x
_atom_site_fract_y
_atom_site_fract_z
Si Si1 0.676130 0.172454 0.347757
Si Si2 0.500000 0.750000 0.332103
Si Si3 0.788708 0.010824 0.909035
Si Si4 0.176052 0.766077 0.976597
Si Si5 0.596922 0.618285 0.755447
Si Si6 0.656852 0.014726 0.967246
Si Si7 0.888137 0.330928 0.910439
Si Si8 0.704983 0.705067 0.837485
O O1 0.699587 0.056612 0.348970
O O2 0.669186 0.193570 0.419344
O O3 0.608137 0.169699 0.311058
O O4 0.726285 0.249556 0.315178
O O5 0.462312 0.670606 0.289906
O O6 0.455378 0.809414 0.378467
O O7 0.724825 0.973436 0.942595
O O8 0.781702 0.127489 0.892234
O O9 0.846349 0.001826 0.959212
O O10 0.148534 0.870124 0.951434
O O11 0.250000 0.773102 0.000000
O O12 0.126686 0.730478 0.028339
O O13 0.583642 0.500000 0.750000
O O14 0.665465 0.642427 0.787589
O O15 0.606395 0.947155 0.929762
O O16 0.833590 0.301784 0.861183
#
# Coordination Sequence:
#
# PCOD8296831 Si02
#       8
#    16   8  16  16  16  16  16  16
#     4  12  21  35  62  99 129 159 200 249 322 383
#     4  10  28  52  64  76 116 178 228 270 310 348
#     4  11  18  29  57  97 136 162 180 232 317 400
#     4  12  19  33  62 102 140 159 178 252 332 394
#     4  11  25  46  68  82 116 174 226 268 309 367
#     4  11  18  30  56  98 132 161 191 233 318 389
#     4  11  21  38  64  86 124 171 205 249 310 385
#     4  11  20  36  61  94 132 164 197 245 322 390
#
# _framework density 19.65382
#
# number of rings (size 3 to 8) (size 9 to 14) (size 15 to 20)
#    0.000    0.800    9.333    0.400    0.000    0.000 
#    2.400    1.333    0.000    0.000    0.000    0.000 
#    0.000    0.000    0.000    0.000    0.000    0.000 
#
# Total GULP energy -743316.829772 kJ/mol
# GULP energy per Si atom -12388.613830 kJ/mol
# Density = 1.960909 g / cm^3
# Si number density = 19.653820 Si / 1000 Ang^3
#
#
#
# Elastic Constant Matrix: (Units=GPa)
#
#
# Indices 1 2 3 4 5 6 
#
# 1 89.5033 48.0977 48.9402 0.0000 0.0000 0.0000
# 2 48.0977 121.8349 42.7439 0.0000 0.0000 0.0000
# 3 48.9402 42.7439 80.9910 0.0000 0.0000 0.0000
# 4 0.0000 0.0000 0.0000 31.6177 0.0000 0.0000
# 5 0.0000 0.0000 0.0000 0.0000 35.6297 0.0000
# 6 0.0000 0.0000 0.0000 0.0000 0.0000 17.1495
#
#
#
# Elastic Compliance Matrix: (Units=1/GPa)
#
#
# Indices 1 2 3 4 5 6 
#
# 1 0.018203 -0.004083 -0.008845 0.000000 0.000000 0.000000
# 2 -0.004083 0.010989 -0.003332 0.000000 0.000000 0.000000
# 3 -0.008845 -0.003332 0.019450 0.000000 0.000000 0.000000
# 4 0.000000 0.000000 0.000000 0.031628 0.000000 0.000000
# 5 0.000000 0.000000 0.000000 0.000000 0.028066 0.000000
# 6 0.000000 0.000000 0.000000 0.000000 0.000000 0.058311
#
#
# Mechanical properties :
#
#
# Convention : Reuss Voigt Hill
#
# Bulk Modulus (GPa) = 62.02617 63.54363 62.78490
# Shear Modulus (GPa) = 24.44493 27.04921 25.74707
#
# Velocity S-wave (km/s) = 3.53055 3.71385 3.62336
# Velocity P-wave (km/s) = 6.94604 7.12684 7.03702
#
# Compressibility (1/GPa) = 0.01612223
#
# Stress axis : x y z
#
# Youngs Moduli (GPa) = 54.93509 91.00165 51.41347
#
# Poissons Ratio (x) = 0.37158 0.45474
# Poissons Ratio (y) = 0.22431 0.17131
# Poissons Ratio (z) = 0.48588 0.30323
#
# Static dielectric constant tensor:
#      x y z
#    x 3.186960 0.000000 0.000000 
#    y 0.000000 3.757200 0.000000 
#    z 0.000000 0.000000 3.716940 
# 
# 
# High freq. dielectric constant tensor:
#      x y z
#    x 1.709040 0.000000 0.000000 
#    y 0.000000 1.784340 0.000000 
#    z 0.000000 0.000000 1.773320 
# 
# From -- ./inp_files/30220.got.cif
#   From: 2010.03.12/outbox.cif.g09.slc.cpg/sg73_16_cif.got.tgz:30220.got - 2010.04.16 15:25:48.
