data_PCOD8296067
_publ_section_title
;
Structure prediction by ZEFSAII (Michael W. Deem and Ramdas Pophale) SiO2 
 PCOD8296067
Probable space group: I B C A 
;
_chemical_formula_sum "Si O2"
_cell_formula_units_Z 88
_cell_length_a 20.401178
_cell_length_b 13.225996
_cell_length_c 13.833257
_cell_angle_alpha 90.000000
_cell_angle_beta 90.000000
_cell_angle_gamma 90.000000
_cell_volume 3732.571001
_symmetry_space_group_name_H-M "I B C A "
_symmetry_group_IT_number 73
_symmetry_cell_setting 'orthorhombic'
loop_
_space_group_symop_operation_xyz
x,y,z
-x,1/2-y,z
x,-y,1/2-z
1/2-x,y,-z
-x,-y,-z
x,1/2+y,-z
-x,y,1/2+z
1/2+x,-y,z
1/2+x,1/2+y,1/2+z
1/2-x,-y,1/2+z
1/2+x,1/2-y,-z
-x,1/2+y,1/2-z
1/2-x,1/2-y,1/2-z
1/2+x,y,1/2-z
1/2-x,1/2+y,z
x,1/2-y,1/2+z
loop_
_atom_site_type_symbol
_atom_site_label
_atom_site_fract_x
_atom_site_fract_y
_atom_site_fract_z
Si Si1 0.950363 0.091077 0.972603
Si Si2 0.000000 0.750000 0.882721
Si Si3 0.082287 0.302521 0.785558
Si Si4 0.147983 0.396662 0.307834
Si Si5 0.709883 0.388851 0.786623
Si Si6 0.177927 0.471665 0.515490
O O1 0.955174 0.177078 0.053186
O O2 0.962115 0.144068 0.868143
O O3 0.875113 0.057681 0.964628
O O4 0.000000 0.000000 0.000000
O O5 0.045875 0.678517 0.816143
O O6 0.087617 0.180609 0.796042
O O7 0.156445 0.341882 0.784088
O O8 0.131697 0.500000 0.250000
O O9 0.216757 0.341939 0.275030
O O10 0.153448 0.413809 0.421556
O O11 0.722993 0.500000 0.750000
O O12 0.683271 0.390763 0.897018
O O13 0.250000 0.521882 0.500000
#
# Coordination Sequence:
#
# PCOD8296067 Si02
#       6
#    16   8  16  16  16  16
#     4  12  28  49  76 102 149 196 251 307 375 454
#     4  12  30  46  68 104 142 188 256 306 366 456
#     4  12  26  46  71 103 141 195 246 299 378 445
#     4  10  23  43  72 105 145 183 239 303 374 447
#     4  10  20  42  71 106 140 183 237 305 373 445
#     4  10  22  44  73 104 139 184 237 304 372 433
#
# _framework density 23.576243999999999
#
# number of rings (size 3 to 8) (size 9 to 14) (size 15 to 20)
#    0.000    1.091    1.818    3.273    7.636    0.000 
#    3.273    0.000    0.000    0.000    0.000    0.000 
#    0.000    0.000    0.000    0.000    0.000    0.000 
#
# Total GULP energy -545275.776403 kJ/mol
# GULP energy per Si atom -12392.631282 kJ/mol
# Density = 2.352258 g / cm^3
# Si number density = 23.576244 Si / 1000 Ang^3
#
#
#
# Elastic Constant Matrix: (Units=GPa)
#
#
# Indices 1 2 3 4 5 6 
#
# 1 103.1003 45.1780 23.1137 0.0000 0.0000 0.0000
# 2 45.1780 71.6288 29.5710 0.0000 0.0000 0.0000
# 3 23.1137 29.5710 131.4782 0.0000 0.0000 0.0000
# 4 0.0000 0.0000 0.0000 27.0262 0.0000 0.0000
# 5 0.0000 0.0000 0.0000 0.0000 40.3534 0.0000
# 6 0.0000 0.0000 0.0000 0.0000 0.0000 38.3652
#
#
#
# Elastic Compliance Matrix: (Units=1/GPa)
#
#
# Indices 1 2 3 4 5 6 
#
# 1 0.013434 -0.008266 -0.000503 0.000000 0.000000 0.000000
# 2 -0.008266 0.020475 -0.003152 0.000000 0.000000 0.000000
# 3 -0.000503 -0.003152 0.008403 0.000000 0.000000 0.000000
# 4 0.000000 0.000000 0.000000 0.037001 0.000000 0.000000
# 5 0.000000 0.000000 0.000000 0.000000 0.024781 0.000000
# 6 0.000000 0.000000 0.000000 0.000000 0.000000 0.026065
#
#
# Mechanical properties :
#
#
# Convention : Reuss Voigt Hill
#
# Bulk Modulus (GPa) = 54.13635 55.77030 54.95332
# Shear Modulus (GPa) = 31.21918 35.03859 33.12889
#
# Velocity S-wave (km/s) = 3.64288 3.85929 3.75264
# Velocity P-wave (km/s) = 6.38014 6.60041 6.49121
#
# Compressibility (1/GPa) = 0.01847188
#
# Stress axis : x y z
#
# Youngs Moduli (GPa) = 74.43842 48.83891 119.00328
#
# Poissons Ratio (x) = 0.40368 0.05981
# Poissons Ratio (y) = 0.61528 0.37511
# Poissons Ratio (z) = 0.03742 0.15395
#
# Static dielectric constant tensor:
#      x y z
#    x 4.552700 0.000000 0.000000 
#    y 0.000000 3.869640 0.000000 
#    z 0.000000 0.000000 3.366290 
# 
# 
# High freq. dielectric constant tensor:
#      x y z
#    x 1.952820 0.000000 0.000000 
#    y 0.000000 1.910910 0.000000 
#    z 0.000000 0.000000 1.947210 
# 
# From -- ./inp_files/18552.got.cif
#   From: 2010.03.12/outbox.cif.g09.slc.cpg/sg73_10_cif.got.tgz:18552.got - 2010.04.16 15:25:48.
