data_PCOD8296187
_publ_section_title
;
Structure prediction by ZEFSAII (Michael W. Deem and Ramdas Pophale) SiO2 
 PCOD8296187
Probable space group: I B C A 
;
_chemical_formula_sum "Si O2"
_cell_formula_units_Z 112
_cell_length_a 20.020682
_cell_length_b 24.806118
_cell_length_c 10.772164
_cell_angle_alpha 90.000000
_cell_angle_beta 90.000000
_cell_angle_gamma 90.000000
_cell_volume 5349.837978
_symmetry_space_group_name_H-M "I B C A "
_symmetry_group_IT_number 73
_symmetry_cell_setting 'orthorhombic'
loop_
_space_group_symop_operation_xyz
x,y,z
-x,1/2-y,z
x,-y,1/2-z
1/2-x,y,-z
-x,-y,-z
x,1/2+y,-z
-x,y,1/2+z
1/2+x,-y,z
1/2+x,1/2+y,1/2+z
1/2-x,-y,1/2+z
1/2+x,1/2-y,-z
-x,1/2+y,1/2-z
1/2-x,1/2-y,1/2-z
1/2+x,y,1/2-z
1/2-x,1/2+y,z
x,1/2-y,1/2+z
loop_
_atom_site_type_symbol
_atom_site_label
_atom_site_fract_x
_atom_site_fract_y
_atom_site_fract_z
Si Si1 0.130036 0.913807 0.906755
Si Si2 0.606364 0.616563 0.827398
Si Si3 0.807979 0.950536 0.836873
Si Si4 0.683766 0.701267 0.153208
Si Si5 0.338646 0.466889 0.612538
Si Si6 0.334858 0.224289 0.622928
Si Si7 0.473650 0.560605 0.761876
O O1 0.162055 0.860663 0.848421
O O2 0.050856 0.917068 0.872557
O O3 0.163227 0.968856 0.847051
O O4 0.138744 0.913200 0.053789
O O5 0.652422 0.601855 0.710673
O O6 0.607888 0.680800 0.845571
O O7 0.529545 0.599870 0.814076
O O8 0.729072 0.937400 0.842923
O O9 0.825317 0.000000 0.750000
O O10 0.840693 0.966506 0.965718
O O11 0.653876 0.725518 0.282681
O O12 0.763414 0.699308 0.157411
O O13 0.661221 0.734932 0.027542
O O14 0.406165 0.436953 0.654851
O O15 0.502625 0.500000 0.750000
#
# Coordination Sequence:
#
# PCOD8296187 Si02
#       7
#    16  16  16  16  16  16  16
#     4  10  21  39  62  83 118 166 202 245 307 360
#     4  11  23  37  62  87 121 163 207 242 304 372
#     4  11  21  36  58  90 123 160 207 255 288 358
#     4   9  19  39  63  90 118 152 199 264 313 367
#     4  10  23  37  57  88 129 162 205 249 301 353
#     4   9  20  38  63  91 119 151 202 256 318 368
#     4  10  23  39  56  87 128 165 202 246 295 362
#
# _framework density 20.935213999999998
#
# number of rings (size 3 to 8) (size 9 to 14) (size 15 to 20)
#    0.000    2.000    1.429    1.714    6.000    2.286 
#    2.571    2.143    0.000    3.429    0.000    0.000 
#    0.000    0.000    0.000    0.000    0.000    0.000 
#
# Total GULP energy -694006.052858 kJ/mol
# GULP energy per Si atom -12392.965230 kJ/mol
# Density = 2.088756 g / cm^3
# Si number density = 20.935214 Si / 1000 Ang^3
#
#
#
# Elastic Constant Matrix: (Units=GPa)
#
#
# Indices 1 2 3 4 5 6 
#
# 1 107.5752 45.2496 38.5616 0.0000 0.0000 0.0000
# 2 45.2496 77.5849 39.0992 0.0000 0.0000 0.0000
# 3 38.5616 39.0992 98.2971 0.0000 0.0000 0.0000
# 4 0.0000 0.0000 0.0000 34.8710 0.0000 0.0000
# 5 0.0000 0.0000 0.0000 0.0000 27.8341 0.0000
# 6 0.0000 0.0000 0.0000 0.0000 0.0000 25.7341
#
#
#
# Elastic Compliance Matrix: (Units=1/GPa)
#
#
# Indices 1 2 3 4 5 6 
#
# 1 0.012816 -0.006180 -0.002570 0.000000 0.000000 0.000000
# 2 -0.006180 0.019100 -0.005173 0.000000 0.000000 0.000000
# 3 -0.002570 -0.005173 0.013239 0.000000 0.000000 0.000000
# 4 0.000000 0.000000 0.000000 0.028677 0.000000 0.000000
# 5 0.000000 0.000000 0.000000 0.000000 0.035927 0.000000
# 6 0.000000 0.000000 0.000000 0.000000 0.000000 0.038859
#
#
# Mechanical properties :
#
#
# Convention : Reuss Voigt Hill
#
# Bulk Modulus (GPa) = 57.76865 58.80865 58.28865
# Shear Modulus (GPa) = 27.43716 28.39096 27.91406
#
# Velocity S-wave (km/s) = 3.62411 3.68657 3.65547
# Velocity P-wave (km/s) = 6.72058 6.80241 6.76162
#
# Compressibility (1/GPa) = 0.01731043
#
# Stress axis : x y z
#
# Youngs Moduli (GPa) = 78.02503 52.35497 75.53432
#
# Poissons Ratio (x) = 0.32355 0.19410
# Poissons Ratio (y) = 0.48218 0.39075
# Poissons Ratio (z) = 0.20050 0.27084
#
# Static dielectric constant tensor:
#      x y z
#    x 3.565780 0.000000 0.000000 
#    y 0.000000 3.506090 0.000000 
#    z 0.000000 0.000000 4.290960 
# 
# 
# High freq. dielectric constant tensor:
#      x y z
#    x 1.802100 0.000000 0.000000 
#    y 0.000000 1.789680 0.000000 
#    z 0.000000 0.000000 1.845020 
# 
# From -- ./inp_files/13051.got.cif
#   From: 2010.03.12/outbox.cif.g09.slc.cpg/sg73_7_cif.got.tgz:13051.got - 2010.04.16 15:25:48.
