data_PCOD8296806
_publ_section_title
;
Structure prediction by ZEFSAII (Michael W. Deem and Ramdas Pophale) SiO2 
 PCOD8296806
Probable space group: I B C A 
;
_chemical_formula_sum "Si O2"
_cell_formula_units_Z 80
_cell_length_a 25.791656
_cell_length_b 16.616542
_cell_length_c 8.675212
_cell_angle_alpha 90.000000
_cell_angle_beta 90.000000
_cell_angle_gamma 90.000000
_cell_volume 3717.919429
_symmetry_space_group_name_H-M "I B C A "
_symmetry_group_IT_number 73
_symmetry_cell_setting 'orthorhombic'
loop_
_space_group_symop_operation_xyz
x,y,z
-x,1/2-y,z
x,-y,1/2-z
1/2-x,y,-z
-x,-y,-z
x,1/2+y,-z
-x,y,1/2+z
1/2+x,-y,z
1/2+x,1/2+y,1/2+z
1/2-x,-y,1/2+z
1/2+x,1/2-y,-z
-x,1/2+y,1/2-z
1/2-x,1/2-y,1/2-z
1/2+x,y,1/2-z
1/2-x,1/2+y,z
x,1/2-y,1/2+z
loop_
_atom_site_type_symbol
_atom_site_label
_atom_site_fract_x
_atom_site_fract_y
_atom_site_fract_z
Si Si1 0.023255 0.163772 0.938188
Si Si2 0.873557 0.337711 0.762980
Si Si3 0.433673 0.592929 0.250681
Si Si4 0.750000 0.583798 0.000000
Si Si5 0.344024 0.316976 0.087352
Si Si6 0.181572 0.500000 0.250000
O O1 0.048748 0.122589 0.084471
O O2 0.000000 0.250000 0.983560
O O3 0.066291 0.174629 0.805086
O O4 0.978467 0.105982 0.875994
O O5 0.838126 0.275621 0.860146
O O6 0.868268 0.321461 0.582215
O O7 0.855010 0.427339 0.806239
O O8 0.419056 0.500000 0.250000
O O9 0.381866 0.640321 0.292305
O O10 0.787963 0.641333 0.097617
O O11 0.717254 0.526590 0.109565
#
# Coordination Sequence:
#
# PCOD8296806 Si02
#       6
#    16  16  16   8  16   8
#     4  12  25  44  69 105 143 190 231 282 351 423
#     4  11  25  45  71 102 143 182 234 288 350 422
#     4  12  27  42  70 104 143 188 235 286 345 420
#     4  10  26  46  72 104 140 180 244 288 356 408
#     4  11  25  46  69 104 137 188 238 288 354 416
#     4  10  26  44  74 104 138 184 230 306 342 414
#
# _framework density 21.517410000000002
#
# number of rings (size 3 to 8) (size 9 to 14) (size 15 to 20)
#    0.000    0.800    2.000    3.600    8.400    5.600 
#    0.000    0.000    0.000    0.000    0.000    0.000 
#    0.000    0.000    0.000    0.000    0.000    0.000 
#
# Total GULP energy -496309.472416 kJ/mol
# GULP energy per Si atom -12407.736810 kJ/mol
# Density = 2.146844 g / cm^3
# Si number density = 21.517410 Si / 1000 Ang^3
#
#
#
# Elastic Constant Matrix: (Units=GPa)
#
#
# Indices 1 2 3 4 5 6 
#
# 1 85.0378 32.6363 15.9956 0.0000 0.0000 0.0000
# 2 32.6363 164.1686 33.8572 0.0000 0.0000 0.0000
# 3 15.9956 33.8572 76.8608 0.0000 0.0000 0.0000
# 4 0.0000 0.0000 0.0000 36.2682 0.0000 0.0000
# 5 0.0000 0.0000 0.0000 0.0000 26.0715 0.0000
# 6 0.0000 0.0000 0.0000 0.0000 0.0000 20.4260
#
#
#
# Elastic Compliance Matrix: (Units=1/GPa)
#
#
# Indices 1 2 3 4 5 6 
#
# 1 0.012933 -0.002217 -0.001715 0.000000 0.000000 0.000000
# 2 -0.002217 0.007080 -0.002657 0.000000 0.000000 0.000000
# 3 -0.001715 -0.002657 0.014538 0.000000 0.000000 0.000000
# 4 0.000000 0.000000 0.000000 0.027572 0.000000 0.000000
# 5 0.000000 0.000000 0.000000 0.000000 0.038356 0.000000
# 6 0.000000 0.000000 0.000000 0.000000 0.000000 0.048957
#
#
# Mechanical properties :
#
#
# Convention : Reuss Voigt Hill
#
# Bulk Modulus (GPa) = 46.78985 54.56059 50.67522
# Shear Modulus (GPa) = 29.45684 32.79167 31.12426
#
# Velocity S-wave (km/s) = 3.70398 3.90803 3.80737
# Velocity P-wave (km/s) = 6.33127 6.76573 6.55210
#
# Compressibility (1/GPa) = 0.02137216
#
# Stress axis : x y z
#
# Youngs Moduli (GPa) = 77.32135 141.23989 68.78547
#
# Poissons Ratio (x) = 0.31319 0.11795
# Poissons Ratio (y) = 0.17145 0.18279
# Poissons Ratio (z) = 0.13259 0.37532
#
# Static dielectric constant tensor:
#      x y z
#    x 4.052590 0.000000 0.000000 
#    y 0.000000 4.145190 0.000000 
#    z 0.000000 0.000000 3.847870 
# 
# 
# High freq. dielectric constant tensor:
#      x y z
#    x 1.851040 0.000000 0.000000 
#    y 0.000000 1.860260 0.000000 
#    z 0.000000 0.000000 1.851640 
# 
# From -- ./inp_files/7744.got.cif
#   From: 2010.03.12/outbox.cif.g09.slc.cpg/sg73_4_cif.got.tgz:7744.got - 2010.04.16 15:25:48.
