data_PCOD8296467
_publ_section_title
;
Structure prediction by ZEFSAII (Michael W. Deem and Ramdas Pophale) SiO2 
 PCOD8296467
Probable space group: I B C A 
;
_chemical_formula_sum "Si O2"
_cell_formula_units_Z 96
_cell_length_a 22.305170
_cell_length_b 13.261033
_cell_length_c 14.038809
_cell_angle_alpha 90.000000
_cell_angle_beta 90.000000
_cell_angle_gamma 90.000000
_cell_volume 4152.533635
_symmetry_space_group_name_H-M "I B C A "
_symmetry_group_IT_number 73
_symmetry_cell_setting 'orthorhombic'
loop_
_space_group_symop_operation_xyz
x,y,z
-x,1/2-y,z
x,-y,1/2-z
1/2-x,y,-z
-x,-y,-z
x,1/2+y,-z
-x,y,1/2+z
1/2+x,-y,z
1/2+x,1/2+y,1/2+z
1/2-x,-y,1/2+z
1/2+x,1/2-y,-z
-x,1/2+y,1/2-z
1/2-x,1/2-y,1/2-z
1/2+x,y,1/2-z
1/2-x,1/2+y,z
x,1/2-y,1/2+z
loop_
_atom_site_type_symbol
_atom_site_label
_atom_site_fract_x
_atom_site_fract_y
_atom_site_fract_z
Si Si1 0.376659 0.996676 0.143757
Si Si2 0.500000 0.250000 0.552160
Si Si3 0.176003 0.311593 0.820433
Si Si4 0.492658 0.032014 0.608391
Si Si5 0.892273 0.000000 0.750000
Si Si6 0.125096 0.806972 0.518831
Si Si7 0.190980 0.302882 0.134177
O O1 0.447951 0.990620 0.159684
O O2 0.361036 0.086547 0.070120
O O3 0.347287 0.000000 0.250000
O O4 0.349673 0.895598 0.097209
O O5 0.485476 0.153335 0.619143
O O6 0.555789 0.211187 0.486023
O O7 0.152587 0.408383 0.765141
O O8 0.130355 0.279857 0.901817
O O9 0.239026 0.329528 0.875116
O O10 0.179813 0.221080 0.744737
O O11 0.434637 0.980466 0.657658
O O12 0.500000 0.000000 0.500000
O O13 0.171724 0.792345 0.432174
#
# Coordination Sequence:
#
# PCOD8296467 Si02
#       7
#    16   8  16  16   8  16  16
#     4  11  23  43  74 101 139 189 241 308 368 437
#     4  10  22  42  70 102 148 176 232 302 354 450
#     4  11  26  45  69 101 146 188 239 304 361 442
#     4  11  24  44  68 104 142 181 239 296 370 453
#     4  12  26  44  68 106 148 188 240 306 372 440
#     4  11  23  45  70 105 143 190 239 300 371 439
#     4  11  26  46  71 102 140 191 248 296 368 447
#
# _framework density 23.118417000000001
#
# number of rings (size 3 to 8) (size 9 to 14) (size 15 to 20)
#    0.000    1.000    4.167    1.500    5.833    0.000 
#    0.000    1.667    0.000    0.000    0.000    0.000 
#    0.000    0.000    0.000    0.000    0.000    0.000 
#
# Total GULP energy -594987.314076 kJ/mol
# GULP energy per Si atom -12395.569043 kJ/mol
# Density = 2.306580 g / cm^3
# Si number density = 23.118417 Si / 1000 Ang^3
#
#
#
# Elastic Constant Matrix: (Units=GPa)
#
#
# Indices 1 2 3 4 5 6 
#
# 1 139.9288 60.6647 38.8764 0.0000 0.0000 0.0000
# 2 60.6647 110.7322 24.3617 0.0000 0.0000 0.0000
# 3 38.8764 24.3617 101.4218 0.0000 0.0000 0.0000
# 4 0.0000 0.0000 0.0000 35.6978 0.0000 0.0000
# 5 0.0000 0.0000 0.0000 0.0000 42.2416 0.0000
# 6 0.0000 0.0000 0.0000 0.0000 0.0000 38.3135
#
#
#
# Elastic Compliance Matrix: (Units=1/GPa)
#
#
# Indices 1 2 3 4 5 6 
#
# 1 0.010009 -0.004898 -0.002660 0.000000 0.000000 0.000000
# 2 -0.004898 0.011932 -0.000988 0.000000 0.000000 0.000000
# 3 -0.002660 -0.000988 0.011117 0.000000 0.000000 0.000000
# 4 0.000000 0.000000 0.000000 0.028013 0.000000 0.000000
# 5 0.000000 0.000000 0.000000 0.000000 0.023673 0.000000
# 6 0.000000 0.000000 0.000000 0.000000 0.000000 0.026100
#
#
# Mechanical properties :
#
#
# Convention : Reuss Voigt Hill
#
# Bulk Modulus (GPa) = 62.64015 66.65427 64.64721
# Shear Modulus (GPa) = 37.52074 38.46257 37.99165
#
# Velocity S-wave (km/s) = 4.03299 4.08330 4.05822
# Velocity P-wave (km/s) = 6.98863 7.15020 7.06987
#
# Compressibility (1/GPa) = 0.01596420
#
# Stress axis : x y z
#
# Youngs Moduli (GPa) = 99.90868 83.80970 89.95324
#
# Poissons Ratio (x) = 0.41052 0.23928
# Poissons Ratio (y) = 0.48938 0.08891
# Poissons Ratio (z) = 0.26576 0.08284
#
# Static dielectric constant tensor:
#      x y z
#    x 4.210690 0.000000 0.000000 
#    y 0.000000 4.284030 0.000000 
#    z 0.000000 0.000000 4.092480 
# 
# 
# High freq. dielectric constant tensor:
#      x y z
#    x 1.918810 0.000000 0.000000 
#    y 0.000000 1.911030 0.000000 
#    z 0.000000 0.000000 1.905110 
# 
# From -- ./inp_files/18694.got.cif
#   From: 2010.03.12/outbox.cif.g09.slc.cpg/sg73_10_cif.got.tgz:18694.got - 2010.04.16 15:25:48.
