data_PCOD8296947
_publ_section_title
;
Structure prediction by ZEFSAII (Michael W. Deem and Ramdas Pophale) SiO2 
 PCOD8296947
Probable space group: I B C A 
;
_chemical_formula_sum "Si O2"
_cell_formula_units_Z 88
_cell_length_a 9.020084
_cell_length_b 26.919288
_cell_length_c 15.369275
_cell_angle_alpha 90.000000
_cell_angle_beta 90.000000
_cell_angle_gamma 90.000000
_cell_volume 3731.878813
_symmetry_space_group_name_H-M "I B C A "
_symmetry_group_IT_number 73
_symmetry_cell_setting 'orthorhombic'
loop_
_space_group_symop_operation_xyz
x,y,z
-x,1/2-y,z
x,-y,1/2-z
1/2-x,y,-z
-x,-y,-z
x,1/2+y,-z
-x,y,1/2+z
1/2+x,-y,z
1/2+x,1/2+y,1/2+z
1/2-x,-y,1/2+z
1/2+x,1/2-y,-z
-x,1/2+y,1/2-z
1/2-x,1/2-y,1/2-z
1/2+x,y,1/2-z
1/2-x,1/2+y,z
x,1/2-y,1/2+z
loop_
_atom_site_type_symbol
_atom_site_label
_atom_site_fract_x
_atom_site_fract_y
_atom_site_fract_z
Si Si1 0.750000 0.623464 0.000000
Si Si2 0.873319 0.948688 0.167260
Si Si3 0.569921 0.695755 0.710016
Si Si4 0.140466 0.838622 0.653117
Si Si5 0.274592 0.544566 0.352987
Si Si6 0.479953 0.692115 0.017609
O O1 0.773478 0.588323 0.917301
O O2 0.615210 0.660349 0.979832
O O3 0.826172 0.895535 0.128934
O O4 0.819728 0.947294 0.266341
O O5 0.049686 0.957786 0.162298
O O6 0.784464 0.990828 0.112343
O O7 0.500000 0.750000 0.718357
O O8 0.747976 0.691761 0.717458
O O9 0.510611 0.662763 0.790041
O O10 0.550796 0.670510 0.614002
O O11 0.142164 0.811571 0.559063
O O12 0.500000 0.750000 0.031903
#
# Coordination Sequence:
#
# PCOD8296947 Si02
#       6
#     8  16  16  16  16  16
#     4  12  26  48  72 106 144 188 240 306 364 430
#     4  11  23  44  70 102 137 188 240 295 361 430
#     4  11  26  43  71 104 144 186 240 294 365 440
#     4  12  24  46  71 106 138 189 234 300 361 434
#     4  11  24  45  73 103 141 190 241 301 362 433
#     4  11  27  45  73 100 147 185 239 293 367 429
#
# _framework density 23.580615999999999
#
# number of rings (size 3 to 8) (size 9 to 14) (size 15 to 20)
#    0.000    0.727    1.818    6.000    7.636    2.182 
#    3.273    0.000    0.000    0.000    0.000    0.000 
#    0.000    0.000    0.000    0.000    0.000    0.000 
#
# Total GULP energy -545250.741354 kJ/mol
# GULP energy per Si atom -12392.062303 kJ/mol
# Density = 2.352695 g / cm^3
# Si number density = 23.580616 Si / 1000 Ang^3
#
#
#
# Elastic Constant Matrix: (Units=GPa)
#
#
# Indices 1 2 3 4 5 6 
#
# 1 107.0529 38.8502 17.3586 -0.0002 0.0000 0.0000
# 2 38.8502 126.9605 30.3385 -0.0002 0.0000 0.0000
# 3 17.3586 30.3385 109.0603 -0.0006 0.0000 0.0000
# 4 -0.0002 -0.0002 -0.0006 35.6603 0.0000 0.0000
# 5 0.0000 0.0000 0.0000 0.0000 32.2068 0.0000
# 6 0.0000 0.0000 0.0000 0.0000 0.0000 37.1527
#
#
#
# Elastic Compliance Matrix: (Units=1/GPa)
#
#
# Indices 1 2 3 4 5 6 
#
# 1 0.010579 -0.003037 -0.000839 0.000000 0.000000 0.000000
# 2 -0.003037 0.009309 -0.002106 0.000000 0.000000 0.000000
# 3 -0.000839 -0.002106 0.009889 0.000000 0.000000 0.000000
# 4 0.000000 0.000000 0.000000 0.028042 0.000000 0.000000
# 5 0.000000 0.000000 0.000000 0.000000 0.031049 0.000000
# 6 0.000000 0.000000 0.000000 0.000000 0.000000 0.026916
#
#
# Mechanical properties :
#
#
# Convention : Reuss Voigt Hill
#
# Bulk Modulus (GPa) = 56.13933 57.35203 56.74568
# Shear Modulus (GPa) = 37.40090 38.10570 37.75330
#
# Velocity S-wave (km/s) = 3.98689 4.02428 4.00563
# Velocity P-wave (km/s) = 6.71214 6.77994 6.74613
#
# Compressibility (1/GPa) = 0.01781282
#
# Stress axis : x y z
#
# Youngs Moduli (GPa) = 94.52417 107.42252 101.12545
#
# Poissons Ratio (x) = 0.32622 0.08485
# Poissons Ratio (y) = 0.28705 0.21300
# Poissons Ratio (z) = 0.07931 0.22626
#
# Static dielectric constant tensor:
#      x y z
#    x 4.382370 0.000000 0.000000 
#    y 0.000000 4.748020 0.000000 
#    z 0.000000 0.000000 4.366960 
# 
# 
# High freq. dielectric constant tensor:
#      x y z
#    x 1.939120 0.000000 0.000000 
#    y 0.000000 1.944000 0.000000 
#    z 0.000000 0.000000 1.933900 
# 
# From -- ./inp_files/20840.got.cif
#   From: 2010.03.12/outbox.cif.g09.slc.cpg/sg73_11_cif.got.tgz:20840.got - 2010.04.16 15:25:48.
