data_PCOD8296430
_publ_section_title
;
Structure prediction by ZEFSAII (Michael W. Deem and Ramdas Pophale) SiO2 
 PCOD8296430
Probable space group: I B C A 
;
_chemical_formula_sum "Si O2"
_cell_formula_units_Z 80
_cell_length_a 15.874147
_cell_length_b 10.307107
_cell_length_c 21.876617
_cell_angle_alpha 90.000000
_cell_angle_beta 90.000000
_cell_angle_gamma 90.000000
_cell_volume 3579.376198
_symmetry_space_group_name_H-M "I B C A "
_symmetry_group_IT_number 73
_symmetry_cell_setting 'orthorhombic'
loop_
_space_group_symop_operation_xyz
x,y,z
-x,1/2-y,z
x,-y,1/2-z
1/2-x,y,-z
-x,-y,-z
x,1/2+y,-z
-x,y,1/2+z
1/2+x,-y,z
1/2+x,1/2+y,1/2+z
1/2-x,-y,1/2+z
1/2+x,1/2-y,-z
-x,1/2+y,1/2-z
1/2-x,1/2-y,1/2-z
1/2+x,y,1/2-z
1/2-x,1/2+y,z
x,1/2-y,1/2+z
loop_
_atom_site_type_symbol
_atom_site_label
_atom_site_fract_x
_atom_site_fract_y
_atom_site_fract_z
Si Si1 0.436928 0.866245 0.449855
Si Si2 0.908524 0.187998 0.218247
Si Si3 0.159976 0.941130 0.314595
Si Si4 0.348436 0.060448 0.162676
Si Si5 0.460871 0.112857 0.917900
O O1 0.500000 0.750000 0.431597
O O2 0.359332 0.865241 0.401894
O O3 0.408067 0.847150 0.520474
O O4 0.470112 0.012724 0.441455
O O5 0.840606 0.285737 0.189663
O O6 0.871052 0.160236 0.284551
O O7 0.000000 0.250000 0.226023
O O8 0.911344 0.062908 0.173168
O O9 0.252985 0.991067 0.330825
O O10 0.095215 0.969014 0.369877
O O11 0.127384 0.000000 0.250000
O O12 0.500000 0.250000 0.890539
#
# Coordination Sequence:
#
# PCOD8296430 Si02
#       5
#    16  16  16  16  16
#     4  10  22  41  68  94 124 165 230 271 319 398
#     4  11  24  41  62  90 132 168 217 265 329 396
#     4  12  25  39  62  92 137 168 210 267 341 391
#     4  11  24  40  62  98 126 167 216 272 331 403
#     4  10  23  45  65  92 127 175 218 276 328 391
#
# _framework density 22.350265
#
# number of rings (size 3 to 8) (size 9 to 14) (size 15 to 20)
#    0.000    1.200    2.000    4.200    8.400    0.800 
#    0.000    0.000    0.000    9.600    0.000    0.000 
#    0.000    0.000    0.000    0.000    0.000    0.000 
#
# Total GULP energy -495697.045586 kJ/mol
# GULP energy per Si atom -12392.426140 kJ/mol
# Density = 2.229939 g / cm^3
# Si number density = 22.350265 Si / 1000 Ang^3
#
#
#
# Elastic Constant Matrix: (Units=GPa)
#
#
# Indices 1 2 3 4 5 6 
#
# 1 86.6159 9.0439 30.7221 0.0000 0.0000 0.0000
# 2 9.0439 48.6712 -8.8439 0.0000 0.0000 0.0000
# 3 30.7221 -8.8439 144.9771 0.0000 0.0000 0.0000
# 4 0.0000 0.0000 0.0000 38.3580 0.0000 0.0000
# 5 0.0000 0.0000 0.0000 0.0000 27.7117 0.0000
# 6 0.0000 0.0000 0.0000 0.0000 0.0000 28.0764
#
#
#
# Elastic Compliance Matrix: (Units=1/GPa)
#
#
# Indices 1 2 3 4 5 6 
#
# 1 0.012882 -0.002922 -0.002908 0.000000 0.000000 0.000000
# 2 -0.002922 0.021439 0.001927 0.000000 0.000000 0.000000
# 3 -0.002908 0.001927 0.007631 0.000000 0.000000 0.000000
# 4 0.000000 0.000000 0.000000 0.026070 0.000000 0.000000
# 5 0.000000 0.000000 0.000000 0.000000 0.036086 0.000000
# 6 0.000000 0.000000 0.000000 0.000000 0.000000 0.035617
#
#
# Mechanical properties :
#
#
# Convention : Reuss Voigt Hill
#
# Bulk Modulus (GPa) = 29.28575 38.01205 33.64890
# Shear Modulus (GPa) = 31.46363 35.45203 33.45783
#
# Velocity S-wave (km/s) = 3.75607 3.98704 3.87328
# Velocity P-wave (km/s) = 5.65175 6.18382 5.92376
#
# Compressibility (1/GPa) = 0.03414630
#
# Stress axis : x y z
#
# Youngs Moduli (GPa) = 77.62894 46.64363 131.03693
#
# Poissons Ratio (x) = 0.13630 0.38106
# Poissons Ratio (y) = 0.22684 -0.25251
# Poissons Ratio (z) = 0.22575 -0.08988
#
# Static dielectric constant tensor:
#      x y z
#    x 3.652800 0.000000 0.000000 
#    y 0.000000 4.128570 0.000000 
#    z 0.000000 0.000000 4.761940 
# 
# 
# High freq. dielectric constant tensor:
#      x y z
#    x 1.842840 0.000000 0.000000 
#    y 0.000000 1.887490 0.000000 
#    z 0.000000 0.000000 1.907410 
# 
# From -- ./inp_files/29349.got.cif
#   From: 2010.03.12/outbox.cif.g09.slc.cpg/sg73_15_cif.got.tgz:29349.got - 2010.04.16 15:25:48.
