data_PCOD8296196
_publ_section_title
;
Structure prediction by ZEFSAII (Michael W. Deem and Ramdas Pophale) SiO2 
 PCOD8296196
Probable space group: I B C A 
;
_chemical_formula_sum "Si O2"
_cell_formula_units_Z 96
_cell_length_a 13.156903
_cell_length_b 24.667755
_cell_length_c 14.527991
_cell_angle_alpha 90.000000
_cell_angle_beta 90.000000
_cell_angle_gamma 90.000000
_cell_volume 4715.077781
_symmetry_space_group_name_H-M "I B C A "
_symmetry_group_IT_number 73
_symmetry_cell_setting 'orthorhombic'
loop_
_space_group_symop_operation_xyz
x,y,z
-x,1/2-y,z
x,-y,1/2-z
1/2-x,y,-z
-x,-y,-z
x,1/2+y,-z
-x,y,1/2+z
1/2+x,-y,z
1/2+x,1/2+y,1/2+z
1/2-x,-y,1/2+z
1/2+x,1/2-y,-z
-x,1/2+y,1/2-z
1/2-x,1/2-y,1/2-z
1/2+x,y,1/2-z
1/2-x,1/2+y,z
x,1/2-y,1/2+z
loop_
_atom_site_type_symbol
_atom_site_label
_atom_site_fract_x
_atom_site_fract_y
_atom_site_fract_z
Si Si1 0.085331 0.088759 0.656146
Si Si2 0.368383 0.230467 0.994616
Si Si3 0.500000 0.250000 0.656258
Si Si4 0.070922 0.673873 0.806727
Si Si5 0.955672 0.500000 0.250000
Si Si6 0.634432 0.143630 0.015962
Si Si7 0.678988 0.595283 0.801887
O O1 0.072419 0.100858 0.547012
O O2 0.202205 0.084834 0.686199
O O3 0.035293 0.141347 0.704229
O O4 0.027613 0.033224 0.680047
O O5 0.427822 0.212762 0.088535
O O6 0.389068 0.294775 0.986955
O O7 0.250000 0.216025 0.000000
O O8 0.416291 0.201947 0.905678
O O9 0.574437 0.282860 0.724022
O O10 0.161423 0.629465 0.792430
O O11 0.880366 0.538686 0.193865
O O12 0.618840 0.132260 0.123231
O O13 0.750000 0.129147 0.000000
#
# Coordination Sequence:
#
# PCOD8296196 Si02
#       7
#    16  16   8  16   8  16  16
#     4  10  21  39  63  87 126 156 208 270 318 382
#     4  11  24  40  61  94 134 172 220 261 304 377
#     4  12  22  38  60  90 130 174 220 258 306 382
#     4  11  24  37  61  94 125 173 216 256 318 375
#     4  10  22  38  62  96 112 158 212 264 328 392
#     4   9  18  37  59  85 117 165 201 248 315 373
#     4  10  21  40  63  87 122 163 208 262 327 375
#
# _framework density 20.360215
#
# number of rings (size 3 to 8) (size 9 to 14) (size 15 to 20)
#    0.000    1.667    1.667    3.000    2.333    1.333 
#    0.000    0.000    0.000    4.000    0.000    0.000 
#    0.000    0.000    0.000    0.000    0.000    0.000 
#
# Total GULP energy -594638.788200 kJ/mol
# GULP energy per Si atom -12388.308087 kJ/mol
# Density = 2.031387 g / cm^3
# Si number density = 20.360215 Si / 1000 Ang^3
#
#
#
# Elastic Constant Matrix: (Units=GPa)
#
#
# Indices 1 2 3 4 5 6 
#
# 1 120.2688 45.3721 39.7609 0.0000 0.0000 0.0000
# 2 45.3721 113.0180 54.1484 0.0001 0.0000 0.0000
# 3 39.7609 54.1484 111.5091 0.0001 -0.0001 0.0001
# 4 0.0000 0.0001 0.0001 27.0017 0.0000 0.0000
# 5 0.0000 0.0000 -0.0001 0.0000 26.1460 0.0000
# 6 0.0000 0.0000 0.0001 0.0000 0.0000 27.6080
#
#
#
# Elastic Compliance Matrix: (Units=1/GPa)
#
#
# Indices 1 2 3 4 5 6 
#
# 1 0.010177 -0.003059 -0.002144 0.000000 0.000000 0.000000
# 2 -0.003059 0.012450 -0.004955 0.000000 0.000000 0.000000
# 3 -0.002144 -0.004955 0.012138 0.000000 0.000000 0.000000
# 4 0.000000 0.000000 0.000000 0.037035 0.000000 0.000000
# 5 0.000000 0.000000 0.000000 0.000000 0.038247 0.000000
# 6 0.000000 0.000000 0.000000 0.000000 0.000000 0.036221
#
#
# Mechanical properties :
#
#
# Convention : Reuss Voigt Hill
#
# Bulk Modulus (GPa) = 69.19951 69.26208 69.23079
# Shear Modulus (GPa) = 29.17142 29.85211 29.51177
#
# Velocity S-wave (km/s) = 3.78930 3.83325 3.81134
# Velocity P-wave (km/s) = 7.29427 7.32693 7.31062
#
# Compressibility (1/GPa) = 0.01445097
#
# Stress axis : x y z
#
# Youngs Moduli (GPa) = 98.25776 80.32030 82.38312
#
# Poissons Ratio (x) = 0.24568 0.17660
# Poissons Ratio (y) = 0.30054 0.40822
# Poissons Ratio (z) = 0.21063 0.39799
#
# Static dielectric constant tensor:
#      x y z
#    x 3.860250 0.000000 0.000000 
#    y 0.000000 3.597340 0.000000 
#    z 0.000000 0.000000 4.194070 
# 
# 
# High freq. dielectric constant tensor:
#      x y z
#    x 1.802940 0.000000 0.000000 
#    y 0.000000 1.782960 0.000000 
#    z 0.000000 0.000000 1.796160 
# 
# From -- ./inp_files/17217.got.cif
#   From: 2010.03.12/outbox.cif.g09.slc.cpg/sg73_9_cif.got.tgz:17217.got - 2010.04.16 15:25:48.
