data_PCOD8296703
_publ_section_title
;
Structure prediction by ZEFSAII (Michael W. Deem and Ramdas Pophale) SiO2 
 PCOD8296703
Probable space group: I B C A 
;
_chemical_formula_sum "Si O2"
_cell_formula_units_Z 104
_cell_length_a 26.854209
_cell_length_b 19.741582
_cell_length_c 9.466562
_cell_angle_alpha 90.000000
_cell_angle_beta 90.000000
_cell_angle_gamma 90.000000
_cell_volume 5018.646432
_symmetry_space_group_name_H-M "I B C A "
_symmetry_group_IT_number 73
_symmetry_cell_setting 'orthorhombic'
loop_
_space_group_symop_operation_xyz
x,y,z
-x,1/2-y,z
x,-y,1/2-z
1/2-x,y,-z
-x,-y,-z
x,1/2+y,-z
-x,y,1/2+z
1/2+x,-y,z
1/2+x,1/2+y,1/2+z
1/2-x,-y,1/2+z
1/2+x,1/2-y,-z
-x,1/2+y,1/2-z
1/2-x,1/2-y,1/2-z
1/2+x,y,1/2-z
1/2-x,1/2+y,z
x,1/2-y,1/2+z
loop_
_atom_site_type_symbol
_atom_site_label
_atom_site_fract_x
_atom_site_fract_y
_atom_site_fract_z
Si Si1 0.256889 0.183765 0.342320
Si Si2 0.038188 0.332565 0.199447
Si Si3 0.969695 0.457552 0.111137
Si Si4 0.500000 0.250000 0.042899
Si Si5 0.866900 0.482054 0.979097
Si Si6 0.142730 0.105311 0.723760
Si Si7 0.782075 0.047600 0.861132
O O1 0.250000 0.210558 0.500000
O O2 0.250000 0.250000 0.250000
O O3 0.311174 0.149789 0.328609
O O4 0.214981 0.125565 0.304856
O O5 0.094322 0.349475 0.236353
O O6 0.999484 0.390024 0.150249
O O7 0.020334 0.307290 0.352728
O O8 0.040851 0.279666 0.068270
O O9 0.960744 0.500000 0.250000
O O10 0.915840 0.445567 0.040846
O O11 0.000000 0.500000 0.000000
O O12 0.842027 0.426591 0.875330
O O13 0.875886 0.549377 0.888113
O O14 0.832786 0.506441 0.109807
O O15 0.752484 0.000000 0.750000
O O16 0.750000 0.053551 0.000000
#
# Coordination Sequence:
#
# PCOD8296703 Si02
#       7
#    16  16  16   8  16  16  16
#     4  11  25  44  65  95 132 176 227 285 344 415
#     4  11  23  42  65  93 134 176 228 273 338 408
#     4  12  23  38  65 102 138 170 216 285 346 398
#     4  10  24  44  62  88 128 192 226 264 324 420
#     4  11  22  39  67 102 128 167 218 278 356 408
#     4  11  22  41  69  97 129 173 220 286 347 413
#     4  11  22  42  67  94 131 172 221 283 346 415
#
# _framework density 20.722719000000001
#
# number of rings (size 3 to 8) (size 9 to 14) (size 15 to 20)
#    0.000    0.923    4.615    4.154    0.000    3.077 
#    0.000    1.538    0.000    0.000    0.000    0.000 
#    0.000    0.000    0.000    0.000    0.000    0.000 
#
# Total GULP energy -644202.390794 kJ/mol
# GULP energy per Si atom -12388.507515 kJ/mol
# Density = 2.067555 g / cm^3
# Si number density = 20.722719 Si / 1000 Ang^3
#
#
#
# Elastic Constant Matrix: (Units=GPa)
#
#
# Indices 1 2 3 4 5 6 
#
# 1 116.4169 42.4482 26.0081 0.0000 0.0000 0.0000
# 2 42.4482 127.4884 65.6834 0.0000 0.0000 0.0000
# 3 26.0081 65.6834 128.6016 0.0000 0.0000 0.0000
# 4 0.0000 0.0000 0.0000 45.5101 0.0000 0.0000
# 5 0.0000 0.0000 0.0000 0.0000 24.5705 0.0000
# 6 0.0000 0.0000 0.0000 0.0000 0.0000 7.7141
#
#
#
# Elastic Compliance Matrix: (Units=1/GPa)
#
#
# Indices 1 2 3 4 5 6 
#
# 1 0.009794 -0.003041 -0.000428 0.000000 0.000000 0.000000
# 2 -0.003041 0.011589 -0.005304 0.000000 0.000000 0.000000
# 3 -0.000428 -0.005304 0.010572 0.000000 0.000000 0.000000
# 4 0.000000 0.000000 0.000000 0.021973 0.000000 0.000000
# 5 0.000000 0.000000 0.000000 0.000000 0.040699 0.000000
# 6 0.000000 0.000000 0.000000 0.000000 0.000000 0.129633
#
#
# Mechanical properties :
#
#
# Convention : Reuss Voigt Hill
#
# Bulk Modulus (GPa) = 69.39824 71.19846 70.29835
# Shear Modulus (GPa) = 20.27511 31.45010 25.86260
#
# Velocity S-wave (km/s) = 3.13133 3.89995 3.53658
# Velocity P-wave (km/s) = 6.82901 7.39674 7.11853
#
# Compressibility (1/GPa) = 0.01440959
#
# Stress axis : x y z
#
# Youngs Moduli (GPa) = 102.10275 86.28861 94.59338
#
# Poissons Ratio (x) = 0.26237 0.04046
# Poissons Ratio (y) = 0.31046 0.50174
# Poissons Ratio (z) = 0.04367 0.45769
#
# Static dielectric constant tensor:
#      x y z
#    x 3.721610 0.000000 0.000000 
#    y 0.000000 4.050910 0.000000 
#    z 0.000000 0.000000 1.538710 
# 
# 
# High freq. dielectric constant tensor:
#      x y z
#    x 1.798960 0.000000 0.000000 
#    y 0.000000 1.811020 0.000000 
#    z 0.000000 0.000000 1.836960 
# 
# From -- ./inp_files/7898.got.cif
#   From: 2010.03.12/outbox.cif.g09.slc.cpg/sg73_4_cif.got.tgz:7898.got - 2010.04.16 15:25:48.
