data_PCOD8296525
_publ_section_title
;
Structure prediction by ZEFSAII (Michael W. Deem and Ramdas Pophale) SiO2 
 PCOD8296525
Probable space group: I B C A 
;
_chemical_formula_sum "Si O2"
_cell_formula_units_Z 112
_cell_length_a 22.962735
_cell_length_b 14.952495
_cell_length_c 14.080800
_cell_angle_alpha 90.000000
_cell_angle_beta 90.000000
_cell_angle_gamma 90.000000
_cell_volume 4834.645218
_symmetry_space_group_name_H-M "I B C A "
_symmetry_group_IT_number 73
_symmetry_cell_setting 'orthorhombic'
loop_
_space_group_symop_operation_xyz
x,y,z
-x,1/2-y,z
x,-y,1/2-z
1/2-x,y,-z
-x,-y,-z
x,1/2+y,-z
-x,y,1/2+z
1/2+x,-y,z
1/2+x,1/2+y,1/2+z
1/2-x,-y,1/2+z
1/2+x,1/2-y,-z
-x,1/2+y,1/2-z
1/2-x,1/2-y,1/2-z
1/2+x,y,1/2-z
1/2-x,1/2+y,z
x,1/2-y,1/2+z
loop_
_atom_site_type_symbol
_atom_site_label
_atom_site_fract_x
_atom_site_fract_y
_atom_site_fract_z
Si Si1 0.706388 0.749978 0.662548
Si Si2 0.568994 0.000000 0.250000
Si Si3 0.875931 0.996296 0.095269
Si Si4 0.080878 0.682169 0.350853
Si Si5 0.500000 0.750000 0.996959
Si Si6 0.256969 0.935680 0.105553
Si Si7 0.026319 0.880024 0.668982
Si Si8 0.339482 0.438426 0.386918
O O1 0.750000 0.750000 0.750000
O O2 0.641191 0.779139 0.690223
O O3 0.736203 0.827987 0.599135
O O4 0.700713 0.652127 0.613355
O O5 0.528542 0.944442 0.320553
O O6 0.607328 0.931281 0.187140
O O7 0.911394 0.928454 0.160706
O O8 0.912434 0.087884 0.094888
O O9 0.814458 0.016447 0.147744
O O10 0.866650 0.957098 0.990043
O O11 0.034936 0.680041 0.263267
O O12 0.056363 0.743918 0.435267
O O13 0.487407 0.667543 0.929061
O O14 0.198922 0.976655 0.153702
O O15 0.250000 0.972898 0.000000
#
# Coordination Sequence:
#
# PCOD8296525 Si02
#       8
#    16   8  16  16   8  16  16  16
#     4  11  25  43  69 104 144 190 237 312 370 437
#     4  12  26  42  68 104 142 184 256 302 368 444
#     4  10  22  45  73  99 138 190 244 300 372 442
#     4  11  25  47  68 106 149 186 252 309 366 457
#     4  12  28  44  72 102 152 192 244 308 376 448
#     4   9  22  45  68 102 139 181 241 297 361 443
#     4  12  26  45  73 105 139 201 240 309 375 445
#     4  11  24  43  72 104 144 193 243 308 374 447
#
# _framework density 23.166125999999998
#
# number of rings (size 3 to 8) (size 9 to 14) (size 15 to 20)
#    0.000    1.143    1.429    3.000    8.000    2.857 
#    7.714    0.000    0.000    0.000    0.000    0.000 
#    0.000    0.000    0.000    0.000    0.000    0.000 
#
# Total GULP energy -693902.900582 kJ/mol
# GULP energy per Si atom -12391.123225 kJ/mol
# Density = 2.311340 g / cm^3
# Si number density = 23.166126 Si / 1000 Ang^3
#
#
#
# Elastic Constant Matrix: (Units=GPa)
#
#
# Indices 1 2 3 4 5 6 
#
# 1 128.4497 55.7745 58.5984 0.0000 0.0000 0.0000
# 2 55.7745 113.9020 39.6680 0.0000 0.0000 0.0000
# 3 58.5984 39.6680 118.1604 0.0000 0.0000 0.0000
# 4 0.0000 0.0000 0.0000 38.1615 0.0000 0.0000
# 5 0.0000 0.0000 0.0000 0.0000 49.6919 0.0000
# 6 0.0000 0.0000 0.0000 0.0000 0.0000 34.8303
#
#
#
# Elastic Compliance Matrix: (Units=1/GPa)
#
#
# Indices 1 2 3 4 5 6 
#
# 1 0.011570 -0.004153 -0.004344 0.000000 0.000000 0.000000
# 2 -0.004153 0.011432 -0.001779 0.000000 0.000000 0.000000
# 3 -0.004344 -0.001779 0.011214 0.000000 0.000000 0.000000
# 4 0.000000 0.000000 0.000000 0.026204 0.000000 0.000000
# 5 0.000000 0.000000 0.000000 0.000000 0.020124 0.000000
# 6 0.000000 0.000000 0.000000 0.000000 0.000000 0.028711
#
#
# Mechanical properties :
#
#
# Convention : Reuss Voigt Hill
#
# Bulk Modulus (GPa) = 73.17076 74.28823 73.72949
# Shear Modulus (GPa) = 37.21321 38.30149 37.75735
#
# Velocity S-wave (km/s) = 4.01229 4.07054 4.04152
# Velocity P-wave (km/s) = 7.28824 7.36408 7.32626
#
# Compressibility (1/GPa) = 0.01366666
#
# Stress axis : x y z
#
# Youngs Moduli (GPa) = 86.43145 87.47106 89.17209
#
# Poissons Ratio (x) = 0.36324 0.38733
# Poissons Ratio (y) = 0.35892 0.15860
# Poissons Ratio (z) = 0.37543 0.15557
#
# Static dielectric constant tensor:
#      x y z
#    x 4.454150 0.000000 0.000000 
#    y 0.000000 4.498590 0.000000 
#    z 0.000000 0.000000 3.690460 
# 
# 
# High freq. dielectric constant tensor:
#      x y z
#    x 1.930430 0.000000 0.000000 
#    y 0.000000 1.916460 0.000000 
#    z 0.000000 0.000000 1.910800 
# 
# From -- ./inp_files/19442.got.cif
#   From: 2010.03.12/outbox.cif.g09.slc.cpg/sg73_10_cif.got.tgz:19442.got - 2010.04.16 15:25:48.
