data_PCOD8296670
_publ_section_title
;
Structure prediction by ZEFSAII (Michael W. Deem and Ramdas Pophale) SiO2 
 PCOD8296670
Probable space group: I B C A 
;
_chemical_formula_sum "Si O2"
_cell_formula_units_Z 56
_cell_length_a 25.028751
_cell_length_b 5.302622
_cell_length_c 17.609265
_cell_angle_alpha 90.000000
_cell_angle_beta 90.000000
_cell_angle_gamma 90.000000
_cell_volume 2337.066532
_symmetry_space_group_name_H-M "I B C A "
_symmetry_group_IT_number 73
_symmetry_cell_setting 'orthorhombic'
loop_
_space_group_symop_operation_xyz
x,y,z
-x,1/2-y,z
x,-y,1/2-z
1/2-x,y,-z
-x,-y,-z
x,1/2+y,-z
-x,y,1/2+z
1/2+x,-y,z
1/2+x,1/2+y,1/2+z
1/2-x,-y,1/2+z
1/2+x,1/2-y,-z
-x,1/2+y,1/2-z
1/2-x,1/2-y,1/2-z
1/2+x,y,1/2-z
1/2-x,1/2+y,z
x,1/2-y,1/2+z
loop_
_atom_site_type_symbol
_atom_site_label
_atom_site_fract_x
_atom_site_fract_y
_atom_site_fract_z
Si Si1 0.645086 0.849308 0.671872
Si Si2 0.937668 0.228527 0.045950
Si Si3 0.214216 0.500000 0.750000
Si Si4 0.309923 0.945636 0.467918
O O1 0.590404 0.793228 0.628239
O O2 0.673525 0.574085 0.681673
O O3 0.686097 0.029872 0.623147
O O4 0.634397 0.000000 0.750000
O O5 0.000000 0.250000 0.064035
O O6 0.920948 0.474985 0.998707
O O7 0.250000 0.750000 0.750000
O O8 0.250000 0.938609 0.500000
O O9 0.339692 0.195784 0.501372
#
# Coordination Sequence:
#
# PCOD8296670 Si02
#       4
#    16  16   8  16
#     4  12  28  46  74 111 153 197 250 321 388 452
#     4  10  24  50  81 112 149 200 258 316 382 467
#     4  12  30  46  66  98 156 200 248 302 378 450
#     4  10  24  41  65  92 131 187 245 286 349 435
#
# _framework density 23.961666000000001
#
# number of rings (size 3 to 8) (size 9 to 14) (size 15 to 20)
#    0.000    1.143    1.429    1.714   16.000    0.000 
#    2.571    0.000    0.000    0.000    0.000    0.000 
#    0.000    0.000    0.000    0.000    0.000    0.000 
#
# Total GULP energy -346875.677096 kJ/mol
# GULP energy per Si atom -12388.417039 kJ/mol
# Density = 2.390713 g / cm^3
# Si number density = 23.961666 Si / 1000 Ang^3
#
#
#
# Elastic Constant Matrix: (Units=GPa)
#
#
# Indices 1 2 3 4 5 6 
#
# 1 128.4202 80.9506 73.0032 0.0000 0.0000 0.0000
# 2 80.9506 205.2909 75.5960 0.0000 0.0000 0.0000
# 3 73.0032 75.5960 180.3572 0.0000 0.0000 0.0000
# 4 0.0000 0.0000 0.0000 42.7372 0.0000 0.0000
# 5 0.0000 0.0000 0.0000 0.0000 43.6675 0.0000
# 6 0.0000 0.0000 0.0000 0.0000 0.0000 50.0492
#
#
#
# Elastic Compliance Matrix: (Units=1/GPa)
#
#
# Indices 1 2 3 4 5 6 
#
# 1 0.011867 -0.003442 -0.003361 0.000000 0.000000 0.000000
# 2 -0.003442 0.006758 -0.001440 0.000000 0.000000 0.000000
# 3 -0.003361 -0.001440 0.007508 0.000000 0.000000 0.000000
# 4 0.000000 0.000000 0.000000 0.023399 0.000000 0.000000
# 5 0.000000 0.000000 0.000000 0.000000 0.022900 0.000000
# 6 0.000000 0.000000 0.000000 0.000000 0.000000 0.019980
#
#
# Mechanical properties :
#
#
# Convention : Reuss Voigt Hill
#
# Bulk Modulus (GPa) = 103.63461 108.12978 105.88220
# Shear Modulus (GPa) = 44.59734 46.25866 45.42800
#
# Velocity S-wave (km/s) = 4.31884 4.39854 4.35887
# Velocity P-wave (km/s) = 8.25917 8.42736 8.34369
#
# Compressibility (1/GPa) = 0.00964929
#
# Stress axis : x y z
#
# Youngs Moduli (GPa) = 84.26693 147.96270 133.18575
#
# Poissons Ratio (x) = 0.50927 0.44761
# Poissons Ratio (y) = 0.29004 0.19174
# Poissons Ratio (z) = 0.28320 0.21301
#
# Static dielectric constant tensor:
#      x y z
#    x 4.569660 0.000000 0.000000 
#    y 0.000000 5.236450 0.000000 
#    z 0.000000 0.000000 4.142120 
# 
# 
# High freq. dielectric constant tensor:
#      x y z
#    x 1.972850 0.000000 0.000000 
#    y 0.000000 1.982180 0.000000 
#    z 0.000000 0.000000 1.939870 
# 
# From -- ./inp_files/2470.got.cif
#   From: 2010.03.12/outbox.cif.g09.slc.cpg/sg73_2_cif.got.tgz:2470.got - 2010.04.16 15:25:48.
