data_PCOD8296540
_publ_section_title
;
Structure prediction by ZEFSAII (Michael W. Deem and Ramdas Pophale) SiO2 
 PCOD8296540
Probable space group: I B C A 
;
_chemical_formula_sum "Si O2"
_cell_formula_units_Z 88
_cell_length_a 16.415508
_cell_length_b 9.149215
_cell_length_c 26.800786
_cell_angle_alpha 90.000000
_cell_angle_beta 90.000000
_cell_angle_gamma 90.000000
_cell_volume 4025.183571
_symmetry_space_group_name_H-M "I B C A "
_symmetry_group_IT_number 73
_symmetry_cell_setting 'orthorhombic'
loop_
_space_group_symop_operation_xyz
x,y,z
-x,1/2-y,z
x,-y,1/2-z
1/2-x,y,-z
-x,-y,-z
x,1/2+y,-z
-x,y,1/2+z
1/2+x,-y,z
1/2+x,1/2+y,1/2+z
1/2-x,-y,1/2+z
1/2+x,1/2-y,-z
-x,1/2+y,1/2-z
1/2-x,1/2-y,1/2-z
1/2+x,y,1/2-z
1/2-x,1/2+y,z
x,1/2-y,1/2+z
loop_
_atom_site_type_symbol
_atom_site_label
_atom_site_fract_x
_atom_site_fract_y
_atom_site_fract_z
Si Si1 0.859061 0.646005 0.231739
Si Si2 0.639248 0.168092 0.532610
Si Si3 0.500000 0.250000 0.954134
Si Si4 0.816118 0.898652 0.296021
Si Si5 0.500000 0.250000 0.171258
Si Si6 0.250000 0.088202 0.500000
Si Si7 0.932189 0.496488 0.883296
O O1 0.905957 0.500000 0.250000
O O2 0.833047 0.730541 0.282031
O O3 0.782021 0.593629 0.197845
O O4 0.917447 0.755432 0.202662
O O5 0.574027 0.192244 0.488288
O O6 0.701834 0.303022 0.537461
O O7 0.684618 0.012622 0.526896
O O8 0.598989 0.145488 0.585881
O O9 0.469078 0.380154 0.919015
O O10 0.862579 0.938003 0.347282
O O11 0.844523 0.000000 0.250000
O O12 0.495939 0.409781 0.144879
#
# Coordination Sequence:
#
# PCOD8296540 Si02
#       7
#    16  16   8  16   8   8  16
#     4  10  24  44  72  94 145 187 224 300 350 417
#     4  11  24  50  70 106 141 187 235 305 352 433
#     4  12  27  49  74 104 146 190 239 309 364 428
#     4  10  22  49  67 100 140 186 236 287 353 425
#     4  12  27  41  66 108 136 186 235 291 352 422
#     4  10  24  46  76 100 140 188 238 290 364 420
#     4  12  27  44  73 103 141 192 241 293 365 436
#
# _framework density 21.862355999999998
#
# number of rings (size 3 to 8) (size 9 to 14) (size 15 to 20)
#    0.000    1.091    3.636    1.091    7.636    1.455 
#    3.273    0.000    0.000    0.000    0.000    0.000 
#    0.000    0.000    0.000    0.000    0.000    0.000 
#
# Total GULP energy -545172.940460 kJ/mol
# GULP energy per Si atom -12390.294101 kJ/mol
# Density = 2.181260 g / cm^3
# Si number density = 21.862356 Si / 1000 Ang^3
#
#
#
# Elastic Constant Matrix: (Units=GPa)
#
#
# Indices 1 2 3 4 5 6 
#
# 1 110.2323 52.4672 55.5360 0.0000 0.0000 0.0000
# 2 52.4672 139.2872 42.7820 0.0000 0.0000 0.0000
# 3 55.5360 42.7820 98.9409 0.0000 0.0000 0.0000
# 4 0.0000 0.0000 0.0000 40.3472 0.0000 0.0000
# 5 0.0000 0.0000 0.0000 0.0000 6.9136 0.0000
# 6 0.0000 0.0000 0.0000 0.0000 0.0000 41.0249
#
#
#
# Elastic Compliance Matrix: (Units=1/GPa)
#
#
# Indices 1 2 3 4 5 6 
#
# 1 0.013820 -0.003256 -0.006350 0.000000 0.000000 0.000000
# 2 -0.003256 0.009046 -0.002084 0.000000 0.000000 0.000000
# 3 -0.006350 -0.002084 0.014572 0.000000 0.000000 0.000000
# 4 0.000000 0.000000 0.000000 0.024785 0.000000 0.000000
# 5 0.000000 0.000000 0.000000 0.000000 0.144643 0.000000
# 6 0.000000 0.000000 0.000000 0.000000 0.000000 0.024375
#
#
# Mechanical properties :
#
#
# Convention : Reuss Voigt Hill
#
# Bulk Modulus (GPa) = 71.12468 72.22564 71.67516
# Shear Modulus (GPa) = 19.28216 30.83548 25.05882
#
# Velocity S-wave (km/s) = 2.97304 3.75965 3.38924
# Velocity P-wave (km/s) = 6.66249 7.20798 6.94060
#
# Compressibility (1/GPa) = 0.01405982
#
# Stress axis : x y z
#
# Youngs Moduli (GPa) = 72.35705 110.54794 68.62327
#
# Poissons Ratio (x) = 0.35990 0.43574
# Poissons Ratio (y) = 0.23556 0.14301
# Poissons Ratio (z) = 0.45945 0.23039
#
# Static dielectric constant tensor:
#      x y z
#    x 4.049420 0.000000 0.000000 
#    y 0.000000 4.149950 0.000000 
#    z 0.000000 0.000000 3.815250 
# 
# 
# High freq. dielectric constant tensor:
#      x y z
#    x 1.863790 0.000000 0.000000 
#    y 0.000000 1.888340 0.000000 
#    z 0.000000 0.000000 1.837730 
# 
# From -- ./inp_files/34522.got.cif
#   From: 2010.03.12/outbox.cif.g09.slc.cpg/sg73_18_cif.got.tgz:34522.got - 2010.04.16 15:25:48.
