data_PCOD8296276
_publ_section_title
;
Structure prediction by ZEFSAII (Michael W. Deem and Ramdas Pophale) SiO2 
 PCOD8296276
Probable space group: I B C A 
;
_chemical_formula_sum "Si O2"
_cell_formula_units_Z 80
_cell_length_a 27.092344
_cell_length_b 14.712156
_cell_length_c 9.504769
_cell_angle_alpha 90.000000
_cell_angle_beta 90.000000
_cell_angle_gamma 90.000000
_cell_volume 3788.475378
_symmetry_space_group_name_H-M "I B C A "
_symmetry_group_IT_number 73
_symmetry_cell_setting 'orthorhombic'
loop_
_space_group_symop_operation_xyz
x,y,z
-x,1/2-y,z
x,-y,1/2-z
1/2-x,y,-z
-x,-y,-z
x,1/2+y,-z
-x,y,1/2+z
1/2+x,-y,z
1/2+x,1/2+y,1/2+z
1/2-x,-y,1/2+z
1/2+x,1/2-y,-z
-x,1/2+y,1/2-z
1/2-x,1/2-y,1/2-z
1/2+x,y,1/2-z
1/2-x,1/2+y,z
x,1/2-y,1/2+z
loop_
_atom_site_type_symbol
_atom_site_label
_atom_site_fract_x
_atom_site_fract_y
_atom_site_fract_z
Si Si1 0.015945 0.147633 0.508328
Si Si2 0.889254 0.590760 0.164726
Si Si3 0.941759 0.902819 0.204308
Si Si4 0.193585 0.340302 0.999866
Si Si5 0.147179 0.272253 0.277287
O O1 0.067759 0.121209 0.439655
O O2 0.020577 0.134866 0.675957
O O3 0.000000 0.250000 0.472223
O O4 0.973109 0.084926 0.439809
O O5 0.901802 0.500000 0.250000
O O6 0.840488 0.578450 0.064965
O O7 0.878328 0.675907 0.270525
O O8 0.895992 0.838480 0.172755
O O9 0.920614 0.000000 0.250000
O O10 0.184099 0.248659 0.907813
O O11 0.250000 0.371905 0.000000
O O12 0.178877 0.319276 0.158265
#
# Coordination Sequence:
#
# PCOD8296276 Si02
#       5
#    16  16  16  16  16
#     4  12  23  42  65  94 134 178 223 271 333 400
#     4  10  23  41  67  95 135 173 216 277 338 393
#     4  12  25  41  63  98 131 176 223 275 331 401
#     4  10  21  42  70  95 129 171 222 271 340 398
#     4  10  22  42  66  94 133 174 218 277 334 399
#
# _framework density 21.116674
#
# number of rings (size 3 to 8) (size 9 to 14) (size 15 to 20)
#    1.200    0.000    4.000    2.400    0.000    1.600 
#    0.000    2.000    0.000    0.000    0.000    0.000 
#    0.000    0.000    0.000    0.000    0.000    0.000 
#
# Total GULP energy -495729.021030 kJ/mol
# GULP energy per Si atom -12393.225526 kJ/mol
# Density = 2.106861 g / cm^3
# Si number density = 21.116674 Si / 1000 Ang^3
#
#
#
# Elastic Constant Matrix: (Units=GPa)
#
#
# Indices 1 2 3 4 5 6 
#
# 1 110.7846 23.5664 30.0780 0.0000 0.0000 0.0000
# 2 23.5664 76.6477 -11.6076 0.0000 0.0000 0.0000
# 3 30.0780 -11.6076 68.0032 0.0000 0.0000 0.0000
# 4 0.0000 0.0000 0.0000 25.3589 0.0000 0.0000
# 5 0.0000 0.0000 0.0000 0.0000 31.3209 0.0000
# 6 0.0000 0.0000 0.0000 0.0000 0.0000 18.3424
#
#
#
# Elastic Compliance Matrix: (Units=1/GPa)
#
#
# Indices 1 2 3 4 5 6 
#
# 1 0.011568 -0.004446 -0.005875 0.000000 0.000000 0.000000
# 2 -0.004446 0.015102 0.004544 0.000000 0.000000 0.000000
# 3 -0.005875 0.004544 0.018080 0.000000 0.000000 0.000000
# 4 0.000000 0.000000 0.000000 0.039434 0.000000 0.000000
# 5 0.000000 0.000000 0.000000 0.000000 0.031928 0.000000
# 6 0.000000 0.000000 0.000000 0.000000 0.000000 0.054519
#
#
# Mechanical properties :
#
#
# Convention : Reuss Voigt Hill
#
# Bulk Modulus (GPa) = 30.12536 37.72323 33.92429
# Shear Modulus (GPa) = 25.87345 29.23102 27.55223
#
# Velocity S-wave (km/s) = 3.50417 3.72460 3.61607
# Velocity P-wave (km/s) = 5.53800 6.03323 5.79091
#
# Compressibility (1/GPa) = 0.03319462
#
# Stress axis : x y z
#
# Youngs Moduli (GPa) = 86.44905 66.21634 55.31110
#
# Poissons Ratio (x) = 0.29442 0.32497
# Poissons Ratio (y) = 0.38438 -0.25136
# Poissons Ratio (z) = 0.50791 -0.30091
#
# Static dielectric constant tensor:
#      x y z
#    x 3.727050 0.000000 0.000000 
#    y 0.000000 3.696790 0.000000 
#    z 0.000000 0.000000 3.749500 
# 
# 
# High freq. dielectric constant tensor:
#      x y z
#    x 1.823410 0.000000 0.000000 
#    y 0.000000 1.812740 0.000000 
#    z 0.000000 0.000000 1.827500 
# 
# From -- ./inp_files/14172.got.cif
#   From: 2010.03.12/outbox.cif.g09.slc.cpg/sg73_8_cif.got.tgz:14172.got - 2010.04.16 15:25:48.
