data_PCOD8296121
_publ_section_title
;
Structure prediction by ZEFSAII (Michael W. Deem and Ramdas Pophale) SiO2 
 PCOD8296121
Probable space group: I B C A 
;
_chemical_formula_sum "Si O2"
_cell_formula_units_Z 128
_cell_length_a 11.232017
_cell_length_b 23.300342
_cell_length_c 23.031289
_cell_angle_alpha 90.000000
_cell_angle_beta 90.000000
_cell_angle_gamma 90.000000
_cell_volume 6027.514900
_symmetry_space_group_name_H-M "I B C A "
_symmetry_group_IT_number 73
_symmetry_cell_setting 'orthorhombic'
loop_
_space_group_symop_operation_xyz
x,y,z
-x,1/2-y,z
x,-y,1/2-z
1/2-x,y,-z
-x,-y,-z
x,1/2+y,-z
-x,y,1/2+z
1/2+x,-y,z
1/2+x,1/2+y,1/2+z
1/2-x,-y,1/2+z
1/2+x,1/2-y,-z
-x,1/2+y,1/2-z
1/2-x,1/2-y,1/2-z
1/2+x,y,1/2-z
1/2-x,1/2+y,z
x,1/2-y,1/2+z
loop_
_atom_site_type_symbol
_atom_site_label
_atom_site_fract_x
_atom_site_fract_y
_atom_site_fract_z
Si Si1 0.718720 0.152124 0.567279
Si Si2 0.886464 0.637584 0.333151
Si Si3 0.140433 0.871233 0.115726
Si Si4 0.875277 0.427942 0.642854
Si Si5 0.668597 0.409271 0.229343
Si Si6 0.431533 0.449411 0.618983
Si Si7 0.126259 0.736170 0.535344
Si Si8 0.018493 0.685661 0.723537
O O1 0.750000 0.145386 0.500000
O O2 0.832883 0.163736 0.607945
O O3 0.657608 0.093749 0.587166
O O4 0.636684 0.208383 0.578174
O O5 0.798522 0.593808 0.299687
O O6 0.000703 0.603415 0.353466
O O7 0.919844 0.687185 0.287091
O O8 0.278857 0.888013 0.110639
O O9 0.112882 0.823710 0.067714
O O10 0.064867 0.929321 0.102196
O O11 0.105832 0.847011 0.178933
O O12 0.823935 0.439183 0.707775
O O13 0.899304 0.484870 0.603815
O O14 0.583401 0.447330 0.188647
O O15 0.609404 0.345572 0.229971
O O16 0.250000 0.735685 0.500000
O O17 0.000000 0.750000 0.501236
O O18 0.000000 0.750000 0.701317
#
# Coordination Sequence:
#
# PCOD8296121 Si02
#       8
#    16  16  16  16  16  16  16  16
#     4  10  23  44  70  93 127 174 227 278 340 402
#     4  10  22  40  60  96 133 174 226 274 336 407
#     4  11  23  40  65 100 133 173 227 270 343 413
#     4  11  23  40  62  96 135 175 220 281 329 404
#     4   9  20  39  56  93 128 172 217 266 327 403
#     4  10  22  40  65  90 127 172 224 270 334 392
#     4  11  24  46  74 100 134 178 231 289 346 410
#     4  10  21  36  64  93 136 174 213 272 340 401
#
# _framework density 21.235949999999999
#
# number of rings (size 3 to 8) (size 9 to 14) (size 15 to 20)
#    0.000    1.750    2.500    0.750    7.000    4.500 
#    0.000    1.875    0.000    0.000    0.000    0.000 
#    0.000    0.000    0.000    0.000    0.000    0.000 
#
# Total GULP energy -793033.159834 kJ/mol
# GULP energy per Si atom -12391.143122 kJ/mol
# Density = 2.118762 g / cm^3
# Si number density = 21.235950 Si / 1000 Ang^3
#
#
#
# Elastic Constant Matrix: (Units=GPa)
#
#
# Indices 1 2 3 4 5 6 
#
# 1 161.6191 47.7081 29.3999 0.0000 0.0000 0.0000
# 2 47.7081 120.0117 16.9951 0.0000 0.0000 0.0000
# 3 29.3999 16.9951 64.0392 0.0000 0.0000 0.0000
# 4 0.0000 0.0000 0.0000 26.2549 0.0000 0.0000
# 5 0.0000 0.0000 0.0000 0.0000 28.2959 0.0000
# 6 0.0000 0.0000 0.0000 0.0000 0.0000 31.6130
#
#
#
# Elastic Compliance Matrix: (Units=1/GPa)
#
#
# Indices 1 2 3 4 5 6 
#
# 1 0.007444 -0.002572 -0.002735 0.000000 0.000000 0.000000
# 2 -0.002572 0.009547 -0.001353 0.000000 0.000000 0.000000
# 3 -0.002735 -0.001353 0.017230 0.000000 0.000000 0.000000
# 4 0.000000 0.000000 0.000000 0.038088 0.000000 0.000000
# 5 0.000000 0.000000 0.000000 0.000000 0.035341 0.000000
# 6 0.000000 0.000000 0.000000 0.000000 0.000000 0.031633
#
#
# Mechanical properties :
#
#
# Convention : Reuss Voigt Hill
#
# Bulk Modulus (GPa) = 47.84384 59.31957 53.58171
# Shear Modulus (GPa) = 31.33451 34.00391 32.66921
#
# Velocity S-wave (km/s) = 3.84544 4.00589 3.92649
# Velocity P-wave (km/s) = 6.50347 7.02783 6.77073
#
# Compressibility (1/GPa) = 0.02090133
#
# Stress axis : x y z
#
# Youngs Moduli (GPa) = 134.33438 104.75037 58.03815
#
# Poissons Ratio (x) = 0.26941 0.15873
# Poissons Ratio (y) = 0.34550 0.07851
# Poissons Ratio (z) = 0.36740 0.14170
#
# Static dielectric constant tensor:
#      x y z
#    x 4.013710 0.000000 0.000000 
#    y 0.000000 3.823110 0.000000 
#    z 0.000000 0.000000 3.702400 
# 
# 
# High freq. dielectric constant tensor:
#      x y z
#    x 1.846340 0.000000 0.000000 
#    y 0.000000 1.823880 0.000000 
#    z 0.000000 0.000000 1.808430 
# 
# From -- ./inp_files/29150.got.cif
#   From: 2010.03.12/outbox.cif.g09.slc.cpg/sg73_15_cif.got.tgz:29150.got - 2010.04.16 15:25:48.
