data_PCOD8296964
_publ_section_title
;
Structure prediction by ZEFSAII (Michael W. Deem and Ramdas Pophale) SiO2 
 PCOD8296964
Probable space group: I B C A 
;
_chemical_formula_sum "Si O2"
_cell_formula_units_Z 96
_cell_length_a 15.678863
_cell_length_b 19.235638
_cell_length_c 13.749314
_cell_angle_alpha 90.000000
_cell_angle_beta 90.000000
_cell_angle_gamma 90.000000
_cell_volume 4146.695935
_symmetry_space_group_name_H-M "I B C A "
_symmetry_group_IT_number 73
_symmetry_cell_setting 'orthorhombic'
loop_
_space_group_symop_operation_xyz
x,y,z
-x,1/2-y,z
x,-y,1/2-z
1/2-x,y,-z
-x,-y,-z
x,1/2+y,-z
-x,y,1/2+z
1/2+x,-y,z
1/2+x,1/2+y,1/2+z
1/2-x,-y,1/2+z
1/2+x,1/2-y,-z
-x,1/2+y,1/2-z
1/2-x,1/2-y,1/2-z
1/2+x,y,1/2-z
1/2-x,1/2+y,z
x,1/2-y,1/2+z
loop_
_atom_site_type_symbol
_atom_site_label
_atom_site_fract_x
_atom_site_fract_y
_atom_site_fract_z
Si Si1 0.453345 0.023739 0.856048
Si Si2 0.888914 0.833001 0.817135
Si Si3 0.710326 0.156486 0.599397
Si Si4 0.750000 0.106976 0.000000
Si Si5 0.381217 0.297103 0.104090
Si Si6 0.000000 0.750000 0.452939
Si Si7 0.129726 0.006002 0.942270
O O1 0.444983 0.105853 0.862323
O O2 0.419109 0.000000 0.750000
O O3 0.551080 0.001789 0.869256
O O4 0.396410 0.994800 0.944477
O O5 0.786742 0.845155 0.821533
O O6 0.916909 0.824405 0.706182
O O7 0.919606 0.770728 0.886362
O O8 0.750000 0.183199 0.500000
O O9 0.641403 0.215656 0.624783
O O10 0.670729 0.080262 0.583437
O O11 0.697931 0.156562 0.071733
O O12 0.804155 0.057018 0.072858
O O13 0.457461 0.306811 0.025632
#
# Coordination Sequence:
#
# PCOD8296964 Si02
#       7
#    16  16  16   8  16   8  16
#     4  11  24  42  64  99 135 175 228 281 340 424
#     4  12  25  43  70 100 136 179 229 288 350 418
#     4  12  22  47  68  96 137 183 229 288 354 420
#     4  12  22  42  66 100 134 172 228 292 344 410
#     4  12  26  42  71 103 136 179 235 288 352 423
#     4  12  24  46  66  94 140 176 224 284 350 416
#     4  11  24  43  72  94 135 189 225 280 360 415
#
# _framework density 23.150962
#
# number of rings (size 3 to 8) (size 9 to 14) (size 15 to 20)
#    0.000    0.333    5.000    3.000    0.000    6.667 
#    0.000    0.833    0.000    0.000    0.000    0.000 
#    0.000    0.000    0.000    0.000    0.000    0.000 
#
# Total GULP energy -595080.960111 kJ/mol
# GULP energy per Si atom -12397.520002 kJ/mol
# Density = 2.309827 g / cm^3
# Si number density = 23.150962 Si / 1000 Ang^3
#
#
#
# Elastic Constant Matrix: (Units=GPa)
#
#
# Indices 1 2 3 4 5 6 
#
# 1 109.2462 38.6866 25.9277 0.0000 0.0000 0.0000
# 2 38.6866 96.1145 8.2419 0.0000 0.0000 0.0000
# 3 25.9277 8.2419 106.9502 0.0000 0.0000 0.0000
# 4 0.0000 0.0000 0.0000 22.2507 0.0000 0.0000
# 5 0.0000 0.0000 0.0000 0.0000 31.6991 0.0000
# 6 0.0000 0.0000 0.0000 0.0000 0.0000 21.5359
#
#
#
# Elastic Compliance Matrix: (Units=1/GPa)
#
#
# Indices 1 2 3 4 5 6 
#
# 1 0.011253 -0.004324 -0.002395 0.000000 0.000000 0.000000
# 2 -0.004324 0.012135 0.000113 0.000000 0.000000 0.000000
# 3 -0.002395 0.000113 0.009922 0.000000 0.000000 0.000000
# 4 0.000000 0.000000 0.000000 0.044942 0.000000 0.000000
# 5 0.000000 0.000000 0.000000 0.000000 0.031547 0.000000
# 6 0.000000 0.000000 0.000000 0.000000 0.000000 0.046434
#
#
# Mechanical properties :
#
#
# Convention : Reuss Voigt Hill
#
# Bulk Modulus (GPa) = 49.75479 50.89147 50.32313
# Shear Modulus (GPa) = 28.38570 31.06077 29.72324
#
# Velocity S-wave (km/s) = 3.50539 3.66684 3.58703
# Velocity P-wave (km/s) = 6.15807 6.32122 6.24018
#
# Compressibility (1/GPa) = 0.02009857
#
# Stress axis : x y z
#
# Youngs Moduli (GPa) = 88.86283 82.40595 100.78600
#
# Poissons Ratio (x) = 0.35634 0.24137
# Poissons Ratio (y) = 0.38426 -0.01140
# Poissons Ratio (z) = 0.21282 -0.00932
#
# Static dielectric constant tensor:
#      x y z
#    x 4.238960 0.000000 0.000000 
#    y 0.000000 4.162030 0.000000 
#    z 0.000000 0.000000 4.098190 
# 
# 
# High freq. dielectric constant tensor:
#      x y z
#    x 1.918930 0.000000 0.000000 
#    y 0.000000 1.920230 0.000000 
#    z 0.000000 0.000000 1.913060 
# 
# From -- ./inp_files/17090.got.cif
#   From: 2010.03.12/outbox.cif.g09.slc.cpg/sg73_9_cif.got.tgz:17090.got - 2010.04.16 15:25:48.
