data_PCOD8296062
_publ_section_title
;
Structure prediction by ZEFSAII (Michael W. Deem and Ramdas Pophale) SiO2 
 PCOD8296062
Probable space group: I B C A 
;
_chemical_formula_sum "Si O2"
_cell_formula_units_Z 96
_cell_length_a 20.137043
_cell_length_b 21.321540
_cell_length_c 9.409549
_cell_angle_alpha 90.000000
_cell_angle_beta 90.000000
_cell_angle_gamma 90.000000
_cell_volume 4040.015907
_symmetry_space_group_name_H-M "I B C A "
_symmetry_group_IT_number 73
_symmetry_cell_setting 'orthorhombic'
loop_
_space_group_symop_operation_xyz
x,y,z
-x,1/2-y,z
x,-y,1/2-z
1/2-x,y,-z
-x,-y,-z
x,1/2+y,-z
-x,y,1/2+z
1/2+x,-y,z
1/2+x,1/2+y,1/2+z
1/2-x,-y,1/2+z
1/2+x,1/2-y,-z
-x,1/2+y,1/2-z
1/2-x,1/2-y,1/2-z
1/2+x,y,1/2-z
1/2-x,1/2+y,z
x,1/2-y,1/2+z
loop_
_atom_site_type_symbol
_atom_site_label
_atom_site_fract_x
_atom_site_fract_y
_atom_site_fract_z
Si Si1 0.872985 0.763481 0.874218
Si Si2 0.576083 0.894549 0.183428
Si Si3 0.041235 0.619822 0.134858
Si Si4 0.176820 0.500000 0.750000
Si Si5 0.750000 0.828611 0.000000
Si Si6 0.250000 0.567537 0.500000
Si Si7 0.323336 0.861423 0.237455
Si Si8 0.500000 0.750000 0.951220
O O1 0.897888 0.823928 0.783962
O O2 0.816857 0.787926 0.983584
O O3 0.838378 0.712645 0.774056
O O4 0.935737 0.731476 0.953600
O O5 0.519308 0.917030 0.292672
O O6 0.635582 0.942131 0.191936
O O7 0.543813 0.898234 0.028639
O O8 0.110185 0.602832 0.212205
O O9 0.023846 0.693689 0.150101
O O10 0.218987 0.522309 0.616528
O O11 0.734820 0.870063 0.857335
O O12 0.197769 0.611692 0.416183
#
# Coordination Sequence:
#
# PCOD8296062 Si02
#       8
#    16  16  16   8   8   8  16   8
#     4  11  23  41  74 113 160 197 256 315 396 464
#     4  11  26  48  77 109 155 202 262 323 381 460
#     4  11  24  45  78 109 155 198 258 325 390 459
#     4  12  32  56  78 110 150 210 264 322 382 476
#     4  12  23  41  68 110 158 203 243 316 382 476
#     4  12  33  51  84 102 156 199 263 312 408 468
#     4  12  25  48  75 117 149 206 253 329 399 477
#     4  10  20  42  70 114 160 206 242 316 392 480
#
# _framework density 23.762281999999999
#
# number of rings (size 3 to 8) (size 9 to 14) (size 15 to 20)
#    0.000    0.667    3.333    5.000    7.000    2.000 
#    0.000    0.000    0.000    0.000    0.000    0.000 
#    0.000    0.000    0.000    0.000    0.000    0.000 
#
# Total GULP energy -595194.609013 kJ/mol
# GULP energy per Si atom -12399.887688 kJ/mol
# Density = 2.370820 g / cm^3
# Si number density = 23.762282 Si / 1000 Ang^3
#
#
#
# Elastic Constant Matrix: (Units=GPa)
#
#
# Indices 1 2 3 4 5 6 
#
# 1 155.1496 42.8353 65.7620 0.0000 0.0000 0.0000
# 2 42.8353 75.3336 50.9425 0.0000 0.0000 0.0000
# 3 65.7620 50.9425 144.9435 0.0000 0.0000 0.0000
# 4 0.0000 0.0000 0.0000 0.8243 0.0000 0.0000
# 5 0.0000 0.0000 0.0000 0.0000 52.2835 0.0000
# 6 0.0000 0.0000 0.0000 0.0000 0.0000 15.0365
#
#
#
# Elastic Compliance Matrix: (Units=1/GPa)
#
#
# Indices 1 2 3 4 5 6 
#
# 1 0.008436 -0.002897 -0.002809 0.000000 0.000000 0.000000
# 2 -0.002897 0.018408 -0.005155 0.000000 0.000000 0.000000
# 3 -0.002809 -0.005155 0.009986 0.000000 0.000000 0.000000
# 4 0.000000 0.000000 0.000000 1.213219 0.000000 0.000000
# 5 0.000000 0.000000 0.000000 0.000000 0.019126 0.000000
# 6 0.000000 0.000000 0.000000 0.000000 0.000000 0.066505
#
#
# Mechanical properties :
#
#
# Convention : Reuss Voigt Hill
#
# Bulk Modulus (GPa) = 66.19774 77.16737 71.68256
# Shear Modulus (GPa) = 3.66989 28.02132 15.84561
#
# Velocity S-wave (km/s) = 1.24409 3.43772 2.58512
# Velocity P-wave (km/s) = 5.47563 6.95000 6.25640
#
# Compressibility (1/GPa) = 0.01510626
#
# Stress axis : x y z
#
# Youngs Moduli (GPa) = 118.53983 54.32515 100.14330
#
# Poissons Ratio (x) = 0.15738 0.28133
# Poissons Ratio (y) = 0.34342 0.51626
# Poissons Ratio (z) = 0.33301 0.28006
#
# Static dielectric constant tensor:
#      x y z
#    x 4.635420 0.000000 0.000000 
#    y 0.000000 4.017230 0.000000 
#    z 0.000000 0.000000 4.297620 
# 
# 
# High freq. dielectric constant tensor:
#      x y z
#    x 1.965530 0.000000 0.000000 
#    y 0.000000 1.907670 0.000000 
#    z 0.000000 0.000000 1.951010 
# 
# From -- ./inp_files/6530.got.cif
#   From: 2010.03.12/outbox.cif.g09.slc.cpg/sg73_4_cif.got.tgz:6530.got - 2010.04.16 15:25:48.
