data_PCOD8296601
_publ_section_title
;
Structure prediction by ZEFSAII (Michael W. Deem and Ramdas Pophale) SiO2 
 PCOD8296601
Probable space group: I B C A 
;
_chemical_formula_sum "Si O2"
_cell_formula_units_Z 80
_cell_length_a 20.357718
_cell_length_b 13.862288
_cell_length_c 11.636258
_cell_angle_alpha 90.000000
_cell_angle_beta 90.000000
_cell_angle_gamma 90.000000
_cell_volume 3283.804952
_symmetry_space_group_name_H-M "I B C A "
_symmetry_group_IT_number 73
_symmetry_cell_setting 'orthorhombic'
loop_
_space_group_symop_operation_xyz
x,y,z
-x,1/2-y,z
x,-y,1/2-z
1/2-x,y,-z
-x,-y,-z
x,1/2+y,-z
-x,y,1/2+z
1/2+x,-y,z
1/2+x,1/2+y,1/2+z
1/2-x,-y,1/2+z
1/2+x,1/2-y,-z
-x,1/2+y,1/2-z
1/2-x,1/2-y,1/2-z
1/2+x,y,1/2-z
1/2-x,1/2+y,z
x,1/2-y,1/2+z
loop_
_atom_site_type_symbol
_atom_site_label
_atom_site_fract_x
_atom_site_fract_y
_atom_site_fract_z
Si Si1 0.624225 0.913104 0.457902
Si Si2 0.685086 0.739294 0.823933
Si Si3 0.496797 0.598834 0.304102
Si Si4 0.921694 0.217765 0.143322
Si Si5 0.611012 0.377628 0.028346
O O1 0.686243 0.862341 0.394076
O O2 0.559383 0.871589 0.393415
O O3 0.616489 0.873801 0.587966
O O4 0.633598 0.028641 0.455199
O O5 0.750000 0.750000 0.750000
O O6 0.622705 0.735493 0.741013
O O7 0.675425 0.826328 0.916204
O O8 0.472454 0.500000 0.250000
O O9 0.509389 0.676857 0.201154
O O10 0.564851 0.583304 0.370588
O O11 0.930762 0.301517 0.047400
#
# Coordination Sequence:
#
# PCOD8296601 Si02
#       5
#    16  16  16  16  16
#     4  11  24  42  67 104 139 184 235 287 357 427
#     4  10  25  47  71  96 138 185 242 302 341 413
#     4  11  23  41  68  98 145 183 224 289 349 436
#     4  10  24  44  66  98 140 178 235 285 356 414
#     4  10  23  43  70 102 139 186 236 280 365 427
#
# _framework density 24.361982999999999
#
# number of rings (size 3 to 8) (size 9 to 14) (size 15 to 20)
#    0.000    1.600    2.000    0.600    2.800   12.000 
#    0.000    6.000    0.000    0.000    0.000    0.000 
#    0.000    0.000    0.000    0.000    0.000    0.000 
#
# Total GULP energy -495868.528875 kJ/mol
# GULP energy per Si atom -12396.713222 kJ/mol
# Density = 2.430653 g / cm^3
# Si number density = 24.361983 Si / 1000 Ang^3
#
#
#
# Elastic Constant Matrix: (Units=GPa)
#
#
# Indices 1 2 3 4 5 6 
#
# 1 68.2076 31.5234 29.8190 0.0000 0.0000 0.0000
# 2 31.5234 179.8659 62.5685 0.0000 0.0000 0.0000
# 3 29.8190 62.5685 114.7553 0.0000 0.0000 0.0000
# 4 0.0000 0.0000 0.0000 42.3384 0.0000 0.0000
# 5 0.0000 0.0000 0.0000 0.0000 46.1613 0.0000
# 6 0.0000 0.0000 0.0000 0.0000 0.0000 23.3730
#
#
#
# Elastic Compliance Matrix: (Units=1/GPa)
#
#
# Indices 1 2 3 4 5 6 
#
# 1 0.016989 -0.001779 -0.003444 0.000000 0.000000 0.000000
# 2 -0.001779 0.007047 -0.003380 0.000000 0.000000 0.000000
# 3 -0.003444 -0.003380 0.011452 0.000000 0.000000 0.000000
# 4 0.000000 0.000000 0.000000 0.023619 0.000000 0.000000
# 5 0.000000 0.000000 0.000000 0.000000 0.021663 0.000000
# 6 0.000000 0.000000 0.000000 0.000000 0.000000 0.042784
#
#
# Mechanical properties :
#
#
# Convention : Reuss Voigt Hill
#
# Bulk Modulus (GPa) = 54.70159 67.85006 61.27582
# Shear Modulus (GPa) = 34.04665 38.30238 36.17452
#
# Velocity S-wave (km/s) = 3.74241 3.96942 3.85759
# Velocity P-wave (km/s) = 6.41690 6.99426 6.71179
#
# Compressibility (1/GPa) = 0.01828100
#
# Stress axis : x y z
#
# Youngs Moduli (GPa) = 58.86043 141.89719 87.31956
#
# Poissons Ratio (x) = 0.25249 0.30077
# Poissons Ratio (y) = 0.10473 0.29515
# Poissons Ratio (z) = 0.20274 0.47963
#
# Static dielectric constant tensor:
#      x y z
#    x 4.013310 0.000000 0.000000 
#    y 0.000000 4.456180 0.000000 
#    z 0.000000 0.000000 4.870240 
# 
# 
# High freq. dielectric constant tensor:
#      x y z
#    x 1.923000 0.000000 0.000000 
#    y 0.000000 1.985510 0.000000 
#    z 0.000000 0.000000 1.991250 
# 
# From -- ./inp_files/13410.got.cif
#   From: 2010.03.12/outbox.cif.g09.slc.cpg/sg73_7_cif.got.tgz:13410.got - 2010.04.16 15:25:48.
