data_PCOD8296590
_publ_section_title
;
Structure prediction by ZEFSAII (Michael W. Deem and Ramdas Pophale) SiO2 
 PCOD8296590
Probable space group: I B C A 
;
_chemical_formula_sum "Si O2"
_cell_formula_units_Z 72
_cell_length_a 9.588298
_cell_length_b 23.039840
_cell_length_c 13.972096
_cell_angle_alpha 90.000000
_cell_angle_beta 90.000000
_cell_angle_gamma 90.000000
_cell_volume 3086.615573
_symmetry_space_group_name_H-M "I B C A "
_symmetry_group_IT_number 73
_symmetry_cell_setting 'orthorhombic'
loop_
_space_group_symop_operation_xyz
x,y,z
-x,1/2-y,z
x,-y,1/2-z
1/2-x,y,-z
-x,-y,-z
x,1/2+y,-z
-x,y,1/2+z
1/2+x,-y,z
1/2+x,1/2+y,1/2+z
1/2-x,-y,1/2+z
1/2+x,1/2-y,-z
-x,1/2+y,1/2-z
1/2-x,1/2-y,1/2-z
1/2+x,y,1/2-z
1/2-x,1/2+y,z
x,1/2-y,1/2+z
loop_
_atom_site_type_symbol
_atom_site_label
_atom_site_fract_x
_atom_site_fract_y
_atom_site_fract_z
Si Si1 0.784507 0.500000 0.750000
Si Si2 0.479464 0.315921 0.661140
Si Si3 0.709420 0.129217 0.270069
Si Si4 0.394399 0.539521 0.553813
Si Si5 0.395639 0.363323 0.466839
O O1 0.696170 0.558402 0.724189
O O2 0.881796 0.483560 0.661233
O O3 0.500000 0.250000 0.693587
O O4 0.369450 0.349066 0.730812
O O5 0.626987 0.349524 0.675602
O O6 0.430862 0.316790 0.549812
O O7 0.638640 0.161524 0.361672
O O8 0.250000 0.541847 0.500000
O O9 0.500000 0.500000 0.500000
O O10 0.463786 0.601758 0.549270
O O11 0.250000 0.396680 0.500000
#
# Coordination Sequence:
#
# PCOD8296590 Si02
#       5
#     8  16  16  16  16
#     4  12  26  44  70 102 144 182 222 282 354 420
#     4  11  24  45  71  99 135 181 233 286 344 407
#     4  11  24  44  69 102 138 180 229 285 347 419
#     4  12  24  40  64  95 134 181 228 278 342 419
#     4  10  23  43  63  92 133 174 225 283 337 400
#
# _framework density 23.326521
#
# number of rings (size 3 to 8) (size 9 to 14) (size 15 to 20)
#    0.000    0.889    0.000    8.000    0.000    7.111 
#    0.000   12.222    0.000    0.000    0.000    0.000 
#    0.000    0.000    0.000    0.000    0.000    0.000 
#
# Total GULP energy -446017.384226 kJ/mol
# GULP energy per Si atom -12389.371784 kJ/mol
# Density = 2.327343 g / cm^3
# Si number density = 23.326521 Si / 1000 Ang^3
#
#
#
# Elastic Constant Matrix: (Units=GPa)
#
#
# Indices 1 2 3 4 5 6 
#
# 1 128.9464 44.5844 46.4107 -0.0003 0.0001 0.0000
# 2 44.5844 129.1979 18.3120 0.0001 0.0000 0.0000
# 3 46.4107 18.3120 125.2306 -0.0017 0.0007 0.0000
# 4 -0.0003 0.0001 -0.0017 30.9726 0.0002 0.0000
# 5 0.0001 0.0000 0.0007 0.0002 43.6427 -0.0001
# 6 0.0000 0.0000 0.0000 0.0000 -0.0001 26.8135
#
#
#
# Elastic Compliance Matrix: (Units=1/GPa)
#
#
# Indices 1 2 3 4 5 6 
#
# 1 0.009955 -0.002974 -0.003254 0.000000 0.000000 0.000000
# 2 -0.002974 0.008792 -0.000184 0.000000 0.000000 0.000000
# 3 -0.003254 -0.000184 0.009218 0.000000 0.000000 0.000000
# 4 0.000000 0.000000 0.000000 0.032287 0.000000 0.000000
# 5 0.000000 0.000000 0.000000 0.000000 0.022913 0.000000
# 6 0.000000 0.000000 0.000000 0.000000 0.000000 0.037295
#
#
# Mechanical properties :
#
#
# Convention : Reuss Voigt Hill
#
# Bulk Modulus (GPa) = 66.04341 66.88767 66.46554
# Shear Modulus (GPa) = 36.14522 38.55694 37.35108
#
# Velocity S-wave (km/s) = 3.94068 4.07003 4.00588
# Velocity P-wave (km/s) = 7.00567 7.12907 7.06763
#
# Compressibility (1/GPa) = 0.01514156
#
# Stress axis : x y z
#
# Youngs Moduli (GPa) = 100.45437 113.73514 108.48128
#
# Poissons Ratio (x) = 0.33825 0.35304
# Poissons Ratio (y) = 0.29875 0.01991
# Poissons Ratio (z) = 0.32692 0.02087
#
# Static dielectric constant tensor:
#      x y z
#    x 4.192270 0.000000 0.000000 
#    y 0.000000 3.749090 0.000000 
#    z 0.000000 0.000000 4.447470 
# 
# 
# High freq. dielectric constant tensor:
#      x y z
#    x 1.940490 0.000000 0.000000 
#    y 0.000000 1.887700 0.000000 
#    z 0.000000 0.000000 1.936370 
# 
# From -- ./inp_files/15518.got.cif
#   From: 2010.03.12/outbox.cif.g09.slc.cpg/sg73_8_cif.got.tgz:15518.got - 2010.04.16 15:25:48.
