data_PCOD8296389
_publ_section_title
;
Structure prediction by ZEFSAII (Michael W. Deem and Ramdas Pophale) SiO2 
 PCOD8296389
Probable space group: I B C A 
;
_chemical_formula_sum "Si O2"
_cell_formula_units_Z 88
_cell_length_a 11.709912
_cell_length_b 23.558600
_cell_length_c 13.992580
_cell_angle_alpha 90.000000
_cell_angle_beta 90.000000
_cell_angle_gamma 90.000000
_cell_volume 3860.120911
_symmetry_space_group_name_H-M "I B C A "
_symmetry_group_IT_number 73
_symmetry_cell_setting 'orthorhombic'
loop_
_space_group_symop_operation_xyz
x,y,z
-x,1/2-y,z
x,-y,1/2-z
1/2-x,y,-z
-x,-y,-z
x,1/2+y,-z
-x,y,1/2+z
1/2+x,-y,z
1/2+x,1/2+y,1/2+z
1/2-x,-y,1/2+z
1/2+x,1/2-y,-z
-x,1/2+y,1/2-z
1/2-x,1/2-y,1/2-z
1/2+x,y,1/2-z
1/2-x,1/2+y,z
x,1/2-y,1/2+z
loop_
_atom_site_type_symbol
_atom_site_label
_atom_site_fract_x
_atom_site_fract_y
_atom_site_fract_z
Si Si1 0.998266 0.373633 0.011064
Si Si2 0.500000 0.750000 0.942069
Si Si3 0.461882 0.000000 0.750000
Si Si4 0.319734 0.050092 0.592686
Si Si5 0.693108 0.792950 0.821631
Si Si6 0.887992 0.898631 0.296578
Si Si7 0.750000 0.143842 0.500000
O O1 0.085149 0.405160 0.940643
O O2 0.010665 0.306043 0.005377
O O3 0.866928 0.392180 0.985100
O O4 0.024174 0.387689 0.119055
O O5 0.608024 0.751615 0.874694
O O6 0.382029 0.999898 0.846207
O O7 0.546294 0.946807 0.762596
O O8 0.250000 0.025764 0.500000
O O9 0.235271 0.082169 0.664942
O O10 0.750000 0.750000 0.750000
O O11 0.627193 0.843708 0.768627
O O12 0.775148 0.818686 0.904273
#
# Coordination Sequence:
#
# PCOD8296389 Si02
#       7
#    16   8   8  16  16  16   8
#     4  10  23  44  69 101 149 184 240 298 362 433
#     4  10  22  40  64  98 142 186 232 286 360 432
#     4  12  24  46  76 104 146 192 246 308 358 438
#     4  10  24  48  70 105 142 188 239 305 367 426
#     4  11  25  40  71 104 144 186 238 294 359 432
#     4  11  26  43  74 106 143 192 243 301 361 437
#     4  10  24  42  64 108 138 194 232 294 352 436
#
# _framework density 22.797212999999999
#
# number of rings (size 3 to 8) (size 9 to 14) (size 15 to 20)
#    0.000    1.455    0.000    3.818   10.182    2.909 
#    6.545    0.000    0.000    0.000    0.000    0.000 
#    0.000    0.000    0.000    0.000    0.000    0.000 
#
# Total GULP energy -545305.444893 kJ/mol
# GULP energy per Si atom -12393.305566 kJ/mol
# Density = 2.274533 g / cm^3
# Si number density = 22.797213 Si / 1000 Ang^3
#
#
#
# Elastic Constant Matrix: (Units=GPa)
#
#
# Indices 1 2 3 4 5 6 
#
# 1 146.4281 38.3633 34.5280 0.0001 -0.0003 0.0000
# 2 38.3633 86.9274 25.3297 0.0003 -0.0019 -0.0001
# 3 34.5280 25.3297 93.4139 0.0004 -0.0187 -0.0005
# 4 0.0001 0.0003 0.0004 42.9548 -0.0032 -0.0001
# 5 -0.0003 -0.0019 -0.0187 -0.0032 618.3554 0.0002
# 6 0.0000 -0.0001 -0.0005 -0.0001 0.0002 30.8536
#
#
#
# Elastic Compliance Matrix: (Units=1/GPa)
#
#
# Indices 1 2 3 4 5 6 
#
# 1 0.008119 -0.002941 -0.002204 0.000000 0.000000 0.000000
# 2 -0.002941 0.013556 -0.002589 0.000000 0.000000 0.000000
# 3 -0.002204 -0.002589 0.012221 0.000000 0.000000 0.000000
# 4 0.000000 0.000000 0.000000 0.023280 0.000000 0.000000
# 5 0.000000 0.000000 0.000000 0.000000 0.001617 0.000000
# 6 0.000000 0.000000 0.000000 0.000000 0.000000 0.032411
#
#
# Mechanical properties :
#
#
# Convention : Reuss Voigt Hill
#
# Bulk Modulus (GPa) = 54.25907 58.13460 56.19684
# Shear Modulus (GPa) = 44.31985 153.66932 98.99459
#
# Velocity S-wave (km/s) = 4.41397 8.21909 6.59684
# Velocity P-wave (km/s) = 7.05903 10.75301 9.09553
#
# Compressibility (1/GPa) = 0.01843010
#
# Stress axis : x y z
#
# Youngs Moduli (GPa) = 123.16038 73.76687 81.82303
#
# Poissons Ratio (x) = 0.21697 0.18031
# Poissons Ratio (y) = 0.36224 0.21182
# Poissons Ratio (z) = 0.27140 0.19096
#
# Static dielectric constant tensor:
#      x y z
#    x 4.376980 0.000000 0.000000 
#    y 0.000000 3.825990 0.000000 
#    z 0.000000 0.000000 4.314330 
# 
# 
# High freq. dielectric constant tensor:
#      x y z
#    x 1.916320 0.000000 0.000000 
#    y 0.000000 1.883220 0.000000 
#    z 0.000000 0.000000 1.916280 
# 
# From -- ./inp_files/13574.got.cif
#   From: 2010.03.12/outbox.cif.g09.slc.cpg/sg73_7_cif.got.tgz:13574.got - 2010.04.16 15:25:48.
