data_PCOD8296192
_publ_section_title
;
Structure prediction by ZEFSAII (Michael W. Deem and Ramdas Pophale) SiO2 
 PCOD8296192
Probable space group: I B C A 
;
_chemical_formula_sum "Si O2"
_cell_formula_units_Z 72
_cell_length_a 9.234954
_cell_length_b 27.489038
_cell_length_c 12.810686
_cell_angle_alpha 90.000000
_cell_angle_beta 90.000000
_cell_angle_gamma 90.000000
_cell_volume 3252.120766
_symmetry_space_group_name_H-M "I B C A "
_symmetry_group_IT_number 73
_symmetry_cell_setting 'orthorhombic'
loop_
_space_group_symop_operation_xyz
x,y,z
-x,1/2-y,z
x,-y,1/2-z
1/2-x,y,-z
-x,-y,-z
x,1/2+y,-z
-x,y,1/2+z
1/2+x,-y,z
1/2+x,1/2+y,1/2+z
1/2-x,-y,1/2+z
1/2+x,1/2-y,-z
-x,1/2+y,1/2-z
1/2-x,1/2-y,1/2-z
1/2+x,y,1/2-z
1/2-x,1/2+y,z
x,1/2-y,1/2+z
loop_
_atom_site_type_symbol
_atom_site_label
_atom_site_fract_x
_atom_site_fract_y
_atom_site_fract_z
Si Si1 0.597893 0.202443 0.958168
Si Si2 0.755234 0.192763 0.242549
Si Si3 0.250000 0.000931 0.500000
Si Si4 0.488492 0.353706 0.646279
Si Si5 0.000090 0.034934 0.853222
O O1 0.500000 0.250000 0.949389
O O2 0.631629 0.177253 0.848133
O O3 0.750000 0.222914 0.000000
O O4 0.534134 0.158598 0.027997
O O5 0.750000 0.250000 0.250000
O O6 0.825103 0.167193 0.343681
O O7 0.593758 0.174561 0.225532
O O8 0.353186 0.030802 0.578631
O O9 0.142576 0.970814 0.574849
O O10 0.495878 0.409437 0.681360
O O11 0.000185 0.000000 0.750000
#
# Coordination Sequence:
#
# PCOD8296192 Si02
#       5
#    16  16   8  16  16
#     4  10  21  39  62  91 134 177 217 280 333 403
#     4  11  23  42  65  99 139 181 227 280 337 416
#     4  10  26  48  72 102 146 174 238 302 358 428
#     4  11  25  40  69  98 133 181 232 276 353 413
#     4  11  26  47  75 103 144 183 237 297 367 429
#
# _framework density 22.139399999999998
#
# number of rings (size 3 to 8) (size 9 to 14) (size 15 to 20)
#    0.000    1.333    0.000    5.333   10.889    1.778 
#    6.000    0.000    0.000    0.000    0.000    0.000 
#    0.000    0.000    0.000    0.000    0.000    0.000 
#
# Total GULP energy -446064.699826 kJ/mol
# GULP energy per Si atom -12390.686106 kJ/mol
# Density = 2.208901 g / cm^3
# Si number density = 22.139400 Si / 1000 Ang^3
#
#
#
# Elastic Constant Matrix: (Units=GPa)
#
#
# Indices 1 2 3 4 5 6 
#
# 1 90.6198 11.3279 25.8842 0.0000 -0.0006 -0.0001
# 2 11.3279 123.4564 1.7054 0.0002 -0.0003 -0.0001
# 3 25.8842 1.7054 68.4045 -0.0004 -0.0013 0.0000
# 4 0.0000 0.0002 -0.0004 25.0758 0.0000 0.0000
# 5 -0.0006 -0.0003 -0.0013 0.0000 48.0611 -0.0001
# 6 -0.0001 -0.0001 0.0000 0.0000 -0.0001 25.7795
#
#
#
# Elastic Compliance Matrix: (Units=1/GPa)
#
#
# Indices 1 2 3 4 5 6 
#
# 1 0.012516 -0.001083 -0.004709 0.000000 0.000000 0.000000
# 2 -0.001083 0.008197 0.000206 0.000000 0.000000 0.000000
# 3 -0.004709 0.000206 0.016396 0.000000 0.000000 0.000000
# 4 0.000000 0.000000 0.000000 0.039879 0.000000 0.000000
# 5 0.000000 0.000000 0.000000 0.000000 0.020807 0.000000
# 6 0.000000 0.000000 0.000000 0.000000 0.000000 0.038791
#
#
# Mechanical properties :
#
#
# Convention : Reuss Voigt Hill
#
# Bulk Modulus (GPa) = 38.55863 40.03507 39.29685
# Shear Modulus (GPa) = 31.96884 36.02084 33.99484
#
# Velocity S-wave (km/s) = 3.80410 4.03799 3.92278
# Velocity P-wave (km/s) = 6.06209 6.31371 6.18918
#
# Compressibility (1/GPa) = 0.02593453
#
# Stress axis : x y z
#
# Youngs Moduli (GPa) = 79.90061 122.00202 60.99193
#
# Poissons Ratio (x) = 0.13217 0.28720
# Poissons Ratio (y) = 0.08656 -0.01254
# Poissons Ratio (z) = 0.37624 -0.02508
#
# Static dielectric constant tensor:
#      x y z
#    x 3.965820 -0.000010 0.000040 
#    y -0.000010 3.632530 -0.000010 
#    z 0.000040 -0.000010 4.629180 
# 
# 
# High freq. dielectric constant tensor:
#      x y z
#    x 1.897250 0.000000 0.000000 
#    y 0.000000 1.850620 0.000000 
#    z 0.000000 0.000000 1.881790 
# 
# From -- ./inp_files/15531.got.cif
#   From: 2010.03.12/outbox.cif.g09.slc.cpg/sg73_8_cif.got.tgz:15531.got - 2010.04.16 15:25:48.
