data_PCOD8296661
_publ_section_title
;
Structure prediction by ZEFSAII (Michael W. Deem and Ramdas Pophale) SiO2 
 PCOD8296661
Probable space group: I B C A 
;
_chemical_formula_sum "Si O2"
_cell_formula_units_Z 88
_cell_length_a 29.882986
_cell_length_b 28.905445
_cell_length_c 5.034702
_cell_angle_alpha 90.000000
_cell_angle_beta 90.000000
_cell_angle_gamma 90.000000
_cell_volume 4348.879970
_symmetry_space_group_name_H-M "I B C A "
_symmetry_group_IT_number 73
_symmetry_cell_setting 'orthorhombic'
loop_
_space_group_symop_operation_xyz
x,y,z
-x,1/2-y,z
x,-y,1/2-z
1/2-x,y,-z
-x,-y,-z
x,1/2+y,-z
-x,y,1/2+z
1/2+x,-y,z
1/2+x,1/2+y,1/2+z
1/2-x,-y,1/2+z
1/2+x,1/2-y,-z
-x,1/2+y,1/2-z
1/2-x,1/2-y,1/2-z
1/2+x,y,1/2-z
1/2-x,1/2+y,z
x,1/2-y,1/2+z
loop_
_atom_site_type_symbol
_atom_site_label
_atom_site_fract_x
_atom_site_fract_y
_atom_site_fract_z
Si Si1 0.818273 0.719064 0.244026
Si Si2 0.422554 0.000000 0.750000
Si Si3 0.621580 0.362079 0.704352
Si Si4 0.750000 0.847219 0.000000
Si Si5 0.140395 0.000000 0.750000
Si Si6 0.168296 0.401116 0.304397
Si Si7 0.470981 0.903820 0.744226
O O1 0.815732 0.761748 0.446166
O O2 0.864420 0.690446 0.280066
O O3 0.776979 0.684443 0.292204
O O4 0.391603 0.994308 0.497956
O O5 0.453836 0.955712 0.785310
O O6 0.640616 0.373265 0.414612
O O7 0.568196 0.366667 0.702711
O O8 0.642187 0.397758 0.916680
O O9 0.717653 0.879679 0.826101
O O10 0.172076 0.955043 0.774663
O O11 0.488846 0.895222 0.448859
#
# Coordination Sequence:
#
# PCOD8296661 Si02
#       7
#    16   8  16   8   8  16  16
#     4  11  23  41  67  93 120 154 199 259 321 376
#     4  12  22  39  59  94 124 164 220 254 303 351
#     4  11  23  42  62  89 127 163 203 250 319 381
#     4  10  24  40  64  96 126 154 210 266 308 368
#     4  12  20  39  63  82 130 178 214 246 291 369
#     4  11  22  40  61  88 124 175 207 250 302 360
#     4  12  23  38  62  94 127 162 205 260 308 358
#
# _framework density 20.235097
#
# number of rings (size 3 to 8) (size 9 to 14) (size 15 to 20)
#    0.000    0.727    3.636    5.455    0.000    5.818 
#    0.000    4.545    0.000    3.273    0.000    0.000 
#    0.000    0.000    0.000    0.000    0.000    0.000 
#
# Total GULP energy -545838.735165 kJ/mol
# GULP energy per Si atom -12405.425799 kJ/mol
# Density = 2.018904 g / cm^3
# Si number density = 20.235097 Si / 1000 Ang^3
#
#
#
# Elastic Constant Matrix: (Units=GPa)
#
#
# Indices 1 2 3 4 5 6 
#
# 1 119.9281 57.4477 24.3058 0.0000 0.0000 0.0000
# 2 57.4477 95.2739 11.6768 0.0000 0.0000 0.0000
# 3 24.3058 11.6768 86.8032 0.0000 0.0000 0.0000
# 4 0.0000 0.0000 0.0000 18.1874 0.0000 0.0000
# 5 0.0000 0.0000 0.0000 0.0000 31.7884 0.0000
# 6 0.0000 0.0000 0.0000 0.0000 0.0000 28.3805
#
#
#
# Elastic Compliance Matrix: (Units=1/GPa)
#
#
# Indices 1 2 3 4 5 6 
#
# 1 0.012225 -0.007069 -0.002472 0.000000 0.000000 0.000000
# 2 -0.007069 0.014759 -0.000006 0.000000 0.000000 0.000000
# 3 -0.002472 -0.000006 0.012213 0.000000 0.000000 0.000000
# 4 0.000000 0.000000 0.000000 0.054983 0.000000 0.000000
# 5 0.000000 0.000000 0.000000 0.000000 0.031458 0.000000
# 6 0.000000 0.000000 0.000000 0.000000 0.000000 0.035235
#
#
# Mechanical properties :
#
#
# Convention : Reuss Voigt Hill
#
# Bulk Modulus (GPa) = 49.74213 54.31841 52.03027
# Shear Modulus (GPa) = 26.78528 29.57626 28.18077
#
# Velocity S-wave (km/s) = 3.64222 3.82728 3.73590
# Velocity P-wave (km/s) = 6.50563 6.81415 6.66168
#
# Compressibility (1/GPa) = 0.02010368
#
# Stress axis : x y z
#
# Youngs Moduli (GPa) = 81.79713 67.75547 81.87711
#
# Poissons Ratio (x) = 0.47893 0.20243
# Poissons Ratio (y) = 0.57819 0.00050
# Poissons Ratio (z) = 0.20223 0.00041
#
# Static dielectric constant tensor:
#      x y z
#    x 3.870240 0.000000 0.000000 
#    y 0.000000 3.796690 0.000000 
#    z 0.000000 0.000000 3.743790 
# 
# 
# High freq. dielectric constant tensor:
#      x y z
#    x 1.780070 0.000000 0.000000 
#    y 0.000000 1.785070 0.000000 
#    z 0.000000 0.000000 1.809980 
# 
# From -- ./inp_files/3132.got.cif
#   From: 2010.03.12/outbox.cif.g09.slc.cpg/sg73_2_cif.got.tgz:3132.got - 2010.04.16 15:25:48.
