data_PCOD8296117
_publ_section_title
;
Structure prediction by ZEFSAII (Michael W. Deem and Ramdas Pophale) SiO2 
 PCOD8296117
Probable space group: I B C A 
;
_chemical_formula_sum "Si O2"
_cell_formula_units_Z 120
_cell_length_a 18.082588
_cell_length_b 17.187344
_cell_length_c 20.202204
_cell_angle_alpha 90.000000
_cell_angle_beta 90.000000
_cell_angle_gamma 90.000000
_cell_volume 6278.676524
_symmetry_space_group_name_H-M "I B C A "
_symmetry_group_IT_number 73
_symmetry_cell_setting 'orthorhombic'
loop_
_space_group_symop_operation_xyz
x,y,z
-x,1/2-y,z
x,-y,1/2-z
1/2-x,y,-z
-x,-y,-z
x,1/2+y,-z
-x,y,1/2+z
1/2+x,-y,z
1/2+x,1/2+y,1/2+z
1/2-x,-y,1/2+z
1/2+x,1/2-y,-z
-x,1/2+y,1/2-z
1/2-x,1/2-y,1/2-z
1/2+x,y,1/2-z
1/2-x,1/2+y,z
x,1/2-y,1/2+z
loop_
_atom_site_type_symbol
_atom_site_label
_atom_site_fract_x
_atom_site_fract_y
_atom_site_fract_z
Si Si1 0.827601 0.148387 0.470806
Si Si2 0.913052 0.000934 0.502833
Si Si3 0.605188 0.604733 0.111194
Si Si4 0.881970 0.780781 0.903686
Si Si5 0.242169 0.126043 0.704889
Si Si6 0.553944 0.436236 0.865462
Si Si7 0.646503 0.000000 0.250000
Si Si8 0.228515 0.208498 0.837951
O O1 0.750000 0.116960 0.500000
O O2 0.857041 0.215601 0.519692
O O3 0.823581 0.184344 0.398119
O O4 0.882828 0.076580 0.465472
O O5 0.878137 0.926418 0.464219
O O6 0.900300 0.008443 0.582345
O O7 0.000000 0.000000 0.500000
O O8 0.585137 0.695817 0.108980
O O9 0.676310 0.593882 0.158272
O O10 0.535561 0.553108 0.138148
O O11 0.941890 0.846484 0.888479
O O12 0.814416 0.801120 0.855073
O O13 0.301497 0.057540 0.708899
O O14 0.209176 0.152371 0.776127
O O15 0.285807 0.200448 0.675811
O O16 0.591824 0.450213 0.795650
#
# Coordination Sequence:
#
# PCOD8296117 Si02
#       8
#    16  16  16  16  16  16   8  16
#     4   9  18  32  59  83 111 152 191 234 293 340
#     4   9  20  37  55  83 116 143 187 243 288 337
#     4  10  21  36  60  86 111 149 196 240 287 351
#     4   9  17  35  59  83 108 151 195 235 285 348
#     4  10  22  35  58  85 117 154 191 245 287 351
#     4  10  21  39  57  81 114 156 191 236 290 355
#     4  12  24  38  58  82 122 158 192 236 306 348
#     4   9  18  37  54  83 121 147 193 243 287 333
#
# _framework density 19.112307999999999
#
# number of rings (size 3 to 8) (size 9 to 14) (size 15 to 20)
#    0.000    2.400    1.333    0.400    1.867    1.600 
#    2.400    3.333    0.000    0.000    0.000    0.000 
#    0.000    0.000    0.000    0.000    0.000    0.000 
#
# Total GULP energy -743518.950283 kJ/mol
# GULP energy per Si atom -12391.982505 kJ/mol
# Density = 1.906881 g / cm^3
# Si number density = 19.112308 Si / 1000 Ang^3
#
#
#
# Elastic Constant Matrix: (Units=GPa)
#
#
# Indices 1 2 3 4 5 6 
#
# 1 83.4347 40.8297 44.8542 0.0000 0.0000 0.0000
# 2 40.8297 74.6215 42.4265 0.0000 0.0000 0.0000
# 3 44.8542 42.4265 118.5710 0.0000 0.0000 0.0000
# 4 0.0000 0.0000 0.0000 33.2948 0.0000 0.0000
# 5 0.0000 0.0000 0.0000 0.0000 27.8962 0.0000
# 6 0.0000 0.0000 0.0000 0.0000 0.0000 27.0919
#
#
#
# Elastic Compliance Matrix: (Units=1/GPa)
#
#
# Indices 1 2 3 4 5 6 
#
# 1 0.017814 -0.007426 -0.004082 0.000000 0.000000 0.000000
# 2 -0.007426 0.019919 -0.004318 0.000000 0.000000 0.000000
# 3 -0.004082 -0.004318 0.011523 0.000000 0.000000 0.000000
# 4 0.000000 0.000000 0.000000 0.030035 0.000000 0.000000
# 5 0.000000 0.000000 0.000000 0.000000 0.035847 0.000000
# 6 0.000000 0.000000 0.000000 0.000000 0.000000 0.036911
#
#
# Mechanical properties :
#
#
# Convention : Reuss Voigt Hill
#
# Bulk Modulus (GPa) = 56.80515 59.20532 58.00524
# Shear Modulus (GPa) = 26.37553 27.55769 26.96661
#
# Velocity S-wave (km/s) = 3.71890 3.80133 3.76034
# Velocity P-wave (km/s) = 6.94454 7.09307 7.01920
#
# Compressibility (1/GPa) = 0.01760404
#
# Stress axis : x y z
#
# Youngs Moduli (GPa) = 56.13620 50.20207 86.78403
#
# Poissons Ratio (x) = 0.37282 0.35421
# Poissons Ratio (y) = 0.41689 0.37475
# Poissons Ratio (z) = 0.22912 0.21678
#
# Static dielectric constant tensor:
#      x y z
#    x 3.238890 0.000000 0.000000 
#    y 0.000000 3.620340 0.000000 
#    z 0.000000 0.000000 3.786110 
# 
# 
# High freq. dielectric constant tensor:
#      x y z
#    x 1.730760 0.000000 0.000000 
#    y 0.000000 1.737730 0.000000 
#    z 0.000000 0.000000 1.745670 
# 
# From -- ./inp_files/26682.got.cif
#   From: 2010.03.12/outbox.cif.g09.slc.cpg/sg73_14_cif.got.tgz:26682.got - 2010.04.16 15:25:48.
