data_PCOD8296752
_publ_section_title
;
Structure prediction by ZEFSAII (Michael W. Deem and Ramdas Pophale) SiO2 
 PCOD8296752
Probable space group: I B C A 
;
_chemical_formula_sum "Si O2"
_cell_formula_units_Z 72
_cell_length_a 21.093879
_cell_length_b 9.020188
_cell_length_c 17.268858
_cell_angle_alpha 90.000000
_cell_angle_beta 90.000000
_cell_angle_gamma 90.000000
_cell_volume 3285.758636
_symmetry_space_group_name_H-M "I B C A "
_symmetry_group_IT_number 73
_symmetry_cell_setting 'orthorhombic'
loop_
_space_group_symop_operation_xyz
x,y,z
-x,1/2-y,z
x,-y,1/2-z
1/2-x,y,-z
-x,-y,-z
x,1/2+y,-z
-x,y,1/2+z
1/2+x,-y,z
1/2+x,1/2+y,1/2+z
1/2-x,-y,1/2+z
1/2+x,1/2-y,-z
-x,1/2+y,1/2-z
1/2-x,1/2-y,1/2-z
1/2+x,y,1/2-z
1/2-x,1/2+y,z
x,1/2-y,1/2+z
loop_
_atom_site_type_symbol
_atom_site_label
_atom_site_fract_x
_atom_site_fract_y
_atom_site_fract_z
Si Si1 0.103167 0.500000 0.750000
Si Si2 0.953300 0.554424 0.407970
Si Si3 0.086287 0.135046 0.537131
Si Si4 0.707364 0.305966 0.680334
Si Si5 0.713890 0.524115 0.420222
O O1 0.059162 0.435476 0.682675
O O2 0.142481 0.638421 0.717815
O O3 0.922755 0.407033 0.446384
O O4 0.918461 0.688783 0.453386
O O5 0.029066 0.556339 0.416432
O O6 0.153447 0.080995 0.568864
O O7 0.750000 0.250000 0.750000
O O8 0.738946 0.446359 0.639249
O O9 0.693080 0.180330 0.616575
O O10 0.750000 0.557655 0.500000
#
# Coordination Sequence:
#
# PCOD8296752 Si02
#       5
#     8  16  16  16  16
#     4  12  24  46  72  98 142 178 228 292 354 416
#     4  10  24  47  70  99 136 181 229 288 344 408
#     4  10  24  46  70  99 136 179 236 279 338 421
#     4  12  25  45  65 100 142 177 221 289 349 405
#     4  12  26  42  71 103 136 184 231 281 345 418
#
# _framework density 21.912748000000001
#
# number of rings (size 3 to 8) (size 9 to 14) (size 15 to 20)
#    0.000    0.889    2.222    3.333    9.333    0.000 
#   12.000    0.000    0.000    0.000    0.000    0.000 
#    0.000    0.000    0.000    0.000    0.000    0.000 
#
# Total GULP energy -446585.546413 kJ/mol
# GULP energy per Si atom -12405.154067 kJ/mol
# Density = 2.186287 g / cm^3
# Si number density = 21.912748 Si / 1000 Ang^3
#
#
#
# Elastic Constant Matrix: (Units=GPa)
#
#
# Indices 1 2 3 4 5 6 
#
# 1 82.7497 8.6326 37.7204 0.0000 0.0000 0.0000
# 2 8.6326 94.7755 47.2683 0.0000 0.0000 0.0000
# 3 37.7204 47.2683 159.6298 0.0000 0.0000 0.0000
# 4 0.0000 0.0000 0.0000 38.9994 0.0000 0.0000
# 5 0.0000 0.0000 0.0000 0.0000 33.8037 0.0000
# 6 0.0000 0.0000 0.0000 0.0000 0.0000 24.4380
#
#
#
# Elastic Compliance Matrix: (Units=1/GPa)
#
#
# Indices 1 2 3 4 5 6 
#
# 1 0.013558 0.000426 -0.003330 0.000000 0.000000 0.000000
# 2 0.000426 0.012393 -0.003770 0.000000 0.000000 0.000000
# 3 -0.003330 -0.003770 0.008168 0.000000 0.000000 0.000000
# 4 0.000000 0.000000 0.000000 0.025641 0.000000 0.000000
# 5 0.000000 0.000000 0.000000 0.000000 0.029583 0.000000
# 6 0.000000 0.000000 0.000000 0.000000 0.000000 0.040920
#
#
# Mechanical properties :
#
#
# Convention : Reuss Voigt Hill
#
# Bulk Modulus (GPa) = 48.14631 58.26641 53.20636
# Shear Modulus (GPa) = 33.21496 35.68380 34.44938
#
# Velocity S-wave (km/s) = 3.89753 4.03978 3.96929
# Velocity P-wave (km/s) = 6.50183 6.95756 6.73356
#
# Compressibility (1/GPa) = 0.02077002
#
# Stress axis : x y z
#
# Youngs Moduli (GPa) = 73.75671 80.69165 122.43255
#
# Poissons Ratio (x) = -0.03436 0.40768
# Poissons Ratio (y) = -0.03141 0.46161
# Poissons Ratio (z) = 0.24560 0.30423
#
# Static dielectric constant tensor:
#      x y z
#    x 3.971820 0.000000 0.000000 
#    y 0.000000 4.018240 0.000000 
#    z 0.000000 0.000000 3.888570 
# 
# 
# High freq. dielectric constant tensor:
#      x y z
#    x 1.867270 0.000000 0.000000 
#    y 0.000000 1.866650 0.000000 
#    z 0.000000 0.000000 1.871380 
# 
# From -- ./inp_files/5307.got.cif
#   From: 2010.03.12/outbox.cif.g09.slc.cpg/sg73_3_cif.got.tgz:5307.got - 2010.04.16 15:25:48.
