data_PCOD8296998
_publ_section_title
;
Structure prediction by ZEFSAII (Michael W. Deem and Ramdas Pophale) SiO2 
 PCOD8296998
Probable space group: I B C A 
;
_chemical_formula_sum "Si O2"
_cell_formula_units_Z 88
_cell_length_a 21.002969
_cell_length_b 11.710262
_cell_length_c 14.767628
_cell_angle_alpha 90.000000
_cell_angle_beta 90.000000
_cell_angle_gamma 90.000000
_cell_volume 3632.102090
_symmetry_space_group_name_H-M "I B C A "
_symmetry_group_IT_number 73
_symmetry_cell_setting 'orthorhombic'
loop_
_space_group_symop_operation_xyz
x,y,z
-x,1/2-y,z
x,-y,1/2-z
1/2-x,y,-z
-x,-y,-z
x,1/2+y,-z
-x,y,1/2+z
1/2+x,-y,z
1/2+x,1/2+y,1/2+z
1/2-x,-y,1/2+z
1/2+x,1/2-y,-z
-x,1/2+y,1/2-z
1/2-x,1/2-y,1/2-z
1/2+x,y,1/2-z
1/2-x,1/2+y,z
x,1/2-y,1/2+z
loop_
_atom_site_type_symbol
_atom_site_label
_atom_site_fract_x
_atom_site_fract_y
_atom_site_fract_z
Si Si1 0.645939 0.273048 0.106751
Si Si2 0.657167 0.139589 0.935115
Si Si3 0.764593 0.531638 0.654748
Si Si4 0.031077 0.000000 0.250000
Si Si5 0.360465 0.342590 0.301427
Si Si6 0.547321 0.040567 0.579572
O O1 0.704588 0.360791 0.103734
O O2 0.646163 0.223287 0.207354
O O3 0.581745 0.335919 0.069591
O O4 0.658753 0.166135 0.041516
O O5 0.643982 0.256215 0.883568
O O6 0.724759 0.080742 0.907861
O O7 0.601181 0.053789 0.908963
O O8 0.799495 0.500000 0.750000
O O9 0.691570 0.559203 0.678175
O O10 0.071993 0.095273 0.197863
O O11 0.989212 0.058397 0.326694
O O12 0.500000 0.000000 0.500000
#
# Coordination Sequence:
#
# PCOD8296998 Si02
#       6
#    16  16  16   8  16  16
#     4  11  25  46  76 107 140 203 247 299 380 437
#     4  11  26  47  75 107 144 196 246 302 376 438
#     4  11  24  50  72 101 151 187 240 317 352 436
#     4  12  26  40  72 108 140 204 242 294 374 428
#     4  12  25  46  70 106 152 190 247 305 365 446
#     4  11  25  47  71 105 152 187 250 313 351 440
#
# _framework density 24.228394999999999
#
# number of rings (size 3 to 8) (size 9 to 14) (size 15 to 20)
#    0.000    0.727    2.727    3.818    2.545    8.727 
#    3.273    0.000    0.000    0.000    0.000    0.000 
#    0.000    0.000    0.000    0.000    0.000    0.000 
#
# Total GULP energy -545531.560737 kJ/mol
# GULP energy per Si atom -12398.444562 kJ/mol
# Density = 2.417325 g / cm^3
# Si number density = 24.228395 Si / 1000 Ang^3
#
#
#
# Elastic Constant Matrix: (Units=GPa)
#
#
# Indices 1 2 3 4 5 6 
#
# 1 117.0115 42.6177 47.0398 0.0000 0.0000 0.0000
# 2 42.6177 93.6899 13.0463 0.0000 0.0000 0.0000
# 3 47.0398 13.0463 89.2558 0.0000 0.0000 0.0000
# 4 0.0000 0.0000 0.0000 49.9801 0.0000 0.0000
# 5 0.0000 0.0000 0.0000 0.0000 36.7856 0.0000
# 6 0.0000 0.0000 0.0000 0.0000 0.0000 27.0166
#
#
#
# Elastic Compliance Matrix: (Units=1/GPa)
#
#
# Indices 1 2 3 4 5 6 
#
# 1 0.012771 -0.004973 -0.006004 0.000000 0.000000 0.000000
# 2 -0.004973 0.012832 0.000745 0.000000 0.000000 0.000000
# 3 -0.006004 0.000745 0.014259 0.000000 0.000000 0.000000
# 4 0.000000 0.000000 0.000000 0.020008 0.000000 0.000000
# 5 0.000000 0.000000 0.000000 0.000000 0.027185 0.000000
# 6 0.000000 0.000000 0.000000 0.000000 0.000000 0.037014
#
#
# Mechanical properties :
#
#
# Convention : Reuss Voigt Hill
#
# Bulk Modulus (GPa) = 51.54971 56.15166 53.85068
# Shear Modulus (GPa) = 33.11300 35.90669 34.50984
#
# Velocity S-wave (km/s) = 3.70090 3.85386 3.77816
# Velocity P-wave (km/s) = 6.29166 6.55967 6.42706
#
# Compressibility (1/GPa) = 0.01939875
#
# Stress axis : x y z
#
# Youngs Moduli (GPa) = 78.30194 77.93040 70.13176
#
# Poissons Ratio (x) = 0.38757 0.42105
# Poissons Ratio (y) = 0.38942 -0.05228
# Poissons Ratio (z) = 0.47010 -0.05809
#
# Static dielectric constant tensor:
#      x y z
#    x 4.512050 0.000000 0.000000 
#    y 0.000000 4.478420 0.000000 
#    z 0.000000 0.000000 4.610420 
# 
# 
# High freq. dielectric constant tensor:
#      x y z
#    x 1.962420 0.000000 0.000000 
#    y 0.000000 1.974100 0.000000 
#    z 0.000000 0.000000 1.975970 
# 
# From -- ./inp_files/19277.got.cif
#   From: 2010.03.12/outbox.cif.g09.slc.cpg/sg73_10_cif.got.tgz:19277.got - 2010.04.16 15:25:48.
