data_PCOD8296080
_publ_section_title
;
Structure prediction by ZEFSAII (Michael W. Deem and Ramdas Pophale) SiO2 
 PCOD8296080
Probable space group: I B C A 
;
_chemical_formula_sum "Si O2"
_cell_formula_units_Z 88
_cell_length_a 17.918046
_cell_length_b 25.379061
_cell_length_c 9.286171
_cell_angle_alpha 90.000000
_cell_angle_beta 90.000000
_cell_angle_gamma 90.000000
_cell_volume 4222.822953
_symmetry_space_group_name_H-M "I B C A "
_symmetry_group_IT_number 73
_symmetry_cell_setting 'orthorhombic'
loop_
_space_group_symop_operation_xyz
x,y,z
-x,1/2-y,z
x,-y,1/2-z
1/2-x,y,-z
-x,-y,-z
x,1/2+y,-z
-x,y,1/2+z
1/2+x,-y,z
1/2+x,1/2+y,1/2+z
1/2-x,-y,1/2+z
1/2+x,1/2-y,-z
-x,1/2+y,1/2-z
1/2-x,1/2-y,1/2-z
1/2+x,y,1/2-z
1/2-x,1/2+y,z
x,1/2-y,1/2+z
loop_
_atom_site_type_symbol
_atom_site_label
_atom_site_fract_x
_atom_site_fract_y
_atom_site_fract_z
Si Si1 0.080691 0.101438 0.672023
Si Si2 0.471332 0.647536 0.972093
Si Si3 0.628842 0.322952 0.545332
Si Si4 0.750000 0.263322 0.000000
Si Si5 0.332808 0.847681 0.647418
Si Si6 0.250000 0.060105 0.000000
Si Si7 0.665783 0.500000 0.250000
O O1 0.062395 0.123685 0.828187
O O2 0.142056 0.140667 0.596551
O O3 0.006913 0.100432 0.570715
O O4 0.113156 0.043488 0.679152
O O5 0.539161 0.689326 0.941679
O O6 0.405852 0.674711 0.064175
O O7 0.677230 0.270331 0.539086
O O8 0.652398 0.356908 0.684715
O O9 0.769245 0.302467 0.132832
O O10 0.311764 0.903232 0.575596
O O11 0.215427 0.023848 0.876871
#
# Coordination Sequence:
#
# PCOD8296080 Si02
#       7
#    16  16  16   8  16   8   8
#     4  10  23  42  69  98 135 176 230 280 336 397
#     4  10  20  44  67  95 133 177 218 289 323 398
#     4  10  23  42  68  98 134 176 224 277 340 397
#     4  11  26  39  70 104 130 187 222 277 338 424
#     4  11  23  46  66  96 140 176 223 277 344 399
#     4  11  28  41  66  98 142 175 228 283 336 400
#     4  12  26  44  66 106 132 186 230 276 344 416
#
# _framework density 20.839141000000001
#
# number of rings (size 3 to 8) (size 9 to 14) (size 15 to 20)
#    1.091    0.364    3.636    0.545    5.091    2.909 
#    0.000    1.818    0.000    0.000    0.000    0.000 
#    0.000    0.000    0.000    0.000    0.000    0.000 
#
# Total GULP energy -545224.227064 kJ/mol
# GULP energy per Si atom -12391.459706 kJ/mol
# Density = 2.079171 g / cm^3
# Si number density = 20.839141 Si / 1000 Ang^3
#
#
#
# Elastic Constant Matrix: (Units=GPa)
#
#
# Indices 1 2 3 4 5 6 
#
# 1 104.2800 62.3353 41.3219 0.0000 0.0000 0.0000
# 2 62.3353 111.0196 56.5297 0.0000 0.0000 0.0000
# 3 41.3219 56.5297 147.7635 0.0000 0.0000 0.0000
# 4 0.0000 0.0000 0.0000 17.8877 0.0000 0.0000
# 5 0.0000 0.0000 0.0000 0.0000 41.5205 0.0000
# 6 0.0000 0.0000 0.0000 0.0000 0.0000 15.5616
#
#
#
# Elastic Compliance Matrix: (Units=1/GPa)
#
#
# Indices 1 2 3 4 5 6 
#
# 1 0.014597 -0.007597 -0.001175 0.000000 0.000000 0.000000
# 2 -0.007597 0.015141 -0.003668 0.000000 0.000000 0.000000
# 3 -0.001175 -0.003668 0.008499 0.000000 0.000000 0.000000
# 4 0.000000 0.000000 0.000000 0.055904 0.000000 0.000000
# 5 0.000000 0.000000 0.000000 0.000000 0.024084 0.000000
# 6 0.000000 0.000000 0.000000 0.000000 0.000000 0.064261
#
#
# Mechanical properties :
#
#
# Convention : Reuss Voigt Hill
#
# Bulk Modulus (GPa) = 74.87344 75.93742 75.40543
# Shear Modulus (GPa) = 23.60498 28.51904 26.06201
#
# Velocity S-wave (km/s) = 3.36925 3.70338 3.54026
# Velocity P-wave (km/s) = 7.15143 7.40308 7.27835
#
# Compressibility (1/GPa) = 0.01335587
#
# Stress axis : x y z
#
# Youngs Moduli (GPa) = 68.50834 66.04709 117.65424
#
# Poissons Ratio (x) = 0.50178 0.13830
# Poissons Ratio (y) = 0.52047 0.43153
# Poissons Ratio (z) = 0.08053 0.24225
#
# Static dielectric constant tensor:
#      x y z
#    x 3.956860 0.000000 0.000000 
#    y 0.000000 3.448450 0.000000 
#    z 0.000000 0.000000 3.860320 
# 
# 
# High freq. dielectric constant tensor:
#      x y z
#    x 1.825430 0.000000 0.000000 
#    y 0.000000 1.785840 0.000000 
#    z 0.000000 0.000000 1.832700 
# 
# From -- ./inp_files/6339.got.cif
#   From: 2010.03.12/outbox.cif.g09.slc.cpg/sg73_4_cif.got.tgz:6339.got - 2010.04.16 15:25:48.
