data_PCOD8296411
_publ_section_title
;
Structure prediction by ZEFSAII (Michael W. Deem and Ramdas Pophale) SiO2 
 PCOD8296411
Probable space group: I B C A 
;
_chemical_formula_sum "Si O2"
_cell_formula_units_Z 72
_cell_length_a 15.139224
_cell_length_b 20.868571
_cell_length_c 9.258199
_cell_angle_alpha 90.000000
_cell_angle_beta 90.000000
_cell_angle_gamma 90.000000
_cell_volume 2924.979574
_symmetry_space_group_name_H-M "I B C A "
_symmetry_group_IT_number 73
_symmetry_cell_setting 'orthorhombic'
loop_
_space_group_symop_operation_xyz
x,y,z
-x,1/2-y,z
x,-y,1/2-z
1/2-x,y,-z
-x,-y,-z
x,1/2+y,-z
-x,y,1/2+z
1/2+x,-y,z
1/2+x,1/2+y,1/2+z
1/2-x,-y,1/2+z
1/2+x,1/2-y,-z
-x,1/2+y,1/2-z
1/2-x,1/2-y,1/2-z
1/2+x,y,1/2-z
1/2-x,1/2+y,z
x,1/2-y,1/2+z
loop_
_atom_site_type_symbol
_atom_site_label
_atom_site_fract_x
_atom_site_fract_y
_atom_site_fract_z
Si Si1 0.920822 0.475828 0.403645
Si Si2 0.373371 0.745989 0.148419
Si Si3 0.835044 0.833847 0.108699
Si Si4 0.250000 0.450868 0.500000
Si Si5 0.043397 0.832190 0.098533
O O1 0.951884 0.500000 0.250000
O O2 0.826183 0.505229 0.438605
O O3 0.906894 0.399632 0.411473
O O4 0.000000 0.500000 0.500000
O O5 0.312053 0.791597 0.249674
O O6 0.435234 0.703606 0.252019
O O7 0.311101 0.699427 0.050260
O O8 0.430715 0.788450 0.037370
O O9 0.789612 0.903431 0.123597
O O10 0.939724 0.844570 0.098719
#
# Coordination Sequence:
#
# PCOD8296411 Si02
#       5
#    16  16  16   8  16
#     4  12  29  51  78 109 155 208 258 311 380 451
#     4  10  22  40  72 111 138 196 240 311 377 445
#     4  11  21  40  69 103 152 184 249 305 377 445
#     4  12  28  48  70 112 150 200 254 314 372 458
#     4  11  21  42  75 105 147 187 254 302 376 443
#
# _framework density 24.615556000000002
#
# number of rings (size 3 to 8) (size 9 to 14) (size 15 to 20)
#    0.000    0.889    2.222    6.667    3.111    3.556 
#    0.000    4.444    0.000    0.000    0.000    0.000 
#    0.000    0.000    0.000    0.000    0.000    0.000 
#
# Total GULP energy -446413.192386 kJ/mol
# GULP energy per Si atom -12400.366455 kJ/mol
# Density = 2.455953 g / cm^3
# Si number density = 24.615556 Si / 1000 Ang^3
#
#
#
# Elastic Constant Matrix: (Units=GPa)
#
#
# Indices 1 2 3 4 5 6 
#
# 1 125.7708 80.4398 77.6304 0.0000 0.0000 0.0000
# 2 80.4398 222.7379 77.1988 0.0000 0.0000 0.0000
# 3 77.6304 77.1988 184.9546 0.0000 0.0000 0.0000
# 4 0.0000 0.0000 0.0000 12.5383 0.0000 0.0000
# 5 0.0000 0.0000 0.0000 0.0000 -121.3156 0.0000
# 6 0.0000 0.0000 0.0000 0.0000 0.0000 58.4824
#
#
#
# Elastic Compliance Matrix: (Units=1/GPa)
#
#
# Indices 1 2 3 4 5 6 
#
# 1 0.012334 -0.003110 -0.003879 0.000000 0.000000 0.000000
# 2 -0.003110 0.006033 -0.001213 0.000000 0.000000 0.000000
# 3 -0.003879 -0.001213 0.007541 0.000000 0.000000 0.000000
# 4 0.000000 0.000000 0.000000 0.079756 0.000000 0.000000
# 5 0.000000 0.000000 0.000000 0.000000 -0.008243 0.000000
# 6 0.000000 0.000000 0.000000 0.000000 0.000000 0.017099
#
#
# Mechanical properties :
#
#
# Convention : Reuss Voigt Hill
#
# Bulk Modulus (GPa) = 105.20895 111.55569 108.38232
# Shear Modulus (GPa) = 37.28778 9.82065 23.55422
#
# Velocity S-wave (km/s) = 3.89627 1.99957 3.09671
# Velocity P-wave (km/s) = 7.94197 7.12381 7.54399
#
# Compressibility (1/GPa) = 0.00950489
#
# Stress axis : x y z
#
# Youngs Moduli (GPa) = 81.07488 165.75269 132.60768
#
# Poissons Ratio (x) = 0.51549 0.51438
# Poissons Ratio (y) = 0.25214 0.16083
# Poissons Ratio (z) = 0.31448 0.20103
#
# Static dielectric constant tensor:
#      x y z
#    x 4.667930 0.000000 0.000000 
#    y 0.000000 4.866410 0.000000 
#    z 0.000000 0.000000 4.793690 
# 
# 
# High freq. dielectric constant tensor:
#      x y z
#    x 2.014930 0.000000 0.000000 
#    y 0.000000 1.987900 0.000000 
#    z 0.000000 0.000000 1.985900 
# 
# From -- ./inp_files/5331.got.cif
#   From: 2010.03.12/outbox.cif.g09.slc.cpg/sg73_3_cif.got.tgz:5331.got - 2010.04.16 15:25:48.
