data_PCOD8296778
_publ_section_title
;
Structure prediction by ZEFSAII (Michael W. Deem and Ramdas Pophale) SiO2 
 PCOD8296778
Probable space group: I B C A 
;
_chemical_formula_sum "Si O2"
_cell_formula_units_Z 72
_cell_length_a 25.519746
_cell_length_b 7.877084
_cell_length_c 13.816100
_cell_angle_alpha 90.000000
_cell_angle_beta 90.000000
_cell_angle_gamma 90.000000
_cell_volume 2777.328765
_symmetry_space_group_name_H-M "I B C A "
_symmetry_group_IT_number 73
_symmetry_cell_setting 'orthorhombic'
loop_
_space_group_symop_operation_xyz
x,y,z
-x,1/2-y,z
x,-y,1/2-z
1/2-x,y,-z
-x,-y,-z
x,1/2+y,-z
-x,y,1/2+z
1/2+x,-y,z
1/2+x,1/2+y,1/2+z
1/2-x,-y,1/2+z
1/2+x,1/2-y,-z
-x,1/2+y,1/2-z
1/2-x,1/2-y,1/2-z
1/2+x,y,1/2-z
1/2-x,1/2+y,z
x,1/2-y,1/2+z
loop_
_atom_site_type_symbol
_atom_site_label
_atom_site_fract_x
_atom_site_fract_y
_atom_site_fract_z
Si Si1 0.421099 0.440241 0.413884
Si Si2 0.311066 0.261987 0.388837
Si Si3 0.419496 0.167371 0.124654
Si Si4 0.835121 0.500000 0.750000
Si Si5 0.750000 0.484961 0.500000
Si Si6 0.000000 0.750000 0.777090
O O1 0.369982 0.327440 0.394141
O O2 0.407861 0.633985 0.389932
O O3 0.439557 0.418071 0.525009
O O4 0.466824 0.377507 0.343440
O O5 0.301732 0.162215 0.287587
O O6 0.301174 0.125656 0.474727
O O7 0.267254 0.407163 0.404988
O O8 0.368092 0.066141 0.157835
O O9 0.462926 0.138985 0.207021
#
# Coordination Sequence:
#
# PCOD8296778 Si02
#       6
#    16  16  16   8   8   8
#     4  12  27  50  77 111 160 200 247 312 382 441
#     4  11  24  46  75 109 149 194 246 314 374 451
#     4  12  28  46  76 110 156 203 252 304 369 454
#     4  12  26  46  74 110 148 198 258 306 378 444
#     4  10  24  48  76 106 144 196 252 308 386 448
#     4  12  28  46  76 116 150 200 256 302 364 464
#
# _framework density 25.924192999999999
#
# number of rings (size 3 to 8) (size 9 to 14) (size 15 to 20)
#    0.000    0.444    2.222    5.333    3.111    4.444 
#    0.000    0.000    0.000    0.000    0.000    0.000 
#    0.000    0.000    0.000    0.000    0.000    0.000 
#
# Total GULP energy -446366.982998 kJ/mol
# GULP energy per Si atom -12399.082861 kJ/mol
# Density = 2.586519 g / cm^3
# Si number density = 25.924193 Si / 1000 Ang^3
#
#
#
# Elastic Constant Matrix: (Units=GPa)
#
#
# Indices 1 2 3 4 5 6 
#
# 1 83.6193 57.2691 31.7839 0.0000 0.0000 0.0000
# 2 57.2691 158.0523 53.5975 0.0000 0.0000 0.0000
# 3 31.7839 53.5975 140.2315 0.0000 0.0000 0.0000
# 4 0.0000 0.0000 0.0000 38.3750 0.0000 0.0000
# 5 0.0000 0.0000 0.0000 0.0000 9.5138 0.0000
# 6 0.0000 0.0000 0.0000 0.0000 0.0000 22.0052
#
#
#
# Elastic Compliance Matrix: (Units=1/GPa)
#
#
# Indices 1 2 3 4 5 6 
#
# 1 0.016230 -0.005323 -0.001644 0.000000 0.000000 0.000000
# 2 -0.005323 0.009015 -0.002239 0.000000 0.000000 0.000000
# 3 -0.001644 -0.002239 0.008359 0.000000 0.000000 0.000000
# 4 0.000000 0.000000 0.000000 0.026059 0.000000 0.000000
# 5 0.000000 0.000000 0.000000 0.000000 0.105110 0.000000
# 6 0.000000 0.000000 0.000000 0.000000 0.000000 0.045444
#
#
# Mechanical properties :
#
#
# Convention : Reuss Voigt Hill
#
# Bulk Modulus (GPa) = 65.82541 74.13379 69.97960
# Shear Modulus (GPa) = 21.39559 29.92899 25.66229
#
# Velocity S-wave (km/s) = 2.87594 3.40145 3.14968
# Velocity P-wave (km/s) = 6.03943 6.63965 6.34664
#
# Compressibility (1/GPa) = 0.01519170
#
# Stress axis : x y z
#
# Youngs Moduli (GPa) = 61.61599 110.92432 119.62467
#
# Poissons Ratio (x) = 0.59047 0.19665
# Poissons Ratio (y) = 0.32799 0.26786
# Poissons Ratio (z) = 0.10129 0.24838
#
# Static dielectric constant tensor:
#      x y z
#    x 4.509090 0.000000 0.000000 
#    y 0.000000 4.933620 0.000000 
#    z 0.000000 0.000000 4.940180 
# 
# 
# High freq. dielectric constant tensor:
#      x y z
#    x 2.027720 0.000000 0.000000 
#    y 0.000000 2.063910 0.000000 
#    z 0.000000 0.000000 2.040700 
# 
# From -- ./inp_files/19968.got.cif
#   From: 2010.03.12/outbox.cif.g09.slc.cpg/sg73_10_cif.got.tgz:19968.got - 2010.04.16 15:25:48.
