data_PCOD8296844
_publ_section_title
;
Structure prediction by ZEFSAII (Michael W. Deem and Ramdas Pophale) SiO2 
 PCOD8296844
Probable space group: I B C A 
;
_chemical_formula_sum "Si O2"
_cell_formula_units_Z 96
_cell_length_a 9.565369
_cell_length_b 25.083336
_cell_length_c 18.921373
_cell_angle_alpha 90.000000
_cell_angle_beta 90.000000
_cell_angle_gamma 90.000000
_cell_volume 4539.830844
_symmetry_space_group_name_H-M "I B C A "
_symmetry_group_IT_number 73
_symmetry_cell_setting 'orthorhombic'
loop_
_space_group_symop_operation_xyz
x,y,z
-x,1/2-y,z
x,-y,1/2-z
1/2-x,y,-z
-x,-y,-z
x,1/2+y,-z
-x,y,1/2+z
1/2+x,-y,z
1/2+x,1/2+y,1/2+z
1/2-x,-y,1/2+z
1/2+x,1/2-y,-z
-x,1/2+y,1/2-z
1/2-x,1/2-y,1/2-z
1/2+x,y,1/2-z
1/2-x,1/2+y,z
x,1/2-y,1/2+z
loop_
_atom_site_type_symbol
_atom_site_label
_atom_site_fract_x
_atom_site_fract_y
_atom_site_fract_z
Si Si1 0.673765 0.469018 0.312250
Si Si2 0.710387 0.360175 0.695982
Si Si3 0.621774 0.869673 0.044805
Si Si4 0.488121 0.187296 0.816191
Si Si5 0.588866 0.482234 0.900799
Si Si6 0.384679 0.902418 0.952824
O O1 0.594462 0.500000 0.250000
O O2 0.733868 0.416299 0.274961
O O3 0.559544 0.458591 0.372803
O O4 0.803276 0.503615 0.339371
O O5 0.596693 0.332745 0.747035
O O6 0.639946 0.372816 0.620802
O O7 0.848740 0.325739 0.686920
O O8 0.593104 0.836697 0.116231
O O9 0.654005 0.932397 0.057657
O O10 0.750000 0.844921 0.000000
O O11 0.490334 0.864417 0.993462
O O12 0.500000 0.250000 0.820452
O O13 0.559771 0.536348 0.945241
O O14 0.250000 0.907313 0.000000
#
# Coordination Sequence:
#
# PCOD8296844 Si02
#       6
#    16  16  16  16  16  16
#     4  11  22  35  61 101 142 181 219 275 341 413
#     4  11  26  46  73  98 140 178 229 288 349 410
#     4  12  24  43  68 103 141 176 231 282 342 415
#     4  12  27  51  73 101 129 181 239 294 350 408
#     4  11  21  37  61  99 139 182 225 263 337 423
#     4  11  22  43  68 102 142 186 221 276 348 419
#
# _framework density 21.146160999999999
#
# number of rings (size 3 to 8) (size 9 to 14) (size 15 to 20)
#    0.000    0.667    3.333    5.000    7.000    0.000 
#    3.000    0.000    0.000    0.000    0.000    0.000 
#    0.000    0.000    0.000    0.000    0.000    0.000 
#
# Total GULP energy -594868.242901 kJ/mol
# GULP energy per Si atom -12393.088394 kJ/mol
# Density = 2.109803 g / cm^3
# Si number density = 21.146161 Si / 1000 Ang^3
#
#
#
# Elastic Constant Matrix: (Units=GPa)
#
#
# Indices 1 2 3 4 5 6 
#
# 1 89.3575 57.3247 29.7447 0.0000 0.0000 0.0000
# 2 57.3247 113.1319 72.0888 0.0000 0.0000 0.0000
# 3 29.7447 72.0888 113.2636 0.0002 0.0001 0.0000
# 4 0.0000 0.0000 0.0002 22.9671 0.0000 0.0000
# 5 0.0000 0.0000 0.0001 0.0000 -46.6869 0.0000
# 6 0.0000 0.0000 0.0000 0.0000 0.0000 32.4940
#
#
#
# Elastic Compliance Matrix: (Units=1/GPa)
#
#
# Indices 1 2 3 4 5 6 
#
# 1 0.016771 -0.009575 0.001690 0.000000 0.000000 0.000000
# 2 -0.009575 0.020336 -0.010429 0.000000 0.000000 0.000000
# 3 0.001690 -0.010429 0.015023 0.000000 0.000000 0.000000
# 4 0.000000 0.000000 0.000000 0.043541 0.000000 0.000000
# 5 0.000000 0.000000 0.000000 0.000000 -0.021419 0.000000
# 6 0.000000 0.000000 0.000000 0.000000 0.000000 0.030775
#
#
# Mechanical properties :
#
#
# Convention : Reuss Voigt Hill
#
# Bulk Modulus (GPa) = 64.50677 70.45216 67.47946
# Shear Modulus (GPa) = 34.05503 12.19449 23.12476
#
# Velocity S-wave (km/s) = 4.01741 2.40401 3.31050
# Velocity P-wave (km/s) = 7.21740 6.41052 6.82589
#
# Compressibility (1/GPa) = 0.01550225
#
# Stress axis : x y z
#
# Youngs Moduli (GPa) = 59.62729 49.17353 66.56498
#
# Poissons Ratio (x) = 0.47082 -0.11247
# Poissons Ratio (y) = 0.57091 0.69420
# Poissons Ratio (z) = -0.10075 0.51283
#
# Static dielectric constant tensor:
#      x y z
#    x 4.171060 0.000000 0.000000 
#    y 0.000000 3.824930 0.000000 
#    z 0.000000 0.000000 3.888130 
# 
# 
# High freq. dielectric constant tensor:
#      x y z
#    x 1.844980 0.000000 0.000000 
#    y 0.000000 1.809210 0.000000 
#    z 0.000000 0.000000 1.842730 
# 
# From -- ./inp_files/24863.got.cif
#   From: 2010.03.12/outbox.cif.g09.slc.cpg/sg73_13_cif.got.tgz:24863.got - 2010.04.16 15:25:48.
