data_PCOD8296614
_publ_section_title
;
Structure prediction by ZEFSAII (Michael W. Deem and Ramdas Pophale) SiO2 
 PCOD8296614
Probable space group: I B C A 
;
_chemical_formula_sum "Si O2"
_cell_formula_units_Z 104
_cell_length_a 26.195287
_cell_length_b 9.562631
_cell_length_c 19.768229
_cell_angle_alpha 90.000000
_cell_angle_beta 90.000000
_cell_angle_gamma 90.000000
_cell_volume 4951.859594
_symmetry_space_group_name_H-M "I B C A "
_symmetry_group_IT_number 73
_symmetry_cell_setting 'orthorhombic'
loop_
_space_group_symop_operation_xyz
x,y,z
-x,1/2-y,z
x,-y,1/2-z
1/2-x,y,-z
-x,-y,-z
x,1/2+y,-z
-x,y,1/2+z
1/2+x,-y,z
1/2+x,1/2+y,1/2+z
1/2-x,-y,1/2+z
1/2+x,1/2-y,-z
-x,1/2+y,1/2-z
1/2-x,1/2-y,1/2-z
1/2+x,y,1/2-z
1/2-x,1/2+y,z
x,1/2-y,1/2+z
loop_
_atom_site_type_symbol
_atom_site_label
_atom_site_fract_x
_atom_site_fract_y
_atom_site_fract_z
Si Si1 0.694992 0.168690 0.976552
Si Si2 0.307358 0.246905 0.821425
Si Si3 0.128586 0.593618 0.995179
Si Si4 0.523673 0.390988 0.050729
Si Si5 0.249916 0.000000 0.750000
Si Si6 0.583495 0.706254 0.647027
Si Si7 0.013530 0.453905 0.176940
O O1 0.699499 0.212927 0.899077
O O2 0.676287 0.307855 0.015103
O O3 0.750000 0.115321 0.000000
O O4 0.650796 0.061096 0.997293
O O5 0.283199 0.093962 0.802837
O O6 0.284884 0.381465 0.783717
O O7 0.367519 0.231832 0.804943
O O8 0.103153 0.634003 0.922539
O O9 0.084822 0.611473 0.050342
O O10 0.500000 0.250000 0.023301
O O11 0.506929 0.413724 0.128117
O O12 0.500000 0.500000 0.000000
O O13 0.553833 0.853517 0.637472
O O14 0.542875 0.610553 0.686415
O O15 0.034542 0.500000 0.250000
#
# Coordination Sequence:
#
# PCOD8296614 Si02
#       7
#    16  16  16  16   8  16  16
#     4  11  25  42  68 103 137 168 222 294 347 401
#     4  10  24  45  70  96 137 177 232 282 336 417
#     4  11  23  43  68 100 130 184 220 278 356 412
#     4  12  23  41  69  97 133 177 230 279 335 424
#     4  10  24  46  70 100 128 194 232 274 346 412
#     4  10  23  44  68  94 139 179 224 287 347 411
#     4  11  25  43  66 100 141 179 231 288 351 416
#
# _framework density 21.002210999999999
#
# number of rings (size 3 to 8) (size 9 to 14) (size 15 to 20)
#    0.000    1.231    1.538    4.154   10.769    0.000 
#    0.000    0.000    0.000    0.000    0.000    0.000 
#    0.000    0.000    0.000    0.000    0.000    0.000 
#
# Total GULP energy -644245.416208 kJ/mol
# GULP energy per Si atom -12389.334927 kJ/mol
# Density = 2.095441 g / cm^3
# Si number density = 21.002211 Si / 1000 Ang^3
#
#
#
# Elastic Constant Matrix: (Units=GPa)
#
#
# Indices 1 2 3 4 5 6 
#
# 1 149.7069 40.2939 42.2268 0.0000 0.0000 0.0000
# 2 40.2939 121.9664 55.7289 0.0000 0.0000 0.0000
# 3 42.2268 55.7289 107.5165 0.0000 0.0000 0.0000
# 4 0.0000 0.0000 0.0000 27.7318 0.0000 0.0000
# 5 0.0000 0.0000 0.0000 0.0000 31.1016 0.0000
# 6 0.0000 0.0000 0.0000 0.0000 0.0000 37.8812
#
#
#
# Elastic Compliance Matrix: (Units=1/GPa)
#
#
# Indices 1 2 3 4 5 6 
#
# 1 0.007723 -0.001527 -0.002242 0.000000 0.000000 0.000000
# 2 -0.001527 0.011045 -0.005125 0.000000 0.000000 0.000000
# 3 -0.002242 -0.005125 0.012838 0.000000 0.000000 0.000000
# 4 0.000000 0.000000 0.000000 0.036060 0.000000 0.000000
# 5 0.000000 0.000000 0.000000 0.000000 0.032153 0.000000
# 6 0.000000 0.000000 0.000000 0.000000 0.000000 0.026398
#
#
# Mechanical properties :
#
#
# Convention : Reuss Voigt Hill
#
# Bulk Modulus (GPa) = 72.36932 72.85435 72.61183
# Shear Modulus (GPa) = 33.64481 35.40560 34.52521
#
# Velocity S-wave (km/s) = 4.00680 4.11031 4.05888
# Velocity P-wave (km/s) = 7.47922 7.56904 7.52426
#
# Compressibility (1/GPa) = 0.01381801
#
# Stress axis : x y z
#
# Youngs Moduli (GPa) = 129.48256 90.53546 77.89444
#
# Poissons Ratio (x) = 0.13827 0.17461
# Poissons Ratio (y) = 0.19775 0.39924
# Poissons Ratio (z) = 0.29025 0.46402
#
# Static dielectric constant tensor:
#      x y z
#    x 4.235230 0.000000 0.000000 
#    y 0.000000 3.970270 0.000000 
#    z 0.000000 0.000000 3.821880 
# 
# 
# High freq. dielectric constant tensor:
#      x y z
#    x 1.841960 0.000000 0.000000 
#    y 0.000000 1.836840 0.000000 
#    z 0.000000 0.000000 1.802850 
# 
# From -- ./inp_files/27605.got.cif
#   From: 2010.03.12/outbox.cif.g09.slc.cpg/sg73_14_cif.got.tgz:27605.got - 2010.04.16 15:25:48.
