data_PCOD8296360
_publ_section_title
;
Structure prediction by ZEFSAII (Michael W. Deem and Ramdas Pophale) SiO2 
 PCOD8296360
Probable space group: I B C A 
;
_chemical_formula_sum "Si O2"
_cell_formula_units_Z 88
_cell_length_a 11.065042
_cell_length_b 23.751549
_cell_length_c 15.715021
_cell_angle_alpha 90.000000
_cell_angle_beta 90.000000
_cell_angle_gamma 90.000000
_cell_volume 4130.094327
_symmetry_space_group_name_H-M "I B C A "
_symmetry_group_IT_number 73
_symmetry_cell_setting 'orthorhombic'
loop_
_space_group_symop_operation_xyz
x,y,z
-x,1/2-y,z
x,-y,1/2-z
1/2-x,y,-z
-x,-y,-z
x,1/2+y,-z
-x,y,1/2+z
1/2+x,-y,z
1/2+x,1/2+y,1/2+z
1/2-x,-y,1/2+z
1/2+x,1/2-y,-z
-x,1/2+y,1/2-z
1/2-x,1/2-y,1/2-z
1/2+x,y,1/2-z
1/2-x,1/2+y,z
x,1/2-y,1/2+z
loop_
_atom_site_type_symbol
_atom_site_label
_atom_site_fract_x
_atom_site_fract_y
_atom_site_fract_z
Si Si1 0.487177 0.935972 0.028479
Si Si2 0.500000 0.250000 0.500340
Si Si3 0.568082 0.561002 0.216464
Si Si4 0.350910 0.655382 0.430189
Si Si5 0.310872 0.880097 0.747139
Si Si6 0.156962 0.842307 0.428947
O O1 0.407752 0.935906 0.114777
O O2 0.614916 0.906753 0.052235
O O3 0.433349 0.899381 0.950663
O O4 0.500000 0.000000 0.000000
O O5 0.587006 0.283733 0.563829
O O6 0.551335 0.203274 0.435897
O O7 0.536087 0.500000 0.250000
O O8 0.695355 0.578322 0.259649
O O9 0.447505 0.595618 0.241982
O O10 0.250000 0.654019 0.500000
O O11 0.298340 0.653096 0.335357
O O12 0.290921 0.838816 0.666510
O O13 0.250000 0.822894 0.500000
#
# Coordination Sequence:
#
# PCOD8296360 Si02
#       6
#    16   8  16  16  16  16
#     4  10  22  39  65  97 138 180 222 281 337 405
#     4  10  24  44  70  94 130 176 230 288 346 406
#     4  11  23  41  63 102 140 183 232 272 332 412
#     4  11  22  44  67  96 133 176 229 278 343 407
#     4  11  25  42  68  98 139 179 226 284 340 408
#     4  10  24  44  65  98 134 174 231 283 343 409
#
# _framework density 21.307020999999999
#
# number of rings (size 3 to 8) (size 9 to 14) (size 15 to 20)
#    0.000    1.455    1.818    2.182    7.636    2.909 
#    0.000    3.636    0.000    0.000    0.000    0.000 
#    0.000    0.000    0.000    0.000    0.000    0.000 
#
# Total GULP energy -545226.937894 kJ/mol
# GULP energy per Si atom -12391.521316 kJ/mol
# Density = 2.125853 g / cm^3
# Si number density = 21.307021 Si / 1000 Ang^3
#
#
#
# Elastic Constant Matrix: (Units=GPa)
#
#
# Indices 1 2 3 4 5 6 
#
# 1 79.3661 1.3103 36.5688 0.0000 0.0000 0.0000
# 2 1.3103 87.3808 37.2680 -0.0001 0.0000 0.0000
# 3 36.5688 37.2680 169.5238 -0.0001 0.0000 0.0000
# 4 0.0000 -0.0001 -0.0001 6.3914 0.0000 0.0000
# 5 0.0000 0.0000 0.0000 0.0000 31.5114 0.0000
# 6 0.0000 0.0000 0.0000 0.0000 0.0000 6.0718
#
#
#
# Elastic Compliance Matrix: (Units=1/GPa)
#
#
# Indices 1 2 3 4 5 6 
#
# 1 0.014103 0.001198 -0.003306 0.000000 0.000000 0.000000
# 2 0.001198 0.012730 -0.003057 0.000000 0.000000 0.000000
# 3 -0.003306 -0.003057 0.007284 0.000000 0.000000 0.000000
# 4 0.000000 0.000000 0.000000 0.156459 0.000000 -0.000001
# 5 0.000000 0.000000 0.000000 0.000000 0.031735 0.000000
# 6 0.000000 0.000000 0.000000 -0.000001 0.000000 0.164696
#
#
# Mechanical properties :
#
#
# Convention : Reuss Voigt Hill
#
# Bulk Modulus (GPa) = 42.03715 54.06277 48.04996
# Shear Modulus (GPa) = 12.33761 26.20318 19.27039
#
# Velocity S-wave (km/s) = 2.40894 3.51064 3.01061
# Velocity P-wave (km/s) = 5.24494 6.47002 5.88942
#
# Compressibility (1/GPa) = 0.02378848
#
# Stress axis : x y z
#
# Youngs Moduli (GPa) = 70.90592 78.55438 137.28648
#
# Poissons Ratio (x) = -0.09414 0.45383
# Poissons Ratio (y) = -0.08497 0.41970
# Poissons Ratio (z) = 0.23440 0.24015
#
# Static dielectric constant tensor:
#      x y z
#    x 3.534660 0.000000 0.000000 
#    y 0.000000 3.638800 0.000000 
#    z 0.000000 0.000000 4.862230 
# 
# 
# High freq. dielectric constant tensor:
#      x y z
#    x 1.836020 0.000000 0.000000 
#    y 0.000000 1.827940 0.000000 
#    z 0.000000 0.000000 1.846560 
# 
# From -- ./inp_files/10981.got.cif
#   From: 2010.03.12/outbox.cif.g09.slc.cpg/sg73_6_cif.got.tgz:10981.got - 2010.04.16 15:25:48.
