data_PCOD8296131
_publ_section_title
;
Structure prediction by ZEFSAII (Michael W. Deem and Ramdas Pophale) SiO2 
 PCOD8296131
Probable space group: I B C A 
;
_chemical_formula_sum "Si O2"
_cell_formula_units_Z 72
_cell_length_a 20.143543
_cell_length_b 8.827271
_cell_length_c 19.675886
_cell_angle_alpha 90.000000
_cell_angle_beta 90.000000
_cell_angle_gamma 90.000000
_cell_volume 3498.618734
_symmetry_space_group_name_H-M "I B C A "
_symmetry_group_IT_number 73
_symmetry_cell_setting 'orthorhombic'
loop_
_space_group_symop_operation_xyz
x,y,z
-x,1/2-y,z
x,-y,1/2-z
1/2-x,y,-z
-x,-y,-z
x,1/2+y,-z
-x,y,1/2+z
1/2+x,-y,z
1/2+x,1/2+y,1/2+z
1/2-x,-y,1/2+z
1/2+x,1/2-y,-z
-x,1/2+y,1/2-z
1/2-x,1/2-y,1/2-z
1/2+x,y,1/2-z
1/2-x,1/2+y,z
x,1/2-y,1/2+z
loop_
_atom_site_type_symbol
_atom_site_label
_atom_site_fract_x
_atom_site_fract_y
_atom_site_fract_z
Si Si1 0.661864 0.926183 0.051623
Si Si2 0.408849 0.404972 0.314770
Si Si3 0.434427 0.930072 0.180054
Si Si4 0.454425 0.606590 0.954152
Si Si5 0.250000 0.313076 0.000000
O O1 0.627789 0.976924 0.121397
O O2 0.690491 0.085653 0.027464
O O3 0.608392 0.850804 0.000367
O O4 0.719796 0.799187 0.058310
O O5 0.382380 0.500000 0.250000
O O6 0.393258 0.226215 0.319443
O O7 0.487097 0.414891 0.318868
O O8 0.408393 0.000000 0.250000
O O9 0.421571 0.029788 0.112773
O O10 0.500000 0.750000 0.932855
O O11 0.500000 0.500000 0.000000
#
# Coordination Sequence:
#
# PCOD8296131 Si02
#       5
#    16  16  16  16   8
#     4  11  22  41  61  89 121 160 211 252 305 359
#     4  10  21  37  60  85 125 164 198 248 306 373
#     4  10  22  35  55  93 131 160 191 237 318 385
#     4  12  23  36  63  96 126 159 201 258 318 374
#     4  10  24  40  62  82 118 166 210 260 294 352
#
# _framework density 20.579550000000001
#
# number of rings (size 3 to 8) (size 9 to 14) (size 15 to 20)
#    0.000    1.333    2.222    4.000    6.222    0.000 
#    0.000    1.111    0.000    5.333    0.000    0.000 
#    0.000    0.000    0.000    0.000    0.000    0.000 
#
# Total GULP energy -446056.296425 kJ/mol
# GULP energy per Si atom -12390.452678 kJ/mol
# Density = 2.053271 g / cm^3
# Si number density = 20.579550 Si / 1000 Ang^3
#
#
#
# Elastic Constant Matrix: (Units=GPa)
#
#
# Indices 1 2 3 4 5 6 
#
# 1 43.4332 24.7133 29.3066 0.0000 0.0000 0.0000
# 2 24.7133 119.4440 48.6420 0.0000 0.0000 0.0000
# 3 29.3066 48.6420 158.6403 0.0000 0.0000 0.0000
# 4 0.0000 0.0000 0.0000 65.7902 0.0000 0.0000
# 5 0.0000 0.0000 0.0000 0.0000 11.8415 0.0000
# 6 0.0000 0.0000 0.0000 0.0000 0.0000 25.2562
#
#
#
# Elastic Compliance Matrix: (Units=1/GPa)
#
#
# Indices 1 2 3 4 5 6 
#
# 1 0.028048 -0.004220 -0.003888 0.000000 0.000000 0.000000
# 2 -0.004220 0.010202 -0.002348 0.000000 0.000000 0.000000
# 3 -0.003888 -0.002348 0.007742 0.000000 0.000000 0.000000
# 4 0.000000 0.000000 0.000000 0.015200 0.000000 0.000000
# 5 0.000000 0.000000 0.000000 0.000000 0.084449 0.000000
# 6 0.000000 0.000000 0.000000 0.000000 0.000000 0.039594
#
#
# Mechanical properties :
#
#
# Convention : Reuss Voigt Hill
#
# Bulk Modulus (GPa) = 39.87316 58.53792 49.20554
# Shear Modulus (GPa) = 23.30931 35.16795 29.23863
#
# Velocity S-wave (km/s) = 3.36913 4.13834 3.77339
# Velocity P-wave (km/s) = 5.87809 7.16526 6.55335
#
# Compressibility (1/GPa) = 0.02507952
#
# Stress axis : x y z
#
# Youngs Moduli (GPa) = 35.65290 98.02360 129.16892
#
# Poissons Ratio (x) = 0.41367 0.50215
# Poissons Ratio (y) = 0.15046 0.30334
# Poissons Ratio (z) = 0.13860 0.23020
#
# Static dielectric constant tensor:
#      x y z
#    x 3.665290 0.000000 0.000000 
#    y 0.000000 4.047950 0.000000 
#    z 0.000000 0.000000 3.853970 
# 
# 
# High freq. dielectric constant tensor:
#      x y z
#    x 1.781470 0.000000 0.000000 
#    y 0.000000 1.821740 0.000000 
#    z 0.000000 0.000000 1.797140 
# 
# From -- ./inp_files/5326.got.cif
#   From: 2010.03.12/outbox.cif.g09.slc.cpg/sg73_3_cif.got.tgz:5326.got - 2010.04.16 15:25:48.
