data_PCOD8296568
_publ_section_title
;
Structure prediction by ZEFSAII (Michael W. Deem and Ramdas Pophale) SiO2 
 PCOD8296568
Probable space group: I B C A 
;
_chemical_formula_sum "Si O2"
_cell_formula_units_Z 112
_cell_length_a 24.787990
_cell_length_b 19.440741
_cell_length_c 10.765374
_cell_angle_alpha 90.000000
_cell_angle_beta 90.000000
_cell_angle_gamma 90.000000
_cell_volume 5187.800288
_symmetry_space_group_name_H-M "I B C A "
_symmetry_group_IT_number 73
_symmetry_cell_setting 'orthorhombic'
loop_
_space_group_symop_operation_xyz
x,y,z
-x,1/2-y,z
x,-y,1/2-z
1/2-x,y,-z
-x,-y,-z
x,1/2+y,-z
-x,y,1/2+z
1/2+x,-y,z
1/2+x,1/2+y,1/2+z
1/2-x,-y,1/2+z
1/2+x,1/2-y,-z
-x,1/2+y,1/2-z
1/2-x,1/2-y,1/2-z
1/2+x,y,1/2-z
1/2-x,1/2+y,z
x,1/2-y,1/2+z
loop_
_atom_site_type_symbol
_atom_site_label
_atom_site_fract_x
_atom_site_fract_y
_atom_site_fract_z
Si Si1 0.373050 0.136465 0.658873
Si Si2 0.780898 0.256008 0.382358
Si Si3 0.334394 0.881266 0.444251
Si Si4 0.379312 0.068951 0.295441
Si Si5 0.688695 0.973979 0.471748
Si Si6 0.053643 0.167574 0.567870
Si Si7 0.429842 0.672598 0.088808
O O1 0.335240 0.202932 0.644664
O O2 0.335933 0.066858 0.648148
O O3 0.420868 0.139953 0.558874
O O4 0.403152 0.138761 0.789993
O O5 0.750000 0.292546 0.500000
O O6 0.750000 0.250000 0.250000
O O7 0.793008 0.181481 0.442469
O O8 0.334673 0.910745 0.305608
O O9 0.394304 0.854417 0.475008
O O10 0.316267 0.942650 0.538877
O O11 0.347048 0.056590 0.419765
O O12 0.423406 0.127577 0.313276
O O13 0.409816 0.000000 0.250000
O O14 0.750000 0.953377 0.500000
O O15 0.069755 0.245451 0.594884
O O16 0.990712 0.149430 0.564256
#
# Coordination Sequence:
#
# PCOD8296568 Si02
#       7
#    16  16  16  16  16  16  16
#     4  11  24  43  64  99 132 171 233 273 342 425
#     4  12  26  41  69 101 138 181 226 293 350 410
#     4  11  23  43  63  97 135 167 231 274 341 413
#     4   9  21  42  64  90 124 173 215 267 322 410
#     4  10  23  44  66  92 132 180 221 277 342 409
#     4  10  23  41  67  93 133 170 220 272 352 392
#     4  11  24  41  67 100 129 177 214 291 344 404
#
# _framework density 21.589112
#
# number of rings (size 3 to 8) (size 9 to 14) (size 15 to 20)
#    0.000    1.429    1.429    2.571    8.000    1.714 
#    7.714    2.143    0.000    0.000    0.000    0.000 
#    0.000    0.000    0.000    0.000    0.000    0.000 
#
# Total GULP energy -694077.224678 kJ/mol
# GULP energy per Si atom -12394.236155 kJ/mol
# Density = 2.153997 g / cm^3
# Si number density = 21.589112 Si / 1000 Ang^3
#
#
#
# Elastic Constant Matrix: (Units=GPa)
#
#
# Indices 1 2 3 4 5 6 
#
# 1 124.3752 45.9180 29.3358 0.0000 0.0000 0.0000
# 2 45.9180 100.4368 5.8340 0.0000 0.0000 0.0000
# 3 29.3358 5.8340 76.2167 0.0000 0.0000 0.0000
# 4 0.0000 0.0000 0.0000 22.6969 0.0000 0.0000
# 5 0.0000 0.0000 0.0000 0.0000 26.3384 0.0000
# 6 0.0000 0.0000 0.0000 0.0000 0.0000 30.9906
#
#
#
# Elastic Compliance Matrix: (Units=1/GPa)
#
#
# Indices 1 2 3 4 5 6 
#
# 1 0.010637 -0.004646 -0.003739 0.000000 0.000000 0.000000
# 2 -0.004646 0.012030 0.000867 0.000000 0.000000 0.000000
# 3 -0.003739 0.000867 0.014493 0.000000 0.000000 0.000000
# 4 0.000000 0.000000 0.000000 0.044059 0.000000 0.000000
# 5 0.000000 0.000000 0.000000 0.000000 0.037967 0.000000
# 6 0.000000 0.000000 0.000000 0.000000 0.000000 0.032268
#
#
# Mechanical properties :
#
#
# Convention : Reuss Voigt Hill
#
# Bulk Modulus (GPa) = 45.19559 51.46711 48.33135
# Shear Modulus (GPa) = 28.75804 30.66792 29.71298
#
# Velocity S-wave (km/s) = 3.65370 3.77308 3.71387
# Velocity P-wave (km/s) = 6.22730 6.54772 6.38952
#
# Compressibility (1/GPa) = 0.02212605
#
# Stress axis : x y z
#
# Youngs Moduli (GPa) = 94.00913 83.12410 68.99835
#
# Poissons Ratio (x) = 0.38620 0.25796
# Poissons Ratio (y) = 0.43677 -0.05985
# Poissons Ratio (z) = 0.35147 -0.07210
#
# Static dielectric constant tensor:
#      x y z
#    x 3.956500 0.000000 0.000000 
#    y 0.000000 4.191440 0.000000 
#    z 0.000000 0.000000 3.943200 
# 
# 
# High freq. dielectric constant tensor:
#      x y z
#    x 1.847050 0.000000 0.000000 
#    y 0.000000 1.856960 0.000000 
#    z 0.000000 0.000000 1.849360 
# 
# From -- ./inp_files/13797.got.cif
#   From: 2010.03.12/outbox.cif.g09.slc.cpg/sg73_7_cif.got.tgz:13797.got - 2010.04.16 15:25:48.
