data_PCOD8296997
_publ_section_title
;
Structure prediction by ZEFSAII (Michael W. Deem and Ramdas Pophale) SiO2 
 PCOD8296997
Probable space group: I B C A 
;
_chemical_formula_sum "Si O2"
_cell_formula_units_Z 96
_cell_length_a 13.334676
_cell_length_b 14.149945
_cell_length_c 21.407364
_cell_angle_alpha 90.000000
_cell_angle_beta 90.000000
_cell_angle_gamma 90.000000
_cell_volume 4039.247020
_symmetry_space_group_name_H-M "I B C A "
_symmetry_group_IT_number 73
_symmetry_cell_setting 'orthorhombic'
loop_
_space_group_symop_operation_xyz
x,y,z
-x,1/2-y,z
x,-y,1/2-z
1/2-x,y,-z
-x,-y,-z
x,1/2+y,-z
-x,y,1/2+z
1/2+x,-y,z
1/2+x,1/2+y,1/2+z
1/2-x,-y,1/2+z
1/2+x,1/2-y,-z
-x,1/2+y,1/2-z
1/2-x,1/2-y,1/2-z
1/2+x,y,1/2-z
1/2-x,1/2+y,z
x,1/2-y,1/2+z
loop_
_atom_site_type_symbol
_atom_site_label
_atom_site_fract_x
_atom_site_fract_y
_atom_site_fract_z
Si Si1 0.716393 0.472130 0.360616
Si Si2 0.986911 0.997885 0.072706
Si Si3 0.750000 0.216388 0.500000
Si Si4 0.150396 0.863772 0.379189
Si Si5 0.842119 0.698466 0.783020
Si Si6 0.500000 0.250000 0.193173
Si Si7 0.123529 0.336616 0.909823
O O1 0.626277 0.496534 0.406188
O O2 0.773046 0.568618 0.339701
O O3 0.686053 0.408285 0.301798
O O4 0.789495 0.412181 0.403881
O O5 0.047071 0.079650 0.109822
O O6 0.018486 0.890258 0.085011
O O7 0.000000 0.000000 0.000000
O O8 0.800125 0.153697 0.553400
O O9 0.842858 0.274488 0.469100
O O10 0.131449 0.765203 0.343224
O O11 0.750000 0.750000 0.750000
O O12 0.941434 0.679781 0.740690
O O13 0.401624 0.280991 0.153898
#
# Coordination Sequence:
#
# PCOD8296997 Si02
#       7
#    16  16   8  16  16   8  16
#     4  11  24  50  71 106 152 193 257 316 384 459
#     4  11  25  43  70 110 150 192 244 310 388 471
#     4  12  22  48  78 106 162 198 250 324 396 478
#     4  11  26  44  73 113 143 203 254 309 398 462
#     4  12  25  49  74 104 149 205 259 323 374 455
#     4  12  26  48  74 108 148 200 272 308 378 466
#     4  11  26  46  74 109 151 200 252 316 391 459
#
# _framework density 23.766805000000002
#
# number of rings (size 3 to 8) (size 9 to 14) (size 15 to 20)
#    0.000    0.667    3.333    3.000    7.000    3.333 
#    0.000    1.667    0.000    0.000    0.000    0.000 
#    0.000    0.000    0.000    0.000    0.000    0.000 
#
# Total GULP energy -594641.578491 kJ/mol
# GULP energy per Si atom -12388.366219 kJ/mol
# Density = 2.371271 g / cm^3
# Si number density = 23.766805 Si / 1000 Ang^3
#
#
#
# Elastic Constant Matrix: (Units=GPa)
#
#
# Indices 1 2 3 4 5 6 
#
# 1 124.3291 27.7312 32.1738 0.0000 0.0000 0.0000
# 2 27.7312 98.4101 28.2093 0.0000 0.0000 0.0000
# 3 32.1738 28.2093 101.6740 0.0000 0.0000 0.0000
# 4 0.0000 0.0000 0.0000 26.7637 0.0000 0.0000
# 5 0.0000 0.0000 0.0000 0.0000 53.1584 0.0000
# 6 0.0000 0.0000 0.0000 0.0000 0.0000 27.0194
#
#
#
# Elastic Compliance Matrix: (Units=1/GPa)
#
#
# Indices 1 2 3 4 5 6 
#
# 1 0.009071 -0.001883 -0.002348 0.000000 0.000000 0.000000
# 2 -0.001883 0.011430 -0.002575 0.000000 0.000000 0.000000
# 3 -0.002348 -0.002575 0.011293 0.000000 0.000000 0.000000
# 4 0.000000 0.000000 0.000000 0.037364 0.000000 0.000000
# 5 0.000000 0.000000 0.000000 0.000000 0.018812 0.000000
# 6 0.000000 0.000000 0.000000 0.000000 0.000000 0.037010
#
#
# Mechanical properties :
#
#
# Convention : Reuss Voigt Hill
#
# Bulk Modulus (GPa) = 55.00180 55.62688 55.31434
# Shear Modulus (GPa) = 34.56532 37.14155 35.85343
#
# Velocity S-wave (km/s) = 3.81773 3.95745 3.88822
# Velocity P-wave (km/s) = 6.52886 6.65868 6.59409
#
# Compressibility (1/GPa) = 0.01818122
#
# Stress axis : x y z
#
# Youngs Moduli (GPa) = 110.24426 87.48563 88.55117
#
# Poissons Ratio (x) = 0.16474 0.20791
# Poissons Ratio (y) = 0.20759 0.22806
# Poissons Ratio (z) = 0.25884 0.22532
#
# Static dielectric constant tensor:
#      x y z
#    x 4.468940 0.000000 0.000000 
#    y 0.000000 4.534730 0.000000 
#    z 0.000000 0.000000 3.836430 
# 
# 
# High freq. dielectric constant tensor:
#      x y z
#    x 1.959010 0.000000 0.000000 
#    y 0.000000 1.942350 0.000000 
#    z 0.000000 0.000000 1.944000 
# 
# From -- ./inp_files/26019.got.cif
#   From: 2010.03.12/outbox.cif.g09.slc.cpg/sg73_14_cif.got.tgz:26019.got - 2010.04.16 15:25:48.
