data_PCOD8296224
_publ_section_title
;
Structure prediction by ZEFSAII (Michael W. Deem and Ramdas Pophale) SiO2 
 PCOD8296224
Probable space group: I B C A 
;
_chemical_formula_sum "Si O2"
_cell_formula_units_Z 112
_cell_length_a 30.346543
_cell_length_b 11.927212
_cell_length_c 14.422409
_cell_angle_alpha 90.000000
_cell_angle_beta 90.000000
_cell_angle_gamma 90.000000
_cell_volume 5220.185916
_symmetry_space_group_name_H-M "I B C A "
_symmetry_group_IT_number 73
_symmetry_cell_setting 'orthorhombic'
loop_
_space_group_symop_operation_xyz
x,y,z
-x,1/2-y,z
x,-y,1/2-z
1/2-x,y,-z
-x,-y,-z
x,1/2+y,-z
-x,y,1/2+z
1/2+x,-y,z
1/2+x,1/2+y,1/2+z
1/2-x,-y,1/2+z
1/2+x,1/2-y,-z
-x,1/2+y,1/2-z
1/2-x,1/2-y,1/2-z
1/2+x,y,1/2-z
1/2-x,1/2+y,z
x,1/2-y,1/2+z
loop_
_atom_site_type_symbol
_atom_site_label
_atom_site_fract_x
_atom_site_fract_y
_atom_site_fract_z
Si Si1 0.805207 0.446033 0.380837
Si Si2 0.712255 0.579339 0.168593
Si Si3 0.099620 0.329551 0.574480
Si Si4 0.527230 0.518046 0.641306
Si Si5 0.137972 0.494911 0.043680
Si Si6 0.824105 0.317704 0.200113
Si Si7 0.047364 0.377381 0.026753
O O1 0.754038 0.415868 0.401165
O O2 0.834849 0.419113 0.470243
O O3 0.827729 0.366869 0.303327
O O4 0.806649 0.579681 0.362065
O O5 0.730702 0.500000 0.250000
O O6 0.668208 0.514598 0.134679
O O7 0.705980 0.707239 0.201216
O O8 0.075562 0.430655 0.627827
O O9 0.130786 0.377550 0.491742
O O10 0.129768 0.273764 0.654537
O O11 0.062204 0.251509 0.529260
O O12 0.518206 0.500000 0.750000
O O13 0.489712 0.601318 0.603888
O O14 0.528313 0.406030 0.576292
O O15 0.089473 0.447709 0.059735
#
# Coordination Sequence:
#
# PCOD8296224 Si02
#       7
#    16  16  16  16  16  16  16
#     4  10  22  40  65  87 124 176 226 264 325 390
#     4  12  23  40  59  94 135 169 219 279 332 382
#     4  10  21  41  66  94 132 166 217 267 336 398
#     4  10  23  41  72  97 128 176 221 266 337 414
#     4  10  23  40  62  92 126 172 213 264 331 393
#     4  10  21  40  63  92 125 166 218 274 315 397
#     4  10  21  44  63  95 137 163 212 286 325 397
#
# _framework density 21.455174
#
# number of rings (size 3 to 8) (size 9 to 14) (size 15 to 20)
#    0.000    1.714    2.857    1.286    6.000    1.714 
#    0.000    8.571    0.000    0.000    0.000    0.000 
#    0.000    0.000    0.000    0.000    0.000    0.000 
#
# Total GULP energy -693857.927253 kJ/mol
# GULP energy per Si atom -12390.320130 kJ/mol
# Density = 2.140634 g / cm^3
# Si number density = 21.455174 Si / 1000 Ang^3
#
#
#
# Elastic Constant Matrix: (Units=GPa)
#
#
# Indices 1 2 3 4 5 6 
#
# 1 88.2818 18.9771 19.7615 0.0000 0.0000 0.0000
# 2 18.9771 100.9649 27.0614 0.0000 0.0000 0.0000
# 3 19.7615 27.0614 80.8901 0.0000 0.0000 0.0000
# 4 0.0000 0.0000 0.0000 16.6581 0.0000 0.0000
# 5 0.0000 0.0000 0.0000 0.0000 35.1092 0.0000
# 6 0.0000 0.0000 0.0000 0.0000 0.0000 26.8422
#
#
#
# Elastic Compliance Matrix: (Units=1/GPa)
#
#
# Indices 1 2 3 4 5 6 
#
# 1 0.012226 -0.001645 -0.002437 0.000000 0.000000 0.000000
# 2 -0.001645 0.011101 -0.003312 0.000000 0.000000 0.000000
# 3 -0.002437 -0.003312 0.014066 0.000000 0.000000 0.000000
# 4 0.000000 0.000000 0.000000 0.060031 0.000000 0.000000
# 5 0.000000 0.000000 0.000000 0.000000 0.028483 0.000000
# 6 0.000000 0.000000 0.000000 0.000000 0.000000 0.037255
#
#
# Mechanical properties :
#
#
# Convention : Reuss Voigt Hill
#
# Bulk Modulus (GPa) = 44.23551 44.63742 44.43647
# Shear Modulus (GPa) = 26.95649 29.34437 28.15043
#
# Velocity S-wave (km/s) = 3.54843 3.70226 3.62616
# Velocity P-wave (km/s) = 6.11971 6.25506 6.18776
#
# Compressibility (1/GPa) = 0.02260627
#
# Stress axis : x y z
#
# Youngs Moduli (GPa) = 81.79034 90.07933 71.09476
#
# Poissons Ratio (x) = 0.14818 0.17323
# Poissons Ratio (y) = 0.13454 0.23547
# Poissons Ratio (z) = 0.19929 0.29835
#
# Static dielectric constant tensor:
#      x y z
#    x 4.016120 0.000000 0.000000 
#    y 0.000000 3.778270 0.000000 
#    z 0.000000 0.000000 3.806020 
# 
# 
# High freq. dielectric constant tensor:
#      x y z
#    x 1.862150 0.000000 0.000000 
#    y 0.000000 1.830960 0.000000 
#    z 0.000000 0.000000 1.821580 
# 
# From -- ./inp_files/20059.got.cif
#   From: 2010.03.12/outbox.cif.g09.slc.cpg/sg73_11_cif.got.tgz:20059.got - 2010.04.16 15:25:48.
