data_PCOD8296085
_publ_section_title
;
Structure prediction by ZEFSAII (Michael W. Deem and Ramdas Pophale) SiO2 
 PCOD8296085
Probable space group: I B C A 
;
_chemical_formula_sum "Si O2"
_cell_formula_units_Z 112
_cell_length_a 28.025349
_cell_length_b 16.965180
_cell_length_c 10.969215
_cell_angle_alpha 90.000000
_cell_angle_beta 90.000000
_cell_angle_gamma 90.000000
_cell_volume 5215.369109
_symmetry_space_group_name_H-M "I B C A "
_symmetry_group_IT_number 73
_symmetry_cell_setting 'orthorhombic'
loop_
_space_group_symop_operation_xyz
x,y,z
-x,1/2-y,z
x,-y,1/2-z
1/2-x,y,-z
-x,-y,-z
x,1/2+y,-z
-x,y,1/2+z
1/2+x,-y,z
1/2+x,1/2+y,1/2+z
1/2-x,-y,1/2+z
1/2+x,1/2-y,-z
-x,1/2+y,1/2-z
1/2-x,1/2-y,1/2-z
1/2+x,y,1/2-z
1/2-x,1/2+y,z
x,1/2-y,1/2+z
loop_
_atom_site_type_symbol
_atom_site_label
_atom_site_fract_x
_atom_site_fract_y
_atom_site_fract_z
Si Si1 0.017573 0.080033 0.303640
Si Si2 0.776996 0.275774 0.126865
Si Si3 0.328165 0.435289 0.340003
Si Si4 0.082269 0.395482 0.382718
Si Si5 0.397004 0.457633 0.011042
Si Si6 0.872369 0.822349 0.342015
Si Si7 0.086666 0.663846 0.853231
O O1 0.060512 0.059460 0.394994
O O2 0.036173 0.131891 0.190570
O O3 0.972771 0.128499 0.356550
O O4 0.996515 0.000000 0.250000
O O5 0.750000 0.250000 0.250000
O O6 0.788531 0.370303 0.120879
O O7 0.823392 0.222272 0.135899
O O8 0.750000 0.255009 0.000000
O O9 0.304570 0.500000 0.250000
O O10 0.351849 0.490509 0.443580
O O11 0.371569 0.384403 0.279176
O O12 0.081659 0.489999 0.401277
O O13 0.121889 0.373200 0.281145
O O14 0.097425 0.349879 0.504620
O O15 0.379238 0.374634 0.961413
O O16 0.913335 0.756586 0.328912
#
# Coordination Sequence:
#
# PCOD8296085 Si02
#       7
#    16  16  16  16  16  16  16
#     4  12  21  40  66  98 139 191 241 283 333 400
#     4  11  29  51  77 110 143 180 232 308 377 442
#     4  10  20  44  75  99 135 183 233 278 356 435
#     4  11  25  41  64 101 139 187 238 289 336 415
#     4  11  22  42  71  98 137 189 234 286 341 419
#     4  11  27  44  73  95 145 180 229 287 372 418
#     4  10  23  41  64  95 138 184 234 282 346 423
#
# _framework density 21.474989999999998
#
# number of rings (size 3 to 8) (size 9 to 14) (size 15 to 20)
#    0.000    1.143    4.286    1.714   12.000    0.571 
#    2.571    0.000    0.000    0.000    0.000    0.000 
#    0.000    0.000    0.000    0.000    0.000    0.000 
#
# Total GULP energy -693778.805716 kJ/mol
# GULP energy per Si atom -12388.907245 kJ/mol
# Density = 2.142611 g / cm^3
# Si number density = 21.474990 Si / 1000 Ang^3
#
#
#
# Elastic Constant Matrix: (Units=GPa)
#
#
# Indices 1 2 3 4 5 6 
#
# 1 86.7191 38.0716 47.2965 0.0000 0.0000 0.0000
# 2 38.0716 117.9269 42.8317 0.0000 0.0000 0.0000
# 3 47.2965 42.8317 105.6968 0.0000 0.0000 0.0000
# 4 0.0000 0.0000 0.0000 32.8094 0.0000 0.0000
# 5 0.0000 0.0000 0.0000 0.0000 28.8037 0.0000
# 6 0.0000 0.0000 0.0000 0.0000 0.0000 19.3011
#
#
#
# Elastic Compliance Matrix: (Units=1/GPa)
#
#
# Indices 1 2 3 4 5 6 
#
# 1 0.016129 -0.003032 -0.005989 0.000000 0.000000 0.000000
# 2 -0.003032 0.010513 -0.002904 0.000000 0.000000 0.000000
# 3 -0.005989 -0.002904 0.013317 0.000000 0.000000 0.000000
# 4 0.000000 0.000000 0.000000 0.030479 0.000000 0.000000
# 5 0.000000 0.000000 0.000000 0.000000 0.034718 0.000000
# 6 0.000000 0.000000 0.000000 0.000000 0.000000 0.051811
#
#
# Mechanical properties :
#
#
# Convention : Reuss Voigt Hill
#
# Bulk Modulus (GPa) = 62.06860 62.97138 62.51999
# Shear Modulus (GPa) = 26.85498 28.32571 27.59034
#
# Velocity S-wave (km/s) = 3.54011 3.63576 3.58825
# Velocity P-wave (km/s) = 6.75835 6.85651 6.80761
#
# Compressibility (1/GPa) = 0.01611121
#
# Stress axis : x y z
#
# Youngs Moduli (GPa) = 62.00127 95.11797 75.09001
#
# Poissons Ratio (x) = 0.28839 0.44968
# Poissons Ratio (y) = 0.18798 0.21803
# Poissons Ratio (z) = 0.37130 0.27618
#
# Static dielectric constant tensor:
#      x y z
#    x 3.724030 0.000000 0.000000 
#    y 0.000000 4.204480 0.000000 
#    z 0.000000 0.000000 3.975030 
# 
# 
# High freq. dielectric constant tensor:
#      x y z
#    x 1.824940 0.000000 0.000000 
#    y 0.000000 1.854630 0.000000 
#    z 0.000000 0.000000 1.843070 
# 
# From -- ./inp_files/14789.got.cif
#   From: 2010.03.12/outbox.cif.g09.slc.cpg/sg73_8_cif.got.tgz:14789.got - 2010.04.16 15:25:48.
