data_PCOD8296288
_publ_section_title
;
Structure prediction by ZEFSAII (Michael W. Deem and Ramdas Pophale) SiO2 
 PCOD8296288
Probable space group: I B C A 
;
_chemical_formula_sum "Si O2"
_cell_formula_units_Z 120
_cell_length_a 18.651691
_cell_length_b 26.383143
_cell_length_c 10.936647
_cell_angle_alpha 90.000000
_cell_angle_beta 90.000000
_cell_angle_gamma 90.000000
_cell_volume 5381.817147
_symmetry_space_group_name_H-M "I B C A "
_symmetry_group_IT_number 73
_symmetry_cell_setting 'orthorhombic'
loop_
_space_group_symop_operation_xyz
x,y,z
-x,1/2-y,z
x,-y,1/2-z
1/2-x,y,-z
-x,-y,-z
x,1/2+y,-z
-x,y,1/2+z
1/2+x,-y,z
1/2+x,1/2+y,1/2+z
1/2-x,-y,1/2+z
1/2+x,1/2-y,-z
-x,1/2+y,1/2-z
1/2-x,1/2-y,1/2-z
1/2+x,y,1/2-z
1/2-x,1/2+y,z
x,1/2-y,1/2+z
loop_
_atom_site_type_symbol
_atom_site_label
_atom_site_fract_x
_atom_site_fract_y
_atom_site_fract_z
Si Si1 0.250000 0.901176 0.000000
Si Si2 0.498460 0.892493 0.468858
Si Si3 0.181937 0.276288 0.424265
Si Si4 0.441295 0.207158 0.640452
Si Si5 0.125202 0.933049 0.665734
Si Si6 0.118000 0.463688 0.055517
Si Si7 0.893435 0.840707 0.873330
Si Si8 0.756784 0.859722 0.234615
O O1 0.317443 0.938216 0.980574
O O2 0.262603 0.866514 0.119479
O O3 0.546170 0.842557 0.442356
O O4 0.446701 0.900009 0.352328
O O5 0.545983 0.942414 0.493125
O O6 0.447985 0.884824 0.587205
O O7 0.250000 0.257651 0.500000
O O8 0.138704 0.226357 0.388537
O O9 0.130604 0.311781 0.504773
O O10 0.209614 0.305186 0.301998
O O11 0.500000 0.250000 0.612841
O O12 0.439691 0.195171 0.784291
O O13 0.120984 0.952256 0.802144
O O14 0.198444 0.900925 0.656040
O O15 0.124281 0.975170 0.556332
O O16 0.825738 0.865219 0.804533
#
# Coordination Sequence:
#
# PCOD8296288 Si02
#       8
#     8  16  16  16  16  16  16  16
#     4  10  22  42  64 102 134 176 220 288 340 406
#     4  12  23  42  65  97 134 182 221 285 342 408
#     4  10  23  46  67  98 128 179 231 278 340 411
#     4  12  25  42  64 101 140 180 230 284 350 411
#     4  10  21  43  67  95 134 176 221 282 343 409
#     4  10  23  40  66 100 132 172 227 277 344 411
#     4  11  24  41  66  99 130 176 227 270 341 410
#     4  10  21  44  69  98 137 176 232 276 349 407
#
# _framework density 22.297301000000001
#
# number of rings (size 3 to 8) (size 9 to 14) (size 15 to 20)
#    0.000    1.333    2.667    2.000    1.867    4.267 
#    9.600    0.000    0.000    1.600    0.000    0.000 
#    0.000    0.000    0.000    0.000    0.000    0.000 
#
# Total GULP energy -743919.839274 kJ/mol
# GULP energy per Si atom -12398.663988 kJ/mol
# Density = 2.224655 g / cm^3
# Si number density = 22.297301 Si / 1000 Ang^3
#
#
#
# Elastic Constant Matrix: (Units=GPa)
#
#
# Indices 1 2 3 4 5 6 
#
# 1 123.1493 49.3529 31.9355 0.0000 0.0000 0.0000
# 2 49.3529 101.6241 31.5072 0.0000 0.0000 0.0000
# 3 31.9355 31.5072 68.3865 0.0000 0.0000 0.0000
# 4 0.0000 0.0000 0.0000 25.4198 0.0000 0.0000
# 5 0.0000 0.0000 0.0000 0.0000 31.7683 0.0000
# 6 0.0000 0.0000 0.0000 0.0000 0.0000 38.4036
#
#
#
# Elastic Compliance Matrix: (Units=1/GPa)
#
#
# Indices 1 2 3 4 5 6 
#
# 1 0.010586 -0.004210 -0.003004 0.000000 0.000000 0.000000
# 2 -0.004210 0.013154 -0.004094 0.000000 0.000000 0.000000
# 3 -0.003004 -0.004094 0.017912 0.000000 0.000000 0.000000
# 4 0.000000 0.000000 0.000000 0.039339 0.000000 0.000000
# 5 0.000000 0.000000 0.000000 0.000000 0.031478 0.000000
# 6 0.000000 0.000000 0.000000 0.000000 0.000000 0.026039
#
#
# Mechanical properties :
#
#
# Convention : Reuss Voigt Hill
#
# Bulk Modulus (GPa) = 52.53280 57.63902 55.08591
# Shear Modulus (GPa) = 29.85588 31.14261 30.49925
#
# Velocity S-wave (km/s) = 3.66319 3.74130 3.70245
# Velocity P-wave (km/s) = 6.44230 6.67603 6.56021
#
# Compressibility (1/GPa) = 0.01903573
#
# Stress axis : x y z
#
# Youngs Moduli (GPa) = 94.46105 76.02209 55.82831
#
# Poissons Ratio (x) = 0.32004 0.16772
# Poissons Ratio (y) = 0.39766 0.22859
# Poissons Ratio (z) = 0.28377 0.31127
#
# Static dielectric constant tensor:
#      x y z
#    x 4.225210 0.000000 0.000000 
#    y 0.000000 4.161950 0.000000 
#    z 0.000000 0.000000 3.846920 
# 
# 
# High freq. dielectric constant tensor:
#      x y z
#    x 1.894570 0.000000 0.000000 
#    y 0.000000 1.871360 0.000000 
#    z 0.000000 0.000000 1.870390 
# 
# From -- ./inp_files/12262.got.cif
#   From: 2010.03.12/outbox.cif.g09.slc.cpg/sg73_7_cif.got.tgz:12262.got - 2010.04.16 15:25:48.
