data_PCOD8296400
_publ_section_title
;
Structure prediction by ZEFSAII (Michael W. Deem and Ramdas Pophale) SiO2 
 PCOD8296400
Probable space group: I B C A 
;
_chemical_formula_sum "Si O2"
_cell_formula_units_Z 96
_cell_length_a 19.315029
_cell_length_b 13.882223
_cell_length_c 16.753515
_cell_angle_alpha 90.000000
_cell_angle_beta 90.000000
_cell_angle_gamma 90.000000
_cell_volume 4492.212789
_symmetry_space_group_name_H-M "I B C A "
_symmetry_group_IT_number 73
_symmetry_cell_setting 'orthorhombic'
loop_
_space_group_symop_operation_xyz
x,y,z
-x,1/2-y,z
x,-y,1/2-z
1/2-x,y,-z
-x,-y,-z
x,1/2+y,-z
-x,y,1/2+z
1/2+x,-y,z
1/2+x,1/2+y,1/2+z
1/2-x,-y,1/2+z
1/2+x,1/2-y,-z
-x,1/2+y,1/2-z
1/2-x,1/2-y,1/2-z
1/2+x,y,1/2-z
1/2-x,1/2+y,z
x,1/2-y,1/2+z
loop_
_atom_site_type_symbol
_atom_site_label
_atom_site_fract_x
_atom_site_fract_y
_atom_site_fract_z
Si Si1 0.226341 0.021648 0.660975
Si Si2 0.190923 0.766039 0.814588
Si Si3 0.153908 0.914280 0.412581
Si Si4 0.895449 0.406542 0.907372
Si Si5 0.965236 0.024783 0.837521
Si Si6 0.422635 0.229616 0.691265
O O1 0.204085 0.131379 0.644332
O O2 0.254837 0.000000 0.750000
O O3 0.288063 0.996329 0.599962
O O4 0.158933 0.955802 0.651472
O O5 0.250000 0.750000 0.750000
O O6 0.188738 0.685649 0.883876
O O7 0.118901 0.760826 0.768995
O O8 0.133753 0.912142 0.504333
O O9 0.082898 0.936853 0.365546
O O10 0.901509 0.294333 0.884647
O O11 0.970244 0.458441 0.897305
O O12 0.914825 0.118370 0.834109
O O13 0.995097 0.000000 0.750000
O O14 0.500000 0.250000 0.718207
#
# Coordination Sequence:
#
# PCOD8296400 Si02
#       6
#    16  16  16  16  16  16
#     4  12  23  41  70  96 133 181 231 278 338 415
#     4  12  23  40  67 100 127 178 234 279 331 411
#     4  12  25  43  66 103 138 175 228 291 348 402
#     4  11  25  43  64 100 143 175 221 288 348 399
#     4  11  22  42  73 100 134 183 230 278 336 420
#     4  10  22  40  66  97 132 176 226 278 334 403
#
# _framework density 21.370312999999999
#
# number of rings (size 3 to 8) (size 9 to 14) (size 15 to 20)
#    0.000    0.667    5.000    3.000    2.333    1.333 
#    0.000    7.500    0.000    0.000    0.000    0.000 
#    0.000    0.000    0.000    0.000    0.000    0.000 
#
# Total GULP energy -595336.315903 kJ/mol
# GULP energy per Si atom -12402.839915 kJ/mol
# Density = 2.132167 g / cm^3
# Si number density = 21.370313 Si / 1000 Ang^3
#
#
#
# Elastic Constant Matrix: (Units=GPa)
#
#
# Indices 1 2 3 4 5 6 
#
# 1 110.2398 56.0625 55.0096 0.0000 0.0000 0.0000
# 2 56.0625 129.0152 59.9611 0.0000 0.0000 0.0000
# 3 55.0096 59.9611 115.8368 0.0000 0.0000 0.0000
# 4 0.0000 0.0000 0.0000 27.4193 0.0000 0.0000
# 5 0.0000 0.0000 0.0000 0.0000 44.4869 0.0000
# 6 0.0000 0.0000 0.0000 0.0000 0.0000 35.5497
#
#
#
# Elastic Compliance Matrix: (Units=1/GPa)
#
#
# Indices 1 2 3 4 5 6 
#
# 1 0.013098 -0.003688 -0.004311 0.000000 0.000000 0.000000
# 2 -0.003688 0.011245 -0.004069 0.000000 0.000000 0.000000
# 3 -0.004311 -0.004069 0.012787 0.000000 0.000000 0.000000
# 4 0.000000 0.000000 0.000000 0.036471 0.000000 0.000000
# 5 0.000000 0.000000 0.000000 0.000000 0.022479 0.000000
# 6 0.000000 0.000000 0.000000 0.000000 0.000000 0.028130
#
#
# Mechanical properties :
#
#
# Convention : Reuss Voigt Hill
#
# Bulk Modulus (GPa) = 76.96704 77.46204 77.21454
# Shear Modulus (GPa) = 32.74919 33.76176 33.25548
#
# Velocity S-wave (km/s) = 3.91891 3.97904 3.94909
# Velocity P-wave (km/s) = 7.52139 7.57869 7.55009
#
# Compressibility (1/GPa) = 0.01299257
#
# Stress axis : x y z
#
# Youngs Moduli (GPa) = 76.34845 88.92935 78.20740
#
# Poissons Ratio (x) = 0.32797 0.33715
# Poissons Ratio (y) = 0.28157 0.31825
# Poissons Ratio (z) = 0.32914 0.36188
#
# Static dielectric constant tensor:
#      x y z
#    x 3.993440 0.000000 0.000000 
#    y 0.000000 3.372700 0.000000 
#    z 0.000000 0.000000 3.588160 
# 
# 
# High freq. dielectric constant tensor:
#      x y z
#    x 1.856630 0.000000 0.000000 
#    y 0.000000 1.847790 0.000000 
#    z 0.000000 0.000000 1.819410 
# 
# From -- ./inp_files/18653.got.cif
#   From: 2010.03.12/outbox.cif.g09.slc.cpg/sg73_10_cif.got.tgz:18653.got - 2010.04.16 15:25:48.
