data_PCOD8296777
_publ_section_title
;
Structure prediction by ZEFSAII (Michael W. Deem and Ramdas Pophale) SiO2 
 PCOD8296777
Probable space group: I B C A 
;
_chemical_formula_sum "Si O2"
_cell_formula_units_Z 112
_cell_length_a 19.162089
_cell_length_b 10.596792
_cell_length_c 24.044665
_cell_angle_alpha 90.000000
_cell_angle_beta 90.000000
_cell_angle_gamma 90.000000
_cell_volume 4882.429640
_symmetry_space_group_name_H-M "I B C A "
_symmetry_group_IT_number 73
_symmetry_cell_setting 'orthorhombic'
loop_
_space_group_symop_operation_xyz
x,y,z
-x,1/2-y,z
x,-y,1/2-z
1/2-x,y,-z
-x,-y,-z
x,1/2+y,-z
-x,y,1/2+z
1/2+x,-y,z
1/2+x,1/2+y,1/2+z
1/2-x,-y,1/2+z
1/2+x,1/2-y,-z
-x,1/2+y,1/2-z
1/2-x,1/2-y,1/2-z
1/2+x,y,1/2-z
1/2-x,1/2+y,z
x,1/2-y,1/2+z
loop_
_atom_site_type_symbol
_atom_site_label
_atom_site_fract_x
_atom_site_fract_y
_atom_site_fract_z
Si Si1 0.291773 0.611757 0.880204
Si Si2 0.540773 0.521604 0.861550
Si Si3 0.500000 0.250000 0.561745
Si Si4 0.891555 0.500000 0.250000
Si Si5 0.597980 0.046046 0.811240
Si Si6 0.143590 0.749596 0.520647
Si Si7 0.694484 0.721907 0.703498
Si Si8 0.332259 0.525114 0.059001
O O1 0.344917 0.548092 0.837317
O O2 0.335685 0.703059 0.918832
O O3 0.237797 0.707666 0.852376
O O4 0.243122 0.507651 0.911347
O O5 0.514763 0.636467 0.897453
O O6 0.564472 0.566161 0.799681
O O7 0.471139 0.436845 0.850095
O O8 0.603772 0.457744 0.897006
O O9 0.561338 0.226635 0.517878
O O10 0.842721 0.593940 0.282092
O O11 0.575990 0.000000 0.750000
O O12 0.633017 0.180404 0.805483
O O13 0.159619 0.597463 0.517772
O O14 0.176450 0.840213 0.473649
O O15 0.750000 0.750000 0.750000
#
# Coordination Sequence:
#
# PCOD8296777 Si02
#       8
#    16  16   8   8  16  16  16  16
#     4  12  24  47  71 112 142 195 242 304 368 443
#     4  11  25  45  71 108 143 195 238 294 366 446
#     4  10  24  48  74  98 144 192 236 304 376 438
#     4  12  26  44  68 106 150 192 236 300 360 438
#     4  12  25  43  71 109 149 195 240 287 360 447
#     4  11  26  48  78 103 143 193 246 316 376 433
#     4  12  26  42  70 106 151 190 240 297 359 435
#     4  11  27  50  76 108 146 192 255 314 374 438
#
# _framework density 22.939399000000002
#
# number of rings (size 3 to 8) (size 9 to 14) (size 15 to 20)
#    0.000    0.571    5.000    2.143    6.000    6.286 
#    2.571    0.000    0.000    0.000    0.000    0.000 
#    0.000    0.000    0.000    0.000    0.000    0.000 
#
# Total GULP energy -693921.291810 kJ/mol
# GULP energy per Si atom -12391.451639 kJ/mol
# Density = 2.288719 g / cm^3
# Si number density = 22.939399 Si / 1000 Ang^3
#
#
#
# Elastic Constant Matrix: (Units=GPa)
#
#
# Indices 1 2 3 4 5 6 
#
# 1 103.8711 17.7516 7.0497 0.0000 0.0000 0.0000
# 2 17.7516 84.6496 22.1415 0.0000 0.0000 0.0000
# 3 7.0497 22.1415 75.4545 0.0000 0.0000 0.0000
# 4 0.0000 0.0000 0.0000 22.2664 0.0000 0.0000
# 5 0.0000 0.0000 0.0000 0.0000 44.3376 0.0000
# 6 0.0000 0.0000 0.0000 0.0000 0.0000 32.2795
#
#
#
# Elastic Compliance Matrix: (Units=1/GPa)
#
#
# Indices 1 2 3 4 5 6 
#
# 1 0.009993 -0.002005 -0.000345 0.000000 0.000000 0.000000
# 2 -0.002005 0.013198 -0.003685 0.000000 0.000000 0.000000
# 3 -0.000345 -0.003685 0.014367 0.000000 0.000000 0.000000
# 4 0.000000 0.000000 0.000000 0.044911 0.000000 0.000000
# 5 0.000000 0.000000 0.000000 0.000000 0.022554 0.000000
# 6 0.000000 0.000000 0.000000 0.000000 0.000000 0.030979
#
#
# Mechanical properties :
#
#
# Convention : Reuss Voigt Hill
#
# Bulk Modulus (GPa) = 39.23726 39.76233 39.49980
# Shear Modulus (GPa) = 31.93458 34.24551 33.09004
#
# Velocity S-wave (km/s) = 3.73517 3.86796 3.80214
# Velocity P-wave (km/s) = 5.97862 6.10896 6.04414
#
# Compressibility (1/GPa) = 0.02548598
#
# Stress axis : x y z
#
# Youngs Moduli (GPa) = 100.06528 75.76933 69.60516
#
# Poissons Ratio (x) = 0.15195 0.02403
# Poissons Ratio (y) = 0.20067 0.25653
# Poissons Ratio (z) = 0.03454 0.27925
#
# Static dielectric constant tensor:
#      x y z
#    x 4.643060 0.000000 0.000000 
#    y 0.000000 3.061570 0.000000 
#    z 0.000000 0.000000 5.190900 
# 
# 
# High freq. dielectric constant tensor:
#      x y z
#    x 1.936780 0.000000 0.000000 
#    y 0.000000 1.888410 0.000000 
#    z 0.000000 0.000000 1.911860 
# 
# From -- ./inp_files/30163.got.cif
#   From: 2010.03.12/outbox.cif.g09.slc.cpg/sg73_16_cif.got.tgz:30163.got - 2010.04.16 15:25:48.
