data_PCOD8296261
_publ_section_title
;
Structure prediction by ZEFSAII (Michael W. Deem and Ramdas Pophale) SiO2 
 PCOD8296261
Probable space group: I B C A 
;
_chemical_formula_sum "Si O2"
_cell_formula_units_Z 88
_cell_length_a 12.478911
_cell_length_b 14.322060
_cell_length_c 22.262295
_cell_angle_alpha 90.000000
_cell_angle_beta 90.000000
_cell_angle_gamma 90.000000
_cell_volume 3978.800002
_symmetry_space_group_name_H-M "I B C A "
_symmetry_group_IT_number 73
_symmetry_cell_setting 'orthorhombic'
loop_
_space_group_symop_operation_xyz
x,y,z
-x,1/2-y,z
x,-y,1/2-z
1/2-x,y,-z
-x,-y,-z
x,1/2+y,-z
-x,y,1/2+z
1/2+x,-y,z
1/2+x,1/2+y,1/2+z
1/2-x,-y,1/2+z
1/2+x,1/2-y,-z
-x,1/2+y,1/2-z
1/2-x,1/2-y,1/2-z
1/2+x,y,1/2-z
1/2-x,1/2+y,z
x,1/2-y,1/2+z
loop_
_atom_site_type_symbol
_atom_site_label
_atom_site_fract_x
_atom_site_fract_y
_atom_site_fract_z
Si Si1 0.592465 0.687195 0.379487
Si Si2 0.879608 0.500000 0.250000
Si Si3 0.452652 0.024747 0.621257
Si Si4 0.567970 0.656401 0.144531
Si Si5 0.778057 0.650423 0.068014
Si Si6 0.797507 0.650135 0.739772
O O1 0.500000 0.750000 0.348862
O O2 0.538325 0.595696 0.409744
O O3 0.653081 0.753543 0.427274
O O4 0.662165 0.644170 0.327437
O O5 0.952225 0.530900 0.193749
O O6 0.804994 0.586109 0.263969
O O7 0.337127 0.057400 0.594740
O O8 0.491235 0.918541 0.609977
O O9 0.500000 0.750000 0.152287
O O10 0.670910 0.672564 0.103885
O O11 0.612258 0.623283 0.210258
O O12 0.750000 0.628265 0.000000
O O13 0.750000 0.750000 0.750000
#
# Coordination Sequence:
#
# PCOD8296261 Si02
#       6
#    16   8  16  16  16  16
#     4  10  21  41  67  96 133 175 222 281 349 412
#     4  12  22  38  68 102 144 176 218 278 354 432
#     4  11  24  43  68 102 138 183 223 284 354 418
#     4  12  25  42  68 102 138 180 232 284 351 420
#     4  11  26  48  69  97 134 184 241 287 341 414
#     4  12  20  37  66 100 140 178 215 282 356 413
#
# _framework density 22.11722
#
# number of rings (size 3 to 8) (size 9 to 14) (size 15 to 20)
#    0.000    0.727    3.636    4.909    0.000    2.909 
#    0.000    1.818    0.000    0.000    0.000    0.000 
#    0.000    0.000    0.000    0.000    0.000    0.000 
#
# Total GULP energy -545171.347235 kJ/mol
# GULP energy per Si atom -12390.257892 kJ/mol
# Density = 2.206688 g / cm^3
# Si number density = 22.117220 Si / 1000 Ang^3
#
#
#
# Elastic Constant Matrix: (Units=GPa)
#
#
# Indices 1 2 3 4 5 6 
#
# 1 83.1851 30.1132 18.8270 0.0000 0.0000 0.0000
# 2 30.1132 115.2174 11.2160 0.0000 0.0000 0.0000
# 3 18.8270 11.2160 92.1913 0.0000 0.0000 0.0000
# 4 0.0000 0.0000 0.0000 25.7390 0.0000 0.0000
# 5 0.0000 0.0000 0.0000 0.0000 12.8686 0.0000
# 6 0.0000 0.0000 0.0000 0.0000 0.0000 27.0264
#
#
#
# Elastic Compliance Matrix: (Units=1/GPa)
#
#
# Indices 1 2 3 4 5 6 
#
# 1 0.013785 -0.003369 -0.002405 0.000000 0.000000 0.000000
# 2 -0.003369 0.009607 -0.000481 0.000000 0.000000 0.000000
# 3 -0.002405 -0.000481 0.011397 0.000000 0.000000 0.000000
# 4 0.000000 0.000000 0.000000 0.038852 0.000000 0.000000
# 5 0.000000 0.000000 0.000000 0.000000 0.077709 0.000000
# 6 0.000000 0.000000 0.000000 0.000000 0.000000 0.037001
#
#
# Mechanical properties :
#
#
# Convention : Reuss Voigt Hill
#
# Bulk Modulus (GPa) = 44.88583 45.65624 45.27103
# Shear Modulus (GPa) = 24.00551 28.48931 26.24741
#
# Velocity S-wave (km/s) = 3.29808 3.59291 3.44865
# Velocity P-wave (km/s) = 5.90268 6.15627 6.03081
#
# Compressibility (1/GPa) = 0.02227875
#
# Stress axis : x y z
#
# Youngs Moduli (GPa) = 72.54118 104.09607 87.74465
#
# Poissons Ratio (x) = 0.35068 0.21106
# Poissons Ratio (y) = 0.24437 0.04218
# Poissons Ratio (z) = 0.17449 0.05005
#
# Static dielectric constant tensor:
#      x y z
#    x 4.633080 0.000000 0.000000 
#    y 0.000000 4.127790 0.000000 
#    z 0.000000 0.000000 3.232290 
# 
# 
# High freq. dielectric constant tensor:
#      x y z
#    x 1.889660 0.000000 0.000000 
#    y 0.000000 1.883740 0.000000 
#    z 0.000000 0.000000 1.832230 
# 
# From -- ./inp_files/14218.got.cif
#   From: 2010.03.12/outbox.cif.g09.slc.cpg/sg73_8_cif.got.tgz:14218.got - 2010.04.16 15:25:48.
