data_PCOD8296130
_publ_section_title
;
Structure prediction by ZEFSAII (Michael W. Deem and Ramdas Pophale) SiO2 
 PCOD8296130
Probable space group: I B C A 
;
_chemical_formula_sum "Si O2"
_cell_formula_units_Z 96
_cell_length_a 27.639678
_cell_length_b 7.952641
_cell_length_c 20.098547
_cell_angle_alpha 90.000000
_cell_angle_beta 90.000000
_cell_angle_gamma 90.000000
_cell_volume 4417.830192
_symmetry_space_group_name_H-M "I B C A "
_symmetry_group_IT_number 73
_symmetry_cell_setting 'orthorhombic'
loop_
_space_group_symop_operation_xyz
x,y,z
-x,1/2-y,z
x,-y,1/2-z
1/2-x,y,-z
-x,-y,-z
x,1/2+y,-z
-x,y,1/2+z
1/2+x,-y,z
1/2+x,1/2+y,1/2+z
1/2-x,-y,1/2+z
1/2+x,1/2-y,-z
-x,1/2+y,1/2-z
1/2-x,1/2-y,1/2-z
1/2+x,y,1/2-z
1/2-x,1/2+y,z
x,1/2-y,1/2+z
loop_
_atom_site_type_symbol
_atom_site_label
_atom_site_fract_x
_atom_site_fract_y
_atom_site_fract_z
Si Si1 0.189978 0.624202 0.569958
Si Si2 0.750000 0.369146 0.000000
Si Si3 0.403209 0.348857 0.556898
Si Si4 0.096211 0.595334 0.319530
Si Si5 0.939816 0.479947 0.427683
Si Si6 0.860943 0.062441 0.676003
Si Si7 0.000000 0.750000 0.368951
O O1 0.202280 0.477207 0.516975
O O2 0.234787 0.755679 0.564521
O O3 0.141447 0.720161 0.549239
O O4 0.185200 0.529031 0.641083
O O5 0.396738 0.466215 0.620577
O O6 0.409230 0.456316 0.490907
O O7 0.449354 0.220654 0.564789
O O8 0.099829 0.500000 0.250000
O O9 0.139458 0.733164 0.324807
O O10 0.044652 0.691780 0.323339
O O11 0.908931 0.502811 0.361106
O O12 0.988282 0.590488 0.417493
O O13 0.863539 0.000000 0.750000
#
# Coordination Sequence:
#
# PCOD8296130 Si02
#       7
#    16   8  16  16  16  16   8
#     4  10  21  39  63  92 124 155 197 248 300 368
#     4  10  22  38  64  98 124 154 192 246 316 366
#     4  11  22  38  63  88 117 161 204 248 301 367
#     4  11  24  40  61  89 119 162 210 252 308 364
#     4  10  21  37  58  87 119 157 205 251 303 357
#     4  10  21  40  62  85 117 159 203 245 294 362
#     4  10  24  38  54  84 124 158 202 264 310 352
#
# _framework density 21.730125000000001
#
# number of rings (size 3 to 8) (size 9 to 14) (size 15 to 20)
#    0.000    1.667    0.000    6.000    0.000   11.333 
#    0.000    0.833    0.000    1.000    0.000    0.000 
#    0.000    0.000    0.000    0.000    0.000    0.000 
#
# Total GULP energy -594674.970154 kJ/mol
# GULP energy per Si atom -12389.061878 kJ/mol
# Density = 2.168067 g / cm^3
# Si number density = 21.730125 Si / 1000 Ang^3
#
#
#
# Elastic Constant Matrix: (Units=GPa)
#
#
# Indices 1 2 3 4 5 6 
#
# 1 54.5897 32.3672 33.2468 0.0000 0.0000 0.0000
# 2 32.3672 162.0713 68.2698 0.0000 0.0000 0.0000
# 3 33.2468 68.2698 159.3477 0.0000 0.0000 0.0000
# 4 0.0000 0.0000 0.0000 42.0119 0.0000 0.0000
# 5 0.0000 0.0000 0.0000 0.0000 8.8301 0.0000
# 6 0.0000 0.0000 0.0000 0.0000 0.0000 20.1233
#
#
#
# Elastic Compliance Matrix: (Units=1/GPa)
#
#
# Indices 1 2 3 4 5 6 
#
# 1 0.022134 -0.003020 -0.003324 0.000000 0.000000 0.000000
# 2 -0.003020 0.007941 -0.002772 0.000000 0.000000 0.000000
# 3 -0.003324 -0.002772 0.008157 0.000000 0.000000 0.000000
# 4 0.000000 0.000000 0.000000 0.023803 0.000000 0.000000
# 5 0.000000 0.000000 0.000000 0.000000 0.113249 0.000000
# 6 0.000000 0.000000 0.000000 0.000000 0.000000 0.049694
#
#
# Mechanical properties :
#
#
# Convention : Reuss Voigt Hill
#
# Bulk Modulus (GPa) = 50.00285 71.53070 60.76678
# Shear Modulus (GPa) = 20.00993 30.33472 25.17233
#
# Velocity S-wave (km/s) = 3.03782 3.74033 3.40723
# Velocity P-wave (km/s) = 5.94687 7.18628 6.59575
#
# Compressibility (1/GPa) = 0.01999886
#
# Stress axis : x y z
#
# Youngs Moduli (GPa) = 45.18012 125.92975 122.59745
#
# Poissons Ratio (x) = 0.38032 0.40753
# Poissons Ratio (y) = 0.13645 0.33985
# Poissons Ratio (z) = 0.15018 0.34908
#
# Static dielectric constant tensor:
#      x y z
#    x 3.896760 0.000000 0.000000 
#    y 0.000000 4.703040 0.000000 
#    z 0.000000 0.000000 3.797040 
# 
# 
# High freq. dielectric constant tensor:
#      x y z
#    x 1.825360 0.000000 0.000000 
#    y 0.000000 1.891200 0.000000 
#    z 0.000000 0.000000 1.838390 
# 
# From -- ./inp_files/27537.got.cif
#   From: 2010.03.12/outbox.cif.g09.slc.cpg/sg73_14_cif.got.tgz:27537.got - 2010.04.16 15:25:48.
