data_PCOD8296934
_publ_section_title
;
Structure prediction by ZEFSAII (Michael W. Deem and Ramdas Pophale) SiO2 
 PCOD8296934
Probable space group: I B C A 
;
_chemical_formula_sum "Si O2"
_cell_formula_units_Z 48
_cell_length_a 20.113878
_cell_length_b 11.552483
_cell_length_c 8.181717
_cell_angle_alpha 90.000000
_cell_angle_beta 90.000000
_cell_angle_gamma 90.000000
_cell_volume 1901.146582
_symmetry_space_group_name_H-M "I B C A "
_symmetry_group_IT_number 73
_symmetry_cell_setting 'orthorhombic'
loop_
_space_group_symop_operation_xyz
x,y,z
-x,1/2-y,z
x,-y,1/2-z
1/2-x,y,-z
-x,-y,-z
x,1/2+y,-z
-x,y,1/2+z
1/2+x,-y,z
1/2+x,1/2+y,1/2+z
1/2-x,-y,1/2+z
1/2+x,1/2-y,-z
-x,1/2+y,1/2-z
1/2-x,1/2-y,1/2-z
1/2+x,y,1/2-z
1/2-x,1/2+y,z
x,1/2-y,1/2+z
loop_
_atom_site_type_symbol
_atom_site_label
_atom_site_fract_x
_atom_site_fract_y
_atom_site_fract_z
Si Si1 0.084090 0.348083 0.783446
Si Si2 0.729776 0.877963 0.183674
Si Si3 0.555436 0.891692 0.659111
O O1 0.151482 0.396469 0.709115
O O2 0.083147 0.210565 0.771253
O O3 0.025025 0.398955 0.669861
O O4 0.077079 0.382488 0.972459
O O5 0.750000 0.750000 0.250000
O O6 0.762742 0.000000 0.250000
O O7 0.750000 0.871366 0.000000
O O8 0.588401 0.000000 0.750000
#
# Coordination Sequence:
#
# PCOD8296934 Si02
#       3
#    16  16  16
#     4  11  24  43  70 109 146 188 243 296 367 443
#     4  12  28  51  76 108 148 199 253 307 365 438
#     4  11  23  42  71 109 148 188 231 299 371 439
#
# _framework density 25.247923
#
# number of rings (size 3 to 8) (size 9 to 14) (size 15 to 20)
#    0.000    0.667    0.000    9.000    0.000    6.667 
#    0.000    3.333    0.000    0.000    0.000    0.000 
#    0.000    0.000    0.000    0.000    0.000    0.000 
#
# Total GULP energy -297333.310863 kJ/mol
# GULP energy per Si atom -12388.887953 kJ/mol
# Density = 2.519046 g / cm^3
# Si number density = 25.247923 Si / 1000 Ang^3
#
#
#
# Elastic Constant Matrix: (Units=GPa)
#
#
# Indices 1 2 3 4 5 6 
#
# 1 108.2077 36.5056 93.8902 0.0000 0.0000 0.0000
# 2 36.5056 245.2559 79.5664 0.0000 0.0000 0.0000
# 3 93.8902 79.5664 241.9535 0.0000 0.0000 0.0000
# 4 0.0000 0.0000 0.0000 46.4692 0.0000 0.0000
# 5 0.0000 0.0000 0.0000 0.0000 33.2275 0.0000
# 6 0.0000 0.0000 0.0000 0.0000 0.0000 2541.1285
#
#
#
# Elastic Compliance Matrix: (Units=1/GPa)
#
#
# Indices 1 2 3 4 5 6 
#
# 1 0.013961 -0.000359 -0.005300 0.000000 0.000000 0.000000
# 2 -0.000359 0.004574 -0.001365 0.000000 0.000000 0.000000
# 3 -0.005300 -0.001365 0.006638 0.000000 0.000000 0.000000
# 4 0.000000 0.000000 0.000000 0.021520 0.000000 0.000000
# 5 0.000000 0.000000 0.000000 0.000000 0.030096 0.000000
# 6 0.000000 0.000000 0.000000 0.000000 0.000000 0.000394
#
#
# Mechanical properties :
#
#
# Convention : Reuss Voigt Hill
#
# Bulk Modulus (GPa) = 89.87514 112.81573 101.34544
# Shear Modulus (GPa) = 52.66684 549.86204 301.26444
#
# Velocity S-wave (km/s) = 4.57222 14.77355 10.93533
# Velocity P-wave (km/s) = 7.97169 18.32459 14.13044
#
# Compressibility (1/GPa) = 0.01112655
#
# Stress axis : x y z
#
# Youngs Moduli (GPa) = 71.62896 218.64889 150.64041
#
# Poissons Ratio (x) = 0.07844 0.79832
# Poissons Ratio (y) = 0.02570 0.20559
# Poissons Ratio (z) = 0.37960 0.29841
#
# Static dielectric constant tensor:
#      x y z
#    x 4.714310 0.000000 0.000000 
#    y 0.000000 4.858370 0.000000 
#    z 0.000000 0.000000 4.273420 
# 
# 
# High freq. dielectric constant tensor:
#      x y z
#    x 1.994690 0.000000 0.000000 
#    y 0.000000 2.061060 0.000000 
#    z 0.000000 0.000000 2.008130 
# 
# From -- ./inp_files/6748.got.cif
#   From: 2010.03.12/outbox.cif.g09.slc.cpg/sg73_4_cif.got.tgz:6748.got - 2010.04.16 15:25:48.
