data_PCOD8296383
_publ_section_title
;
Structure prediction by ZEFSAII (Michael W. Deem and Ramdas Pophale) SiO2 
 PCOD8296383
Probable space group: I B C A 
;
_chemical_formula_sum "Si O2"
_cell_formula_units_Z 88
_cell_length_a 19.571662
_cell_length_b 16.613729
_cell_length_c 10.524620
_cell_angle_alpha 90.000000
_cell_angle_beta 90.000000
_cell_angle_gamma 90.000000
_cell_volume 3422.167427
_symmetry_space_group_name_H-M "I B C A "
_symmetry_group_IT_number 73
_symmetry_cell_setting 'orthorhombic'
loop_
_space_group_symop_operation_xyz
x,y,z
-x,1/2-y,z
x,-y,1/2-z
1/2-x,y,-z
-x,-y,-z
x,1/2+y,-z
-x,y,1/2+z
1/2+x,-y,z
1/2+x,1/2+y,1/2+z
1/2-x,-y,1/2+z
1/2+x,1/2-y,-z
-x,1/2+y,1/2-z
1/2-x,1/2-y,1/2-z
1/2+x,y,1/2-z
1/2-x,1/2+y,z
x,1/2-y,1/2+z
loop_
_atom_site_type_symbol
_atom_site_label
_atom_site_fract_x
_atom_site_fract_y
_atom_site_fract_z
Si Si1 0.250000 0.078504 0.000000
Si Si2 0.038153 0.000000 0.750000
Si Si3 0.855562 0.301235 0.426997
Si Si4 0.052416 0.118091 0.163423
Si Si5 0.500000 0.750000 0.488070
Si Si6 0.690273 0.707676 0.667828
Si Si7 0.381413 0.019597 0.500731
O O1 0.236015 0.134150 0.122102
O O2 0.312329 0.024023 0.039149
O O3 0.080533 0.969044 0.868821
O O4 0.992244 0.080920 0.780315
O O5 0.796879 0.267266 0.318888
O O6 0.823177 0.274964 0.561707
O O7 0.862714 0.397313 0.428210
O O8 0.929795 0.258201 0.405636
O O9 0.003626 0.170376 0.073336
O O10 0.115807 0.170349 0.210565
O O11 0.074830 0.037280 0.090625
#
# Coordination Sequence:
#
# PCOD8296383 Si02
#       7
#     8   8  16  16   8  16  16
#     4  10  26  52  68 100 144 190 262 322 376 456
#     4  12  22  38  72 104 142 186 246 304 380 458
#     4  11  24  44  71 112 147 201 251 306 393 448
#     4  10  22  41  63 104 145 187 232 312 377 457
#     4  10  22  40  64 104 158 194 242 306 388 478
#     4  10  25  46  72 102 148 195 248 313 373 448
#     4  11  25  43  72 108 143 200 250 313 384 456
#
# _framework density 25.714697999999999
#
# number of rings (size 3 to 8) (size 9 to 14) (size 15 to 20)
#    0.000    1.455    1.818    1.636    2.545   12.364 
#    0.000    0.000    0.000    0.000    0.000    0.000 
#    0.000    0.000    0.000    0.000    0.000    0.000 
#
# Total GULP energy -545358.889266 kJ/mol
# GULP energy per Si atom -12394.520211 kJ/mol
# Density = 2.565617 g / cm^3
# Si number density = 25.714698 Si / 1000 Ang^3
#
#
#
# Elastic Constant Matrix: (Units=GPa)
#
#
# Indices 1 2 3 4 5 6 
#
# 1 70.1162 26.3576 25.1597 0.0000 0.0000 0.0000
# 2 26.3576 144.4066 43.1846 0.0000 0.0000 0.0000
# 3 25.1597 43.1846 131.1684 0.0000 0.0000 0.0000
# 4 0.0000 0.0000 0.0000 42.7963 0.0000 0.0000
# 5 0.0000 0.0000 0.0000 0.0000 47.3100 0.0000
# 6 0.0000 0.0000 0.0000 0.0000 0.0000 20.4060
#
#
#
# Elastic Compliance Matrix: (Units=1/GPa)
#
#
# Indices 1 2 3 4 5 6 
#
# 1 0.015928 -0.002211 -0.002327 0.000000 0.000000 0.000000
# 2 -0.002211 0.007988 -0.002206 0.000000 0.000000 0.000000
# 3 -0.002327 -0.002206 0.008796 0.000000 0.000000 0.000000
# 4 0.000000 0.000000 0.000000 0.023366 0.000000 0.000000
# 5 0.000000 0.000000 0.000000 0.000000 0.021137 0.000000
# 6 0.000000 0.000000 0.000000 0.000000 0.000000 0.049005
#
#
# Mechanical properties :
#
#
# Convention : Reuss Voigt Hill
#
# Bulk Modulus (GPa) = 52.01769 59.45500 55.73634
# Shear Modulus (GPa) = 34.21881 38.83510 36.52695
#
# Velocity S-wave (km/s) = 3.65185 3.89038 3.77300
# Velocity P-wave (km/s) = 6.16879 6.58417 6.37986
#
# Compressibility (1/GPa) = 0.01922423
#
# Stress axis : x y z
#
# Youngs Moduli (GPa) = 62.78101 125.18542 113.68307
#
# Poissons Ratio (x) = 0.27683 0.26456
# Poissons Ratio (y) = 0.13883 0.25076
# Poissons Ratio (z) = 0.14610 0.27613
#
# Static dielectric constant tensor:
#      x y z
#    x 4.793650 0.000000 0.000000 
#    y 0.000000 4.852220 0.000000 
#    z 0.000000 0.000000 4.823590 
# 
# 
# High freq. dielectric constant tensor:
#      x y z
#    x 2.066080 0.000000 0.000000 
#    y 0.000000 2.040020 0.000000 
#    z 0.000000 0.000000 2.030000 
# 
# From -- ./inp_files/12783.got.cif
#   From: 2010.03.12/outbox.cif.g09.slc.cpg/sg73_7_cif.got.tgz:12783.got - 2010.04.16 15:25:48.
