data_PCOD8296795
_publ_section_title
;
Structure prediction by ZEFSAII (Michael W. Deem and Ramdas Pophale) SiO2 
 PCOD8296795
Probable space group: I B C A 
;
_chemical_formula_sum "Si O2"
_cell_formula_units_Z 96
_cell_length_a 18.828885
_cell_length_b 11.965812
_cell_length_c 19.495685
_cell_angle_alpha 90.000000
_cell_angle_beta 90.000000
_cell_angle_gamma 90.000000
_cell_volume 4392.434331
_symmetry_space_group_name_H-M "I B C A "
_symmetry_group_IT_number 73
_symmetry_cell_setting 'orthorhombic'
loop_
_space_group_symop_operation_xyz
x,y,z
-x,1/2-y,z
x,-y,1/2-z
1/2-x,y,-z
-x,-y,-z
x,1/2+y,-z
-x,y,1/2+z
1/2+x,-y,z
1/2+x,1/2+y,1/2+z
1/2-x,-y,1/2+z
1/2+x,1/2-y,-z
-x,1/2+y,1/2-z
1/2-x,1/2-y,1/2-z
1/2+x,y,1/2-z
1/2-x,1/2+y,z
x,1/2-y,1/2+z
loop_
_atom_site_type_symbol
_atom_site_label
_atom_site_fract_x
_atom_site_fract_y
_atom_site_fract_z
Si Si1 0.125792 0.881151 0.533834
Si Si2 0.673913 0.043564 0.390468
Si Si3 0.250000 0.741755 0.500000
Si Si4 0.076820 0.098698 0.295924
Si Si5 0.817849 0.582129 0.901034
Si Si6 0.500000 0.750000 0.899667
Si Si7 0.678972 0.241623 0.292903
O O1 0.123673 0.925504 0.455189
O O2 0.201436 0.820137 0.549082
O O3 0.061571 0.797075 0.550925
O O4 0.121024 0.991204 0.582551
O O5 0.695282 0.157925 0.354314
O O6 0.638567 0.961397 0.336700
O O7 0.742831 0.977075 0.411999
O O8 0.188344 0.677262 0.458886
O O9 0.111112 0.200243 0.251235
O O10 0.022344 0.148905 0.350185
O O11 0.040239 0.000000 0.250000
O O12 0.835615 0.636135 0.826808
O O13 0.750000 0.250000 0.250000
#
# Coordination Sequence:
#
# PCOD8296795 Si02
#       7
#    16  16   8  16  16   8  16
#     4  12  25  42  70 104 137 186 231 303 362 418
#     4  11  21  42  67 103 135 174 230 294 353 410
#     4  12  20  42  70 104 144 172 226 306 356 412
#     4  10  25  47  67  93 143 191 229 290 348 426
#     4  12  21  37  70 106 140 174 232 291 357 421
#     4  12  30  48  68 100 146 190 242 294 360 444
#     4  11  23  38  69 104 140 180 226 288 359 419
#
# _framework density 21.855761999999999
#
# number of rings (size 3 to 8) (size 9 to 14) (size 15 to 20)
#    0.000    0.667    6.667    1.000    2.333    2.000 
#    0.000    3.333    0.000    0.000    0.000    0.000 
#    0.000    0.000    0.000    0.000    0.000    0.000 
#
# Total GULP energy -594879.320330 kJ/mol
# GULP energy per Si atom -12393.319174 kJ/mol
# Density = 2.180602 g / cm^3
# Si number density = 21.855762 Si / 1000 Ang^3
#
#
#
# Elastic Constant Matrix: (Units=GPa)
#
#
# Indices 1 2 3 4 5 6 
#
# 1 68.8946 47.2275 34.9432 0.0000 0.0000 0.0000
# 2 47.2275 122.9419 58.9512 0.0000 0.0000 0.0000
# 3 34.9432 58.9512 116.5321 0.0000 0.0000 0.0000
# 4 0.0000 0.0000 0.0000 47.4293 0.0000 0.0000
# 5 0.0000 0.0000 0.0000 0.0000 31.5500 0.0000
# 6 0.0000 0.0000 0.0000 0.0000 0.0000 17.1709
#
#
#
# Elastic Compliance Matrix: (Units=1/GPa)
#
#
# Indices 1 2 3 4 5 6 
#
# 1 0.020392 -0.006471 -0.002841 0.000000 0.000000 0.000000
# 2 -0.006471 0.012792 -0.004531 0.000000 0.000000 0.000000
# 3 -0.002841 -0.004531 0.011725 0.000000 0.000000 0.000000
# 4 0.000000 0.000000 0.000000 0.021084 0.000000 0.000000
# 5 0.000000 0.000000 0.000000 0.000000 0.031696 0.000000
# 6 0.000000 0.000000 0.000000 0.000000 0.000000 0.058238
#
#
# Mechanical properties :
#
#
# Convention : Reuss Voigt Hill
#
# Bulk Modulus (GPa) = 58.06091 65.62358 61.84225
# Shear Modulus (GPa) = 26.40543 30.37982 28.39262
#
# Velocity S-wave (km/s) = 3.47964 3.73233 3.60820
# Velocity P-wave (km/s) = 6.53965 6.97601 6.76135
#
# Compressibility (1/GPa) = 0.01722329
#
# Stress axis : x y z
#
# Youngs Moduli (GPa) = 49.03905 78.17141 85.28511
#
# Poissons Ratio (x) = 0.50586 0.24230
# Poissons Ratio (y) = 0.31734 0.38643
# Poissons Ratio (z) = 0.13932 0.35419
#
# Static dielectric constant tensor:
#      x y z
#    x 3.931720 0.000000 0.000000 
#    y 0.000000 4.561810 0.000000 
#    z 0.000000 0.000000 4.468510 
# 
# 
# High freq. dielectric constant tensor:
#      x y z
#    x 1.814800 0.000000 0.000000 
#    y 0.000000 1.888270 0.000000 
#    z 0.000000 0.000000 1.869320 
# 
# From -- ./inp_files/26924.got.cif
#   From: 2010.03.12/outbox.cif.g09.slc.cpg/sg73_14_cif.got.tgz:26924.got - 2010.04.16 15:25:48.
