data_PCOD8296089
_publ_section_title
;
Structure prediction by ZEFSAII (Michael W. Deem and Ramdas Pophale) SiO2 
 PCOD8296089
Probable space group: I B C A 
;
_chemical_formula_sum "Si O2"
_cell_formula_units_Z 120
_cell_length_a 22.449312
_cell_length_b 28.116405
_cell_length_c 9.496566
_cell_angle_alpha 90.000000
_cell_angle_beta 90.000000
_cell_angle_gamma 90.000000
_cell_volume 5994.174988
_symmetry_space_group_name_H-M "I B C A "
_symmetry_group_IT_number 73
_symmetry_cell_setting 'orthorhombic'
loop_
_space_group_symop_operation_xyz
x,y,z
-x,1/2-y,z
x,-y,1/2-z
1/2-x,y,-z
-x,-y,-z
x,1/2+y,-z
-x,y,1/2+z
1/2+x,-y,z
1/2+x,1/2+y,1/2+z
1/2-x,-y,1/2+z
1/2+x,1/2-y,-z
-x,1/2+y,1/2-z
1/2-x,1/2-y,1/2-z
1/2+x,y,1/2-z
1/2-x,1/2+y,z
x,1/2-y,1/2+z
loop_
_atom_site_type_symbol
_atom_site_label
_atom_site_fract_x
_atom_site_fract_y
_atom_site_fract_z
Si Si1 0.447544 0.189235 0.139775
Si Si2 0.124349 0.000000 0.250000
Si Si3 0.902729 0.357884 0.127490
Si Si4 0.920367 0.865558 0.417045
Si Si5 0.602211 0.054018 0.719445
Si Si6 0.416311 0.208164 0.630885
Si Si7 0.466933 0.423957 0.165614
Si Si8 0.317821 0.069905 0.955408
O O1 0.451542 0.164455 0.292555
O O2 0.513767 0.203237 0.097752
O O3 0.403499 0.235360 0.130499
O O4 0.421981 0.151030 0.032128
O O5 0.081985 0.965726 0.157473
O O6 0.169006 0.975453 0.359115
O O7 0.897291 0.309006 0.214184
O O8 0.952173 0.391968 0.198311
O O9 0.837675 0.382957 0.130636
O O10 0.882199 0.908732 0.346997
O O11 0.884243 0.825620 0.511292
O O12 0.965740 0.891506 0.525495
O O13 0.532193 0.054566 0.683792
O O14 0.640546 0.070612 0.589840
O O15 0.621230 0.000000 0.750000
O O16 0.250000 0.071902 0.000000
#
# Coordination Sequence:
#
# PCOD8296089 Si02
#       8
#    16   8  16  16  16  16  16  16
#     4  11  19  33  54  90 126 164 193 238 314 382
#     4  10  22  44  62  84 126 160 198 256 308 364
#     4  10  21  38  59  85 123 163 194 248 306 360
#     4  11  21  33  54  89 128 160 200 241 297 375
#     4  12  24  36  63  92 123 159 206 253 303 370
#     4  10  21  32  55  88 131 158 191 244 315 383
#     4  10  22  36  59  93 129 155 192 249 318 361
#     4  11  26  43  61  82 115 169 211 249 296 355
#
# _framework density 20.019435000000001
#
# number of rings (size 3 to 8) (size 9 to 14) (size 15 to 20)
#    0.000    1.333    2.000    4.800    6.533    3.200 
#    0.000    0.000    0.000    0.800    0.000    0.000 
#    0.000    0.000    0.000    0.000    0.000    0.000 
#
# Total GULP energy -743452.252423 kJ/mol
# GULP energy per Si atom -12390.870874 kJ/mol
# Density = 1.997387 g / cm^3
# Si number density = 20.019435 Si / 1000 Ang^3
#
#
#
# Elastic Constant Matrix: (Units=GPa)
#
#
# Indices 1 2 3 4 5 6 
#
# 1 91.0763 31.8036 31.8229 0.0000 0.0000 0.0000
# 2 31.8036 140.7300 44.9726 0.0000 0.0000 0.0000
# 3 31.8229 44.9726 119.2951 0.0000 0.0000 0.0000
# 4 0.0000 0.0000 0.0000 34.9410 0.0000 0.0000
# 5 0.0000 0.0000 0.0000 0.0000 15.1957 0.0000
# 6 0.0000 0.0000 0.0000 0.0000 0.0000 20.1213
#
#
#
# Elastic Compliance Matrix: (Units=1/GPa)
#
#
# Indices 1 2 3 4 5 6 
#
# 1 0.012592 -0.002015 -0.002599 0.000000 0.000000 0.000000
# 2 -0.002015 0.008402 -0.002630 0.000000 0.000000 0.000000
# 3 -0.002599 -0.002630 0.010067 0.000000 0.000000 0.000000
# 4 0.000000 0.000000 0.000000 0.028620 0.000000 0.000000
# 5 0.000000 0.000000 0.000000 0.000000 0.065808 0.000000
# 6 0.000000 0.000000 0.000000 0.000000 0.000000 0.049699
#
#
# Mechanical properties :
#
#
# Convention : Reuss Voigt Hill
#
# Bulk Modulus (GPa) = 60.34092 63.14440 61.74266
# Shear Modulus (GPa) = 25.61485 30.21839 27.91662
#
# Velocity S-wave (km/s) = 3.58089 3.88938 3.73832
# Velocity P-wave (km/s) = 6.87776 7.19581 7.03859
#
# Compressibility (1/GPa) = 0.01657250
#
# Stress axis : x y z
#
# Youngs Moduli (GPa) = 79.41773 119.02570 99.33096
#
# Poissons Ratio (x) = 0.23983 0.25819
# Poissons Ratio (y) = 0.16002 0.26122
# Poissons Ratio (z) = 0.20643 0.31301
#
# Static dielectric constant tensor:
#      x y z
#    x 3.152720 0.000000 0.000000 
#    y 0.000000 4.366890 0.000000 
#    z 0.000000 0.000000 3.904860 
# 
# 
# High freq. dielectric constant tensor:
#      x y z
#    x 1.697430 0.000000 0.000000 
#    y 0.000000 1.810700 0.000000 
#    z 0.000000 0.000000 1.800850 
# 
# From -- ./inp_files/7485.got.cif
#   From: 2010.03.12/outbox.cif.g09.slc.cpg/sg73_4_cif.got.tgz:7485.got - 2010.04.16 15:25:48.
