data_PCOD8296621
_publ_section_title
;
Structure prediction by ZEFSAII (Michael W. Deem and Ramdas Pophale) SiO2 
 PCOD8296621
Probable space group: I B C A 
;
_chemical_formula_sum "Si O2"
_cell_formula_units_Z 88
_cell_length_a 22.424988
_cell_length_b 11.222734
_cell_length_c 16.088271
_cell_angle_alpha 90.000000
_cell_angle_beta 90.000000
_cell_angle_gamma 90.000000
_cell_volume 4048.929938
_symmetry_space_group_name_H-M "I B C A "
_symmetry_group_IT_number 73
_symmetry_cell_setting 'orthorhombic'
loop_
_space_group_symop_operation_xyz
x,y,z
-x,1/2-y,z
x,-y,1/2-z
1/2-x,y,-z
-x,-y,-z
x,1/2+y,-z
-x,y,1/2+z
1/2+x,-y,z
1/2+x,1/2+y,1/2+z
1/2-x,-y,1/2+z
1/2+x,1/2-y,-z
-x,1/2+y,1/2-z
1/2-x,1/2-y,1/2-z
1/2+x,y,1/2-z
1/2-x,1/2+y,z
x,1/2-y,1/2+z
loop_
_atom_site_type_symbol
_atom_site_label
_atom_site_fract_x
_atom_site_fract_y
_atom_site_fract_z
Si Si1 0.989434 0.495095 0.341275
Si Si2 0.307671 0.957388 0.452188
Si Si3 0.908895 0.339393 0.054365
Si Si4 0.000000 0.750000 0.572714
Si Si5 0.884463 0.123200 0.157535
Si Si6 0.218384 0.127656 0.779104
O O1 0.958836 0.500000 0.250000
O O2 0.054087 0.554103 0.334134
O O3 0.950971 0.554654 0.413971
O O4 0.995398 0.359297 0.365570
O O5 0.250000 0.007542 0.500000
O O6 0.347557 0.887886 0.518300
O O7 0.286466 0.868253 0.378686
O O8 0.343430 0.068165 0.414824
O O9 0.895960 0.259582 0.134414
O O10 0.941723 0.261442 0.984458
O O11 0.849315 0.123767 0.244530
O O12 0.250000 0.250000 0.750000
O O13 0.249340 0.000000 0.750000
#
# Coordination Sequence:
#
# PCOD8296621 Si02
#       6
#    16  16  16   8  16  16
#     4  12  26  44  69 105 139 187 235 287 365 429
#     4  11  24  43  67 102 136 184 232 287 355 421
#     4  12  24  43  71 104 140 178 237 295 351 427
#     4  12  24  42  72 100 140 182 234 296 350 420
#     4  11  23  44  69  94 141 182 226 292 353 424
#     4  10  23  44  71  98 136 188 233 288 353 426
#
# _framework density 21.734137
#
# number of rings (size 3 to 8) (size 9 to 14) (size 15 to 20)
#    0.000    0.727    3.636    4.364    2.545    3.636 
#    0.000    9.091    0.000    0.000    0.000    0.000 
#    0.000    0.000    0.000    0.000    0.000    0.000 
#
# Total GULP energy -545660.972463 kJ/mol
# GULP energy per Si atom -12401.385738 kJ/mol
# Density = 2.168467 g / cm^3
# Si number density = 21.734137 Si / 1000 Ang^3
#
#
#
# Elastic Constant Matrix: (Units=GPa)
#
#
# Indices 1 2 3 4 5 6 
#
# 1 90.5206 29.8908 31.2472 0.0000 0.0000 0.0000
# 2 29.8908 124.2894 26.8442 0.0000 0.0000 0.0000
# 3 31.2472 26.8442 108.6329 0.0000 0.0000 0.0000
# 4 0.0000 0.0000 0.0000 15.7869 0.0000 0.0000
# 5 0.0000 0.0000 0.0000 0.0000 29.2403 0.0000
# 6 0.0000 0.0000 0.0000 0.0000 0.0000 29.8935
#
#
#
# Elastic Compliance Matrix: (Units=1/GPa)
#
#
# Indices 1 2 3 4 5 6 
#
# 1 0.012927 -0.002436 -0.003117 0.000000 0.000000 0.000000
# 2 -0.002436 0.008958 -0.001513 0.000000 0.000000 0.000000
# 3 -0.003117 -0.001513 0.010476 0.000000 0.000000 0.000000
# 4 0.000000 0.000000 0.000000 0.063344 0.000000 0.000000
# 5 0.000000 0.000000 0.000000 0.000000 0.034199 0.000000
# 6 0.000000 0.000000 0.000000 0.000000 0.000000 0.033452
#
#
# Mechanical properties :
#
#
# Convention : Reuss Voigt Hill
#
# Bulk Modulus (GPa) = 54.85302 55.48971 55.17136
# Shear Modulus (GPa) = 27.23844 30.68151 28.95997
#
# Velocity S-wave (km/s) = 3.54398 3.76130 3.65425
# Velocity P-wave (km/s) = 6.48377 6.66706 6.57606
#
# Compressibility (1/GPa) = 0.01823054
#
# Stress axis : x y z
#
# Youngs Moduli (GPa) = 77.35536 111.62797 95.45957
#
# Poissons Ratio (x) = 0.27191 0.29750
# Poissons Ratio (y) = 0.18843 0.14443
# Poissons Ratio (z) = 0.24108 0.16890
#
# Static dielectric constant tensor:
#      x y z
#    x 3.977270 0.000000 0.000000 
#    y 0.000000 4.051010 0.000000 
#    z 0.000000 0.000000 4.062090 
# 
# 
# High freq. dielectric constant tensor:
#      x y z
#    x 1.847790 0.000000 0.000000 
#    y 0.000000 1.859630 0.000000 
#    z 0.000000 0.000000 1.867880 
# 
# From -- ./inp_files/19259.got.cif
#   From: 2010.03.12/outbox.cif.g09.slc.cpg/sg73_10_cif.got.tgz:19259.got - 2010.04.16 15:25:48.
