data_PCOD8296147
_publ_section_title
;
Structure prediction by ZEFSAII (Michael W. Deem and Ramdas Pophale) SiO2 
 PCOD8296147
Probable space group: I B C A 
;
_chemical_formula_sum "Si O2"
_cell_formula_units_Z 72
_cell_length_a 5.042560
_cell_length_b 24.960782
_cell_length_c 30.902090
_cell_angle_alpha 90.000000
_cell_angle_beta 90.000000
_cell_angle_gamma 90.000000
_cell_volume 3889.529904
_symmetry_space_group_name_H-M "I B C A "
_symmetry_group_IT_number 73
_symmetry_cell_setting 'orthorhombic'
loop_
_space_group_symop_operation_xyz
x,y,z
-x,1/2-y,z
x,-y,1/2-z
1/2-x,y,-z
-x,-y,-z
x,1/2+y,-z
-x,y,1/2+z
1/2+x,-y,z
1/2+x,1/2+y,1/2+z
1/2-x,-y,1/2+z
1/2+x,1/2-y,-z
-x,1/2+y,1/2-z
1/2-x,1/2-y,1/2-z
1/2+x,y,1/2-z
1/2-x,1/2+y,z
x,1/2-y,1/2+z
loop_
_atom_site_type_symbol
_atom_site_label
_atom_site_fract_x
_atom_site_fract_y
_atom_site_fract_z
Si Si1 0.056505 0.312050 0.128103
Si Si2 0.779603 0.968526 0.050980
Si Si3 0.958948 0.312583 0.726976
Si Si4 0.750000 0.284810 0.000000
Si Si5 0.423502 0.646630 0.918260
O O1 0.128870 0.323338 0.177799
O O2 0.285093 0.335091 0.096922
O O3 0.000000 0.250000 0.118724
O O4 0.782584 0.342296 0.119829
O O5 0.904157 0.915931 0.072099
O O6 0.483343 0.984409 0.065769
O O7 0.750000 0.960164 0.000000
O O8 0.737382 0.338635 0.758516
O O9 0.000000 0.250000 0.735616
O O10 0.500000 0.250000 0.983787
O O11 0.652841 0.320870 0.039221
#
# Coordination Sequence:
#
# PCOD8296147 Si02
#       5
#    16  16  16   8  16
#     4  11  22  34  53  79 115 148 178 218 261 317
#     4  10  21  38  58  77  99 134 185 240 286 314
#     4   9  17  31  50  73 103 142 179 213 258 311
#     4  12  24  36  50  72 108 152 186 208 244 316
#     4  12  22  37  53  78 108 145 185 222 268 316
#
# _framework density 18.511233000000001
#
# number of rings (size 3 to 8) (size 9 to 14) (size 15 to 20)
#    0.000    1.333    1.111    6.667    0.000    3.556 
#    0.000    0.000    0.000    0.000    0.000    0.000 
#    0.000   62.222    0.000    0.000    0.000    0.000 
#
# Total GULP energy -446220.632133 kJ/mol
# GULP energy per Si atom -12395.017559 kJ/mol
# Density = 1.846910 g / cm^3
# Si number density = 18.511233 Si / 1000 Ang^3
#
#
#
# Elastic Constant Matrix: (Units=GPa)
#
#
# Indices 1 2 3 4 5 6 
#
# 1 91.2588 25.8456 31.2858 0.0000 0.0000 0.0000
# 2 25.8456 85.0265 30.0513 0.0000 0.0000 0.0000
# 3 31.2858 30.0513 71.3154 0.0000 0.0000 0.0000
# 4 0.0000 0.0000 0.0000 38.6853 0.0000 0.0000
# 5 0.0000 0.0000 0.0000 0.0000 41.3391 0.0000
# 6 0.0000 0.0000 0.0000 0.0000 0.0000 16.8194
#
#
#
# Elastic Compliance Matrix: (Units=1/GPa)
#
#
# Indices 1 2 3 4 5 6 
#
# 1 0.013277 -0.002323 -0.004846 0.000000 0.000000 0.000000
# 2 -0.002323 0.014226 -0.004975 0.000000 0.000000 0.000000
# 3 -0.004846 -0.004975 0.018244 0.000000 0.000000 0.000000
# 4 0.000000 0.000000 0.000000 0.025850 0.000000 0.000000
# 5 0.000000 0.000000 0.000000 0.000000 0.024190 0.000000
# 6 0.000000 0.000000 0.000000 0.000000 0.000000 0.059455
#
#
# Mechanical properties :
#
#
# Convention : Reuss Voigt Hill
#
# Bulk Modulus (GPa) = 46.60069 46.88512 46.74291
# Shear Modulus (GPa) = 26.78331 30.06329 28.42330
#
# Velocity S-wave (km/s) = 3.80790 4.03433 3.92275
# Velocity P-wave (km/s) = 6.67551 6.86178 6.76928
#
# Compressibility (1/GPa) = 0.02145891
#
# Stress axis : x y z
#
# Youngs Moduli (GPa) = 75.31824 70.29543 54.81110
#
# Poissons Ratio (x) = 0.16331 0.26559
# Poissons Ratio (y) = 0.17498 0.27270
# Poissons Ratio (z) = 0.36496 0.34974
#
# Static dielectric constant tensor:
#      x y z
#    x 4.003730 0.000000 0.000000 
#    y 0.000000 3.192160 0.000000 
#    z 0.000000 0.000000 3.273740 
# 
# 
# High freq. dielectric constant tensor:
#      x y z
#    x 1.746790 0.000000 0.000000 
#    y 0.000000 1.678210 0.000000 
#    z 0.000000 0.000000 1.708040 
# 
# From -- ./inp_files/2543.got.cif
#   From: 2010.03.12/outbox.cif.g09.slc.cpg/sg73_2_cif.got.tgz:2543.got - 2010.04.16 15:25:48.
