data_PCOD8296629
_publ_section_title
;
Structure prediction by ZEFSAII (Michael W. Deem and Ramdas Pophale) SiO2 
 PCOD8296629
Probable space group: I B C A 
;
_chemical_formula_sum "Si O2"
_cell_formula_units_Z 72
_cell_length_a 24.105359
_cell_length_b 10.819099
_cell_length_c 12.828339
_cell_angle_alpha 90.000000
_cell_angle_beta 90.000000
_cell_angle_gamma 90.000000
_cell_volume 3345.608560
_symmetry_space_group_name_H-M "I B C A "
_symmetry_group_IT_number 73
_symmetry_cell_setting 'orthorhombic'
loop_
_space_group_symop_operation_xyz
x,y,z
-x,1/2-y,z
x,-y,1/2-z
1/2-x,y,-z
-x,-y,-z
x,1/2+y,-z
-x,y,1/2+z
1/2+x,-y,z
1/2+x,1/2+y,1/2+z
1/2-x,-y,1/2+z
1/2+x,1/2-y,-z
-x,1/2+y,1/2-z
1/2-x,1/2-y,1/2-z
1/2+x,y,1/2-z
1/2-x,1/2+y,z
x,1/2-y,1/2+z
loop_
_atom_site_type_symbol
_atom_site_label
_atom_site_fract_x
_atom_site_fract_y
_atom_site_fract_z
Si Si1 0.102309 0.469583 0.900427
Si Si2 0.559880 0.191384 0.287305
Si Si3 0.288619 0.614276 0.095372
Si Si4 0.141557 0.146978 0.603619
Si Si5 0.215857 0.000000 0.750000
O O1 0.063222 0.591595 0.883231
O O2 0.081606 0.368614 0.818785
O O3 0.165985 0.507875 0.883310
O O4 0.100857 0.408551 0.014643
O O5 0.500000 0.250000 0.272934
O O6 0.600951 0.304121 0.307394
O O7 0.317329 0.743916 0.065755
O O8 0.252629 0.613016 0.202519
O O9 0.250000 0.573418 0.000000
O O10 0.178852 0.041283 0.652938
#
# Coordination Sequence:
#
# PCOD8296629 Si02
#       5
#    16  16  16  16   8
#     4  10  23  46  65  99 143 169 234 287 334 425
#     4  10  24  45  70  95 131 182 223 294 357 397
#     4  11  23  40  65  97 140 188 222 274 351 404
#     4  11  25  39  67  98 135 178 235 286 335 416
#     4  12  24  40  62 100 136 184 236 280 332 418
#
# _framework density 21.520748999999999
#
# number of rings (size 3 to 8) (size 9 to 14) (size 15 to 20)
#    0.000    1.333    2.222    3.333    6.222    3.556 
#    0.000    0.000    0.000    0.000    0.000    0.000 
#    0.000    0.000    0.000    0.000    0.000    0.000 
#
# Total GULP energy -446151.325948 kJ/mol
# GULP energy per Si atom -12393.092387 kJ/mol
# Density = 2.147177 g / cm^3
# Si number density = 21.520749 Si / 1000 Ang^3
#
#
#
# Elastic Constant Matrix: (Units=GPa)
#
#
# Indices 1 2 3 4 5 6 
#
# 1 134.8446 56.9079 55.0695 0.0000 0.0000 0.0000
# 2 56.9079 89.7022 48.3390 0.0000 0.0000 0.0000
# 3 55.0695 48.3390 100.3128 0.0000 0.0000 0.0000
# 4 0.0000 0.0000 0.0000 38.1632 0.0000 0.0000
# 5 0.0000 0.0000 0.0000 0.0000 49.2647 0.0000
# 6 0.0000 0.0000 0.0000 0.0000 0.0000 24.7872
#
#
#
# Elastic Compliance Matrix: (Units=1/GPa)
#
#
# Indices 1 2 3 4 5 6 
#
# 1 0.011023 -0.005041 -0.003622 0.000000 0.000000 0.000000
# 2 -0.005041 0.017364 -0.005600 0.000000 0.000000 0.000000
# 3 -0.003622 -0.005600 0.014656 0.000000 0.000000 0.000000
# 4 0.000000 0.000000 0.000000 0.026203 0.000000 0.000000
# 5 0.000000 0.000000 0.000000 0.000000 0.020299 0.000000
# 6 0.000000 0.000000 0.000000 0.000000 0.000000 0.040343
#
#
# Mechanical properties :
#
#
# Convention : Reuss Voigt Hill
#
# Bulk Modulus (GPa) = 68.88819 71.72138 70.30478
# Shear Modulus (GPa) = 30.62758 33.41257 32.02008
#
# Velocity S-wave (km/s) = 3.77658 3.94455 3.86148
# Velocity P-wave (km/s) = 7.14817 7.35832 7.25401
#
# Compressibility (1/GPa) = 0.01451628
#
# Stress axis : x y z
#
# Youngs Moduli (GPa) = 90.72301 57.59132 68.23294
#
# Poissons Ratio (x) = 0.29032 0.24714
# Poissons Ratio (y) = 0.45733 0.38210
# Poissons Ratio (z) = 0.32860 0.32250
#
# Static dielectric constant tensor:
#      x y z
#    x 3.961750 0.000000 0.000000 
#    y 0.000000 3.905900 0.000000 
#    z 0.000000 0.000000 3.923020 
# 
# 
# High freq. dielectric constant tensor:
#      x y z
#    x 1.843140 0.000000 0.000000 
#    y 0.000000 1.843650 0.000000 
#    z 0.000000 0.000000 1.840660 
# 
# From -- ./inp_files/9700.got.cif
#   From: 2010.03.12/outbox.cif.g09.slc.cpg/sg73_5_cif.got.tgz:9700.got - 2010.04.16 15:25:48.
