data_PCOD8296126
_publ_section_title
;
Structure prediction by ZEFSAII (Michael W. Deem and Ramdas Pophale) SiO2 
 PCOD8296126
Probable space group: I B C A 
;
_chemical_formula_sum "Si O2"
_cell_formula_units_Z 64
_cell_length_a 29.375672
_cell_length_b 17.908127
_cell_length_c 5.242987
_cell_angle_alpha 90.000000
_cell_angle_beta 90.000000
_cell_angle_gamma 90.000000
_cell_volume 2758.142859
_symmetry_space_group_name_H-M "I B C A "
_symmetry_group_IT_number 73
_symmetry_cell_setting 'orthorhombic'
loop_
_space_group_symop_operation_xyz
x,y,z
-x,1/2-y,z
x,-y,1/2-z
1/2-x,y,-z
-x,-y,-z
x,1/2+y,-z
-x,y,1/2+z
1/2+x,-y,z
1/2+x,1/2+y,1/2+z
1/2-x,-y,1/2+z
1/2+x,1/2-y,-z
-x,1/2+y,1/2-z
1/2-x,1/2-y,1/2-z
1/2+x,y,1/2-z
1/2-x,1/2+y,z
x,1/2-y,1/2+z
loop_
_atom_site_type_symbol
_atom_site_label
_atom_site_fract_x
_atom_site_fract_y
_atom_site_fract_z
Si Si1 0.570988 0.777632 0.100320
Si Si2 0.671986 0.215522 0.964650
Si Si3 0.803631 0.546001 0.999129
Si Si4 0.528232 0.083262 0.234906
O O1 0.545565 0.730018 0.325628
O O2 0.570737 0.863026 0.198822
O O3 0.620639 0.746368 0.031365
O O4 0.696731 0.254557 0.208221
O O5 0.672007 0.126293 0.990181
O O6 0.818810 0.500000 0.750000
O O7 0.818659 0.500000 0.250000
O O8 0.750000 0.560813 0.000000
O O9 0.489425 0.097453 0.448448
O O10 0.547871 0.000000 0.250000
#
# Coordination Sequence:
#
# PCOD8296126 Si02
#       4
#    16  16  16  16
#     4  10  21  37  55  82 115 149 190 233 287 346
#     4  10  21  38  58  86 121 156 198 243 296 357
#     4  10  21  38  61  89 121 157 197 243 295 353
#     4  10  21  37  58  83 111 147 191 239 290 343
#
# _framework density 23.20402
#
# number of rings (size 3 to 8) (size 9 to 14) (size 15 to 20)
#    0.000    2.000    0.000    3.000    0.000    4.000 
#    0.000   15.000    0.000    0.000    0.000    0.000 
#    0.000    0.000    0.000    0.000    0.000    0.000 
#
# Total GULP energy -396457.638138 kJ/mol
# GULP energy per Si atom -12389.301192 kJ/mol
# Density = 2.315121 g / cm^3
# Si number density = 23.204020 Si / 1000 Ang^3
#
#
#
# Elastic Constant Matrix: (Units=GPa)
#
#
# Indices 1 2 3 4 5 6 
#
# 1 42.3917 45.8851 6.6161 0.0000 0.0000 0.0000
# 2 45.8851 195.8120 82.6876 0.0000 0.0000 0.0000
# 3 6.6161 82.6876 237.5761 -0.0002 -0.0001 0.0001
# 4 0.0000 0.0000 -0.0002 47.5768 0.0000 0.0000
# 5 0.0000 0.0000 -0.0001 0.0000 10.2017 0.0000
# 6 0.0000 0.0000 0.0001 0.0000 0.0000 35.9762
#
#
#
# Elastic Compliance Matrix: (Units=1/GPa)
#
#
# Indices 1 2 3 4 5 6 
#
# 1 0.032430 -0.008462 0.002042 0.000000 0.000000 0.000000
# 2 -0.008462 0.008195 -0.002616 0.000000 0.000000 0.000000
# 3 0.002042 -0.002616 0.005063 0.000000 0.000000 0.000000
# 4 0.000000 0.000000 0.000000 0.021019 0.000000 0.000000
# 5 0.000000 0.000000 0.000000 0.000000 0.098022 0.000000
# 6 0.000000 0.000000 0.000000 0.000000 0.000000 0.027796
#
#
# Mechanical properties :
#
#
# Convention : Reuss Voigt Hill
#
# Bulk Modulus (GPa) = 36.21216 82.90638 59.55927
# Shear Modulus (GPa) = 22.74776 41.45703 32.10240
#
# Velocity S-wave (km/s) = 3.13443 4.23144 3.72356
# Velocity P-wave (km/s) = 5.36091 7.72531 6.64905
#
# Compressibility (1/GPa) = 0.02761504
#
# Stress axis : x y z
#
# Youngs Moduli (GPa) = 30.83590 122.03081 197.51250
#
# Poissons Ratio (x) = 1.03258 -0.40330
# Poissons Ratio (y) = 0.26092 0.51679
# Poissons Ratio (z) = -0.06296 0.31929
#
# Static dielectric constant tensor:
#      x y z
#    x 3.586280 0.000000 0.000000 
#    y 0.000000 4.295460 0.000000 
#    z 0.000000 0.000000 6.569960 
# 
# 
# High freq. dielectric constant tensor:
#      x y z
#    x 1.864230 0.000000 0.000000 
#    y 0.000000 1.928010 0.000000 
#    z 0.000000 0.000000 1.964450 
# 
# From -- ./inp_files/2919.got.cif
#   From: 2010.03.12/outbox.cif.g09.slc.cpg/sg73_2_cif.got.tgz:2919.got - 2010.04.16 15:25:48.
