data_PCOD8296598
_publ_section_title
;
Structure prediction by ZEFSAII (Michael W. Deem and Ramdas Pophale) SiO2 
 PCOD8296598
Probable space group: I B C A 
;
_chemical_formula_sum "Si O2"
_cell_formula_units_Z 88
_cell_length_a 5.082039
_cell_length_b 28.120390
_cell_length_c 26.402056
_cell_angle_alpha 90.000000
_cell_angle_beta 90.000000
_cell_angle_gamma 90.000000
_cell_volume 3773.089274
_symmetry_space_group_name_H-M "I B C A "
_symmetry_group_IT_number 73
_symmetry_cell_setting 'orthorhombic'
loop_
_space_group_symop_operation_xyz
x,y,z
-x,1/2-y,z
x,-y,1/2-z
1/2-x,y,-z
-x,-y,-z
x,1/2+y,-z
-x,y,1/2+z
1/2+x,-y,z
1/2+x,1/2+y,1/2+z
1/2-x,-y,1/2+z
1/2+x,1/2-y,-z
-x,1/2+y,1/2-z
1/2-x,1/2-y,1/2-z
1/2+x,y,1/2-z
1/2-x,1/2+y,z
x,1/2-y,1/2+z
loop_
_atom_site_type_symbol
_atom_site_label
_atom_site_fract_x
_atom_site_fract_y
_atom_site_fract_z
Si Si1 0.175822 0.798547 0.282120
Si Si2 0.996934 0.894349 0.965586
Si Si3 0.372073 0.031118 0.880827
Si Si4 0.323708 0.590243 0.218673
Si Si5 0.830443 0.704003 0.941697
Si Si6 0.500000 0.750000 0.365440
O O1 0.375552 0.785465 0.235221
O O2 0.178750 0.854103 0.293761
O O3 0.259869 0.771121 0.332679
O O4 0.932577 0.938645 0.930477
O O5 0.035327 0.846878 0.931762
O O6 0.750000 0.882860 0.000000
O O7 0.250000 0.906432 0.000000
O O8 0.408110 0.062734 0.831275
O O9 0.573497 0.987250 0.881289
O O10 0.534997 0.576011 0.261746
O O11 0.590148 0.706695 0.902049
O O12 0.000000 0.750000 0.928296
O O13 0.750000 0.706491 0.000000
#
# Coordination Sequence:
#
# PCOD8296598 Si02
#       6
#    16  16  16  16  16   8
#     4  10  24  44  65  98 138 182 237 281 336 419
#     4  11  27  48  74 100 143 190 229 289 351 412
#     4  12  27  45  73 109 139 176 239 292 349 430
#     4  10  23  43  68  97 138 183 226 285 350 412
#     4  11  25  43  67 101 142 183 240 287 342 424
#     4  12  26  38  70 100 140 194 228 300 350 396
#
# _framework density 23.323063000000001
#
# number of rings (size 3 to 8) (size 9 to 14) (size 15 to 20)
#    0.000    1.091    0.909    3.273    7.636    8.727 
#    0.000    0.000    0.000    0.000    0.000    0.000 
#    0.000    0.000    0.000    0.000    0.000    0.000 
#
# Total GULP energy -545745.534384 kJ/mol
# GULP energy per Si atom -12403.307600 kJ/mol
# Density = 2.326998 g / cm^3
# Si number density = 23.323063 Si / 1000 Ang^3
#
#
#
# Elastic Constant Matrix: (Units=GPa)
#
#
# Indices 1 2 3 4 5 6 
#
# 1 116.1440 38.9641 37.4703 0.0000 0.0000 0.0000
# 2 38.9641 114.0881 59.1280 0.0000 0.0000 0.0000
# 3 37.4703 59.1280 129.0499 0.0000 0.0000 0.0000
# 4 0.0000 0.0000 0.0000 -11.2128 0.0000 0.0000
# 5 0.0000 0.0000 0.0000 0.0000 39.5410 0.0000
# 6 0.0000 0.0000 0.0000 0.0000 0.0000 46.8070
#
#
#
# Elastic Compliance Matrix: (Units=1/GPa)
#
#
# Indices 1 2 3 4 5 6 
#
# 1 0.010020 -0.002510 -0.001759 0.000000 0.000000 0.000000
# 2 -0.002510 0.012124 -0.004826 0.000000 0.000000 0.000000
# 3 -0.001759 -0.004826 0.010471 0.000000 0.000000 0.000000
# 4 0.000000 0.000000 0.000000 -0.089184 0.000000 0.000000
# 5 0.000000 0.000000 0.000000 0.000000 0.025290 0.000000
# 6 0.000000 0.000000 0.000000 0.000000 0.000000 0.021364
#
#
# Mechanical properties :
#
#
# Convention : Reuss Voigt Hill
#
# Bulk Modulus (GPa) = 69.33128 70.04518 69.68823
# Shear Modulus (GPa) = 382.17526 29.94170 206.05848
#
# Velocity S-wave (km/s) = 12.81473 3.58688 9.40965
# Velocity P-wave (km/s) = 15.77173 6.87401 12.16551
#
# Compressibility (1/GPa) = 0.01442351
#
# Stress axis : x y z
#
# Youngs Moduli (GPa) = 99.80357 82.48383 95.50345
#
# Poissons Ratio (x) = 0.20706 0.16800
# Poissons Ratio (y) = 0.25054 0.46089
# Poissons Ratio (z) = 0.17556 0.39806
#
# Static dielectric constant tensor:
#      x y z
#    x 4.437330 0.000000 0.000000 
#    y 0.000000 4.425890 0.000000 
#    z 0.000000 0.000000 4.093190 
# 
# 
# High freq. dielectric constant tensor:
#      x y z
#    x 1.937190 0.000000 0.000000 
#    y 0.000000 1.935980 0.000000 
#    z 0.000000 0.000000 1.929980 
# 
# From -- ./inp_files/28072.got.cif
#   From: 2010.03.12/outbox.cif.g09.slc.cpg/sg73_15_cif.got.tgz:28072.got - 2010.04.16 15:25:48.
