data_PCOD8296529
_publ_section_title
;
Structure prediction by ZEFSAII (Michael W. Deem and Ramdas Pophale) SiO2 
 PCOD8296529
Probable space group: I B C A 
;
_chemical_formula_sum "Si O2"
_cell_formula_units_Z 72
_cell_length_a 19.923447
_cell_length_b 9.998427
_cell_length_c 17.018878
_cell_angle_alpha 90.000000
_cell_angle_beta 90.000000
_cell_angle_gamma 90.000000
_cell_volume 3390.213774
_symmetry_space_group_name_H-M "I B C A "
_symmetry_group_IT_number 73
_symmetry_cell_setting 'orthorhombic'
loop_
_space_group_symop_operation_xyz
x,y,z
-x,1/2-y,z
x,-y,1/2-z
1/2-x,y,-z
-x,-y,-z
x,1/2+y,-z
-x,y,1/2+z
1/2+x,-y,z
1/2+x,1/2+y,1/2+z
1/2-x,-y,1/2+z
1/2+x,1/2-y,-z
-x,1/2+y,1/2-z
1/2-x,1/2-y,1/2-z
1/2+x,y,1/2-z
1/2-x,1/2+y,z
x,1/2-y,1/2+z
loop_
_atom_site_type_symbol
_atom_site_label
_atom_site_fract_x
_atom_site_fract_y
_atom_site_fract_z
Si Si1 0.073741 0.562231 0.006560
Si Si2 0.405241 0.556956 0.663380
Si Si3 0.774530 0.263166 0.662242
Si Si4 0.000000 0.250000 0.587998
Si Si5 0.796291 0.489456 0.425927
O O1 0.126368 0.482247 0.952508
O O2 0.063226 0.709421 0.968731
O O3 0.100385 0.560884 0.097119
O O4 0.000000 0.500000 0.000000
O O5 0.409429 0.500000 0.750000
O O6 0.343864 0.657810 0.656529
O O7 0.474572 0.633109 0.645022
O O8 0.750000 0.250000 0.750000
O O9 0.719191 0.346878 0.613858
O O10 0.782975 0.112846 0.632104
O O11 0.750000 0.515312 0.500000
#
# Coordination Sequence:
#
# PCOD8296529 Si02
#       5
#    16  16  16   8  16
#     4  10  23  44  71  97 137 179 237 281 345 420
#     4  11  23  44  64 101 140 177 229 290 345 414
#     4  12  26  45  69 101 144 180 232 290 354 411
#     4  10  22  46  70  96 134 184 236 284 348 426
#     4  12  24  44  73 101 135 187 231 286 346 415
#
# _framework density 21.237597999999998
#
# number of rings (size 3 to 8) (size 9 to 14) (size 15 to 20)
#    0.000    0.889    4.444    2.667    0.000    0.889 
#    8.000    0.000    0.000    0.000    0.000    0.000 
#    0.000    0.000    0.000    0.000    0.000    0.000 
#
# Total GULP energy -446193.362643 kJ/mol
# GULP energy per Si atom -12394.260073 kJ/mol
# Density = 2.118926 g / cm^3
# Si number density = 21.237598 Si / 1000 Ang^3
#
#
#
# Elastic Constant Matrix: (Units=GPa)
#
#
# Indices 1 2 3 4 5 6 
#
# 1 107.7760 17.3485 31.8307 0.0000 0.0000 0.0000
# 2 17.3485 56.0577 18.0762 0.0000 0.0000 0.0000
# 3 31.8307 18.0762 124.5885 0.0000 0.0000 0.0000
# 4 0.0000 0.0000 0.0000 48.6526 0.0000 0.0000
# 5 0.0000 0.0000 0.0000 0.0000 39.2456 0.0000
# 6 0.0000 0.0000 0.0000 0.0000 0.0000 35.0849
#
#
#
# Elastic Compliance Matrix: (Units=1/GPa)
#
#
# Indices 1 2 3 4 5 6 
#
# 1 0.010351 -0.002466 -0.002287 0.000000 0.000000 0.000000
# 2 -0.002466 0.019302 -0.002170 0.000000 0.000000 0.000000
# 3 -0.002287 -0.002170 0.008926 0.000000 0.000000 0.000000
# 4 0.000000 0.000000 0.000000 0.020554 0.000000 0.000000
# 5 0.000000 0.000000 0.000000 0.000000 0.025481 0.000000
# 6 0.000000 0.000000 0.000000 0.000000 0.000000 0.028502
#
#
# Mechanical properties :
#
#
# Convention : Reuss Voigt Hill
#
# Bulk Modulus (GPa) = 40.43353 46.99256 43.71304
# Shear Modulus (GPa) = 36.98087 39.34108 38.16097
#
# Velocity S-wave (km/s) = 4.17741 4.30865 4.24354
# Velocity P-wave (km/s) = 6.50751 6.85038 6.68114
#
# Compressibility (1/GPa) = 0.02473195
#
# Stress axis : x y z
#
# Youngs Moduli (GPa) = 96.61090 51.80867 112.03791
#
# Poissons Ratio (x) = 0.12776 0.25620
# Poissons Ratio (y) = 0.23824 0.24317
# Poissons Ratio (z) = 0.22092 0.11245
#
# Static dielectric constant tensor:
#      x y z
#    x 4.079700 0.000000 0.000000 
#    y 0.000000 4.087540 0.000000 
#    z 0.000000 0.000000 3.958160 
# 
# 
# High freq. dielectric constant tensor:
#      x y z
#    x 1.847300 0.000000 0.000000 
#    y 0.000000 1.830060 0.000000 
#    z 0.000000 0.000000 1.842450 
# 
# From -- ./inp_files/6000.got.cif
#   From: 2010.03.12/outbox.cif.g09.slc.cpg/sg73_3_cif.got.tgz:6000.got - 2010.04.16 15:25:48.
