data_PCOD8296933
_publ_section_title
;
Structure prediction by ZEFSAII (Michael W. Deem and Ramdas Pophale) SiO2 
 PCOD8296933
Probable space group: I B C A 
;
_chemical_formula_sum "Si O2"
_cell_formula_units_Z 80
_cell_length_a 8.743170
_cell_length_b 23.573131
_cell_length_c 16.221222
_cell_angle_alpha 90.000000
_cell_angle_beta 90.000000
_cell_angle_gamma 90.000000
_cell_volume 3343.256983
_symmetry_space_group_name_H-M "I B C A "
_symmetry_group_IT_number 73
_symmetry_cell_setting 'orthorhombic'
loop_
_space_group_symop_operation_xyz
x,y,z
-x,1/2-y,z
x,-y,1/2-z
1/2-x,y,-z
-x,-y,-z
x,1/2+y,-z
-x,y,1/2+z
1/2+x,-y,z
1/2+x,1/2+y,1/2+z
1/2-x,-y,1/2+z
1/2+x,1/2-y,-z
-x,1/2+y,1/2-z
1/2-x,1/2-y,1/2-z
1/2+x,y,1/2-z
1/2-x,1/2+y,z
x,1/2-y,1/2+z
loop_
_atom_site_type_symbol
_atom_site_label
_atom_site_fract_x
_atom_site_fract_y
_atom_site_fract_z
Si Si1 0.912611 0.466436 0.928749
Si Si2 0.810729 0.652622 0.200051
Si Si3 0.647284 0.653087 0.366785
Si Si4 0.310828 0.970921 0.833500
Si Si5 0.180439 0.760923 0.919673
O O1 0.876915 0.398608 0.933318
O O2 0.752076 0.496898 0.914212
O O3 0.006467 0.474044 0.843216
O O4 0.000000 0.500000 0.000000
O O5 0.780035 0.644239 0.297658
O O6 0.756352 0.593810 0.159286
O O7 0.705983 0.702363 0.162685
O O8 0.988727 0.666073 0.181494
O O9 0.709982 0.705644 0.418804
O O10 0.257485 0.000000 0.750000
O O11 0.000000 0.750000 0.928208
O O12 0.250000 0.793931 0.000000
#
# Coordination Sequence:
#
# PCOD8296933 Si02
#       5
#    16  16  16  16  16
#     4  11  25  42  68 106 146 189 248 314 382 456
#     4  11  24  43  72 100 139 192 253 307 381 461
#     4  11  24  45  70 105 145 198 252 319 386 470
#     4  11  23  42  68  98 140 188 242 303 375 456
#     4  12  27  47  72 105 148 195 252 322 397 468
#
# _framework density 23.928761999999999
#
# number of rings (size 3 to 8) (size 9 to 14) (size 15 to 20)
#    0.000    0.800    2.000    4.800    2.800    8.000 
#    0.000    0.000    0.000    0.000    0.000    0.000 
#    0.000    0.000    0.000    0.000    0.000    0.000 
#
# Total GULP energy -495556.067603 kJ/mol
# GULP energy per Si atom -12388.901690 kJ/mol
# Density = 2.387430 g / cm^3
# Si number density = 23.928762 Si / 1000 Ang^3
#
#
#
# Elastic Constant Matrix: (Units=GPa)
#
#
# Indices 1 2 3 4 5 6 
#
# 1 128.1606 40.9360 28.6908 0.0000 0.0000 0.0000
# 2 40.9360 138.2532 35.9556 0.0000 0.0000 0.0000
# 3 28.6908 35.9556 78.8398 0.0000 -0.0001 -0.0001
# 4 0.0000 0.0000 0.0000 42.0172 0.0000 0.0000
# 5 0.0000 0.0000 -0.0001 0.0000 47.7764 0.0000
# 6 0.0000 0.0000 -0.0001 0.0000 0.0000 30.6913
#
#
#
# Elastic Compliance Matrix: (Units=1/GPa)
#
#
# Indices 1 2 3 4 5 6 
#
# 1 0.008980 -0.002053 -0.002332 0.000000 0.000000 0.000000
# 2 -0.002053 0.008676 -0.003210 0.000000 0.000000 0.000000
# 3 -0.002332 -0.003210 0.014996 0.000000 0.000000 0.000000
# 4 0.000000 0.000000 0.000000 0.023800 0.000000 0.000000
# 5 0.000000 0.000000 0.000000 0.000000 0.020931 0.000000
# 6 0.000000 0.000000 0.000000 0.000000 0.000000 0.032583
#
#
# Mechanical properties :
#
#
# Convention : Reuss Voigt Hill
#
# Bulk Modulus (GPa) = 57.26068 61.82427 59.54247
# Shear Modulus (GPa) = 38.17517 40.07504 39.12511
#
# Velocity S-wave (km/s) = 3.99854 4.09683 4.04798
# Velocity P-wave (km/s) = 6.73048 6.94777 6.83999
#
# Compressibility (1/GPa) = 0.01746399
#
# Stress axis : x y z
#
# Youngs Moduli (GPa) = 111.35396 115.26593 66.68277
#
# Poissons Ratio (x) = 0.23659 0.15550
# Poissons Ratio (y) = 0.22856 0.21403
# Poissons Ratio (z) = 0.25968 0.36996
#
# Static dielectric constant tensor:
#      x y z
#    x 4.406530 0.000000 0.000000 
#    y 0.000000 4.358810 0.000000 
#    z 0.000000 0.000000 4.537100 
# 
# 
# High freq. dielectric constant tensor:
#      x y z
#    x 1.964540 0.000000 0.000000 
#    y 0.000000 1.948560 0.000000 
#    z 0.000000 0.000000 1.948730 
# 
# From -- ./inp_files/20742.got.cif
#   From: 2010.03.12/outbox.cif.g09.slc.cpg/sg73_11_cif.got.tgz:20742.got - 2010.04.16 15:25:48.
