data_PCOD8296782
_publ_section_title
;
Structure prediction by ZEFSAII (Michael W. Deem and Ramdas Pophale) SiO2 
 PCOD8296782
Probable space group: I B C A 
;
_chemical_formula_sum "Si O2"
_cell_formula_units_Z 64
_cell_length_a 26.871344
_cell_length_b 9.121372
_cell_length_c 10.486494
_cell_angle_alpha 90.000000
_cell_angle_beta 90.000000
_cell_angle_gamma 90.000000
_cell_volume 2570.276642
_symmetry_space_group_name_H-M "I B C A "
_symmetry_group_IT_number 73
_symmetry_cell_setting 'orthorhombic'
loop_
_space_group_symop_operation_xyz
x,y,z
-x,1/2-y,z
x,-y,1/2-z
1/2-x,y,-z
-x,-y,-z
x,1/2+y,-z
-x,y,1/2+z
1/2+x,-y,z
1/2+x,1/2+y,1/2+z
1/2-x,-y,1/2+z
1/2+x,1/2-y,-z
-x,1/2+y,1/2-z
1/2-x,1/2-y,1/2-z
1/2+x,y,1/2-z
1/2-x,1/2+y,z
x,1/2-y,1/2+z
loop_
_atom_site_type_symbol
_atom_site_label
_atom_site_fract_x
_atom_site_fract_y
_atom_site_fract_z
Si Si1 0.595859 0.375783 0.998979
Si Si2 0.500000 0.250000 0.384228
Si Si3 0.056838 0.500000 0.250000
Si Si4 0.250000 0.948353 0.500000
Si Si5 0.134370 0.500000 0.750000
Si Si6 0.314190 0.791622 0.901587
O O1 0.543447 0.297108 0.979876
O O2 0.602020 0.485335 0.878498
O O3 0.593509 0.460736 0.133171
O O4 0.641745 0.262225 0.005589
O O5 0.520045 0.371720 0.289221
O O6 0.227922 0.835716 0.608495
O O7 0.294502 0.050721 0.546579
O O8 0.165395 0.654256 0.736166
#
# Coordination Sequence:
#
# PCOD8296782 Si02
#       6
#    16   8   8   8   8  16
#     4  12  26  50  79 117 160 209 265 326 395 471
#     4  12  26  46  82 120 156 210 268 326 394 474
#     4  12  27  50  79 114 162 214 261 326 393 476
#     4  10  24  50  80 110 158 208 256 322 402 470
#     4  12  25  46  79 118 160 208 261 328 387 474
#     4  11  24  49  76 115 160 203 257 323 396 467
#
# _framework density 24.900041999999999
#
# number of rings (size 3 to 8) (size 9 to 14) (size 15 to 20)
#    0.000    0.500    2.500    5.250    0.000    1.000 
#    0.000    0.000    0.000    0.000    0.000    0.000 
#    0.000    0.000    0.000    0.000    0.000    0.000 
#
# Total GULP energy -396597.878341 kJ/mol
# GULP energy per Si atom -12393.683698 kJ/mol
# Density = 2.484337 g / cm^3
# Si number density = 24.900042 Si / 1000 Ang^3
#
#
#
# Elastic Constant Matrix: (Units=GPa)
#
#
# Indices 1 2 3 4 5 6 
#
# 1 145.5272 69.0104 61.9619 0.0000 0.0000 0.0000
# 2 69.0104 160.1689 70.6579 0.0000 0.0000 0.0000
# 3 61.9619 70.6579 163.7146 0.0000 0.0000 0.0000
# 4 0.0000 0.0000 0.0000 40.0452 0.0000 0.0000
# 5 0.0000 0.0000 0.0000 0.0000 18.4383 0.0000
# 6 0.0000 0.0000 0.0000 0.0000 0.0000 40.1858
#
#
#
# Elastic Compliance Matrix: (Units=1/GPa)
#
#
# Indices 1 2 3 4 5 6 
#
# 1 0.009234 -0.003010 -0.002196 0.000000 0.000000 0.000000
# 2 -0.003010 0.008693 -0.002613 0.000000 0.000000 0.000000
# 3 -0.002196 -0.002613 0.008067 0.000000 0.000000 0.000000
# 4 0.000000 0.000000 0.000000 0.024972 0.000000 0.000000
# 5 0.000000 0.000000 0.000000 0.000000 0.054235 0.000000
# 6 0.000000 0.000000 0.000000 0.000000 0.000000 0.024884
#
#
# Mechanical properties :
#
#
# Convention : Reuss Voigt Hill
#
# Bulk Modulus (GPa) = 96.55276 96.96343 96.75809
# Shear Modulus (GPa) = 33.51813 37.58588 35.55200
#
# Velocity S-wave (km/s) = 3.67291 3.88941 3.78271
# Velocity P-wave (km/s) = 7.53972 7.69387 7.61718
#
# Compressibility (1/GPa) = 0.01035703
#
# Stress axis : x y z
#
# Youngs Moduli (GPa) = 108.29848 115.03838 123.96508
#
# Poissons Ratio (x) = 0.34624 0.27219
# Poissons Ratio (y) = 0.32596 0.32387
# Poissons Ratio (z) = 0.23779 0.30055
#
# Static dielectric constant tensor:
#      x y z
#    x 4.704940 0.000000 0.000000 
#    y 0.000000 4.725270 0.000000 
#    z 0.000000 0.000000 4.246040 
# 
# 
# High freq. dielectric constant tensor:
#      x y z
#    x 2.007030 0.000000 0.000000 
#    y 0.000000 2.006590 0.000000 
#    z 0.000000 0.000000 1.975500 
# 
# From -- ./inp_files/4057.got.cif
#   From: 2010.03.12/outbox.cif.g09.slc.cpg/sg73_3_cif.got.tgz:4057.got - 2010.04.16 15:25:48.
