data_PCOD8296233
_publ_section_title
;
Structure prediction by ZEFSAII (Michael W. Deem and Ramdas Pophale) SiO2 
 PCOD8296233
Probable space group: I B C A 
;
_chemical_formula_sum "Si O2"
_cell_formula_units_Z 88
_cell_length_a 12.911843
_cell_length_b 19.876468
_cell_length_c 17.244326
_cell_angle_alpha 90.000000
_cell_angle_beta 90.000000
_cell_angle_gamma 90.000000
_cell_volume 4425.615454
_symmetry_space_group_name_H-M "I B C A "
_symmetry_group_IT_number 73
_symmetry_cell_setting 'orthorhombic'
loop_
_space_group_symop_operation_xyz
x,y,z
-x,1/2-y,z
x,-y,1/2-z
1/2-x,y,-z
-x,-y,-z
x,1/2+y,-z
-x,y,1/2+z
1/2+x,-y,z
1/2+x,1/2+y,1/2+z
1/2-x,-y,1/2+z
1/2+x,1/2-y,-z
-x,1/2+y,1/2-z
1/2-x,1/2-y,1/2-z
1/2+x,y,1/2-z
1/2-x,1/2+y,z
x,1/2-y,1/2+z
loop_
_atom_site_type_symbol
_atom_site_label
_atom_site_fract_x
_atom_site_fract_y
_atom_site_fract_z
Si Si1 0.410203 0.625026 0.798225
Si Si2 0.604005 0.943846 0.347334
Si Si3 0.500000 0.750000 0.887325
Si Si4 0.867870 0.345972 0.483508
Si Si5 0.677397 0.408327 0.812716
Si Si6 0.511710 0.329706 0.361484
O O1 0.481886 0.562657 0.826402
O O2 0.447134 0.694181 0.835218
O O3 0.296801 0.606806 0.829006
O O4 0.418331 0.637064 0.706156
O O5 0.625963 0.913291 0.431686
O O6 0.663050 0.902186 0.280067
O O7 0.643202 0.019705 0.346056
O O8 0.410360 0.781167 0.939436
O O9 0.750000 0.328966 0.500000
O O10 0.934922 0.356650 0.560664
O O11 0.606782 0.354617 0.857053
O O12 0.500000 0.250000 0.357084
#
# Coordination Sequence:
#
# PCOD8296233 Si02
#       6
#    16  16   8  16  16  16
#     4  10  21  40  66  90 127 162 211 274 313 377
#     4   9  22  42  59  95 121 161 216 255 315 391
#     4  10  22  38  58  92 122 164 214 256 318 388
#     4  11  23  39  61  86 133 166 199 269 328 379
#     4  10  22  40  69  89 122 170 213 263 321 375
#     4  11  23  39  60 100 127 162 221 264 317 407
#
# _framework density 19.884240999999999
#
# number of rings (size 3 to 8) (size 9 to 14) (size 15 to 20)
#    0.000    1.818    1.818    1.091    2.545    8.727 
#    0.000    4.545    0.000    0.000    0.000    0.000 
#    0.000    0.000    0.000    0.000    0.000    0.000 
#
# Total GULP energy -545584.990497 kJ/mol
# GULP energy per Si atom -12399.658875 kJ/mol
# Density = 1.983898 g / cm^3
# Si number density = 19.884241 Si / 1000 Ang^3
#
#
#
# Elastic Constant Matrix: (Units=GPa)
#
#
# Indices 1 2 3 4 5 6 
#
# 1 180.3052 76.6523 53.3041 0.0000 0.0000 0.0000
# 2 76.6523 118.7202 52.5000 0.0000 0.0000 0.0000
# 3 53.3041 52.5000 117.7448 0.0000 0.0000 0.0000
# 4 0.0000 0.0000 0.0000 20.6804 0.0000 0.0000
# 5 0.0000 0.0000 0.0000 0.0000 11.3372 0.0000
# 6 0.0000 0.0000 0.0000 0.0000 0.0000 26.8384
#
#
#
# Elastic Compliance Matrix: (Units=1/GPa)
#
#
# Indices 1 2 3 4 5 6 
#
# 1 0.007885 -0.004375 -0.001619 0.000000 0.000000 0.000000
# 2 -0.004375 0.012919 -0.003780 0.000000 0.000000 0.000000
# 3 -0.001619 -0.003780 0.010911 0.000000 0.000000 0.000000
# 4 0.000000 0.000000 0.000000 0.048355 0.000000 0.000000
# 5 0.000000 0.000000 0.000000 0.000000 0.088205 0.000000
# 6 0.000000 0.000000 0.000000 0.000000 0.000000 0.037260
#
#
# Mechanical properties :
#
#
# Convention : Reuss Voigt Hill
#
# Bulk Modulus (GPa) = 82.18287 86.85366 84.51826
# Shear Modulus (GPa) = 21.82088 27.39212 24.60650
#
# Velocity S-wave (km/s) = 3.31629 3.71560 3.52161
# Velocity P-wave (km/s) = 7.48893 7.88556 7.68980
#
# Compressibility (1/GPa) = 0.01216799
#
# Stress axis : x y z
#
# Youngs Moduli (GPa) = 126.82978 77.40306 91.64923
#
# Poissons Ratio (x) = 0.33863 0.14836
# Poissons Ratio (y) = 0.55487 0.34643
# Poissons Ratio (z) = 0.20531 0.29258
#
# Static dielectric constant tensor:
#      x y z
#    x 3.414880 0.000000 0.000000 
#    y 0.000000 3.531060 0.000000 
#    z 0.000000 0.000000 3.764510 
# 
# 
# High freq. dielectric constant tensor:
#      x y z
#    x 1.781670 0.000000 0.000000 
#    y 0.000000 1.775300 0.000000 
#    z 0.000000 0.000000 1.779110 
# 
# From -- ./inp_files/11888.got.cif
#   From: 2010.03.12/outbox.cif.g09.slc.cpg/sg73_6_cif.got.tgz:11888.got - 2010.04.16 15:25:48.
