data_PCOD8296558
_publ_section_title
;
Structure prediction by ZEFSAII (Michael W. Deem and Ramdas Pophale) SiO2 
 PCOD8296558
Probable space group: I B C A 
;
_chemical_formula_sum "Si O2"
_cell_formula_units_Z 96
_cell_length_a 13.720636
_cell_length_b 22.669188
_cell_length_c 13.755613
_cell_angle_alpha 90.000000
_cell_angle_beta 90.000000
_cell_angle_gamma 90.000000
_cell_volume 4278.486402
_symmetry_space_group_name_H-M "I B C A "
_symmetry_group_IT_number 73
_symmetry_cell_setting 'orthorhombic'
loop_
_space_group_symop_operation_xyz
x,y,z
-x,1/2-y,z
x,-y,1/2-z
1/2-x,y,-z
-x,-y,-z
x,1/2+y,-z
-x,y,1/2+z
1/2+x,-y,z
1/2+x,1/2+y,1/2+z
1/2-x,-y,1/2+z
1/2+x,1/2-y,-z
-x,1/2+y,1/2-z
1/2-x,1/2-y,1/2-z
1/2+x,y,1/2-z
1/2-x,1/2+y,z
x,1/2-y,1/2+z
loop_
_atom_site_type_symbol
_atom_site_label
_atom_site_fract_x
_atom_site_fract_y
_atom_site_fract_z
Si Si1 0.784149 0.739759 0.359651
Si Si2 0.387737 0.487355 0.488821
Si Si3 0.118993 0.353606 0.179527
Si Si4 0.759554 0.468097 0.650757
Si Si5 0.918942 0.203047 0.383438
Si Si6 0.922323 0.361607 0.074892
O O1 0.750000 0.750000 0.250000
O O2 0.848113 0.797263 0.385846
O O3 0.683395 0.733013 0.421260
O O4 0.850248 0.681455 0.366870
O O5 0.500000 0.500000 0.500000
O O6 0.338273 0.534680 0.415387
O O7 0.340299 0.492904 0.595023
O O8 0.366417 0.422379 0.446494
O O9 0.202389 0.402479 0.169950
O O10 0.104932 0.338765 0.292843
O O11 0.016608 0.376664 0.138960
O O12 0.732734 0.500000 0.750000
O O13 0.959481 0.166007 0.473531
O O14 0.000000 0.250000 0.350557
#
# Coordination Sequence:
#
# PCOD8296558 Si02
#       6
#    16  16  16  16  16  16
#     4  10  23  40  69 101 137 180 232 293 374 433
#     4  11  26  49  69 106 144 190 252 305 370 447
#     4  11  23  46  69 101 144 180 243 301 358 444
#     4  11  26  47  74 101 141 191 249 303 371 442
#     4  11  24  42  68 105 142 187 238 293 374 443
#     4  12  24  44  71 101 147 189 236 307 364 443
#
# _framework density 22.437840999999999
#
# number of rings (size 3 to 8) (size 9 to 14) (size 15 to 20)
#    0.000    1.000    1.667    5.000    9.333    2.000 
#    9.000    0.000    0.000    0.000    0.000    0.000 
#    0.000    0.000    0.000    0.000    0.000    0.000 
#
# Total GULP energy -595331.498084 kJ/mol
# GULP energy per Si atom -12402.739543 kJ/mol
# Density = 2.238677 g / cm^3
# Si number density = 22.437841 Si / 1000 Ang^3
#
#
#
# Elastic Constant Matrix: (Units=GPa)
#
#
# Indices 1 2 3 4 5 6 
#
# 1 137.6716 35.4164 34.3489 0.0001 0.0000 0.0000
# 2 35.4164 129.2467 29.5575 0.0009 -0.0002 -0.0002
# 3 34.3489 29.5575 99.8580 0.0005 -0.0001 -0.0001
# 4 0.0001 0.0009 0.0005 37.0524 -0.0002 -0.0002
# 5 0.0000 -0.0002 -0.0001 -0.0002 33.4543 0.0000
# 6 0.0000 -0.0002 -0.0001 -0.0002 0.0000 39.6849
#
#
#
# Elastic Compliance Matrix: (Units=1/GPa)
#
#
# Indices 1 2 3 4 5 6 
#
# 1 0.008294 -0.001738 -0.002339 0.000000 0.000000 0.000000
# 2 -0.001738 0.008663 -0.001966 0.000000 0.000000 0.000000
# 3 -0.002339 -0.001966 0.011401 0.000000 0.000000 0.000000
# 4 0.000000 0.000000 0.000000 0.026989 0.000000 0.000000
# 5 0.000000 0.000000 0.000000 0.000000 0.029892 0.000000
# 6 0.000000 0.000000 0.000000 0.000000 0.000000 0.025199
#
#
# Mechanical properties :
#
#
# Convention : Reuss Voigt Hill
#
# Bulk Modulus (GPa) = 61.45511 62.82467 62.13989
# Shear Modulus (GPa) = 39.07874 39.86856 39.47365
#
# Velocity S-wave (km/s) = 4.17783 4.21984 4.19889
# Velocity P-wave (km/s) = 7.12186 7.19742 7.15974
#
# Compressibility (1/GPa) = 0.01627204
#
# Stress axis : x y z
#
# Youngs Moduli (GPa) = 120.56558 115.43235 87.71401
#
# Poissons Ratio (x) = 0.20062 0.20513
# Poissons Ratio (y) = 0.20954 0.17248
# Poissons Ratio (z) = 0.28195 0.22699
#
# Static dielectric constant tensor:
#      x y z
#    x 4.302070 0.000000 0.000000 
#    y 0.000000 4.286600 0.000000 
#    z 0.000000 0.000000 4.069680 
# 
# 
# High freq. dielectric constant tensor:
#      x y z
#    x 1.895590 0.000000 0.000000 
#    y 0.000000 1.880910 0.000000 
#    z 0.000000 0.000000 1.892970 
# 
# From -- ./inp_files/17013.got.cif
#   From: 2010.03.12/outbox.cif.g09.slc.cpg/sg73_9_cif.got.tgz:17013.got - 2010.04.16 15:25:48.
