data_PCOD8296602
_publ_section_title
;
Structure prediction by ZEFSAII (Michael W. Deem and Ramdas Pophale) SiO2 
 PCOD8296602
Probable space group: I B C A 
;
_chemical_formula_sum "Si O2"
_cell_formula_units_Z 64
_cell_length_a 9.821265
_cell_length_b 14.944022
_cell_length_c 17.767722
_cell_angle_alpha 90.000000
_cell_angle_beta 90.000000
_cell_angle_gamma 90.000000
_cell_volume 2607.754348
_symmetry_space_group_name_H-M "I B C A "
_symmetry_group_IT_number 73
_symmetry_cell_setting 'orthorhombic'
loop_
_space_group_symop_operation_xyz
x,y,z
-x,1/2-y,z
x,-y,1/2-z
1/2-x,y,-z
-x,-y,-z
x,1/2+y,-z
-x,y,1/2+z
1/2+x,-y,z
1/2+x,1/2+y,1/2+z
1/2-x,-y,1/2+z
1/2+x,1/2-y,-z
-x,1/2+y,1/2-z
1/2-x,1/2-y,1/2-z
1/2+x,y,1/2-z
1/2-x,1/2+y,z
x,1/2-y,1/2+z
loop_
_atom_site_type_symbol
_atom_site_label
_atom_site_fract_x
_atom_site_fract_y
_atom_site_fract_z
Si Si1 0.753516 0.968721 0.913582
Si Si2 0.651300 0.781536 0.070799
Si Si3 0.718214 0.856634 0.317936
Si Si4 0.939431 0.412296 0.795450
O O1 0.858769 0.885629 0.905120
O O2 0.606034 0.936806 0.881252
O O3 0.800811 0.052488 0.865278
O O4 0.750000 0.999642 0.000000
O O5 0.500000 0.750000 0.050276
O O6 0.717190 0.724449 0.137102
O O7 0.750000 0.771846 0.000000
O O8 0.808163 0.868821 0.243982
O O9 0.561228 0.839075 0.294644
O O10 0.987914 0.500000 0.750000
#
# Coordination Sequence:
#
# PCOD8296602 Si02
#       4
#    16  16  16  16
#     4  10  24  44  73 103 141 186 243 293 363 422
#     4  11  28  48  73 108 145 185 243 297 355 435
#     4  11  25  46  73 102 147 192 233 299 359 421
#     4  10  23  43  70 103 146 184 241 291 353 426
#
# _framework density 24.542190000000002
#
# number of rings (size 3 to 8) (size 9 to 14) (size 15 to 20)
#    0.000    1.500    0.000    3.000   17.500    2.000 
#    0.000    0.000    0.000    0.000    0.000    0.000 
#    0.000    0.000    0.000    0.000    0.000    0.000 
#
# Total GULP energy -396773.382200 kJ/mol
# GULP energy per Si atom -12399.168194 kJ/mol
# Density = 2.448633 g / cm^3
# Si number density = 24.542190 Si / 1000 Ang^3
#
#
#
# Elastic Constant Matrix: (Units=GPa)
#
#
# Indices 1 2 3 4 5 6 
#
# 1 154.5686 18.1450 58.7599 0.0000 0.0000 0.0000
# 2 18.1450 85.5971 22.7246 0.0000 0.0000 0.0000
# 3 58.7599 22.7246 139.7136 0.0000 0.0000 0.0000
# 4 0.0000 0.0000 0.0000 11.2775 0.0000 0.0000
# 5 0.0000 0.0000 0.0000 0.0000 33.1632 0.0000
# 6 0.0000 0.0000 0.0000 0.0000 0.0000 88.2208
#
#
#
# Elastic Compliance Matrix: (Units=1/GPa)
#
#
# Indices 1 2 3 4 5 6 
#
# 1 0.007755 -0.000813 -0.003129 0.000000 0.000000 0.000000
# 2 -0.000813 0.012295 -0.001658 0.000000 0.000000 0.000000
# 3 -0.003129 -0.001658 0.008743 0.000000 0.000000 0.000000
# 4 0.000000 0.000000 0.000000 0.088672 0.000000 0.000000
# 5 0.000000 0.000000 0.000000 0.000000 0.030154 0.000000
# 6 0.000000 0.000000 0.000000 0.000000 0.000000 0.011335
#
#
# Mechanical properties :
#
#
# Convention : Reuss Voigt Hill
#
# Bulk Modulus (GPa) = 56.84157 64.34869 60.59513
# Shear Modulus (GPa) = 28.40612 45.21564 36.81088
#
# Velocity S-wave (km/s) = 3.40581 4.29693 3.87706
# Velocity P-wave (km/s) = 6.21909 7.13405 6.69223
#
# Compressibility (1/GPa) = 0.01759276
#
# Stress axis : x y z
#
# Youngs Moduli (GPa) = 128.95527 81.33304 114.37481
#
# Poissons Ratio (x) = 0.06613 0.35789
# Poissons Ratio (y) = 0.10485 0.18962
# Poissons Ratio (z) = 0.40352 0.13484
#
# Static dielectric constant tensor:
#      x y z
#    x 4.362010 0.000000 0.000000 
#    y 0.000000 4.648330 0.000000 
#    z 0.000000 0.000000 4.593970 
# 
# 
# High freq. dielectric constant tensor:
#      x y z
#    x 1.976470 0.000000 0.000000 
#    y 0.000000 1.981250 0.000000 
#    z 0.000000 0.000000 1.985420 
# 
# From -- ./inp_files/24596.got.cif
#   From: 2010.03.12/outbox.cif.g09.slc.cpg/sg73_13_cif.got.tgz:24596.got - 2010.04.16 15:25:48.
