data_PCOD8296202
_publ_section_title
;
Structure prediction by ZEFSAII (Michael W. Deem and Ramdas Pophale) SiO2 
 PCOD8296202
Probable space group: I B C A 
;
_chemical_formula_sum "Si O2"
_cell_formula_units_Z 96
_cell_length_a 13.000372
_cell_length_b 18.491982
_cell_length_c 17.159472
_cell_angle_alpha 90.000000
_cell_angle_beta 90.000000
_cell_angle_gamma 90.000000
_cell_volume 4125.182456
_symmetry_space_group_name_H-M "I B C A "
_symmetry_group_IT_number 73
_symmetry_cell_setting 'orthorhombic'
loop_
_space_group_symop_operation_xyz
x,y,z
-x,1/2-y,z
x,-y,1/2-z
1/2-x,y,-z
-x,-y,-z
x,1/2+y,-z
-x,y,1/2+z
1/2+x,-y,z
1/2+x,1/2+y,1/2+z
1/2-x,-y,1/2+z
1/2+x,1/2-y,-z
-x,1/2+y,1/2-z
1/2-x,1/2-y,1/2-z
1/2+x,y,1/2-z
1/2-x,1/2+y,z
x,1/2-y,1/2+z
loop_
_atom_site_type_symbol
_atom_site_label
_atom_site_fract_x
_atom_site_fract_y
_atom_site_fract_z
Si Si1 0.334418 0.493802 0.837290
Si Si2 0.121442 0.744641 0.150744
Si Si3 0.075115 0.689104 0.802291
Si Si4 0.049585 0.558510 0.693364
Si Si5 0.278391 0.378862 0.087962
Si Si6 0.245805 0.873879 0.409043
O O1 0.293970 0.500000 0.750000
O O2 0.451321 0.519491 0.844503
O O3 0.319832 0.409777 0.863483
O O4 0.259860 0.541237 0.893021
O O5 0.144849 0.766742 0.240132
O O6 0.196990 0.794168 0.097231
O O7 0.157410 0.663373 0.134286
O O8 0.000000 0.750000 0.129869
O O9 0.019364 0.627954 0.747798
O O10 0.138918 0.654565 0.872634
O O11 0.000000 0.750000 0.839202
O O12 0.104881 0.500000 0.750000
O O13 0.121343 0.579239 0.621095
O O14 0.250000 0.396800 0.000000
O O15 0.250000 0.856906 0.500000
#
# Coordination Sequence:
#
# PCOD8296202 Si02
#       6
#    16  16  16  16  16  16
#     4  11  23  41  65  90 124 171 220 268 319 384
#     4  10  22  43  67  92 130 174 221 268 314 382
#     4  10  21  39  64  90 123 168 219 264 314 389
#     4  10  22  41  63  90 123 165 217 269 320 381
#     4  11  22  39  64  97 134 171 211 264 331 392
#     4  12  24  39  63  96 132 168 209 270 337 387
#
# _framework density 23.271697
#
# number of rings (size 3 to 8) (size 9 to 14) (size 15 to 20)
#    0.000    1.333    0.000    8.000    0.000    4.000 
#    0.000    8.333    0.000    0.000    0.000    0.000 
#    0.000    0.000    0.000    0.000    0.000    0.000 
#
# Total GULP energy -594807.395766 kJ/mol
# GULP energy per Si atom -12391.820745 kJ/mol
# Density = 2.321873 g / cm^3
# Si number density = 23.271697 Si / 1000 Ang^3
#
#
#
# Elastic Constant Matrix: (Units=GPa)
#
#
# Indices 1 2 3 4 5 6 
#
# 1 104.4081 19.7769 25.3088 0.0000 0.0000 0.0000
# 2 19.7769 74.0157 11.5400 0.0000 0.0000 0.0000
# 3 25.3088 11.5400 131.4493 0.0000 0.0000 0.0000
# 4 0.0000 0.0000 0.0000 31.7584 0.0000 0.0000
# 5 0.0000 0.0000 0.0000 0.0000 18.2894 0.0000
# 6 0.0000 0.0000 0.0000 0.0000 0.0000 45.3180
#
#
#
# Elastic Compliance Matrix: (Units=1/GPa)
#
#
# Indices 1 2 3 4 5 6 
#
# 1 0.010492 -0.002523 -0.001799 0.000000 0.000000 0.000000
# 2 -0.002523 0.014305 -0.000770 0.000000 0.000000 0.000000
# 3 -0.001799 -0.000770 0.008021 0.000000 0.000000 0.000000
# 4 0.000000 0.000000 0.000000 0.031488 0.000000 0.000000
# 5 0.000000 0.000000 0.000000 0.000000 0.054676 0.000000
# 6 0.000000 0.000000 0.000000 0.000000 0.000000 0.022066
#
#
# Mechanical properties :
#
#
# Convention : Reuss Voigt Hill
#
# Bulk Modulus (GPa) = 44.17979 47.01383 45.59681
# Shear Modulus (GPa) = 31.49085 35.95633 33.72359
#
# Velocity S-wave (km/s) = 3.68255 3.93500 3.81087
# Velocity P-wave (km/s) = 6.09156 6.39466 6.24495
#
# Compressibility (1/GPa) = 0.02263478
#
# Stress axis : x y z
#
# Youngs Moduli (GPa) = 95.31371 69.90646 124.66676
#
# Poissons Ratio (x) = 0.17637 0.22422
# Poissons Ratio (y) = 0.24047 0.09600
# Poissons Ratio (z) = 0.17143 0.05383
#
# Static dielectric constant tensor:
#      x y z
#    x 3.936960 0.000000 0.000000 
#    y 0.000000 4.693040 0.000000 
#    z 0.000000 0.000000 3.899380 
# 
# 
# High freq. dielectric constant tensor:
#      x y z
#    x 1.913620 0.000000 0.000000 
#    y 0.000000 1.943420 0.000000 
#    z 0.000000 0.000000 1.895920 
# 
# From -- ./inp_files/17041.got.cif
#   From: 2010.03.12/outbox.cif.g09.slc.cpg/sg73_9_cif.got.tgz:17041.got - 2010.04.16 15:25:48.
