data_PCOD8296365
_publ_section_title
;
Structure prediction by ZEFSAII (Michael W. Deem and Ramdas Pophale) SiO2 
 PCOD8296365
Probable space group: I B C A 
;
_chemical_formula_sum "Si O2"
_cell_formula_units_Z 104
_cell_length_a 9.305685
_cell_length_b 17.121320
_cell_length_c 29.545288
_cell_angle_alpha 90.000000
_cell_angle_beta 90.000000
_cell_angle_gamma 90.000000
_cell_volume 4707.321054
_symmetry_space_group_name_H-M "I B C A "
_symmetry_group_IT_number 73
_symmetry_cell_setting 'orthorhombic'
loop_
_space_group_symop_operation_xyz
x,y,z
-x,1/2-y,z
x,-y,1/2-z
1/2-x,y,-z
-x,-y,-z
x,1/2+y,-z
-x,y,1/2+z
1/2+x,-y,z
1/2+x,1/2+y,1/2+z
1/2-x,-y,1/2+z
1/2+x,1/2-y,-z
-x,1/2+y,1/2-z
1/2-x,1/2-y,1/2-z
1/2+x,y,1/2-z
1/2-x,1/2+y,z
x,1/2-y,1/2+z
loop_
_atom_site_type_symbol
_atom_site_label
_atom_site_fract_x
_atom_site_fract_y
_atom_site_fract_z
Si Si1 0.902998 0.566316 0.022960
Si Si2 0.963915 0.534566 0.844392
Si Si3 0.500000 0.750000 0.883543
Si Si4 0.191724 0.590394 0.261941
Si Si5 0.033782 0.375303 0.807220
Si Si6 0.708803 0.465698 0.903388
Si Si7 0.344426 0.330541 0.541261
O O1 0.868777 0.540265 0.074056
O O2 0.995005 0.646573 0.023997
O O3 0.750000 0.582642 0.000000
O O4 0.000000 0.500000 0.000000
O O5 0.908569 0.594181 0.806592
O O6 0.053947 0.464597 0.821763
O O7 0.835868 0.496136 0.872413
O O8 0.083382 0.578737 0.874956
O O9 0.541659 0.678378 0.851388
O O10 0.364131 0.728175 0.916108
O O11 0.223823 0.500000 0.250000
O O12 0.115361 0.635056 0.220191
O O13 0.334867 0.639787 0.272615
O O14 0.764787 0.408966 0.942564
O O15 0.250000 0.294076 0.500000
#
# Coordination Sequence:
#
# PCOD8296365 Si02
#       7
#    16  16   8  16  16  16  16
#     4  12  20  36  65 104 131 161 214 280 353 405
#     4  11  21  35  65 105 136 160 207 276 346 394
#     4  12  28  48  64  88 132 190 236 262 320 402
#     4  10  22  39  67 103 132 161 212 280 346 384
#     4  11  23  42  65  92 133 181 217 271 324 403
#     4  12  19  35  62 101 136 167 202 274 344 401
#     4  12  26  45  67  94 134 178 224 280 337 404
#
# _framework density 22.093243999999999
#
# number of rings (size 3 to 8) (size 9 to 14) (size 15 to 20)
#    0.000    0.615    7.692    1.385    2.154    1.231 
#    0.000    1.538    0.000    1.846    0.000    0.000 
#    0.000    0.000    0.000    0.000    0.000    0.000 
#
# Total GULP energy -644655.734668 kJ/mol
# GULP energy per Si atom -12397.225667 kJ/mol
# Density = 2.204296 g / cm^3
# Si number density = 22.093244 Si / 1000 Ang^3
#
#
#
# Elastic Constant Matrix: (Units=GPa)
#
#
# Indices 1 2 3 4 5 6 
#
# 1 135.2596 23.7209 63.2924 0.0000 0.0000 0.0000
# 2 23.7209 37.5919 28.7360 0.0000 0.0000 0.0000
# 3 63.2924 28.7360 133.3863 0.0000 0.0000 0.0000
# 4 0.0000 0.0000 0.0000 38.8291 0.0000 0.0000
# 5 0.0000 0.0000 0.0000 0.0000 63.2003 0.0000
# 6 0.0000 0.0000 0.0000 0.0000 0.0000 15.6362
#
#
#
# Elastic Compliance Matrix: (Units=1/GPa)
#
#
# Indices 1 2 3 4 5 6 
#
# 1 0.009805 -0.003149 -0.003974 0.000000 0.000000 0.000000
# 2 -0.003149 0.032857 -0.005584 0.000000 0.000000 0.000000
# 3 -0.003974 -0.005584 0.010586 0.000000 0.000000 0.000000
# 4 0.000000 0.000000 0.000000 0.025754 0.000000 0.000000
# 5 0.000000 0.000000 0.000000 0.000000 0.015823 0.000000
# 6 0.000000 0.000000 0.000000 0.000000 0.000000 0.063954
#
#
# Mechanical properties :
#
#
# Convention : Reuss Voigt Hill
#
# Bulk Modulus (GPa) = 35.92849 59.74847 47.83848
# Shear Modulus (GPa) = 25.84351 36.23236 31.03794
#
# Velocity S-wave (km/s) = 3.42387 4.05405 3.75221
# Velocity P-wave (km/s) = 5.65049 7.00116 6.36177
#
# Compressibility (1/GPa) = 0.02783306
#
# Stress axis : x y z
#
# Youngs Moduli (GPa) = 101.98782 30.43452 94.46623
#
# Poissons Ratio (x) = 0.09585 0.37542
# Poissons Ratio (y) = 0.32118 0.52753
# Poissons Ratio (z) = 0.40531 0.16996
#
# Static dielectric constant tensor:
#      x y z
#    x 4.349630 0.000000 0.000000 
#    y 0.000000 3.530160 0.000000 
#    z 0.000000 0.000000 4.367790 
# 
# 
# High freq. dielectric constant tensor:
#      x y z
#    x 1.884630 0.000000 0.000000 
#    y 0.000000 1.808210 0.000000 
#    z 0.000000 0.000000 1.893900 
# 
# From -- ./inp_files/33594.got.cif
#   From: 2010.03.12/outbox.cif.g09.slc.cpg/sg73_17_cif.got.tgz:33594.got - 2010.04.16 15:25:48.
