data_PCOD8296636
_publ_section_title
;
Structure prediction by ZEFSAII (Michael W. Deem and Ramdas Pophale) SiO2 
 PCOD8296636
Probable space group: I B C A 
;
_chemical_formula_sum "Si O2"
_cell_formula_units_Z 96
_cell_length_a 8.011252
_cell_length_b 24.297629
_cell_length_c 21.519139
_cell_angle_alpha 90.000000
_cell_angle_beta 90.000000
_cell_angle_gamma 90.000000
_cell_volume 4188.795713
_symmetry_space_group_name_H-M "I B C A "
_symmetry_group_IT_number 73
_symmetry_cell_setting 'orthorhombic'
loop_
_space_group_symop_operation_xyz
x,y,z
-x,1/2-y,z
x,-y,1/2-z
1/2-x,y,-z
-x,-y,-z
x,1/2+y,-z
-x,y,1/2+z
1/2+x,-y,z
1/2+x,1/2+y,1/2+z
1/2-x,-y,1/2+z
1/2+x,1/2-y,-z
-x,1/2+y,1/2-z
1/2-x,1/2-y,1/2-z
1/2+x,y,1/2-z
1/2-x,1/2+y,z
x,1/2-y,1/2+z
loop_
_atom_site_type_symbol
_atom_site_label
_atom_site_fract_x
_atom_site_fract_y
_atom_site_fract_z
Si Si1 0.490136 0.489823 0.927262
Si Si2 0.907123 0.437904 0.242255
Si Si3 0.190765 0.404021 0.151415
Si Si4 0.186783 0.684575 0.067199
Si Si5 0.294059 0.192842 0.568973
Si Si6 0.290444 0.925549 0.370497
O O1 0.337717 0.450659 0.901712
O O2 0.659917 0.461363 0.909127
O O3 0.468199 0.550086 0.894290
O O4 0.500000 0.500000 0.000000
O O5 0.971876 0.500000 0.250000
O O6 0.863927 0.412456 0.309597
O O7 0.730667 0.437131 0.203108
O O8 0.036481 0.403422 0.200192
O O9 0.200169 0.344759 0.118993
O O10 0.267066 0.744338 0.081600
O O11 0.242079 0.638729 0.116580
O O12 0.990403 0.688539 0.073274
O O13 0.250000 0.664408 0.000000
O O14 0.250000 0.173293 0.500000
#
# Coordination Sequence:
#
# PCOD8296636 Si02
#       6
#    16  16  16  16  16  16
#     4  11  24  40  61 104 138 172 221 294 359 420
#     4  11  24  45  66  98 140 192 239 282 352 422
#     4  11  26  43  70 101 135 192 235 293 345 430
#     4  10  23  46  72 100 142 186 230 296 372 436
#     4  10  25  45  72 103 140 183 240 298 367 431
#     4  11  25  40  67  97 137 182 229 283 353 430
#
# _framework density 22.918282000000001
#
# number of rings (size 3 to 8) (size 9 to 14) (size 15 to 20)
#    0.000    1.333    1.667    2.000   14.000    0.000 
#    0.000    0.833    0.000    0.000    0.000    0.000 
#    0.000    0.000    0.000    0.000    0.000    0.000 
#
# Total GULP energy -595008.236343 kJ/mol
# GULP energy per Si atom -12396.004924 kJ/mol
# Density = 2.286612 g / cm^3
# Si number density = 22.918282 Si / 1000 Ang^3
#
#
#
# Elastic Constant Matrix: (Units=GPa)
#
#
# Indices 1 2 3 4 5 6 
#
# 1 42.5897 36.2864 40.9757 0.0000 0.0000 0.0000
# 2 36.2864 153.5959 84.0370 0.0000 0.0000 0.0000
# 3 40.9757 84.0370 163.5099 0.0000 0.0000 0.0000
# 4 0.0000 0.0000 0.0000 33.4953 0.0000 0.0000
# 5 0.0000 0.0000 0.0000 0.0000 40.8402 0.0000
# 6 0.0000 0.0000 0.0000 0.0000 0.0000 32.5529
#
#
#
# Elastic Compliance Matrix: (Units=1/GPa)
#
#
# Indices 1 2 3 4 5 6 
#
# 1 0.033089 -0.004564 -0.005947 0.000000 0.000000 0.000000
# 2 -0.004564 0.009687 -0.003835 0.000000 0.000000 0.000000
# 3 -0.005947 -0.003835 0.009577 0.000000 0.000000 0.000000
# 4 0.000000 0.000000 0.000000 0.029855 0.000000 0.000000
# 5 0.000000 0.000000 0.000000 0.000000 0.024486 0.000000
# 6 0.000000 0.000000 0.000000 0.000000 0.000000 0.030719
#
#
# Mechanical properties :
#
#
# Convention : Reuss Voigt Hill
#
# Bulk Modulus (GPa) = 42.26045 75.81042 59.03543
# Shear Modulus (GPa) = 28.73699 34.60411 31.67055
#
# Velocity S-wave (km/s) = 3.54487 3.88995 3.72141
# Velocity P-wave (km/s) = 5.93586 7.30246 6.65434
#
# Compressibility (1/GPa) = 0.02366279
#
# Stress axis : x y z
#
# Youngs Moduli (GPa) = 30.22112 103.23107 104.41524
#
# Poissons Ratio (x) = 0.47111 0.62093
# Poissons Ratio (y) = 0.13792 0.40044
# Poissons Ratio (z) = 0.17972 0.39590
#
# Static dielectric constant tensor:
#      x y z
#    x 4.338970 0.000000 0.000000 
#    y 0.000000 4.454220 0.000000 
#    z 0.000000 0.000000 4.270340 
# 
# 
# High freq. dielectric constant tensor:
#      x y z
#    x 1.924660 0.000000 0.000000 
#    y 0.000000 1.890420 0.000000 
#    z 0.000000 0.000000 1.908380 
# 
# From -- ./inp_files/28411.got.cif
#   From: 2010.03.12/outbox.cif.g09.slc.cpg/sg73_15_cif.got.tgz:28411.got - 2010.04.16 15:25:48.
