data_PCOD8296297
_publ_section_title
;
Structure prediction by ZEFSAII (Michael W. Deem and Ramdas Pophale) SiO2 
 PCOD8296297
Probable space group: I B C A 
;
_chemical_formula_sum "Si O2"
_cell_formula_units_Z 112
_cell_length_a 27.951371
_cell_length_b 12.683514
_cell_length_c 13.486043
_cell_angle_alpha 90.000000
_cell_angle_beta 90.000000
_cell_angle_gamma 90.000000
_cell_volume 4781.093615
_symmetry_space_group_name_H-M "I B C A "
_symmetry_group_IT_number 73
_symmetry_cell_setting 'orthorhombic'
loop_
_space_group_symop_operation_xyz
x,y,z
-x,1/2-y,z
x,-y,1/2-z
1/2-x,y,-z
-x,-y,-z
x,1/2+y,-z
-x,y,1/2+z
1/2+x,-y,z
1/2+x,1/2+y,1/2+z
1/2-x,-y,1/2+z
1/2+x,1/2-y,-z
-x,1/2+y,1/2-z
1/2-x,1/2-y,1/2-z
1/2+x,y,1/2-z
1/2-x,1/2+y,z
x,1/2-y,1/2+z
loop_
_atom_site_type_symbol
_atom_site_label
_atom_site_fract_x
_atom_site_fract_y
_atom_site_fract_z
Si Si1 0.852786 0.899298 0.196843
Si Si2 0.562531 0.996125 0.923264
Si Si3 0.301083 0.694644 0.988995
Si Si4 0.022051 0.143083 0.092006
Si Si5 0.875295 0.141853 0.950856
Si Si6 0.679532 0.537986 0.651232
Si Si7 0.604065 0.804432 0.237292
O O1 0.813805 0.859713 0.116539
O O2 0.867332 0.807036 0.275437
O O3 0.828234 0.000000 0.250000
O O4 0.903381 0.941399 0.155194
O O5 0.515161 0.049871 0.874994
O O6 0.587195 0.096215 0.973553
O O7 0.553848 0.906301 0.005112
O O8 0.346035 0.769342 0.011896
O O9 0.250000 0.755601 0.000000
O O10 0.291558 0.611350 0.077119
O O11 0.052565 0.185601 0.185735
O O12 0.000000 0.250000 0.046855
O O13 0.903571 0.187161 0.856005
O O14 0.835769 0.059971 0.914938
O O15 0.709092 0.500000 0.750000
O O16 0.633701 0.598516 0.694494
#
# Coordination Sequence:
#
# PCOD8296297 Si02
#       7
#    16  16  16  16  16  16  16
#     4  11  24  44  70 102 144 187 226 291 374 428
#     4  11  24  44  66  96 136 186 234 282 359 412
#     4  11  25  43  72 108 136 179 241 296 357 436
#     4  11  24  41  64 100 137 178 240 297 327 422
#     4  10  22  43  71  92 137 186 231 285 359 420
#     4  10  21  43  72  98 134 188 225 278 362 431
#     4  10  22  42  66  97 132 185 234 279 354 418
#
# _framework density 23.425602000000001
#
# number of rings (size 3 to 8) (size 9 to 14) (size 15 to 20)
#    0.000    1.429    2.857    0.857    8.000    1.143 
#   12.857    6.429    0.000    0.000    0.000    0.000 
#    0.000    0.000    0.000    0.000    0.000    0.000 
#
# Total GULP energy -693877.709397 kJ/mol
# GULP energy per Si atom -12390.673382 kJ/mol
# Density = 2.337228 g / cm^3
# Si number density = 23.425602 Si / 1000 Ang^3
#
#
#
# Elastic Constant Matrix: (Units=GPa)
#
#
# Indices 1 2 3 4 5 6 
#
# 1 84.1872 24.7294 39.3320 0.0000 0.0000 0.0000
# 2 24.7294 118.7818 35.0499 0.0000 0.0000 0.0000
# 3 39.3320 35.0499 82.0704 0.0000 0.0000 0.0000
# 4 0.0000 0.0000 0.0000 32.9554 0.0000 0.0000
# 5 0.0000 0.0000 0.0000 0.0000 18.8987 0.0000
# 6 0.0000 0.0000 0.0000 0.0000 0.0000 18.0073
#
#
#
# Elastic Compliance Matrix: (Units=1/GPa)
#
#
# Indices 1 2 3 4 5 6 
#
# 1 0.015448 -0.001180 -0.006900 0.000000 0.000000 0.000000
# 2 -0.001180 0.009723 -0.003587 0.000000 0.000000 0.000000
# 3 -0.006900 -0.003587 0.017023 0.000000 0.000000 0.000000
# 4 0.000000 0.000000 0.000000 0.030344 0.000000 0.000000
# 5 0.000000 0.000000 0.000000 0.000000 0.052914 0.000000
# 6 0.000000 0.000000 0.000000 0.000000 0.000000 0.055533
#
#
# Mechanical properties :
#
#
# Convention : Reuss Voigt Hill
#
# Bulk Modulus (GPa) = 53.01882 53.69576 53.35729
# Shear Modulus (GPa) = 23.74109 26.36749 25.05429
#
# Velocity S-wave (km/s) = 3.18695 3.35861 3.27391
# Velocity P-wave (km/s) = 6.01866 6.16538 6.09246
#
# Compressibility (1/GPa) = 0.01886123
#
# Stress axis : x y z
#
# Youngs Moduli (GPa) = 64.73144 102.85009 58.74406
#
# Poissons Ratio (x) = 0.12140 0.40531
# Poissons Ratio (y) = 0.07641 0.21070
# Poissons Ratio (z) = 0.44662 0.36889
#
# Static dielectric constant tensor:
#      x y z
#    x 3.875710 0.000000 0.000000 
#    y 0.000000 4.600370 0.000000 
#    z 0.000000 0.000000 4.264090 
# 
# 
# High freq. dielectric constant tensor:
#      x y z
#    x 1.901020 0.000000 0.000000 
#    y 0.000000 1.947530 0.000000 
#    z 0.000000 0.000000 1.925150 
# 
# From -- ./inp_files/20054.got.cif
#   From: 2010.03.12/outbox.cif.g09.slc.cpg/sg73_11_cif.got.tgz:20054.got - 2010.04.16 15:25:48.
