data_PCOD8296484
_publ_section_title
;
Structure prediction by ZEFSAII (Michael W. Deem and Ramdas Pophale) SiO2 
 PCOD8296484
Probable space group: I B C A 
;
_chemical_formula_sum "Si O2"
_cell_formula_units_Z 88
_cell_length_a 10.439698
_cell_length_b 31.019094
_cell_length_c 11.632636
_cell_angle_alpha 90.000000
_cell_angle_beta 90.000000
_cell_angle_gamma 90.000000
_cell_volume 3766.996209
_symmetry_space_group_name_H-M "I B C A "
_symmetry_group_IT_number 73
_symmetry_cell_setting 'orthorhombic'
loop_
_space_group_symop_operation_xyz
x,y,z
-x,1/2-y,z
x,-y,1/2-z
1/2-x,y,-z
-x,-y,-z
x,1/2+y,-z
-x,y,1/2+z
1/2+x,-y,z
1/2+x,1/2+y,1/2+z
1/2-x,-y,1/2+z
1/2+x,1/2-y,-z
-x,1/2+y,1/2-z
1/2-x,1/2-y,1/2-z
1/2+x,y,1/2-z
1/2-x,1/2+y,z
x,1/2-y,1/2+z
loop_
_atom_site_type_symbol
_atom_site_label
_atom_site_fract_x
_atom_site_fract_y
_atom_site_fract_z
Si Si1 0.383122 0.217951 0.338554
Si Si2 0.633966 0.125748 0.229051
Si Si3 0.250000 0.157407 0.500000
Si Si4 0.875499 0.072564 0.252157
Si Si5 0.745408 0.697763 0.632328
Si Si6 0.125277 0.995922 0.927040
O O1 0.500000 0.250000 0.355593
O O2 0.366665 0.183471 0.440104
O O3 0.265784 0.250767 0.360775
O O4 0.373072 0.192611 0.214235
O O5 0.745720 0.097222 0.287848
O O6 0.496503 0.104171 0.239870
O O7 0.631503 0.171184 0.301217
O O8 0.674173 0.130228 0.095804
O O9 0.892058 0.032264 0.333040
O O10 0.865062 0.052442 0.124400
O O11 0.750000 0.681469 0.500000
O O12 0.250000 0.005956 0.000000
O O13 0.000000 0.000000 0.000000
#
# Coordination Sequence:
#
# PCOD8296484 Si02
#       6
#    16  16   8  16  16  16
#     4  10  22  43  67  93 129 180 242 294 346 430
#     4  11  26  44  68 105 149 186 238 301 363 428
#     4  10  24  46  68 102 142 196 238 300 370 416
#     4  11  26  46  68 108 144 180 243 287 358 440
#     4  10  23  42  62  97 132 179 236 292 359 413
#     4  11  24  45  76 103 138 192 231 288 354 428
#
# _framework density 23.360786999999998
#
# number of rings (size 3 to 8) (size 9 to 14) (size 15 to 20)
#    0.000    1.455    0.909    2.182    8.909    7.273 
#    0.000    0.000    0.000    0.000    0.000    0.000 
#    0.000    0.000    0.000    0.000    0.000    0.000 
#
# Total GULP energy -545121.093921 kJ/mol
# GULP energy per Si atom -12389.115771 kJ/mol
# Density = 2.330762 g / cm^3
# Si number density = 23.360787 Si / 1000 Ang^3
#
#
#
# Elastic Constant Matrix: (Units=GPa)
#
#
# Indices 1 2 3 4 5 6 
#
# 1 99.4657 4.5741 15.0821 0.0007 0.0000 -0.0001
# 2 4.5741 75.9761 16.2904 0.0013 0.0000 -0.0001
# 3 15.0821 16.2904 131.7499 0.0094 -0.0025 -0.0011
# 4 0.0007 0.0013 0.0094 31.8185 -0.0012 -0.0008
# 5 0.0000 0.0000 -0.0025 -0.0012 22.9741 0.0010
# 6 -0.0001 -0.0001 -0.0011 -0.0008 0.0010 42.3272
#
#
#
# Elastic Compliance Matrix: (Units=1/GPa)
#
#
# Indices 1 2 3 4 5 6 
#
# 1 0.010242 -0.000375 -0.001126 0.000000 0.000000 0.000000
# 2 -0.000375 0.013534 -0.001631 0.000000 0.000000 0.000000
# 3 -0.001126 -0.001631 0.007921 -0.000002 0.000001 0.000000
# 4 0.000000 0.000000 -0.000002 0.031428 0.000002 0.000001
# 5 0.000000 0.000000 0.000001 0.000002 0.043527 -0.000001
# 6 0.000000 0.000000 0.000000 0.000001 -0.000001 0.023625
#
#
# Mechanical properties :
#
#
# Convention : Reuss Voigt Hill
#
# Bulk Modulus (GPa) = 39.31874 42.12056 40.71965
# Shear Modulus (GPa) = 34.47829 37.50695 35.99262
#
# Velocity S-wave (km/s) = 3.84592 4.01128 3.92947
# Velocity P-wave (km/s) = 6.04889 6.28677 6.16897
#
# Compressibility (1/GPa) = 0.02543317
#
# Stress axis : x y z
#
# Youngs Moduli (GPa) = 97.63989 73.88674 126.25225
#
# Poissons Ratio (x) = 0.02772 0.14216
# Poissons Ratio (y) = 0.03663 0.20586
# Poissons Ratio (z) = 0.10995 0.12047
#
# Static dielectric constant tensor:
#      x y z
#    x 3.985460 0.000000 0.000000 
#    y 0.000000 4.819080 0.000000 
#    z 0.000000 0.000000 4.622090 
# 
# 
# High freq. dielectric constant tensor:
#      x y z
#    x 1.915320 0.000000 0.000000 
#    y 0.000000 1.940460 0.000000 
#    z 0.000000 0.000000 1.930980 
# 
# From -- ./inp_files/9907.got.cif
#   From: 2010.03.12/outbox.cif.g09.slc.cpg/sg73_5_cif.got.tgz:9907.got - 2010.04.16 15:25:48.
