data_PCOD8296911
_publ_section_title
;
Structure prediction by ZEFSAII (Michael W. Deem and Ramdas Pophale) SiO2 
 PCOD8296911
Probable space group: I B C A 
;
_chemical_formula_sum "Si O2"
_cell_formula_units_Z 112
_cell_length_a 16.465341
_cell_length_b 13.860567
_cell_length_c 20.773365
_cell_angle_alpha 90.000000
_cell_angle_beta 90.000000
_cell_angle_gamma 90.000000
_cell_volume 4740.875800
_symmetry_space_group_name_H-M "I B C A "
_symmetry_group_IT_number 73
_symmetry_cell_setting 'orthorhombic'
loop_
_space_group_symop_operation_xyz
x,y,z
-x,1/2-y,z
x,-y,1/2-z
1/2-x,y,-z
-x,-y,-z
x,1/2+y,-z
-x,y,1/2+z
1/2+x,-y,z
1/2+x,1/2+y,1/2+z
1/2-x,-y,1/2+z
1/2+x,1/2-y,-z
-x,1/2+y,1/2-z
1/2-x,1/2-y,1/2-z
1/2+x,y,1/2-z
1/2-x,1/2+y,z
x,1/2-y,1/2+z
loop_
_atom_site_type_symbol
_atom_site_label
_atom_site_fract_x
_atom_site_fract_y
_atom_site_fract_z
Si Si1 0.334635 0.812632 0.110039
Si Si2 0.733979 0.986682 0.430804
Si Si3 0.519796 0.639035 0.193910
Si Si4 0.966638 0.854889 0.164633
Si Si5 0.445581 0.987590 0.589919
Si Si6 0.695958 0.169714 0.616094
Si Si7 0.923878 0.188773 0.503787
O O1 0.294570 0.897014 0.068580
O O2 0.388924 0.865991 0.164384
O O3 0.258051 0.753239 0.137251
O O4 0.389411 0.743158 0.066448
O O5 0.750000 0.035047 0.500000
O O6 0.640976 0.958506 0.414973
O O7 0.754760 0.070533 0.381209
O O8 0.500000 0.750000 0.197025
O O9 0.509900 0.598110 0.266789
O O10 0.454053 0.582937 0.151243
O O11 0.870384 0.840814 0.171354
O O12 0.000000 0.750000 0.150236
O O13 0.989425 0.925482 0.103655
O O14 0.455741 0.919220 0.526171
O O15 0.647663 0.186708 0.548591
O O16 0.000000 0.250000 0.477207
#
# Coordination Sequence:
#
# PCOD8296911 Si02
#       7
#    16  16  16  16  16  16  16
#     4  12  23  43  70 101 140 183 228 290 354 423
#     4  12  24  39  66  99 141 181 219 287 360 418
#     4  11  22  47  72  95 130 184 242 281 343 417
#     4  11  27  44  66  97 138 183 233 291 338 420
#     4  12  22  46  67 100 135 185 237 286 351 419
#     4  12  24  43  63 106 145 169 232 289 353 426
#     4  12  23  42  73 102 138 188 231 286 358 438
#
# _framework density 23.624326
#
# number of rings (size 3 to 8) (size 9 to 14) (size 15 to 20)
#    0.000    0.286    5.714    3.857    0.000    2.286 
#    0.000    2.857    0.000    0.000    0.000    0.000 
#    0.000    0.000    0.000    0.000    0.000    0.000 
#
# Total GULP energy -693933.260718 kJ/mol
# GULP energy per Si atom -12391.665370 kJ/mol
# Density = 2.357056 g / cm^3
# Si number density = 23.624326 Si / 1000 Ang^3
#
#
#
# Elastic Constant Matrix: (Units=GPa)
#
#
# Indices 1 2 3 4 5 6 
#
# 1 122.4176 16.6946 6.8355 0.0000 0.0000 0.0000
# 2 16.6946 83.7543 -4.3886 0.0000 0.0000 0.0000
# 3 6.8355 -4.3886 65.9919 0.0000 0.0000 0.0000
# 4 0.0000 0.0000 0.0000 22.9409 0.0000 0.0000
# 5 0.0000 0.0000 0.0000 0.0000 76.3815 0.0000
# 6 0.0000 0.0000 0.0000 0.0000 0.0000 47.1615
#
#
#
# Elastic Compliance Matrix: (Units=1/GPa)
#
#
# Indices 1 2 3 4 5 6 
#
# 1 0.008461 -0.001739 -0.000992 0.000000 0.000000 0.000000
# 2 -0.001739 0.012339 0.001001 0.000000 0.000000 0.000000
# 3 -0.000992 0.001001 0.015323 0.000000 0.000000 0.000000
# 4 0.000000 0.000000 0.000000 0.043590 0.000000 0.000000
# 5 0.000000 0.000000 0.000000 0.000000 0.013092 0.000000
# 6 0.000000 0.000000 0.000000 0.000000 0.000000 0.021204
#
#
# Mechanical properties :
#
#
# Convention : Reuss Voigt Hill
#
# Bulk Modulus (GPa) = 30.61602 34.49411 32.55507
# Shear Modulus (GPa) = 38.95410 46.16493 42.55952
#
# Velocity S-wave (km/s) = 4.06507 4.42535 4.24903
# Velocity P-wave (km/s) = 5.91783 6.38313 6.15488
#
# Compressibility (1/GPa) = 0.03266264
#
# Stress axis : x y z
#
# Youngs Moduli (GPa) = 118.18591 81.04610 65.26277
#
# Poissons Ratio (x) = 0.14090 0.06474
# Poissons Ratio (y) = 0.20547 -0.06530
# Poissons Ratio (z) = 0.11724 -0.08110
#
# Static dielectric constant tensor:
#      x y z
#    x 4.596730 0.000000 0.000000 
#    y 0.000000 4.433190 0.000000 
#    z 0.000000 0.000000 4.365090 
# 
# 
# High freq. dielectric constant tensor:
#      x y z
#    x 1.941230 0.000000 0.000000 
#    y 0.000000 1.954780 0.000000 
#    z 0.000000 0.000000 1.914710 
# 
# From -- ./inp_files/29562.got.cif
#   From: 2010.03.12/outbox.cif.g09.slc.cpg/sg73_15_cif.got.tgz:29562.got - 2010.04.16 15:25:48.
