data_PCOD8296509
_publ_section_title
;
Structure prediction by ZEFSAII (Michael W. Deem and Ramdas Pophale) SiO2 
 PCOD8296509
Probable space group: I B C A 
;
_chemical_formula_sum "Si O2"
_cell_formula_units_Z 96
_cell_length_a 13.077146
_cell_length_b 28.656294
_cell_length_c 11.914440
_cell_angle_alpha 90.000000
_cell_angle_beta 90.000000
_cell_angle_gamma 90.000000
_cell_volume 4464.847514
_symmetry_space_group_name_H-M "I B C A "
_symmetry_group_IT_number 73
_symmetry_cell_setting 'orthorhombic'
loop_
_space_group_symop_operation_xyz
x,y,z
-x,1/2-y,z
x,-y,1/2-z
1/2-x,y,-z
-x,-y,-z
x,1/2+y,-z
-x,y,1/2+z
1/2+x,-y,z
1/2+x,1/2+y,1/2+z
1/2-x,-y,1/2+z
1/2+x,1/2-y,-z
-x,1/2+y,1/2-z
1/2-x,1/2-y,1/2-z
1/2+x,y,1/2-z
1/2-x,1/2+y,z
x,1/2-y,1/2+z
loop_
_atom_site_type_symbol
_atom_site_label
_atom_site_fract_x
_atom_site_fract_y
_atom_site_fract_z
Si Si1 0.726243 0.500000 0.250000
Si Si2 0.750000 0.259555 0.500000
Si Si3 0.155263 0.080847 0.338240
Si Si4 0.509465 0.620117 0.182471
Si Si5 0.168971 0.828017 0.422838
Si Si6 0.219976 0.332681 0.190997
Si Si7 0.412650 0.969188 0.054969
O O1 0.798660 0.454137 0.243927
O O2 0.658145 0.499476 0.136403
O O3 0.846419 0.223140 0.516727
O O4 0.748482 0.290776 0.609964
O O5 0.051106 0.105734 0.295906
O O6 0.238220 0.120148 0.364034
O O7 0.148687 0.052176 0.451987
O O8 0.436719 0.645002 0.090801
O O9 0.598758 0.657539 0.209489
O O10 0.545343 0.572014 0.131112
O O11 0.250000 0.857509 0.500000
O O12 0.223872 0.819714 0.304584
O O13 0.500000 0.000000 0.000000
#
# Coordination Sequence:
#
# PCOD8296509 Si02
#       7
#     8   8  16  16  16  16  16
#     4  12  24  44  62  96 140 176 232 294 350 420
#     4  10  22  44  70 100 142 180 224 294 352 432
#     4  11  25  42  67  97 136 186 231 296 357 413
#     4  11  24  42  68 101 135 183 235 287 351 433
#     4   9  24  43  67 104 138 178 227 290 359 410
#     4  11  22  44  71  98 141 178 238 286 354 432
#     4  12  25  41  68  98 133 185 235 287 352 428
#
# _framework density 21.501294000000001
#
# number of rings (size 3 to 8) (size 9 to 14) (size 15 to 20)
#    0.500    0.667    1.667    4.000    2.333    2.000 
#    0.000    0.000    0.000    0.000    0.000    0.000 
#    0.000    0.000    0.000    0.000    0.000    0.000 
#
# Total GULP energy -594706.575886 kJ/mol
# GULP energy per Si atom -12389.720331 kJ/mol
# Density = 2.145236 g / cm^3
# Si number density = 21.501294 Si / 1000 Ang^3
#
#
#
# Elastic Constant Matrix: (Units=GPa)
#
#
# Indices 1 2 3 4 5 6 
#
# 1 99.2829 20.7967 27.5111 -0.0001 0.0001 0.0002
# 2 20.7967 66.8696 2.3267 -0.0004 0.0002 -0.0001
# 3 27.5111 2.3267 91.1571 -0.0011 -0.0005 -0.0019
# 4 -0.0001 -0.0004 -0.0011 41.0641 0.0001 -0.0023
# 5 0.0001 0.0002 -0.0005 0.0001 33.7867 -0.0004
# 6 0.0002 -0.0001 -0.0019 -0.0023 -0.0004 42.4085
#
#
#
# Elastic Compliance Matrix: (Units=1/GPa)
#
#
# Indices 1 2 3 4 5 6 
#
# 1 0.011774 -0.003541 -0.003463 0.000000 0.000000 0.000000
# 2 -0.003541 0.016033 0.000659 0.000000 0.000000 0.000000
# 3 -0.003463 0.000659 0.011998 0.000000 0.000000 0.000001
# 4 0.000000 0.000000 0.000000 0.024352 0.000000 0.000001
# 5 0.000000 0.000000 0.000000 0.000000 0.029597 0.000000
# 6 0.000000 0.000000 0.000001 0.000001 0.000000 0.023580
#
#
# Mechanical properties :
#
#
# Convention : Reuss Voigt Hill
#
# Bulk Modulus (GPa) = 36.87901 39.84206 38.36054
# Shear Modulus (GPa) = 35.95517 37.23019 36.59268
#
# Velocity S-wave (km/s) = 4.09373 4.16568 4.12986
# Velocity P-wave (km/s) = 6.28761 6.45814 6.37344
#
# Compressibility (1/GPa) = 0.02711570
#
# Stress axis : x y z
#
# Youngs Moduli (GPa) = 84.93630 62.37206 83.34499
#
# Poissons Ratio (x) = 0.22087 0.28861
# Poissons Ratio (y) = 0.30077 -0.05496
# Poissons Ratio (z) = 0.29412 -0.04113
#
# Static dielectric constant tensor:
#      x y z
#    x 4.058400 0.000000 0.000000 
#    y 0.000000 3.964030 0.000010 
#    z 0.000000 0.000010 4.026230 
# 
# 
# High freq. dielectric constant tensor:
#      x y z
#    x 1.840440 0.000000 0.000000 
#    y 0.000000 1.849190 0.000000 
#    z 0.000000 0.000000 1.850940 
# 
# From -- ./inp_files/11221.got.cif
#   From: 2010.03.12/outbox.cif.g09.slc.cpg/sg73_6_cif.got.tgz:11221.got - 2010.04.16 15:25:48.
