data_PCOD8296265
_publ_section_title
;
Structure prediction by ZEFSAII (Michael W. Deem and Ramdas Pophale) SiO2 
 PCOD8296265
Probable space group: I B C A 
;
_chemical_formula_sum "Si O2"
_cell_formula_units_Z 104
_cell_length_a 28.284740
_cell_length_b 8.757948
_cell_length_c 21.105188
_cell_angle_alpha 90.000000
_cell_angle_beta 90.000000
_cell_angle_gamma 90.000000
_cell_volume 5228.098705
_symmetry_space_group_name_H-M "I B C A "
_symmetry_group_IT_number 73
_symmetry_cell_setting 'orthorhombic'
loop_
_space_group_symop_operation_xyz
x,y,z
-x,1/2-y,z
x,-y,1/2-z
1/2-x,y,-z
-x,-y,-z
x,1/2+y,-z
-x,y,1/2+z
1/2+x,-y,z
1/2+x,1/2+y,1/2+z
1/2-x,-y,1/2+z
1/2+x,1/2-y,-z
-x,1/2+y,1/2-z
1/2-x,1/2-y,1/2-z
1/2+x,y,1/2-z
1/2-x,1/2+y,z
x,1/2-y,1/2+z
loop_
_atom_site_type_symbol
_atom_site_label
_atom_site_fract_x
_atom_site_fract_y
_atom_site_fract_z
Si Si1 0.092038 0.380710 0.459365
Si Si2 0.402753 0.000000 0.750000
Si Si3 0.947690 0.217021 0.072689
Si Si4 0.750000 0.566403 0.000000
Si Si5 0.630346 0.753265 0.166343
Si Si6 0.945021 0.752674 0.665325
Si Si7 0.900222 0.000000 0.250000
Si Si8 0.684763 0.675170 0.544363
O O1 0.055448 0.318153 0.510119
O O2 0.073688 0.549251 0.441770
O O3 0.088395 0.275108 0.396489
O O4 0.144137 0.372047 0.492781
O O5 0.366584 0.122336 0.778760
O O6 0.434300 0.082375 0.695971
O O7 0.919667 0.279372 0.132484
O O8 0.000000 0.250000 0.096530
O O9 0.724730 0.454804 0.949186
O O10 0.792700 0.664679 0.974051
O O11 0.633253 0.584197 0.197986
O O12 0.669911 0.787457 0.115282
O O13 0.934588 0.621758 0.716787
O O14 0.000000 0.750000 0.645053
#
# Coordination Sequence:
#
# PCOD8296265 Si02
#       8
#    16   8  16   8  16  16   8  16
#     4  11  23  38  61  89 123 166 200 265 314 381
#     4  10  25  36  58  89 116 182 208 259 282 354
#     4  11  23  36  57  86 125 166 212 258 312 347
#     4  10  22  40  70 102 116 146 186 262 332 404
#     4  10  22  40  62  85 125 163 210 256 298 373
#     4  11  23  37  58  86 124 169 221 258 291 345
#     4  10  21  42  56  85 116 182 210 253 298 342
#     4  10  22  41  67  98 122 150 197 255 336 386
#
# _framework density 19.892509
#
# number of rings (size 3 to 8) (size 9 to 14) (size 15 to 20)
#    0.000    1.538    1.538    3.231    8.615    2.462 
#    0.000    0.000    0.000    2.769    0.000    0.000 
#    0.000    0.000    0.000    0.000    0.000    0.000 
#
# Total GULP energy -644249.065063 kJ/mol
# GULP energy per Si atom -12389.405097 kJ/mol
# Density = 1.984723 g / cm^3
# Si number density = 19.892509 Si / 1000 Ang^3
#
#
#
# Elastic Constant Matrix: (Units=GPa)
#
#
# Indices 1 2 3 4 5 6 
#
# 1 85.8517 36.8713 27.3120 0.0000 0.0000 0.0000
# 2 36.8713 108.4206 29.6551 0.0000 0.0000 0.0000
# 3 27.3120 29.6551 94.2395 0.0000 0.0000 0.0000
# 4 0.0000 0.0000 0.0000 28.0121 0.0000 0.0000
# 5 0.0000 0.0000 0.0000 0.0000 -65.9415 0.0000
# 6 0.0000 0.0000 0.0000 0.0000 0.0000 27.3067
#
#
#
# Elastic Compliance Matrix: (Units=1/GPa)
#
#
# Indices 1 2 3 4 5 6 
#
# 1 0.014313 -0.004084 -0.002863 0.000000 0.000000 0.000000
# 2 -0.004084 0.011258 -0.002359 0.000000 0.000000 0.000000
# 3 -0.002863 -0.002359 0.012183 0.000000 0.000000 0.000000
# 4 0.000000 0.000000 0.000000 0.035699 0.000000 0.000000
# 5 0.000000 0.000000 0.000000 0.000000 -0.015165 0.000000
# 6 0.000000 0.000000 0.000000 0.000000 0.000000 0.036621
#
#
# Mechanical properties :
#
#
# Convention : Reuss Voigt Hill
#
# Bulk Modulus (GPa) = 52.24225 52.90984 52.57605
# Shear Modulus (GPa) = 41.70102 10.85369 26.27735
#
# Velocity S-wave (km/s) = 4.58352 2.33838 3.63845
# Velocity P-wave (km/s) = 7.37095 5.82635 6.64369
#
# Compressibility (1/GPa) = 0.01914160
#
# Stress axis : x y z
#
# Youngs Moduli (GPa) = 69.86696 88.82934 82.08029
#
# Poissons Ratio (x) = 0.36282 0.23498
# Poissons Ratio (y) = 0.28537 0.19361
# Poissons Ratio (z) = 0.20002 0.20953
#
# Static dielectric constant tensor:
#      x y z
#    x 3.424670 0.000000 0.000000 
#    y 0.000000 3.868620 0.000000 
#    z 0.000000 0.000000 3.775620 
# 
# 
# High freq. dielectric constant tensor:
#      x y z
#    x 1.749030 0.000000 0.000000 
#    y 0.000000 1.797830 0.000000 
#    z 0.000000 0.000000 1.781490 
# 
# From -- ./inp_files/25070.got.cif
#   From: 2010.03.12/outbox.cif.g09.slc.cpg/sg73_13_cif.got.tgz:25070.got - 2010.04.16 15:25:48.
