data_PCOD8296719
_publ_section_title
;
Structure prediction by ZEFSAII (Michael W. Deem and Ramdas Pophale) SiO2 
 PCOD8296719
Probable space group: I B C A 
;
_chemical_formula_sum "Si O2"
_cell_formula_units_Z 120
_cell_length_a 21.544503
_cell_length_b 19.902705
_cell_length_c 13.741894
_cell_angle_alpha 90.000000
_cell_angle_beta 90.000000
_cell_angle_gamma 90.000000
_cell_volume 5892.440151
_symmetry_space_group_name_H-M "I B C A "
_symmetry_group_IT_number 73
_symmetry_cell_setting 'orthorhombic'
loop_
_space_group_symop_operation_xyz
x,y,z
-x,1/2-y,z
x,-y,1/2-z
1/2-x,y,-z
-x,-y,-z
x,1/2+y,-z
-x,y,1/2+z
1/2+x,-y,z
1/2+x,1/2+y,1/2+z
1/2-x,-y,1/2+z
1/2+x,1/2-y,-z
-x,1/2+y,1/2-z
1/2-x,1/2-y,1/2-z
1/2+x,y,1/2-z
1/2-x,1/2+y,z
x,1/2-y,1/2+z
loop_
_atom_site_type_symbol
_atom_site_label
_atom_site_fract_x
_atom_site_fract_y
_atom_site_fract_z
Si Si1 0.518625 0.077727 0.009249
Si Si2 0.048626 0.071487 0.277762
Si Si3 0.559348 0.295500 0.996887
Si Si4 0.919706 0.402726 0.688893
Si Si5 0.741845 0.106119 0.614346
Si Si6 0.135567 0.293434 0.318062
Si Si7 0.816419 0.000000 0.250000
Si Si8 0.863583 0.824190 0.818070
O O1 0.556655 0.086510 0.108436
O O2 0.457818 0.125274 0.008294
O O3 0.563108 0.103625 0.923990
O O4 0.500000 0.000000 0.000000
O O5 0.079405 0.131372 0.219154
O O6 0.976207 0.066091 0.249952
O O7 0.079730 0.000000 0.250000
O O8 0.500000 0.250000 0.972359
O O9 0.588880 0.270284 0.097422
O O10 0.610674 0.285893 0.912972
O O11 0.903382 0.331359 0.735107
O O12 0.859055 0.448462 0.691862
O O13 0.750000 0.092414 0.500000
O O14 0.690421 0.163117 0.634199
O O15 0.724961 0.037140 0.668949
O O16 0.806795 0.128525 0.657366
O O17 0.160831 0.227030 0.264564
#
# Coordination Sequence:
#
# PCOD8296719 Si02
#       8
#    16  16  16  16  16  16   8  16
#     4  12  22  36  62  98 139 175 220 265 352 418
#     4  12  23  38  63 100 140 171 212 285 349 409
#     4  12  24  39  66 102 136 179 216 278 344 412
#     4  11  21  40  65  95 132 175 216 275 340 407
#     4  11  25  49  74  95 130 189 237 280 340 403
#     4  11  25  44  70  94 135 181 232 277 337 405
#     4  10  24  44  72  94 130 176 232 282 336 412
#     4  12  26  43  67  99 136 176 230 284 336 410
#
# _framework density 20.365076999999999
#
# number of rings (size 3 to 8) (size 9 to 14) (size 15 to 20)
#    0.000    0.533    6.000    2.000    2.800    1.067 
#    0.000    0.000    0.000    0.000    0.000    0.000 
#    0.000    0.000    0.000    0.000    0.000    0.000 
#
# Total GULP energy -744208.564903 kJ/mol
# GULP energy per Si atom -12403.476082 kJ/mol
# Density = 2.031873 g / cm^3
# Si number density = 20.365077 Si / 1000 Ang^3
#
#
#
# Elastic Constant Matrix: (Units=GPa)
#
#
# Indices 1 2 3 4 5 6 
#
# 1 89.8944 29.7725 52.1437 0.0000 0.0000 0.0000
# 2 29.7725 90.5339 43.6969 0.0000 0.0000 0.0000
# 3 52.1437 43.6969 175.9288 0.0000 0.0000 0.0000
# 4 0.0000 0.0000 0.0000 32.8415 0.0000 0.0000
# 5 0.0000 0.0000 0.0000 0.0000 27.5117 0.0000
# 6 0.0000 0.0000 0.0000 0.0000 0.0000 30.2590
#
#
#
# Elastic Compliance Matrix: (Units=1/GPa)
#
#
# Indices 1 2 3 4 5 6 
#
# 1 0.014107 -0.002978 -0.003441 0.000000 0.000000 0.000000
# 2 -0.002978 0.013179 -0.002391 0.000000 0.000000 0.000000
# 3 -0.003441 -0.002391 0.007298 0.000000 0.000000 0.000000
# 4 0.000000 0.000000 0.000000 0.030449 0.000000 0.000000
# 5 0.000000 0.000000 0.000000 0.000000 0.036348 0.000000
# 6 0.000000 0.000000 0.000000 0.000000 0.000000 0.033048
#
#
# Mechanical properties :
#
#
# Convention : Reuss Voigt Hill
#
# Bulk Modulus (GPa) = 58.95122 67.50925 63.23023
# Shear Modulus (GPa) = 31.70507 33.50537 32.60522
#
# Velocity S-wave (km/s) = 3.94996 4.06055 4.00564
# Velocity P-wave (km/s) = 7.05783 7.43005 7.24633
#
# Compressibility (1/GPa) = 0.01696318
#
# Stress axis : x y z
#
# Youngs Moduli (GPa) = 70.88846 75.87945 137.02544
#
# Poissons Ratio (x) = 0.22597 0.47156
# Poissons Ratio (y) = 0.21111 0.32758
# Poissons Ratio (z) = 0.24396 0.18140
#
# Static dielectric constant tensor:
#      x y z
#    x 3.539650 0.000000 0.000000 
#    y 0.000000 3.759690 0.000000 
#    z 0.000000 0.000000 3.971180 
# 
# 
# High freq. dielectric constant tensor:
#      x y z
#    x 1.780550 0.000000 0.000000 
#    y 0.000000 1.801970 0.000000 
#    z 0.000000 0.000000 1.813780 
# 
# From -- ./inp_files/18279.got.cif
#   From: 2010.03.12/outbox.cif.g09.slc.cpg/sg73_10_cif.got.tgz:18279.got - 2010.04.16 15:25:48.
