data_PCOD8296300
_publ_section_title
;
Structure prediction by ZEFSAII (Michael W. Deem and Ramdas Pophale) SiO2 
 PCOD8296300
Probable space group: I B C A 
;
_chemical_formula_sum "Si O2"
_cell_formula_units_Z 88
_cell_length_a 13.541612
_cell_length_b 19.585213
_cell_length_c 16.462484
_cell_angle_alpha 90.000000
_cell_angle_beta 90.000000
_cell_angle_gamma 90.000000
_cell_volume 4366.103545
_symmetry_space_group_name_H-M "I B C A "
_symmetry_group_IT_number 73
_symmetry_cell_setting 'orthorhombic'
loop_
_space_group_symop_operation_xyz
x,y,z
-x,1/2-y,z
x,-y,1/2-z
1/2-x,y,-z
-x,-y,-z
x,1/2+y,-z
-x,y,1/2+z
1/2+x,-y,z
1/2+x,1/2+y,1/2+z
1/2-x,-y,1/2+z
1/2+x,1/2-y,-z
-x,1/2+y,1/2-z
1/2-x,1/2-y,1/2-z
1/2+x,y,1/2-z
1/2-x,1/2+y,z
x,1/2-y,1/2+z
loop_
_atom_site_type_symbol
_atom_site_label
_atom_site_fract_x
_atom_site_fract_y
_atom_site_fract_z
Si Si1 0.668012 0.395897 0.707519
Si Si2 0.408522 0.206420 0.842894
Si Si3 0.493249 0.606072 0.539622
Si Si4 0.792389 0.676978 0.917704
Si Si5 0.168402 0.000000 0.750000
Si Si6 0.504073 0.966435 0.876223
O O1 0.629631 0.344501 0.775229
O O2 0.699724 0.358304 0.625510
O O3 0.765537 0.433803 0.737218
O O4 0.579900 0.448051 0.688757
O O5 0.500000 0.250000 0.807496
O O6 0.439242 0.167254 0.925936
O O7 0.323149 0.259613 0.862676
O O8 0.379782 0.622979 0.562384
O O9 0.528541 0.536539 0.582038
O O10 0.512166 0.594696 0.443162
O O11 0.750000 0.708077 0.000000
O O12 0.105441 0.020744 0.828795
#
# Coordination Sequence:
#
# PCOD8296300 Si02
#       6
#    16  16  16  16   8  16
#     4  12  24  42  65  97 129 169 213 267 325 383
#     4  10  24  43  64  91 131 170 217 268 316 381
#     4  10  21  44  64  93 128 170 214 264 327 380
#     4  11  22  43  64  91 128 170 216 263 314 389
#     4  12  24  38  66 100 134 160 216 268 326 388
#     4  11  23  40  69  94 131 170 208 272 327 382
#
# _framework density 20.155270999999999
#
# number of rings (size 3 to 8) (size 9 to 14) (size 15 to 20)
#    0.000    1.091    3.636    3.273    2.545    1.455 
#    3.273    1.818    0.000    0.000    0.000    0.000 
#    0.000    0.000    0.000    0.000    0.000    0.000 
#
# Total GULP energy -545632.942245 kJ/mol
# GULP energy per Si atom -12400.748687 kJ/mol
# Density = 2.010940 g / cm^3
# Si number density = 20.155271 Si / 1000 Ang^3
#
#
#
# Elastic Constant Matrix: (Units=GPa)
#
#
# Indices 1 2 3 4 5 6 
#
# 1 98.6056 52.4263 46.2412 0.0000 0.0000 0.0000
# 2 52.4263 87.8893 41.8719 0.0001 0.0000 0.0000
# 3 46.2412 41.8719 105.8825 0.0001 0.0000 0.0001
# 4 0.0000 0.0001 0.0001 37.9142 0.0000 0.0001
# 5 0.0000 0.0000 0.0000 0.0000 16.5795 0.0000
# 6 0.0000 0.0000 0.0001 0.0001 0.0000 26.6075
#
#
#
# Elastic Compliance Matrix: (Units=1/GPa)
#
#
# Indices 1 2 3 4 5 6 
#
# 1 0.016111 -0.007711 -0.003987 0.000000 0.000000 0.000000
# 2 -0.007711 0.017710 -0.003636 0.000000 0.000000 0.000000
# 3 -0.003987 -0.003636 0.012623 0.000000 0.000000 0.000000
# 4 0.000000 0.000000 0.000000 0.026375 0.000000 0.000000
# 5 0.000000 0.000000 0.000000 0.000000 0.060316 0.000000
# 6 0.000000 0.000000 0.000000 0.000000 0.000000 0.037583
#
#
# Mechanical properties :
#
#
# Convention : Reuss Voigt Hill
#
# Bulk Modulus (GPa) = 63.38337 63.71735 63.55036
# Shear Modulus (GPa) = 24.19628 26.34276 25.26952
#
# Velocity S-wave (km/s) = 3.46857 3.61915 3.54466
# Velocity P-wave (km/s) = 6.89617 7.01044 6.95354
#
# Compressibility (1/GPa) = 0.01577701
#
# Stress axis : x y z
#
# Youngs Moduli (GPa) = 62.07127 56.46636 79.21859
#
# Poissons Ratio (x) = 0.43540 0.31581
# Poissons Ratio (y) = 0.47861 0.28804
# Poissons Ratio (z) = 0.24745 0.20531
#
# Static dielectric constant tensor:
#      x y z
#    x 3.700180 0.000000 0.000000 
#    y 0.000000 3.698410 0.000000 
#    z 0.000000 0.000000 3.751550 
# 
# 
# High freq. dielectric constant tensor:
#      x y z
#    x 1.787010 0.000000 0.000000 
#    y 0.000000 1.792920 0.000000 
#    z 0.000000 0.000000 1.794270 
# 
# From -- ./inp_files/12754.got.cif
#   From: 2010.03.12/outbox.cif.g09.slc.cpg/sg73_7_cif.got.tgz:12754.got - 2010.04.16 15:25:48.
