data_PCOD8296718
_publ_section_title
;
Structure prediction by ZEFSAII (Michael W. Deem and Ramdas Pophale) SiO2 
 PCOD8296718
Probable space group: I B C A 
;
_chemical_formula_sum "Si O2"
_cell_formula_units_Z 120
_cell_length_a 27.263877
_cell_length_b 22.695398
_cell_length_c 8.843046
_cell_angle_alpha 90.000000
_cell_angle_beta 90.000000
_cell_angle_gamma 90.000000
_cell_volume 5471.763286
_symmetry_space_group_name_H-M "I B C A "
_symmetry_group_IT_number 73
_symmetry_cell_setting 'orthorhombic'
loop_
_space_group_symop_operation_xyz
x,y,z
-x,1/2-y,z
x,-y,1/2-z
1/2-x,y,-z
-x,-y,-z
x,1/2+y,-z
-x,y,1/2+z
1/2+x,-y,z
1/2+x,1/2+y,1/2+z
1/2-x,-y,1/2+z
1/2+x,1/2-y,-z
-x,1/2+y,1/2-z
1/2-x,1/2-y,1/2-z
1/2+x,y,1/2-z
1/2-x,1/2+y,z
x,1/2-y,1/2+z
loop_
_atom_site_type_symbol
_atom_site_label
_atom_site_fract_x
_atom_site_fract_y
_atom_site_fract_z
Si Si1 0.069216 0.188821 0.142449
Si Si2 0.707234 0.670350 0.256093
Si Si3 0.729912 0.561932 0.831782
Si Si4 0.529658 0.540080 0.886961
Si Si5 0.020283 0.159914 0.824546
Si Si6 0.608994 0.185921 0.869658
Si Si7 0.879285 0.390758 0.355242
Si Si8 0.750000 0.250545 0.000000
O O1 0.106550 0.243291 0.138630
O O2 0.100434 0.130620 0.190583
O O3 0.027474 0.198146 0.273118
O O4 0.043533 0.183128 0.979654
O O5 0.739297 0.610979 0.259659
O O6 0.649341 0.658127 0.244408
O O7 0.713968 0.707185 0.407933
O O8 0.718914 0.709386 0.109170
O O9 0.737204 0.500000 0.750000
O O10 0.673012 0.579177 0.834068
O O11 0.750000 0.556721 0.000000
O O12 0.545116 0.500000 0.750000
O O13 0.493822 0.592216 0.839482
O O14 0.582674 0.565150 0.940573
O O15 0.500000 0.500000 0.000000
O O16 0.057090 0.160426 0.683095
O O17 0.623380 0.167135 0.039494
#
# Coordination Sequence:
#
# PCOD8296718 Si02
#       8
#    16  16  16  16  16  16  16   8
#     4  11  25  42  69 101 143 189 225 288 363 438
#     4  11  25  45  72 105 141 184 242 301 369 439
#     4  12  27  52  72 104 148 194 248 315 375 448
#     4  11  22  42  65  92 128 178 228 288 338 402
#     4  11  24  42  62 102 140 179 233 282 347 441
#     4  12  24  40  67 100 139 180 225 285 358 431
#     4  11  24  46  71 101 138 184 244 295 363 439
#     4  10  24  44  72 102 140 178 232 308 366 426
#
# _framework density 21.930772000000001
#
# number of rings (size 3 to 8) (size 9 to 14) (size 15 to 20)
#    0.000    0.800    2.000    5.600    8.400    2.133 
#    2.400    0.000    0.000    0.000    0.000    0.000 
#    0.000    0.000    0.000    0.000    0.000    0.000 
#
# Total GULP energy -743973.804369 kJ/mol
# GULP energy per Si atom -12399.563406 kJ/mol
# Density = 2.188086 g / cm^3
# Si number density = 21.930772 Si / 1000 Ang^3
#
#
#
# Elastic Constant Matrix: (Units=GPa)
#
#
# Indices 1 2 3 4 5 6 
#
# 1 107.3628 45.5189 1.6768 0.0000 0.0000 0.0000
# 2 45.5189 125.9922 25.5221 0.0000 0.0000 0.0000
# 3 1.6768 25.5221 74.1260 0.0000 0.0000 0.0000
# 4 0.0000 0.0000 0.0000 -82.8479 0.0000 0.0000
# 5 0.0000 0.0000 0.0000 0.0000 29.7734 0.0000
# 6 0.0000 0.0000 0.0000 0.0000 0.0000 23.8119
#
#
#
# Elastic Compliance Matrix: (Units=1/GPa)
#
#
# Indices 1 2 3 4 5 6 
#
# 1 0.011100 -0.004256 0.001214 0.000000 0.000000 0.000000
# 2 -0.004256 0.010164 -0.003403 0.000000 0.000000 0.000000
# 3 0.001214 -0.003403 0.014635 0.000000 0.000000 0.000000
# 4 0.000000 0.000000 0.000000 -0.012070 0.000000 0.000000
# 5 0.000000 0.000000 0.000000 0.000000 0.033587 0.000000
# 6 0.000000 0.000000 0.000000 0.000000 0.000000 0.041996
#
#
# Mechanical properties :
#
#
# Convention : Reuss Voigt Hill
#
# Bulk Modulus (GPa) = 43.46224 50.32406 46.89315
# Shear Modulus (GPa) = 41.67684 9.79838 25.73761
#
# Velocity S-wave (km/s) = 4.36407 2.11603 3.42948
# Velocity P-wave (km/s) = 6.72714 5.38207 6.09184
#
# Compressibility (1/GPa) = 0.02300848
#
# Stress axis : x y z
#
# Youngs Moduli (GPa) = 90.09233 98.38586 68.33008
#
# Poissons Ratio (x) = 0.41874 -0.08298
# Poissons Ratio (y) = 0.38344 0.23255
# Poissons Ratio (z) = -0.10940 0.33483
#
# Static dielectric constant tensor:
#      x y z
#    x 4.185400 0.000000 0.000000 
#    y 0.000000 4.084750 0.000000 
#    z 0.000000 0.000000 4.246190 
# 
# 
# High freq. dielectric constant tensor:
#      x y z
#    x 1.874810 0.000000 0.000000 
#    y 0.000000 1.864920 0.000000 
#    z 0.000000 0.000000 1.861430 
# 
# From -- ./inp_files/8041.got.cif
#   From: 2010.03.12/outbox.cif.g09.slc.cpg/sg73_5_cif.got.tgz:8041.got - 2010.04.16 15:25:48.
