data_PCOD8296731
_publ_section_title
;
Structure prediction by ZEFSAII (Michael W. Deem and Ramdas Pophale) SiO2 
 PCOD8296731
Probable space group: I B C A 
;
_chemical_formula_sum "Si O2"
_cell_formula_units_Z 120
_cell_length_a 27.931615
_cell_length_b 8.610775
_cell_length_c 22.044727
_cell_angle_alpha 90.000000
_cell_angle_beta 90.000000
_cell_angle_gamma 90.000000
_cell_volume 5302.040166
_symmetry_space_group_name_H-M "I B C A "
_symmetry_group_IT_number 73
_symmetry_cell_setting 'orthorhombic'
loop_
_space_group_symop_operation_xyz
x,y,z
-x,1/2-y,z
x,-y,1/2-z
1/2-x,y,-z
-x,-y,-z
x,1/2+y,-z
-x,y,1/2+z
1/2+x,-y,z
1/2+x,1/2+y,1/2+z
1/2-x,-y,1/2+z
1/2+x,1/2-y,-z
-x,1/2+y,1/2-z
1/2-x,1/2-y,1/2-z
1/2+x,y,1/2-z
1/2-x,1/2+y,z
x,1/2-y,1/2+z
loop_
_atom_site_type_symbol
_atom_site_label
_atom_site_fract_x
_atom_site_fract_y
_atom_site_fract_z
Si Si1 0.602556 0.868291 0.527136
Si Si2 0.750000 0.752548 0.000000
Si Si3 0.197301 0.945895 0.682014
Si Si4 0.838323 0.075392 0.549280
Si Si5 0.909233 0.555963 0.642098
Si Si6 0.783415 0.877321 0.623234
Si Si7 0.548058 0.653934 0.904221
Si Si8 0.003906 0.565280 0.812125
O O1 0.617742 0.697741 0.551030
O O2 0.564630 0.876029 0.472472
O O3 0.650477 0.953650 0.504495
O O4 0.578144 0.962030 0.581131
O O5 0.712657 0.854745 0.035884
O O6 0.777917 0.661686 0.052221
O O7 0.143145 0.992064 0.665549
O O8 0.205275 0.762420 0.669694
O O9 0.207742 0.000000 0.750000
O O10 0.234475 0.039853 0.641671
O O11 0.830087 0.992930 0.616197
O O12 0.911416 0.741072 0.629193
O O13 0.950417 0.506766 0.688578
O O14 0.500000 0.750000 0.905995
O O15 0.537587 0.494637 0.867515
O O16 0.027439 0.500000 0.750000
O O17 0.000000 0.750000 0.814166
#
# Coordination Sequence:
#
# PCOD8296731 Si02
#       8
#    16   8  16  16  16  16  16  16
#     4  12  24  41  64 104 145 177 229 296 370 443
#     4  12  22  38  66  96 134 170 232 290 362 418
#     4  12  27  48  69  99 143 197 244 302 368 437
#     4  12  24  37  65  98 139 183 227 290 363 437
#     4  11  24  44  71 100 141 189 237 301 372 437
#     4  12  25  42  69 101 139 188 246 301 368 443
#     4  10  24  45  71 102 142 184 227 296 375 444
#     4  11  25  47  75 103 136 189 251 303 364 447
#
# _framework density 22.632797
#
# number of rings (size 3 to 8) (size 9 to 14) (size 15 to 20)
#    0.000    0.533    4.000    4.800    1.867    2.667 
#    0.000    0.000    0.000    3.200    0.000    0.000 
#    0.000    0.000    0.000    0.000    0.000    0.000 
#
# Total GULP energy -743691.275284 kJ/mol
# GULP energy per Si atom -12394.854588 kJ/mol
# Density = 2.258128 g / cm^3
# Si number density = 22.632797 Si / 1000 Ang^3
#
#
#
# Elastic Constant Matrix: (Units=GPa)
#
#
# Indices 1 2 3 4 5 6 
#
# 1 58.4817 29.3698 27.3194 0.0000 0.0000 0.0000
# 2 29.3698 143.1516 53.1869 0.0000 0.0000 0.0000
# 3 27.3194 53.1869 105.2190 0.0000 0.0000 0.0000
# 4 0.0000 0.0000 0.0000 39.6093 0.0000 0.0000
# 5 0.0000 0.0000 0.0000 0.0000 33.4502 0.0000
# 6 0.0000 0.0000 0.0000 0.0000 0.0000 -26.2237
#
#
#
# Elastic Compliance Matrix: (Units=1/GPa)
#
#
# Indices 1 2 3 4 5 6 
#
# 1 0.020282 -0.002714 -0.003894 0.000000 0.000000 0.000000
# 2 -0.002714 0.008964 -0.003827 0.000000 0.000000 0.000000
# 3 -0.003894 -0.003827 0.012449 0.000000 0.000000 0.000000
# 4 0.000000 0.000000 0.000000 0.025247 0.000000 0.000000
# 5 0.000000 0.000000 0.000000 0.000000 0.029895 0.000000
# 6 0.000000 0.000000 0.000000 0.000000 0.000000 -0.038133
#
#
# Mechanical properties :
#
#
# Convention : Reuss Voigt Hill
#
# Bulk Modulus (GPa) = 48.01810 58.51160 53.26485
# Shear Modulus (GPa) = 57.79364 22.49891 40.14627
#
# Velocity S-wave (km/s) = 5.05873 3.15633 4.21623
# Velocity P-wave (km/s) = 7.44199 6.26035 6.87660
#
# Compressibility (1/GPa) = 0.02082548
#
# Stress axis : x y z
#
# Youngs Moduli (GPa) = 49.30595 111.55481 80.32591
#
# Poissons Ratio (x) = 0.30279 0.31278
# Poissons Ratio (y) = 0.13383 0.30737
# Poissons Ratio (z) = 0.19199 0.42687
#
# Static dielectric constant tensor:
#      x y z
#    x 4.080510 0.000000 0.000000 
#    y 0.000000 4.581930 0.000000 
#    z 0.000000 0.000000 4.003250 
# 
# 
# High freq. dielectric constant tensor:
#      x y z
#    x 1.898600 0.000000 0.000000 
#    y 0.000000 1.907370 0.000000 
#    z 0.000000 0.000000 1.878630 
# 
# From -- ./inp_files/30542.got.cif
#   From: 2010.03.12/outbox.cif.g09.slc.cpg/sg73_16_cif.got.tgz:30542.got - 2010.04.16 15:25:48.
