data_PCOD8296281
_publ_section_title
;
Structure prediction by ZEFSAII (Michael W. Deem and Ramdas Pophale) SiO2 
 PCOD8296281
Probable space group: I B C A 
;
_chemical_formula_sum "Si O2"
_cell_formula_units_Z 88
_cell_length_a 15.865667
_cell_length_b 19.553684
_cell_length_c 13.985486
_cell_angle_alpha 90.000000
_cell_angle_beta 90.000000
_cell_angle_gamma 90.000000
_cell_volume 4338.748635
_symmetry_space_group_name_H-M "I B C A "
_symmetry_group_IT_number 73
_symmetry_cell_setting 'orthorhombic'
loop_
_space_group_symop_operation_xyz
x,y,z
-x,1/2-y,z
x,-y,1/2-z
1/2-x,y,-z
-x,-y,-z
x,1/2+y,-z
-x,y,1/2+z
1/2+x,-y,z
1/2+x,1/2+y,1/2+z
1/2-x,-y,1/2+z
1/2+x,1/2-y,-z
-x,1/2+y,1/2-z
1/2-x,1/2-y,1/2-z
1/2+x,y,1/2-z
1/2-x,1/2+y,z
x,1/2-y,1/2+z
loop_
_atom_site_type_symbol
_atom_site_label
_atom_site_fract_x
_atom_site_fract_y
_atom_site_fract_z
Si Si1 0.250000 0.494882 0.000000
Si Si2 0.732364 0.683181 0.807931
Si Si3 0.629238 0.380390 0.425148
Si Si4 0.049398 0.178854 0.393435
Si Si5 0.499411 0.920445 0.231642
Si Si6 0.818781 0.935066 0.816878
O O1 0.170804 0.448661 0.030832
O O2 0.279338 0.545885 0.082350
O O3 0.750000 0.750000 0.750000
O O4 0.796998 0.672709 0.895914
O O5 0.640338 0.690796 0.849839
O O6 0.740569 0.619821 0.734993
O O7 0.562861 0.348367 0.499257
O O8 0.579158 0.395575 0.329062
O O9 0.999935 0.121963 0.331209
O O10 0.000000 0.250000 0.395090
O O11 0.585861 0.906715 0.172546
O O12 0.486069 0.000000 0.250000
O O13 0.823728 0.000000 0.750000
#
# Coordination Sequence:
#
# PCOD8296281 Si02
#       6
#     8  16  16  16  16  16
#     4  12  22  40  70  98 134 178 222 280 342 406
#     4  11  23  43  66  94 135 176 221 279 338 401
#     4  12  23  43  68  98 137 179 223 284 346 396
#     4  11  24  45  66  94 134 179 227 276 344 407
#     4  10  24  42  66  97 133 173 223 284 338 403
#     4  10  21  43  64  94 134 173 221 274 332 405
#
# _framework density 20.282346
#
# number of rings (size 3 to 8) (size 9 to 14) (size 15 to 20)
#    0.000    1.091    3.636    3.273    2.545    6.545 
#    6.545    0.000    0.000    0.000    0.000    0.000 
#    0.000    0.000    0.000    0.000    0.000    0.000 
#
# Total GULP energy -545694.828028 kJ/mol
# GULP energy per Si atom -12402.155182 kJ/mol
# Density = 2.023618 g / cm^3
# Si number density = 20.282346 Si / 1000 Ang^3
#
#
#
# Elastic Constant Matrix: (Units=GPa)
#
#
# Indices 1 2 3 4 5 6 
#
# 1 91.4418 49.8444 63.6773 0.0000 0.0000 0.0000
# 2 49.8444 119.3277 52.5198 0.0000 0.0000 0.0000
# 3 63.6773 52.5198 128.0474 0.0000 0.0000 0.0000
# 4 0.0000 0.0000 0.0000 36.2087 0.0000 0.0000
# 5 0.0000 0.0000 0.0000 0.0000 43.1234 0.0000
# 6 0.0000 0.0000 0.0000 0.0000 0.0000 35.6352
#
#
#
# Elastic Compliance Matrix: (Units=1/GPa)
#
#
# Indices 1 2 3 4 5 6 
#
# 1 0.018512 -0.004492 -0.007364 0.000000 0.000000 0.000000
# 2 -0.004492 0.011316 -0.002408 0.000000 0.000000 0.000000
# 3 -0.007364 -0.002408 0.012459 0.000000 0.000000 0.000000
# 4 0.000000 0.000000 0.000000 0.027618 0.000000 0.000000
# 5 0.000000 0.000000 0.000000 0.000000 0.023189 0.000000
# 6 0.000000 0.000000 0.000000 0.000000 0.000000 0.028062
#
#
# Mechanical properties :
#
#
# Convention : Reuss Voigt Hill
#
# Bulk Modulus (GPa) = 72.66814 74.54440 73.60627
# Shear Modulus (GPa) = 32.41072 34.51183 33.46127
#
# Velocity S-wave (km/s) = 4.00181 4.12948 4.06615
# Velocity P-wave (km/s) = 7.56695 7.71816 7.64293
#
# Compressibility (1/GPa) = 0.01376119
#
# Stress axis : x y z
#
# Youngs Moduli (GPa) = 54.01854 88.36847 80.26277
#
# Poissons Ratio (x) = 0.39693 0.59103
# Poissons Ratio (y) = 0.24264 0.19325
# Poissons Ratio (z) = 0.39777 0.21277
#
# Static dielectric constant tensor:
#      x y z
#    x 3.933070 0.000000 0.000000 
#    y 0.000000 3.658360 0.000000 
#    z 0.000000 0.000000 3.745230 
# 
# 
# High freq. dielectric constant tensor:
#      x y z
#    x 1.802750 0.000000 0.000000 
#    y 0.000000 1.790040 0.000000 
#    z 0.000000 0.000000 1.797800 
# 
# From -- ./inp_files/16946.got.cif
#   From: 2010.03.12/outbox.cif.g09.slc.cpg/sg73_9_cif.got.tgz:16946.got - 2010.04.16 15:25:48.
