data_PCOD8296000
_publ_section_title
;
Structure prediction by ZEFSAII (Michael W. Deem and Ramdas Pophale) SiO2 
 PCOD8296000
Probable space group: I B C A 
;
_chemical_formula_sum "Si O2"
_cell_formula_units_Z 96
_cell_length_a 14.296767
_cell_length_b 24.961896
_cell_length_c 13.728593
_cell_angle_alpha 90.000000
_cell_angle_beta 90.000000
_cell_angle_gamma 90.000000
_cell_volume 4899.383541
_symmetry_space_group_name_H-M "I B C A "
_symmetry_group_IT_number 73
_symmetry_cell_setting 'orthorhombic'
loop_
_space_group_symop_operation_xyz
x,y,z
-x,1/2-y,z
x,-y,1/2-z
1/2-x,y,-z
-x,-y,-z
x,1/2+y,-z
-x,y,1/2+z
1/2+x,-y,z
1/2+x,1/2+y,1/2+z
1/2-x,-y,1/2+z
1/2+x,1/2-y,-z
-x,1/2+y,1/2-z
1/2-x,1/2-y,1/2-z
1/2+x,y,1/2-z
1/2-x,1/2+y,z
x,1/2-y,1/2+z
loop_
_atom_site_type_symbol
_atom_site_label
_atom_site_fract_x
_atom_site_fract_y
_atom_site_fract_z
Si Si1 0.698180 0.192308 0.325446
Si Si2 0.467342 0.867119 0.740224
Si Si3 0.421617 0.435239 0.081754
Si Si4 0.250000 0.625336 0.500000
Si Si5 0.421790 0.944368 0.569458
Si Si6 0.848840 0.693604 0.835001
Si Si7 0.750000 0.614258 0.500000
O O1 0.619946 0.172572 0.248604
O O2 0.789579 0.201366 0.262235
O O3 0.649970 0.245071 0.375255
O O4 0.733852 0.151308 0.406894
O O5 0.481583 0.899797 0.840737
O O6 0.428123 0.908215 0.662756
O O7 0.555424 0.833523 0.701369
O O8 0.404273 0.496472 0.113370
O O9 0.320397 0.410379 0.062668
O O10 0.479048 0.438519 0.982574
O O11 0.192276 0.659634 0.422858
O O12 0.340078 0.925157 0.494956
#
# Coordination Sequence:
#
# PCOD8296000 Si02
#       7
#    16  16  16   8  16  16   8
#     4  10  22  38  61  87 123 158 202 253 307 372
#     4  11  21  39  62  89 123 163 200 258 306 370
#     4  11  22  39  61  90 121 161 204 253 311 363
#     4  12  22  40  64  90 120 164 202 260 300 374
#     4  10  22  38  61  87 123 158 202 253 307 372
#     4  11  22  39  61  90 121 161 204 253 311 363
#     4  10  20  40  60  86 118 162 198 252 308 366
#
# _framework density 19.594301999999999
#
# number of rings (size 3 to 8) (size 9 to 14) (size 15 to 20)
#    0.000    1.333    3.333    3.000    0.000    0.000 
#    0.000    0.000    0.000    0.000    0.000    0.000 
#    0.000    0.000    0.000    0.000    0.000    0.000 
#
# Total GULP energy -594687.261899 kJ/mol
# GULP energy per Si atom -12389.317956 kJ/mol
# Density = 1.954970 g / cm^3
# Si number density = 19.594302 Si / 1000 Ang^3
#
#
#
# Elastic Constant Matrix: (Units=GPa)
#
#
# Indices 1 2 3 4 5 6 
#
# 1 84.1627 36.5554 15.0501 -0.0001 0.0000 0.0000
# 2 36.5554 102.2686 10.8081 0.0001 0.0000 -0.0001
# 3 15.0501 10.8081 49.7254 0.0001 0.0001 -0.0001
# 4 -0.0001 0.0001 0.0001 17.6644 0.0000 0.0000
# 5 0.0000 0.0000 0.0001 0.0000 33.2104 0.0000
# 6 0.0000 -0.0001 -0.0001 0.0000 0.0000 18.1777
#
#
#
# Elastic Compliance Matrix: (Units=1/GPa)
#
#
# Indices 1 2 3 4 5 6 
#
# 1 0.014594 -0.004861 -0.003360 0.000000 0.000000 0.000000
# 2 -0.004861 0.011627 -0.001056 0.000000 0.000000 0.000000
# 3 -0.003360 -0.001056 0.021357 0.000000 0.000000 0.000000
# 4 0.000000 0.000000 0.000000 0.056611 0.000000 0.000000
# 5 0.000000 0.000000 0.000000 0.000000 0.030111 0.000000
# 6 0.000000 0.000000 0.000000 0.000000 0.000000 0.055012
#
#
# Mechanical properties :
#
#
# Convention : Reuss Voigt Hill
#
# Bulk Modulus (GPa) = 34.45541 40.10933 37.28237
# Shear Modulus (GPa) = 22.98394 25.39339 24.18867
#
# Velocity S-wave (km/s) = 3.42861 3.60385 3.51732
# Velocity P-wave (km/s) = 5.77030 6.15071 5.96354
#
# Compressibility (1/GPa) = 0.02902302
#
# Stress axis : x y z
#
# Youngs Moduli (GPa) = 68.52023 86.00318 46.82294
#
# Poissons Ratio (x) = 0.41810 0.15735
# Poissons Ratio (y) = 0.33311 0.04944
# Poissons Ratio (z) = 0.23026 0.09081
#
# Static dielectric constant tensor:
#      x y z
#    x 3.730320 0.000000 0.000000 
#    y 0.000000 4.102410 0.000000 
#    z 0.000000 0.000000 3.390350 
# 
# 
# High freq. dielectric constant tensor:
#      x y z
#    x 1.768530 0.000000 0.000000 
#    y 0.000000 1.784890 0.000000 
#    z 0.000000 0.000000 1.753430 
# 
# From -- ./inp_files/17218.got.cif
#   From: 2010.03.12/outbox.cif.g09.slc.cpg/sg73_9_cif.got.tgz:17218.got - 2010.04.16 15:25:48.
