data_PCOD8296142
_publ_section_title
;
Structure prediction by ZEFSAII (Michael W. Deem and Ramdas Pophale) SiO2 
 PCOD8296142
Probable space group: I B C A 
;
_chemical_formula_sum "Si O2"
_cell_formula_units_Z 64
_cell_length_a 15.483881
_cell_length_b 19.815126
_cell_length_c 8.676416
_cell_angle_alpha 90.000000
_cell_angle_beta 90.000000
_cell_angle_gamma 90.000000
_cell_volume 2662.055035
_symmetry_space_group_name_H-M "I B C A "
_symmetry_group_IT_number 73
_symmetry_cell_setting 'orthorhombic'
loop_
_space_group_symop_operation_xyz
x,y,z
-x,1/2-y,z
x,-y,1/2-z
1/2-x,y,-z
-x,-y,-z
x,1/2+y,-z
-x,y,1/2+z
1/2+x,-y,z
1/2+x,1/2+y,1/2+z
1/2-x,-y,1/2+z
1/2+x,1/2-y,-z
-x,1/2+y,1/2-z
1/2-x,1/2-y,1/2-z
1/2+x,y,1/2-z
1/2-x,1/2+y,z
x,1/2-y,1/2+z
loop_
_atom_site_type_symbol
_atom_site_label
_atom_site_fract_x
_atom_site_fract_y
_atom_site_fract_z
Si Si1 0.163255 0.071433 0.686636
Si Si2 0.581533 0.794742 0.213996
Si Si3 0.162701 0.807381 0.595442
Si Si4 0.133231 0.568508 0.662419
O O1 0.130421 0.130401 0.799018
O O2 0.117772 0.072264 0.520374
O O3 0.265828 0.080166 0.687907
O O4 0.134092 0.000000 0.750000
O O5 0.500000 0.750000 0.264417
O O6 0.665593 0.759631 0.296630
O O7 0.575562 0.872237 0.265874
O O8 0.589110 0.793699 0.030556
O O9 0.250000 0.822479 0.500000
O O10 0.104119 0.500000 0.750000
#
# Coordination Sequence:
#
# PCOD8296142 Si02
#       4
#    16  16  16  16
#     4  10  21  37  68 109 142 176 231 288 347 413
#     4  12  26  43  66 100 143 187 234 292 355 419
#     4  12  24  42  68 101 138 185 238 293 344 415
#     4  10  21  40  69 104 144 181 225 288 352 422
#
# _framework density 24.041575999999999
#
# number of rings (size 3 to 8) (size 9 to 14) (size 15 to 20)
#    0.000    1.000    2.500    4.500    7.000    0.000 
#    0.000    2.500    0.000    7.500    0.000    0.000 
#    0.000    0.000    0.000    0.000    0.000    0.000 
#
# Total GULP energy -396711.675875 kJ/mol
# GULP energy per Si atom -12397.239871 kJ/mol
# Density = 2.398686 g / cm^3
# Si number density = 24.041576 Si / 1000 Ang^3
#
#
#
# Elastic Constant Matrix: (Units=GPa)
#
#
# Indices 1 2 3 4 5 6 
#
# 1 45.0788 30.9370 24.3142 0.0000 0.0000 0.0000
# 2 30.9370 221.1771 98.4415 0.0000 0.0000 0.0000
# 3 24.3142 98.4415 205.6107 0.0000 0.0000 0.0000
# 4 0.0000 0.0000 0.0000 57.8649 0.0000 0.0000
# 5 0.0000 0.0000 0.0000 0.0000 17.2742 0.0000
# 6 0.0000 0.0000 0.0000 0.0000 0.0000 29.7223
#
#
#
# Elastic Compliance Matrix: (Units=1/GPa)
#
#
# Indices 1 2 3 4 5 6 
#
# 1 0.024960 -0.002767 -0.001627 0.000000 0.000000 0.000000
# 2 -0.002767 0.006052 -0.002571 0.000000 0.000000 0.000000
# 3 -0.001627 -0.002571 0.006287 0.000000 0.000000 0.000000
# 4 0.000000 0.000000 0.000000 0.017282 0.000000 0.000000
# 5 0.000000 0.000000 0.000000 0.000000 0.057890 0.000000
# 6 0.000000 0.000000 0.000000 0.000000 0.000000 0.033645
#
#
# Mechanical properties :
#
#
# Convention : Reuss Voigt Hill
#
# Bulk Modulus (GPa) = 42.78985 86.58355 64.68670
# Shear Modulus (GPa) = 29.79134 42.18388 35.98761
#
# Velocity S-wave (km/s) = 3.52399 4.19337 3.87316
# Velocity P-wave (km/s) = 5.86472 7.71609 6.85321
#
# Compressibility (1/GPa) = 0.02337003
#
# Stress axis : x y z
#
# Youngs Moduli (GPa) = 40.06423 165.22335 159.06787
#
# Poissons Ratio (x) = 0.45721 0.25876
# Poissons Ratio (y) = 0.11087 0.40889
# Poissons Ratio (z) = 0.06517 0.42471
#
# Static dielectric constant tensor:
#      x y z
#    x 3.748600 0.000000 0.000000 
#    y 0.000000 4.392140 0.000000 
#    z 0.000000 0.000000 4.744240 
# 
# 
# High freq. dielectric constant tensor:
#      x y z
#    x 1.922010 0.000000 0.000000 
#    y 0.000000 1.964040 0.000000 
#    z 0.000000 0.000000 1.979800 
# 
# From -- ./inp_files/5223.got.cif
#   From: 2010.03.12/outbox.cif.g09.slc.cpg/sg73_3_cif.got.tgz:5223.got - 2010.04.16 15:25:48.
