data_PCOD8296492
_publ_section_title
;
Structure prediction by ZEFSAII (Michael W. Deem and Ramdas Pophale) SiO2 
 PCOD8296492
Probable space group: I B C A 
;
_chemical_formula_sum "Si O2"
_cell_formula_units_Z 72
_cell_length_a 11.124280
_cell_length_b 15.116548
_cell_length_c 18.431387
_cell_angle_alpha 90.000000
_cell_angle_beta 90.000000
_cell_angle_gamma 90.000000
_cell_volume 3099.435172
_symmetry_space_group_name_H-M "I B C A "
_symmetry_group_IT_number 73
_symmetry_cell_setting 'orthorhombic'
loop_
_space_group_symop_operation_xyz
x,y,z
-x,1/2-y,z
x,-y,1/2-z
1/2-x,y,-z
-x,-y,-z
x,1/2+y,-z
-x,y,1/2+z
1/2+x,-y,z
1/2+x,1/2+y,1/2+z
1/2-x,-y,1/2+z
1/2+x,1/2-y,-z
-x,1/2+y,1/2-z
1/2-x,1/2-y,1/2-z
1/2+x,y,1/2-z
1/2-x,1/2+y,z
x,1/2-y,1/2+z
loop_
_atom_site_type_symbol
_atom_site_label
_atom_site_fract_x
_atom_site_fract_y
_atom_site_fract_z
Si Si1 0.519810 0.652356 0.654565
Si Si2 0.750000 0.038622 0.500000
Si Si3 0.408926 0.500000 0.750000
Si Si4 0.000000 0.750000 0.111338
Si Si5 0.797353 0.370814 0.858600
Si Si6 0.617151 0.128070 0.999017
O O1 0.500000 0.750000 0.687434
O O2 0.488732 0.575003 0.711190
O O3 0.661111 0.656604 0.645807
O O4 0.448218 0.638859 0.578830
O O5 0.686722 0.098881 0.559135
O O6 0.639020 0.974300 0.476124
O O7 0.322137 0.546419 0.807132
O O8 0.111358 0.711280 0.158721
O O9 0.038416 0.831698 0.062197
O O10 0.750000 0.175165 0.000000
#
# Coordination Sequence:
#
# PCOD8296492 Si02
#       6
#    16   8   8   8  16  16
#     4  12  26  49  77 105 155 204 254 317 383 461
#     4  10  24  44  74 106 148 194 254 314 374 452
#     4  12  28  52  72 116 152 208 254 314 386 470
#     4  12  26  42  74 110 152 188 260 320 374 452
#     4  12  28  47  76 111 151 204 253 317 388 453
#     4  10  22  43  71 111 145 188 251 312 379 440
#
# _framework density 23.230039999999999
#
# number of rings (size 3 to 8) (size 9 to 14) (size 15 to 20)
#    0.667    0.000    3.333    3.333    6.222    2.667 
#    4.000    0.000    0.000    0.000    0.000    0.000 
#    0.000    0.000    0.000    0.000    0.000    0.000 
#
# Total GULP energy -446024.788800 kJ/mol
# GULP energy per Si atom -12389.577467 kJ/mol
# Density = 2.317717 g / cm^3
# Si number density = 23.230040 Si / 1000 Ang^3
#
#
#
# Elastic Constant Matrix: (Units=GPa)
#
#
# Indices 1 2 3 4 5 6 
#
# 1 184.0899 62.5277 40.9958 0.0000 0.0000 0.0000
# 2 62.5277 137.0937 39.2895 0.0000 0.0000 0.0000
# 3 40.9958 39.2895 87.7693 0.0000 0.0000 0.0000
# 4 0.0000 0.0000 0.0000 34.5227 0.0000 0.0000
# 5 0.0000 0.0000 0.0000 0.0000 -14.1924 0.0000
# 6 0.0000 0.0000 0.0000 0.0000 0.0000 52.0111
#
#
#
# Elastic Compliance Matrix: (Units=1/GPa)
#
#
# Indices 1 2 3 4 5 6 
#
# 1 0.006729 -0.002487 -0.002030 0.000000 0.000000 0.000000
# 2 -0.002487 0.009287 -0.002996 0.000000 0.000000 0.000000
# 3 -0.002030 -0.002996 0.013682 0.000000 0.000000 0.000000
# 4 0.000000 0.000000 0.000000 0.028966 0.000000 0.000000
# 5 0.000000 0.000000 0.000000 0.000000 -0.070460 0.000000
# 6 0.000000 0.000000 0.000000 0.000000 0.000000 0.019227
#
#
# Mechanical properties :
#
#
# Convention : Reuss Voigt Hill
#
# Bulk Modulus (GPa) = 68.14938 77.17543 72.66241
# Shear Modulus (GPa) = 182.82912 32.21094 107.52003
#
# Velocity S-wave (km/s) = 8.88114 3.72776 6.81068
# Velocity P-wave (km/s) = 11.60028 7.19879 9.65373
#
# Compressibility (1/GPa) = 0.01467365
#
# Stress axis : x y z
#
# Youngs Moduli (GPa) = 148.61143 107.67432 73.08648
#
# Poissons Ratio (x) = 0.26783 0.14833
# Poissons Ratio (y) = 0.36966 0.21894
# Poissons Ratio (z) = 0.30161 0.32255
#
# Static dielectric constant tensor:
#      x y z
#    x 4.265430 0.000000 0.000000 
#    y 0.000000 4.581520 0.000000 
#    z 0.000000 0.000000 4.133870 
# 
# 
# High freq. dielectric constant tensor:
#      x y z
#    x 1.938910 0.000000 0.000000 
#    y 0.000000 1.931270 0.000000 
#    z 0.000000 0.000000 1.899780 
# 
# From -- ./inp_files/25276.got.cif
#   From: 2010.03.12/outbox.cif.g09.slc.cpg/sg73_13_cif.got.tgz:25276.got - 2010.04.16 15:25:48.
