data_PCOD8296764
_publ_section_title
;
Structure prediction by ZEFSAII (Michael W. Deem and Ramdas Pophale) SiO2 
 PCOD8296764
Probable space group: I B C A 
;
_chemical_formula_sum "Si O2"
_cell_formula_units_Z 112
_cell_length_a 14.606152
_cell_length_b 14.257809
_cell_length_c 25.490114
_cell_angle_alpha 90.000000
_cell_angle_beta 90.000000
_cell_angle_gamma 90.000000
_cell_volume 5308.360222
_symmetry_space_group_name_H-M "I B C A "
_symmetry_group_IT_number 73
_symmetry_cell_setting 'orthorhombic'
loop_
_space_group_symop_operation_xyz
x,y,z
-x,1/2-y,z
x,-y,1/2-z
1/2-x,y,-z
-x,-y,-z
x,1/2+y,-z
-x,y,1/2+z
1/2+x,-y,z
1/2+x,1/2+y,1/2+z
1/2-x,-y,1/2+z
1/2+x,1/2-y,-z
-x,1/2+y,1/2-z
1/2-x,1/2-y,1/2-z
1/2+x,y,1/2-z
1/2-x,1/2+y,z
x,1/2-y,1/2+z
loop_
_atom_site_type_symbol
_atom_site_label
_atom_site_fract_x
_atom_site_fract_y
_atom_site_fract_z
Si Si1 0.851004 0.510898 0.474299
Si Si2 0.466195 0.006941 0.189762
Si Si3 0.485378 0.357072 0.992515
Si Si4 0.202225 0.369666 0.294268
Si Si5 0.759099 0.327616 0.678377
Si Si6 0.568731 0.826856 0.626561
Si Si7 0.838993 0.503304 0.355853
O O1 0.750000 0.508234 0.500000
O O2 0.902425 0.409497 0.477229
O O3 0.838241 0.543613 0.414593
O O4 0.918472 0.587903 0.501210
O O5 0.425734 0.912526 0.166468
O O6 0.492581 0.000000 0.250000
O O7 0.389609 0.086604 0.181093
O O8 0.559034 0.026331 0.159362
O O9 0.500000 0.250000 0.012503
O O10 0.454638 0.357534 0.931929
O O11 0.204424 0.380543 0.231189
O O12 0.194956 0.259072 0.306104
O O13 0.292981 0.419416 0.317869
O O14 0.831986 0.282733 0.637312
O O15 0.711126 0.404778 0.643261
O O16 0.500000 0.750000 0.648314
#
# Coordination Sequence:
#
# PCOD8296764 Si02
#       7
#    16  16  16  16  16  16  16
#     4  11  25  45  69  98 130 171 219 277 344 401
#     4  12  22  40  66  95 134 178 214 267 328 385
#     4  10  24  47  69  98 131 168 225 283 331 408
#     4  11  24  41  63  97 137 178 224 271 323 396
#     4  11  23  42  63  96 138 177 221 276 322 395
#     4  11  21  40  69  93 125 176 226 264 327 397
#     4  12  24  43  65  98 132 174 220 274 337 393
#
# _framework density 21.098794999999999
#
# number of rings (size 3 to 8) (size 9 to 14) (size 15 to 20)
#    0.000    0.857    4.286    3.000    2.000    2.286 
#    5.143    0.000    0.000    0.000    0.000    0.000 
#    0.000    0.000    0.000    0.000    0.000    0.000 
#
# Total GULP energy -694119.683215 kJ/mol
# GULP energy per Si atom -12394.994343 kJ/mol
# Density = 2.105077 g / cm^3
# Si number density = 21.098795 Si / 1000 Ang^3
#
#
#
# Elastic Constant Matrix: (Units=GPa)
#
#
# Indices 1 2 3 4 5 6 
#
# 1 131.1875 26.4075 24.5089 0.0000 0.0000 0.0000
# 2 26.4075 94.6816 6.8389 0.0000 0.0000 0.0000
# 3 24.5089 6.8389 61.1455 0.0000 0.0000 0.0000
# 4 0.0000 0.0000 0.0000 38.1719 0.0000 0.0000
# 5 0.0000 0.0000 0.0000 0.0000 11.6920 0.0000
# 6 0.0000 0.0000 0.0000 0.0000 0.0000 -3.4270
#
#
#
# Elastic Compliance Matrix: (Units=1/GPa)
#
#
# Indices 1 2 3 4 5 6 
#
# 1 0.008666 -0.002184 -0.003229 0.000000 0.000000 0.000000
# 2 -0.002184 0.011198 -0.000377 0.000000 0.000000 0.000000
# 3 -0.003229 -0.000377 0.017691 0.000000 0.000000 0.000000
# 4 0.000000 0.000000 0.000000 0.026197 0.000000 0.000000
# 5 0.000000 0.000000 0.000000 0.000000 0.085528 0.000000
# 6 0.000000 0.000000 0.000000 0.000000 0.000000 -0.291800
#
#
# Mechanical properties :
#
#
# Convention : Reuss Voigt Hill
#
# Bulk Modulus (GPa) = 38.49929 44.72502 41.61216
# Shear Modulus (GPa) = -40.88926 24.57133 -8.15896
#
# Velocity S-wave (km/s) = -4.40704 3.41630 -1.96861
# Velocity P-wave (km/s) = 2.75848 6.06675 3.82075
#
# Compressibility (1/GPa) = 0.02597450
#
# Stress axis : x y z
#
# Youngs Moduli (GPa) = 115.39988 89.30164 56.52601
#
# Poissons Ratio (x) = 0.19500 0.18253
# Poissons Ratio (y) = 0.25199 0.02132
# Poissons Ratio (z) = 0.37264 0.03368
#
# Static dielectric constant tensor:
#      x y z
#    x 4.245630 0.000000 0.000000 
#    y 0.000000 3.863960 0.000000 
#    z 0.000000 0.000000 3.750240 
# 
# 
# High freq. dielectric constant tensor:
#      x y z
#    x 1.838890 0.000000 0.000000 
#    y 0.000000 1.832470 0.000000 
#    z 0.000000 0.000000 1.818050 
# 
# From -- ./inp_files/17235.got.cif
#   From: 2010.03.12/outbox.cif.g09.slc.cpg/sg73_9_cif.got.tgz:17235.got - 2010.04.16 15:25:48.
