data_PCOD8296485
_publ_section_title
;
Structure prediction by ZEFSAII (Michael W. Deem and Ramdas Pophale) SiO2 
 PCOD8296485
Probable space group: I B C A 
;
_chemical_formula_sum "Si O2"
_cell_formula_units_Z 88
_cell_length_a 10.478359
_cell_length_b 25.461970
_cell_length_c 14.015486
_cell_angle_alpha 90.000000
_cell_angle_beta 90.000000
_cell_angle_gamma 90.000000
_cell_volume 3739.326935
_symmetry_space_group_name_H-M "I B C A "
_symmetry_group_IT_number 73
_symmetry_cell_setting 'orthorhombic'
loop_
_space_group_symop_operation_xyz
x,y,z
-x,1/2-y,z
x,-y,1/2-z
1/2-x,y,-z
-x,-y,-z
x,1/2+y,-z
-x,y,1/2+z
1/2+x,-y,z
1/2+x,1/2+y,1/2+z
1/2-x,-y,1/2+z
1/2+x,1/2-y,-z
-x,1/2+y,1/2-z
1/2-x,1/2-y,1/2-z
1/2+x,y,1/2-z
1/2-x,1/2+y,z
x,1/2-y,1/2+z
loop_
_atom_site_type_symbol
_atom_site_label
_atom_site_fract_x
_atom_site_fract_y
_atom_site_fract_z
Si Si1 0.172686 0.537323 0.841179
Si Si2 0.130304 0.729617 0.148184
Si Si3 0.045226 0.897087 0.918478
Si Si4 0.618114 0.719794 0.132475
Si Si5 0.645438 0.615427 0.419758
Si Si6 0.250000 0.967118 0.000000
O O1 0.169310 0.500000 0.750000
O O2 0.309361 0.568001 0.849276
O O3 0.155472 0.503042 0.937118
O O4 0.055649 0.579022 0.841882
O O5 0.244274 0.760727 0.092475
O O6 0.125132 0.741652 0.259995
O O7 0.140045 0.667205 0.142594
O O8 0.000000 0.750000 0.099133
O O9 0.095228 0.841834 0.879054
O O10 0.169411 0.933343 0.924755
O O11 0.988257 0.894401 0.026154
O O12 0.500000 0.750000 0.081483
O O13 0.750000 0.624149 0.500000
#
# Coordination Sequence:
#
# PCOD8296485 Si02
#       6
#    16  16  16  16  16   8
#     4  11  25  46  75  99 141 195 234 306 371 430
#     4  10  23  40  68 102 140 180 237 293 352 445
#     4  11  25  44  68 101 141 181 241 299 360 439
#     4  10  22  44  67  97 141 184 230 297 361 433
#     4  10  22  43  67  99 140 177 233 297 355 435
#     4  12  26  46  66 106 144 178 250 304 352 440
#
# _framework density 23.533646000000001
#
# number of rings (size 3 to 8) (size 9 to 14) (size 15 to 20)
#    0.000    1.455    2.727    2.727    5.091    4.364 
#    0.000    0.000    0.000    0.000    0.000    0.000 
#    0.000    0.000    0.000    0.000    0.000    0.000 
#
# Total GULP energy -545481.480155 kJ/mol
# GULP energy per Si atom -12397.306367 kJ/mol
# Density = 2.348008 g / cm^3
# Si number density = 23.533646 Si / 1000 Ang^3
#
#
#
# Elastic Constant Matrix: (Units=GPa)
#
#
# Indices 1 2 3 4 5 6 
#
# 1 155.8263 66.6875 17.0829 -0.0001 -0.0001 0.0000
# 2 66.6875 168.1147 31.9286 -0.0004 0.0002 0.0001
# 3 17.0829 31.9286 65.1849 -0.0038 0.0015 0.0008
# 4 -0.0001 -0.0004 -0.0038 46.2619 0.0006 0.0003
# 5 -0.0001 0.0002 0.0015 0.0006 4.6572 -0.0003
# 6 0.0000 0.0001 0.0008 0.0003 -0.0003 28.5688
#
#
#
# Elastic Compliance Matrix: (Units=1/GPa)
#
#
# Indices 1 2 3 4 5 6 
#
# 1 0.007749 -0.002964 -0.000579 0.000000 0.000000 0.000000
# 2 -0.002964 0.007692 -0.002991 0.000000 0.000001 0.000000
# 3 -0.000579 -0.002991 0.016958 0.000001 -0.000006 0.000000
# 4 0.000000 0.000000 0.000001 0.021616 -0.000003 0.000000
# 5 0.000000 0.000001 -0.000006 -0.000003 0.214722 0.000002
# 6 0.000000 0.000000 0.000000 0.000000 0.000002 0.035003
#
#
# Mechanical properties :
#
#
# Convention : Reuss Voigt Hill
#
# Bulk Modulus (GPa) = 51.72982 68.94710 60.33846
# Shear Modulus (GPa) = 15.46780 34.12605 24.79692
#
# Velocity S-wave (km/s) = 2.56650 3.81214 3.24956
# Velocity P-wave (km/s) = 5.55081 6.98122 6.30670
#
# Compressibility (1/GPa) = 0.01933121
#
# Stress axis : x y z
#
# Youngs Moduli (GPa) = 129.04270 130.00296 58.97009
#
# Poissons Ratio (x) = 0.38533 0.03415
# Poissons Ratio (y) = 0.38249 0.17638
# Poissons Ratio (z) = 0.07472 0.38883
#
# Static dielectric constant tensor:
#      x y z
#    x 4.702710 0.000000 0.000000 
#    y 0.000000 4.220870 0.000000 
#    z 0.000000 0.000000 3.955860 
# 
# 
# High freq. dielectric constant tensor:
#      x y z
#    x 1.936870 0.000000 0.000000 
#    y 0.000000 1.941560 0.000000 
#    z 0.000000 0.000000 1.915090 
# 
# From -- ./inp_files/16125.got.cif
#   From: 2010.03.12/outbox.cif.g09.slc.cpg/sg73_9_cif.got.tgz:16125.got - 2010.04.16 15:25:48.
