data_PCOD8296515
_publ_section_title
;
Structure prediction by ZEFSAII (Michael W. Deem and Ramdas Pophale) SiO2 
 PCOD8296515
Probable space group: I B C A 
;
_chemical_formula_sum "Si O2"
_cell_formula_units_Z 88
_cell_length_a 15.772097
_cell_length_b 26.954684
_cell_length_c 9.859576
_cell_angle_alpha 90.000000
_cell_angle_beta 90.000000
_cell_angle_gamma 90.000000
_cell_volume 4191.620186
_symmetry_space_group_name_H-M "I B C A "
_symmetry_group_IT_number 73
_symmetry_cell_setting 'orthorhombic'
loop_
_space_group_symop_operation_xyz
x,y,z
-x,1/2-y,z
x,-y,1/2-z
1/2-x,y,-z
-x,-y,-z
x,1/2+y,-z
-x,y,1/2+z
1/2+x,-y,z
1/2+x,1/2+y,1/2+z
1/2-x,-y,1/2+z
1/2+x,1/2-y,-z
-x,1/2+y,1/2-z
1/2-x,1/2-y,1/2-z
1/2+x,y,1/2-z
1/2-x,1/2+y,z
x,1/2-y,1/2+z
loop_
_atom_site_type_symbol
_atom_site_label
_atom_site_fract_x
_atom_site_fract_y
_atom_site_fract_z
Si Si1 0.406073 0.833918 0.582224
Si Si2 0.488446 0.628405 0.349086
Si Si3 0.342305 0.631154 0.554795
Si Si4 0.689843 0.761353 0.626408
Si Si5 0.375166 0.556566 0.791146
Si Si6 0.750000 0.398799 0.000000
O O1 0.450003 0.834455 0.433796
O O2 0.472739 0.855031 0.693383
O O3 0.387237 0.777336 0.621235
O O4 0.317972 0.864748 0.579754
O O5 0.398870 0.626043 0.421496
O O6 0.535039 0.574680 0.354146
O O7 0.250000 0.623270 0.500000
O O8 0.351805 0.684059 0.631189
O O9 0.363095 0.588060 0.656998
O O10 0.750000 0.755000 0.500000
O O11 0.750000 0.750000 0.750000
O O12 0.381343 0.500000 0.750000
O O13 0.297462 0.565403 0.893922
#
# Coordination Sequence:
#
# PCOD8296515 Si02
#       6
#    16  16  16  16  16   8
#     4  11  22  44  69  99 143 181 222 280 346 415
#     4  11  24  45  66 102 141 178 224 292 343 404
#     4  11  24  45  68  99 138 175 236 280 336 418
#     4  11  23  40  68 100 134 183 225 275 337 406
#     4  11  25  45  69 101 132 181 230 290 347 400
#     4  10  22  44  72  98 136 178 234 276 340 420
#
# _framework density 20.994268000000002
#
# number of rings (size 3 to 8) (size 9 to 14) (size 15 to 20)
#    0.000    1.091    2.727    4.364    3.818    1.455 
#    3.273    0.909    0.000    0.000    0.000    0.000 
#    0.000    0.000    0.000    0.000    0.000    0.000 
#
# Total GULP energy -545655.243312 kJ/mol
# GULP energy per Si atom -12401.255530 kJ/mol
# Density = 2.094648 g / cm^3
# Si number density = 20.994268 Si / 1000 Ang^3
#
#
#
# Elastic Constant Matrix: (Units=GPa)
#
#
# Indices 1 2 3 4 5 6 
#
# 1 117.5212 49.3044 26.3668 0.0004 -0.0007 -0.0008
# 2 49.3044 148.8878 40.2220 -0.0001 -0.0008 -0.0020
# 3 26.3668 40.2220 102.4438 0.0012 0.0033 0.0066
# 4 0.0004 -0.0001 0.0012 32.4353 0.0035 0.0033
# 5 -0.0007 -0.0008 0.0033 0.0035 60.1375 -0.0132
# 6 -0.0008 -0.0020 0.0066 0.0033 -0.0132 5.9702
#
#
#
# Elastic Compliance Matrix: (Units=1/GPa)
#
#
# Indices 1 2 3 4 5 6 
#
# 1 0.010067 -0.002946 -0.001434 0.000000 0.000000 0.000002
# 2 -0.002946 0.008376 -0.002530 0.000000 0.000000 0.000005
# 3 -0.001434 -0.002530 0.011124 0.000000 -0.000001 -0.000013
# 4 0.000000 0.000000 0.000000 0.030831 -0.000002 -0.000017
# 5 0.000000 0.000000 -0.000001 -0.000002 0.016629 0.000037
# 6 0.000002 0.000005 -0.000013 -0.000017 0.000037 0.167498
#
#
# Mechanical properties :
#
#
# Convention : Reuss Voigt Hill
#
# Bulk Modulus (GPa) = 63.51118 66.73771 65.12444
# Shear Modulus (GPa) = 18.96857 36.57257 27.77057
#
# Velocity S-wave (km/s) = 3.00911 4.17829 3.64094
# Velocity P-wave (km/s) = 6.51079 7.42529 6.98303
#
# Compressibility (1/GPa) = 0.01574526
#
# Stress axis : x y z
#
# Youngs Moduli (GPa) = 99.33506 119.39385 89.89563
#
# Poissons Ratio (x) = 0.35176 0.12893
# Poissons Ratio (y) = 0.29266 0.22745
# Poissons Ratio (z) = 0.14247 0.30209
#
# Static dielectric constant tensor:
#      x y z
#    x 3.935050 0.000330 0.000000 
#    y 0.000330 2.888660 -0.000030 
#    z 0.000000 -0.000030 3.860610 
# 
# 
# High freq. dielectric constant tensor:
#      x y z
#    x 1.842910 0.000000 0.000000 
#    y 0.000000 1.803210 0.000000 
#    z 0.000000 0.000000 1.838720 
# 
# From -- ./inp_files/10985.got.cif
#   From: 2010.03.12/outbox.cif.g09.slc.cpg/sg73_6_cif.got.tgz:10985.got - 2010.04.16 15:25:48.
