data_PCOD8296786
_publ_section_title
;
Structure prediction by ZEFSAII (Michael W. Deem and Ramdas Pophale) SiO2 
 PCOD8296786
Probable space group: I B C A 
;
_chemical_formula_sum "Si O2"
_cell_formula_units_Z 56
_cell_length_a 23.861903
_cell_length_b 16.811312
_cell_length_c 5.364456
_cell_angle_alpha 90.000000
_cell_angle_beta 90.000000
_cell_angle_gamma 90.000000
_cell_volume 2151.950968
_symmetry_space_group_name_H-M "I B C A "
_symmetry_group_IT_number 73
_symmetry_cell_setting 'orthorhombic'
loop_
_space_group_symop_operation_xyz
x,y,z
-x,1/2-y,z
x,-y,1/2-z
1/2-x,y,-z
-x,-y,-z
x,1/2+y,-z
-x,y,1/2+z
1/2+x,-y,z
1/2+x,1/2+y,1/2+z
1/2-x,-y,1/2+z
1/2+x,1/2-y,-z
-x,1/2+y,1/2-z
1/2-x,1/2-y,1/2-z
1/2+x,y,1/2-z
1/2-x,1/2+y,z
x,1/2-y,1/2+z
loop_
_atom_site_type_symbol
_atom_site_label
_atom_site_fract_x
_atom_site_fract_y
_atom_site_fract_z
Si Si1 0.685146 0.295321 0.476505
Si Si2 0.863905 0.409254 0.197772
Si Si3 0.250000 0.450019 0.500000
Si Si4 0.022974 0.159143 0.058426
O O1 0.750000 0.318151 0.500000
O O2 0.668128 0.239533 0.711725
O O3 0.649171 0.375289 0.525144
O O4 0.881994 0.500000 0.250000
O O5 0.910346 0.354484 0.063162
O O6 0.806893 0.397937 0.028808
O O7 0.244211 0.500000 0.250000
O O8 0.000000 0.250000 0.055855
O O9 0.999131 0.116633 0.307545
#
# Coordination Sequence:
#
# PCOD8296786 Si02
#       4
#    16  16   8  16
#     4  10  25  44  68 104 149 197 247 296 368 460
#     4  11  27  46  80 114 155 202 254 320 389 460
#     4  10  26  46  70 114 166 198 234 306 398 470
#     4  10  25  48  75 104 144 201 259 317 377 443
#
# _framework density 26.022897
#
# number of rings (size 3 to 8) (size 9 to 14) (size 15 to 20)
#    0.000    1.714    0.000    0.000   22.000    5.714 
#    0.000    0.000    0.000    0.000    0.000    0.000 
#    0.000    0.000    0.000    0.000    0.000    0.000 
#
# Total GULP energy -346912.582622 kJ/mol
# GULP energy per Si atom -12389.735094 kJ/mol
# Density = 2.596367 g / cm^3
# Si number density = 26.022897 Si / 1000 Ang^3
#
#
#
# Elastic Constant Matrix: (Units=GPa)
#
#
# Indices 1 2 3 4 5 6 
#
# 1 185.2703 48.9779 54.1838 0.0000 0.0000 0.0000
# 2 48.9779 116.2553 27.5423 0.0000 0.0000 0.0000
# 3 54.1838 27.5423 172.4027 0.0000 0.0000 0.0000
# 4 0.0000 0.0000 0.0000 18.5448 0.0000 0.0000
# 5 0.0000 0.0000 0.0000 0.0000 40.8658 0.0000
# 6 0.0000 0.0000 0.0000 0.0000 0.0000 35.5213
#
#
#
# Elastic Compliance Matrix: (Units=1/GPa)
#
#
# Indices 1 2 3 4 5 6 
#
# 1 0.006506 -0.002345 -0.001670 0.000000 0.000000 0.000000
# 2 -0.002345 0.009786 -0.000826 0.000000 0.000000 0.000000
# 3 -0.001670 -0.000826 0.006457 0.000000 0.000000 0.000000
# 4 0.000000 0.000000 0.000000 0.053923 0.000000 0.000000
# 5 0.000000 0.000000 0.000000 0.000000 0.024470 0.000000
# 6 0.000000 0.000000 0.000000 0.000000 0.000000 0.028152
#
#
# Mechanical properties :
#
#
# Convention : Reuss Voigt Hill
#
# Bulk Modulus (GPa) = 76.53653 81.70402 79.12027
# Shear Modulus (GPa) = 34.88384 41.86802 38.37593
#
# Velocity S-wave (km/s) = 3.66526 4.01545 3.84435
# Velocity P-wave (km/s) = 6.88384 7.27761 7.08346
#
# Compressibility (1/GPa) = 0.01306566
#
# Stress axis : x y z
#
# Youngs Moduli (GPa) = 153.70585 102.19148 154.86494
#
# Poissons Ratio (x) = 0.23967 0.25863
# Poissons Ratio (y) = 0.36048 0.12795
# Poissons Ratio (z) = 0.25670 0.08443
#
# Static dielectric constant tensor:
#      x y z
#    x 4.899540 0.000000 0.000000 
#    y 0.000000 4.595850 0.000000 
#    z 0.000000 0.000000 5.754140 
# 
# 
# High freq. dielectric constant tensor:
#      x y z
#    x 2.034220 0.000000 0.000000 
#    y 0.000000 2.023740 0.000000 
#    z 0.000000 0.000000 2.064290 
# 
# From -- ./inp_files/2004.got.cif
#   From: 2010.03.12/outbox.cif.g09.slc.cpg/sg73_2_cif.got.tgz:2004.got - 2010.04.16 15:25:48.
