data_PCOD8296533
_publ_section_title
;
Structure prediction by ZEFSAII (Michael W. Deem and Ramdas Pophale) SiO2 
 PCOD8296533
Probable space group: I B C A 
;
_chemical_formula_sum "Si O2"
_cell_formula_units_Z 88
_cell_length_a 14.139047
_cell_length_b 18.826837
_cell_length_c 14.632951
_cell_angle_alpha 90.000000
_cell_angle_beta 90.000000
_cell_angle_gamma 90.000000
_cell_volume 3895.196928
_symmetry_space_group_name_H-M "I B C A "
_symmetry_group_IT_number 73
_symmetry_cell_setting 'orthorhombic'
loop_
_space_group_symop_operation_xyz
x,y,z
-x,1/2-y,z
x,-y,1/2-z
1/2-x,y,-z
-x,-y,-z
x,1/2+y,-z
-x,y,1/2+z
1/2+x,-y,z
1/2+x,1/2+y,1/2+z
1/2-x,-y,1/2+z
1/2+x,1/2-y,-z
-x,1/2+y,1/2-z
1/2-x,1/2-y,1/2-z
1/2+x,y,1/2-z
1/2-x,1/2+y,z
x,1/2-y,1/2+z
loop_
_atom_site_type_symbol
_atom_site_label
_atom_site_fract_x
_atom_site_fract_y
_atom_site_fract_z
Si Si1 0.250000 0.343847 0.500000
Si Si2 0.446717 0.895990 0.531458
Si Si3 0.109448 0.000000 0.750000
Si Si4 0.296346 0.234260 0.344703
Si Si5 0.251339 0.423450 0.892326
Si Si6 0.547865 0.965413 0.371019
Si Si7 0.500000 0.250000 0.384671
O O1 0.341582 0.394091 0.512735
O O2 0.263606 0.296668 0.410834
O O3 0.525765 0.927148 0.465387
O O4 0.446081 0.948514 0.618667
O O5 0.481418 0.817161 0.551267
O O6 0.169619 0.037053 0.669470
O O7 0.035212 0.054615 0.798971
O O8 0.250000 0.250000 0.250000
O O9 0.268207 0.160196 0.389583
O O10 0.408239 0.236009 0.323538
O O11 0.151776 0.439016 0.841934
O O12 0.250000 0.448050 0.000000
#
# Coordination Sequence:
#
# PCOD8296533 Si02
#       7
#     8  16   8  16  16  16   8
#     4  10  24  44  72 102 146 190 246 302 386 450
#     4  10  23  44  72 101 140 190 240 307 372 453
#     4  12  28  44  70 106 148 202 248 312 380 456
#     4  11  25  45  71 107 143 195 247 310 375 455
#     4  12  26  48  77 106 152 199 255 316 383 451
#     4  11  25  43  68 106 142 188 248 303 378 445
#     4  10  22  46  72  98 146 182 240 306 372 448
#
# _framework density 22.591923999999999
#
# number of rings (size 3 to 8) (size 9 to 14) (size 15 to 20)
#    0.000    1.091    0.909    4.909    8.909    5.818 
#    0.000    0.000    0.000    0.000    0.000    0.000 
#    0.000    0.000    0.000    0.000    0.000    0.000 
#
# Total GULP energy -545394.193382 kJ/mol
# GULP energy per Si atom -12395.322577 kJ/mol
# Density = 2.254050 g / cm^3
# Si number density = 22.591924 Si / 1000 Ang^3
#
#
#
# Elastic Constant Matrix: (Units=GPa)
#
#
# Indices 1 2 3 4 5 6 
#
# 1 204.7726 43.0604 62.5610 0.0000 0.0000 0.0000
# 2 43.0604 102.6015 18.6552 0.0002 0.0000 0.0000
# 3 62.5610 18.6552 110.4149 0.0005 -0.0001 0.0000
# 4 0.0000 0.0002 0.0005 16.9869 -0.0001 0.0000
# 5 0.0000 0.0000 -0.0001 -0.0001 40.7836 0.0000
# 6 0.0000 0.0000 0.0000 0.0000 0.0000 33.4079
#
#
#
# Elastic Compliance Matrix: (Units=1/GPa)
#
#
# Indices 1 2 3 4 5 6 
#
# 1 0.006301 -0.002058 -0.003222 0.000000 0.000000 0.000000
# 2 -0.002058 0.010728 -0.000646 0.000000 0.000000 0.000000
# 3 -0.003222 -0.000646 0.010992 0.000000 0.000000 0.000000
# 4 0.000000 0.000000 0.000000 0.058869 0.000000 0.000000
# 5 0.000000 0.000000 0.000000 0.000000 0.024520 0.000000
# 6 0.000000 0.000000 0.000000 0.000000 0.000000 0.029933
#
#
# Mechanical properties :
#
#
# Convention : Reuss Voigt Hill
#
# Bulk Modulus (GPa) = 61.85641 74.03801 67.94721
# Shear Modulus (GPa) = 31.52897 37.80319 34.66608
#
# Velocity S-wave (km/s) = 3.73981 4.09504 3.92145
# Velocity P-wave (km/s) = 6.78878 7.42982 7.11652
#
# Compressibility (1/GPa) = 0.01616647
#
# Stress axis : x y z
#
# Youngs Moduli (GPa) = 158.71095 93.21532 90.97831
#
# Poissons Ratio (x) = 0.19188 0.29315
# Poissons Ratio (y) = 0.32670 0.05879
# Poissons Ratio (z) = 0.51140 0.06024
#
# Static dielectric constant tensor:
#      x y z
#    x 4.851600 0.000000 0.000000 
#    y 0.000000 4.486220 -0.000010 
#    z 0.000000 -0.000010 4.309370 
# 
# 
# High freq. dielectric constant tensor:
#      x y z
#    x 1.922600 0.000000 0.000000 
#    y 0.000000 1.890520 0.000000 
#    z 0.000000 0.000000 1.878300 
# 
# From -- ./inp_files/11019.got.cif
#   From: 2010.03.12/outbox.cif.g09.slc.cpg/sg73_6_cif.got.tgz:11019.got - 2010.04.16 15:25:48.
