data_PCOD8296205
_publ_section_title
;
Structure prediction by ZEFSAII (Michael W. Deem and Ramdas Pophale) SiO2 
 PCOD8296205
Probable space group: I B C A 
;
_chemical_formula_sum "Si O2"
_cell_formula_units_Z 80
_cell_length_a 24.765286
_cell_length_b 18.373056
_cell_length_c 7.643443
_cell_angle_alpha 90.000000
_cell_angle_beta 90.000000
_cell_angle_gamma 90.000000
_cell_volume 3477.873470
_symmetry_space_group_name_H-M "I B C A "
_symmetry_group_IT_number 73
_symmetry_cell_setting 'orthorhombic'
loop_
_space_group_symop_operation_xyz
x,y,z
-x,1/2-y,z
x,-y,1/2-z
1/2-x,y,-z
-x,-y,-z
x,1/2+y,-z
-x,y,1/2+z
1/2+x,-y,z
1/2+x,1/2+y,1/2+z
1/2-x,-y,1/2+z
1/2+x,1/2-y,-z
-x,1/2+y,1/2-z
1/2-x,1/2-y,1/2-z
1/2+x,y,1/2-z
1/2-x,1/2+y,z
x,1/2-y,1/2+z
loop_
_atom_site_type_symbol
_atom_site_label
_atom_site_fract_x
_atom_site_fract_y
_atom_site_fract_z
Si Si1 0.713016 0.161717 0.221875
Si Si2 0.816039 0.315867 0.894464
Si Si3 0.190911 0.521845 0.553842
Si Si4 0.000000 0.250000 0.007641
Si Si5 0.567590 0.841278 0.761168
Si Si6 0.892649 0.000000 0.250000
O O1 0.711612 0.237080 0.118407
O O2 0.678013 0.160077 0.402640
O O3 0.773390 0.135353 0.282858
O O4 0.690880 0.109290 0.068941
O O5 0.872812 0.315464 0.802429
O O6 0.175274 0.500000 0.750000
O O7 0.250000 0.491351 0.500000
O O8 0.145536 0.491943 0.420517
O O9 0.950725 0.209322 0.101300
O O10 0.974930 0.319194 0.908952
O O11 0.568609 0.928955 0.733005
#
# Coordination Sequence:
#
# PCOD8296205 Si02
#       6
#    16  16  16   8  16   8
#     4  10  23  36  64 104 143 186 228 287 338 428
#     4  10  21  39  67 102 141 181 237 287 350 431
#     4  12  26  43  63  99 149 199 233 278 345 437
#     4  10  26  48  80  98 138 178 248 322 370 420
#     4  11  24  48  72 108 134 189 237 308 371 432
#     4  12  28  46  76 104 148 192 240 296 372 446
#
# _framework density 23.002561
#
# number of rings (size 3 to 8) (size 9 to 14) (size 15 to 20)
#    0.000    1.200    1.000    3.600   14.000    0.800 
#    3.600    0.000    0.000    0.000    0.000    0.000 
#    0.000    0.000    0.000    0.000    0.000    0.000 
#
# Total GULP energy -495561.728604 kJ/mol
# GULP energy per Si atom -12389.043215 kJ/mol
# Density = 2.295021 g / cm^3
# Si number density = 23.002561 Si / 1000 Ang^3
#
#
#
# Elastic Constant Matrix: (Units=GPa)
#
#
# Indices 1 2 3 4 5 6 
#
# 1 111.3685 36.7543 29.3279 0.0000 0.0000 0.0000
# 2 36.7543 89.4236 26.8675 0.0000 0.0000 0.0000
# 3 29.3279 26.8675 114.3147 0.0000 0.0000 0.0000
# 4 0.0000 0.0000 0.0000 30.2695 0.0000 0.0000
# 5 0.0000 0.0000 0.0000 0.0000 13.2124 0.0000
# 6 0.0000 0.0000 0.0000 0.0000 0.0000 28.0825
#
#
#
# Elastic Compliance Matrix: (Units=1/GPa)
#
#
# Indices 1 2 3 4 5 6 
#
# 1 0.010739 -0.003859 -0.001848 0.000000 0.000000 0.000000
# 2 -0.003859 0.013419 -0.002164 0.000000 0.000000 0.000000
# 3 -0.001848 -0.002164 0.009731 0.000000 0.000000 0.000000
# 4 0.000000 0.000000 0.000000 0.033037 0.000000 0.000000
# 5 0.000000 0.000000 0.000000 0.000000 0.075686 0.000000
# 6 0.000000 0.000000 0.000000 0.000000 0.000000 0.035609
#
#
# Mechanical properties :
#
#
# Convention : Reuss Voigt Hill
#
# Bulk Modulus (GPa) = 55.10554 55.66735 55.38645
# Shear Modulus (GPa) = 24.99852 29.12336 27.06094
#
# Velocity S-wave (km/s) = 3.30020 3.56208 3.43364
# Velocity P-wave (km/s) = 6.20725 6.41646 6.31272
#
# Compressibility (1/GPa) = 0.01814700
#
# Stress axis : x y z
#
# Youngs Moduli (GPa) = 93.11505 74.52200 102.76906
#
# Poissons Ratio (x) = 0.28756 0.18995
# Poissons Ratio (y) = 0.35930 0.22238
# Poissons Ratio (z) = 0.17211 0.16126
#
# Static dielectric constant tensor:
#      x y z
#    x 3.759470 0.000000 0.000000 
#    y 0.000000 4.658400 0.000000 
#    z 0.000000 0.000000 4.427010 
# 
# 
# High freq. dielectric constant tensor:
#      x y z
#    x 1.877650 0.000000 0.000000 
#    y 0.000000 1.923640 0.000000 
#    z 0.000000 0.000000 1.926200 
# 
# From -- ./inp_files/7018.got.cif
#   From: 2010.03.12/outbox.cif.g09.slc.cpg/sg73_4_cif.got.tgz:7018.got - 2010.04.16 15:25:48.
