data_PCOD8296982
_publ_section_title
;
Structure prediction by ZEFSAII (Michael W. Deem and Ramdas Pophale) SiO2 
 PCOD8296982
Probable space group: I B C A 
;
_chemical_formula_sum "Si O2"
_cell_formula_units_Z 88
_cell_length_a 12.794906
_cell_length_b 12.893997
_cell_length_c 23.917441
_cell_angle_alpha 90.000000
_cell_angle_beta 90.000000
_cell_angle_gamma 90.000000
_cell_volume 3945.839134
_symmetry_space_group_name_H-M "I B C A "
_symmetry_group_IT_number 73
_symmetry_cell_setting 'orthorhombic'
loop_
_space_group_symop_operation_xyz
x,y,z
-x,1/2-y,z
x,-y,1/2-z
1/2-x,y,-z
-x,-y,-z
x,1/2+y,-z
-x,y,1/2+z
1/2+x,-y,z
1/2+x,1/2+y,1/2+z
1/2-x,-y,1/2+z
1/2+x,1/2-y,-z
-x,1/2+y,1/2-z
1/2-x,1/2-y,1/2-z
1/2+x,y,1/2-z
1/2-x,1/2+y,z
x,1/2-y,1/2+z
loop_
_atom_site_type_symbol
_atom_site_label
_atom_site_fract_x
_atom_site_fract_y
_atom_site_fract_z
Si Si1 0.504881 0.527063 0.330674
Si Si2 0.655872 0.644425 0.703006
Si Si3 0.378946 0.218920 0.915720
Si Si4 0.250000 0.858762 0.000000
Si Si5 0.578347 0.500544 0.549604
Si Si6 0.000000 0.250000 0.278609
Si Si7 0.320727 0.000000 0.250000
O O1 0.409295 0.462450 0.304619
O O2 0.494980 0.522628 0.397058
O O3 0.510284 0.648063 0.316025
O O4 0.608240 0.472644 0.304688
O O5 0.678504 0.701170 0.643876
O O6 0.601058 0.732136 0.740154
O O7 0.758651 0.605092 0.735058
O O8 0.500000 0.250000 0.905358
O O9 0.369602 0.112137 0.948441
O O10 0.318979 0.298210 0.954992
O O11 0.327197 0.921577 0.959664
O O12 0.500000 0.500000 0.500000
#
# Coordination Sequence:
#
# PCOD8296982 Si02
#       7
#    16  16  16   8  16   8   8
#     4  11  26  45  69 108 150 184 245 311 364 441
#     4  11  24  46  68 103 149 196 239 300 383 445
#     4  11  24  47  77 106 150 199 252 313 379 459
#     4  12  26  50  80 112 144 206 262 302 396 446
#     4  11  26  49  76 107 155 191 245 327 371 443
#     4  12  20  46  70 100 152 186 238 304 366 448
#     4  12  22  46  72 104 152 192 244 306 368 456
#
# _framework density 22.301974000000001
#
# number of rings (size 3 to 8) (size 9 to 14) (size 15 to 20)
#    0.000    0.727    6.364    0.545    0.000    8.000 
#    6.545    0.000    0.000    0.000    0.000    0.000 
#    0.000    0.000    0.000    0.000    0.000    0.000 
#
# Total GULP energy -545346.249943 kJ/mol
# GULP energy per Si atom -12394.232953 kJ/mol
# Density = 2.225121 g / cm^3
# Si number density = 22.301974 Si / 1000 Ang^3
#
#
#
# Elastic Constant Matrix: (Units=GPa)
#
#
# Indices 1 2 3 4 5 6 
#
# 1 119.3220 43.2868 78.9146 0.0000 0.0000 0.0000
# 2 43.2868 130.5388 58.7487 0.0000 0.0000 0.0000
# 3 78.9146 58.7487 162.1843 0.0000 0.0000 0.0000
# 4 0.0000 0.0000 0.0000 41.3226 0.0000 0.0000
# 5 0.0000 0.0000 0.0000 0.0000 28.8886 0.0000
# 6 0.0000 0.0000 0.0000 0.0000 0.0000 29.8808
#
#
#
# Elastic Compliance Matrix: (Units=1/GPa)
#
#
# Indices 1 2 3 4 5 6 
#
# 1 0.012667 -0.001704 -0.005546 0.000000 0.000000 0.000000
# 2 -0.001704 0.009382 -0.002569 0.000000 0.000000 0.000000
# 3 -0.005546 -0.002569 0.009795 0.000000 0.000000 0.000000
# 4 0.000000 0.000000 0.000000 0.024200 0.000000 0.000000
# 5 0.000000 0.000000 0.000000 0.000000 0.034616 0.000000
# 6 0.000000 0.000000 0.000000 0.000000 0.000000 0.033466
#
#
# Mechanical properties :
#
#
# Convention : Reuss Voigt Hill
#
# Bulk Modulus (GPa) = 81.93514 85.99394 83.96454
# Shear Modulus (GPa) = 33.82194 35.42473 34.62333
#
# Velocity S-wave (km/s) = 3.89851 3.98981 3.94442
# Velocity P-wave (km/s) = 7.55534 7.73740 7.64692
#
# Compressibility (1/GPa) = 0.01220478
#
# Stress axis : x y z
#
# Youngs Moduli (GPa) = 78.94615 106.58730 102.09307
#
# Poissons Ratio (x) = 0.18167 0.56620
# Poissons Ratio (y) = 0.13456 0.26229
# Poissons Ratio (z) = 0.43783 0.27384
#
# Static dielectric constant tensor:
#      x y z
#    x 4.246870 0.000000 0.000000 
#    y 0.000000 4.253570 0.000000 
#    z 0.000000 0.000000 4.584570 
# 
# 
# High freq. dielectric constant tensor:
#      x y z
#    x 1.875440 0.000000 0.000000 
#    y 0.000000 1.895290 0.000000 
#    z 0.000000 0.000000 1.888260 
# 
# From -- ./inp_files/31727.got.cif
#   From: 2010.03.12/outbox.cif.g09.slc.cpg/sg73_16_cif.got.tgz:31727.got - 2010.04.16 15:25:48.
