data_PCOD8296206
_publ_section_title
;
Structure prediction by ZEFSAII (Michael W. Deem and Ramdas Pophale) SiO2 
 PCOD8296206
Probable space group: I B C A 
;
_chemical_formula_sum "Si O2"
_cell_formula_units_Z 96
_cell_length_a 16.534936
_cell_length_b 14.954915
_cell_length_c 18.422563
_cell_angle_alpha 90.000000
_cell_angle_beta 90.000000
_cell_angle_gamma 90.000000
_cell_volume 4555.504895
_symmetry_space_group_name_H-M "I B C A "
_symmetry_group_IT_number 73
_symmetry_cell_setting 'orthorhombic'
loop_
_space_group_symop_operation_xyz
x,y,z
-x,1/2-y,z
x,-y,1/2-z
1/2-x,y,-z
-x,-y,-z
x,1/2+y,-z
-x,y,1/2+z
1/2+x,-y,z
1/2+x,1/2+y,1/2+z
1/2-x,-y,1/2+z
1/2+x,1/2-y,-z
-x,1/2+y,1/2-z
1/2-x,1/2-y,1/2-z
1/2+x,y,1/2-z
1/2-x,1/2+y,z
x,1/2-y,1/2+z
loop_
_atom_site_type_symbol
_atom_site_label
_atom_site_fract_x
_atom_site_fract_y
_atom_site_fract_z
Si Si1 0.149786 0.179879 0.638239
Si Si2 0.921009 0.008588 0.546274
Si Si3 0.155319 0.195343 0.007726
Si Si4 0.988018 0.559323 0.819371
Si Si5 0.164915 0.156087 0.398581
Si Si6 0.421047 0.793197 0.760068
O O1 0.122614 0.251011 0.577546
O O2 0.093024 0.091538 0.638017
O O3 0.239720 0.150495 0.616681
O O4 0.139699 0.224046 0.718747
O O5 0.879543 0.096401 0.513464
O O6 0.951984 0.006152 0.628761
O O7 0.858909 0.924772 0.546441
O O8 0.000000 0.000000 0.500000
O O9 0.250000 0.185000 0.000000
O O10 0.132515 0.251688 0.935262
O O11 0.962918 0.500000 0.750000
O O12 0.041719 0.644410 0.800999
O O13 0.126214 0.149864 0.319355
O O14 0.500000 0.750000 0.798562
#
# Coordination Sequence:
#
# PCOD8296206 Si02
#       6
#    16  16  16  16  16  16
#     4  10  22  43  67  93 131 181 221 276 340 402
#     4  12  26  40  66  99 134 178 223 278 339 406
#     4  10  24  44  66  93 134 175 219 278 341 397
#     4  11  22  42  64  97 134 173 223 274 338 402
#     4  11  24  42  66 100 133 174 233 279 336 406
#     4  10  21  39  67  93 130 170 220 271 333 406
#
# _framework density 21.073404
#
# number of rings (size 3 to 8) (size 9 to 14) (size 15 to 20)
#    0.000    1.333    3.333    1.500    2.333    4.667 
#    3.000    1.667    0.000    0.000    0.000    0.000 
#    0.000    0.000    0.000    0.000    0.000    0.000 
#
# Total GULP energy -594753.796765 kJ/mol
# GULP energy per Si atom -12390.704099 kJ/mol
# Density = 2.102544 g / cm^3
# Si number density = 21.073404 Si / 1000 Ang^3
#
#
#
# Elastic Constant Matrix: (Units=GPa)
#
#
# Indices 1 2 3 4 5 6 
#
# 1 87.3627 50.7289 42.6891 0.0000 0.0000 0.0000
# 2 50.7289 112.7901 27.1127 0.0000 0.0000 0.0000
# 3 42.6891 27.1127 56.6738 0.0000 0.0000 0.0000
# 4 0.0000 0.0000 0.0000 22.3632 0.0000 0.0000
# 5 0.0000 0.0000 0.0000 0.0000 29.5370 0.0000
# 6 0.0000 0.0000 0.0000 0.0000 0.0000 34.7168
#
#
#
# Elastic Compliance Matrix: (Units=1/GPa)
#
#
# Indices 1 2 3 4 5 6 
#
# 1 0.021736 -0.006599 -0.013215 0.000000 0.000000 0.000000
# 2 -0.006599 0.012022 -0.000780 0.000000 0.000000 0.000000
# 3 -0.013215 -0.000780 0.027973 0.000000 0.000000 0.000000
# 4 0.000000 0.000000 0.000000 0.044716 0.000000 0.000000
# 5 0.000000 0.000000 0.000000 0.000000 0.033856 0.000000
# 6 0.000000 0.000000 0.000000 0.000000 0.000000 0.028805
#
#
# Mechanical properties :
#
#
# Convention : Reuss Voigt Hill
#
# Bulk Modulus (GPa) = 48.68488 55.32089 52.00289
# Shear Modulus (GPa) = 23.02616 26.40978 24.71797
#
# Velocity S-wave (km/s) = 3.30913 3.54394 3.42855
# Velocity P-wave (km/s) = 6.14436 6.56159 6.35640
#
# Compressibility (1/GPa) = 0.02054026
#
# Stress axis : x y z
#
# Youngs Moduli (GPa) = 46.00613 83.18244 35.74936
#
# Poissons Ratio (x) = 0.54896 0.47244
# Poissons Ratio (y) = 0.30361 0.02789
# Poissons Ratio (z) = 0.60799 0.06490
#
# Static dielectric constant tensor:
#      x y z
#    x 3.595860 0.000000 0.000000 
#    y 0.000000 2.152940 0.000000 
#    z 0.000000 0.000000 2.840860 
# 
# 
# High freq. dielectric constant tensor:
#      x y z
#    x 1.827460 0.000000 0.000000 
#    y 0.000000 1.825800 0.000000 
#    z 0.000000 0.000000 1.832710 
# 
# From -- ./inp_files/17009.got.cif
#   From: 2010.03.12/outbox.cif.g09.slc.cpg/sg73_9_cif.got.tgz:17009.got - 2010.04.16 15:25:48.
