data_PCOD8296549
_publ_section_title
;
Structure prediction by ZEFSAII (Michael W. Deem and Ramdas Pophale) SiO2 
 PCOD8296549
Probable space group: I B C A 
;
_chemical_formula_sum "Si O2"
_cell_formula_units_Z 96
_cell_length_a 13.580648
_cell_length_b 14.351796
_cell_length_c 22.831915
_cell_angle_alpha 90.000000
_cell_angle_beta 90.000000
_cell_angle_gamma 90.000000
_cell_volume 4450.092971
_symmetry_space_group_name_H-M "I B C A "
_symmetry_group_IT_number 73
_symmetry_cell_setting 'orthorhombic'
loop_
_space_group_symop_operation_xyz
x,y,z
-x,1/2-y,z
x,-y,1/2-z
1/2-x,y,-z
-x,-y,-z
x,1/2+y,-z
-x,y,1/2+z
1/2+x,-y,z
1/2+x,1/2+y,1/2+z
1/2-x,-y,1/2+z
1/2+x,1/2-y,-z
-x,1/2+y,1/2-z
1/2-x,1/2-y,1/2-z
1/2+x,y,1/2-z
1/2-x,1/2+y,z
x,1/2-y,1/2+z
loop_
_atom_site_type_symbol
_atom_site_label
_atom_site_fract_x
_atom_site_fract_y
_atom_site_fract_z
Si Si1 0.825106 0.403641 0.551876
Si Si2 0.179662 0.295605 0.607047
Si Si3 0.509847 0.599987 0.278638
Si Si4 0.362223 0.758882 0.734775
Si Si5 0.368458 0.583341 0.893388
Si Si6 0.966934 0.353524 0.011097
O O1 0.750000 0.427181 0.500000
O O2 0.797998 0.304519 0.579103
O O3 0.816981 0.481676 0.602885
O O4 0.936602 0.410971 0.528267
O O5 0.120381 0.287537 0.667551
O O6 0.284599 0.341651 0.620507
O O7 0.111840 0.356281 0.564016
O O8 0.490459 0.500000 0.250000
O O9 0.591083 0.656907 0.242284
O O10 0.410389 0.662338 0.276906
O O11 0.546145 0.587217 0.344999
O O12 0.250000 0.750000 0.750000
O O13 0.416173 0.601715 0.955753
O O14 0.000000 0.250000 0.995204
#
# Coordination Sequence:
#
# PCOD8296549 Si02
#       6
#    16  16  16  16  16  16
#     4  11  24  42  66 103 140 181 228 289 357 426
#     4  11  23  44  69  98 141 181 230 293 351 428
#     4  11  27  46  71 101 138 183 241 289 352 425
#     4  11  25  48  70 100 139 187 237 292 356 416
#     4  12  24  44  69 100 139 177 236 287 346 426
#     4  10  23  39  69  99 135 179 223 283 365 414
#
# _framework density 21.572583999999999
#
# number of rings (size 3 to 8) (size 9 to 14) (size 15 to 20)
#    0.000    1.000    1.667    5.000   11.667    2.000 
#    3.000    0.000    0.000    0.000    0.000    0.000 
#    0.000    0.000    0.000    0.000    0.000    0.000 
#
# Total GULP energy -595384.982596 kJ/mol
# GULP energy per Si atom -12403.853804 kJ/mol
# Density = 2.152348 g / cm^3
# Si number density = 21.572584 Si / 1000 Ang^3
#
#
#
# Elastic Constant Matrix: (Units=GPa)
#
#
# Indices 1 2 3 4 5 6 
#
# 1 126.0275 44.3560 37.6870 0.0000 0.0000 0.0000
# 2 44.3560 89.7599 31.0587 0.0000 0.0000 0.0000
# 3 37.6870 31.0587 137.5286 0.0000 0.0000 0.0000
# 4 0.0000 0.0000 0.0000 30.4736 0.0000 0.0000
# 5 0.0000 0.0000 0.0000 0.0000 36.1800 0.0000
# 6 0.0000 0.0000 0.0000 0.0000 0.0000 23.3219
#
#
#
# Elastic Compliance Matrix: (Units=1/GPa)
#
#
# Indices 1 2 3 4 5 6 
#
# 1 0.009983 -0.004324 -0.001759 0.000000 0.000000 0.000000
# 2 -0.004324 0.013959 -0.001967 0.000000 0.000000 0.000000
# 3 -0.001759 -0.001967 0.008198 0.000000 0.000000 0.000000
# 4 0.000000 0.000000 0.000000 0.032815 0.000000 0.000000
# 5 0.000000 0.000000 0.000000 0.000000 0.027640 0.000000
# 6 0.000000 0.000000 0.000000 0.000000 0.000000 0.042878
#
#
# Mechanical properties :
#
#
# Convention : Reuss Voigt Hill
#
# Bulk Modulus (GPa) = 62.35437 64.39107 63.37272
# Shear Modulus (GPa) = 31.86356 34.00940 32.93648
#
# Velocity S-wave (km/s) = 3.84740 3.97484 3.91164
# Velocity P-wave (km/s) = 6.97881 7.13997 7.05985
#
# Compressibility (1/GPa) = 0.01603737
#
# Stress axis : x y z
#
# Youngs Moduli (GPa) = 100.17226 71.64066 121.98830
#
# Poissons Ratio (x) = 0.30981 0.21457
# Poissons Ratio (y) = 0.43319 0.23999
# Poissons Ratio (z) = 0.17620 0.14094
#
# Static dielectric constant tensor:
#      x y z
#    x 4.047570 0.000000 0.000000 
#    y 0.000000 4.128710 0.000000 
#    z 0.000000 0.000000 4.034060 
# 
# 
# High freq. dielectric constant tensor:
#      x y z
#    x 1.854130 0.000000 0.000000 
#    y 0.000000 1.860340 0.000000 
#    z 0.000000 0.000000 1.848210 
# 
# From -- ./inp_files/25988.got.cif
#   From: 2010.03.12/outbox.cif.g09.slc.cpg/sg73_13_cif.got.tgz:25988.got - 2010.04.16 15:25:48.
