data_PCOD8296475
_publ_section_title
;
Structure prediction by ZEFSAII (Michael W. Deem and Ramdas Pophale) SiO2 
 PCOD8296475
Probable space group: I B C A 
;
_chemical_formula_sum "Si O2"
_cell_formula_units_Z 64
_cell_length_a 12.098908
_cell_length_b 28.223401
_cell_length_c 8.546906
_cell_angle_alpha 90.000000
_cell_angle_beta 90.000000
_cell_angle_gamma 90.000000
_cell_volume 2918.531924
_symmetry_space_group_name_H-M "I B C A "
_symmetry_group_IT_number 73
_symmetry_cell_setting 'orthorhombic'
loop_
_space_group_symop_operation_xyz
x,y,z
-x,1/2-y,z
x,-y,1/2-z
1/2-x,y,-z
-x,-y,-z
x,1/2+y,-z
-x,y,1/2+z
1/2+x,-y,z
1/2+x,1/2+y,1/2+z
1/2-x,-y,1/2+z
1/2+x,1/2-y,-z
-x,1/2+y,1/2-z
1/2-x,1/2-y,1/2-z
1/2+x,y,1/2-z
1/2-x,1/2+y,z
x,1/2-y,1/2+z
loop_
_atom_site_type_symbol
_atom_site_label
_atom_site_fract_x
_atom_site_fract_y
_atom_site_fract_z
Si Si1 0.412379 0.560619 0.905955
Si Si2 0.633175 0.047949 0.942733
Si Si3 0.250000 0.133777 0.000000
Si Si4 0.158581 0.787070 0.695970
Si Si5 0.500000 0.250000 0.435701
O O1 0.366148 0.508828 0.944106
O O2 0.390925 0.571289 0.724543
O O3 0.354560 0.598774 0.020603
O O4 0.542684 0.565132 0.933303
O O5 0.750000 0.067605 0.000000
O O6 0.275067 0.164647 0.157014
O O7 0.250000 0.750000 0.750000
O O8 0.097270 0.773937 0.534344
O O9 0.061777 0.789790 0.827446
#
# Coordination Sequence:
#
# PCOD8296475 Si02
#       5
#    16  16   8  16   8
#     4  10  24  40  69 103 136 187 237 297 345 436
#     4  10  22  44  70  95 145 189 230 283 382 412
#     4  12  24  42  70 104 144 174 258 288 346 428
#     4  11  22  44  70  99 136 186 221 298 353 423
#     4  10  22  42  72  96 128 188 232 264 384 418
#
# _framework density 21.928833999999998
#
# number of rings (size 3 to 8) (size 9 to 14) (size 15 to 20)
#    0.000    1.500    3.750    0.000    3.500    4.000 
#    0.000    2.500    0.000    0.000    0.000    0.000 
#    0.000    0.000    0.000    0.000    0.000    0.000 
#
# Total GULP energy -396585.738656 kJ/mol
# GULP energy per Si atom -12393.304333 kJ/mol
# Density = 2.187892 g / cm^3
# Si number density = 21.928834 Si / 1000 Ang^3
#
#
#
# Elastic Constant Matrix: (Units=GPa)
#
#
# Indices 1 2 3 4 5 6 
#
# 1 177.2742 44.5871 93.5875 -0.0029 0.0030 0.0008
# 2 44.5871 90.9406 42.3162 -0.0030 0.0029 0.0009
# 3 93.5875 42.3162 140.2103 0.0005 0.0027 -0.0010
# 4 -0.0029 -0.0030 0.0005 17.8944 0.0055 0.0024
# 5 0.0030 0.0029 0.0027 0.0055 54.4731 -0.0010
# 6 0.0008 0.0009 -0.0010 0.0024 -0.0010 35.3241
#
#
#
# Elastic Compliance Matrix: (Units=1/GPa)
#
#
# Indices 1 2 3 4 5 6 
#
# 1 0.008977 -0.001877 -0.005426 0.000001 0.000000 0.000000
# 2 -0.001877 0.013185 -0.002727 0.000002 0.000000 0.000000
# 3 -0.005426 -0.002727 0.011577 -0.000002 0.000000 0.000001
# 4 0.000001 0.000002 -0.000002 0.055883 -0.000006 -0.000004
# 5 0.000000 0.000000 0.000000 -0.000006 0.018358 0.000001
# 6 0.000000 0.000000 0.000001 -0.000004 0.000001 0.028309
#
#
# Mechanical properties :
#
#
# Convention : Reuss Voigt Hill
#
# Bulk Modulus (GPa) = 73.09542 85.48962 79.29252
# Shear Modulus (GPa) = 31.07360 36.73395 33.90377
#
# Velocity S-wave (km/s) = 3.76842 4.09729 3.93629
# Velocity P-wave (km/s) = 7.23464 7.83922 7.54299
#
# Compressibility (1/GPa) = 0.01368075
#
# Stress axis : x y z
#
# Youngs Moduli (GPa) = 111.39011 75.84321 86.38060
#
# Poissons Ratio (x) = 0.14234 0.46869
# Poissons Ratio (y) = 0.20906 0.23552
# Poissons Ratio (z) = 0.60438 0.20679
#
# Static dielectric constant tensor:
#      x y z
#    x 4.205220 0.000000 0.000010 
#    y 0.000000 3.744310 0.000000 
#    z 0.000010 0.000000 3.986740 
# 
# 
# High freq. dielectric constant tensor:
#      x y z
#    x 1.884930 0.000000 0.000000 
#    y 0.000000 1.830670 0.000000 
#    z 0.000000 0.000000 1.858550 
# 
# From -- ./inp_files/4012.got.cif
#   From: 2010.03.12/outbox.cif.g09.slc.cpg/sg73_3_cif.got.tgz:4012.got - 2010.04.16 15:25:48.
