data_PCOD8296375
_publ_section_title
;
Structure prediction by ZEFSAII (Michael W. Deem and Ramdas Pophale) SiO2 
 PCOD8296375
Probable space group: I B C A 
;
_chemical_formula_sum "Si O2"
_cell_formula_units_Z 112
_cell_length_a 10.750804
_cell_length_b 23.327980
_cell_length_c 23.683761
_cell_angle_alpha 90.000000
_cell_angle_beta 90.000000
_cell_angle_gamma 90.000000
_cell_volume 5939.757962
_symmetry_space_group_name_H-M "I B C A "
_symmetry_group_IT_number 73
_symmetry_cell_setting 'orthorhombic'
loop_
_space_group_symop_operation_xyz
x,y,z
-x,1/2-y,z
x,-y,1/2-z
1/2-x,y,-z
-x,-y,-z
x,1/2+y,-z
-x,y,1/2+z
1/2+x,-y,z
1/2+x,1/2+y,1/2+z
1/2-x,-y,1/2+z
1/2+x,1/2-y,-z
-x,1/2+y,1/2-z
1/2-x,1/2-y,1/2-z
1/2+x,y,1/2-z
1/2-x,1/2+y,z
x,1/2-y,1/2+z
loop_
_atom_site_type_symbol
_atom_site_label
_atom_site_fract_x
_atom_site_fract_y
_atom_site_fract_z
Si Si1 0.557521 0.308103 0.023475
Si Si2 0.669796 0.616725 0.943409
Si Si3 0.720906 0.204857 0.630008
Si Si4 0.623981 0.714422 0.253881
Si Si5 0.155688 0.325824 0.139283
Si Si6 0.092121 0.871854 0.414949
Si Si7 0.374273 0.990536 0.535029
O O1 0.500000 0.250000 0.997367
O O2 0.460880 0.352690 0.049571
O O3 0.647684 0.286069 0.072332
O O4 0.629146 0.341776 0.974229
O O5 0.727024 0.640385 0.885337
O O6 0.653086 0.549289 0.932302
O O7 0.750000 0.628430 0.000000
O O8 0.622642 0.194213 0.680964
O O9 0.817653 0.257772 0.635053
O O10 0.803873 0.147226 0.629755
O O11 0.500000 0.750000 0.240704
O O12 0.750000 0.750000 0.250000
O O13 0.632055 0.663461 0.206674
O O14 0.041933 0.348561 0.102482
O O15 0.095539 0.940455 0.420257
O O16 0.250000 0.973505 0.500000
O O17 0.500000 0.000000 0.500000
#
# Coordination Sequence:
#
# PCOD8296375 Si02
#       7
#    16  16  16  16  16  16  16
#     4  12  21  33  55  88 127 152 191 242 316 370
#     4  11  22  38  58  86 121 166 200 252 305 372
#     4  11  23  35  57  92 122 155 196 250 311 371
#     4  10  22  40  61  86 122 165 207 250 302 378
#     4  11  21  40  59  85 120 161 202 246 314 371
#     4  12  23  36  59  90 122 160 196 252 307 374
#     4  11  22  41  60  86 125 166 215 250 302 374
#
# _framework density 18.855986999999999
#
# number of rings (size 3 to 8) (size 9 to 14) (size 15 to 20)
#    0.000    0.857    4.286    5.571    2.000    0.000 
#    0.000    0.000    0.000    0.857    0.000    0.000 
#    0.000    0.000    0.000    0.000    0.000    0.000 
#
# Total GULP energy -694079.049556 kJ/mol
# GULP energy per Si atom -12394.268742 kJ/mol
# Density = 1.881307 g / cm^3
# Si number density = 18.855987 Si / 1000 Ang^3
#
#
#
# Elastic Constant Matrix: (Units=GPa)
#
#
# Indices 1 2 3 4 5 6 
#
# 1 88.8890 21.9572 24.5106 0.0000 0.0000 0.0000
# 2 21.9572 112.7623 31.0734 0.0000 0.0000 0.0000
# 3 24.5106 31.0734 90.7102 0.0000 0.0000 0.0000
# 4 0.0000 0.0000 0.0000 12.5344 0.0000 0.0000
# 5 0.0000 0.0000 0.0000 0.0000 29.5883 0.0000
# 6 0.0000 0.0000 0.0000 0.0000 0.0000 27.0819
#
#
#
# Elastic Compliance Matrix: (Units=1/GPa)
#
#
# Indices 1 2 3 4 5 6 
#
# 1 0.012428 -0.001650 -0.002793 0.000000 0.000000 0.000000
# 2 -0.001650 0.010012 -0.002984 0.000000 0.000000 0.000000
# 3 -0.002793 -0.002984 0.012801 0.000000 0.000000 0.000000
# 4 0.000000 0.000000 0.000000 0.079781 0.000000 0.000000
# 5 0.000000 0.000000 0.000000 0.000000 0.033797 0.000000
# 6 0.000000 0.000000 0.000000 0.000000 0.000000 0.036925
#
#
# Mechanical properties :
#
#
# Convention : Reuss Voigt Hill
#
# Bulk Modulus (GPa) = 49.05133 49.71600 49.38366
# Shear Modulus (GPa) = 24.10891 28.16227 26.13559
#
# Velocity S-wave (km/s) = 3.57960 3.86883 3.72703
# Velocity P-wave (km/s) = 6.56924 6.81033 6.69087
#
# Compressibility (1/GPa) = 0.02038681
#
# Stress axis : x y z
#
# Youngs Moduli (GPa) = 80.46518 99.88244 78.12011
#
# Poissons Ratio (x) = 0.16484 0.21817
# Poissons Ratio (y) = 0.13280 0.23308
# Poissons Ratio (z) = 0.22472 0.29801
#
# Static dielectric constant tensor:
#      x y z
#    x 3.669800 0.000000 0.000000 
#    y 0.000000 3.443280 0.000000 
#    z 0.000000 0.000000 3.961960 
# 
# 
# High freq. dielectric constant tensor:
#      x y z
#    x 1.754670 0.000000 0.000000 
#    y 0.000000 1.710290 0.000000 
#    z 0.000000 0.000000 1.718520 
# 
# From -- ./inp_files/29045.got.cif
#   From: 2010.03.12/outbox.cif.g09.slc.cpg/sg73_15_cif.got.tgz:29045.got - 2010.04.16 15:25:48.
