data_PCOD8296215
_publ_section_title
;
Structure prediction by ZEFSAII (Michael W. Deem and Ramdas Pophale) SiO2 
 PCOD8296215
Probable space group: I B C A 
;
_chemical_formula_sum "Si O2"
_cell_formula_units_Z 80
_cell_length_a 12.362683
_cell_length_b 14.189177
_cell_length_c 18.191672
_cell_angle_alpha 90.000000
_cell_angle_beta 90.000000
_cell_angle_gamma 90.000000
_cell_volume 3191.115744
_symmetry_space_group_name_H-M "I B C A "
_symmetry_group_IT_number 73
_symmetry_cell_setting 'orthorhombic'
loop_
_space_group_symop_operation_xyz
x,y,z
-x,1/2-y,z
x,-y,1/2-z
1/2-x,y,-z
-x,-y,-z
x,1/2+y,-z
-x,y,1/2+z
1/2+x,-y,z
1/2+x,1/2+y,1/2+z
1/2-x,-y,1/2+z
1/2+x,1/2-y,-z
-x,1/2+y,1/2-z
1/2-x,1/2-y,1/2-z
1/2+x,y,1/2-z
1/2-x,1/2+y,z
x,1/2-y,1/2+z
loop_
_atom_site_type_symbol
_atom_site_label
_atom_site_fract_x
_atom_site_fract_y
_atom_site_fract_z
Si Si1 0.054635 0.653475 0.037245
Si Si2 0.603413 0.590249 0.848044
Si Si3 0.083458 0.893490 0.762882
Si Si4 0.782228 0.776241 0.158498
Si Si5 0.914657 0.612002 0.375924
O O1 0.153714 0.671104 0.093072
O O2 0.000000 0.750000 0.011918
O O3 0.964027 0.590588 0.076313
O O4 0.091844 0.601431 0.963671
O O5 0.525000 0.625232 0.783735
O O6 0.703947 0.662857 0.848573
O O7 0.641240 0.482008 0.839848
O O8 0.039313 0.878683 0.846571
O O9 0.174315 0.817040 0.737690
O O10 0.127546 0.000000 0.750000
O O11 0.656019 0.798955 0.150231
#
# Coordination Sequence:
#
# PCOD8296215 Si02
#       5
#    16  16  16  16  16
#     4   9  19  38  62  87 121 159 197 250 310 358
#     4   9  20  40  60  83 124 164 192 247 313 355
#     4   9  20  37  59  86 117 155 198 248 301 354
#     4  10  21  40  61  86 126 161 193 249 312 359
#     4  11  21  37  64  93 116 157 215 247 289 370
#
# _framework density 25.069600999999999
#
# number of rings (size 3 to 8) (size 9 to 14) (size 15 to 20)
#    0.000    2.400    0.000    3.000    0.000    4.800 
#    0.000   18.000    0.000    4.800    0.000    0.000 
#    0.000    0.000    0.000    0.000    0.000    0.000 
#
# Total GULP energy -495942.308703 kJ/mol
# GULP energy per Si atom -12398.557718 kJ/mol
# Density = 2.501254 g / cm^3
# Si number density = 25.069601 Si / 1000 Ang^3
#
#
#
# Elastic Constant Matrix: (Units=GPa)
#
#
# Indices 1 2 3 4 5 6 
#
# 1 42.5360 22.4697 -2.6186 0.0000 0.0000 0.0000
# 2 22.4697 99.8226 -10.6128 0.0000 0.0000 0.0000
# 3 -2.6186 -10.6128 112.5092 0.0000 0.0000 0.0000
# 4 0.0000 0.0000 0.0000 31.3152 0.0000 0.0000
# 5 0.0000 0.0000 0.0000 0.0000 26.5653 0.0000
# 6 0.0000 0.0000 0.0000 0.0000 0.0000 33.8063
#
#
#
# Elastic Compliance Matrix: (Units=1/GPa)
#
#
# Indices 1 2 3 4 5 6 
#
# 1 0.026683 -0.006000 0.000055 0.000000 0.000000 0.000000
# 2 -0.006000 0.011469 0.000942 0.000000 0.000000 0.000000
# 3 0.000055 0.000942 0.008978 0.000000 0.000000 0.000000
# 4 0.000000 0.000000 0.000000 0.031933 0.000000 0.000000
# 5 0.000000 0.000000 0.000000 0.000000 0.037643 0.000000
# 6 0.000000 0.000000 0.000000 0.000000 0.000000 0.029580
#
#
# Mechanical properties :
#
#
# Convention : Reuss Voigt Hill
#
# Bulk Modulus (GPa) = 26.93732 30.37159 28.65445
# Shear Modulus (GPa) = 29.64426 34.71267 32.17846
#
# Velocity S-wave (km/s) = 3.44245 3.72513 3.58657
# Velocity P-wave (km/s) = 5.15451 5.53564 5.34847
#
# Compressibility (1/GPa) = 0.03712322
#
# Stress axis : x y z
#
# Youngs Moduli (GPa) = 37.47772 87.19476 111.37944
#
# Poissons Ratio (x) = 0.52319 -0.00613
# Poissons Ratio (y) = 0.22488 -0.10494
# Poissons Ratio (z) = -0.00206 -0.08215
#
# Static dielectric constant tensor:
#      x y z
#    x 4.163050 0.000000 0.000000 
#    y 0.000000 4.471720 0.000000 
#    z 0.000000 0.000000 4.604270 
# 
# 
# High freq. dielectric constant tensor:
#      x y z
#    x 1.973400 0.000000 0.000000 
#    y 0.000000 2.005900 0.000000 
#    z 0.000000 0.000000 2.007740 
# 
# From -- ./inp_files/25892.got.cif
#   From: 2010.03.12/outbox.cif.g09.slc.cpg/sg73_13_cif.got.tgz:25892.got - 2010.04.16 15:25:48.
