data_PCOD8296617
_publ_section_title
;
Structure prediction by ZEFSAII (Michael W. Deem and Ramdas Pophale) SiO2 
 PCOD8296617
Probable space group: I B C A 
;
_chemical_formula_sum "Si O2"
_cell_formula_units_Z 64
_cell_length_a 12.581282
_cell_length_b 24.487789
_cell_length_c 8.200224
_cell_angle_alpha 90.000000
_cell_angle_beta 90.000000
_cell_angle_gamma 90.000000
_cell_volume 2526.388799
_symmetry_space_group_name_H-M "I B C A "
_symmetry_group_IT_number 73
_symmetry_cell_setting 'orthorhombic'
loop_
_space_group_symop_operation_xyz
x,y,z
-x,1/2-y,z
x,-y,1/2-z
1/2-x,y,-z
-x,-y,-z
x,1/2+y,-z
-x,y,1/2+z
1/2+x,-y,z
1/2+x,1/2+y,1/2+z
1/2-x,-y,1/2+z
1/2+x,1/2-y,-z
-x,1/2+y,1/2-z
1/2-x,1/2-y,1/2-z
1/2+x,y,1/2-z
1/2-x,1/2+y,z
x,1/2-y,1/2+z
loop_
_atom_site_type_symbol
_atom_site_label
_atom_site_fract_x
_atom_site_fract_y
_atom_site_fract_z
Si Si1 0.921002 0.071916 0.104636
Si Si2 0.084030 0.680618 0.564319
Si Si3 0.866751 0.548908 0.539251
Si Si4 0.863079 0.293124 0.064232
O O1 0.899689 0.077895 0.294249
O O2 0.867451 0.016792 0.038700
O O3 0.873610 0.122602 0.002891
O O4 0.049712 0.069436 0.095143
O O5 0.134233 0.727215 0.448183
O O6 0.955483 0.682422 0.551194
O O7 0.118943 0.689004 0.749957
O O8 0.750000 0.570244 0.500000
O O9 0.750000 0.315416 0.000000
#
# Coordination Sequence:
#
# PCOD8296617 Si02
#       4
#    16  16  16  16
#     4  10  23  44  71 103 141 182 231 290 348 418
#     4  11  23  44  69 102 146 186 235 291 348 416
#     4  10  23  44  70 104 142 179 230 290 352 420
#     4  11  24  43  69 104 146 188 236 291 347 413
#
# _framework density 25.332601
#
# number of rings (size 3 to 8) (size 9 to 14) (size 15 to 20)
#    0.000    1.500    0.000    5.250    0.000   10.000 
#    0.000   12.500    0.000    0.000    0.000    0.000 
#    0.000    0.000    0.000    0.000    0.000    0.000 
#
# Total GULP energy -396880.403006 kJ/mol
# GULP energy per Si atom -12402.512594 kJ/mol
# Density = 2.527494 g / cm^3
# Si number density = 25.332601 Si / 1000 Ang^3
#
#
#
# Elastic Constant Matrix: (Units=GPa)
#
#
# Indices 1 2 3 4 5 6 
#
# 1 174.5391 17.7205 105.4951 -0.0012 0.0003 0.0001
# 2 17.7205 150.8319 88.5989 -0.0005 0.0002 0.0002
# 3 105.4951 88.5989 202.8534 0.0022 -0.0015 0.0002
# 4 -0.0012 -0.0005 0.0022 34.8103 -0.0006 0.0002
# 5 0.0003 0.0002 -0.0015 -0.0006 37.1349 -0.0004
# 6 0.0001 0.0002 0.0002 0.0002 -0.0004 -10.6053
#
#
#
# Elastic Compliance Matrix: (Units=1/GPa)
#
#
# Indices 1 2 3 4 5 6 
#
# 1 0.008888 0.002248 -0.005604 0.000001 0.000000 0.000000
# 2 0.002248 0.009486 -0.005312 0.000001 0.000000 0.000000
# 3 -0.005604 -0.005312 0.010164 -0.000001 0.000001 0.000000
# 4 0.000001 0.000001 -0.000001 0.028727 0.000000 0.000001
# 5 0.000000 0.000000 0.000001 0.000000 0.026929 -0.000001
# 6 0.000000 0.000000 0.000000 0.000001 -0.000001 -0.094292
#
#
# Mechanical properties :
#
#
# Convention : Reuss Voigt Hill
#
# Bulk Modulus (GPa) = 89.27274 105.76149 97.51712
# Shear Modulus (GPa) = 455.63652 33.36198 244.49925
#
# Velocity S-wave (km/s) = 13.42580 3.63293 9.83490
# Velocity P-wave (km/s) = 16.60280 7.70956 12.94392
#
# Compressibility (1/GPa) = 0.01120163
#
# Stress axis : x y z
#
# Youngs Moduli (GPa) = 112.50536 105.41651 98.38355
#
# Poissons Ratio (x) = -0.23694 0.55136
# Poissons Ratio (y) = -0.25287 0.52263
# Poissons Ratio (z) = 0.63050 0.55999
#
# Static dielectric constant tensor:
#      x y z
#    x 4.756880 0.000000 0.000000 
#    y 0.000000 4.842770 -0.000010 
#    z 0.000000 -0.000010 4.348660 
# 
# 
# High freq. dielectric constant tensor:
#      x y z
#    x 2.009640 0.000000 0.000000 
#    y 0.000000 2.030180 0.000000 
#    z 0.000000 0.000000 2.004320 
# 
# From -- ./inp_files/4621.got.cif
#   From: 2010.03.12/outbox.cif.g09.slc.cpg/sg73_3_cif.got.tgz:4621.got - 2010.04.16 15:25:48.
