data_PCOD8296032
_publ_section_title
;
Structure prediction by ZEFSAII (Michael W. Deem and Ramdas Pophale) SiO2 
 PCOD8296032
Probable space group: I B C A 
;
_chemical_formula_sum "Si O2"
_cell_formula_units_Z 96
_cell_length_a 21.144226
_cell_length_b 16.196485
_cell_length_c 13.425742
_cell_angle_alpha 90.000000
_cell_angle_beta 90.000000
_cell_angle_gamma 90.000000
_cell_volume 4597.808326
_symmetry_space_group_name_H-M "I B C A "
_symmetry_group_IT_number 73
_symmetry_cell_setting 'orthorhombic'
loop_
_space_group_symop_operation_xyz
x,y,z
-x,1/2-y,z
x,-y,1/2-z
1/2-x,y,-z
-x,-y,-z
x,1/2+y,-z
-x,y,1/2+z
1/2+x,-y,z
1/2+x,1/2+y,1/2+z
1/2-x,-y,1/2+z
1/2+x,1/2-y,-z
-x,1/2+y,1/2-z
1/2-x,1/2-y,1/2-z
1/2+x,y,1/2-z
1/2-x,1/2+y,z
x,1/2-y,1/2+z
loop_
_atom_site_type_symbol
_atom_site_label
_atom_site_fract_x
_atom_site_fract_y
_atom_site_fract_z
Si Si1 0.883506 0.641168 0.553255
Si Si2 0.059227 0.500000 0.750000
Si Si3 0.147940 0.195390 0.363563
Si Si4 0.988036 0.343086 0.353224
Si Si5 0.750000 0.878641 0.500000
Si Si6 0.841476 0.393238 0.153707
Si Si7 0.208526 0.517252 0.138170
O O1 0.857034 0.705655 0.634979
O O2 0.865239 0.662763 0.438875
O O3 0.850688 0.555953 0.581325
O O4 0.959634 0.636645 0.563383
O O5 0.014553 0.578663 0.722888
O O6 0.108064 0.531531 0.835758
O O7 0.081335 0.158388 0.403001
O O8 0.199795 0.177754 0.445357
O O9 0.162794 0.163056 0.252605
O O10 0.000000 0.250000 0.305068
O O11 0.717128 0.930687 0.585520
O O12 0.772578 0.429399 0.129971
O O13 0.188673 0.500000 0.250000
#
# Coordination Sequence:
#
# PCOD8296032 Si02
#       7
#    16   8  16  16   8  16  16
#     4  11  25  40  66  98 133 170 222 278 330 395
#     4  10  20  40  72  90 128 194 218 266 348 402
#     4  10  24  44  67  93 131 177 218 271 337 399
#     4   9  21  44  63  97 137 173 227 271 327 407
#     4  12  22  40  66  94 124 170 220 264 324 400
#     4  11  21  42  67  91 131 180 216 267 341 409
#     4  12  23  39  60  97 133 162 218 276 320 393
#
# _framework density 20.879512999999999
#
# number of rings (size 3 to 8) (size 9 to 14) (size 15 to 20)
#    0.000    1.333    4.167    1.000    3.500    2.667 
#    0.000   20.000    0.000    0.000    0.000    0.000 
#    0.000    0.000    0.000    0.000    0.000    0.000 
#
# Total GULP energy -594757.204682 kJ/mol
# GULP energy per Si atom -12390.775098 kJ/mol
# Density = 2.083199 g / cm^3
# Si number density = 20.879513 Si / 1000 Ang^3
#
#
#
# Elastic Constant Matrix: (Units=GPa)
#
#
# Indices 1 2 3 4 5 6 
#
# 1 110.9706 25.3820 35.4878 0.0000 0.0000 0.0000
# 2 25.3820 72.0953 15.9852 0.0000 0.0000 0.0000
# 3 35.4878 15.9852 103.1101 0.0000 0.0000 0.0000
# 4 0.0000 0.0000 0.0000 30.7033 0.0000 0.0000
# 5 0.0000 0.0000 0.0000 0.0000 23.4967 0.0000
# 6 0.0000 0.0000 0.0000 0.0000 0.0000 33.5282
#
#
#
# Elastic Compliance Matrix: (Units=1/GPa)
#
#
# Indices 1 2 3 4 5 6 
#
# 1 0.010744 -0.003068 -0.003222 0.000000 0.000000 0.000000
# 2 -0.003068 0.015240 -0.001307 0.000000 0.000000 0.000000
# 3 -0.003222 -0.001307 0.011010 0.000000 0.000000 0.000000
# 4 0.000000 0.000000 0.000000 0.032570 0.000000 0.000000
# 5 0.000000 0.000000 0.000000 0.000000 0.042559 0.000000
# 6 0.000000 0.000000 0.000000 0.000000 0.000000 0.029826
#
#
# Mechanical properties :
#
#
# Convention : Reuss Voigt Hill
#
# Bulk Modulus (GPa) = 45.87108 48.87620 47.37364
# Shear Modulus (GPa) = 30.41203 31.50038 30.95621
#
# Velocity S-wave (km/s) = 3.82062 3.88838 3.85465
# Velocity P-wave (km/s) = 6.44049 6.60446 6.52299
#
# Compressibility (1/GPa) = 0.02180023
#
# Stress axis : x y z
#
# Youngs Moduli (GPa) = 93.07952 65.61507 90.82738
#
# Poissons Ratio (x) = 0.20131 0.29265
# Poissons Ratio (y) = 0.28557 0.11869
# Poissons Ratio (z) = 0.29990 0.08575
#
# Static dielectric constant tensor:
#      x y z
#    x 3.981050 0.000000 0.000000 
#    y 0.000000 3.976530 0.000000 
#    z 0.000000 0.000000 3.765570 
# 
# 
# High freq. dielectric constant tensor:
#      x y z
#    x 1.827570 0.000000 0.000000 
#    y 0.000000 1.821650 0.000000 
#    z 0.000000 0.000000 1.798490 
# 
# From -- ./inp_files/18676.got.cif
#   From: 2010.03.12/outbox.cif.g09.slc.cpg/sg73_10_cif.got.tgz:18676.got - 2010.04.16 15:25:48.
