data_PCOD8296608
_publ_section_title
;
Structure prediction by ZEFSAII (Michael W. Deem and Ramdas Pophale) SiO2 
 PCOD8296608
Probable space group: I B C A 
;
_chemical_formula_sum "Si O2"
_cell_formula_units_Z 104
_cell_length_a 23.759705
_cell_length_b 22.426393
_cell_length_c 9.068238
_cell_angle_alpha 90.000000
_cell_angle_beta 90.000000
_cell_angle_gamma 90.000000
_cell_volume 4831.960579
_symmetry_space_group_name_H-M "I B C A "
_symmetry_group_IT_number 73
_symmetry_cell_setting 'orthorhombic'
loop_
_space_group_symop_operation_xyz
x,y,z
-x,1/2-y,z
x,-y,1/2-z
1/2-x,y,-z
-x,-y,-z
x,1/2+y,-z
-x,y,1/2+z
1/2+x,-y,z
1/2+x,1/2+y,1/2+z
1/2-x,-y,1/2+z
1/2+x,1/2-y,-z
-x,1/2+y,1/2-z
1/2-x,1/2-y,1/2-z
1/2+x,y,1/2-z
1/2-x,1/2+y,z
x,1/2-y,1/2+z
loop_
_atom_site_type_symbol
_atom_site_label
_atom_site_fract_x
_atom_site_fract_y
_atom_site_fract_z
Si Si1 0.057810 0.157702 0.646728
Si Si2 0.444859 0.625475 0.308344
Si Si3 0.873164 0.224868 0.674733
Si Si4 0.834974 0.405496 0.758340
Si Si5 0.802706 0.291650 0.901482
Si Si6 0.893788 0.000000 0.750000
Si Si7 0.686673 0.494136 0.474193
O O1 0.049757 0.130515 0.484176
O O2 0.077550 0.226515 0.651317
O O3 0.103651 0.120751 0.735388
O O4 0.000213 0.151549 0.733773
O O5 0.393260 0.666342 0.258764
O O6 0.433977 0.557949 0.251778
O O7 0.818396 0.247182 0.767476
O O8 0.855810 0.205526 0.510873
O O9 0.792628 0.356574 0.828431
O O10 0.810166 0.428848 0.602529
O O11 0.843867 0.459776 0.868013
O O12 0.750000 0.270262 0.000000
O O13 0.851261 0.992639 0.616390
O O14 0.750000 0.516374 0.500000
#
# Coordination Sequence:
#
# PCOD8296608 Si02
#       7
#    16  16  16  16  16   8  16
#     4  11  26  46  68 100 131 184 229 296 347 406
#     4  12  27  45  71 100 140 180 234 287 352 413
#     4  11  24  45  71 100 140 177 237 285 344 423
#     4  10  23  44  65  98 141 175 233 287 334 417
#     4  11  23  42  68 103 139 184 224 288 356 403
#     4  12  26  44  68 110 140 176 228 288 346 416
#     4  11  23  43  71  98 137 187 231 274 338 412
#
# _framework density 21.523353
#
# number of rings (size 3 to 8) (size 9 to 14) (size 15 to 20)
#    0.000    0.923    3.077    3.231    6.462    4.308 
#    0.000    2.308    0.000    0.000    0.000    0.000 
#    0.000    0.000    0.000    0.000    0.000    0.000 
#
# Total GULP energy -644819.879140 kJ/mol
# GULP energy per Si atom -12400.382291 kJ/mol
# Density = 2.147436 g / cm^3
# Si number density = 21.523353 Si / 1000 Ang^3
#
#
#
# Elastic Constant Matrix: (Units=GPa)
#
#
# Indices 1 2 3 4 5 6 
#
# 1 71.3383 33.5631 26.0010 0.0000 0.0000 0.0000
# 2 33.5631 130.8401 40.9338 0.0000 0.0000 0.0000
# 3 26.0010 40.9338 119.5896 0.0000 0.0000 0.0000
# 4 0.0000 0.0000 0.0000 16.3985 0.0000 0.0000
# 5 0.0000 0.0000 0.0000 0.0000 31.8599 0.0000
# 6 0.0000 0.0000 0.0000 0.0000 0.0000 17.7123
#
#
#
# Elastic Compliance Matrix: (Units=1/GPa)
#
#
# Indices 1 2 3 4 5 6 
#
# 1 0.016535 -0.003491 -0.002400 0.000000 0.000000 0.000000
# 2 -0.003491 0.009296 -0.002423 0.000000 0.000000 0.000000
# 3 -0.002400 -0.002423 0.009713 0.000000 0.000000 0.000000
# 4 0.000000 0.000000 0.000000 0.060981 0.000000 0.000000
# 5 0.000000 0.000000 0.000000 0.000000 0.031387 0.000000
# 6 0.000000 0.000000 0.000000 0.000000 0.000000 0.056458
#
#
# Mechanical properties :
#
#
# Convention : Reuss Voigt Hill
#
# Bulk Modulus (GPa) = 52.86366 58.08484 55.47425
# Shear Modulus (GPa) = 24.11916 27.94549 26.03233
#
# Velocity S-wave (km/s) = 3.35117 3.60721 3.48155
# Velocity P-wave (km/s) = 6.29192 6.66294 6.48009
#
# Compressibility (1/GPa) = 0.01891659
#
# Stress axis : x y z
#
# Youngs Moduli (GPa) = 60.47860 107.56856 102.95298
#
# Poissons Ratio (x) = 0.37548 0.24711
# Poissons Ratio (y) = 0.21111 0.24947
# Poissons Ratio (z) = 0.14516 0.26065
#
# Static dielectric constant tensor:
#      x y z
#    x 3.697510 0.000000 0.000000 
#    y 0.000000 4.044480 0.000000 
#    z 0.000000 0.000000 4.112860 
# 
# 
# High freq. dielectric constant tensor:
#      x y z
#    x 1.838200 0.000000 0.000000 
#    y 0.000000 1.850300 0.000000 
#    z 0.000000 0.000000 1.868320 
# 
# From -- ./inp_files/7886.got.cif
#   From: 2010.03.12/outbox.cif.g09.slc.cpg/sg73_4_cif.got.tgz:7886.got - 2010.04.16 15:25:48.
