data_PCOD8296493
_publ_section_title
;
Structure prediction by ZEFSAII (Michael W. Deem and Ramdas Pophale) SiO2 
 PCOD8296493
Probable space group: I B C A 
;
_chemical_formula_sum "Si O2"
_cell_formula_units_Z 96
_cell_length_a 16.042948
_cell_length_b 24.288032
_cell_length_c 10.951584
_cell_angle_alpha 90.000000
_cell_angle_beta 90.000000
_cell_angle_gamma 90.000000
_cell_volume 4267.302605
_symmetry_space_group_name_H-M "I B C A "
_symmetry_group_IT_number 73
_symmetry_cell_setting 'orthorhombic'
loop_
_space_group_symop_operation_xyz
x,y,z
-x,1/2-y,z
x,-y,1/2-z
1/2-x,y,-z
-x,-y,-z
x,1/2+y,-z
-x,y,1/2+z
1/2+x,-y,z
1/2+x,1/2+y,1/2+z
1/2-x,-y,1/2+z
1/2+x,1/2-y,-z
-x,1/2+y,1/2-z
1/2-x,1/2-y,1/2-z
1/2+x,y,1/2-z
1/2-x,1/2+y,z
x,1/2-y,1/2+z
loop_
_atom_site_type_symbol
_atom_site_label
_atom_site_fract_x
_atom_site_fract_y
_atom_site_fract_z
Si Si1 0.106394 0.952889 0.519175
Si Si2 0.656694 0.864950 0.814407
Si Si3 0.660267 0.888550 0.210871
Si Si4 0.105580 0.199891 0.046343
Si Si5 0.083679 0.179557 0.581642
Si Si6 0.413684 0.071731 0.545464
O O1 0.132471 0.927472 0.649222
O O2 0.158979 0.926074 0.409773
O O3 0.009675 0.936223 0.508383
O O4 0.128629 0.017552 0.512830
O O5 0.745884 0.872709 0.749187
O O6 0.589493 0.836584 0.724548
O O7 0.658443 0.827172 0.936351
O O8 0.621532 0.829326 0.176726
O O9 0.606622 0.922093 0.311110
O O10 0.133310 0.263699 0.057257
O O11 0.007466 0.190723 0.027196
O O12 0.123770 0.127489 0.512069
#
# Coordination Sequence:
#
# PCOD8296493 Si02
#       6
#    16  16  16  16  16  16
#     4  10  22  43  71  92 129 176 219 268 330 393
#     4  11  24  45  65  96 139 176 215 276 344 391
#     4  11  23  45  66  95 134 175 216 269 341 399
#     4  10  23  41  70  92 133 178 227 274 326 395
#     4  11  24  40  67 103 126 176 229 275 325 389
#     4  11  23  41  69  99 126 166 230 273 314 404
#
# _framework density 22.496648
#
# number of rings (size 3 to 8) (size 9 to 14) (size 15 to 20)
#    0.000    1.333    3.333    3.500    2.333    3.333 
#   12.000    0.000    0.000    0.000    0.000    0.000 
#    0.000    0.000    0.000    0.000    0.000    0.000 
#
# Total GULP energy -594738.777861 kJ/mol
# GULP energy per Si atom -12390.391205 kJ/mol
# Density = 2.244544 g / cm^3
# Si number density = 22.496648 Si / 1000 Ang^3
#
#
#
# Elastic Constant Matrix: (Units=GPa)
#
#
# Indices 1 2 3 4 5 6 
#
# 1 52.6221 19.2502 12.5446 0.0000 0.0000 0.0000
# 2 19.2502 210.2665 44.5403 0.0001 0.0000 0.0000
# 3 12.5446 44.5403 83.5945 0.0003 0.0000 0.0001
# 4 0.0000 0.0001 0.0003 33.0869 0.0001 0.0000
# 5 0.0000 0.0000 0.0000 0.0001 12.6622 0.0000
# 6 0.0000 0.0000 0.0001 0.0000 0.0000 18.9589
#
#
#
# Elastic Compliance Matrix: (Units=1/GPa)
#
#
# Indices 1 2 3 4 5 6 
#
# 1 0.020043 -0.001350 -0.002288 0.000000 0.000000 0.000000
# 2 -0.001350 0.005452 -0.002702 0.000000 0.000000 0.000000
# 3 -0.002288 -0.002702 0.013746 0.000000 0.000000 0.000000
# 4 0.000000 0.000000 0.000000 0.030223 0.000000 0.000000
# 5 0.000000 0.000000 0.000000 0.000000 0.078975 0.000000
# 6 0.000000 0.000000 0.000000 0.000000 0.000000 0.052746
#
#
# Mechanical properties :
#
#
# Convention : Reuss Voigt Hill
#
# Bulk Modulus (GPa) = 37.65211 55.46149 46.55680
# Shear Modulus (GPa) = 22.44980 30.95147 26.70063
#
# Velocity S-wave (km/s) = 3.16241 3.71324 3.44884
# Velocity P-wave (km/s) = 5.48703 6.56437 6.04973
#
# Compressibility (1/GPa) = 0.02655894
#
# Stress axis : x y z
#
# Youngs Moduli (GPa) = 49.89305 183.42259 72.75009
#
# Poissons Ratio (x) = 0.24766 0.16647
# Poissons Ratio (y) = 0.06737 0.19659
# Poissons Ratio (z) = 0.11417 0.49565
#
# Static dielectric constant tensor:
#      x y z
#    x 3.768950 0.000000 0.000000 
#    y 0.000000 4.676420 0.000000 
#    z 0.000000 0.000000 3.840310 
# 
# 
# High freq. dielectric constant tensor:
#      x y z
#    x 1.867010 0.000000 0.000000 
#    y 0.000000 1.905910 0.000000 
#    z 0.000000 0.000000 1.871120 
# 
# From -- ./inp_files/12000.got.cif
#   From: 2010.03.12/outbox.cif.g09.slc.cpg/sg73_6_cif.got.tgz:12000.got - 2010.04.16 15:25:48.
