data_PCOD8296167
_publ_section_title
;
Structure prediction by ZEFSAII (Michael W. Deem and Ramdas Pophale) SiO2 
 PCOD8296167
Probable space group: I B C A 
;
_chemical_formula_sum "Si O2"
_cell_formula_units_Z 96
_cell_length_a 8.547135
_cell_length_b 17.495694
_cell_length_c 27.515354
_cell_angle_alpha 90.000000
_cell_angle_beta 90.000000
_cell_angle_gamma 90.000000
_cell_volume 4114.592617
_symmetry_space_group_name_H-M "I B C A "
_symmetry_group_IT_number 73
_symmetry_cell_setting 'orthorhombic'
loop_
_space_group_symop_operation_xyz
x,y,z
-x,1/2-y,z
x,-y,1/2-z
1/2-x,y,-z
-x,-y,-z
x,1/2+y,-z
-x,y,1/2+z
1/2+x,-y,z
1/2+x,1/2+y,1/2+z
1/2-x,-y,1/2+z
1/2+x,1/2-y,-z
-x,1/2+y,1/2-z
1/2-x,1/2-y,1/2-z
1/2+x,y,1/2-z
1/2-x,1/2+y,z
x,1/2-y,1/2+z
loop_
_atom_site_type_symbol
_atom_site_label
_atom_site_fract_x
_atom_site_fract_y
_atom_site_fract_z
Si Si1 0.144902 0.469307 0.139581
Si Si2 0.000000 0.250000 0.388025
Si Si3 0.588022 0.851665 0.471258
Si Si4 0.714869 0.584776 0.768306
Si Si5 0.890617 0.989198 0.929033
Si Si6 0.591307 0.869945 0.817692
Si Si7 0.250000 0.375634 0.500000
O O1 0.148116 0.422165 0.190135
O O2 0.316934 0.466803 0.117000
O O3 0.099211 0.556014 0.149335
O O4 0.032788 0.440616 0.095361
O O5 0.106060 0.192934 0.420429
O O6 0.115145 0.298085 0.353244
O O7 0.750000 0.833749 0.500000
O O8 0.564103 0.943759 0.467288
O O9 0.414145 0.826386 0.493617
O O10 0.663627 0.500000 0.750000
O O11 0.573309 0.632490 0.789919
O O12 0.774269 0.633101 0.722769
O O13 0.771916 0.928846 0.952630
#
# Coordination Sequence:
#
# PCOD8296167 Si02
#       7
#    16   8  16  16  16  16   8
#     4  11  20  35  63  98 132 169 211 280 351 408
#     4  12  26  48  66  92 138 188 242 272 326 418
#     4  12  26  45  71  99 139 187 230 288 344 412
#     4  10  21  38  65 100 130 168 221 285 355 405
#     4  12  20  38  65 103 136 167 219 286 357 412
#     4  11  23  40  65  92 134 179 222 279 335 410
#     4  12  24  42  72 108 134 174 230 294 370 416
#
# _framework density 23.331592000000001
#
# number of rings (size 3 to 8) (size 9 to 14) (size 15 to 20)
#    0.000    0.667    5.833    3.000    3.500    0.667 
#    0.000    0.000    3.667    0.000    0.000    0.000 
#    0.000    0.000    0.000    0.000    0.000    0.000 
#
# Total GULP energy -594743.575141 kJ/mol
# GULP energy per Si atom -12390.491149 kJ/mol
# Density = 2.327849 g / cm^3
# Si number density = 23.331592 Si / 1000 Ang^3
#
#
#
# Elastic Constant Matrix: (Units=GPa)
#
#
# Indices 1 2 3 4 5 6 
#
# 1 128.9297 22.2635 35.1881 0.0000 0.0000 0.0000
# 2 22.2635 48.1332 24.8573 0.0000 0.0000 0.0000
# 3 35.1881 24.8573 92.7755 0.0000 0.0000 0.0000
# 4 0.0000 0.0000 0.0000 42.4290 0.0000 0.0000
# 5 0.0000 0.0000 0.0000 0.0000 38.0809 0.0000
# 6 0.0000 0.0000 0.0000 0.0000 0.0000 20.7455
#
#
#
# Elastic Compliance Matrix: (Units=1/GPa)
#
#
# Indices 1 2 3 4 5 6 
#
# 1 0.008960 -0.002773 -0.002655 0.000000 0.000000 0.000000
# 2 -0.002773 0.024970 -0.005639 0.000000 0.000000 0.000000
# 3 -0.002655 -0.005639 0.013297 0.000000 0.000000 0.000000
# 4 0.000000 0.000000 0.000000 0.023569 0.000000 0.000000
# 5 0.000000 0.000000 0.000000 0.000000 0.026260 0.000000
# 6 0.000000 0.000000 0.000000 0.000000 0.000000 0.048203
#
#
# Mechanical properties :
#
#
# Convention : Reuss Voigt Hill
#
# Bulk Modulus (GPa) = 39.85196 48.27291 44.06243
# Shear Modulus (GPa) = 28.44852 32.75305 30.60078
#
# Velocity S-wave (km/s) = 3.49565 3.75081 3.62548
# Velocity P-wave (km/s) = 5.78019 6.28434 6.03753
#
# Compressibility (1/GPa) = 0.02509287
#
# Stress axis : x y z
#
# Youngs Moduli (GPa) = 111.61100 40.04785 75.20760
#
# Poissons Ratio (x) = 0.11105 0.19970
# Poissons Ratio (y) = 0.30949 0.42406
# Poissons Ratio (z) = 0.29636 0.22581
#
# Static dielectric constant tensor:
#      x y z
#    x 4.219250 0.000000 0.000000 
#    y 0.000000 3.806110 0.000000 
#    z 0.000000 0.000000 4.637560 
# 
# 
# High freq. dielectric constant tensor:
#      x y z
#    x 1.923120 0.000000 0.000000 
#    y 0.000000 1.876020 0.000000 
#    z 0.000000 0.000000 1.946180 
# 
# From -- ./inp_files/31209.got.cif
#   From: 2010.03.12/outbox.cif.g09.slc.cpg/sg73_16_cif.got.tgz:31209.got - 2010.04.16 15:25:48.
