data_PCOD8296543
_publ_section_title
;
Structure prediction by ZEFSAII (Michael W. Deem and Ramdas Pophale) SiO2 
 PCOD8296543
Probable space group: I B C A 
;
_chemical_formula_sum "Si O2"
_cell_formula_units_Z 96
_cell_length_a 11.548607
_cell_length_b 16.573630
_cell_length_c 23.907062
_cell_angle_alpha 90.000000
_cell_angle_beta 90.000000
_cell_angle_gamma 90.000000
_cell_volume 4575.867596
_symmetry_space_group_name_H-M "I B C A "
_symmetry_group_IT_number 73
_symmetry_cell_setting 'orthorhombic'
loop_
_space_group_symop_operation_xyz
x,y,z
-x,1/2-y,z
x,-y,1/2-z
1/2-x,y,-z
-x,-y,-z
x,1/2+y,-z
-x,y,1/2+z
1/2+x,-y,z
1/2+x,1/2+y,1/2+z
1/2-x,-y,1/2+z
1/2+x,1/2-y,-z
-x,1/2+y,1/2-z
1/2-x,1/2-y,1/2-z
1/2+x,y,1/2-z
1/2-x,1/2+y,z
x,1/2-y,1/2+z
loop_
_atom_site_type_symbol
_atom_site_label
_atom_site_fract_x
_atom_site_fract_y
_atom_site_fract_z
Si Si1 0.198665 0.132562 0.441019
Si Si2 0.210227 0.480851 0.844063
Si Si3 0.139325 0.637055 0.271890
Si Si4 0.123297 0.264496 0.123640
Si Si5 0.534586 0.000000 0.250000
Si Si6 0.312822 0.148311 0.151822
Si Si7 0.000000 0.750000 0.088632
O O1 0.250000 0.103217 0.500000
O O2 0.162757 0.055621 0.402869
O O3 0.309425 0.168299 0.410188
O O4 0.092267 0.196875 0.447551
O O5 0.265091 0.413397 0.804755
O O6 0.104155 0.514010 0.807604
O O7 0.304514 0.551451 0.855837
O O8 0.093631 0.705635 0.313365
O O9 0.195305 0.676547 0.216532
O O10 0.040074 0.580840 0.245518
O O11 0.198805 0.183477 0.122060
O O12 0.000000 0.250000 0.093612
O O13 0.430029 0.185384 0.125893
#
# Coordination Sequence:
#
# PCOD8296543 Si02
#       7
#    16  16  16  16   8  16   8
#     4  10  24  45  68  92 128 164 220 268 319 387
#     4  11  22  38  61  93 128 168 213 261 322 380
#     4  11  21  34  55  91 129 170 201 254 318 386
#     4  10  23  37  61  92 124 167 212 263 317 385
#     4  12  18  34  62  88 134 170 198 260 326 384
#     4  11  20  41  59  94 132 165 217 258 325 394
#     4  10  24  42  70  92 126 176 208 272 330 382
#
# _framework density 20.979628000000002
#
# number of rings (size 3 to 8) (size 9 to 14) (size 15 to 20)
#    0.000    1.333    3.333    2.500    2.333    0.000 
#    0.000    4.167    0.000    0.000    0.000    0.000 
#    0.000    0.000    0.000    0.000    0.000    0.000 
#
# Total GULP energy -594979.675732 kJ/mol
# GULP energy per Si atom -12395.409911 kJ/mol
# Density = 2.093188 g / cm^3
# Si number density = 20.979628 Si / 1000 Ang^3
#
#
#
# Elastic Constant Matrix: (Units=GPa)
#
#
# Indices 1 2 3 4 5 6 
#
# 1 98.0748 4.6298 20.9863 0.0000 0.0000 0.0000
# 2 4.6298 29.7861 16.3932 0.0000 0.0000 0.0000
# 3 20.9863 16.3932 106.1188 0.0000 0.0000 0.0000
# 4 0.0000 0.0000 0.0000 21.9075 0.0000 0.0000
# 5 0.0000 0.0000 0.0000 0.0000 17.7274 0.0000
# 6 0.0000 0.0000 0.0000 0.0000 0.0000 26.9959
#
#
#
# Elastic Compliance Matrix: (Units=1/GPa)
#
#
# Indices 1 2 3 4 5 6 
#
# 1 0.010655 -0.000543 -0.002023 0.000000 0.000000 0.000000
# 2 -0.000543 0.036720 -0.005565 0.000000 0.000000 0.000000
# 3 -0.002023 -0.005565 0.010683 0.000000 0.000000 0.000000
# 4 0.000000 0.000000 0.000000 0.045647 0.000000 0.000000
# 5 0.000000 0.000000 0.000000 0.000000 0.056410 0.000000
# 6 0.000000 0.000000 0.000000 0.000000 0.000000 0.037043
#
#
# Mechanical properties :
#
#
# Convention : Reuss Voigt Hill
#
# Bulk Modulus (GPa) = 23.92579 35.33314 29.62947
# Shear Modulus (GPa) = 21.99239 26.12418 24.05829
#
# Velocity S-wave (km/s) = 3.24122 3.53259 3.39004
# Velocity P-wave (km/s) = 5.04345 5.78940 5.42925
#
# Compressibility (1/GPa) = 0.04179590
#
# Stress axis : x y z
#
# Youngs Moduli (GPa) = 93.85386 27.23314 93.60453
#
# Poissons Ratio (x) = 0.01478 0.18939
# Poissons Ratio (y) = 0.05092 0.52093
# Poissons Ratio (z) = 0.18990 0.15156
#
# Static dielectric constant tensor:
#      x y z
#    x 3.805190 0.000000 0.000000 
#    y 0.000000 3.784500 0.000000 
#    z 0.000000 0.000000 3.713460 
# 
# 
# High freq. dielectric constant tensor:
#      x y z
#    x 1.829000 0.000000 0.000000 
#    y 0.000000 1.817750 0.000000 
#    z 0.000000 0.000000 1.796990 
# 
# From -- ./inp_files/12136.got.cif
#   From: 2010.03.12/outbox.cif.g09.slc.cpg/sg73_7_cif.got.tgz:12136.got - 2010.04.16 15:25:48.
