data_PCOD8296687
_publ_section_title
;
Structure prediction by ZEFSAII (Michael W. Deem and Ramdas Pophale) SiO2 
 PCOD8296687
Probable space group: I B C A 
;
_chemical_formula_sum "Si O2"
_cell_formula_units_Z 80
_cell_length_a 22.306448
_cell_length_b 8.978683
_cell_length_c 16.197835
_cell_angle_alpha 90.000000
_cell_angle_beta 90.000000
_cell_angle_gamma 90.000000
_cell_volume 3244.143301
_symmetry_space_group_name_H-M "I B C A "
_symmetry_group_IT_number 73
_symmetry_cell_setting 'orthorhombic'
loop_
_space_group_symop_operation_xyz
x,y,z
-x,1/2-y,z
x,-y,1/2-z
1/2-x,y,-z
-x,-y,-z
x,1/2+y,-z
-x,y,1/2+z
1/2+x,-y,z
1/2+x,1/2+y,1/2+z
1/2-x,-y,1/2+z
1/2+x,1/2-y,-z
-x,1/2+y,1/2-z
1/2-x,1/2-y,1/2-z
1/2+x,y,1/2-z
1/2-x,1/2+y,z
x,1/2-y,1/2+z
loop_
_atom_site_type_symbol
_atom_site_label
_atom_site_fract_x
_atom_site_fract_y
_atom_site_fract_z
Si Si1 0.218992 0.368436 0.691927
Si Si2 0.551866 0.160145 0.725020
Si Si3 0.905218 0.312571 0.113768
Si Si4 0.116221 0.085075 0.478460
Si Si5 0.336659 0.355661 0.604573
O O1 0.193767 0.500000 0.750000
O O2 0.250000 0.250000 0.750000
O O3 0.165689 0.303810 0.635980
O O4 0.273124 0.418570 0.633352
O O5 0.500000 0.250000 0.673539
O O6 0.559505 0.264960 0.805321
O O7 0.612751 0.133399 0.675114
O O8 0.526788 0.000000 0.750000
O O9 0.923586 0.481639 0.084674
O O10 0.920627 0.193603 0.040108
O O11 0.163205 0.183331 0.425081
O O12 0.151181 0.959985 0.527800
#
# Coordination Sequence:
#
# PCOD8296687 Si02
#       5
#    16  16  16  16  16
#     4  12  23  37  69 104 140 179 224 281 328 403
#     4  12  27  48  74  99 131 176 234 292 340 409
#     4  11  24  44  68 102 138 180 227 274 346 403
#     4  10  24  42  68  98 144 182 219 282 338 416
#     4  11  23  45  67 101 142 178 232 275 345 403
#
# _framework density 24.659822999999999
#
# number of rings (size 3 to 8) (size 9 to 14) (size 15 to 20)
#    0.000    0.800    4.000    3.000    2.800    4.800 
#    0.000    6.000    0.000    0.000    0.000    0.000 
#    0.000    0.000    0.000    0.000    0.000    0.000 
#
# Total GULP energy -495680.364227 kJ/mol
# GULP energy per Si atom -12392.009106 kJ/mol
# Density = 2.460370 g / cm^3
# Si number density = 24.659823 Si / 1000 Ang^3
#
#
#
# Elastic Constant Matrix: (Units=GPa)
#
#
# Indices 1 2 3 4 5 6 
#
# 1 77.4959 14.6984 1.3471 0.0000 0.0000 0.0000
# 2 14.6984 155.6183 37.7967 0.0000 0.0000 0.0000
# 3 1.3471 37.7967 83.8714 0.0000 0.0000 0.0000
# 4 0.0000 0.0000 0.0000 57.6059 0.0000 0.0000
# 5 0.0000 0.0000 0.0000 0.0000 2.4093 0.0000
# 6 0.0000 0.0000 0.0000 0.0000 0.0000 19.7254
#
#
#
# Elastic Compliance Matrix: (Units=1/GPa)
#
#
# Indices 1 2 3 4 5 6 
#
# 1 0.013151 -0.001337 0.000391 0.000000 0.000000 0.000000
# 2 -0.001337 0.007352 -0.003292 0.000000 0.000000 0.000000
# 3 0.000391 -0.003292 0.013400 0.000000 0.000000 0.000000
# 4 0.000000 0.000000 0.000000 0.017359 0.000000 0.000000
# 5 0.000000 0.000000 0.000000 0.000000 0.415054 0.000000
# 6 0.000000 0.000000 0.000000 0.000000 0.000000 0.050696
#
#
# Mechanical properties :
#
#
# Convention : Reuss Voigt Hill
#
# Bulk Modulus (GPa) = 39.32705 47.18556 43.25631
# Shear Modulus (GPa) = 9.36396 33.49103 21.42749
#
# Velocity S-wave (km/s) = 1.95077 3.68927 2.95095
# Velocity P-wave (km/s) = 4.58873 6.10931 5.40278
#
# Compressibility (1/GPa) = 0.02542779
#
# Stress axis : x y z
#
# Youngs Moduli (GPa) = 76.04144 136.02216 74.62640
#
# Poissons Ratio (x) = 0.18188 -0.02921
# Poissons Ratio (y) = 0.10168 0.24564
# Poissons Ratio (z) = -0.02976 0.44773
#
# Static dielectric constant tensor:
#      x y z
#    x 3.098750 0.000000 0.000000 
#    y 0.000000 4.023380 0.000000 
#    z 0.000000 0.000000 4.722100 
# 
# 
# High freq. dielectric constant tensor:
#      x y z
#    x 1.946910 0.000000 0.000000 
#    y 0.000000 2.004030 0.000000 
#    z 0.000000 0.000000 1.997590 
# 
# From -- ./inp_files/23808.got.cif
#   From: 2010.03.12/outbox.cif.g09.slc.cpg/sg73_12_cif.got.tgz:23808.got - 2010.04.16 15:25:48.
