data_PCOD8296272
_publ_section_title
;
Structure prediction by ZEFSAII (Michael W. Deem and Ramdas Pophale) SiO2 
 PCOD8296272
Probable space group: I B C A 
;
_chemical_formula_sum "Si O2"
_cell_formula_units_Z 80
_cell_length_a 19.307876
_cell_length_b 13.892362
_cell_length_c 12.345647
_cell_angle_alpha 90.000000
_cell_angle_beta 90.000000
_cell_angle_gamma 90.000000
_cell_volume 3311.497621
_symmetry_space_group_name_H-M "I B C A "
_symmetry_group_IT_number 73
_symmetry_cell_setting 'orthorhombic'
loop_
_space_group_symop_operation_xyz
x,y,z
-x,1/2-y,z
x,-y,1/2-z
1/2-x,y,-z
-x,-y,-z
x,1/2+y,-z
-x,y,1/2+z
1/2+x,-y,z
1/2+x,1/2+y,1/2+z
1/2-x,-y,1/2+z
1/2+x,1/2-y,-z
-x,1/2+y,1/2-z
1/2-x,1/2-y,1/2-z
1/2+x,y,1/2-z
1/2-x,1/2+y,z
x,1/2-y,1/2+z
loop_
_atom_site_type_symbol
_atom_site_label
_atom_site_fract_x
_atom_site_fract_y
_atom_site_fract_z
Si Si1 0.597347 0.565288 0.918541
Si Si2 0.295482 0.270621 0.398887
Si Si3 0.574481 0.771794 0.972107
Si Si4 0.265822 0.407557 0.200336
Si Si5 0.944733 0.972119 0.131827
O O1 0.668298 0.537873 0.857405
O O2 0.528516 0.512952 0.871739
O O3 0.597457 0.680484 0.901148
O O4 0.596555 0.538888 0.046341
O O5 0.250000 0.308388 0.500000
O O6 0.375384 0.287986 0.427078
O O7 0.284445 0.332890 0.293583
O O8 0.279458 0.156041 0.382895
O O9 0.500000 0.750000 0.024885
O O10 0.573708 0.861314 0.890739
O O11 0.224278 0.500000 0.250000
O O12 0.917539 0.000000 0.250000
#
# Coordination Sequence:
#
# PCOD8296272 Si02
#       5
#    16  16  16  16  16
#     4  10  21  42  68 105 145 188 238 301 362 436
#     4  11  24  47  71 102 146 184 253 300 353 460
#     4  10  22  43  70 102 143 188 231 300 371 422
#     4  11  24  44  74 102 142 196 238 298 377 418
#     4  10  22  41  70 108 145 185 248 295 360 443
#
# _framework density 24.158252999999998
#
# number of rings (size 3 to 8) (size 9 to 14) (size 15 to 20)
#    0.000    1.600    2.000    1.800    0.000    5.600 
#    3.600   10.000    0.000    1.200    0.000    0.000 
#    0.000    0.000    0.000    0.000    0.000    0.000 
#
# Total GULP energy -495819.740657 kJ/mol
# GULP energy per Si atom -12395.493516 kJ/mol
# Density = 2.410327 g / cm^3
# Si number density = 24.158253 Si / 1000 Ang^3
#
#
#
# Elastic Constant Matrix: (Units=GPa)
#
#
# Indices 1 2 3 4 5 6 
#
# 1 79.0161 23.3429 44.3261 0.0000 0.0000 0.0000
# 2 23.3429 120.5319 45.1125 0.0000 0.0000 0.0000
# 3 44.3261 45.1125 148.4716 0.0000 0.0000 0.0000
# 4 0.0000 0.0000 0.0000 35.3579 0.0000 0.0000
# 5 0.0000 0.0000 0.0000 0.0000 14.2277 0.0000
# 6 0.0000 0.0000 0.0000 0.0000 0.0000 24.7991
#
#
#
# Elastic Compliance Matrix: (Units=1/GPa)
#
#
# Indices 1 2 3 4 5 6 
#
# 1 0.015415 -0.001425 -0.004169 0.000000 0.000000 0.000000
# 2 -0.001425 0.009493 -0.002459 0.000000 0.000000 0.000000
# 3 -0.004169 -0.002459 0.008727 0.000000 0.000000 0.000000
# 4 0.000000 0.000000 0.000000 0.028282 0.000000 0.000000
# 5 0.000000 0.000000 0.000000 0.000000 0.070285 0.000000
# 6 0.000000 0.000000 0.000000 0.000000 0.000000 0.040324
#
#
# Mechanical properties :
#
#
# Convention : Reuss Voigt Hill
#
# Bulk Modulus (GPa) = 57.04805 63.73138 60.38972
# Shear Modulus (GPa) = 25.71003 30.55948 28.13476
#
# Velocity S-wave (km/s) = 3.26580 3.56050 3.41633
# Velocity P-wave (km/s) = 6.15517 6.58338 6.37288
#
# Compressibility (1/GPa) = 0.01752908
#
# Stress axis : x y z
#
# Youngs Moduli (GPa) = 64.86986 105.34232 114.58452
#
# Poissons Ratio (x) = 0.15011 0.47774
# Poissons Ratio (y) = 0.09244 0.28176
# Poissons Ratio (z) = 0.27046 0.25903
#
# Static dielectric constant tensor:
#      x y z
#    x 4.523750 0.000000 0.000000 
#    y 0.000000 4.608230 0.000000 
#    z 0.000000 0.000000 4.117800 
# 
# 
# High freq. dielectric constant tensor:
#      x y z
#    x 1.957460 0.000000 0.000000 
#    y 0.000000 1.968560 0.000000 
#    z 0.000000 0.000000 1.948700 
# 
# From -- ./inp_files/13401.got.cif
#   From: 2010.03.12/outbox.cif.g09.slc.cpg/sg73_7_cif.got.tgz:13401.got - 2010.04.16 15:25:48.
