data_PCOD8296649
_publ_section_title
;
Structure prediction by ZEFSAII (Michael W. Deem and Ramdas Pophale) SiO2 
 PCOD8296649
Probable space group: I B C A 
;
_chemical_formula_sum "Si O2"
_cell_formula_units_Z 64
_cell_length_a 5.087641
_cell_length_b 22.833638
_cell_length_c 26.995665
_cell_angle_alpha 90.000000
_cell_angle_beta 90.000000
_cell_angle_gamma 90.000000
_cell_volume 3136.068933
_symmetry_space_group_name_H-M "I B C A "
_symmetry_group_IT_number 73
_symmetry_cell_setting 'orthorhombic'
loop_
_space_group_symop_operation_xyz
x,y,z
-x,1/2-y,z
x,-y,1/2-z
1/2-x,y,-z
-x,-y,-z
x,1/2+y,-z
-x,y,1/2+z
1/2+x,-y,z
1/2+x,1/2+y,1/2+z
1/2-x,-y,1/2+z
1/2+x,1/2-y,-z
-x,1/2+y,1/2-z
1/2-x,1/2-y,1/2-z
1/2+x,y,1/2-z
1/2-x,1/2+y,z
x,1/2-y,1/2+z
loop_
_atom_site_type_symbol
_atom_site_label
_atom_site_fract_x
_atom_site_fract_y
_atom_site_fract_z
Si Si1 0.401562 0.037245 0.597823
Si Si2 0.500000 0.250000 0.715679
Si Si3 0.750000 0.094686 0.000000
Si Si4 0.036047 0.686199 0.431904
Si Si5 0.028987 0.661010 0.129891
O O1 0.409897 0.056222 0.539907
O O2 0.462667 0.091830 0.633783
O O3 0.610516 0.986506 0.608811
O O4 0.250000 0.250000 0.750000
O O5 0.504909 0.190886 0.683219
O O6 0.532401 0.135922 0.973565
O O7 0.320540 0.690527 0.406587
O O8 0.000000 0.750000 0.456595
O O9 0.821087 0.670677 0.390727
#
# Coordination Sequence:
#
# PCOD8296649 Si02
#       5
#    16   8   8  16  16
#     4  11  23  40  60  84 126 174 216 257 287 348
#     4  12  24  42  74 100 122 146 194 270 332 402
#     4  10  24  34  58  90 122 176 230 256 286 334
#     4  11  21  38  58  85 134 172 204 257 306 370
#     4  11  23  42  63  93 124 162 204 252 328 380
#
# _framework density 20.407716000000001
#
# number of rings (size 3 to 8) (size 9 to 14) (size 15 to 20)
#    0.000    1.000    2.500    5.250    0.000   12.000 
#    0.000    0.000    0.000    4.500    0.000    0.000 
#    0.000    0.000    0.000    0.000    0.000    0.000 
#
# Total GULP energy -396851.026945 kJ/mol
# GULP energy per Si atom -12401.594592 kJ/mol
# Density = 2.036127 g / cm^3
# Si number density = 20.407716 Si / 1000 Ang^3
#
#
#
# Elastic Constant Matrix: (Units=GPa)
#
#
# Indices 1 2 3 4 5 6 
#
# 1 99.8843 26.9167 29.4815 0.0000 0.0000 0.0000
# 2 26.9167 132.2280 40.3708 0.0000 0.0000 0.0000
# 3 29.4815 40.3708 93.3479 0.0000 0.0000 0.0000
# 4 0.0000 0.0000 0.0000 29.3430 0.0000 0.0000
# 5 0.0000 0.0000 0.0000 0.0000 35.6966 0.0000
# 6 0.0000 0.0000 0.0000 0.0000 0.0000 37.2448
#
#
#
# Elastic Compliance Matrix: (Units=1/GPa)
#
#
# Indices 1 2 3 4 5 6 
#
# 1 0.011258 -0.001390 -0.002955 0.000000 0.000000 0.000000
# 2 -0.001390 0.008885 -0.003404 0.000000 0.000000 0.000000
# 3 -0.002955 -0.003404 0.013118 0.000000 0.000000 0.000000
# 4 0.000000 0.000000 0.000000 0.034080 0.000000 0.000000
# 5 0.000000 0.000000 0.000000 0.000000 0.028014 0.000000
# 6 0.000000 0.000000 0.000000 0.000000 0.000000 0.026849
#
#
# Mechanical properties :
#
#
# Convention : Reuss Voigt Hill
#
# Bulk Modulus (GPa) = 56.29060 57.66646 56.97853
# Shear Modulus (GPa) = 34.81392 35.70296 35.25844
#
# Velocity S-wave (km/s) = 4.13476 4.18722 4.16107
# Velocity P-wave (km/s) = 7.10196 7.18997 7.14610
#
# Compressibility (1/GPa) = 0.01776495
#
# Stress axis : x y z
#
# Youngs Moduli (GPa) = 88.82461 112.55278 76.23286
#
# Poissons Ratio (x) = 0.15641 0.22524
# Poissons Ratio (y) = 0.12344 0.25946
# Poissons Ratio (z) = 0.26244 0.38308
#
# Static dielectric constant tensor:
#      x y z
#    x 3.785430 0.000000 0.000000 
#    y 0.000000 4.164690 0.000000 
#    z 0.000000 0.000000 3.984160 
# 
# 
# High freq. dielectric constant tensor:
#      x y z
#    x 1.817930 0.000000 0.000000 
#    y 0.000000 1.817160 0.000000 
#    z 0.000000 0.000000 1.750270 
# 
# From -- ./inp_files/1578.got.cif
#   From: 2010.03.12/outbox.cif.g09.slc.cpg/sg73_1_cif.got.tgz:1578.got - 2010.04.16 15:25:48.
