data_PCOD8296622
_publ_section_title
;
Structure prediction by ZEFSAII (Michael W. Deem and Ramdas Pophale) SiO2 
 PCOD8296622
Probable space group: I B C A 
;
_chemical_formula_sum "Si O2"
_cell_formula_units_Z 56
_cell_length_a 18.819818
_cell_length_b 8.915570
_cell_length_c 14.612000
_cell_angle_alpha 90.000000
_cell_angle_beta 90.000000
_cell_angle_gamma 90.000000
_cell_volume 2451.738782
_symmetry_space_group_name_H-M "I B C A "
_symmetry_group_IT_number 73
_symmetry_cell_setting 'orthorhombic'
loop_
_space_group_symop_operation_xyz
x,y,z
-x,1/2-y,z
x,-y,1/2-z
1/2-x,y,-z
-x,-y,-z
x,1/2+y,-z
-x,y,1/2+z
1/2+x,-y,z
1/2+x,1/2+y,1/2+z
1/2-x,-y,1/2+z
1/2+x,1/2-y,-z
-x,1/2+y,1/2-z
1/2-x,1/2-y,1/2-z
1/2+x,y,1/2-z
1/2-x,1/2+y,z
x,1/2-y,1/2+z
loop_
_atom_site_type_symbol
_atom_site_label
_atom_site_fract_x
_atom_site_fract_y
_atom_site_fract_z
Si Si1 0.147050 0.834167 0.726301
Si Si2 0.500000 0.750000 0.220489
Si Si3 0.824932 0.825575 0.547468
Si Si4 0.120472 0.643794 0.887634
O O1 0.060025 0.832262 0.717834
O O2 0.183238 0.789634 0.631159
O O3 0.170040 0.718924 0.807584
O O4 0.174150 0.000000 0.750000
O O5 0.459479 0.631396 0.153084
O O6 0.750000 0.851899 0.500000
O O7 0.879288 0.754764 0.474611
O O8 0.853582 0.980709 0.586156
#
# Coordination Sequence:
#
# PCOD8296622 Si02
#       4
#    16   8  16  16
#     4  10  23  44  72 106 141 185 234 306 365 424
#     4   8  24  42  72 112 138 182 242 296 388 402
#     4  12  25  44  70 101 150 196 242 285 358 437
#     4  10  24  43  68 107 139 190 237 302 359 421
#
# _framework density 22.840931999999999
#
# number of rings (size 3 to 8) (size 9 to 14) (size 15 to 20)
#    1.714    0.000    0.000    3.429    4.000    3.429 
#    0.000    4.286    0.000    0.000    0.000    0.000 
#    0.000    0.000    0.000    0.000    0.000    0.000 
#
# Total GULP energy -346963.130240 kJ/mol
# GULP energy per Si atom -12391.540366 kJ/mol
# Density = 2.278895 g / cm^3
# Si number density = 22.840932 Si / 1000 Ang^3
#
#
#
# Elastic Constant Matrix: (Units=GPa)
#
#
# Indices 1 2 3 4 5 6 
#
# 1 73.0910 16.9739 10.3602 0.0000 0.0000 0.0000
# 2 16.9739 91.0072 19.4869 0.0000 0.0000 0.0000
# 3 10.3602 19.4869 119.7126 0.0000 0.0000 0.0000
# 4 0.0000 0.0000 0.0000 42.9363 0.0000 0.0000
# 5 0.0000 0.0000 0.0000 0.0000 130.8096 0.0000
# 6 0.0000 0.0000 0.0000 0.0000 0.0000 27.5811
#
#
#
# Elastic Compliance Matrix: (Units=1/GPa)
#
#
# Indices 1 2 3 4 5 6 
#
# 1 0.014382 -0.002503 -0.000837 0.000000 0.000000 0.000000
# 2 -0.002503 0.011821 -0.001708 0.000000 0.000000 0.000000
# 3 -0.000837 -0.001708 0.008704 0.000000 0.000000 0.000000
# 4 0.000000 0.000000 0.000000 0.023290 0.000000 0.000000
# 5 0.000000 0.000000 0.000000 0.000000 0.007645 0.000000
# 6 0.000000 0.000000 0.000000 0.000000 0.000000 0.036257
#
#
# Mechanical properties :
#
#
# Convention : Reuss Voigt Hill
#
# Bulk Modulus (GPa) = 40.30579 41.93922 41.12250
# Shear Modulus (GPa) = 41.50644 56.06474 48.78559
#
# Velocity S-wave (km/s) = 4.26748 4.95974 4.62658
# Velocity P-wave (km/s) = 6.47815 7.15542 6.82519
#
# Compressibility (1/GPa) = 0.02481033
#
# Stress axis : x y z
#
# Youngs Moduli (GPa) = 69.53366 84.59786 114.89309
#
# Poissons Ratio (x) = 0.21175 0.09618
# Poissons Ratio (y) = 0.17405 0.19619
# Poissons Ratio (z) = 0.05821 0.14446
#
# Static dielectric constant tensor:
#      x y z
#    x 3.895580 0.000000 0.000000 
#    y 0.000000 3.890940 0.000000 
#    z 0.000000 0.000000 4.284490 
# 
# 
# High freq. dielectric constant tensor:
#      x y z
#    x 1.887470 0.000000 0.000000 
#    y 0.000000 1.899110 0.000000 
#    z 0.000000 0.000000 1.909680 
# 
# From -- ./inp_files/4596.got.cif
#   From: 2010.03.12/outbox.cif.g09.slc.cpg/sg73_3_cif.got.tgz:4596.got - 2010.04.16 15:25:48.
