data_PCOD8296975
_publ_section_title
;
Structure prediction by ZEFSAII (Michael W. Deem and Ramdas Pophale) SiO2 
 PCOD8296975
Probable space group: I B C A 
;
_chemical_formula_sum "Si O2"
_cell_formula_units_Z 72
_cell_length_a 5.500496
_cell_length_b 28.705604
_cell_length_c 18.860918
_cell_angle_alpha 90.000000
_cell_angle_beta 90.000000
_cell_angle_gamma 90.000000
_cell_volume 2978.045779
_symmetry_space_group_name_H-M "I B C A "
_symmetry_group_IT_number 73
_symmetry_cell_setting 'orthorhombic'
loop_
_space_group_symop_operation_xyz
x,y,z
-x,1/2-y,z
x,-y,1/2-z
1/2-x,y,-z
-x,-y,-z
x,1/2+y,-z
-x,y,1/2+z
1/2+x,-y,z
1/2+x,1/2+y,1/2+z
1/2-x,-y,1/2+z
1/2+x,1/2-y,-z
-x,1/2+y,1/2-z
1/2-x,1/2-y,1/2-z
1/2+x,y,1/2-z
1/2-x,1/2+y,z
x,1/2-y,1/2+z
loop_
_atom_site_type_symbol
_atom_site_label
_atom_site_fract_x
_atom_site_fract_y
_atom_site_fract_z
Si Si1 0.094927 0.653431 0.282831
Si Si2 0.796424 0.873380 0.580754
Si Si3 0.349192 0.795817 0.425596
Si Si4 0.294457 0.981249 0.919476
Si Si5 0.500000 0.750000 0.683406
O O1 0.349310 0.632475 0.252251
O O2 0.073574 0.637657 0.365886
O O3 0.136986 0.710129 0.270634
O O4 0.750000 0.857968 0.500000
O O5 0.866628 0.927274 0.584644
O O6 0.005426 0.838750 0.609541
O O7 0.500000 0.750000 0.444533
O O8 0.250000 0.814826 0.500000
O O9 0.158025 0.783170 0.366228
O O10 0.528234 0.007866 0.883690
O O11 0.250000 0.998505 0.000000
#
# Coordination Sequence:
#
# PCOD8296975 Si02
#       5
#    16  16  16  16   8
#     4  12  27  45  65  96 138 183 231 283 337 399
#     4  11  24  44  71 101 132 181 231 282 345 411
#     4  12  22  38  60  99 141 179 228 288 341 398
#     4   9  20  39  67 101 133 164 216 285 346 403
#     4  12  24  40  62  86 134 192 246 274 330 404
#
# _framework density 24.176929000000001
#
# number of rings (size 3 to 8) (size 9 to 14) (size 15 to 20)
#    0.000    0.889    3.333    4.000    0.000    8.000 
#    0.000    0.000    0.000    4.000    0.000    0.000 
#    0.000    0.000    0.000    0.000    0.000    0.000 
#
# Total GULP energy -446142.026889 kJ/mol
# GULP energy per Si atom -12392.834080 kJ/mol
# Density = 2.412190 g / cm^3
# Si number density = 24.176929 Si / 1000 Ang^3
#
#
#
# Elastic Constant Matrix: (Units=GPa)
#
#
# Indices 1 2 3 4 5 6 
#
# 1 172.9064 48.9674 32.5367 0.0000 0.0000 0.0000
# 2 48.9674 110.6248 0.4780 0.0000 0.0000 0.0000
# 3 32.5367 0.4780 89.6950 0.0000 0.0000 0.0000
# 4 0.0000 0.0000 0.0000 9.5829 0.0000 0.0000
# 5 0.0000 0.0000 0.0000 0.0000 19.0072 0.0000
# 6 0.0000 0.0000 0.0000 0.0000 0.0000 35.9180
#
#
#
# Elastic Compliance Matrix: (Units=1/GPa)
#
#
# Indices 1 2 3 4 5 6 
#
# 1 0.007164 -0.003160 -0.002582 0.000000 0.000000 0.000000
# 2 -0.003160 0.010434 0.001091 0.000000 0.000000 0.000000
# 3 -0.002582 0.001091 0.012080 0.000000 0.000000 0.000000
# 4 0.000000 0.000000 0.000000 0.104353 0.000000 0.000000
# 5 0.000000 0.000000 0.000000 0.000000 0.052612 0.000000
# 6 0.000000 0.000000 0.000000 0.000000 0.000000 0.027841
#
#
# Mechanical properties :
#
#
# Convention : Reuss Voigt Hill
#
# Bulk Modulus (GPa) = 49.07998 59.68781 54.38390
# Shear Modulus (GPa) = 21.68469 32.31789 27.00129
#
# Velocity S-wave (km/s) = 2.99811 3.66009 3.34551
# Velocity P-wave (km/s) = 5.68588 6.52711 6.12097
#
# Compressibility (1/GPa) = 0.02037491
#
# Stress axis : x y z
#
# Youngs Moduli (GPa) = 139.58138 95.84385 82.78355
#
# Poissons Ratio (x) = 0.30287 0.21375
# Poissons Ratio (y) = 0.44109 -0.09029
# Poissons Ratio (z) = 0.36040 -0.10454
#
# Static dielectric constant tensor:
#      x y z
#    x 4.668540 0.000000 0.000000 
#    y 0.000000 4.114390 0.000000 
#    z 0.000000 0.000000 4.294580 
# 
# 
# High freq. dielectric constant tensor:
#      x y z
#    x 1.971270 0.000000 0.000000 
#    y 0.000000 1.936630 0.000000 
#    z 0.000000 0.000000 1.946660 
# 
# From -- ./inp_files/2527.got.cif
#   From: 2010.03.12/outbox.cif.g09.slc.cpg/sg73_2_cif.got.tgz:2527.got - 2010.04.16 15:25:48.
