data_PCOD8296640
_publ_section_title
;
Structure prediction by ZEFSAII (Michael W. Deem and Ramdas Pophale) SiO2 
 PCOD8296640
Probable space group: I B C A 
;
_chemical_formula_sum "Si O2"
_cell_formula_units_Z 72
_cell_length_a 10.057709
_cell_length_b 13.213176
_cell_length_c 23.705149
_cell_angle_alpha 90.000000
_cell_angle_beta 90.000000
_cell_angle_gamma 90.000000
_cell_volume 3150.278689
_symmetry_space_group_name_H-M "I B C A "
_symmetry_group_IT_number 73
_symmetry_cell_setting 'orthorhombic'
loop_
_space_group_symop_operation_xyz
x,y,z
-x,1/2-y,z
x,-y,1/2-z
1/2-x,y,-z
-x,-y,-z
x,1/2+y,-z
-x,y,1/2+z
1/2+x,-y,z
1/2+x,1/2+y,1/2+z
1/2-x,-y,1/2+z
1/2+x,1/2-y,-z
-x,1/2+y,1/2-z
1/2-x,1/2-y,1/2-z
1/2+x,y,1/2-z
1/2-x,1/2+y,z
x,1/2-y,1/2+z
loop_
_atom_site_type_symbol
_atom_site_label
_atom_site_fract_x
_atom_site_fract_y
_atom_site_fract_z
Si Si1 0.809061 0.351494 0.638899
Si Si2 0.616540 0.673961 0.383733
Si Si3 0.128522 0.990785 0.961485
Si Si4 0.000000 0.250000 0.219533
Si Si5 0.070355 0.912838 0.204904
O O1 0.747517 0.240265 0.627948
O O2 0.880303 0.401524 0.584938
O O3 0.925826 0.335674 0.683680
O O4 0.695949 0.428657 0.663004
O O5 0.500000 0.750000 0.402949
O O6 0.654509 0.599711 0.434139
O O7 0.565552 0.604573 0.331057
O O8 0.250000 0.958923 0.000000
O O9 0.000000 0.000000 0.000000
O O10 0.101842 0.190005 0.260376
O O11 0.049294 0.000000 0.250000
#
# Coordination Sequence:
#
# PCOD8296640 Si02
#       5
#    16  16  16   8  16
#     4  11  26  44  67 106 146 180 245 298 356 444
#     4  10  23  47  71 102 148 181 237 302 354 442
#     4  12  28  48  74 103 138 192 249 308 373 425
#     4  12  24  42  70 104 144 190 232 278 372 438
#     4  11  23  42  72 104 147 192 227 289 362 439
#
# _framework density 22.855118999999998
#
# number of rings (size 3 to 8) (size 9 to 14) (size 15 to 20)
#    0.000    0.889    3.333    4.667    6.222    3.556 
#    0.000    0.000    0.000    0.000    0.000    0.000 
#    0.000    0.000    0.000    0.000    0.000    0.000 
#
# Total GULP energy -446356.026616 kJ/mol
# GULP energy per Si atom -12398.778517 kJ/mol
# Density = 2.280310 g / cm^3
# Si number density = 22.855119 Si / 1000 Ang^3
#
#
#
# Elastic Constant Matrix: (Units=GPa)
#
#
# Indices 1 2 3 4 5 6 
#
# 1 91.0136 13.9879 41.5821 0.0000 0.0000 0.0000
# 2 13.9879 80.3558 45.0304 0.0000 0.0000 0.0000
# 3 41.5821 45.0304 125.7038 0.0000 0.0000 0.0000
# 4 0.0000 0.0000 0.0000 62.8381 0.0000 0.0000
# 5 0.0000 0.0000 0.0000 0.0000 29.8693 0.0000
# 6 0.0000 0.0000 0.0000 0.0000 0.0000 28.6768
#
#
#
# Elastic Compliance Matrix: (Units=1/GPa)
#
#
# Indices 1 2 3 4 5 6 
#
# 1 0.012946 0.000183 -0.004348 0.000000 0.000000 0.000000
# 2 0.000183 0.015573 -0.005639 0.000000 0.000000 0.000000
# 3 -0.004348 -0.005639 0.011414 0.000000 0.000000 0.000000
# 4 0.000000 0.000000 0.000000 0.015914 0.000000 0.000000
# 5 0.000000 0.000000 0.000000 0.000000 0.033479 0.000000
# 6 0.000000 0.000000 0.000000 0.000000 0.000000 0.034871
#
#
# Mechanical properties :
#
#
# Convention : Reuss Voigt Hill
#
# Bulk Modulus (GPa) = 49.20283 55.36378 52.28330
# Shear Modulus (GPa) = 33.20505 37.37504 35.29005
#
# Velocity S-wave (km/s) = 3.81576 4.04827 3.93374
# Velocity P-wave (km/s) = 6.40221 6.79174 6.59985
#
# Compressibility (1/GPa) = 0.02032403
#
# Stress axis : x y z
#
# Youngs Moduli (GPa) = 77.24562 64.21406 87.61501
#
# Poissons Ratio (x) = -0.01175 0.38094
# Poissons Ratio (y) = -0.01414 0.49407
# Poissons Ratio (z) = 0.33586 0.36211
#
# Static dielectric constant tensor:
#      x y z
#    x 3.909140 0.000000 0.000000 
#    y 0.000000 4.237540 0.000000 
#    z 0.000000 0.000000 4.303360 
# 
# 
# High freq. dielectric constant tensor:
#      x y z
#    x 1.891130 0.000000 0.000000 
#    y 0.000000 1.908070 0.000000 
#    z 0.000000 0.000000 1.910770 
# 
# From -- ./inp_files/25259.got.cif
#   From: 2010.03.12/outbox.cif.g09.slc.cpg/sg73_13_cif.got.tgz:25259.got - 2010.04.16 15:25:48.
