data_PCOD8296990
_publ_section_title
;
Structure prediction by ZEFSAII (Michael W. Deem and Ramdas Pophale) SiO2 
 PCOD8296990
Probable space group: I B C A 
;
_chemical_formula_sum "Si O2"
_cell_formula_units_Z 88
_cell_length_a 10.663715
_cell_length_b 19.634434
_cell_length_c 18.456057
_cell_angle_alpha 90.000000
_cell_angle_beta 90.000000
_cell_angle_gamma 90.000000
_cell_volume 3864.255545
_symmetry_space_group_name_H-M "I B C A "
_symmetry_group_IT_number 73
_symmetry_cell_setting 'orthorhombic'
loop_
_space_group_symop_operation_xyz
x,y,z
-x,1/2-y,z
x,-y,1/2-z
1/2-x,y,-z
-x,-y,-z
x,1/2+y,-z
-x,y,1/2+z
1/2+x,-y,z
1/2+x,1/2+y,1/2+z
1/2-x,-y,1/2+z
1/2+x,1/2-y,-z
-x,1/2+y,1/2-z
1/2-x,1/2-y,1/2-z
1/2+x,y,1/2-z
1/2-x,1/2+y,z
x,1/2-y,1/2+z
loop_
_atom_site_type_symbol
_atom_site_label
_atom_site_fract_x
_atom_site_fract_y
_atom_site_fract_z
Si Si1 0.395748 0.855172 0.981276
Si Si2 0.818710 0.985985 0.573436
Si Si3 0.651726 0.566291 0.204812
Si Si4 0.724118 0.814140 0.799357
Si Si5 0.940039 0.874715 0.882055
Si Si6 0.000000 0.750000 0.623046
O O1 0.424552 0.928297 0.943466
O O2 0.407251 0.794045 0.925534
O O3 0.250000 0.859564 0.000000
O O4 0.487642 0.843583 0.048968
O O5 0.750000 0.008162 0.500000
O O6 0.721430 0.955990 0.631869
O O7 0.885749 0.051306 0.603653
O O8 0.609644 0.500000 0.250000
O O9 0.736087 0.615284 0.255017
O O10 0.533907 0.613980 0.184836
O O11 0.750000 0.750000 0.750000
O O12 0.831254 0.820687 0.861370
O O13 0.585736 0.802613 0.832067
#
# Coordination Sequence:
#
# PCOD8296990 Si02
#       6
#    16  16  16  16  16   8
#     4  11  26  48  74 109 152 198 253 318 382 448
#     4  11  24  47  73 114 151 193 253 316 380 446
#     4  12  26  46  74 115 155 202 254 319 388 466
#     4  12  29  51  74 111 153 202 257 312 392 465
#     4  12  27  44  83 107 153 201 255 318 385 471
#     4  12  30  48  80 104 154 200 256 316 374 474
#
# _framework density 22.772821
#
# number of rings (size 3 to 8) (size 9 to 14) (size 15 to 20)
#    0.000    0.364    5.455    2.727   10.182    0.000 
#    0.000    0.000    0.000    0.000    0.000    0.000 
#    0.000    0.000    0.000    0.000    0.000    0.000 
#
# Total GULP energy -545710.335788 kJ/mol
# GULP energy per Si atom -12402.507632 kJ/mol
# Density = 2.272099 g / cm^3
# Si number density = 22.772821 Si / 1000 Ang^3
#
#
#
# Elastic Constant Matrix: (Units=GPa)
#
#
# Indices 1 2 3 4 5 6 
#
# 1 108.3259 23.2591 49.3781 0.0000 0.0000 0.0000
# 2 23.2591 98.3859 36.0635 0.0000 0.0000 0.0000
# 3 49.3781 36.0635 117.2759 0.0000 0.0000 0.0000
# 4 0.0000 0.0000 0.0000 39.5873 0.0000 0.0000
# 5 0.0000 0.0000 0.0000 0.0000 37.2203 0.0000
# 6 0.0000 0.0000 0.0000 0.0000 0.0000 44.7242
#
#
#
# Elastic Compliance Matrix: (Units=1/GPa)
#
#
# Indices 1 2 3 4 5 6 
#
# 1 0.011522 -0.001066 -0.004524 0.000000 0.000000 0.000000
# 2 -0.001066 0.011554 -0.003104 0.000000 0.000000 0.000000
# 3 -0.004524 -0.003104 0.011386 0.000000 0.000000 0.000000
# 4 0.000000 0.000000 0.000000 0.025261 0.000000 0.000000
# 5 0.000000 0.000000 0.000000 0.000000 0.026867 0.000000
# 6 0.000000 0.000000 0.000000 0.000000 0.000000 0.022359
#
#
# Mechanical properties :
#
#
# Convention : Reuss Voigt Hill
#
# Bulk Modulus (GPa) = 58.56510 60.15437 59.35973
# Shear Modulus (GPa) = 37.87075 38.65882 38.26479
#
# Velocity S-wave (km/s) = 4.08239 4.12465 4.10357
# Velocity P-wave (km/s) = 6.92778 7.01113 6.96958
#
# Compressibility (1/GPa) = 0.01707502
#
# Stress axis : x y z
#
# Youngs Moduli (GPa) = 86.78871 86.55114 87.82638
#
# Poissons Ratio (x) = 0.09225 0.39729
# Poissons Ratio (y) = 0.09250 0.27263
# Poissons Ratio (z) = 0.39260 0.26867
#
# Static dielectric constant tensor:
#      x y z
#    x 4.560880 0.000000 0.000000 
#    y 0.000000 4.203430 0.000000 
#    z 0.000000 0.000000 4.382190 
# 
# 
# High freq. dielectric constant tensor:
#      x y z
#    x 1.895790 0.000000 0.000000 
#    y 0.000000 1.909510 0.000000 
#    z 0.000000 0.000000 1.913110 
# 
# From -- ./inp_files/21286.got.cif
#   From: 2010.03.12/outbox.cif.g09.slc.cpg/sg73_11_cif.got.tgz:21286.got - 2010.04.16 15:25:48.
