data_PCOD8296453
_publ_section_title
;
Structure prediction by ZEFSAII (Michael W. Deem and Ramdas Pophale) SiO2 
 PCOD8296453
Probable space group: I B C A 
;
_chemical_formula_sum "Si O2"
_cell_formula_units_Z 104
_cell_length_a 20.991796
_cell_length_b 9.161647
_cell_length_c 24.763489
_cell_angle_alpha 90.000000
_cell_angle_beta 90.000000
_cell_angle_gamma 90.000000
_cell_volume 4762.499962
_symmetry_space_group_name_H-M "I B C A "
_symmetry_group_IT_number 73
_symmetry_cell_setting 'orthorhombic'
loop_
_space_group_symop_operation_xyz
x,y,z
-x,1/2-y,z
x,-y,1/2-z
1/2-x,y,-z
-x,-y,-z
x,1/2+y,-z
-x,y,1/2+z
1/2+x,-y,z
1/2+x,1/2+y,1/2+z
1/2-x,-y,1/2+z
1/2+x,1/2-y,-z
-x,1/2+y,1/2-z
1/2-x,1/2-y,1/2-z
1/2+x,y,1/2-z
1/2-x,1/2+y,z
x,1/2-y,1/2+z
loop_
_atom_site_type_symbol
_atom_site_label
_atom_site_fract_x
_atom_site_fract_y
_atom_site_fract_z
Si Si1 0.621825 0.656808 0.539572
Si Si2 0.689670 0.168588 0.569460
Si Si3 0.814831 0.170051 0.233628
Si Si4 0.437268 0.656556 0.277334
Si Si5 0.693694 0.854835 0.608133
Si Si6 0.000000 0.750000 0.020270
Si Si7 0.586469 0.115929 0.100197
O O1 0.676565 0.635197 0.493872
O O2 0.632872 0.806111 0.572797
O O3 0.551703 0.668623 0.515958
O O4 0.628002 0.524351 0.582383
O O5 0.747399 0.276182 0.579721
O O6 0.626641 0.236956 0.594856
O O7 0.704905 0.025604 0.603645
O O8 0.750000 0.250000 0.250000
O O9 0.874543 0.251445 0.261396
O O10 0.819219 0.187791 0.169582
O O11 0.813712 0.000000 0.250000
O O12 0.500000 0.750000 0.262219
O O13 0.438702 0.500000 0.250000
O O14 0.438891 0.610663 0.339618
O O15 0.971636 0.623282 0.058193
#
# Coordination Sequence:
#
# PCOD8296453 Si02
#       7
#    16  16  16  16  16   8  16
#     4  11  24  42  65 100 132 173 221 273 338 415
#     4  11  24  41  68  96 140 171 223 276 340 420
#     4  12  26  48  73 103 140 188 246 295 358 429
#     4  12  26  47  70 105 143 187 241 306 361 423
#     4  12  24  43  65 100 130 180 219 279 343 400
#     4  10  22  42  66  94 130 170 222 270 332 408
#     4  11  22  44  68  96 132 179 222 278 349 404
#
# _framework density 21.837271000000001
#
# number of rings (size 3 to 8) (size 9 to 14) (size 15 to 20)
#    0.000    0.615    0.769    8.308    0.000    2.462 
#    8.308    0.000    0.000    0.000    0.000    0.000 
#    0.000    0.000    0.000    0.000    0.000    0.000 
#
# Total GULP energy -644837.710337 kJ/mol
# GULP energy per Si atom -12400.725199 kJ/mol
# Density = 2.178757 g / cm^3
# Si number density = 21.837271 Si / 1000 Ang^3
#
#
#
# Elastic Constant Matrix: (Units=GPa)
#
#
# Indices 1 2 3 4 5 6 
#
# 1 142.1832 63.1569 53.7565 0.0000 0.0000 0.0000
# 2 63.1569 150.0112 46.9183 0.0000 0.0000 0.0000
# 3 53.7565 46.9183 120.6689 0.0000 0.0000 0.0000
# 4 0.0000 0.0000 0.0000 39.5105 0.0000 0.0000
# 5 0.0000 0.0000 0.0000 0.0000 21.3346 0.0000
# 6 0.0000 0.0000 0.0000 0.0000 0.0000 37.1550
#
#
#
# Elastic Compliance Matrix: (Units=1/GPa)
#
#
# Indices 1 2 3 4 5 6 
#
# 1 0.009552 -0.003063 -0.003064 0.000000 0.000000 0.000000
# 2 -0.003063 0.008571 -0.001968 0.000000 0.000000 0.000000
# 3 -0.003064 -0.001968 0.010418 0.000000 0.000000 0.000000
# 4 0.000000 0.000000 0.000000 0.025310 0.000000 0.000000
# 5 0.000000 0.000000 0.000000 0.000000 0.046872 0.000000
# 6 0.000000 0.000000 0.000000 0.000000 0.000000 0.026914
#
#
# Mechanical properties :
#
#
# Convention : Reuss Voigt Hill
#
# Bulk Modulus (GPa) = 80.97287 82.28076 81.62681
# Shear Modulus (GPa) = 33.79615 36.20212 34.99913
#
# Velocity S-wave (km/s) = 3.93827 4.07604 4.00775
# Velocity P-wave (km/s) = 7.60530 7.74035 7.67312
#
# Compressibility (1/GPa) = 0.01234982
#
# Stress axis : x y z
#
# Youngs Moduli (GPa) = 104.68485 116.66711 95.99202
#
# Poissons Ratio (x) = 0.35738 0.29416
# Poissons Ratio (y) = 0.32068 0.18892
# Poissons Ratio (z) = 0.32080 0.22961
#
# Static dielectric constant tensor:
#      x y z
#    x 4.131130 0.000000 0.000000 
#    y 0.000000 4.163330 0.000000 
#    z 0.000000 0.000000 4.133270 
# 
# 
# High freq. dielectric constant tensor:
#      x y z
#    x 1.866800 0.000000 0.000000 
#    y 0.000000 1.870560 0.000000 
#    z 0.000000 0.000000 1.872260 
# 
# From -- ./inp_files/32664.got.cif
#   From: 2010.03.12/outbox.cif.g09.slc.cpg/sg73_17_cif.got.tgz:32664.got - 2010.04.16 15:25:48.
