data_PCOD8296539
_publ_section_title
;
Structure prediction by ZEFSAII (Michael W. Deem and Ramdas Pophale) SiO2 
 PCOD8296539
Probable space group: I B C A 
;
_chemical_formula_sum "Si O2"
_cell_formula_units_Z 88
_cell_length_a 21.929362
_cell_length_b 15.260012
_cell_length_c 9.892696
_cell_angle_alpha 90.000000
_cell_angle_beta 90.000000
_cell_angle_gamma 90.000000
_cell_volume 3310.514812
_symmetry_space_group_name_H-M "I B C A "
_symmetry_group_IT_number 73
_symmetry_cell_setting 'orthorhombic'
loop_
_space_group_symop_operation_xyz
x,y,z
-x,1/2-y,z
x,-y,1/2-z
1/2-x,y,-z
-x,-y,-z
x,1/2+y,-z
-x,y,1/2+z
1/2+x,-y,z
1/2+x,1/2+y,1/2+z
1/2-x,-y,1/2+z
1/2+x,1/2-y,-z
-x,1/2+y,1/2-z
1/2-x,1/2-y,1/2-z
1/2+x,y,1/2-z
1/2-x,1/2+y,z
x,1/2-y,1/2+z
loop_
_atom_site_type_symbol
_atom_site_label
_atom_site_fract_x
_atom_site_fract_y
_atom_site_fract_z
Si Si1 0.400321 0.397493 0.873182
Si Si2 0.150104 0.328427 0.730970
Si Si3 0.236716 0.917676 0.845570
Si Si4 0.432872 0.500000 0.250000
Si Si5 0.401510 0.232568 0.027558
Si Si6 0.957609 0.435142 0.901721
O O1 0.330624 0.377720 0.832826
O O2 0.403813 0.495344 0.940321
O O3 0.446363 0.399249 0.749150
O O4 0.427009 0.326065 0.977466
O O5 0.216481 0.344258 0.793322
O O6 0.108795 0.415382 0.736598
O O7 0.121098 0.248195 0.819070
O O8 0.153102 0.295520 0.575869
O O9 0.245233 0.000000 0.750000
O O10 0.250000 0.944533 0.000000
O O11 0.476001 0.485777 0.112234
O O12 0.452631 0.155486 0.013669
#
# Coordination Sequence:
#
# PCOD8296539 Si02
#       6
#    16  16  16   8  16  16
#     4  10  22  48  73 104 154 200 256 312 402 473
#     4  12  28  49  75 115 156 207 267 328 401 483
#     4  12  25  45  79 112 156 207 265 332 402 489
#     4  10  26  54  80 114 152 210 272 330 398 494
#     4  12  26  49  74 114 153 198 264 329 387 479
#     4  10  24  51  76 108 152 211 249 326 401 471
#
# _framework density 26.581969999999998
#
# number of rings (size 3 to 8) (size 9 to 14) (size 15 to 20)
#    0.000    1.091    6.364    0.000    5.091    2.182 
#   13.091    0.000    0.000    0.000    0.000    0.000 
#    0.000    0.000    0.000    0.000    0.000    0.000 
#
# Total GULP energy -545252.954556 kJ/mol
# GULP energy per Si atom -12392.112604 kJ/mol
# Density = 2.652147 g / cm^3
# Si number density = 26.581970 Si / 1000 Ang^3
#
#
#
# Elastic Constant Matrix: (Units=GPa)
#
#
# Indices 1 2 3 4 5 6 
#
# 1 120.9270 34.3333 26.0936 0.0000 0.0000 0.0000
# 2 34.3333 186.5186 25.3676 0.0000 0.0000 0.0000
# 3 26.0936 25.3676 103.2444 0.0000 0.0000 0.0000
# 4 0.0000 0.0000 0.0000 52.0904 0.0000 0.0000
# 5 0.0000 0.0000 0.0000 0.0000 29.7151 0.0000
# 6 0.0000 0.0000 0.0000 0.0000 0.0000 14.9162
#
#
#
# Elastic Compliance Matrix: (Units=1/GPa)
#
#
# Indices 1 2 3 4 5 6 
#
# 1 0.009090 -0.001408 -0.001952 0.000000 0.000000 0.000000
# 2 -0.001408 0.005765 -0.001061 0.000000 0.000000 0.000000
# 3 -0.001952 -0.001061 0.010440 0.000000 0.000000 0.000000
# 4 0.000000 0.000000 0.000000 0.019197 0.000000 0.000000
# 5 0.000000 0.000000 0.000000 0.000000 0.033653 0.000000
# 6 0.000000 0.000000 0.000000 0.000000 0.000000 0.067041
#
#
# Mechanical properties :
#
#
# Convention : Reuss Voigt Hill
#
# Bulk Modulus (GPa) = 60.77319 64.69768 62.73544
# Shear Modulus (GPa) = 31.34578 41.00404 36.17491
#
# Velocity S-wave (km/s) = 3.43769 3.93179 3.69301
# Velocity P-wave (km/s) = 6.21845 6.70848 6.46811
#
# Compressibility (1/GPa) = 0.01645462
#
# Stress axis : x y z
#
# Youngs Moduli (GPa) = 110.00770 173.46660 95.78937
#
# Poissons Ratio (x) = 0.24422 0.18694
# Poissons Ratio (y) = 0.15488 0.10160
# Poissons Ratio (z) = 0.21468 0.18398
#
# Static dielectric constant tensor:
#      x y z
#    x 4.885500 0.000000 0.000000 
#    y 0.000000 5.470620 0.000000 
#    z 0.000000 0.000000 5.234360 
# 
# 
# High freq. dielectric constant tensor:
#      x y z
#    x 2.041370 0.000000 0.000000 
#    y 0.000000 2.093990 0.000000 
#    z 0.000000 0.000000 2.090990 
# 
# From -- ./inp_files/12747.got.cif
#   From: 2010.03.12/outbox.cif.g09.slc.cpg/sg73_7_cif.got.tgz:12747.got - 2010.04.16 15:25:48.
