data_PCOD8296425
_publ_section_title
;
Structure prediction by ZEFSAII (Michael W. Deem and Ramdas Pophale) SiO2 
 PCOD8296425
Probable space group: I B C A 
;
_chemical_formula_sum "Si O2"
_cell_formula_units_Z 72
_cell_length_a 18.537365
_cell_length_b 16.172885
_cell_length_c 11.844965
_cell_angle_alpha 90.000000
_cell_angle_beta 90.000000
_cell_angle_gamma 90.000000
_cell_volume 3551.152161
_symmetry_space_group_name_H-M "I B C A "
_symmetry_group_IT_number 73
_symmetry_cell_setting 'orthorhombic'
loop_
_space_group_symop_operation_xyz
x,y,z
-x,1/2-y,z
x,-y,1/2-z
1/2-x,y,-z
-x,-y,-z
x,1/2+y,-z
-x,y,1/2+z
1/2+x,-y,z
1/2+x,1/2+y,1/2+z
1/2-x,-y,1/2+z
1/2+x,1/2-y,-z
-x,1/2+y,1/2-z
1/2-x,1/2-y,1/2-z
1/2+x,y,1/2-z
1/2-x,1/2+y,z
x,1/2-y,1/2+z
loop_
_atom_site_type_symbol
_atom_site_label
_atom_site_fract_x
_atom_site_fract_y
_atom_site_fract_z
Si Si1 0.919500 0.382282 0.300889
Si Si2 0.250000 0.362004 0.500000
Si Si3 0.823557 0.776360 0.188106
Si Si4 0.373532 0.459623 0.419728
Si Si5 0.078288 0.920955 0.672306
O O1 0.881998 0.294735 0.312129
O O2 0.873976 0.445123 0.380236
O O3 0.922290 0.409685 0.169704
O O4 0.001707 0.375137 0.341580
O O5 0.305136 0.299954 0.560050
O O6 0.292645 0.421407 0.412163
O O7 0.750000 0.750000 0.250000
O O8 0.863572 0.859776 0.232861
O O9 0.400330 0.450389 0.547254
O O10 0.069714 0.000000 0.750000
#
# Coordination Sequence:
#
# PCOD8296425 Si02
#       5
#    16   8  16  16  16
#     4  11  22  42  68  92 127 171 214 270 317 380
#     4  10  22  42  60  96 132 168 212 274 304 398
#     4  11  24  41  63  94 130 168 214 260 321 381
#     4  10  22  41  66  91 131 164 219 261 325 375
#     4  11  24  42  65  97 129 167 215 266 321 385
#
# _framework density 20.275109
#
# number of rings (size 3 to 8) (size 9 to 14) (size 15 to 20)
#    0.000    1.333    4.444    1.333    0.000    6.222 
#    0.000    2.222    0.000    0.000    0.000    0.000 
#    0.000    0.000    0.000    0.000    0.000    0.000 
#
# Total GULP energy -446166.271412 kJ/mol
# GULP energy per Si atom -12393.507539 kJ/mol
# Density = 2.022896 g / cm^3
# Si number density = 20.275109 Si / 1000 Ang^3
#
#
#
# Elastic Constant Matrix: (Units=GPa)
#
#
# Indices 1 2 3 4 5 6 
#
# 1 96.7676 62.9834 33.4766 0.0000 0.0000 0.0000
# 2 62.9834 123.2813 42.4123 0.0000 0.0000 0.0000
# 3 33.4766 42.4123 94.2254 0.0000 0.0000 0.0000
# 4 0.0000 0.0000 0.0000 27.3311 0.0000 0.0000
# 5 0.0000 0.0000 0.0000 0.0000 31.6394 0.0000
# 6 0.0000 0.0000 0.0000 0.0000 0.0000 45.1917
#
#
#
# Elastic Compliance Matrix: (Units=1/GPa)
#
#
# Indices 1 2 3 4 5 6 
#
# 1 0.015914 -0.007318 -0.002360 0.000000 0.000000 0.000000
# 2 -0.007318 0.012963 -0.003235 0.000000 0.000000 0.000000
# 3 -0.002360 -0.003235 0.012907 0.000000 0.000000 0.000000
# 4 0.000000 0.000000 0.000000 0.036588 0.000000 0.000000
# 5 0.000000 0.000000 0.000000 0.000000 0.031606 0.000000
# 6 0.000000 0.000000 0.000000 0.000000 0.000000 0.022128
#
#
# Mechanical properties :
#
#
# Convention : Reuss Voigt Hill
#
# Bulk Modulus (GPa) = 62.66332 65.77989 64.22160
# Shear Modulus (GPa) = 30.62741 32.52588 31.57665
#
# Velocity S-wave (km/s) = 3.89085 4.00963 3.95068
# Velocity P-wave (km/s) = 7.15252 7.34508 7.24944
#
# Compressibility (1/GPa) = 0.01595830
#
# Stress axis : x y z
#
# Youngs Moduli (GPa) = 62.83882 77.14064 77.47553
#
# Poissons Ratio (x) = 0.56454 0.18282
# Poissons Ratio (y) = 0.45988 0.25063
# Poissons Ratio (z) = 0.14828 0.24954
#
# Static dielectric constant tensor:
#      x y z
#    x 4.000970 0.000000 0.000000 
#    y 0.000000 3.909710 0.000000 
#    z 0.000000 0.000000 3.585810 
# 
# 
# High freq. dielectric constant tensor:
#      x y z
#    x 1.806330 0.000000 0.000000 
#    y 0.000000 1.797940 0.000000 
#    z 0.000000 0.000000 1.782720 
# 
# From -- ./inp_files/10646.got.cif
#   From: 2010.03.12/outbox.cif.g09.slc.cpg/sg73_6_cif.got.tgz:10646.got - 2010.04.16 15:25:48.
