data_PCOD8296223
_publ_section_title
;
Structure prediction by ZEFSAII (Michael W. Deem and Ramdas Pophale) SiO2 
 PCOD8296223
Probable space group: I B C A 
;
_chemical_formula_sum "Si O2"
_cell_formula_units_Z 104
_cell_length_a 26.299019
_cell_length_b 18.765394
_cell_length_c 10.142824
_cell_angle_alpha 90.000000
_cell_angle_beta 90.000000
_cell_angle_gamma 90.000000
_cell_volume 5005.599813
_symmetry_space_group_name_H-M "I B C A "
_symmetry_group_IT_number 73
_symmetry_cell_setting 'orthorhombic'
loop_
_space_group_symop_operation_xyz
x,y,z
-x,1/2-y,z
x,-y,1/2-z
1/2-x,y,-z
-x,-y,-z
x,1/2+y,-z
-x,y,1/2+z
1/2+x,-y,z
1/2+x,1/2+y,1/2+z
1/2-x,-y,1/2+z
1/2+x,1/2-y,-z
-x,1/2+y,1/2-z
1/2-x,1/2-y,1/2-z
1/2+x,y,1/2-z
1/2-x,1/2+y,z
x,1/2-y,1/2+z
loop_
_atom_site_type_symbol
_atom_site_label
_atom_site_fract_x
_atom_site_fract_y
_atom_site_fract_z
Si Si1 0.277696 0.292811 0.639350
Si Si2 0.606848 0.500000 0.750000
Si Si3 0.734257 0.423680 0.302044
Si Si4 0.039727 0.864421 0.262968
Si Si5 0.614744 0.728913 0.887706
Si Si6 0.472053 0.321014 0.543123
Si Si7 0.166929 0.410206 0.955680
O O1 0.250000 0.280292 0.500000
O O2 0.250000 0.250000 0.750000
O O3 0.279048 0.376330 0.674876
O O4 0.333911 0.264282 0.656103
O O5 0.571120 0.435447 0.792121
O O6 0.639944 0.524344 0.877713
O O7 0.751166 0.500000 0.250000
O O8 0.782648 0.387518 0.374395
O O9 0.685451 0.432965 0.398695
O O10 0.079474 0.800507 0.230789
O O11 0.011499 0.848014 0.400016
O O12 0.994668 0.875641 0.153803
O O13 0.587050 0.796812 0.957366
O O14 0.628919 0.657787 0.973355
O O15 0.500000 0.250000 0.583295
#
# Coordination Sequence:
#
# PCOD8296223 Si02
#       7
#    16   8  16  16  16  16  16
#     4  12  26  41  65 100 139 180 231 285 336 402
#     4  10  22  42  70  90 128 178 220 262 358 410
#     4  11  24  39  61  90 138 180 232 274 331 396
#     4  10  23  41  69  97 127 169 215 279 339 418
#     4  10  22  39  66  97 129 173 222 278 331 400
#     4  10  21  41  66  95 125 162 216 276 344 395
#     4  10  21  40  63  91 131 179 226 276 325 403
#
# _framework density 20.776730000000001
#
# number of rings (size 3 to 8) (size 9 to 14) (size 15 to 20)
#    0.000    1.538    2.308    2.308    6.462    1.846 
#    2.769    0.000    1.692    0.000    0.000    0.000 
#    0.000    0.000    0.000    0.000    0.000    0.000 
#
# Total GULP energy -644181.171635 kJ/mol
# GULP energy per Si atom -12388.099455 kJ/mol
# Density = 2.072944 g / cm^3
# Si number density = 20.776730 Si / 1000 Ang^3
#
#
#
# Elastic Constant Matrix: (Units=GPa)
#
#
# Indices 1 2 3 4 5 6 
#
# 1 115.8256 33.0377 51.9629 0.0000 0.0000 0.0000
# 2 33.0377 78.7357 36.7902 0.0000 0.0000 0.0000
# 3 51.9629 36.7902 139.8579 0.0000 0.0000 0.0000
# 4 0.0000 0.0000 0.0000 21.8790 0.0000 0.0000
# 5 0.0000 0.0000 0.0000 0.0000 29.8481 0.0000
# 6 0.0000 0.0000 0.0000 0.0000 0.0000 2.9616
#
#
#
# Elastic Compliance Matrix: (Units=1/GPa)
#
#
# Indices 1 2 3 4 5 6 
#
# 1 0.010979 -0.003079 -0.003269 0.000000 0.000000 0.000000
# 2 -0.003079 0.015344 -0.002892 0.000000 0.000000 0.000000
# 3 -0.003269 -0.002892 0.009126 0.000000 0.000000 0.000000
# 4 0.000000 0.000000 0.000000 0.045706 0.000000 0.000000
# 5 0.000000 0.000000 0.000000 0.000000 0.033503 0.000000
# 6 0.000000 0.000000 0.000000 0.000000 0.000000 0.337655
#
#
# Mechanical properties :
#
#
# Convention : Reuss Voigt Hill
#
# Bulk Modulus (GPa) = 58.93681 64.22232 61.57956
# Shear Modulus (GPa) = 10.49431 25.11298 17.80364
#
# Velocity S-wave (km/s) = 2.24988 3.48042 2.93047
# Velocity P-wave (km/s) = 5.93107 6.86505 6.41508
#
# Compressibility (1/GPa) = 0.01696733
#
# Stress axis : x y z
#
# Youngs Moduli (GPa) = 91.08696 65.17115 109.58283
#
# Poissons Ratio (x) = 0.20067 0.35822
# Poissons Ratio (y) = 0.28047 0.31695
# Poissons Ratio (z) = 0.29776 0.18850
#
# Static dielectric constant tensor:
#      x y z
#    x 2.374160 0.000000 0.000000 
#    y 0.000000 3.735530 0.000000 
#    z 0.000000 0.000000 4.254710 
# 
# 
# High freq. dielectric constant tensor:
#      x y z
#    x 1.820300 0.000000 0.000000 
#    y 0.000000 1.806860 0.000000 
#    z 0.000000 0.000000 1.800740 
# 
# From -- ./inp_files/7876.got.cif
#   From: 2010.03.12/outbox.cif.g09.slc.cpg/sg73_4_cif.got.tgz:7876.got - 2010.04.16 15:25:48.
