data_PCOD8296816
_publ_section_title
;
Structure prediction by ZEFSAII (Michael W. Deem and Ramdas Pophale) SiO2 
 PCOD8296816
Probable space group: I B C A 
;
_chemical_formula_sum "Si O2"
_cell_formula_units_Z 72
_cell_length_a 8.774295
_cell_length_b 18.496274
_cell_length_c 19.517496
_cell_angle_alpha 90.000000
_cell_angle_beta 90.000000
_cell_angle_gamma 90.000000
_cell_volume 3167.528864
_symmetry_space_group_name_H-M "I B C A "
_symmetry_group_IT_number 73
_symmetry_cell_setting 'orthorhombic'
loop_
_space_group_symop_operation_xyz
x,y,z
-x,1/2-y,z
x,-y,1/2-z
1/2-x,y,-z
-x,-y,-z
x,1/2+y,-z
-x,y,1/2+z
1/2+x,-y,z
1/2+x,1/2+y,1/2+z
1/2-x,-y,1/2+z
1/2+x,1/2-y,-z
-x,1/2+y,1/2-z
1/2-x,1/2-y,1/2-z
1/2+x,y,1/2-z
1/2-x,1/2+y,z
x,1/2-y,1/2+z
loop_
_atom_site_type_symbol
_atom_site_label
_atom_site_fract_x
_atom_site_fract_y
_atom_site_fract_z
Si Si1 0.750000 0.593127 0.500000
Si Si2 0.263466 0.830135 0.282233
Si Si3 0.760711 0.424394 0.347894
Si Si4 0.483455 0.668626 0.903521
Si Si5 0.080724 0.563933 0.868706
O O1 0.622979 0.639736 0.462598
O O2 0.838288 0.548487 0.441985
O O3 0.250000 0.750000 0.250000
O O4 0.284572 0.885325 0.221538
O O5 0.416421 0.834885 0.326642
O O6 0.125191 0.859121 0.331973
O O7 0.856652 0.495415 0.326014
O O8 0.598831 0.443096 0.382672
O O9 0.855667 0.373196 0.399672
O O10 0.500000 0.750000 0.926782
#
# Coordination Sequence:
#
# PCOD8296816 Si02
#       5
#     8  16  16  16  16
#     4  10  26  48  66  98 144 182 250 284 358 430
#     4  11  23  45  71 104 144 177 232 289 358 421
#     4  12  25  43  72 104 140 182 242 289 367 419
#     4  11  24  45  71 104 141 190 232 301 356 432
#     4  11  26  44  70 101 139 193 231 299 351 427
#
# _framework density 22.730653
#
# number of rings (size 3 to 8) (size 9 to 14) (size 15 to 20)
#    0.000    0.889    2.222    4.667    0.000    8.000 
#    0.000    0.000    0.000    0.000    0.000    0.000 
#    0.000    0.000    0.000    0.000    0.000    0.000 
#
# Total GULP energy -446235.752474 kJ/mol
# GULP energy per Si atom -12395.437569 kJ/mol
# Density = 2.267892 g / cm^3
# Si number density = 22.730653 Si / 1000 Ang^3
#
#
#
# Elastic Constant Matrix: (Units=GPa)
#
#
# Indices 1 2 3 4 5 6 
#
# 1 166.5497 48.0429 16.4261 0.0000 0.0000 0.0000
# 2 48.0429 133.2125 18.3052 0.0000 0.0000 0.0000
# 3 16.4261 18.3052 74.2752 0.0000 0.0000 0.0000
# 4 0.0000 0.0000 0.0000 13.8145 0.0000 0.0000
# 5 0.0000 0.0000 0.0000 0.0000 18.3334 0.0000
# 6 0.0000 0.0000 0.0000 0.0000 0.0000 23.9551
#
#
#
# Elastic Compliance Matrix: (Units=1/GPa)
#
#
# Indices 1 2 3 4 5 6 
#
# 1 0.006762 -0.002312 -0.000926 0.000000 0.000000 0.000000
# 2 -0.002312 0.008560 -0.001598 0.000000 0.000000 0.000000
# 3 -0.000926 -0.001598 0.014062 0.000000 0.000000 0.000000
# 4 0.000000 0.000000 0.000000 0.072388 0.000000 0.000000
# 5 0.000000 0.000000 0.000000 0.000000 0.054545 0.000000
# 6 0.000000 0.000000 0.000000 0.000000 0.000000 0.041745
#
#
# Mechanical properties :
#
#
# Convention : Reuss Voigt Hill
#
# Bulk Modulus (GPa) = 50.72824 59.95398 55.34111
# Shear Modulus (GPa) = 23.33124 30.63814 26.98469
#
# Velocity S-wave (km/s) = 3.20726 3.67533 3.44924
# Velocity P-wave (km/s) = 6.00674 6.66662 6.34526
#
# Compressibility (1/GPa) = 0.01971288
#
# Stress axis : x y z
#
# Youngs Moduli (GPa) = 147.87804 116.82072 71.11301
#
# Poissons Ratio (x) = 0.27004 0.06584
# Poissons Ratio (y) = 0.34184 0.11367
# Poissons Ratio (z) = 0.13691 0.18673
#
# Static dielectric constant tensor:
#      x y z
#    x 4.053330 0.000000 0.000000 
#    y 0.000000 4.294550 0.000000 
#    z 0.000000 0.000000 4.055120 
# 
# 
# High freq. dielectric constant tensor:
#      x y z
#    x 1.907190 0.000000 0.000000 
#    y 0.000000 1.900340 0.000000 
#    z 0.000000 0.000000 1.896200 
# 
# From -- ./inp_files/5328.got.cif
#   From: 2010.03.12/outbox.cif.g09.slc.cpg/sg73_3_cif.got.tgz:5328.got - 2010.04.16 15:25:48.
