data_PCOD8296388
_publ_section_title
;
Structure prediction by ZEFSAII (Michael W. Deem and Ramdas Pophale) SiO2 
 PCOD8296388
Probable space group: I B C A 
;
_chemical_formula_sum "Si O2"
_cell_formula_units_Z 104
_cell_length_a 24.968246
_cell_length_b 9.614488
_cell_length_c 20.134483
_cell_angle_alpha 90.000000
_cell_angle_beta 90.000000
_cell_angle_gamma 90.000000
_cell_volume 4833.421603
_symmetry_space_group_name_H-M "I B C A "
_symmetry_group_IT_number 73
_symmetry_cell_setting 'orthorhombic'
loop_
_space_group_symop_operation_xyz
x,y,z
-x,1/2-y,z
x,-y,1/2-z
1/2-x,y,-z
-x,-y,-z
x,1/2+y,-z
-x,y,1/2+z
1/2+x,-y,z
1/2+x,1/2+y,1/2+z
1/2-x,-y,1/2+z
1/2+x,1/2-y,-z
-x,1/2+y,1/2-z
1/2-x,1/2-y,1/2-z
1/2+x,y,1/2-z
1/2-x,1/2+y,z
x,1/2-y,1/2+z
loop_
_atom_site_type_symbol
_atom_site_label
_atom_site_fract_x
_atom_site_fract_y
_atom_site_fract_z
Si Si1 0.142398 0.554956 0.963069
Si Si2 0.496274 0.414269 0.184421
Si Si3 0.675626 0.693969 0.103860
Si Si4 0.300345 0.343184 0.262925
Si Si5 0.117791 0.347058 0.852723
Si Si6 0.595932 0.456850 0.097924
Si Si7 0.250000 0.069045 0.500000
O O1 0.136761 0.717644 0.945033
O O2 0.147209 0.447920 0.902744
O O3 0.200815 0.535644 0.993741
O O4 0.096515 0.520163 0.017849
O O5 0.500000 0.250000 0.198881
O O6 0.509782 0.500000 0.250000
O O7 0.435930 0.436069 0.161015
O O8 0.536659 0.475942 0.128491
O O9 0.684017 0.805182 0.162457
O O10 0.640876 0.561049 0.128978
O O11 0.731993 0.659044 0.065865
O O12 0.281092 0.500000 0.250000
O O13 0.250000 0.250000 0.250000
O O14 0.350738 0.317092 0.215132
O O15 0.111570 0.200509 0.887736
#
# Coordination Sequence:
#
# PCOD8296388 Si02
#       7
#    16  16  16  16  16  16   8
#     4  11  22  42  66  96 137 179 227 282 342 417
#     4  10  24  43  69  97 131 178 225 285 355 411
#     4  11  24  40  68  97 136 183 232 282 340 414
#     4  12  27  43  67 101 141 185 229 280 343 410
#     4  11  24  45  67  93 143 174 221 288 343 410
#     4  10  24  41  68  99 127 176 231 281 342 411
#     4  10  22  40  64  96 134 184 230 274 346 398
#
# _framework density 21.516849000000001
#
# number of rings (size 3 to 8) (size 9 to 14) (size 15 to 20)
#    0.000    1.231    1.538    3.692    6.462    3.077 
#    0.000    1.538    0.000    0.000    0.000    0.000 
#    0.000    0.000    0.000    0.000    0.000    0.000 
#
# Total GULP energy -644188.086148 kJ/mol
# GULP energy per Si atom -12388.232426 kJ/mol
# Density = 2.146788 g / cm^3
# Si number density = 21.516849 Si / 1000 Ang^3
#
#
#
# Elastic Constant Matrix: (Units=GPa)
#
#
# Indices 1 2 3 4 5 6 
#
# 1 123.6466 33.9837 56.3123 0.0000 0.0000 0.0000
# 2 33.9837 79.6903 36.4673 0.0000 0.0000 0.0000
# 3 56.3123 36.4673 116.5572 0.0000 0.0000 0.0000
# 4 0.0000 0.0000 0.0000 31.1050 0.0000 0.0000
# 5 0.0000 0.0000 0.0000 0.0000 28.8673 0.0000
# 6 0.0000 0.0000 0.0000 0.0000 0.0000 21.1612
#
#
#
# Elastic Compliance Matrix: (Units=1/GPa)
#
#
# Indices 1 2 3 4 5 6 
#
# 1 0.010809 -0.002591 -0.004411 0.000000 0.000000 0.000000
# 2 -0.002591 0.015266 -0.003525 0.000000 0.000000 0.000000
# 3 -0.004411 -0.003525 0.011814 0.000000 0.000000 0.000000
# 4 0.000000 0.000000 0.000000 0.032149 0.000000 0.000000
# 5 0.000000 0.000000 0.000000 0.000000 0.034641 0.000000
# 6 0.000000 0.000000 0.000000 0.000000 0.000000 0.047256
#
#
# Mechanical properties :
#
#
# Convention : Reuss Voigt Hill
#
# Bulk Modulus (GPa) = 59.40045 63.71342 61.55694
# Shear Modulus (GPa) = 27.99541 29.10209 28.54875
#
# Velocity S-wave (km/s) = 3.61098 3.68166 3.64649
# Velocity P-wave (km/s) = 6.71208 6.91000 6.81176
#
# Compressibility (1/GPa) = 0.01683489
#
# Stress axis : x y z
#
# Youngs Moduli (GPa) = 92.51813 65.50366 84.64815
#
# Poissons Ratio (x) = 0.16969 0.37342
# Poissons Ratio (y) = 0.23968 0.29837
# Poissons Ratio (z) = 0.40814 0.23089
#
# Static dielectric constant tensor:
#      x y z
#    x 4.807490 0.000000 0.000000 
#    y 0.000000 3.960070 0.000000 
#    z 0.000000 0.000000 3.454580 
# 
# 
# High freq. dielectric constant tensor:
#      x y z
#    x 1.832680 0.000000 0.000000 
#    y 0.000000 1.861040 0.000000 
#    z 0.000000 0.000000 1.851060 
# 
# From -- ./inp_files/27603.got.cif
#   From: 2010.03.12/outbox.cif.g09.slc.cpg/sg73_14_cif.got.tgz:27603.got - 2010.04.16 15:25:48.
