data_PCOD8296737
_publ_section_title
;
Structure prediction by ZEFSAII (Michael W. Deem and Ramdas Pophale) SiO2 
 PCOD8296737
Probable space group: I B C A 
;
_chemical_formula_sum "Si O2"
_cell_formula_units_Z 104
_cell_length_a 20.143781
_cell_length_b 9.596740
_cell_length_c 25.250571
_cell_angle_alpha 90.000000
_cell_angle_beta 90.000000
_cell_angle_gamma 90.000000
_cell_volume 4881.304762
_symmetry_space_group_name_H-M "I B C A "
_symmetry_group_IT_number 73
_symmetry_cell_setting 'orthorhombic'
loop_
_space_group_symop_operation_xyz
x,y,z
-x,1/2-y,z
x,-y,1/2-z
1/2-x,y,-z
-x,-y,-z
x,1/2+y,-z
-x,y,1/2+z
1/2+x,-y,z
1/2+x,1/2+y,1/2+z
1/2-x,-y,1/2+z
1/2+x,1/2-y,-z
-x,1/2+y,1/2-z
1/2-x,1/2-y,1/2-z
1/2+x,y,1/2-z
1/2-x,1/2+y,z
x,1/2-y,1/2+z
loop_
_atom_site_type_symbol
_atom_site_label
_atom_site_fract_x
_atom_site_fract_y
_atom_site_fract_z
Si Si1 0.924183 0.289812 0.199632
Si Si2 0.390384 0.031283 0.359418
Si Si3 0.750000 0.261664 0.500000
Si Si4 0.497472 0.913668 0.553401
Si Si5 0.874577 0.505426 0.119084
Si Si6 0.271969 0.012843 0.070728
Si Si7 0.925296 0.750172 0.679417
O O1 0.879970 0.166743 0.176096
O O2 0.893951 0.427379 0.173472
O O3 0.917680 0.312928 0.262013
O O4 0.000000 0.250000 0.183065
O O5 0.443280 0.045084 0.406886
O O6 0.318374 0.990067 0.379416
O O7 0.407526 0.911237 0.318040
O O8 0.789788 0.371392 0.537296
O O9 0.709124 0.152653 0.536937
O O10 0.500000 0.750000 0.540769
O O11 0.500000 0.000000 0.500000
O O12 0.426268 0.952943 0.576203
O O13 0.803133 0.479764 0.092682
O O14 0.881445 0.667304 0.135832
O O15 0.000000 0.750000 0.658779
#
# Coordination Sequence:
#
# PCOD8296737 Si02
#       7
#    16  16   8  16  16  16  16
#     4  11  21  43  70  94 128 173 217 266 323 384
#     4  12  23  45  63  99 131 168 214 271 319 386
#     4  10  24  46  60  92 118 190 216 252 300 414
#     4  12  28  42  67  95 132 170 213 271 325 374
#     4  12  23  45  63  99 131 168 214 271 319 386
#     4  11  26  40  69  88 134 168 221 260 327 374
#     4  11  23  39  70 100 126 171 217 264 323 392
#
# _framework density 21.305779999999999
#
# number of rings (size 3 to 8) (size 9 to 14) (size 15 to 20)
#    0.000    0.615    4.615    2.769    6.462    2.462 
#    0.000    4.615    0.000    0.000    0.000    0.000 
#    0.000    0.000    0.000    0.000    0.000    0.000 
#
# Total GULP energy -644418.533754 kJ/mol
# GULP energy per Si atom -12392.664111 kJ/mol
# Density = 2.125729 g / cm^3
# Si number density = 21.305780 Si / 1000 Ang^3
#
#
#
# Elastic Constant Matrix: (Units=GPa)
#
#
# Indices 1 2 3 4 5 6 
#
# 1 113.9999 12.6981 37.8344 0.0000 0.0000 0.0000
# 2 12.6981 118.1085 44.5199 0.0000 0.0000 0.0000
# 3 37.8344 44.5199 79.2200 0.0000 0.0000 0.0000
# 4 0.0000 0.0000 0.0000 49.7888 0.0000 0.0000
# 5 0.0000 0.0000 0.0000 0.0000 3.6050 0.0000
# 6 0.0000 0.0000 0.0000 0.0000 0.0000 17.9884
#
#
#
# Elastic Compliance Matrix: (Units=1/GPa)
#
#
# Indices 1 2 3 4 5 6 
#
# 1 0.010511 0.000967 -0.005563 0.000000 0.000000 0.000000
# 2 0.000967 0.010831 -0.006549 0.000000 0.000000 0.000000
# 3 -0.005563 -0.006549 0.018960 0.000000 0.000000 0.000000
# 4 0.000000 0.000000 0.000000 0.020085 0.000000 0.000000
# 5 0.000000 0.000000 0.000000 0.000000 0.277394 0.000000
# 6 0.000000 0.000000 0.000000 0.000000 0.000000 0.055591
#
#
# Mechanical properties :
#
#
# Convention : Reuss Voigt Hill
#
# Bulk Modulus (GPa) = 55.51786 55.71481 55.61634
# Shear Modulus (GPa) = 11.85771 28.69484 20.27627
#
# Velocity S-wave (km/s) = 2.36169 3.67387 3.08828
# Velocity P-wave (km/s) = 5.79232 6.64856 6.23515
#
# Compressibility (1/GPa) = 0.01801222
#
# Stress axis : x y z
#
# Youngs Moduli (GPa) = 95.14286 92.32480 52.74211
#
# Poissons Ratio (x) = -0.08927 0.29341
# Poissons Ratio (y) = -0.09200 0.34540
# Poissons Ratio (z) = 0.52929 0.60461
#
# Static dielectric constant tensor:
#      x y z
#    x 3.511890 0.000000 0.000000 
#    y 0.000000 4.248680 0.000000 
#    z 0.000000 0.000000 3.909220 
# 
# 
# High freq. dielectric constant tensor:
#      x y z
#    x 1.810880 0.000000 0.000000 
#    y 0.000000 1.861240 0.000000 
#    z 0.000000 0.000000 1.845610 
# 
# From -- ./inp_files/32662.got.cif
#   From: 2010.03.12/outbox.cif.g09.slc.cpg/sg73_17_cif.got.tgz:32662.got - 2010.04.16 15:25:48.
