data_PCOD8296379
_publ_section_title
;
Structure prediction by ZEFSAII (Michael W. Deem and Ramdas Pophale) SiO2 
 PCOD8296379
Probable space group: I B C A 
;
_chemical_formula_sum "Si O2"
_cell_formula_units_Z 120
_cell_length_a 13.132117
_cell_length_b 26.244235
_cell_length_c 17.374436
_cell_angle_alpha 90.000000
_cell_angle_beta 90.000000
_cell_angle_gamma 90.000000
_cell_volume 5987.966707
_symmetry_space_group_name_H-M "I B C A "
_symmetry_group_IT_number 73
_symmetry_cell_setting 'orthorhombic'
loop_
_space_group_symop_operation_xyz
x,y,z
-x,1/2-y,z
x,-y,1/2-z
1/2-x,y,-z
-x,-y,-z
x,1/2+y,-z
-x,y,1/2+z
1/2+x,-y,z
1/2+x,1/2+y,1/2+z
1/2-x,-y,1/2+z
1/2+x,1/2-y,-z
-x,1/2+y,1/2-z
1/2-x,1/2-y,1/2-z
1/2+x,y,1/2-z
1/2-x,1/2+y,z
x,1/2-y,1/2+z
loop_
_atom_site_type_symbol
_atom_site_label
_atom_site_fract_x
_atom_site_fract_y
_atom_site_fract_z
Si Si1 0.856322 0.389258 0.300891
Si Si2 0.953971 0.044242 0.686556
Si Si3 0.877071 0.873163 0.317676
Si Si4 0.000000 0.250000 0.943913
Si Si5 0.448712 0.424201 0.047887
Si Si6 0.010208 0.694764 0.201931
Si Si7 0.366521 0.825153 0.024621
Si Si8 0.134877 0.975257 0.481993
O O1 0.872324 0.415677 0.218984
O O2 0.738237 0.390931 0.317880
O O3 0.919221 0.423153 0.362377
O O4 0.898612 0.331468 0.298426
O O5 0.904058 0.026887 0.606459
O O6 0.058120 0.075403 0.670141
O O7 0.974196 0.000000 0.750000
O O8 0.908288 0.843147 0.240246
O O9 0.887192 0.831651 0.385259
O O10 0.956086 0.294557 0.887044
O O11 0.909058 0.229489 0.997600
O O12 0.380299 0.464736 0.999093
O O13 0.432154 0.368393 0.015968
O O14 0.566957 0.440276 0.038294
O O15 0.000000 0.750000 0.244712
O O16 0.250000 0.830664 0.000000
O O17 0.250000 0.958678 0.500000
#
# Coordination Sequence:
#
# PCOD8296379 Si02
#       8
#    16  16  16   8  16  16  16  16
#     4  11  22  41  65  90 127 171 207 261 317 378
#     4  11  24  43  60  96 133 164 222 263 307 381
#     4  11  24  39  66  92 121 172 208 262 314 382
#     4  10  22  40  62  90 126 158 208 274 312 384
#     4  11  21  41  64  89 128 166 212 255 305 389
#     4   9  21  42  59  88 124 159 199 261 319 371
#     4  12  22  41  66  93 123 166 217 258 325 383
#     4  11  25  40  65  96 129 173 208 265 320 367
#
# _framework density 20.040191
#
# number of rings (size 3 to 8) (size 9 to 14) (size 15 to 20)
#    0.400    0.800    5.333    0.400    0.933    3.200 
#    0.000    0.667    0.000    0.000    0.000    0.000 
#    0.000    0.000    0.000    0.000    0.000    0.000 
#
# Total GULP energy -743541.476897 kJ/mol
# GULP energy per Si atom -12392.357948 kJ/mol
# Density = 1.999458 g / cm^3
# Si number density = 20.040191 Si / 1000 Ang^3
#
#
#
# Elastic Constant Matrix: (Units=GPa)
#
#
# Indices 1 2 3 4 5 6 
#
# 1 146.7054 54.8331 56.4109 0.0000 0.0000 0.0000
# 2 54.8331 95.6906 27.9389 0.0000 0.0000 0.0000
# 3 56.4109 27.9389 96.6185 0.0001 0.0000 0.0000
# 4 0.0000 0.0000 0.0001 21.6392 0.0000 0.0000
# 5 0.0000 0.0000 0.0000 0.0000 24.4277 0.0000
# 6 0.0000 0.0000 0.0000 0.0000 0.0000 14.9085
#
#
#
# Elastic Compliance Matrix: (Units=1/GPa)
#
#
# Indices 1 2 3 4 5 6 
#
# 1 0.010327 -0.004541 -0.004716 0.000000 0.000000 0.000000
# 2 -0.004541 0.013410 -0.001227 0.000000 0.000000 0.000000
# 3 -0.004716 -0.001227 0.013458 0.000000 0.000000 0.000000
# 4 0.000000 0.000000 0.000000 0.046212 0.000000 0.000000
# 5 0.000000 0.000000 0.000000 0.000000 0.040937 0.000000
# 6 0.000000 0.000000 0.000000 0.000000 0.000000 0.067076
#
#
# Mechanical properties :
#
#
# Convention : Reuss Voigt Hill
#
# Bulk Modulus (GPa) = 61.62127 68.59780 65.10953
# Shear Modulus (GPa) = 22.95699 25.51717 24.23708
#
# Velocity S-wave (km/s) = 3.38827 3.57220 3.48145
# Velocity P-wave (km/s) = 6.79137 7.16370 6.98002
#
# Compressibility (1/GPa) = 0.01622816
#
# Stress axis : x y z
#
# Youngs Moduli (GPa) = 96.83291 74.56885 74.30264
#
# Poissons Ratio (x) = 0.33859 0.35045
# Poissons Ratio (y) = 0.43968 0.09116
# Poissons Ratio (z) = 0.45671 0.09148
#
# Static dielectric constant tensor:
#      x y z
#    x 3.406030 0.000000 0.000000 
#    y 0.000000 3.814670 0.000000 
#    z 0.000000 0.000000 4.051190 
# 
# 
# High freq. dielectric constant tensor:
#      x y z
#    x 1.763870 0.000000 0.000000 
#    y 0.000000 1.788840 0.000000 
#    z 0.000000 0.000000 1.788710 
# 
# From -- ./inp_files/21578.got.cif
#   From: 2010.03.12/outbox.cif.g09.slc.cpg/sg73_11_cif.got.tgz:21578.got - 2010.04.16 15:25:48.
