data_PCOD8296619
_publ_section_title
;
Structure prediction by ZEFSAII (Michael W. Deem and Ramdas Pophale) SiO2 
 PCOD8296619
Probable space group: I B C A 
;
_chemical_formula_sum "Si O2"
_cell_formula_units_Z 112
_cell_length_a 32.591900
_cell_length_b 10.203483
_cell_length_c 14.715396
_cell_angle_alpha 90.000000
_cell_angle_beta 90.000000
_cell_angle_gamma 90.000000
_cell_volume 4893.618148
_symmetry_space_group_name_H-M "I B C A "
_symmetry_group_IT_number 73
_symmetry_cell_setting 'orthorhombic'
loop_
_space_group_symop_operation_xyz
x,y,z
-x,1/2-y,z
x,-y,1/2-z
1/2-x,y,-z
-x,-y,-z
x,1/2+y,-z
-x,y,1/2+z
1/2+x,-y,z
1/2+x,1/2+y,1/2+z
1/2-x,-y,1/2+z
1/2+x,1/2-y,-z
-x,1/2+y,1/2-z
1/2-x,1/2-y,1/2-z
1/2+x,y,1/2-z
1/2-x,1/2+y,z
x,1/2-y,1/2+z
loop_
_atom_site_type_symbol
_atom_site_label
_atom_site_fract_x
_atom_site_fract_y
_atom_site_fract_z
Si Si1 0.720233 0.405959 0.140899
Si Si2 0.046739 0.212339 0.086638
Si Si3 0.418942 0.067505 0.535574
Si Si4 0.284949 0.500000 0.250000
Si Si5 0.167974 0.912701 0.960811
Si Si6 0.332028 0.759892 0.218915
Si Si7 0.750000 0.283197 0.500000
Si Si8 0.087093 0.147139 0.270770
O O1 0.752583 0.522940 0.165647
O O2 0.681400 0.447925 0.080846
O O3 0.700120 0.355387 0.234115
O O4 0.749725 0.302021 0.091541
O O5 0.054523 0.193493 0.194419
O O6 0.000000 0.250000 0.069582
O O7 0.060603 0.078430 0.033340
O O8 0.069510 0.341807 0.049621
O O9 0.369178 0.057610 0.530194
O O10 0.432491 0.142982 0.628150
O O11 0.312941 0.617540 0.220520
O O12 0.156716 0.808441 0.882181
O O13 0.208465 0.865603 0.012594
O O14 0.375285 0.749024 0.271606
O O15 0.102762 0.000000 0.250000
#
# Coordination Sequence:
#
# PCOD8296619 Si02
#       8
#    16  16  16   8  16  16   8  16
#     4  12  25  40  62  93 135 186 251 310 365 428
#     4  11  25  50  78 112 146 185 235 302 375 461
#     4  11  26  46  78 110 150 193 243 301 370 454
#     4  12  22  40  64  90 130 190 244 308 364 422
#     4  12  25  43  63 101 142 188 247 310 366 432
#     4  12  22  41  66  90 133 187 241 302 362 434
#     4  12  26  40  62  96 140 194 254 310 370 426
#     4  10  23  44  71 101 139 187 233 287 362 450
#
# _framework density 22.886951
#
# number of rings (size 3 to 8) (size 9 to 14) (size 15 to 20)
#    0.000    0.571    5.000    3.000    4.000    1.714 
#    0.000    2.143    0.000    0.000    0.000    0.000 
#    0.000    0.000    0.000    0.000    0.000    0.000 
#
# Total GULP energy -693790.163900 kJ/mol
# GULP energy per Si atom -12389.110070 kJ/mol
# Density = 2.283486 g / cm^3
# Si number density = 22.886951 Si / 1000 Ang^3
#
#
#
# Elastic Constant Matrix: (Units=GPa)
#
#
# Indices 1 2 3 4 5 6 
#
# 1 129.8491 48.9028 28.4172 0.0000 0.0000 0.0000
# 2 48.9028 107.3370 29.5000 0.0000 0.0000 0.0000
# 3 28.4172 29.5000 90.3578 0.0000 0.0000 0.0000
# 4 0.0000 0.0000 0.0000 31.7373 0.0000 0.0000
# 5 0.0000 0.0000 0.0000 0.0000 33.7494 0.0000
# 6 0.0000 0.0000 0.0000 0.0000 0.0000 42.2413
#
#
#
# Elastic Compliance Matrix: (Units=1/GPa)
#
#
# Indices 1 2 3 4 5 6 
#
# 1 0.009538 -0.003868 -0.001737 0.000000 0.000000 0.000000
# 2 -0.003868 0.011804 -0.002637 0.000000 0.000000 0.000000
# 3 -0.001737 -0.002637 0.012474 0.000000 0.000000 0.000000
# 4 0.000000 0.000000 0.000000 0.031509 0.000000 0.000000
# 5 0.000000 0.000000 0.000000 0.000000 0.029630 0.000000
# 6 0.000000 0.000000 0.000000 0.000000 0.000000 0.023674
#
#
# Mechanical properties :
#
#
# Convention : Reuss Voigt Hill
#
# Bulk Modulus (GPa) = 57.69759 60.13157 58.91458
# Shear Modulus (GPa) = 35.48868 36.26052 35.87460
#
# Velocity S-wave (km/s) = 3.94205 3.98468 3.96342
# Velocity P-wave (km/s) = 6.78116 6.89207 6.83684
#
# Compressibility (1/GPa) = 0.01733174
#
# Stress axis : x y z
#
# Youngs Moduli (GPa) = 104.84180 84.71993 80.16487
#
# Poissons Ratio (x) = 0.32772 0.13923
# Poissons Ratio (y) = 0.40556 0.21140
# Poissons Ratio (z) = 0.18209 0.22341
#
# Static dielectric constant tensor:
#      x y z
#    x 4.004720 0.000000 0.000000 
#    y 0.000000 -10.200020 0.000000 
#    z 0.000000 0.000000 4.195660 
# 
# 
# High freq. dielectric constant tensor:
#      x y z
#    x 1.893830 0.000000 0.000000 
#    y 0.000000 1.903160 0.000000 
#    z 0.000000 0.000000 1.909080 
# 
# From -- ./inp_files/20083.got.cif
#   From: 2010.03.12/outbox.cif.g09.slc.cpg/sg73_11_cif.got.tgz:20083.got - 2010.04.16 15:25:48.
