data_PCOD8296770
_publ_section_title
;
Structure prediction by ZEFSAII (Michael W. Deem and Ramdas Pophale) SiO2 
 PCOD8296770
Probable space group: I B C A 
;
_chemical_formula_sum "Si O2"
_cell_formula_units_Z 112
_cell_length_a 14.009548
_cell_length_b 13.921433
_cell_length_c 26.811801
_cell_angle_alpha 90.000000
_cell_angle_beta 90.000000
_cell_angle_gamma 90.000000
_cell_volume 5229.185551
_symmetry_space_group_name_H-M "I B C A "
_symmetry_group_IT_number 73
_symmetry_cell_setting 'orthorhombic'
loop_
_space_group_symop_operation_xyz
x,y,z
-x,1/2-y,z
x,-y,1/2-z
1/2-x,y,-z
-x,-y,-z
x,1/2+y,-z
-x,y,1/2+z
1/2+x,-y,z
1/2+x,1/2+y,1/2+z
1/2-x,-y,1/2+z
1/2+x,1/2-y,-z
-x,1/2+y,1/2-z
1/2-x,1/2-y,1/2-z
1/2+x,y,1/2-z
1/2-x,1/2+y,z
x,1/2-y,1/2+z
loop_
_atom_site_type_symbol
_atom_site_label
_atom_site_fract_x
_atom_site_fract_y
_atom_site_fract_z
Si Si1 0.150984 0.482940 0.471405
Si Si2 0.974983 0.007062 0.195824
Si Si3 0.512807 0.635826 0.539576
Si Si4 0.745194 0.245351 0.190306
Si Si5 0.186407 0.581578 0.136805
Si Si6 0.821838 0.960686 0.695596
Si Si7 0.930800 0.831380 0.857077
O O1 0.250000 0.508363 0.500000
O O2 0.091222 0.581395 0.460844
O O3 0.183310 0.423006 0.422219
O O4 0.081480 0.407598 0.497691
O O5 0.065828 0.935353 0.192502
O O6 0.895502 0.990245 0.155042
O O7 0.925916 0.000000 0.250000
O O8 0.022812 0.111138 0.188889
O O9 0.500000 0.750000 0.528581
O O10 0.572126 0.609919 0.590661
O O11 0.750000 0.250000 0.250000
O O12 0.666045 0.314952 0.163842
O O13 0.731293 0.134399 0.177789
O O14 0.838654 0.277375 0.161934
O O15 0.291242 0.544552 0.156489
O O16 0.792116 0.000000 0.750000
O O17 0.000000 0.750000 0.875913
#
# Coordination Sequence:
#
# PCOD8296770 Si02
#       7
#    16  16  16  16  16  16  16
#     4  11  25  46  74 102 135 180 233 302 361 426
#     4  11  23  41  64  94 138 178 217 278 337 408
#     4  10  24  48  71 101 138 176 233 294 360 430
#     4  12  24  41  65  98 139 183 225 283 336 415
#     4  12  24  43  69 100 134 179 230 278 353 414
#     4  11  23  43  62  97 142 180 231 280 333 406
#     4  11  22  42  70  94 128 181 230 271 340 414
#
# _framework density 21.418248999999999
#
# number of rings (size 3 to 8) (size 9 to 14) (size 15 to 20)
#    0.000    0.857    4.286    3.000    4.000    1.143 
#    5.143    0.000    0.000    0.000    0.000    0.000 
#    0.000    0.000    0.000    0.000    0.000    0.000 
#
# Total GULP energy -693820.950185 kJ/mol
# GULP energy per Si atom -12389.659825 kJ/mol
# Density = 2.136950 g / cm^3
# Si number density = 21.418249 Si / 1000 Ang^3
#
#
#
# Elastic Constant Matrix: (Units=GPa)
#
#
# Indices 1 2 3 4 5 6 
#
# 1 101.5250 18.3745 40.3018 0.0000 0.0000 0.0000
# 2 18.3745 106.8482 27.3098 0.0000 0.0000 0.0000
# 3 40.3018 27.3098 143.6975 0.0000 0.0000 0.0000
# 4 0.0000 0.0000 0.0000 33.3677 0.0000 0.0000
# 5 0.0000 0.0000 0.0000 0.0000 43.0071 0.0000
# 6 0.0000 0.0000 0.0000 0.0000 0.0000 29.6977
#
#
#
# Elastic Compliance Matrix: (Units=1/GPa)
#
#
# Indices 1 2 3 4 5 6 
#
# 1 0.011224 -0.001183 -0.002923 0.000000 0.000000 0.000000
# 2 -0.001183 0.009962 -0.001561 0.000000 0.000000 0.000000
# 3 -0.002923 -0.001561 0.008076 0.000000 0.000000 0.000000
# 4 0.000000 0.000000 0.000000 0.029969 0.000000 0.000000
# 5 0.000000 0.000000 0.000000 0.000000 0.023252 0.000000
# 6 0.000000 0.000000 0.000000 0.000000 0.000000 0.033673
#
#
# Mechanical properties :
#
#
# Convention : Reuss Voigt Hill
#
# Bulk Modulus (GPa) = 55.78402 58.22699 57.00550
# Shear Modulus (GPa) = 37.46273 38.95346 38.20809
#
# Velocity S-wave (km/s) = 4.18677 4.26925 4.22821
# Velocity P-wave (km/s) = 7.03375 7.17961 7.10705
#
# Compressibility (1/GPa) = 0.01792628
#
# Stress axis : x y z
#
# Youngs Moduli (GPa) = 89.09245 100.38531 123.82914
#
# Poissons Ratio (x) = 0.11876 0.36197
# Poissons Ratio (y) = 0.10540 0.19335
# Poissons Ratio (z) = 0.26043 0.15674
#
# Static dielectric constant tensor:
#      x y z
#    x 4.277880 0.000000 0.000000 
#    y 0.000000 4.372930 0.000000 
#    z 0.000000 0.000000 3.867160 
# 
# 
# High freq. dielectric constant tensor:
#      x y z
#    x 1.850230 0.000000 0.000000 
#    y 0.000000 1.841740 0.000000 
#    z 0.000000 0.000000 1.844480 
# 
# From -- ./inp_files/29538.got.cif
#   From: 2010.03.12/outbox.cif.g09.slc.cpg/sg73_15_cif.got.tgz:29538.got - 2010.04.16 15:25:48.
