data_PCOD8296009
_publ_section_title
;
Structure prediction by ZEFSAII (Michael W. Deem and Ramdas Pophale) SiO2 
 PCOD8296009
Probable space group: I B C A 
;
_chemical_formula_sum "Si O2"
_cell_formula_units_Z 120
_cell_length_a 14.175515
_cell_length_b 23.839818
_cell_length_c 18.030496
_cell_angle_alpha 90.000000
_cell_angle_beta 90.000000
_cell_angle_gamma 90.000000
_cell_volume 6093.256428
_symmetry_space_group_name_H-M "I B C A "
_symmetry_group_IT_number 73
_symmetry_cell_setting 'orthorhombic'
loop_
_space_group_symop_operation_xyz
x,y,z
-x,1/2-y,z
x,-y,1/2-z
1/2-x,y,-z
-x,-y,-z
x,1/2+y,-z
-x,y,1/2+z
1/2+x,-y,z
1/2+x,1/2+y,1/2+z
1/2-x,-y,1/2+z
1/2+x,1/2-y,-z
-x,1/2+y,1/2-z
1/2-x,1/2-y,1/2-z
1/2+x,y,1/2-z
1/2-x,1/2+y,z
x,1/2-y,1/2+z
loop_
_atom_site_type_symbol
_atom_site_label
_atom_site_fract_x
_atom_site_fract_y
_atom_site_fract_z
Si Si1 0.312520 0.060630 0.073978
Si Si2 0.699240 0.145130 0.071941
Si Si3 0.301341 0.415320 0.284959
Si Si4 0.819103 0.944342 0.348528
Si Si5 0.492104 0.563484 0.738445
Si Si6 0.500000 0.750000 0.335227
Si Si7 0.182976 0.294658 0.783904
Si Si8 0.988484 0.130055 0.393305
O O1 0.250428 0.089580 0.137070
O O2 0.406141 0.098903 0.059797
O O3 0.343768 0.000740 0.106667
O O4 0.250000 0.055196 0.000000
O O5 0.763443 0.092824 0.093345
O O6 0.705618 0.196040 0.129664
O O7 0.589790 0.124231 0.064903
O O8 0.750000 0.170363 0.000000
O O9 0.247295 0.453513 0.224028
O O10 0.405253 0.439993 0.298493
O O11 0.308949 0.352341 0.258014
O O12 0.914859 0.913027 0.320295
O O13 0.455613 0.500000 0.750000
O O14 0.494563 0.600749 0.812510
O O15 0.578666 0.770392 0.277952
O O16 0.466218 0.803317 0.385198
O O17 0.250000 0.250000 0.750000
#
# Coordination Sequence:
#
# PCOD8296009 Si02
#       8
#    16  16  16  16  16   8  16  16
#     4  12  25  40  60  94 136 166 208 259 321 391
#     4  10  23  42  62  90 130 165 206 261 329 390
#     4  11  22  38  61  92 122 165 214 256 315 376
#     4  11  21  38  63  91 124 169 210 258 309 380
#     4  12  20  36  64  95 122 161 217 262 306 377
#     4  10  20  40  64  90 122 156 216 274 312 360
#     4  10  21  37  64  92 117 163 219 265 310 380
#     4  11  22  42  64  93 124 172 211 265 327 376
#
# _framework density 19.693902999999999
#
# number of rings (size 3 to 8) (size 9 to 14) (size 15 to 20)
#    0.000    1.067    6.667    2.400    1.867    1.067 
#    0.000    8.000    0.000    0.800    0.000    0.000 
#    0.000    0.000    0.000    0.000    0.000    0.000 
#
# Total GULP energy -743668.309218 kJ/mol
# GULP energy per Si atom -12394.471820 kJ/mol
# Density = 1.964908 g / cm^3
# Si number density = 19.693903 Si / 1000 Ang^3
#
#
#
# Elastic Constant Matrix: (Units=GPa)
#
#
# Indices 1 2 3 4 5 6 
#
# 1 118.0360 19.0562 48.0336 0.0000 0.0000 0.0000
# 2 19.0562 90.6950 22.6851 0.0001 0.0000 0.0000
# 3 48.0336 22.6851 103.7124 0.0002 0.0000 0.0000
# 4 0.0000 0.0001 0.0002 16.0320 0.0000 0.0000
# 5 0.0000 0.0000 0.0000 0.0000 35.9043 0.0000
# 6 0.0000 0.0000 0.0000 0.0000 0.0000 32.8745
#
#
#
# Elastic Compliance Matrix: (Units=1/GPa)
#
#
# Indices 1 2 3 4 5 6 
#
# 1 0.010533 -0.001050 -0.004649 0.000000 0.000000 0.000000
# 2 -0.001050 0.011769 -0.002088 0.000000 0.000000 0.000000
# 3 -0.004649 -0.002088 0.012252 0.000000 0.000000 0.000000
# 4 0.000000 0.000000 0.000000 0.062375 0.000000 0.000000
# 5 0.000000 0.000000 0.000000 0.000000 0.027852 0.000000
# 6 0.000000 0.000000 0.000000 0.000000 0.000000 0.030419
#
#
# Mechanical properties :
#
#
# Convention : Reuss Voigt Hill
#
# Bulk Modulus (GPa) = 52.68635 54.66590 53.67612
# Shear Modulus (GPa) = 28.23262 31.80673 30.01967
#
# Velocity S-wave (km/s) = 3.79036 4.02313 3.90848
# Velocity P-wave (km/s) = 6.77986 7.02843 6.90526
#
# Compressibility (1/GPa) = 0.01898025
#
# Stress axis : x y z
#
# Youngs Moduli (GPa) = 94.93696 84.96999 81.62148
#
# Poissons Ratio (x) = 0.08926 0.37943
# Poissons Ratio (y) = 0.09973 0.17040
# Poissons Ratio (z) = 0.44133 0.17739
#
# Static dielectric constant tensor:
#      x y z
#    x 4.005640 0.000000 0.000000 
#    y 0.000000 3.885540 0.000000 
#    z 0.000000 0.000000 3.485950 
# 
# 
# High freq. dielectric constant tensor:
#      x y z
#    x 1.787820 0.000000 0.000000 
#    y 0.000000 1.769530 0.000000 
#    z 0.000000 0.000000 1.738650 
# 
# From -- ./inp_files/22159.got.cif
#   From: 2010.03.12/outbox.cif.g09.slc.cpg/sg73_12_cif.got.tgz:22159.got - 2010.04.16 15:25:48.
