data_PCOD8296678
_publ_section_title
;
Structure prediction by ZEFSAII (Michael W. Deem and Ramdas Pophale) SiO2 
 PCOD8296678
Probable space group: I B C A 
;
_chemical_formula_sum "Si O2"
_cell_formula_units_Z 56
_cell_length_a 8.937796
_cell_length_b 26.185841
_cell_length_c 9.630797
_cell_angle_alpha 90.000000
_cell_angle_beta 90.000000
_cell_angle_gamma 90.000000
_cell_volume 2254.027411
_symmetry_space_group_name_H-M "I B C A "
_symmetry_group_IT_number 73
_symmetry_cell_setting 'orthorhombic'
loop_
_space_group_symop_operation_xyz
x,y,z
-x,1/2-y,z
x,-y,1/2-z
1/2-x,y,-z
-x,-y,-z
x,1/2+y,-z
-x,y,1/2+z
1/2+x,-y,z
1/2+x,1/2+y,1/2+z
1/2-x,-y,1/2+z
1/2+x,1/2-y,-z
-x,1/2+y,1/2-z
1/2-x,1/2-y,1/2-z
1/2+x,y,1/2-z
1/2-x,1/2+y,z
x,1/2-y,1/2+z
loop_
_atom_site_type_symbol
_atom_site_label
_atom_site_fract_x
_atom_site_fract_y
_atom_site_fract_z
Si Si1 0.250000 0.983523 0.000000
Si Si2 0.947649 0.864114 0.191830
Si Si3 0.955708 0.569208 0.422109
Si Si4 0.785370 0.201486 0.842381
O O1 0.369836 0.947969 0.077163
O O2 0.152243 0.020585 0.099732
O O3 0.060266 0.897797 0.284432
O O4 0.039299 0.812873 0.154530
O O5 0.905242 0.897102 0.055820
O O6 0.805039 0.847053 0.281834
O O7 0.750000 0.250000 0.750000
O O8 0.750000 0.215063 0.000000
#
# Coordination Sequence:
#
# PCOD8296678 Si02
#       4
#     8  16  16  16
#     4  10  24  42  66 104 142 180 240 288 340 400
#     4  12  25  47  72 102 146 186 232 285 355 412
#     4  11  24  42  69 100 140 190 229 290 342 411
#     4  12  28  47  73 107 141 180 234 289 349 422
#
# _framework density 24.844418999999998
#
# number of rings (size 3 to 8) (size 9 to 14) (size 15 to 20)
#    0.000    0.571    2.857    4.286    4.000    9.143 
#    0.000    0.000    0.000    0.000    0.000    0.000 
#    0.000    0.000    0.000    0.000    0.000    0.000 
#
# Total GULP energy -347170.365661 kJ/mol
# GULP energy per Si atom -12398.941631 kJ/mol
# Density = 2.478787 g / cm^3
# Si number density = 24.844419 Si / 1000 Ang^3
#
#
#
# Elastic Constant Matrix: (Units=GPa)
#
#
# Indices 1 2 3 4 5 6 
#
# 1 97.9015 17.1753 13.0527 -0.0001 -0.0005 0.0004
# 2 17.1753 104.1938 34.1087 0.0006 -0.0001 0.0002
# 3 13.0527 34.1087 132.8191 0.0023 0.0025 -0.0046
# 4 -0.0001 0.0006 0.0023 27.5539 0.0001 -0.0002
# 5 -0.0005 -0.0001 0.0025 0.0001 24.6914 0.0000
# 6 0.0004 0.0002 -0.0046 -0.0002 0.0000 30.1655
#
#
#
# Elastic Compliance Matrix: (Units=1/GPa)
#
#
# Indices 1 2 3 4 5 6 
#
# 1 0.010569 -0.001531 -0.000646 0.000000 0.000000 0.000000
# 2 -0.001531 0.010700 -0.002597 0.000000 0.000000 0.000000
# 3 -0.000646 -0.002597 0.008260 -0.000001 -0.000001 0.000001
# 4 0.000000 0.000000 -0.000001 0.036292 0.000000 0.000000
# 5 0.000000 0.000000 -0.000001 0.000000 0.040500 0.000000
# 6 0.000000 0.000000 0.000001 0.000000 0.000000 0.033150
#
#
# Mechanical properties :
#
#
# Convention : Reuss Voigt Hill
#
# Bulk Modulus (GPa) = 50.04752 51.50976 50.77864
# Shear Modulus (GPa) = 32.11727 34.52067 33.31897
#
# Velocity S-wave (km/s) = 3.59936 3.73161 3.66608
# Velocity P-wave (km/s) = 6.12062 6.27252 6.19703
#
# Compressibility (1/GPa) = 0.01998101
#
# Stress axis : x y z
#
# Youngs Moduli (GPa) = 94.61648 93.45682 121.07265
#
# Poissons Ratio (x) = 0.14307 0.07815
# Poissons Ratio (y) = 0.14485 0.31448
# Poissons Ratio (z) = 0.06108 0.24275
#
# Static dielectric constant tensor:
#      x y z
#    x 4.891880 0.000120 -0.000050 
#    y 0.000120 4.480550 0.000010 
#    z -0.000050 0.000010 4.163550 
# 
# 
# High freq. dielectric constant tensor:
#      x y z
#    x 2.006980 0.000000 0.000000 
#    y 0.000000 2.002300 0.000000 
#    z 0.000000 0.000000 1.973480 
# 
# From -- ./inp_files/3834.got.cif
#   From: 2010.03.12/outbox.cif.g09.slc.cpg/sg73_2_cif.got.tgz:3834.got - 2010.04.16 15:25:48.
