data_PCOD8296164
_publ_section_title
;
Structure prediction by ZEFSAII (Michael W. Deem and Ramdas Pophale) SiO2 
 PCOD8296164
Probable space group: I B C A 
;
_chemical_formula_sum "Si O2"
_cell_formula_units_Z 112
_cell_length_a 30.329471
_cell_length_b 28.734346
_cell_length_c 5.488208
_cell_angle_alpha 90.000000
_cell_angle_beta 90.000000
_cell_angle_gamma 90.000000
_cell_volume 4782.959627
_symmetry_space_group_name_H-M "I B C A "
_symmetry_group_IT_number 73
_symmetry_cell_setting 'orthorhombic'
loop_
_space_group_symop_operation_xyz
x,y,z
-x,1/2-y,z
x,-y,1/2-z
1/2-x,y,-z
-x,-y,-z
x,1/2+y,-z
-x,y,1/2+z
1/2+x,-y,z
1/2+x,1/2+y,1/2+z
1/2-x,-y,1/2+z
1/2+x,1/2-y,-z
-x,1/2+y,1/2-z
1/2-x,1/2-y,1/2-z
1/2+x,y,1/2-z
1/2-x,1/2+y,z
x,1/2-y,1/2+z
loop_
_atom_site_type_symbol
_atom_site_label
_atom_site_fract_x
_atom_site_fract_y
_atom_site_fract_z
Si Si1 0.385864 0.076846 0.518080
Si Si2 0.021451 0.336826 0.362344
Si Si3 0.310908 0.068696 0.882065
Si Si4 0.338254 0.000000 0.250000
Si Si5 0.668448 0.353273 0.255836
Si Si6 0.512882 0.560941 0.887409
Si Si7 0.106055 0.278565 0.347954
Si Si8 0.750000 0.111968 0.000000
O O1 0.356832 0.061669 0.745579
O O2 0.372464 0.040676 0.310897
O O3 0.372747 0.127613 0.417110
O O4 0.436599 0.075672 0.591910
O O5 0.071812 0.321092 0.360978
O O6 0.000323 0.316544 0.613177
O O7 0.017892 0.392981 0.359231
O O8 0.268056 0.076733 0.710281
O O9 0.305861 0.021218 0.041504
O O10 0.316624 0.115168 0.034716
O O11 0.654595 0.302336 0.159974
O O12 0.711256 0.352672 0.427767
O O13 0.504477 0.533281 0.630112
O O14 0.100218 0.249632 0.596314
#
# Coordination Sequence:
#
# PCOD8296164 Si02
#       8
#    16  16  16   8  16  16  16   8
#     4  10  22  40  72  98 140 195 238 288 352 427
#     4  10  21  38  63  94 137 180 229 287 344 408
#     4  10  22  41  78 101 141 183 235 287 357 429
#     4  10  22  42  70 108 144 184 228 294 354 424
#     4  10  23  43  73  98 137 188 236 288 356 441
#     4  10  22  37  63 100 133 183 246 288 336 405
#     4  12  28  44  68 106 146 186 237 299 365 427
#     4  10  22  44  76 108 132 180 236 292 348 442
#
# _framework density 23.416463
#
# number of rings (size 3 to 8) (size 9 to 14) (size 15 to 20)
#    0.000    1.714    0.000    3.429   12.000    1.714 
#    0.000    1.429  113.143    0.000    0.000    0.000 
#    0.000    0.000    0.000    0.000    0.000    0.000 
#
# Total GULP energy -693944.211211 kJ/mol
# GULP energy per Si atom -12391.860914 kJ/mol
# Density = 2.336317 g / cm^3
# Si number density = 23.416463 Si / 1000 Ang^3
#
#
#
# Elastic Constant Matrix: (Units=GPa)
#
#
# Indices 1 2 3 4 5 6 
#
# 1 86.2757 0.8782 49.3908 0.0000 0.0000 0.0000
# 2 0.8782 34.0345 32.9999 0.0000 0.0000 0.0000
# 3 49.3908 32.9999 180.8307 0.0000 0.0000 0.0000
# 4 0.0000 0.0000 0.0000 21.3951 0.0000 0.0000
# 5 0.0000 0.0000 0.0000 0.0000 -3.4282 0.0000
# 6 0.0000 0.0000 0.0000 0.0000 0.0000 22.5153
#
#
#
# Elastic Compliance Matrix: (Units=1/GPa)
#
#
# Indices 1 2 3 4 5 6 
#
# 1 0.014200 0.004124 -0.004631 0.000000 0.000000 0.000000
# 2 0.004124 0.036896 -0.007860 0.000000 0.000000 0.000000
# 3 -0.004631 -0.007860 0.008229 0.000000 0.000000 0.000000
# 4 0.000000 0.000000 0.000000 0.046740 0.000000 0.000000
# 5 0.000000 0.000000 0.000000 0.000000 -0.291696 0.000000
# 6 0.000000 0.000000 0.000000 0.000000 0.000000 0.044414
#
#
# Mechanical properties :
#
#
# Convention : Reuss Voigt Hill
#
# Bulk Modulus (GPa) = 23.47866 51.96429 37.72148
# Shear Modulus (GPa) = -45.33661 22.62124 -11.35768
#
# Velocity S-wave (km/s) = -4.40489 3.11149 -2.20473
# Velocity P-wave (km/s) = 3.97774 5.92858 3.10851
#
# Compressibility (1/GPa) = 0.04259188
#
# Stress axis : x y z
#
# Youngs Moduli (GPa) = 70.42288 27.10307 121.51828
#
# Poissons Ratio (x) = -0.11177 0.56276
# Poissons Ratio (y) = -0.29041 0.95508
# Poissons Ratio (z) = 0.32613 0.21302
#
# Static dielectric constant tensor:
#      x y z
#    x 4.124270 0.000000 0.000000 
#    y 0.000000 4.016780 0.000000 
#    z 0.000000 0.000000 5.037240 
# 
# 
# High freq. dielectric constant tensor:
#      x y z
#    x 1.921920 0.000000 0.000000 
#    y 0.000000 1.900370 0.000000 
#    z 0.000000 0.000000 1.959230 
# 
# From -- ./inp_files/3280.got.cif
#   From: 2010.03.12/outbox.cif.g09.slc.cpg/sg73_2_cif.got.tgz:3280.got - 2010.04.16 15:25:48.
