data_PCOD8296177
_publ_section_title
;
Structure prediction by ZEFSAII (Michael W. Deem and Ramdas Pophale) SiO2 
 PCOD8296177
Probable space group: I B C A 
;
_chemical_formula_sum "Si O2"
_cell_formula_units_Z 120
_cell_length_a 27.895465
_cell_length_b 7.706117
_cell_length_c 25.619107
_cell_angle_alpha 90.000000
_cell_angle_beta 90.000000
_cell_angle_gamma 90.000000
_cell_volume 5507.229707
_symmetry_space_group_name_H-M "I B C A "
_symmetry_group_IT_number 73
_symmetry_cell_setting 'orthorhombic'
loop_
_space_group_symop_operation_xyz
x,y,z
-x,1/2-y,z
x,-y,1/2-z
1/2-x,y,-z
-x,-y,-z
x,1/2+y,-z
-x,y,1/2+z
1/2+x,-y,z
1/2+x,1/2+y,1/2+z
1/2-x,-y,1/2+z
1/2+x,1/2-y,-z
-x,1/2+y,1/2-z
1/2-x,1/2-y,1/2-z
1/2+x,y,1/2-z
1/2-x,1/2+y,z
x,1/2-y,1/2+z
loop_
_atom_site_type_symbol
_atom_site_label
_atom_site_fract_x
_atom_site_fract_y
_atom_site_fract_z
Si Si1 0.812432 0.948714 0.895325
Si Si2 0.959124 0.006834 0.634785
Si Si3 0.373731 0.495620 0.936697
Si Si4 0.892895 0.000000 0.250000
Si Si5 0.058750 0.607184 0.150780
Si Si6 0.728110 0.608520 0.057480
Si Si7 0.627790 0.637899 0.703288
Si Si8 0.899085 0.103673 0.546450
O O1 0.792534 0.795521 0.931434
O O2 0.828386 0.899188 0.836738
O O3 0.858694 0.023368 0.927202
O O4 0.768323 0.082664 0.897108
O O5 0.955303 0.802551 0.640892
O O6 0.016221 0.036694 0.642661
O O7 0.923987 0.112253 0.674410
O O8 0.949089 0.057261 0.574400
O O9 0.394510 0.567844 0.883332
O O10 0.316318 0.529219 0.938836
O O11 0.384102 0.293837 0.937087
O O12 0.402061 0.585118 0.984521
O O13 0.926702 0.900633 0.210402
O O14 0.864281 0.838638 0.277600
O O15 0.750000 0.598440 0.000000
O O16 0.632135 0.500000 0.750000
#
# Coordination Sequence:
#
# PCOD8296177 Si02
#       8
#    16  16  16   8  16  16  16  16
#     4  10  23  40  64  98 131 171 220 279 343 398
#     4  10  23  42  66  97 133 172 219 275 334 399
#     4  11  23  38  63  94 131 176 222 273 335 406
#     4  12  24  42  72  98 128 176 226 278 332 396
#     4  11  24  40  66 100 129 174 224 272 336 396
#     4  11  21  38  65  97 130 169 219 275 333 411
#     4  11  24  48  70  97 135 178 225 285 339 403
#     4  10  21  39  60  92 132 173 216 270 339 394
#
# _framework density 21.789539000000001
#
# number of rings (size 3 to 8) (size 9 to 14) (size 15 to 20)
#    0.000    1.333    2.667    3.600    2.800    4.800 
#    2.400    0.667    1.467    0.000    0.000    0.000 
#    0.000    0.000    0.000    0.000    0.000    0.000 
#
# Total GULP energy -743488.625454 kJ/mol
# GULP energy per Si atom -12391.477091 kJ/mol
# Density = 2.173994 g / cm^3
# Si number density = 21.789539 Si / 1000 Ang^3
#
#
#
# Elastic Constant Matrix: (Units=GPa)
#
#
# Indices 1 2 3 4 5 6 
#
# 1 98.5166 14.9468 59.2239 0.0000 0.0000 0.0000
# 2 14.9468 49.2578 9.2460 0.0000 0.0000 0.0000
# 3 59.2239 9.2460 113.4311 0.0000 0.0000 0.0000
# 4 0.0000 0.0000 0.0000 37.6469 0.0000 0.0000
# 5 0.0000 0.0000 0.0000 0.0000 31.7466 0.0000
# 6 0.0000 0.0000 0.0000 0.0000 0.0000 24.3265
#
#
#
# Elastic Compliance Matrix: (Units=1/GPa)
#
#
# Indices 1 2 3 4 5 6 
#
# 1 0.015271 -0.003186 -0.007713 0.000000 0.000000 0.000000
# 2 -0.003186 0.021281 -0.000071 0.000000 0.000000 0.000000
# 3 -0.007713 -0.000071 0.012849 0.000000 0.000000 0.000000
# 4 0.000000 0.000000 0.000000 0.026563 0.000000 0.000000
# 5 0.000000 0.000000 0.000000 0.000000 0.031499 0.000000
# 6 0.000000 0.000000 0.000000 0.000000 0.000000 0.041107
#
#
# Mechanical properties :
#
#
# Convention : Reuss Voigt Hill
#
# Bulk Modulus (GPa) = 36.41652 47.55989 41.98821
# Shear Modulus (GPa) = 27.82947 30.59659 29.21303
#
# Velocity S-wave (km/s) = 3.57766 3.75131 3.66552
# Velocity P-wave (km/s) = 5.81510 6.37475 6.10134
#
# Compressibility (1/GPa) = 0.02746006
#
# Stress axis : x y z
#
# Youngs Moduli (GPa) = 65.48377 46.98926 77.82682
#
# Poissons Ratio (x) = 0.14971 0.60032
# Poissons Ratio (y) = 0.20863 0.00555
# Poissons Ratio (z) = 0.50511 0.00335
#
# Static dielectric constant tensor:
#      x y z
#    x 5.409580 0.000000 0.000000 
#    y 0.000000 4.056420 0.000000 
#    z 0.000000 0.000000 3.769100 
# 
# 
# High freq. dielectric constant tensor:
#      x y z
#    x 1.850210 0.000000 0.000000 
#    y 0.000000 1.859630 0.000000 
#    z 0.000000 0.000000 1.854750 
# 
# From -- ./inp_files/32901.got.cif
#   From: 2010.03.12/outbox.cif.g09.slc.cpg/sg73_17_cif.got.tgz:32901.got - 2010.04.16 15:25:48.
