data_PCOD8296424
_publ_section_title
;
Structure prediction by ZEFSAII (Michael W. Deem and Ramdas Pophale) SiO2 
 PCOD8296424
Probable space group: I B C A 
;
_chemical_formula_sum "Si O2"
_cell_formula_units_Z 88
_cell_length_a 13.213567
_cell_length_b 10.535660
_cell_length_c 31.121083
_cell_angle_alpha 90.000000
_cell_angle_beta 90.000000
_cell_angle_gamma 90.000000
_cell_volume 4332.479535
_symmetry_space_group_name_H-M "I B C A "
_symmetry_group_IT_number 73
_symmetry_cell_setting 'orthorhombic'
loop_
_space_group_symop_operation_xyz
x,y,z
-x,1/2-y,z
x,-y,1/2-z
1/2-x,y,-z
-x,-y,-z
x,1/2+y,-z
-x,y,1/2+z
1/2+x,-y,z
1/2+x,1/2+y,1/2+z
1/2-x,-y,1/2+z
1/2+x,1/2-y,-z
-x,1/2+y,1/2-z
1/2-x,1/2-y,1/2-z
1/2+x,y,1/2-z
1/2-x,1/2+y,z
x,1/2-y,1/2+z
loop_
_atom_site_type_symbol
_atom_site_label
_atom_site_fract_x
_atom_site_fract_y
_atom_site_fract_z
Si Si1 0.500000 0.250000 0.915992
Si Si2 0.205856 0.693230 0.953552
Si Si3 0.778298 0.058950 0.906763
Si Si4 0.254421 0.372490 0.221629
Si Si5 0.104497 0.071033 0.652429
Si Si6 0.059480 0.877717 0.157740
O O1 0.584507 0.301128 0.949038
O O2 0.453333 0.351433 0.883898
O O3 0.232124 0.546826 0.943561
O O4 0.252883 0.798377 0.921919
O O5 0.250000 0.725545 0.000000
O O6 0.700324 0.006109 0.870969
O O7 0.889589 0.067302 0.885829
O O8 0.250089 0.500000 0.250000
O O9 0.250000 0.250000 0.250000
O O10 0.154777 0.353568 0.191913
O O11 0.357961 0.364849 0.194863
O O12 0.026814 0.973538 0.673598
O O13 0.000000 0.750000 0.146743
#
# Coordination Sequence:
#
# PCOD8296424 Si02
#       6
#     8  16  16  16  16  16
#     4  10  22  42  68  90 126 178 222 248 328 408
#     4  11  22  42  64  98 133 165 208 276 332 375
#     4  10  22  41  66  94 130 169 219 267 318 398
#     4  11  26  42  61  97 136 164 214 282 330 374
#     4  10  22  41  66  89 124 173 221 256 321 392
#     4  11  22  40  68  92 124 177 220 261 323 394
#
# _framework density 20.311693999999999
#
# number of rings (size 3 to 8) (size 9 to 14) (size 15 to 20)
#    0.000    1.455    1.818    2.727    2.545    5.091 
#    4.909    2.727    0.000    0.000    0.000    0.000 
#    0.000    0.000    0.000    0.000    0.000    0.000 
#
# Total GULP energy -545236.072385 kJ/mol
# GULP energy per Si atom -12391.728918 kJ/mol
# Density = 2.026546 g / cm^3
# Si number density = 20.311694 Si / 1000 Ang^3
#
#
#
# Elastic Constant Matrix: (Units=GPa)
#
#
# Indices 1 2 3 4 5 6 
#
# 1 147.5425 53.1822 59.0412 0.0000 0.0000 0.0000
# 2 53.1822 113.6936 39.7031 0.0000 0.0000 0.0000
# 3 59.0412 39.7031 105.6678 0.0000 0.0000 0.0000
# 4 0.0000 0.0000 0.0000 30.1845 0.0000 0.0000
# 5 0.0000 0.0000 0.0000 0.0000 37.0608 0.0000
# 6 0.0000 0.0000 0.0000 0.0000 0.0000 23.9804
#
#
#
# Elastic Compliance Matrix: (Units=1/GPa)
#
#
# Indices 1 2 3 4 5 6 
#
# 1 0.009540 -0.002994 -0.004205 0.000000 0.000000 0.000000
# 2 -0.002994 0.011063 -0.002484 0.000000 0.000000 0.000000
# 3 -0.004205 -0.002484 0.012747 0.000000 0.000000 0.000000
# 4 0.000000 0.000000 0.000000 0.033130 0.000000 0.000000
# 5 0.000000 0.000000 0.000000 0.000000 0.026983 0.000000
# 6 0.000000 0.000000 0.000000 0.000000 0.000000 0.041701
#
#
# Mechanical properties :
#
#
# Convention : Reuss Voigt Hill
#
# Bulk Modulus (GPa) = 71.51424 74.52852 73.02138
# Shear Modulus (GPa) = 31.40891 32.57698 31.99294
#
# Velocity S-wave (km/s) = 3.93663 4.00916 3.97306
# Velocity P-wave (km/s) = 7.47981 7.62910 7.55482
#
# Compressibility (1/GPa) = 0.01398323
#
# Stress axis : x y z
#
# Youngs Moduli (GPa) = 104.82556 90.38764 78.45156
#
# Poissons Ratio (x) = 0.27060 0.32992
# Poissons Ratio (y) = 0.31383 0.19489
# Poissons Ratio (z) = 0.44083 0.22454
#
# Static dielectric constant tensor:
#      x y z
#    x 6.761570 0.000000 0.000000 
#    y 0.000000 3.515810 0.000000 
#    z 0.000000 0.000000 3.573200 
# 
# 
# High freq. dielectric constant tensor:
#      x y z
#    x 1.814380 0.000000 0.000000 
#    y 0.000000 1.795700 0.000000 
#    z 0.000000 0.000000 1.785600 
# 
# From -- ./inp_files/9851.got.cif
#   From: 2010.03.12/outbox.cif.g09.slc.cpg/sg73_5_cif.got.tgz:9851.got - 2010.04.16 15:25:48.
