data_PCOD8296174
_publ_section_title
;
Structure prediction by ZEFSAII (Michael W. Deem and Ramdas Pophale) SiO2 
 PCOD8296174
Probable space group: I B C A 
;
_chemical_formula_sum "Si O2"
_cell_formula_units_Z 96
_cell_length_a 21.789677
_cell_length_b 18.262048
_cell_length_c 11.951293
_cell_angle_alpha 90.000000
_cell_angle_beta 90.000000
_cell_angle_gamma 90.000000
_cell_volume 4755.707837
_symmetry_space_group_name_H-M "I B C A "
_symmetry_group_IT_number 73
_symmetry_cell_setting 'orthorhombic'
loop_
_space_group_symop_operation_xyz
x,y,z
-x,1/2-y,z
x,-y,1/2-z
1/2-x,y,-z
-x,-y,-z
x,1/2+y,-z
-x,y,1/2+z
1/2+x,-y,z
1/2+x,1/2+y,1/2+z
1/2-x,-y,1/2+z
1/2+x,1/2-y,-z
-x,1/2+y,1/2-z
1/2-x,1/2-y,1/2-z
1/2+x,y,1/2-z
1/2-x,1/2+y,z
x,1/2-y,1/2+z
loop_
_atom_site_type_symbol
_atom_site_label
_atom_site_fract_x
_atom_site_fract_y
_atom_site_fract_z
Si Si1 0.374607 0.000000 0.250000
Si Si2 0.144272 0.614360 0.644951
Si Si3 0.317443 0.229903 0.481600
Si Si4 0.750000 0.464895 0.000000
Si Si5 0.215213 0.912765 0.850153
Si Si6 0.142952 0.120993 0.102766
Si Si7 0.072108 0.999416 0.989609
O O1 0.326713 0.930121 0.258542
O O2 0.416067 0.011705 0.358077
O O3 0.150631 0.695909 0.592329
O O4 0.212281 0.582055 0.665074
O O5 0.118011 0.618059 0.770067
O O6 0.101800 0.563578 0.567928
O O7 0.250000 0.264035 0.500000
O O8 0.308140 0.163911 0.395204
O O9 0.359181 0.293879 0.432567
O O10 0.799024 0.519600 0.937520
O O11 0.710745 0.414446 0.914619
O O12 0.094410 0.079331 0.026416
O O13 0.000000 0.000000 0.000000
#
# Coordination Sequence:
#
# PCOD8296174 Si02
#       7
#     8  16  16   8  16  16  16
#     4  12  22  40  72  96 130 170 226 288 332 408
#     4  11  23  42  67  94 143 171 212 285 341 401
#     4  10  21  39  60 103 145 169 209 273 361 414
#     4  12  18  38  60 106 132 172 224 268 348 408
#     4  11  19  37  66 100 135 169 203 284 351 398
#     4  12  24  39  67  99 131 177 228 273 334 415
#     4  12  28  45  67  97 132 183 240 272 328 397
#
# _framework density 20.18627
#
# number of rings (size 3 to 8) (size 9 to 14) (size 15 to 20)
#    0.000    0.667    8.333    1.500    2.333    4.000 
#    0.000    0.833    0.000    2.000    0.000    0.000 
#    0.000    0.000    0.000    0.000    0.000    0.000 
#
# Total GULP energy -594791.343660 kJ/mol
# GULP energy per Si atom -12391.486326 kJ/mol
# Density = 2.014032 g / cm^3
# Si number density = 20.186270 Si / 1000 Ang^3
#
#
#
# Elastic Constant Matrix: (Units=GPa)
#
#
# Indices 1 2 3 4 5 6 
#
# 1 115.2460 45.3273 51.2131 0.0000 0.0000 0.0000
# 2 45.3273 127.1102 53.4356 0.0000 0.0000 0.0000
# 3 51.2131 53.4356 124.4483 0.0000 0.0000 0.0000
# 4 0.0000 0.0000 0.0000 21.7425 0.0000 0.0000
# 5 0.0000 0.0000 0.0000 0.0000 20.4599 0.0000
# 6 0.0000 0.0000 0.0000 0.0000 0.0000 17.3990
#
#
#
# Elastic Compliance Matrix: (Units=1/GPa)
#
#
# Indices 1 2 3 4 5 6 
#
# 1 0.011243 -0.002519 -0.003545 0.000000 0.000000 0.000000
# 2 -0.002519 0.010164 -0.003328 0.000000 0.000000 0.000000
# 3 -0.003545 -0.003328 0.010923 0.000000 0.000000 0.000000
# 4 0.000000 0.000000 0.000000 0.045993 0.000000 0.000000
# 5 0.000000 0.000000 0.000000 0.000000 0.048876 0.000000
# 6 0.000000 0.000000 0.000000 0.000000 0.000000 0.057475
#
#
# Mechanical properties :
#
#
# Convention : Reuss Voigt Hill
#
# Bulk Modulus (GPa) = 73.81718 74.08405 73.95062
# Shear Modulus (GPa) = 24.04144 26.37551 25.20848
#
# Velocity S-wave (km/s) = 3.45480 3.61862 3.53766
# Velocity P-wave (km/s) = 7.24994 7.36472 7.30756
#
# Compressibility (1/GPa) = 0.01354698
#
# Stress axis : x y z
#
# Youngs Moduli (GPa) = 88.94227 98.38248 91.54740
#
# Poissons Ratio (x) = 0.24782 0.32456
# Poissons Ratio (y) = 0.22404 0.30465
# Poissons Ratio (z) = 0.31532 0.32740
#
# Static dielectric constant tensor:
#      x y z
#    x 3.523740 0.000000 0.000000 
#    y 0.000000 3.643570 0.000000 
#    z 0.000000 0.000000 3.910790 
# 
# 
# High freq. dielectric constant tensor:
#      x y z
#    x 1.752480 0.000000 0.000000 
#    y 0.000000 1.785500 0.000000 
#    z 0.000000 0.000000 1.798070 
# 
# From -- ./inp_files/13672.got.cif
#   From: 2010.03.12/outbox.cif.g09.slc.cpg/sg73_7_cif.got.tgz:13672.got - 2010.04.16 15:25:48.
