data_PCOD8296311
_publ_section_title
;
Structure prediction by ZEFSAII (Michael W. Deem and Ramdas Pophale) SiO2 
 PCOD8296311
Probable space group: I B C A 
;
_chemical_formula_sum "Si O2"
_cell_formula_units_Z 64
_cell_length_a 8.494790
_cell_length_b 26.126805
_cell_length_c 12.557316
_cell_angle_alpha 90.000000
_cell_angle_beta 90.000000
_cell_angle_gamma 90.000000
_cell_volume 2786.992335
_symmetry_space_group_name_H-M "I B C A "
_symmetry_group_IT_number 73
_symmetry_cell_setting 'orthorhombic'
loop_
_space_group_symop_operation_xyz
x,y,z
-x,1/2-y,z
x,-y,1/2-z
1/2-x,y,-z
-x,-y,-z
x,1/2+y,-z
-x,y,1/2+z
1/2+x,-y,z
1/2+x,1/2+y,1/2+z
1/2-x,-y,1/2+z
1/2+x,1/2-y,-z
-x,1/2+y,1/2-z
1/2-x,1/2-y,1/2-z
1/2+x,y,1/2-z
1/2-x,1/2+y,z
x,1/2-y,1/2+z
loop_
_atom_site_type_symbol
_atom_site_label
_atom_site_fract_x
_atom_site_fract_y
_atom_site_fract_z
Si Si1 0.949182 0.803083 0.866627
Si Si2 0.000000 0.250000 0.433336
Si Si3 0.443597 0.000000 0.250000
Si Si4 0.285665 0.666478 0.326318
Si Si5 0.695261 0.944370 0.381395
O O1 0.104450 0.838253 0.859187
O O2 0.000000 0.750000 0.807525
O O3 0.806790 0.830327 0.802727
O O4 0.906375 0.790553 0.989711
O O5 0.130531 0.218003 0.369587
O O6 0.546612 0.978630 0.347871
O O7 0.337133 0.954665 0.201389
O O8 0.360990 0.614735 0.372705
O O9 0.750000 0.958790 0.500000
#
# Coordination Sequence:
#
# PCOD8296311 Si02
#       5
#    16   8   8  16  16
#     4  10  23  35  57  81 127 164 202 243 298 345
#     4  10  22  34  60  82 130 162 208 242 296 352
#     4  10  24  46  66  98 124 162 202 286 322 378
#     4  12  22  40  59  92 121 169 205 253 298 378
#     4  11  23  42  72  93 128 161 217 257 332 377
#
# _framework density 22.963825
#
# number of rings (size 3 to 8) (size 9 to 14) (size 15 to 20)
#    0.750    0.500    1.250    5.250    0.000    0.000 
#    0.000    0.000    0.000    0.000    0.000    0.000 
#    0.000    0.000    0.000    0.000    0.000    0.000 
#
# Total GULP energy -396487.208562 kJ/mol
# GULP energy per Si atom -12390.225268 kJ/mol
# Density = 2.291156 g / cm^3
# Si number density = 22.963825 Si / 1000 Ang^3
#
#
#
# Elastic Constant Matrix: (Units=GPa)
#
#
# Indices 1 2 3 4 5 6 
#
# 1 67.2599 21.0909 17.3431 -0.0001 0.0001 0.0000
# 2 21.0909 79.4835 17.8575 0.0000 0.0001 0.0000
# 3 17.3431 17.8575 109.5816 0.0000 0.0003 0.0000
# 4 -0.0001 0.0000 0.0000 27.4190 0.0001 0.0000
# 5 0.0001 0.0001 0.0003 0.0001 29.3653 0.0000
# 6 0.0000 0.0000 0.0000 0.0000 0.0000 28.2648
#
#
#
# Elastic Compliance Matrix: (Units=1/GPa)
#
#
# Indices 1 2 3 4 5 6 
#
# 1 0.016623 -0.003965 -0.001985 0.000000 0.000000 0.000000
# 2 -0.003965 0.014005 -0.001655 0.000000 0.000000 0.000000
# 3 -0.001985 -0.001655 0.009709 0.000000 0.000000 0.000000
# 4 0.000000 0.000000 0.000000 0.036471 0.000000 0.000000
# 5 0.000000 0.000000 0.000000 0.000000 0.034054 0.000000
# 6 0.000000 0.000000 0.000000 0.000000 0.000000 0.035380
#
#
# Mechanical properties :
#
#
# Convention : Reuss Voigt Hill
#
# Bulk Modulus (GPa) = 39.79552 40.98977 40.39264
# Shear Modulus (GPa) = 29.44177 30.34538 29.89357
#
# Velocity S-wave (km/s) = 3.58452 3.63911 3.61192
# Velocity P-wave (km/s) = 5.87358 5.96204 5.91798
#
# Compressibility (1/GPa) = 0.02512846
#
# Stress axis : x y z
#
# Youngs Moduli (GPa) = 60.15850 71.40265 102.99302
#
# Poissons Ratio (x) = 0.28311 0.20441
# Poissons Ratio (y) = 0.23852 0.17043
# Poissons Ratio (z) = 0.11940 0.11815
#
# Static dielectric constant tensor:
#      x y z
#    x 3.913010 0.000000 0.000000 
#    y 0.000000 3.867350 0.000000 
#    z 0.000000 0.000000 4.121330 
# 
# 
# High freq. dielectric constant tensor:
#      x y z
#    x 1.895160 0.000000 0.000000 
#    y 0.000000 1.886690 0.000000 
#    z 0.000000 0.000000 1.912480 
# 
# From -- ./inp_files/8242.got.cif
#   From: 2010.03.12/outbox.cif.g09.slc.cpg/sg73_5_cif.got.tgz:8242.got - 2010.04.16 15:25:48.
