data_PCOD8296136
_publ_section_title
;
Structure prediction by ZEFSAII (Michael W. Deem and Ramdas Pophale) SiO2 
 PCOD8296136
Probable space group: I B C A 
;
_chemical_formula_sum "Si O2"
_cell_formula_units_Z 88
_cell_length_a 13.446321
_cell_length_b 17.321032
_cell_length_c 14.895602
_cell_angle_alpha 90.000000
_cell_angle_beta 90.000000
_cell_angle_gamma 90.000000
_cell_volume 3469.247617
_symmetry_space_group_name_H-M "I B C A "
_symmetry_group_IT_number 73
_symmetry_cell_setting 'orthorhombic'
loop_
_space_group_symop_operation_xyz
x,y,z
-x,1/2-y,z
x,-y,1/2-z
1/2-x,y,-z
-x,-y,-z
x,1/2+y,-z
-x,y,1/2+z
1/2+x,-y,z
1/2+x,1/2+y,1/2+z
1/2-x,-y,1/2+z
1/2+x,1/2-y,-z
-x,1/2+y,1/2-z
1/2-x,1/2-y,1/2-z
1/2+x,y,1/2-z
1/2-x,1/2+y,z
x,1/2-y,1/2+z
loop_
_atom_site_type_symbol
_atom_site_label
_atom_site_fract_x
_atom_site_fract_y
_atom_site_fract_z
Si Si1 0.750000 0.502867 0.000000
Si Si2 0.475697 0.875544 0.780699
Si Si3 0.882117 0.400872 0.099469
Si Si4 0.142612 0.249700 0.995054
Si Si5 0.055523 0.590300 0.523603
Si Si6 0.351880 0.223849 0.201618
O O1 0.721888 0.446473 0.915482
O O2 0.655725 0.556661 0.019773
O O3 0.423359 0.918308 0.698226
O O4 0.461488 0.927536 0.870341
O O5 0.590482 0.850520 0.754880
O O6 0.418823 0.797956 0.799714
O O7 0.872408 0.309207 0.079037
O O8 0.959605 0.441304 0.029986
O O9 0.057630 0.315988 0.993971
O O10 0.153264 0.199569 0.903345
O O11 0.250000 0.292278 0.000000
O O12 0.250000 0.250000 0.250000
#
# Coordination Sequence:
#
# PCOD8296136 Si02
#       6
#     8  16  16  16  16  16
#     4  12  28  48  68  96 138 194 248 296 364 458
#     4  10  24  41  68 105 146 184 237 305 367 443
#     4  12  25  44  74 103 139 191 246 306 374 452
#     4  11  21  40  72 106 140 184 239 302 369 442
#     4  11  25  48  68 100 146 190 238 305 381 446
#     4  10  21  37  62 109 149 175 228 294 372 437
#
# _framework density 25.365729999999999
#
# number of rings (size 3 to 8) (size 9 to 14) (size 15 to 20)
#    0.000    1.091    3.636    2.182    7.636    0.727 
#    0.000    1.818    0.000    0.000    0.000    0.000 
#    0.000    0.000    0.000    0.000    0.000    0.000 
#
# Total GULP energy -545154.529058 kJ/mol
# GULP energy per Si atom -12389.875660 kJ/mol
# Density = 2.530800 g / cm^3
# Si number density = 25.365730 Si / 1000 Ang^3
#
#
#
# Elastic Constant Matrix: (Units=GPa)
#
#
# Indices 1 2 3 4 5 6 
#
# 1 134.2841 28.9144 49.3948 0.0000 0.0000 0.0000
# 2 28.9144 67.9581 31.4407 0.0000 0.0000 0.0000
# 3 49.3948 31.4407 163.1036 0.0001 0.0000 0.0000
# 4 0.0000 0.0000 0.0001 20.0472 0.0000 0.0000
# 5 0.0000 0.0000 0.0000 0.0000 40.8575 0.0000
# 6 0.0000 0.0000 0.0000 0.0000 0.0000 52.0492
#
#
#
# Elastic Compliance Matrix: (Units=1/GPa)
#
#
# Indices 1 2 3 4 5 6 
#
# 1 0.008830 -0.002767 -0.002141 0.000000 0.000000 0.000000
# 2 -0.002767 0.017023 -0.002444 0.000000 0.000000 0.000000
# 3 -0.002141 -0.002444 0.007250 0.000000 0.000000 0.000000
# 4 0.000000 0.000000 0.000000 0.049882 0.000000 0.000000
# 5 0.000000 0.000000 0.000000 0.000000 0.024475 0.000000
# 6 0.000000 0.000000 0.000000 0.000000 0.000000 0.019213
#
#
# Mechanical properties :
#
#
# Convention : Reuss Voigt Hill
#
# Bulk Modulus (GPa) = 54.34407 64.98285 59.66346
# Shear Modulus (GPa) = 33.89632 39.63051 36.76341
#
# Velocity S-wave (km/s) = 3.65951 3.95696 3.81114
# Velocity P-wave (km/s) = 6.27111 6.82281 6.55277
#
# Compressibility (1/GPa) = 0.01840127
#
# Stress axis : x y z
#
# Youngs Moduli (GPa) = 113.24936 58.74573 137.92264
#
# Poissons Ratio (x) = 0.16252 0.29527
# Poissons Ratio (y) = 0.31330 0.33702
# Poissons Ratio (z) = 0.24245 0.14355
#
# Static dielectric constant tensor:
#      x y z
#    x 4.612940 0.000000 0.000000 
#    y 0.000000 4.383350 0.000000 
#    z 0.000000 0.000000 4.826750 
# 
# 
# High freq. dielectric constant tensor:
#      x y z
#    x 2.029320 0.000000 0.000000 
#    y 0.000000 2.013530 0.000000 
#    z 0.000000 0.000000 1.991470 
# 
# From -- ./inp_files/16933.got.cif
#   From: 2010.03.12/outbox.cif.g09.slc.cpg/sg73_9_cif.got.tgz:16933.got - 2010.04.16 15:25:48.
