data_PCOD8296495
_publ_section_title
;
Structure prediction by ZEFSAII (Michael W. Deem and Ramdas Pophale) SiO2 
 PCOD8296495
Probable space group: I B C A 
;
_chemical_formula_sum "Si O2"
_cell_formula_units_Z 88
_cell_length_a 19.800500
_cell_length_b 12.463565
_cell_length_c 16.611621
_cell_angle_alpha 90.000000
_cell_angle_beta 90.000000
_cell_angle_gamma 90.000000
_cell_volume 4099.495878
_symmetry_space_group_name_H-M "I B C A "
_symmetry_group_IT_number 73
_symmetry_cell_setting 'orthorhombic'
loop_
_space_group_symop_operation_xyz
x,y,z
-x,1/2-y,z
x,-y,1/2-z
1/2-x,y,-z
-x,-y,-z
x,1/2+y,-z
-x,y,1/2+z
1/2+x,-y,z
1/2+x,1/2+y,1/2+z
1/2-x,-y,1/2+z
1/2+x,1/2-y,-z
-x,1/2+y,1/2-z
1/2-x,1/2-y,1/2-z
1/2+x,y,1/2-z
1/2-x,1/2+y,z
x,1/2-y,1/2+z
loop_
_atom_site_type_symbol
_atom_site_label
_atom_site_fract_x
_atom_site_fract_y
_atom_site_fract_z
Si Si1 0.651259 0.543686 0.657570
Si Si2 0.410333 0.113072 0.259415
Si Si3 0.000000 0.750000 0.146641
Si Si4 0.578163 0.249090 0.410070
Si Si5 0.128878 0.174945 0.426761
Si Si6 0.781341 0.674433 0.683316
O O1 0.638849 0.500000 0.750000
O O2 0.596249 0.634456 0.632142
O O3 0.650449 0.447389 0.592310
O O4 0.724033 0.598586 0.646405
O O5 0.448245 0.192139 0.202655
O O6 0.410754 0.153879 0.349392
O O7 0.334488 0.097946 0.227244
O O8 0.447968 0.000000 0.250000
O O9 0.048999 0.824413 0.094642
O O10 0.500000 0.250000 0.437759
O O11 0.629493 0.282963 0.481303
O O12 0.180891 0.254030 0.383098
O O13 0.750000 0.750000 0.750000
#
# Coordination Sequence:
#
# PCOD8296495 Si02
#       6
#    16  16   8  16  16  16
#     4  12  25  47  80 103 142 209 250 301 372 447
#     4  11  24  40  72 101 140 186 248 304 360 435
#     4  10  22  44  66 102 136 198 250 298 352 454
#     4  12  27  46  69 115 153 187 248 314 372 450
#     4  11  26  45  74 105 151 189 242 312 381 429
#     4  11  22  47  70 105 138 188 255 295 347 455
#
# _framework density 21.466054
#
# number of rings (size 3 to 8) (size 9 to 14) (size 15 to 20)
#    0.000    0.727    5.455    1.636    2.545    4.364 
#    0.000    3.636    0.000    0.000    0.000    0.000 
#    0.000    0.000    0.000    0.000    0.000    0.000 
#
# Total GULP energy -545173.233051 kJ/mol
# GULP energy per Si atom -12390.300751 kJ/mol
# Density = 2.141720 g / cm^3
# Si number density = 21.466054 Si / 1000 Ang^3
#
#
#
# Elastic Constant Matrix: (Units=GPa)
#
#
# Indices 1 2 3 4 5 6 
#
# 1 118.9974 40.4327 32.9919 0.0000 0.0000 0.0000
# 2 40.4327 134.6121 71.0376 0.0000 0.0000 0.0000
# 3 32.9919 71.0376 127.7422 0.0000 0.0000 0.0000
# 4 0.0000 0.0000 0.0000 40.4119 0.0000 0.0000
# 5 0.0000 0.0000 0.0000 0.0000 16.9086 0.0000
# 6 0.0000 0.0000 0.0000 0.0000 0.0000 10.2788
#
#
#
# Elastic Compliance Matrix: (Units=1/GPa)
#
#
# Indices 1 2 3 4 5 6 
#
# 1 0.009492 -0.002204 -0.001226 0.000000 0.000000 0.000000
# 2 -0.002204 0.011026 -0.005562 0.000000 0.000000 0.000000
# 3 -0.001226 -0.005562 0.011238 0.000000 0.000000 0.000000
# 4 0.000000 0.000000 0.000000 0.024745 0.000000 0.000000
# 5 0.000000 0.000000 0.000000 0.000000 0.059141 0.000000
# 6 0.000000 0.000000 0.000000 0.000000 0.000000 0.097288
#
#
# Mechanical properties :
#
#
# Convention : Reuss Voigt Hill
#
# Bulk Modulus (GPa) = 72.61239 74.47512 73.54376
# Shear Modulus (GPa) = 21.23079 29.31248 25.27164
#
# Velocity S-wave (km/s) = 3.14831 3.69931 3.43488
# Velocity P-wave (km/s) = 6.86410 7.28123 7.07574
#
# Compressibility (1/GPa) = 0.01377175
#
# Stress axis : x y z
#
# Youngs Moduli (GPa) = 105.34787 90.69271 88.98293
#
# Poissons Ratio (x) = 0.19991 0.10907
# Poissons Ratio (y) = 0.23222 0.49496
# Poissons Ratio (z) = 0.12913 0.50447
#
# Static dielectric constant tensor:
#      x y z
#    x 4.441500 0.000000 0.000000 
#    y 0.000000 4.036570 0.000000 
#    z 0.000000 0.000000 3.954210 
# 
# 
# High freq. dielectric constant tensor:
#      x y z
#    x 1.859070 0.000000 0.000000 
#    y 0.000000 1.847650 0.000000 
#    z 0.000000 0.000000 1.839840 
# 
# From -- ./inp_files/11905.got.cif
#   From: 2010.03.12/outbox.cif.g09.slc.cpg/sg73_6_cif.got.tgz:11905.got - 2010.04.16 15:25:48.
