data_PCOD8296444
_publ_section_title
;
Structure prediction by ZEFSAII (Michael W. Deem and Ramdas Pophale) SiO2 
 PCOD8296444
Probable space group: I B C A 
;
_chemical_formula_sum "Si O2"
_cell_formula_units_Z 112
_cell_length_a 21.043420
_cell_length_b 20.182725
_cell_length_c 12.260303
_cell_angle_alpha 90.000000
_cell_angle_beta 90.000000
_cell_angle_gamma 90.000000
_cell_volume 5207.116921
_symmetry_space_group_name_H-M "I B C A "
_symmetry_group_IT_number 73
_symmetry_cell_setting 'orthorhombic'
loop_
_space_group_symop_operation_xyz
x,y,z
-x,1/2-y,z
x,-y,1/2-z
1/2-x,y,-z
-x,-y,-z
x,1/2+y,-z
-x,y,1/2+z
1/2+x,-y,z
1/2+x,1/2+y,1/2+z
1/2-x,-y,1/2+z
1/2+x,1/2-y,-z
-x,1/2+y,1/2-z
1/2-x,1/2-y,1/2-z
1/2+x,y,1/2-z
1/2-x,1/2+y,z
x,1/2-y,1/2+z
loop_
_atom_site_type_symbol
_atom_site_label
_atom_site_fract_x
_atom_site_fract_y
_atom_site_fract_z
Si Si1 0.453747 0.334193 0.677717
Si Si2 0.195637 0.598443 0.709303
Si Si3 0.460626 0.433355 0.502717
Si Si4 0.667949 0.525952 0.581253
Si Si5 0.402712 0.199533 0.628088
Si Si6 0.075407 0.365598 0.087229
Si Si7 0.819104 0.462333 0.637599
O O1 0.441028 0.406357 0.623235
O O2 0.408418 0.279067 0.621487
O O3 0.529665 0.323530 0.677314
O O4 0.426610 0.328943 0.798799
O O5 0.155266 0.543818 0.642574
O O6 0.205979 0.575183 0.836019
O O7 0.157171 0.668384 0.697362
O O8 0.266050 0.595940 0.653000
O O9 0.500000 0.500000 0.500000
O O10 0.399408 0.439414 0.429168
O O11 0.503143 0.376452 0.449047
O O12 0.700537 0.512884 0.461260
O O13 0.390226 0.178578 0.503433
O O14 0.113201 0.434489 0.099708
O O15 0.827152 0.500000 0.750000
#
# Coordination Sequence:
#
# PCOD8296444 Si02
#       7
#    16  16  16  16  16  16  16
#     4  10  23  40  61  93 121 166 212 262 330 391
#     4  11  23  38  62  90 121 172 218 264 322 404
#     4  11  21  38  61  99 133 157 208 270 343 404
#     4  11  21  38  61  92 130 164 211 274 338 398
#     4  10  22  42  63  86 124 171 221 257 322 398
#     4  11  23  38  64  91 130 167 208 277 327 393
#     4  12  23  39  61  94 131 169 216 272 344 402
#
# _framework density 21.509022999999999
#
# number of rings (size 3 to 8) (size 9 to 14) (size 15 to 20)
#    0.000    1.143    4.286    3.000    0.000    6.857 
#    0.000    0.714    0.000    1.714    0.000    0.000 
#    0.000    0.000    0.000    0.000    0.000    0.000 
#
# Total GULP energy -693731.560082 kJ/mol
# GULP energy per Si atom -12388.063573 kJ/mol
# Density = 2.146007 g / cm^3
# Si number density = 21.509023 Si / 1000 Ang^3
#
#
#
# Elastic Constant Matrix: (Units=GPa)
#
#
# Indices 1 2 3 4 5 6 
#
# 1 72.9901 0.4664 25.3932 0.0000 0.0000 0.0000
# 2 0.4664 71.7809 38.9077 0.0000 0.0000 0.0000
# 3 25.3932 38.9077 154.1265 0.0000 0.0000 0.0000
# 4 0.0000 0.0000 0.0000 27.3307 0.0000 0.0000
# 5 0.0000 0.0000 0.0000 0.0000 30.9415 0.0000
# 6 0.0000 0.0000 0.0000 0.0000 0.0000 34.7883
#
#
#
# Elastic Compliance Matrix: (Units=1/GPa)
#
#
# Indices 1 2 3 4 5 6 
#
# 1 0.014655 0.001406 -0.002769 0.000000 0.000000 0.000000
# 2 0.001406 0.016275 -0.004340 0.000000 0.000000 0.000000
# 3 -0.002769 -0.004340 0.008040 0.000000 0.000000 0.000000
# 4 0.000000 0.000000 0.000000 0.036589 0.000000 0.000000
# 5 0.000000 0.000000 0.000000 0.000000 0.032319 0.000000
# 6 0.000000 0.000000 0.000000 0.000000 0.000000 0.028745
#
#
# Mechanical properties :
#
#
# Convention : Reuss Voigt Hill
#
# Bulk Modulus (GPa) = 36.28105 47.60356 41.94231
# Shear Modulus (GPa) = 31.80309 34.22076 33.01193
#
# Velocity S-wave (km/s) = 3.84942 3.99306 3.92190
# Velocity P-wave (km/s) = 6.05490 6.59085 6.32855
#
# Compressibility (1/GPa) = 0.02756260
#
# Stress axis : x y z
#
# Youngs Moduli (GPa) = 68.23620 61.44554 124.37752
#
# Poissons Ratio (x) = -0.08638 0.34445
# Poissons Ratio (y) = -0.09593 0.53980
# Poissons Ratio (z) = 0.18897 0.26667
#
# Static dielectric constant tensor:
#      x y z
#    x 4.257150 0.000000 0.000000 
#    y 0.000000 1.580780 0.000000 
#    z 0.000000 0.000000 4.122140 
# 
# 
# High freq. dielectric constant tensor:
#      x y z
#    x 1.843310 0.000000 0.000000 
#    y 0.000000 1.807910 0.000000 
#    z 0.000000 0.000000 1.860170 
# 
# From -- ./inp_files/13790.got.cif
#   From: 2010.03.12/outbox.cif.g09.slc.cpg/sg73_7_cif.got.tgz:13790.got - 2010.04.16 15:25:48.
