data_PCOD8296505
_publ_section_title
;
Structure prediction by ZEFSAII (Michael W. Deem and Ramdas Pophale) SiO2 
 PCOD8296505
Probable space group: I B C A 
;
_chemical_formula_sum "Si O2"
_cell_formula_units_Z 120
_cell_length_a 28.573584
_cell_length_b 13.086387
_cell_length_c 15.419238
_cell_angle_alpha 90.000000
_cell_angle_beta 90.000000
_cell_angle_gamma 90.000000
_cell_volume 5765.638233
_symmetry_space_group_name_H-M "I B C A "
_symmetry_group_IT_number 73
_symmetry_cell_setting 'orthorhombic'
loop_
_space_group_symop_operation_xyz
x,y,z
-x,1/2-y,z
x,-y,1/2-z
1/2-x,y,-z
-x,-y,-z
x,1/2+y,-z
-x,y,1/2+z
1/2+x,-y,z
1/2+x,1/2+y,1/2+z
1/2-x,-y,1/2+z
1/2+x,1/2-y,-z
-x,1/2+y,1/2-z
1/2-x,1/2-y,1/2-z
1/2+x,y,1/2-z
1/2-x,1/2+y,z
x,1/2-y,1/2+z
loop_
_atom_site_type_symbol
_atom_site_label
_atom_site_fract_x
_atom_site_fract_y
_atom_site_fract_z
Si Si1 0.715482 0.182829 0.806947
Si Si2 0.041782 0.500000 0.250000
Si Si3 0.428924 0.249977 0.416540
Si Si4 0.384475 0.180173 0.246773
Si Si5 0.362017 0.767460 0.931730
Si Si6 0.504272 0.925322 0.081655
Si Si7 0.782010 0.935343 0.583577
Si Si8 0.701732 0.843028 0.047361
O O1 0.750000 0.250000 0.750000
O O2 0.669508 0.140750 0.756650
O O3 0.747063 0.087547 0.836943
O O4 0.696004 0.250718 0.885834
O O5 0.076949 0.406665 0.265371
O O6 0.006559 0.509797 0.331582
O O7 0.397449 0.247937 0.330055
O O8 0.402156 0.206320 0.500167
O O9 0.470128 0.169797 0.413038
O O10 0.445139 0.369073 0.423088
O O11 0.386118 0.248319 0.160485
O O12 0.325065 0.858438 0.922232
O O13 0.337097 0.666335 0.971568
O O14 0.500000 0.000000 0.000000
O O15 0.750000 0.927386 0.500000
O O16 0.803098 0.048522 0.595550
O O17 0.750000 0.830252 0.000000
#
# Coordination Sequence:
#
# PCOD8296505 Si02
#       8
#    16   8  16  16  16  16  16  16
#     4  12  21  40  59  88 134 174 222 271 321 380
#     4  10  24  42  66 100 128 162 224 266 328 406
#     4  10  23  41  66  95 132 163 208 274 330 395
#     4  11  23  39  64  95 130 173 217 270 325 392
#     4  12  21  41  62  90 128 167 217 266 327 394
#     4  10  22  44  69  97 126 166 209 265 338 406
#     4  11  22  37  60  85 122 174 221 272 322 370
#     4  11  22  38  59  87 124 173 220 272 320 376
#
# _framework density 20.81296
#
# number of rings (size 3 to 8) (size 9 to 14) (size 15 to 20)
#    0.000    1.067    5.333    0.800    0.000    8.000 
#    0.000    2.667    0.000    0.000    0.000    0.000 
#    0.000    0.000    0.000    0.000    0.000    0.000 
#
# Total GULP energy -743608.953316 kJ/mol
# GULP energy per Si atom -12393.482555 kJ/mol
# Density = 2.076559 g / cm^3
# Si number density = 20.812960 Si / 1000 Ang^3
#
#
#
# Elastic Constant Matrix: (Units=GPa)
#
#
# Indices 1 2 3 4 5 6 
#
# 1 68.0749 13.3264 25.4086 0.0000 0.0000 0.0000
# 2 13.3264 81.6832 22.1051 0.0000 0.0000 0.0000
# 3 25.4086 22.1051 120.0925 0.0000 0.0000 0.0000
# 4 0.0000 0.0000 0.0000 28.3978 0.0000 0.0000
# 5 0.0000 0.0000 0.0000 0.0000 32.3854 0.0000
# 6 0.0000 0.0000 0.0000 0.0000 0.0000 35.6610
#
#
#
# Elastic Compliance Matrix: (Units=1/GPa)
#
#
# Indices 1 2 3 4 5 6 
#
# 1 0.016198 -0.001805 -0.003095 0.000000 0.000000 0.000000
# 2 -0.001805 0.013085 -0.002027 0.000000 0.000000 0.000000
# 3 -0.003095 -0.002027 0.009355 0.000000 0.000000 0.000000
# 4 0.000000 0.000000 0.000000 0.035214 0.000000 0.000000
# 5 0.000000 0.000000 0.000000 0.000000 0.030878 0.000000
# 6 0.000000 0.000000 0.000000 0.000000 0.000000 0.028042
#
#
# Mechanical properties :
#
#
# Convention : Reuss Voigt Hill
#
# Bulk Modulus (GPa) = 40.34703 43.50342 41.92523
# Shear Modulus (GPa) = 32.28153 33.22288 32.75220
#
# Velocity S-wave (km/s) = 3.94258 3.99966 3.97122
# Velocity P-wave (km/s) = 6.33663 6.50209 6.41989
#
# Compressibility (1/GPa) = 0.02478497
#
# Stress axis : x y z
#
# Youngs Moduli (GPa) = 61.73514 76.42117 106.89750
#
# Poissons Ratio (x) = 0.13795 0.33083
# Poissons Ratio (y) = 0.11144 0.21664
# Poissons Ratio (z) = 0.19106 0.15488
#
# Static dielectric constant tensor:
#      x y z
#    x 4.012570 0.000000 0.000000 
#    y 0.000000 4.011810 0.000000 
#    z 0.000000 0.000000 4.015850 
# 
# 
# High freq. dielectric constant tensor:
#      x y z
#    x 1.823360 0.000000 0.000000 
#    y 0.000000 1.802280 0.000000 
#    z 0.000000 0.000000 1.824010 
# 
# From -- ./inp_files/20140.got.cif
#   From: 2010.03.12/outbox.cif.g09.slc.cpg/sg73_11_cif.got.tgz:20140.got - 2010.04.16 15:25:48.
