data_PCOD8296309
_publ_section_title
;
Structure prediction by ZEFSAII (Michael W. Deem and Ramdas Pophale) SiO2 
 PCOD8296309
Probable space group: I B C A 
;
_chemical_formula_sum "Si O2"
_cell_formula_units_Z 88
_cell_length_a 14.206117
_cell_length_b 15.004701
_cell_length_c 20.530991
_cell_angle_alpha 90.000000
_cell_angle_beta 90.000000
_cell_angle_gamma 90.000000
_cell_volume 4376.356024
_symmetry_space_group_name_H-M "I B C A "
_symmetry_group_IT_number 73
_symmetry_cell_setting 'orthorhombic'
loop_
_space_group_symop_operation_xyz
x,y,z
-x,1/2-y,z
x,-y,1/2-z
1/2-x,y,-z
-x,-y,-z
x,1/2+y,-z
-x,y,1/2+z
1/2+x,-y,z
1/2+x,1/2+y,1/2+z
1/2-x,-y,1/2+z
1/2+x,1/2-y,-z
-x,1/2+y,1/2-z
1/2-x,1/2-y,1/2-z
1/2+x,y,1/2-z
1/2-x,1/2+y,z
x,1/2-y,1/2+z
loop_
_atom_site_type_symbol
_atom_site_label
_atom_site_fract_x
_atom_site_fract_y
_atom_site_fract_z
Si Si1 0.476363 0.149859 0.472673
Si Si2 0.672986 0.675698 0.915320
Si Si3 0.128995 0.632788 0.069197
Si Si4 0.481285 0.157299 0.681616
Si Si5 0.077136 0.000000 0.750000
Si Si6 0.654376 0.553469 0.115942
O O1 0.500000 0.250000 0.449543
O O2 0.392016 0.142874 0.525423
O O3 0.575251 0.113349 0.501260
O O4 0.446668 0.087118 0.411975
O O5 0.697272 0.780581 0.929520
O O6 0.624985 0.655261 0.845393
O O7 0.771047 0.624635 0.909753
O O8 0.184589 0.543503 0.088284
O O9 0.048255 0.659790 0.119311
O O10 0.500000 0.250000 0.720665
O O11 0.504632 0.074476 0.726402
O O12 0.143842 0.958403 0.806109
#
# Coordination Sequence:
#
# PCOD8296309 Si02
#       6
#    16  16  16  16   8  16
#     4   9  18  35  58  81 109 144 180 225 287 352
#     4   9  18  35  57  79 104 139 187 237 284 330
#     4   8  17  35  56  76 105 145 179 216 282 348
#     4   8  16  35  55  68  97 145 183 220 274 335
#     4  10  22  34  50  80 114 148 192 226 268 342
#     4  11  20  34  54  83 114 144 184 237 276 324
#
# _framework density 20.108053000000002
#
# number of rings (size 3 to 8) (size 9 to 14) (size 15 to 20)
#    0.000    2.909    0.000    3.273    0.000    1.455 
#    0.000   22.727    0.000    0.000    0.000    0.000 
#    0.000    0.000    0.000    0.000    0.000    0.000 
#
# Total GULP energy -545160.632796 kJ/mol
# GULP energy per Si atom -12390.014382 kJ/mol
# Density = 2.006229 g / cm^3
# Si number density = 20.108053 Si / 1000 Ang^3
#
#
#
# Elastic Constant Matrix: (Units=GPa)
#
#
# Indices 1 2 3 4 5 6 
#
# 1 63.6178 51.0329 26.6074 0.0000 0.0000 0.0000
# 2 51.0329 127.2664 42.0122 0.0000 0.0000 0.0000
# 3 26.6074 42.0122 80.4252 0.0000 0.0000 0.0000
# 4 0.0000 0.0000 0.0000 24.6799 0.0000 0.0000
# 5 0.0000 0.0000 0.0000 0.0000 21.3129 0.0000
# 6 0.0000 0.0000 0.0000 0.0000 0.0000 34.9142
#
#
#
# Elastic Compliance Matrix: (Units=1/GPa)
#
#
# Indices 1 2 3 4 5 6 
#
# 1 0.023968 -0.008451 -0.003515 0.000000 0.000000 0.000000
# 2 -0.008451 0.012474 -0.003721 0.000000 0.000000 0.000000
# 3 -0.003515 -0.003721 0.015540 0.000000 0.000000 0.000000
# 4 0.000000 0.000000 0.000000 0.040519 0.000000 0.000000
# 5 0.000000 0.000000 0.000000 0.000000 0.046920 0.000000
# 6 0.000000 0.000000 0.000000 0.000000 0.000000 0.028642
#
#
# Mechanical properties :
#
#
# Convention : Reuss Voigt Hill
#
# Bulk Modulus (GPa) = 48.51958 56.73496 52.62727
# Shear Modulus (GPa) = 24.23591 26.29185 25.26388
#
# Velocity S-wave (km/s) = 3.47549 3.61990 3.54843
# Velocity P-wave (km/s) = 6.34722 6.76372 6.55877
#
# Compressibility (1/GPa) = 0.02061024
#
# Stress axis : x y z
#
# Youngs Moduli (GPa) = 41.72252 80.16438 64.34866
#
# Poissons Ratio (x) = 0.67744 0.22619
# Poissons Ratio (y) = 0.35258 0.23941
# Poissons Ratio (z) = 0.14665 0.29826
#
# Static dielectric constant tensor:
#      x y z
#    x 3.315860 0.000000 0.000000 
#    y 0.000000 4.009090 0.000000 
#    z 0.000000 0.000000 3.533410 
# 
# 
# High freq. dielectric constant tensor:
#      x y z
#    x 1.755150 0.000000 0.000000 
#    y 0.000000 1.803200 0.000000 
#    z 0.000000 0.000000 1.762420 
# 
# From -- ./inp_files/16975.got.cif
#   From: 2010.03.12/outbox.cif.g09.slc.cpg/sg73_9_cif.got.tgz:16975.got - 2010.04.16 15:25:48.
