data_PCOD8296741
_publ_section_title
;
Structure prediction by ZEFSAII (Michael W. Deem and Ramdas Pophale) SiO2 
 PCOD8296741
Probable space group: I B C A 
;
_chemical_formula_sum "Si O2"
_cell_formula_units_Z 64
_cell_length_a 9.380449
_cell_length_b 10.906387
_cell_length_c 26.133587
_cell_angle_alpha 90.000000
_cell_angle_beta 90.000000
_cell_angle_gamma 90.000000
_cell_volume 2673.643842
_symmetry_space_group_name_H-M "I B C A "
_symmetry_group_IT_number 73
_symmetry_cell_setting 'orthorhombic'
loop_
_space_group_symop_operation_xyz
x,y,z
-x,1/2-y,z
x,-y,1/2-z
1/2-x,y,-z
-x,-y,-z
x,1/2+y,-z
-x,y,1/2+z
1/2+x,-y,z
1/2+x,1/2+y,1/2+z
1/2-x,-y,1/2+z
1/2+x,1/2-y,-z
-x,1/2+y,1/2-z
1/2-x,1/2-y,1/2-z
1/2+x,y,1/2-z
1/2-x,1/2+y,z
x,1/2-y,1/2+z
loop_
_atom_site_type_symbol
_atom_site_label
_atom_site_fract_x
_atom_site_fract_y
_atom_site_fract_z
Si Si1 0.000000 0.250000 0.479600
Si Si2 0.311767 0.610130 0.903316
Si Si3 0.791678 0.351514 0.791124
Si Si4 0.549385 0.000000 0.250000
Si Si5 0.499422 0.884548 0.076297
O O1 0.870434 0.205795 0.444599
O O2 0.049627 0.137743 0.516911
O O3 0.306724 0.687419 0.850189
O O4 0.401744 0.485031 0.896170
O O5 0.159222 0.564287 0.922498
O O6 0.750000 0.250000 0.750000
O O7 0.659481 0.447275 0.792357
O O8 0.947642 0.399982 0.775657
O O9 0.500000 0.750000 0.104825
#
# Coordination Sequence:
#
# PCOD8296741 Si02
#       5
#     8  16  16   8  16
#     4  10  26  44  74 108 156 196 254 320 388 462
#     4  12  25  46  78 109 152 205 254 317 398 459
#     4  11  25  44  75 105 150 189 252 304 378 454
#     4  10  24  46  66 104 148 188 242 312 362 444
#     4  10  27  46  74 110 152 198 261 317 386 471
#
# _framework density 23.937369
#
# number of rings (size 3 to 8) (size 9 to 14) (size 15 to 20)
#    0.750    0.500    0.000    3.750    7.000    6.000 
#    0.000    0.000    0.000    0.000    0.000    0.000 
#    0.000    0.000    0.000    0.000    0.000    0.000 
#
# Total GULP energy -396485.940012 kJ/mol
# GULP energy per Si atom -12390.185625 kJ/mol
# Density = 2.388289 g / cm^3
# Si number density = 23.937369 Si / 1000 Ang^3
#
#
#
# Elastic Constant Matrix: (Units=GPa)
#
#
# Indices 1 2 3 4 5 6 
#
# 1 162.5391 52.3422 19.8695 0.0000 0.0000 0.0000
# 2 52.3422 101.8067 47.6966 0.0000 0.0000 0.0000
# 3 19.8695 47.6966 144.1871 0.0000 0.0000 0.0000
# 4 0.0000 0.0000 0.0000 32.6534 0.0000 0.0000
# 5 0.0000 0.0000 0.0000 0.0000 19.9623 0.0000
# 6 0.0000 0.0000 0.0000 0.0000 0.0000 34.5816
#
#
#
# Elastic Compliance Matrix: (Units=1/GPa)
#
#
# Indices 1 2 3 4 5 6 
#
# 1 0.007383 -0.003928 0.000282 0.000000 0.000000 0.000000
# 2 -0.003928 0.013714 -0.003995 0.000000 0.000000 0.000000
# 3 0.000282 -0.003995 0.008218 0.000000 0.000000 0.000000
# 4 0.000000 0.000000 0.000000 0.030625 0.000000 0.000000
# 5 0.000000 0.000000 0.000000 0.000000 0.050094 0.000000
# 6 0.000000 0.000000 0.000000 0.000000 0.000000 0.028917
#
#
# Mechanical properties :
#
#
# Convention : Reuss Voigt Hill
#
# Bulk Modulus (GPa) = 71.26300 72.03885 71.65093
# Shear Modulus (GPa) = 31.46428 36.68112 34.07270
#
# Velocity S-wave (km/s) = 3.62946 3.91881 3.77690
# Velocity P-wave (km/s) = 6.88471 7.11591 7.00126
#
# Compressibility (1/GPa) = 0.01403253
#
# Stress axis : x y z
#
# Youngs Moduli (GPa) = 135.45063 72.91977 121.68152
#
# Poissons Ratio (x) = 0.28641 -0.03431
# Poissons Ratio (y) = 0.53202 0.48614
# Poissons Ratio (z) = -0.03819 0.29133
#
# Static dielectric constant tensor:
#      x y z
#    x 4.564800 0.000000 0.000000 
#    y 0.000000 4.166170 0.000000 
#    z 0.000000 0.000000 4.216510 
# 
# 
# High freq. dielectric constant tensor:
#      x y z
#    x 1.967820 0.000000 0.000000 
#    y 0.000000 1.933150 0.000000 
#    z 0.000000 0.000000 1.946180 
# 
# From -- ./inp_files/8248.got.cif
#   From: 2010.03.12/outbox.cif.g09.slc.cpg/sg73_5_cif.got.tgz:8248.got - 2010.04.16 15:25:48.
