data_PCOD8296775
_publ_section_title
;
Structure prediction by ZEFSAII (Michael W. Deem and Ramdas Pophale) SiO2 
 PCOD8296775
Probable space group: I B C A 
;
_chemical_formula_sum "Si O2"
_cell_formula_units_Z 88
_cell_length_a 9.239422
_cell_length_b 15.335185
_cell_length_c 28.824949
_cell_angle_alpha 90.000000
_cell_angle_beta 90.000000
_cell_angle_gamma 90.000000
_cell_volume 4084.156455
_symmetry_space_group_name_H-M "I B C A "
_symmetry_group_IT_number 73
_symmetry_cell_setting 'orthorhombic'
loop_
_space_group_symop_operation_xyz
x,y,z
-x,1/2-y,z
x,-y,1/2-z
1/2-x,y,-z
-x,-y,-z
x,1/2+y,-z
-x,y,1/2+z
1/2+x,-y,z
1/2+x,1/2+y,1/2+z
1/2-x,-y,1/2+z
1/2+x,1/2-y,-z
-x,1/2+y,1/2-z
1/2-x,1/2-y,1/2-z
1/2+x,y,1/2-z
1/2-x,1/2+y,z
x,1/2-y,1/2+z
loop_
_atom_site_type_symbol
_atom_site_label
_atom_site_fract_x
_atom_site_fract_y
_atom_site_fract_z
Si Si1 0.559549 0.083072 0.279897
Si Si2 0.000000 0.250000 0.859926
Si Si3 0.000000 0.250000 0.060755
Si Si4 0.250000 0.678065 0.500000
Si Si5 0.539444 0.924129 0.615245
Si Si6 0.337273 0.320937 0.723020
Si Si7 0.363853 0.410374 0.086331
O O1 0.494816 0.073003 0.330714
O O2 0.732267 0.095579 0.282307
O O3 0.482908 0.161434 0.251990
O O4 0.521282 0.000000 0.250000
O O5 0.127778 0.211187 0.828543
O O6 0.063034 0.326690 0.890787
O O7 0.020890 0.165036 0.092842
O O8 0.143144 0.260068 0.029338
O O9 0.341982 0.613549 0.467426
O O10 0.711904 0.931465 0.610834
O O11 0.466772 0.005869 0.589392
O O12 0.250000 0.250000 0.750000
#
# Coordination Sequence:
#
# PCOD8296775 Si02
#       7
#    16   8   8   8  16  16  16
#     4  12  27  43  66 100 142 187 238 285 342 411
#     4  12  25  45  74 104 144 192 244 293 363 422
#     4  10  25  47  74 104 136 184 230 295 359 434
#     4  10  24  48  74 106 140 180 238 296 376 434
#     4  11  28  44  70 106 143 186 237 290 354 423
#     4  12  25  43  68  97 138 191 237 290 342 415
#     4  11  27  46  73 106 142 184 235 301 364 436
#
# _framework density 21.546678
#
# number of rings (size 3 to 8) (size 9 to 14) (size 15 to 20)
#    0.000    0.727    1.818    3.273   15.273    5.091 
#    0.000    0.000    0.000    0.000    0.000    0.000 
#    0.000    0.000    0.000    0.000    0.000    0.000 
#
# Total GULP energy -545772.795108 kJ/mol
# GULP energy per Si atom -12403.927162 kJ/mol
# Density = 2.149764 g / cm^3
# Si number density = 21.546678 Si / 1000 Ang^3
#
#
#
# Elastic Constant Matrix: (Units=GPa)
#
#
# Indices 1 2 3 4 5 6 
#
# 1 123.4540 71.1876 47.1431 0.0000 0.0000 0.0000
# 2 71.1876 160.0186 77.6634 0.0000 0.0000 0.0000
# 3 47.1431 77.6634 156.3263 0.0000 0.0000 0.0000
# 4 0.0000 0.0000 0.0000 44.1128 0.0000 0.0000
# 5 0.0000 0.0000 0.0000 0.0000 41.4953 0.0000
# 6 0.0000 0.0000 0.0000 0.0000 0.0000 47.6629
#
#
#
# Elastic Compliance Matrix: (Units=1/GPa)
#
#
# Indices 1 2 3 4 5 6 
#
# 1 0.011056 -0.004349 -0.001174 0.000000 0.000000 0.000000
# 2 -0.004349 0.009945 -0.003629 0.000000 0.000000 0.000000
# 3 -0.001174 -0.003629 0.008554 0.000000 0.000000 0.000000
# 4 0.000000 0.000000 0.000000 0.022669 0.000000 0.000000
# 5 0.000000 0.000000 0.000000 0.000000 0.024099 0.000000
# 6 0.000000 0.000000 0.000000 0.000000 0.000000 0.020981
#
#
# Mechanical properties :
#
#
# Convention : Reuss Voigt Hill
#
# Bulk Modulus (GPa) = 88.87685 92.42080 90.64882
# Shear Modulus (GPa) = 41.89046 42.90786 42.39916
#
# Velocity S-wave (km/s) = 4.41406 4.46734 4.44078
# Velocity P-wave (km/s) = 8.20467 8.34242 8.27383
#
# Compressibility (1/GPa) = 0.01125152
#
# Stress axis : x y z
#
# Youngs Moduli (GPa) = 90.44797 100.54799 116.90545
#
# Poissons Ratio (x) = 0.43728 0.13720
# Poissons Ratio (y) = 0.39335 0.42430
# Poissons Ratio (z) = 0.10615 0.36493
#
# Static dielectric constant tensor:
#      x y z
#    x 4.467360 0.000000 0.000000 
#    y 0.000000 4.189830 0.000000 
#    z 0.000000 0.000000 3.929410 
# 
# 
# High freq. dielectric constant tensor:
#      x y z
#    x 1.862850 0.000000 0.000000 
#    y 0.000000 1.857160 0.000000 
#    z 0.000000 0.000000 1.856300 
# 
# From -- ./inp_files/33559.got.cif
#   From: 2010.03.12/outbox.cif.g09.slc.cpg/sg73_17_cif.got.tgz:33559.got - 2010.04.16 15:25:48.
