data_PCOD8296666
_publ_section_title
;
Structure prediction by ZEFSAII (Michael W. Deem and Ramdas Pophale) SiO2 
 PCOD8296666
Probable space group: I B C A 
;
_chemical_formula_sum "Si O2"
_cell_formula_units_Z 120
_cell_length_a 23.356847
_cell_length_b 9.815533
_cell_length_c 24.505354
_cell_angle_alpha 90.000000
_cell_angle_beta 90.000000
_cell_angle_gamma 90.000000
_cell_volume 5618.095069
_symmetry_space_group_name_H-M "I B C A "
_symmetry_group_IT_number 73
_symmetry_cell_setting 'orthorhombic'
loop_
_space_group_symop_operation_xyz
x,y,z
-x,1/2-y,z
x,-y,1/2-z
1/2-x,y,-z
-x,-y,-z
x,1/2+y,-z
-x,y,1/2+z
1/2+x,-y,z
1/2+x,1/2+y,1/2+z
1/2-x,-y,1/2+z
1/2+x,1/2-y,-z
-x,1/2+y,1/2-z
1/2-x,1/2-y,1/2-z
1/2+x,y,1/2-z
1/2-x,1/2+y,z
x,1/2-y,1/2+z
loop_
_atom_site_type_symbol
_atom_site_label
_atom_site_fract_x
_atom_site_fract_y
_atom_site_fract_z
Si Si1 0.999379 0.033787 0.130070
Si Si2 0.705452 0.562733 0.101392
Si Si3 0.229191 0.167484 0.058407
Si Si4 0.077585 0.353188 0.223691
Si Si5 0.587915 0.080073 0.956939
Si Si6 0.292930 0.644738 0.720785
Si Si7 0.500000 0.750000 0.309397
Si Si8 0.900734 0.884585 0.941789
O O1 0.963492 0.136287 0.169782
O O2 0.968561 0.022767 0.071740
O O3 0.062665 0.089768 0.113906
O O4 0.005136 0.883512 0.154118
O O5 0.729725 0.410252 0.100389
O O6 0.735941 0.668968 0.059866
O O7 0.638466 0.552810 0.086996
O O8 0.724223 0.625496 0.158660
O O9 0.165410 0.123375 0.074879
O O10 0.250000 0.114297 0.000000
O O11 0.079098 0.500000 0.250000
O O12 0.141910 0.299926 0.214892
O O13 0.053948 0.248484 0.268621
O O14 0.581372 0.241015 0.969230
O O15 0.594227 0.005198 0.014377
O O16 0.290415 0.500000 0.750000
O O17 0.250000 0.750000 0.750000
#
# Coordination Sequence:
#
# PCOD8296666 Si02
#       8
#    16  16  16  16  16  16   8  16
#     4  11  23  43  65  96 137 171 227 289 348 401
#     4  11  23  41  66  97 132 180 219 279 345 401
#     4  11  23  41  63  96 132 174 226 271 337 410
#     4   9  21  42  65  93 133 177 223 277 346 398
#     4  11  24  43  66  95 132 174 224 279 350 409
#     4  11  23  43  69  99 136 178 224 279 340 412
#     4  10  24  40  70 100 122 182 234 280 332 432
#     4  11  26  40  69  96 130 179 222 283 339 415
#
# _framework density 21.359552999999998
#
# number of rings (size 3 to 8) (size 9 to 14) (size 15 to 20)
#    0.000    1.333    2.667    2.000    5.600    1.067 
#    0.000    2.000    0.000    0.000    0.000    0.000 
#    0.000    0.000    0.000    0.000    0.000    0.000 
#
# Total GULP energy -743591.912149 kJ/mol
# GULP energy per Si atom -12393.198536 kJ/mol
# Density = 2.131094 g / cm^3
# Si number density = 21.359553 Si / 1000 Ang^3
#
#
#
# Elastic Constant Matrix: (Units=GPa)
#
#
# Indices 1 2 3 4 5 6 
#
# 1 113.0204 37.3371 31.6956 0.0000 0.0000 0.0000
# 2 37.3371 101.7153 20.8755 0.0000 0.0000 0.0000
# 3 31.6956 20.8755 81.3643 0.0000 0.0000 0.0000
# 4 0.0000 0.0000 0.0000 33.8170 0.0000 0.0000
# 5 0.0000 0.0000 0.0000 0.0000 39.7899 0.0000
# 6 0.0000 0.0000 0.0000 0.0000 0.0000 27.2874
#
#
#
# Elastic Compliance Matrix: (Units=1/GPa)
#
#
# Indices 1 2 3 4 5 6 
#
# 1 0.010891 -0.003301 -0.003396 0.000000 0.000000 0.000000
# 2 -0.003301 0.011378 -0.001633 0.000000 0.000000 0.000000
# 3 -0.003396 -0.001633 0.014032 0.000000 0.000000 0.000000
# 4 0.000000 0.000000 0.000000 0.029571 0.000000 0.000000
# 5 0.000000 0.000000 0.000000 0.000000 0.025132 0.000000
# 6 0.000000 0.000000 0.000000 0.000000 0.000000 0.036647
#
#
# Mechanical properties :
#
#
# Convention : Reuss Voigt Hill
#
# Bulk Modulus (GPa) = 50.91272 52.87959 51.89616
# Shear Modulus (GPa) = 33.14378 33.92499 33.53439
#
# Velocity S-wave (km/s) = 3.94345 3.98965 3.96661
# Velocity P-wave (km/s) = 6.67998 6.78481 6.73260
#
# Compressibility (1/GPa) = 0.01964146
#
# Stress axis : x y z
#
# Youngs Moduli (GPa) = 91.82172 87.88710 71.26432
#
# Poissons Ratio (x) = 0.29010 0.24199
# Poissons Ratio (y) = 0.30308 0.11641
# Poissons Ratio (z) = 0.31179 0.14356
#
# Static dielectric constant tensor:
#      x y z
#    x 4.067200 0.000000 0.000000 
#    y 0.000000 3.968970 0.000000 
#    z 0.000000 0.000000 3.888810 
# 
# 
# High freq. dielectric constant tensor:
#      x y z
#    x 1.842080 0.000000 0.000000 
#    y 0.000000 1.838780 0.000000 
#    z 0.000000 0.000000 1.839660 
# 
# From -- ./inp_files/32911.got.cif
#   From: 2010.03.12/outbox.cif.g09.slc.cpg/sg73_17_cif.got.tgz:32911.got - 2010.04.16 15:25:48.
