data_PCOD8296547
_publ_section_title
;
Structure prediction by ZEFSAII (Michael W. Deem and Ramdas Pophale) SiO2 
 PCOD8296547
Probable space group: I B C A 
;
_chemical_formula_sum "Si O2"
_cell_formula_units_Z 120
_cell_length_a 26.517175
_cell_length_b 9.485734
_cell_length_c 21.773946
_cell_angle_alpha 90.000000
_cell_angle_beta 90.000000
_cell_angle_gamma 90.000000
_cell_volume 5476.906643
_symmetry_space_group_name_H-M "I B C A "
_symmetry_group_IT_number 73
_symmetry_cell_setting 'orthorhombic'
loop_
_space_group_symop_operation_xyz
x,y,z
-x,1/2-y,z
x,-y,1/2-z
1/2-x,y,-z
-x,-y,-z
x,1/2+y,-z
-x,y,1/2+z
1/2+x,-y,z
1/2+x,1/2+y,1/2+z
1/2-x,-y,1/2+z
1/2+x,1/2-y,-z
-x,1/2+y,1/2-z
1/2-x,1/2-y,1/2-z
1/2+x,y,1/2-z
1/2-x,1/2+y,z
x,1/2-y,1/2+z
loop_
_atom_site_type_symbol
_atom_site_label
_atom_site_fract_x
_atom_site_fract_y
_atom_site_fract_z
Si Si1 0.940725 0.950202 0.895684
Si Si2 0.555856 0.218854 0.797832
Si Si3 0.446119 0.004604 0.108522
Si Si4 0.632589 0.991584 0.503990
Si Si5 0.910419 0.771332 0.666711
Si Si6 0.250995 0.500000 0.250000
Si Si7 0.296327 0.748935 0.826823
Si Si8 0.701746 0.743918 0.460765
O O1 0.930424 0.810401 0.857272
O O2 0.904574 0.939353 0.954002
O O3 0.928655 0.073258 0.847850
O O4 0.998995 0.961176 0.917981
O O5 0.500000 0.250000 0.773470
O O6 0.590791 0.245538 0.739805
O O7 0.562121 0.060994 0.823359
O O8 0.443965 0.170655 0.123260
O O9 0.402508 0.953571 0.062193
O O10 0.678324 0.092027 0.523731
O O11 0.656794 0.854468 0.473046
O O12 0.853211 0.744696 0.649365
O O13 0.216784 0.605774 0.209853
O O14 0.285251 0.395356 0.208976
O O15 0.270966 0.748701 0.893635
O O16 0.750000 0.780802 0.500000
#
# Coordination Sequence:
#
# PCOD8296547 Si02
#       8
#    16  16  16  16  16   8  16  16
#     4  11  23  41  66  98 138 179 224 280 336 409
#     4  10  23  39  61  96 134 178 220 265 331 397
#     4  11  23  41  66  98 138 179 224 280 336 409
#     4  12  24  46  66 102 132 180 232 278 352 410
#     4  12  23  39  66  98 132 176 227 272 341 403
#     4  10  28  50  74 102 138 178 228 288 360 402
#     4  11  26  49  72 105 135 179 226 287 345 418
#     4  12  28  45  72  99 133 180 232 291 346 406
#
# _framework density 21.910177000000001
#
# number of rings (size 3 to 8) (size 9 to 14) (size 15 to 20)
#    0.000    0.800    2.667    3.600    7.467    2.133 
#    4.800    4.000    0.000    0.000    0.000    0.000 
#    0.000    0.000    0.000    0.000    0.000    0.000 
#
# Total GULP energy -743896.172213 kJ/mol
# GULP energy per Si atom -12398.269537 kJ/mol
# Density = 2.186031 g / cm^3
# Si number density = 21.910177 Si / 1000 Ang^3
#
#
#
# Elastic Constant Matrix: (Units=GPa)
#
#
# Indices 1 2 3 4 5 6 
#
# 1 68.3448 20.8600 30.6160 0.0000 0.0000 0.0000
# 2 20.8600 87.5247 17.4198 0.0000 0.0000 0.0000
# 3 30.6160 17.4198 112.4393 0.0000 0.0000 0.0000
# 4 0.0000 0.0000 0.0000 21.7356 0.0000 0.0000
# 5 0.0000 0.0000 0.0000 0.0000 37.3193 0.0000
# 6 0.0000 0.0000 0.0000 0.0000 0.0000 24.3099
#
#
#
# Elastic Compliance Matrix: (Units=1/GPa)
#
#
# Indices 1 2 3 4 5 6 
#
# 1 0.017560 -0.003336 -0.004265 0.000000 0.000000 0.000000
# 2 -0.003336 0.012423 -0.001016 0.000000 0.000000 0.000000
# 3 -0.004265 -0.001016 0.010212 0.000000 0.000000 0.000000
# 4 0.000000 0.000000 0.000000 0.046007 0.000000 0.000000
# 5 0.000000 0.000000 0.000000 0.000000 0.026796 0.000000
# 6 0.000000 0.000000 0.000000 0.000000 0.000000 0.041136
#
#
# Mechanical properties :
#
#
# Convention : Reuss Voigt Hill
#
# Bulk Modulus (GPa) = 43.55185 45.12225 44.33705
# Shear Modulus (GPa) = 27.92947 29.96715 28.94831
#
# Velocity S-wave (km/s) = 3.57420 3.70229 3.63881
# Velocity P-wave (km/s) = 6.07897 6.23818 6.15909
#
# Compressibility (1/GPa) = 0.02296113
#
# Stress axis : x y z
#
# Youngs Moduli (GPa) = 56.94627 80.49738 97.92091
#
# Poissons Ratio (x) = 0.26857 0.41759
# Poissons Ratio (y) = 0.19000 0.09950
# Poissons Ratio (z) = 0.24285 0.08180
#
# Static dielectric constant tensor:
#      x y z
#    x 3.885350 0.000000 0.000000 
#    y 0.000000 3.963210 0.000000 
#    z 0.000000 0.000000 4.079640 
# 
# 
# High freq. dielectric constant tensor:
#      x y z
#    x 1.858890 0.000000 0.000000 
#    y 0.000000 1.870640 0.000000 
#    z 0.000000 0.000000 1.875730 
# 
# From -- ./inp_files/30534.got.cif
#   From: 2010.03.12/outbox.cif.g09.slc.cpg/sg73_16_cif.got.tgz:30534.got - 2010.04.16 15:25:48.
