data_PCOD8296763
_publ_section_title
;
Structure prediction by ZEFSAII (Michael W. Deem and Ramdas Pophale) SiO2 
 PCOD8296763
Probable space group: I B C A 
;
_chemical_formula_sum "Si O2"
_cell_formula_units_Z 72
_cell_length_a 8.540662
_cell_length_b 14.837016
_cell_length_c 21.597359
_cell_angle_alpha 90.000000
_cell_angle_beta 90.000000
_cell_angle_gamma 90.000000
_cell_volume 2736.772815
_symmetry_space_group_name_H-M "I B C A "
_symmetry_group_IT_number 73
_symmetry_cell_setting 'orthorhombic'
loop_
_space_group_symop_operation_xyz
x,y,z
-x,1/2-y,z
x,-y,1/2-z
1/2-x,y,-z
-x,-y,-z
x,1/2+y,-z
-x,y,1/2+z
1/2+x,-y,z
1/2+x,1/2+y,1/2+z
1/2-x,-y,1/2+z
1/2+x,1/2-y,-z
-x,1/2+y,1/2-z
1/2-x,1/2-y,1/2-z
1/2+x,y,1/2-z
1/2-x,1/2+y,z
x,1/2-y,1/2+z
loop_
_atom_site_type_symbol
_atom_site_label
_atom_site_fract_x
_atom_site_fract_y
_atom_site_fract_z
Si Si1 0.500000 0.250000 0.409230
Si Si2 0.515315 0.615483 0.696669
Si Si3 0.287021 0.538569 0.345418
Si Si4 0.000000 0.750000 0.699201
Si Si5 0.913790 0.881326 0.104000
Si Si6 0.250000 0.282215 0.500000
O O1 0.445440 0.334586 0.368064
O O2 0.350490 0.223097 0.451683
O O3 0.327203 0.599595 0.697413
O O4 0.602965 0.520404 0.699488
O O5 0.573938 0.673354 0.755846
O O6 0.180933 0.473334 0.387309
O O7 0.398704 0.600584 0.388688
O O8 0.874156 0.696737 0.655762
O O9 0.876670 0.844487 0.035941
#
# Coordination Sequence:
#
# PCOD8296763 Si02
#       6
#     8  16  16   8  16   8
#     4  11  25  46  72 106 141 197 244 310 366 443
#     4  10  24  47  71 108 147 190 241 305 372 451
#     4  10  24  47  69 106 149 188 242 296 386 430
#     4  11  27  44  78 108 147 189 250 302 376 451
#     4  11  26  46  70 106 140 196 241 305 365 440
#     4  12  26  48  74 104 146 190 262 304 366 446
#
# _framework density 26.308358999999999
#
# number of rings (size 3 to 8) (size 9 to 14) (size 15 to 20)
#    0.000    1.333    2.222    0.667    6.222    9.778 
#    0.000    0.000    0.000    0.000    0.000    0.000 
#    0.000    0.000    0.000    0.000    0.000    0.000 
#
# Total GULP energy -446259.569816 kJ/mol
# GULP energy per Si atom -12396.099162 kJ/mol
# Density = 2.624848 g / cm^3
# Si number density = 26.308359 Si / 1000 Ang^3
#
#
#
# Elastic Constant Matrix: (Units=GPa)
#
#
# Indices 1 2 3 4 5 6 
#
# 1 119.9150 17.8131 39.1889 0.0000 0.0000 0.0000
# 2 17.8131 85.3676 30.5895 0.0000 0.0000 0.0000
# 3 39.1889 30.5895 143.0568 0.0000 0.0000 0.0000
# 4 0.0000 0.0000 0.0000 14.7970 0.0000 0.0000
# 5 0.0000 0.0000 0.0000 0.0000 37.3449 0.0000
# 6 0.0000 0.0000 0.0000 0.0000 0.0000 32.0364
#
#
#
# Elastic Compliance Matrix: (Units=1/GPa)
#
#
# Indices 1 2 3 4 5 6 
#
# 1 0.009255 -0.001108 -0.002298 0.000000 0.000000 0.000000
# 2 -0.001108 0.012819 -0.002438 0.000000 0.000000 0.000000
# 3 -0.002298 -0.002438 0.008141 0.000000 0.000000 0.000000
# 4 0.000000 0.000000 0.000000 0.067581 0.000000 0.000000
# 5 0.000000 0.000000 0.000000 0.000000 0.026777 0.000000
# 6 0.000000 0.000000 0.000000 0.000000 0.000000 0.031214
#
#
# Mechanical properties :
#
#
# Convention : Reuss Voigt Hill
#
# Bulk Modulus (GPa) = 53.97403 58.16915 56.07159
# Shear Modulus (GPa) = 28.79345 34.21886 31.50616
#
# Velocity S-wave (km/s) = 3.31185 3.61041 3.46435
# Velocity P-wave (km/s) = 5.93169 6.28797 6.11243
#
# Compressibility (1/GPa) = 0.01852743
#
# Stress axis : x y z
#
# Youngs Moduli (GPa) = 108.05068 78.01159 122.83372
#
# Poissons Ratio (x) = 0.08640 0.28233
# Poissons Ratio (y) = 0.11967 0.29942
# Poissons Ratio (z) = 0.24835 0.19016
#
# Static dielectric constant tensor:
#      x y z
#    x 4.769960 0.000000 0.000000 
#    y 0.000000 4.867980 0.000000 
#    z 0.000000 0.000000 4.551860 
# 
# 
# High freq. dielectric constant tensor:
#      x y z
#    x 2.062430 0.000000 0.000000 
#    y 0.000000 2.054840 0.000000 
#    z 0.000000 0.000000 2.045130 
# 
# From -- ./inp_files/5385.got.cif
#   From: 2010.03.12/outbox.cif.g09.slc.cpg/sg73_3_cif.got.tgz:5385.got - 2010.04.16 15:25:48.
