data_PCOD8296299
_publ_section_title
;
Structure prediction by ZEFSAII (Michael W. Deem and Ramdas Pophale) SiO2 
 PCOD8296299
Probable space group: I B C A 
;
_chemical_formula_sum "Si O2"
_cell_formula_units_Z 88
_cell_length_a 9.702146
_cell_length_b 21.949873
_cell_length_c 21.298478
_cell_angle_alpha 90.000000
_cell_angle_beta 90.000000
_cell_angle_gamma 90.000000
_cell_volume 4535.742458
_symmetry_space_group_name_H-M "I B C A "
_symmetry_group_IT_number 73
_symmetry_cell_setting 'orthorhombic'
loop_
_space_group_symop_operation_xyz
x,y,z
-x,1/2-y,z
x,-y,1/2-z
1/2-x,y,-z
-x,-y,-z
x,1/2+y,-z
-x,y,1/2+z
1/2+x,-y,z
1/2+x,1/2+y,1/2+z
1/2-x,-y,1/2+z
1/2+x,1/2-y,-z
-x,1/2+y,1/2-z
1/2-x,1/2-y,1/2-z
1/2+x,y,1/2-z
1/2-x,1/2+y,z
x,1/2-y,1/2+z
loop_
_atom_site_type_symbol
_atom_site_label
_atom_site_fract_x
_atom_site_fract_y
_atom_site_fract_z
Si Si1 0.250000 0.870033 0.500000
Si Si2 0.510213 0.559261 0.640132
Si Si3 0.308237 0.185017 0.766090
Si Si4 0.669118 0.950083 0.888113
Si Si5 0.442841 0.109646 0.233685
Si Si6 0.573765 0.685328 0.601862
O O1 0.339048 0.912339 0.452852
O O2 0.351030 0.824303 0.536046
O O3 0.404461 0.515420 0.603472
O O4 0.670050 0.541502 0.628879
O O5 0.489202 0.558675 0.715718
O O6 0.474153 0.627127 0.613758
O O7 0.250000 0.250000 0.750000
O O8 0.203508 0.133965 0.742421
O O9 0.452824 0.167833 0.733006
O O10 0.316053 0.182697 0.841708
O O11 0.574282 0.918192 0.835213
O O12 0.500000 0.750000 0.601903
#
# Coordination Sequence:
#
# PCOD8296299 Si02
#       6
#     8  16  16  16  16  16
#     4  10  22  46  62  88 134 166 216 254 318 366
#     4  10  23  39  64  91 126 163 207 264 324 368
#     4  11  21  37  63  93 128 164 211 259 323 379
#     4  11  23  41  63  93 128 169 207 265 314 382
#     4  11  20  38  59  94 126 162 202 267 321 367
#     4  10  21  44  62  87 127 169 204 268 313 366
#
# _framework density 19.401453
#
# number of rings (size 3 to 8) (size 9 to 14) (size 15 to 20)
#    0.000    1.455    5.455    3.273    2.545    4.364 
#    3.273    0.909    0.000    0.000    0.000    0.000 
#    0.000    0.000    0.000    0.000    0.000    0.000 
#
# Total GULP energy -545299.397870 kJ/mol
# GULP energy per Si atom -12393.168133 kJ/mol
# Density = 1.935729 g / cm^3
# Si number density = 19.401453 Si / 1000 Ang^3
#
#
#
# Elastic Constant Matrix: (Units=GPa)
#
#
# Indices 1 2 3 4 5 6 
#
# 1 106.8609 58.2781 47.2342 0.0000 0.0000 0.0000
# 2 58.2781 114.8982 30.2872 0.0000 0.0000 0.0000
# 3 47.2342 30.2872 104.5626 0.0000 0.0000 0.0000
# 4 0.0000 0.0000 0.0000 26.5123 0.0000 0.0000
# 5 0.0000 0.0000 0.0000 0.0000 33.0550 0.0000
# 6 0.0000 0.0000 0.0000 0.0000 0.0000 40.9871
#
#
#
# Elastic Compliance Matrix: (Units=1/GPa)
#
#
# Indices 1 2 3 4 5 6 
#
# 1 0.014974 -0.006292 -0.004942 0.000000 0.000000 0.000000
# 2 -0.006292 0.012067 -0.000653 0.000000 0.000000 0.000000
# 3 -0.004942 -0.000653 0.011985 0.000000 0.000000 0.000000
# 4 0.000000 0.000000 0.000000 0.037718 0.000000 0.000000
# 5 0.000000 0.000000 0.000000 0.000000 0.030253 0.000000
# 6 0.000000 0.000000 0.000000 0.000000 0.000000 0.024398
#
#
# Mechanical properties :
#
#
# Convention : Reuss Voigt Hill
#
# Bulk Modulus (GPa) = 65.56346 66.43564 65.99955
# Shear Modulus (GPa) = 31.20082 32.81238 32.00660
#
# Velocity S-wave (km/s) = 4.01455 4.11692 4.06606
# Velocity P-wave (km/s) = 7.44011 7.54425 7.49236
#
# Compressibility (1/GPa) = 0.01525240
#
# Stress axis : x y z
#
# Youngs Moduli (GPa) = 66.78319 82.87051 83.43772
#
# Poissons Ratio (x) = 0.52145 0.41231
# Poissons Ratio (y) = 0.42022 0.05447
# Poissons Ratio (z) = 0.33001 0.05410
#
# Static dielectric constant tensor:
#      x y z
#    x 3.532820 0.000000 0.000000 
#    y 0.000000 3.869670 0.000000 
#    z 0.000000 0.000000 3.605160 
# 
# 
# High freq. dielectric constant tensor:
#      x y z
#    x 1.747690 0.000000 0.000000 
#    y 0.000000 1.765300 0.000000 
#    z 0.000000 0.000000 1.746390 
# 
# From -- ./inp_files/6305.got.cif
#   From: 2010.03.12/outbox.cif.g09.slc.cpg/sg73_4_cif.got.tgz:6305.got - 2010.04.16 15:25:48.
