data_PCOD8296346
_publ_section_title
;
Structure prediction by ZEFSAII (Michael W. Deem and Ramdas Pophale) SiO2 
 PCOD8296346
Probable space group: I B C A 
;
_chemical_formula_sum "Si O2"
_cell_formula_units_Z 80
_cell_length_a 8.584020
_cell_length_b 23.480310
_cell_length_c 16.700317
_cell_angle_alpha 90.000000
_cell_angle_beta 90.000000
_cell_angle_gamma 90.000000
_cell_volume 3366.039919
_symmetry_space_group_name_H-M "I B C A "
_symmetry_group_IT_number 73
_symmetry_cell_setting 'orthorhombic'
loop_
_space_group_symop_operation_xyz
x,y,z
-x,1/2-y,z
x,-y,1/2-z
1/2-x,y,-z
-x,-y,-z
x,1/2+y,-z
-x,y,1/2+z
1/2+x,-y,z
1/2+x,1/2+y,1/2+z
1/2-x,-y,1/2+z
1/2+x,1/2-y,-z
-x,1/2+y,1/2-z
1/2-x,1/2-y,1/2-z
1/2+x,y,1/2-z
1/2-x,1/2+y,z
x,1/2-y,1/2+z
loop_
_atom_site_type_symbol
_atom_site_label
_atom_site_fract_x
_atom_site_fract_y
_atom_site_fract_z
Si Si1 0.510598 0.314713 0.365677
Si Si2 0.467780 0.069027 0.164480
Si Si3 0.224824 0.500000 0.750000
Si Si4 0.708532 0.176185 0.728213
Si Si5 0.500000 0.250000 0.129487
Si Si6 0.426613 0.860731 0.973989
O O1 0.500000 0.250000 0.395720
O O2 0.387387 0.331103 0.296083
O O3 0.681210 0.324145 0.324710
O O4 0.479068 0.355006 0.442069
O O5 0.400591 0.126939 0.196367
O O6 0.334649 0.020924 0.176219
O O7 0.621873 0.051491 0.214758
O O8 0.514374 0.082250 0.072017
O O9 0.644965 0.235043 0.688439
O O10 0.548783 0.196954 0.075318
O O11 0.250000 0.867901 0.000000
#
# Coordination Sequence:
#
# PCOD8296346 Si02
#       6
#    16  16   8  16   8  16
#     4  12  24  40  67 100 150 190 228 276 331 408
#     4  10  24  45  78 102 134 177 231 297 354 419
#     4  10  22  50  80 102 130 174 238 302 358 408
#     4  11  24  40  69 103 134 186 239 272 335 418
#     4  10  22  38  62  98 146 178 234 264 338 414
#     4  11  25  42  65 102 148 183 223 282 354 412
#
# _framework density 23.766801000000001
#
# number of rings (size 3 to 8) (size 9 to 14) (size 15 to 20)
#    0.000    1.200    2.000    3.000    8.400    2.400 
#    0.000    1.000    0.000    0.000    0.000    0.000 
#    0.000    0.000    0.000    0.000    0.000    0.000 
#
# Total GULP energy -495772.908484 kJ/mol
# GULP energy per Si atom -12394.322712 kJ/mol
# Density = 2.371271 g / cm^3
# Si number density = 23.766801 Si / 1000 Ang^3
#
#
#
# Elastic Constant Matrix: (Units=GPa)
#
#
# Indices 1 2 3 4 5 6 
#
# 1 107.1829 30.5947 43.9117 0.0001 0.0000 0.0000
# 2 30.5947 69.2741 38.3519 0.0001 0.0000 0.0000
# 3 43.9117 38.3519 144.0176 0.0002 -0.0002 0.0000
# 4 0.0001 0.0001 0.0002 36.9594 -0.0001 0.0000
# 5 0.0000 0.0000 -0.0002 -0.0001 27.3297 0.0000
# 6 0.0000 0.0000 0.0000 0.0000 0.0000 28.9596
#
#
#
# Elastic Compliance Matrix: (Units=1/GPa)
#
#
# Indices 1 2 3 4 5 6 
#
# 1 0.011397 -0.003647 -0.002504 0.000000 0.000000 0.000000
# 2 -0.003647 0.018099 -0.003708 0.000000 0.000000 0.000000
# 3 -0.002504 -0.003708 0.008694 0.000000 0.000000 0.000000
# 4 0.000000 0.000000 0.000000 0.027057 0.000000 0.000000
# 5 0.000000 0.000000 0.000000 0.000000 0.036590 0.000000
# 6 0.000000 0.000000 0.000000 0.000000 0.000000 0.034531
#
#
# Mechanical properties :
#
#
# Convention : Reuss Voigt Hill
#
# Bulk Modulus (GPa) = 54.13378 60.68792 57.41085
# Shear Modulus (GPa) = 30.81812 32.49084 31.65448
#
# Velocity S-wave (km/s) = 3.60486 3.70140 3.65345
# Velocity P-wave (km/s) = 6.33666 6.62249 6.48115
#
# Compressibility (1/GPa) = 0.01847276
#
# Stress axis : x y z
#
# Youngs Moduli (GPa) = 87.74525 55.25216 115.01752
#
# Poissons Ratio (x) = 0.20152 0.28796
# Poissons Ratio (y) = 0.32002 0.42645
# Poissons Ratio (z) = 0.21968 0.20486
#
# Static dielectric constant tensor:
#      x y z
#    x 4.517740 0.000000 0.000000 
#    y 0.000000 4.580840 0.000000 
#    z 0.000000 0.000000 4.761790 
# 
# 
# High freq. dielectric constant tensor:
#      x y z
#    x 1.955740 0.000000 0.000000 
#    y 0.000000 1.927450 0.000000 
#    z 0.000000 0.000000 1.939220 
# 
# From -- ./inp_files/20764.got.cif
#   From: 2010.03.12/outbox.cif.g09.slc.cpg/sg73_11_cif.got.tgz:20764.got - 2010.04.16 15:25:48.
