data_PCOD8296939
_publ_section_title
;
Structure prediction by ZEFSAII (Michael W. Deem and Ramdas Pophale) SiO2 
 PCOD8296939
Probable space group: I B C A 
;
_chemical_formula_sum "Si O2"
_cell_formula_units_Z 88
_cell_length_a 19.929267
_cell_length_b 25.724378
_cell_length_c 8.101186
_cell_angle_alpha 90.000000
_cell_angle_beta 90.000000
_cell_angle_gamma 90.000000
_cell_volume 4153.218805
_symmetry_space_group_name_H-M "I B C A "
_symmetry_group_IT_number 73
_symmetry_cell_setting 'orthorhombic'
loop_
_space_group_symop_operation_xyz
x,y,z
-x,1/2-y,z
x,-y,1/2-z
1/2-x,y,-z
-x,-y,-z
x,1/2+y,-z
-x,y,1/2+z
1/2+x,-y,z
1/2+x,1/2+y,1/2+z
1/2-x,-y,1/2+z
1/2+x,1/2-y,-z
-x,1/2+y,1/2-z
1/2-x,1/2-y,1/2-z
1/2+x,y,1/2-z
1/2-x,1/2+y,z
x,1/2-y,1/2+z
loop_
_atom_site_type_symbol
_atom_site_label
_atom_site_fract_x
_atom_site_fract_y
_atom_site_fract_z
Si Si1 0.750000 0.351617 0.500000
Si Si2 0.607666 0.804345 0.999004
Si Si3 0.799392 0.886304 0.153858
Si Si4 0.928478 0.058633 0.298197
Si Si5 0.877804 0.804859 0.636933
Si Si6 0.983072 0.877020 0.493475
O O1 0.761216 0.385527 0.668310
O O2 0.813132 0.314507 0.475091
O O3 0.645651 0.799497 0.173912
O O4 0.538295 0.833163 0.040390
O O5 0.656698 0.834045 0.872515
O O6 0.588687 0.748627 0.923875
O O7 0.850742 0.935107 0.149954
O O8 0.750000 0.894995 0.000000
O O9 0.942513 0.104321 0.165873
O O10 0.980919 0.070660 0.443223
O O11 0.942582 0.000000 0.250000
O O12 0.929187 0.852986 0.619840
#
# Coordination Sequence:
#
# PCOD8296939 Si02
#       6
#     8  16  16  16  16  16
#     4  12  24  42  68  94 140 186 228 270 334 414
#     4  11  25  39  66  97 137 178 225 275 336 407
#     4  11  24  45  68  99 138 183 228 282 339 404
#     4  11  24  45  71 101 131 174 235 293 351 405
#     4  12  24  39  64  99 135 183 223 272 335 410
#     4  11  23  43  67  97 133 174 220 289 346 400
#
# _framework density 21.188383999999999
#
# number of rings (size 3 to 8) (size 9 to 14) (size 15 to 20)
#    0.000    0.727    5.455    2.182    3.818    2.909 
#    1.636    0.000    0.000    0.000    0.000    0.000 
#    0.000    0.000    0.000    0.000    0.000    0.000 
#
# Total GULP energy -545557.439022 kJ/mol
# GULP energy per Si atom -12399.032705 kJ/mol
# Density = 2.114016 g / cm^3
# Si number density = 21.188384 Si / 1000 Ang^3
#
#
#
# Elastic Constant Matrix: (Units=GPa)
#
#
# Indices 1 2 3 4 5 6 
#
# 1 110.2151 46.2876 36.0678 0.0000 0.0000 0.0000
# 2 46.2876 91.5872 12.0562 0.0000 0.0000 0.0000
# 3 36.0678 12.0562 121.3470 0.0000 0.0000 0.0000
# 4 0.0000 0.0000 0.0000 26.6082 0.0000 0.0000
# 5 0.0000 0.0000 0.0000 0.0000 36.1329 0.0000
# 6 0.0000 0.0000 0.0000 0.0000 0.0000 12.8229
#
#
#
# Elastic Compliance Matrix: (Units=1/GPa)
#
#
# Indices 1 2 3 4 5 6 
#
# 1 0.012607 -0.005956 -0.003155 0.000000 0.000000 0.000000
# 2 -0.005956 0.013877 0.000392 0.000000 0.000000 0.000000
# 3 -0.003155 0.000392 0.009140 0.000000 0.000000 0.000000
# 4 0.000000 0.000000 0.000000 0.037582 0.000000 0.000000
# 5 0.000000 0.000000 0.000000 0.000000 0.027676 0.000000
# 6 0.000000 0.000000 0.000000 0.000000 0.000000 0.077985
#
#
# Mechanical properties :
#
#
# Convention : Reuss Voigt Hill
#
# Bulk Modulus (GPa) = 54.99300 56.88584 55.93942
# Shear Modulus (GPa) = 24.70729 30.36197 27.53463
#
# Velocity S-wave (km/s) = 3.41849 3.78954 3.60879
# Velocity P-wave (km/s) = 6.44919 6.78627 6.61988
#
# Compressibility (1/GPa) = 0.01818413
#
# Stress axis : x y z
#
# Youngs Moduli (GPa) = 79.31921 72.06026 109.41133
#
# Poissons Ratio (x) = 0.42921 0.34524
# Poissons Ratio (y) = 0.47245 -0.04285
# Poissons Ratio (z) = 0.25029 -0.02822
#
# Static dielectric constant tensor:
#      x y z
#    x 3.910240 0.000000 0.000000 
#    y 0.000000 3.459150 0.000000 
#    z 0.000000 0.000000 3.982150 
# 
# 
# High freq. dielectric constant tensor:
#      x y z
#    x 1.839420 0.000000 0.000000 
#    y 0.000000 1.805290 0.000000 
#    z 0.000000 0.000000 1.844370 
# 
# From -- ./inp_files/6296.got.cif
#   From: 2010.03.12/outbox.cif.g09.slc.cpg/sg73_4_cif.got.tgz:6296.got - 2010.04.16 15:25:48.
