data_PCOD8296847
_publ_section_title
;
Structure prediction by ZEFSAII (Michael W. Deem and Ramdas Pophale) SiO2 
 PCOD8296847
Probable space group: I B C A 
;
_chemical_formula_sum "Si O2"
_cell_formula_units_Z 96
_cell_length_a 15.095549
_cell_length_b 13.018697
_cell_length_c 25.037202
_cell_angle_alpha 90.000000
_cell_angle_beta 90.000000
_cell_angle_gamma 90.000000
_cell_volume 4920.420562
_symmetry_space_group_name_H-M "I B C A "
_symmetry_group_IT_number 73
_symmetry_cell_setting 'orthorhombic'
loop_
_space_group_symop_operation_xyz
x,y,z
-x,1/2-y,z
x,-y,1/2-z
1/2-x,y,-z
-x,-y,-z
x,1/2+y,-z
-x,y,1/2+z
1/2+x,-y,z
1/2+x,1/2+y,1/2+z
1/2-x,-y,1/2+z
1/2+x,1/2-y,-z
-x,1/2+y,1/2-z
1/2-x,1/2-y,1/2-z
1/2+x,y,1/2-z
1/2-x,1/2+y,z
x,1/2-y,1/2+z
loop_
_atom_site_type_symbol
_atom_site_label
_atom_site_fract_x
_atom_site_fract_y
_atom_site_fract_z
Si Si1 0.500000 0.250000 0.459500
Si Si2 0.000000 0.250000 0.222467
Si Si3 0.170721 0.755787 0.209246
Si Si4 0.832067 0.759756 0.034026
Si Si5 0.061036 0.115901 0.629252
Si Si6 0.257679 0.615093 0.382565
Si Si7 0.342355 0.080862 0.126342
O O1 0.414666 0.241755 0.496167
O O2 0.501216 0.150546 0.420243
O O3 0.918986 0.280301 0.260011
O O4 0.979012 0.151907 0.185459
O O5 0.250000 0.750000 0.250000
O O6 0.315209 0.651378 0.332157
O O7 0.166449 0.645770 0.180089
O O8 0.805421 0.652747 0.063170
O O9 0.857210 0.845974 0.076447
O O10 0.750000 0.801098 0.000000
O O11 0.159295 0.166725 0.621237
O O12 0.070524 0.992079 0.630479
O O13 0.245609 0.490978 0.381636
#
# Coordination Sequence:
#
# PCOD8296847 Si02
#       7
#     8   8  16  16  16  16  16
#     4  11  22  37  66  90 122 165 206 251 306 360
#     4  11  22  37  66  84 116 159 202 249 306 358
#     4  11  21  39  64  89 117 162 204 252 309 362
#     4  11  21  38  64  91 121 164 204 250 308 363
#     4   9  20  41  60  85 121 162 196 251 300 362
#     4   9  20  41  60  82 126 160 196 253 301 361
#     4   9  22  39  62  88 127 161 204 253 302 370
#
# _framework density 19.510527
#
# number of rings (size 3 to 8) (size 9 to 14) (size 15 to 20)
#    1.000    1.000    3.333    0.000    0.000    8.000 
#    0.000    6.667    0.000    0.000    0.000    0.000 
#    0.000    0.000    0.000    0.000    0.000    0.000 
#
# Total GULP energy -594985.216584 kJ/mol
# GULP energy per Si atom -12395.525345 kJ/mol
# Density = 1.946612 g / cm^3
# Si number density = 19.510527 Si / 1000 Ang^3
#
#
#
# Elastic Constant Matrix: (Units=GPa)
#
#
# Indices 1 2 3 4 5 6 
#
# 1 95.5441 8.6489 44.3659 0.0000 0.0000 0.0000
# 2 8.6489 94.8923 35.8233 0.0000 0.0000 0.0000
# 3 44.3659 35.8233 122.0040 0.0000 0.0000 0.0000
# 4 0.0000 0.0000 0.0000 26.9204 0.0000 0.0000
# 5 0.0000 0.0000 0.0000 0.0000 50.1426 0.0000
# 6 0.0000 0.0000 0.0000 0.0000 0.0000 19.5299
#
#
#
# Elastic Compliance Matrix: (Units=1/GPa)
#
#
# Indices 1 2 3 4 5 6 
#
# 1 0.012629 0.000655 -0.004785 0.000000 0.000000 0.000000
# 2 0.000655 0.011886 -0.003728 0.000000 0.000000 0.000000
# 3 -0.004785 -0.003728 0.011031 0.000000 0.000000 0.000000
# 4 0.000000 0.000000 0.000000 0.037147 0.000000 0.000000
# 5 0.000000 0.000000 0.000000 0.000000 0.019943 0.000000
# 6 0.000000 0.000000 0.000000 0.000000 0.000000 0.051203
#
#
# Mechanical properties :
#
#
# Convention : Reuss Voigt Hill
#
# Bulk Modulus (GPa) = 50.42771 54.45740 52.44255
# Shear Modulus (GPa) = 30.09059 34.22541 32.15800
#
# Velocity S-wave (km/s) = 3.93144 4.19286 4.06425
# Velocity P-wave (km/s) = 6.81988 7.17025 6.99726
#
# Compressibility (1/GPa) = 0.01983037
#
# Stress axis : x y z
#
# Youngs Moduli (GPa) = 79.18365 84.13243 90.65258
#
# Poissons Ratio (x) = -0.05513 0.43375
# Poissons Ratio (y) = -0.05189 0.33798
# Poissons Ratio (z) = 0.37888 0.31367
#
# Static dielectric constant tensor:
#      x y z
#    x 3.322380 0.000000 0.000000 
#    y 0.000000 3.348460 0.000000 
#    z 0.000000 0.000000 3.726150 
# 
# 
# High freq. dielectric constant tensor:
#      x y z
#    x 1.751420 0.000000 0.000000 
#    y 0.000000 1.740410 0.000000 
#    z 0.000000 0.000000 1.778450 
# 
# From -- ./inp_files/29812.got.cif
#   From: 2010.03.12/outbox.cif.g09.slc.cpg/sg73_15_cif.got.tgz:29812.got - 2010.04.16 15:25:48.
