data_PCOD8296078
_publ_section_title
;
Structure prediction by ZEFSAII (Michael W. Deem and Ramdas Pophale) SiO2 
 PCOD8296078
Probable space group: I B C A 
;
_chemical_formula_sum "Si O2"
_cell_formula_units_Z 72
_cell_length_a 23.561912
_cell_length_b 10.545312
_cell_length_c 13.889813
_cell_angle_alpha 90.000000
_cell_angle_beta 90.000000
_cell_angle_gamma 90.000000
_cell_volume 3451.170075
_symmetry_space_group_name_H-M "I B C A "
_symmetry_group_IT_number 73
_symmetry_cell_setting 'orthorhombic'
loop_
_space_group_symop_operation_xyz
x,y,z
-x,1/2-y,z
x,-y,1/2-z
1/2-x,y,-z
-x,-y,-z
x,1/2+y,-z
-x,y,1/2+z
1/2+x,-y,z
1/2+x,1/2+y,1/2+z
1/2-x,-y,1/2+z
1/2+x,1/2-y,-z
-x,1/2+y,1/2-z
1/2-x,1/2-y,1/2-z
1/2+x,y,1/2-z
1/2-x,1/2+y,z
x,1/2-y,1/2+z
loop_
_atom_site_type_symbol
_atom_site_label
_atom_site_fract_x
_atom_site_fract_y
_atom_site_fract_z
Si Si1 0.190485 0.621931 0.201369
Si Si2 0.558917 0.545131 0.954881
Si Si3 0.400585 0.500000 0.250000
Si Si4 0.377526 0.302372 0.524977
Si Si5 0.308004 0.171222 0.848817
O O1 0.161255 0.500000 0.250000
O O2 0.145424 0.693877 0.133622
O O3 0.250121 0.586617 0.146498
O O4 0.208356 0.704407 0.291763
O O5 0.558744 0.546390 0.837710
O O6 0.576320 0.688666 0.987004
O O7 0.500000 0.500000 0.000000
O O8 0.602016 0.442673 0.996830
O O9 0.360599 0.607372 0.206007
O O10 0.324790 0.279185 0.454431
#
# Coordination Sequence:
#
# PCOD8296078 Si02
#       5
#    16  16   8  16  16
#     4  11  21  37  62  99 135 173 217 258 327 414
#     4  11  24  45  65  94 125 175 227 284 338 393
#     4  10  20  44  64  86 132 170 210 278 344 392
#     4  11  23  41  66  95 134 169 225 273 333 399
#     4  10  21  37  62  93 134 171 207 262 332 402
#
# _framework density 20.862490000000001
#
# number of rings (size 3 to 8) (size 9 to 14) (size 15 to 20)
#    0.000    1.333    3.333    2.667    0.000    0.000 
#    6.000    6.667    0.000    0.000    0.000    0.000 
#    0.000    0.000    0.000    0.000    0.000    0.000 
#
# Total GULP energy -446015.336127 kJ/mol
# GULP energy per Si atom -12389.314892 kJ/mol
# Density = 2.081501 g / cm^3
# Si number density = 20.862490 Si / 1000 Ang^3
#
#
#
# Elastic Constant Matrix: (Units=GPa)
#
#
# Indices 1 2 3 4 5 6 
#
# 1 91.5673 22.9427 36.2040 0.0000 0.0000 0.0000
# 2 22.9427 101.9440 36.4276 0.0000 0.0000 0.0000
# 3 36.2040 36.4276 94.2037 0.0000 0.0000 0.0000
# 4 0.0000 0.0000 0.0000 31.6653 0.0000 0.0000
# 5 0.0000 0.0000 0.0000 0.0000 32.8083 0.0000
# 6 0.0000 0.0000 0.0000 0.0000 0.0000 32.4319
#
#
#
# Elastic Compliance Matrix: (Units=1/GPa)
#
#
# Indices 1 2 3 4 5 6 
#
# 1 0.013030 -0.001326 -0.004495 0.000000 0.000000 0.000000
# 2 -0.001326 0.011517 -0.003944 0.000000 0.000000 0.000000
# 3 -0.004495 -0.003944 0.013868 0.000000 0.000000 0.000000
# 4 0.000000 0.000000 0.000000 0.031580 0.000000 0.000000
# 5 0.000000 0.000000 0.000000 0.000000 0.030480 0.000000
# 6 0.000000 0.000000 0.000000 0.000000 0.000000 0.030834
#
#
# Mechanical properties :
#
#
# Convention : Reuss Voigt Hill
#
# Bulk Modulus (GPa) = 52.95164 53.20706 53.07935
# Shear Modulus (GPa) = 31.81983 32.19048 32.00515
#
# Velocity S-wave (km/s) = 3.90964 3.93234 3.92101
# Velocity P-wave (km/s) = 6.76881 6.79535 6.78209
#
# Compressibility (1/GPa) = 0.01888516
#
# Stress axis : x y z
#
# Youngs Moduli (GPa) = 76.74318 86.82796 72.10950
#
# Poissons Ratio (x) = 0.11516 0.32413
# Poissons Ratio (y) = 0.10179 0.28438
# Poissons Ratio (z) = 0.34496 0.34243
#
# Static dielectric constant tensor:
#      x y z
#    x 3.699800 0.000000 0.000000 
#    y 0.000000 3.799930 0.000000 
#    z 0.000000 0.000000 4.179060 
# 
# 
# High freq. dielectric constant tensor:
#      x y z
#    x 1.800140 0.000000 0.000000 
#    y 0.000000 1.816650 0.000000 
#    z 0.000000 0.000000 1.826280 
# 
# From -- ./inp_files/4837.got.cif
#   From: 2010.03.12/outbox.cif.g09.slc.cpg/sg73_3_cif.got.tgz:4837.got - 2010.04.16 15:25:48.
