data_PCOD8296293
_publ_section_title
;
Structure prediction by ZEFSAII (Michael W. Deem and Ramdas Pophale) SiO2 
 PCOD8296293
Probable space group: I B C A 
;
_chemical_formula_sum "Si O2"
_cell_formula_units_Z 112
_cell_length_a 17.744173
_cell_length_b 27.655817
_cell_length_c 10.285629
_cell_angle_alpha 90.000000
_cell_angle_beta 90.000000
_cell_angle_gamma 90.000000
_cell_volume 5047.462618
_symmetry_space_group_name_H-M "I B C A "
_symmetry_group_IT_number 73
_symmetry_cell_setting 'orthorhombic'
loop_
_space_group_symop_operation_xyz
x,y,z
-x,1/2-y,z
x,-y,1/2-z
1/2-x,y,-z
-x,-y,-z
x,1/2+y,-z
-x,y,1/2+z
1/2+x,-y,z
1/2+x,1/2+y,1/2+z
1/2-x,-y,1/2+z
1/2+x,1/2-y,-z
-x,1/2+y,1/2-z
1/2-x,1/2-y,1/2-z
1/2+x,y,1/2-z
1/2-x,1/2+y,z
x,1/2-y,1/2+z
loop_
_atom_site_type_symbol
_atom_site_label
_atom_site_fract_x
_atom_site_fract_y
_atom_site_fract_z
Si Si1 0.953792 0.548576 0.475466
Si Si2 0.855474 0.946562 0.198381
Si Si3 0.193898 0.550731 0.815106
Si Si4 0.578632 0.723212 0.203366
Si Si5 0.683409 0.370720 0.594438
Si Si6 0.072822 0.618892 0.382394
Si Si7 0.827665 0.738226 0.057258
O O1 0.928473 0.569372 0.614259
O O2 0.873785 0.537961 0.409712
O O3 0.000000 0.500000 0.500000
O O4 0.997276 0.587166 0.388657
O O5 0.776327 0.938318 0.121188
O O6 0.857483 0.910058 0.318975
O O7 0.869345 0.000000 0.250000
O O8 0.211315 0.500000 0.750000
O O9 0.175728 0.595716 0.720701
O O10 0.500000 0.750000 0.227259
O O11 0.556960 0.666885 0.199402
O O12 0.635434 0.731181 0.325030
O O13 0.615061 0.737121 0.064754
O O14 0.750000 0.389520 0.500000
O O15 0.601079 0.372008 0.528133
O O16 0.695485 0.313542 0.622023
O O17 0.750000 0.761687 0.000000
#
# Coordination Sequence:
#
# PCOD8296293 Si02
#       7
#    16  16  16  16  16  16  16
#     4  12  26  41  64  98 143 181 231 282 352 419
#     4  11  24  44  66  96 137 180 235 290 339 410
#     4  11  25  40  68  97 132 182 232 285 344 413
#     4  11  25  45  71 108 144 186 233 301 368 434
#     4  10  21  43  69  97 134 182 231 283 356 423
#     4  11  25  42  69  99 137 182 226 289 352 418
#     4  10  23  45  75 101 139 186 243 294 360 430
#
# _framework density 22.189367000000001
#
# number of rings (size 3 to 8) (size 9 to 14) (size 15 to 20)
#    0.000    1.143    2.857    2.143    6.000    2.286 
#    0.000    0.000    0.000    0.000    0.000    0.000 
#    0.000    0.000    0.000    0.000    0.000    0.000 
#
# Total GULP energy -693833.742969 kJ/mol
# GULP energy per Si atom -12389.888267 kJ/mol
# Density = 2.213886 g / cm^3
# Si number density = 22.189367 Si / 1000 Ang^3
#
#
#
# Elastic Constant Matrix: (Units=GPa)
#
#
# Indices 1 2 3 4 5 6 
#
# 1 150.1524 55.1753 44.7324 -0.0001 -0.0001 0.0001
# 2 55.1753 126.8586 45.1779 0.0005 0.0001 0.0001
# 3 44.7324 45.1779 88.5533 0.0018 0.0008 -0.0002
# 4 -0.0001 0.0005 0.0018 30.8151 0.0004 0.0000
# 5 -0.0001 0.0001 0.0008 0.0004 49.2840 0.0000
# 6 0.0001 0.0001 -0.0002 0.0000 0.0000 9.8509
#
#
#
# Elastic Compliance Matrix: (Units=1/GPa)
#
#
# Indices 1 2 3 4 5 6 
#
# 1 0.008513 -0.002653 -0.002947 0.000000 0.000000 0.000000
# 2 -0.002653 0.010460 -0.003996 0.000000 0.000000 0.000000
# 3 -0.002947 -0.003996 0.014820 -0.000001 0.000000 0.000000
# 4 0.000000 0.000000 -0.000001 0.032452 0.000000 0.000000
# 5 0.000000 0.000000 0.000000 0.000000 0.020291 0.000000
# 6 0.000000 0.000000 0.000000 0.000000 0.000000 0.101514
#
#
# Mechanical properties :
#
#
# Convention : Reuss Voigt Hill
#
# Bulk Modulus (GPa) = 68.49013 72.85948 70.67480
# Shear Modulus (GPa) = 23.57302 32.68858 28.13080
#
# Velocity S-wave (km/s) = 3.26292 3.84235 3.56443
# Velocity P-wave (km/s) = 6.71779 7.25199 6.99000
#
# Compressibility (1/GPa) = 0.01460064
#
# Stress axis : x y z
#
# Youngs Moduli (GPa) = 117.47247 95.60344 67.47699
#
# Poissons Ratio (x) = 0.25364 0.19883
# Poissons Ratio (y) = 0.31166 0.26965
# Poissons Ratio (z) = 0.34614 0.38205
#
# Static dielectric constant tensor:
#      x y z
#    x 4.198450 0.000000 0.000010 
#    y 0.000000 3.941470 0.000020 
#    z 0.000010 0.000020 3.424810 
# 
# 
# High freq. dielectric constant tensor:
#      x y z
#    x 1.895800 0.000000 0.000000 
#    y 0.000000 1.862250 0.000000 
#    z 0.000000 0.000000 1.868020 
# 
# From -- ./inp_files/11233.got.cif
#   From: 2010.03.12/outbox.cif.g09.slc.cpg/sg73_6_cif.got.tgz:11233.got - 2010.04.16 15:25:48.
