data_PCOD8296863
_publ_section_title
;
Structure prediction by ZEFSAII (Michael W. Deem and Ramdas Pophale) SiO2 
 PCOD8296863
Probable space group: I B C A 
;
_chemical_formula_sum "Si O2"
_cell_formula_units_Z 112
_cell_length_a 32.068345
_cell_length_b 4.960916
_cell_length_c 32.847066
_cell_angle_alpha 90.000000
_cell_angle_beta 90.000000
_cell_angle_gamma 90.000000
_cell_volume 5225.586051
_symmetry_space_group_name_H-M "I B C A "
_symmetry_group_IT_number 73
_symmetry_cell_setting 'orthorhombic'
loop_
_space_group_symop_operation_xyz
x,y,z
-x,1/2-y,z
x,-y,1/2-z
1/2-x,y,-z
-x,-y,-z
x,1/2+y,-z
-x,y,1/2+z
1/2+x,-y,z
1/2+x,1/2+y,1/2+z
1/2-x,-y,1/2+z
1/2+x,1/2-y,-z
-x,1/2+y,1/2-z
1/2-x,1/2-y,1/2-z
1/2+x,y,1/2-z
1/2-x,1/2+y,z
x,1/2-y,1/2+z
loop_
_atom_site_type_symbol
_atom_site_label
_atom_site_fract_x
_atom_site_fract_y
_atom_site_fract_z
Si Si1 0.957685 0.628518 0.120812
Si Si2 0.366349 0.078766 0.795265
Si Si3 0.908599 0.885194 0.401701
Si Si4 0.158975 0.960115 0.658997
Si Si5 0.149813 0.042723 0.527301
Si Si6 0.961198 0.073960 0.704106
Si Si7 0.222412 0.949735 0.589522
O O1 0.946843 0.320667 0.107420
O O2 0.959222 0.663601 0.170307
O O3 0.000000 0.750000 0.101768
O O4 0.921541 0.804930 0.101876
O O5 0.358289 0.830039 0.826450
O O6 0.354435 0.000000 0.750000
O O7 0.335863 0.332737 0.803548
O O8 0.414347 0.194190 0.796141
O O9 0.872797 0.857964 0.368145
O O10 0.890640 0.862985 0.447187
O O11 0.201904 0.941186 0.634363
O O12 0.150033 0.737267 0.511412
O O13 0.190317 0.051391 0.555603
O O14 0.000000 0.250000 0.687579
O O15 0.973733 0.000000 0.750000
O O16 0.238077 0.644805 0.584511
#
# Coordination Sequence:
#
# PCOD8296863 Si02
#       7
#    16  16  16  16  16  16  16
#     4  12  23  38  60  86 122 168 217 267 312 356
#     4  11  23  38  62  87 123 171 221 268 310 357
#     4  11  22  41  61  87 121 162 214 254 302 374
#     4  11  21  42  62  88 123 166 216 254 304 376
#     4  11  24  42  69  99 130 164 194 241 308 381
#     4  11  23  36  55  88 133 170 211 262 330 374
#     4  11  24  41  69 102 133 164 192 243 311 381
#
# _framework density 21.433002999999999
#
# number of rings (size 3 to 8) (size 9 to 14) (size 15 to 20)
#    0.000    0.857    2.857    4.714    0.000    8.571 
#    0.000    0.000    0.000   17.143    0.000    0.000 
#    0.000    0.000    0.000    0.000    0.000    0.000 
#
# Total GULP energy -693819.936214 kJ/mol
# GULP energy per Si atom -12389.641718 kJ/mol
# Density = 2.138422 g / cm^3
# Si number density = 21.433003 Si / 1000 Ang^3
#
#
#
# Elastic Constant Matrix: (Units=GPa)
#
#
# Indices 1 2 3 4 5 6 
#
# 1 69.7530 23.3005 48.2094 0.0000 0.0000 0.0000
# 2 23.3005 101.1696 27.6640 0.0000 0.0000 0.0000
# 3 48.2094 27.6640 96.3158 0.0000 0.0000 0.0000
# 4 0.0000 0.0000 0.0000 31.7595 0.0000 0.0000
# 5 0.0000 0.0000 0.0000 0.0000 24.3547 0.0000
# 6 0.0000 0.0000 0.0000 0.0000 0.0000 37.5104
#
#
#
# Elastic Compliance Matrix: (Units=1/GPa)
#
#
# Indices 1 2 3 4 5 6 
#
# 1 0.022389 -0.002270 -0.010555 0.000000 0.000000 0.000000
# 2 -0.002270 0.010957 -0.002011 0.000000 0.000000 0.000000
# 3 -0.010555 -0.002011 0.016243 0.000000 0.000000 0.000000
# 4 0.000000 0.000000 0.000000 0.031487 0.000000 0.000000
# 5 0.000000 0.000000 0.000000 0.000000 0.041060 0.000000
# 6 0.000000 0.000000 0.000000 0.000000 0.000000 0.026659
#
#
# Mechanical properties :
#
#
# Convention : Reuss Voigt Hill
#
# Bulk Modulus (GPa) = 50.20562 51.73180 50.96871
# Shear Modulus (GPa) = 27.01153 29.92922 28.47037
#
# Velocity S-wave (km/s) = 3.55389 3.74091 3.64860
# Velocity P-wave (km/s) = 6.34945 6.54585 6.44839
#
# Compressibility (1/GPa) = 0.01991809
#
# Stress axis : x y z
#
# Youngs Moduli (GPa) = 44.66382 91.26488 61.56516
#
# Poissons Ratio (x) = 0.20722 0.64979
# Poissons Ratio (y) = 0.10141 0.12379
# Poissons Ratio (z) = 0.47141 0.18350
#
# Static dielectric constant tensor:
#      x y z
#    x 3.757950 0.000000 0.000000 
#    y 0.000000 3.680710 0.000000 
#    z 0.000000 0.000000 3.892880 
# 
# 
# High freq. dielectric constant tensor:
#      x y z
#    x 1.829290 0.000000 0.000000 
#    y 0.000000 1.845840 0.000000 
#    z 0.000000 0.000000 1.837060 
# 
# From -- ./inp_files/34923.got.cif
#   From: 2010.03.12/outbox.cif.g09.slc.cpg/sg73_18_cif.got.tgz:34923.got - 2010.04.16 15:25:48.
