data_PCOD8296356
_publ_section_title
;
Structure prediction by ZEFSAII (Michael W. Deem and Ramdas Pophale) SiO2 
 PCOD8296356
Probable space group: I B C A 
;
_chemical_formula_sum "Si O2"
_cell_formula_units_Z 96
_cell_length_a 12.568004
_cell_length_b 16.030734
_cell_length_c 21.257501
_cell_angle_alpha 90.000000
_cell_angle_beta 90.000000
_cell_angle_gamma 90.000000
_cell_volume 4282.840751
_symmetry_space_group_name_H-M "I B C A "
_symmetry_group_IT_number 73
_symmetry_cell_setting 'orthorhombic'
loop_
_space_group_symop_operation_xyz
x,y,z
-x,1/2-y,z
x,-y,1/2-z
1/2-x,y,-z
-x,-y,-z
x,1/2+y,-z
-x,y,1/2+z
1/2+x,-y,z
1/2+x,1/2+y,1/2+z
1/2-x,-y,1/2+z
1/2+x,1/2-y,-z
-x,1/2+y,1/2-z
1/2-x,1/2-y,1/2-z
1/2+x,y,1/2-z
1/2-x,1/2+y,z
x,1/2-y,1/2+z
loop_
_atom_site_type_symbol
_atom_site_label
_atom_site_fract_x
_atom_site_fract_y
_atom_site_fract_z
Si Si1 0.376856 0.255558 0.115161
Si Si2 0.245400 0.165994 0.711205
Si Si3 0.789260 0.581374 0.666311
Si Si4 0.250000 0.544662 0.500000
Si Si5 0.119023 0.416048 0.113335
Si Si6 0.750000 0.222496 0.500000
Si Si7 0.119002 0.414565 0.567644
O O1 0.500000 0.250000 0.100759
O O2 0.349952 0.329049 0.165964
O O3 0.342381 0.165713 0.141409
O O4 0.315370 0.277529 0.050351
O O5 0.250000 0.250000 0.750000
O O6 0.239743 0.088046 0.759234
O O7 0.142677 0.156925 0.664826
O O8 0.867179 0.504982 0.648855
O O9 0.676761 0.566395 0.633273
O O10 0.206148 0.598152 0.441803
O O11 0.147508 0.488494 0.519256
O O12 0.004594 0.406679 0.082539
O O13 0.839258 0.169954 0.536613
#
# Coordination Sequence:
#
# PCOD8296356 Si02
#       7
#    16  16  16   8  16   8  16
#     4  10  22  39  61  86 122 166 205 261 325 381
#     4  10  23  41  57  86 124 157 208 259 298 368
#     4   9  21  41  59  85 121 158 210 261 306 374
#     4   9  20  35  56  94 126 142 198 270 314 374
#     4  11  21  37  65  91 119 163 203 255 324 382
#     4   9  20  39  58  88 128 162 204 258 320 392
#     4   9  19  37  62  87 120 160 198 255 320 376
#
# _framework density 22.415030000000002
#
# number of rings (size 3 to 8) (size 9 to 14) (size 15 to 20)
#    0.000    2.333    0.000    2.000    0.000    8.667 
#    0.000    9.167    0.000    0.000    0.000    0.000 
#    0.000    0.000    0.000    0.000    0.000    0.000 
#
# Total GULP energy -594715.734590 kJ/mol
# GULP energy per Si atom -12389.911137 kJ/mol
# Density = 2.236401 g / cm^3
# Si number density = 22.415030 Si / 1000 Ang^3
#
#
#
# Elastic Constant Matrix: (Units=GPa)
#
#
# Indices 1 2 3 4 5 6 
#
# 1 136.6715 46.6284 68.4515 0.0000 0.0000 0.0000
# 2 46.6284 56.4993 38.2234 0.0000 0.0000 0.0000
# 3 68.4515 38.2234 164.7400 0.0000 0.0000 0.0000
# 4 0.0000 0.0000 0.0000 22.1856 0.0000 0.0000
# 5 0.0000 0.0000 0.0000 0.0000 33.2829 0.0000
# 6 0.0000 0.0000 0.0000 0.0000 0.0000 17.4294
#
#
#
# Elastic Compliance Matrix: (Units=1/GPa)
#
#
# Indices 1 2 3 4 5 6 
#
# 1 0.011315 -0.007304 -0.003007 0.000000 0.000000 0.000000
# 2 -0.007304 0.025709 -0.002930 0.000000 0.000000 0.000000
# 3 -0.003007 -0.002930 0.007999 0.000000 0.000000 0.000000
# 4 0.000000 0.000000 0.000000 0.045074 0.000000 0.000000
# 5 0.000000 0.000000 0.000000 0.000000 0.030046 0.000000
# 6 0.000000 0.000000 0.000000 0.000000 0.000000 0.057374
#
#
# Mechanical properties :
#
#
# Convention : Reuss Voigt Hill
#
# Bulk Modulus (GPa) = 53.93202 73.83525 63.88364
# Shear Modulus (GPa) = 23.78917 28.22008 26.00462
#
# Velocity S-wave (km/s) = 3.26130 3.55206 3.40978
# Velocity P-wave (km/s) = 6.18824 7.05935 6.63810
#
# Compressibility (1/GPa) = 0.01854186
#
# Stress axis : x y z
#
# Youngs Moduli (GPa) = 88.38216 38.89619 125.00904
#
# Poissons Ratio (x) = 0.28408 0.37587
# Poissons Ratio (y) = 0.64551 0.36633
# Poissons Ratio (z) = 0.26574 0.11398
#
# Static dielectric constant tensor:
#      x y z
#    x 3.699760 0.000000 0.000000 
#    y 0.000000 4.020280 0.000000 
#    z 0.000000 0.000000 4.747560 
# 
# 
# High freq. dielectric constant tensor:
#      x y z
#    x 1.855670 0.000000 0.000000 
#    y 0.000000 1.877490 0.000000 
#    z 0.000000 0.000000 1.911390 
# 
# From -- ./inp_files/28958.got.cif
#   From: 2010.03.12/outbox.cif.g09.slc.cpg/sg73_15_cif.got.tgz:28958.got - 2010.04.16 15:25:48.
