data_PCOD8296799
_publ_section_title
;
Structure prediction by ZEFSAII (Michael W. Deem and Ramdas Pophale) SiO2 
 PCOD8296799
Probable space group: I B C A 
;
_chemical_formula_sum "Si O2"
_cell_formula_units_Z 64
_cell_length_a 10.689741
_cell_length_b 27.619918
_cell_length_c 8.515397
_cell_angle_alpha 90.000000
_cell_angle_beta 90.000000
_cell_angle_gamma 90.000000
_cell_volume 2514.169005
_symmetry_space_group_name_H-M "I B C A "
_symmetry_group_IT_number 73
_symmetry_cell_setting 'orthorhombic'
loop_
_space_group_symop_operation_xyz
x,y,z
-x,1/2-y,z
x,-y,1/2-z
1/2-x,y,-z
-x,-y,-z
x,1/2+y,-z
-x,y,1/2+z
1/2+x,-y,z
1/2+x,1/2+y,1/2+z
1/2-x,-y,1/2+z
1/2+x,1/2-y,-z
-x,1/2+y,1/2-z
1/2-x,1/2-y,1/2-z
1/2+x,y,1/2-z
1/2-x,1/2+y,z
x,1/2-y,1/2+z
loop_
_atom_site_type_symbol
_atom_site_label
_atom_site_fract_x
_atom_site_fract_y
_atom_site_fract_z
Si Si1 0.250000 0.528139 0.500000
Si Si2 0.622877 0.218227 0.269568
Si Si3 0.914188 0.910340 0.300423
Si Si4 0.075601 0.500000 0.750000
Si Si5 0.970078 0.342508 0.956103
O O1 0.210026 0.562759 0.356241
O O2 0.149624 0.493514 0.584409
O O3 0.500000 0.250000 0.272901
O O4 0.750000 0.250000 0.250000
O O5 0.594649 0.183207 0.120150
O O6 0.620695 0.191267 0.438753
O O7 0.884086 0.865543 0.182675
O O8 0.982180 0.888308 0.449920
O O9 0.997619 0.951575 0.220400
#
# Coordination Sequence:
#
# PCOD8296799 Si02
#       5
#     8  16  16   8  16
#     4  12  26  42  76 108 146 224 256 322 394 460
#     4  11  26  51  78 114 153 203 261 330 415 489
#     4  11  24  50  69 113 157 201 265 322 384 472
#     4  12  26  46  74 110 168 202 270 316 396 472
#     4  10  25  48  77 113 152 199 259 338 393 482
#
# _framework density 25.455728000000001
#
# number of rings (size 3 to 8) (size 9 to 14) (size 15 to 20)
#    0.000    1.000    2.500    2.250    3.500    8.000 
#    4.500    3.750    0.000    0.000    0.000    0.000 
#    0.000    0.000    0.000    0.000    0.000    0.000 
#
# Total GULP energy -396506.845312 kJ/mol
# GULP energy per Si atom -12390.838916 kJ/mol
# Density = 2.539779 g / cm^3
# Si number density = 25.455728 Si / 1000 Ang^3
#
#
#
# Elastic Constant Matrix: (Units=GPa)
#
#
# Indices 1 2 3 4 5 6 
#
# 1 120.6559 54.4625 51.9621 0.0011 0.0061 -0.0032
# 2 54.4625 110.3182 58.2354 0.0374 -0.0485 -0.0302
# 3 51.9621 58.2354 145.7707 0.0399 -0.0456 -0.0586
# 4 0.0011 0.0374 0.0399 56.3744 -0.0125 -0.0106
# 5 0.0061 -0.0485 -0.0456 -0.0125 30.8729 0.0067
# 6 -0.0032 -0.0302 -0.0586 -0.0106 0.0067 197.9196
#
#
#
# Elastic Compliance Matrix: (Units=1/GPa)
#
#
# Indices 1 2 3 4 5 6 
#
# 1 0.011225 -0.004346 -0.002265 0.000004 -0.000012 -0.000001
# 2 -0.004346 0.013170 -0.003712 -0.000006 0.000016 0.000001
# 3 -0.002265 -0.003712 0.009151 -0.000004 0.000008 0.000002
# 4 0.000004 -0.000006 -0.000004 0.017739 0.000007 0.000001
# 5 -0.000012 0.000016 0.000008 0.000007 0.032391 -0.000001
# 6 -0.000001 0.000001 0.000002 0.000001 -0.000001 0.005053
#
#
# Mechanical properties :
#
#
# Convention : Reuss Voigt Hill
#
# Bulk Modulus (GPa) = 77.52541 78.45165 77.98853
# Shear Modulus (GPa) = 43.98539 71.17237 57.57888
#
# Velocity S-wave (km/s) = 4.16133 5.29339 4.76113
# Velocity P-wave (km/s) = 7.32189 8.26110 7.80563
#
# Compressibility (1/GPa) = 0.01289900
#
# Stress axis : x y z
#
# Youngs Moduli (GPa) = 89.08442 75.93103 109.28293
#
# Poissons Ratio (x) = 0.33000 0.24755
# Poissons Ratio (y) = 0.38716 0.40567
# Poissons Ratio (z) = 0.20179 0.28187
#
# Static dielectric constant tensor:
#      x y z
#    x 3.927860 -0.000060 0.000390 
#    y -0.000060 4.541180 0.000790 
#    z 0.000390 0.000790 4.077580 
# 
# 
# High freq. dielectric constant tensor:
#      x y z
#    x 1.987640 0.000000 0.000000 
#    y 0.000000 2.032010 0.000000 
#    z 0.000000 0.000000 2.042010 
# 
# From -- ./inp_files/4016.got.cif
#   From: 2010.03.12/outbox.cif.g09.slc.cpg/sg73_3_cif.got.tgz:4016.got - 2010.04.16 15:25:48.
