data_PCOD8296511
_publ_section_title
;
Structure prediction by ZEFSAII (Michael W. Deem and Ramdas Pophale) SiO2 
 PCOD8296511
Probable space group: I B C A 
;
_chemical_formula_sum "Si O2"
_cell_formula_units_Z 72
_cell_length_a 29.466719
_cell_length_b 9.175169
_cell_length_c 12.919687
_cell_angle_alpha 90.000000
_cell_angle_beta 90.000000
_cell_angle_gamma 90.000000
_cell_volume 3492.994054
_symmetry_space_group_name_H-M "I B C A "
_symmetry_group_IT_number 73
_symmetry_cell_setting 'orthorhombic'
loop_
_space_group_symop_operation_xyz
x,y,z
-x,1/2-y,z
x,-y,1/2-z
1/2-x,y,-z
-x,-y,-z
x,1/2+y,-z
-x,y,1/2+z
1/2+x,-y,z
1/2+x,1/2+y,1/2+z
1/2-x,-y,1/2+z
1/2+x,1/2-y,-z
-x,1/2+y,1/2-z
1/2-x,1/2-y,1/2-z
1/2+x,y,1/2-z
1/2-x,1/2+y,z
x,1/2-y,1/2+z
loop_
_atom_site_type_symbol
_atom_site_label
_atom_site_fract_x
_atom_site_fract_y
_atom_site_fract_z
Si Si1 0.792035 0.954498 0.635468
Si Si2 0.955504 0.667835 0.772463
Si Si3 0.603667 0.383978 0.668879
Si Si4 0.967564 0.866389 0.503808
Si Si5 0.750000 0.798381 0.000000
O O1 0.843844 0.908431 0.648025
O O2 0.769522 0.807242 0.589644
O O3 0.772721 0.000000 0.750000
O O4 0.786038 0.092794 0.557135
O O5 0.961321 0.500000 0.750000
O O6 0.909704 0.725776 0.715614
O O7 0.950704 0.695292 0.894280
O O8 0.000000 0.750000 0.729653
O O9 0.584204 0.500000 0.750000
O O10 0.578324 0.407238 0.561640
O O11 0.000000 0.750000 0.561187
O O12 0.000000 0.000000 0.500000
#
# Coordination Sequence:
#
# PCOD8296511 Si02
#       5
#    16  16  16  16   8
#     4  10  23  42  67  96 127 162 206 264 323 395
#     4  11  22  37  57  83 119 164 207 252 304 360
#     4  11  23  39  58  86 121 156 202 256 306 366
#     4  11  22  35  55  81 115 159 201 241 290 350
#     4  10  22  44  70  94 124 164 206 258 336 402
#
# _framework density 20.612689
#
# number of rings (size 3 to 8) (size 9 to 14) (size 15 to 20)
#    0.000    1.333    0.000    7.333    0.000    7.111 
#    0.000    5.556    0.000    0.000    0.000    0.000 
#    0.000    0.000    0.000    0.000    0.000    0.000 
#
# Total GULP energy -446078.654821 kJ/mol
# GULP energy per Si atom -12391.073745 kJ/mol
# Density = 2.056577 g / cm^3
# Si number density = 20.612689 Si / 1000 Ang^3
#
#
#
# Elastic Constant Matrix: (Units=GPa)
#
#
# Indices 1 2 3 4 5 6 
#
# 1 114.4804 65.7744 61.4429 0.0000 0.0000 0.0000
# 2 65.7744 166.1685 47.6121 0.0000 0.0000 0.0000
# 3 61.4429 47.6121 128.2395 0.0000 0.0000 0.0000
# 4 0.0000 0.0000 0.0000 37.8663 0.0000 0.0000
# 5 0.0000 0.0000 0.0000 0.0000 34.3192 0.0000
# 6 0.0000 0.0000 0.0000 0.0000 0.0000 29.6115
#
#
#
# Elastic Compliance Matrix: (Units=1/GPa)
#
#
# Indices 1 2 3 4 5 6 
#
# 1 0.013772 -0.003985 -0.005119 0.000000 0.000000 0.000000
# 2 -0.003985 0.007887 -0.001019 0.000000 0.000000 0.000000
# 3 -0.005119 -0.001019 0.010629 0.000000 0.000000 0.000000
# 4 0.000000 0.000000 0.000000 0.026409 0.000000 0.000000
# 5 0.000000 0.000000 0.000000 0.000000 0.029138 0.000000
# 6 0.000000 0.000000 0.000000 0.000000 0.000000 0.033771
#
#
# Mechanical properties :
#
#
# Convention : Reuss Voigt Hill
#
# Bulk Modulus (GPa) = 83.04011 84.28302 83.66156
# Shear Modulus (GPa) = 34.27812 35.96334 35.12073
#
# Velocity S-wave (km/s) = 4.08237 4.18151 4.13224
# Velocity P-wave (km/s) = 7.91166 8.01817 7.96509
#
# Compressibility (1/GPa) = 0.01204237
#
# Stress axis : x y z
#
# Youngs Moduli (GPa) = 72.61155 126.78725 94.08202
#
# Poissons Ratio (x) = 0.50519 0.48162
# Poissons Ratio (y) = 0.28932 0.09589
# Poissons Ratio (z) = 0.37171 0.12923
#
# Static dielectric constant tensor:
#      x y z
#    x 3.406230 0.000000 0.000000 
#    y 0.000000 4.084830 0.000000 
#    z 0.000000 0.000000 3.943450 
# 
# 
# High freq. dielectric constant tensor:
#      x y z
#    x 1.779210 0.000000 0.000000 
#    y 0.000000 1.822440 0.000000 
#    z 0.000000 0.000000 1.834390 
# 
# From -- ./inp_files/15513.got.cif
#   From: 2010.03.12/outbox.cif.g09.slc.cpg/sg73_8_cif.got.tgz:15513.got - 2010.04.16 15:25:48.
