data_PCOD8296605
_publ_section_title
;
Structure prediction by ZEFSAII (Michael W. Deem and Ramdas Pophale) SiO2 
 PCOD8296605
Probable space group: I B C A 
;
_chemical_formula_sum "Si O2"
_cell_formula_units_Z 72
_cell_length_a 8.185215
_cell_length_b 27.000424
_cell_length_c 14.195524
_cell_angle_alpha 90.000000
_cell_angle_beta 90.000000
_cell_angle_gamma 90.000000
_cell_volume 3137.271497
_symmetry_space_group_name_H-M "I B C A "
_symmetry_group_IT_number 73
_symmetry_cell_setting 'orthorhombic'
loop_
_space_group_symop_operation_xyz
x,y,z
-x,1/2-y,z
x,-y,1/2-z
1/2-x,y,-z
-x,-y,-z
x,1/2+y,-z
-x,y,1/2+z
1/2+x,-y,z
1/2+x,1/2+y,1/2+z
1/2-x,-y,1/2+z
1/2+x,1/2-y,-z
-x,1/2+y,1/2-z
1/2-x,1/2-y,1/2-z
1/2+x,y,1/2-z
1/2-x,1/2+y,z
x,1/2-y,1/2+z
loop_
_atom_site_type_symbol
_atom_site_label
_atom_site_fract_x
_atom_site_fract_y
_atom_site_fract_z
Si Si1 0.488430 0.863158 0.619574
Si Si2 0.000000 0.750000 0.635286
Si Si3 0.750000 0.989582 0.000000
Si Si4 0.475239 0.571394 0.449496
Si Si5 0.250000 0.296026 0.500000
Si Si6 0.846388 0.848518 0.690421
O O1 0.534475 0.912207 0.560201
O O2 0.394760 0.827348 0.547578
O O3 0.658509 0.840926 0.660449
O O4 0.365435 0.873833 0.706788
O O5 0.161184 0.761579 0.575235
O O6 0.057431 0.703705 0.698553
O O7 0.847936 0.952436 0.069287
O O8 0.645228 0.025323 0.067303
O O9 0.441773 0.617854 0.384277
#
# Coordination Sequence:
#
# PCOD8296605 Si02
#       6
#    16   8   8  16   8  16
#     4  12  26  47  73 104 149 194 237 308 358 433
#     4  12  26  44  72 110 142 204 238 298 354 442
#     4  10  23  43  82 100 140 192 241 299 380 420
#     4  11  23  49  72 107 144 191 239 306 361 436
#     4  12  25  43  74 102 146 194 249 289 366 422
#     4  12  27  46  71 109 151 190 251 294 363 433
#
# _framework density 22.94988
#
# number of rings (size 3 to 8) (size 9 to 14) (size 15 to 20)
#    0.000    0.444    4.444    3.333    3.111    4.444 
#    0.000    6.667    0.000    0.000    0.000    0.000 
#    0.000    0.000    0.000    0.000    0.000    0.000 
#
# Total GULP energy -446224.955831 kJ/mol
# GULP energy per Si atom -12395.137662 kJ/mol
# Density = 2.289765 g / cm^3
# Si number density = 22.949880 Si / 1000 Ang^3
#
#
#
# Elastic Constant Matrix: (Units=GPa)
#
#
# Indices 1 2 3 4 5 6 
#
# 1 121.6737 54.7457 32.5560 0.0001 0.0000 0.0000
# 2 54.7457 107.2889 37.6893 -0.0001 0.0000 0.0000
# 3 32.5560 37.6893 115.0815 -0.0001 -0.0001 0.0000
# 4 0.0001 -0.0001 -0.0001 6.2158 0.0000 0.0001
# 5 0.0000 0.0000 -0.0001 0.0000 39.5374 0.0000
# 6 0.0000 0.0000 0.0000 0.0001 0.0000 32.7731
#
#
#
# Elastic Compliance Matrix: (Units=1/GPa)
#
#
# Indices 1 2 3 4 5 6 
#
# 1 0.010870 -0.005047 -0.001422 0.000000 0.000000 0.000000
# 2 -0.005047 0.012876 -0.002789 0.000000 0.000000 0.000000
# 3 -0.001422 -0.002789 0.010005 0.000000 0.000000 0.000000
# 4 0.000000 0.000000 0.000000 0.160881 0.000000 0.000000
# 5 0.000000 0.000000 0.000000 0.000000 0.025293 0.000000
# 6 0.000000 0.000000 0.000000 0.000000 0.000000 0.030513
#
#
# Mechanical properties :
#
#
# Convention : Reuss Voigt Hill
#
# Bulk Modulus (GPa) = 65.64030 66.00290 65.82160
# Shear Modulus (GPa) = 18.24604 30.30878 24.27741
#
# Velocity S-wave (km/s) = 2.82270 3.63802 3.25598
# Velocity P-wave (km/s) = 6.26795 6.81681 6.54813
#
# Compressibility (1/GPa) = 0.01523454
#
# Stress axis : x y z
#
# Youngs Moduli (GPa) = 91.99551 77.66566 99.94772
#
# Poissons Ratio (x) = 0.39198 0.14215
# Poissons Ratio (y) = 0.46430 0.27876
# Poissons Ratio (z) = 0.13084 0.21661
#
# Static dielectric constant tensor:
#      x y z
#    x 4.490320 0.000000 0.000000 
#    y 0.000000 4.173930 0.000000 
#    z 0.000000 0.000000 3.963490 
# 
# 
# High freq. dielectric constant tensor:
#      x y z
#    x 1.936020 0.000000 0.000000 
#    y 0.000000 1.909250 0.000000 
#    z 0.000000 0.000000 1.879930 
# 
# From -- ./inp_files/4850.got.cif
#   From: 2010.03.12/outbox.cif.g09.slc.cpg/sg73_3_cif.got.tgz:4850.got - 2010.04.16 15:25:48.
