data_PCOD8296006
_publ_section_title
;
Structure prediction by ZEFSAII (Michael W. Deem and Ramdas Pophale) SiO2 
 PCOD8296006
Probable space group: I B C A 
;
_chemical_formula_sum "Si O2"
_cell_formula_units_Z 120
_cell_length_a 15.871219
_cell_length_b 22.239081
_cell_length_c 16.835355
_cell_angle_alpha 90.000000
_cell_angle_beta 90.000000
_cell_angle_gamma 90.000000
_cell_volume 5942.229206
_symmetry_space_group_name_H-M "I B C A "
_symmetry_group_IT_number 73
_symmetry_cell_setting 'orthorhombic'
loop_
_space_group_symop_operation_xyz
x,y,z
-x,1/2-y,z
x,-y,1/2-z
1/2-x,y,-z
-x,-y,-z
x,1/2+y,-z
-x,y,1/2+z
1/2+x,-y,z
1/2+x,1/2+y,1/2+z
1/2-x,-y,1/2+z
1/2+x,1/2-y,-z
-x,1/2+y,1/2-z
1/2-x,1/2-y,1/2-z
1/2+x,y,1/2-z
1/2-x,1/2+y,z
x,1/2-y,1/2+z
loop_
_atom_site_type_symbol
_atom_site_label
_atom_site_fract_x
_atom_site_fract_y
_atom_site_fract_z
Si Si1 0.254187 0.527535 0.667301
Si Si2 0.105316 0.532225 0.929242
Si Si3 0.932927 0.488022 0.894030
Si Si4 0.000000 0.250000 0.265792
Si Si5 0.230456 0.654677 0.270728
Si Si6 0.838386 0.229263 0.664055
Si Si7 0.419347 0.145867 0.150768
Si Si8 0.655532 0.841718 0.014820
O O1 0.225423 0.500000 0.750000
O O2 0.190885 0.498313 0.603476
O O3 0.352747 0.512899 0.653597
O O4 0.242750 0.599596 0.672607
O O5 0.110993 0.603686 0.939386
O O6 0.021376 0.521894 0.875074
O O7 0.090821 0.501890 0.014423
O O8 0.953773 0.419435 0.871227
O O9 0.922723 0.254276 0.207697
O O10 0.993293 0.190555 0.320690
O O11 0.222949 0.713201 0.327317
O O12 0.300538 0.669233 0.204347
O O13 0.146999 0.638238 0.221847
O O14 0.852042 0.216973 0.570678
O O15 0.381785 0.175470 0.070796
O O16 0.750000 0.863059 0.000000
#
# Coordination Sequence:
#
# PCOD8296006 Si02
#       8
#    16  16  16   8  16  16  16  16
#     4  12  22  37  64  95 122 162 210 254 320 384
#     4  10  23  39  63  90 125 166 209 260 314 385
#     4  10  22  42  60  90 130 166 204 264 319 372
#     4  10  24  38  62  92 130 162 206 266 324 374
#     4  10  21  39  61  89 123 161 203 260 318 370
#     4  10  22  40  60  89 122 161 207 259 314 372
#     4  10  20  40  63  88 124 169 206 258 317 374
#     4  11  20  39  68  87 118 170 221 254 312 390
#
# _framework density 20.194441999999999
#
# number of rings (size 3 to 8) (size 9 to 14) (size 15 to 20)
#    0.000    1.600    2.667    2.800    1.867    3.200 
#    0.000    4.000    0.000    0.000    0.000    0.000 
#    0.000    0.000    0.000    0.000    0.000    0.000 
#
# Total GULP energy -743843.455025 kJ/mol
# GULP energy per Si atom -12397.390917 kJ/mol
# Density = 2.014848 g / cm^3
# Si number density = 20.194442 Si / 1000 Ang^3
#
#
#
# Elastic Constant Matrix: (Units=GPa)
#
#
# Indices 1 2 3 4 5 6 
#
# 1 77.2964 19.4817 8.3476 0.0000 0.0000 0.0000
# 2 19.4817 88.1425 29.1374 0.0004 0.0000 0.0000
# 3 8.3476 29.1374 75.6404 0.0006 -0.0001 0.0000
# 4 0.0000 0.0004 0.0006 30.7225 -0.0001 0.0000
# 5 0.0000 0.0000 -0.0001 -0.0001 35.1453 0.0000
# 6 0.0000 0.0000 0.0000 0.0000 0.0000 13.5627
#
#
#
# Elastic Compliance Matrix: (Units=1/GPa)
#
#
# Indices 1 2 3 4 5 6 
#
# 1 0.013711 -0.002899 -0.000396 0.000000 0.000000 0.000000
# 2 -0.002899 0.013614 -0.004924 0.000000 0.000000 0.000000
# 3 -0.000396 -0.004924 0.015161 0.000000 0.000000 0.000000
# 4 0.000000 0.000000 0.000000 0.032549 0.000000 0.000000
# 5 0.000000 0.000000 0.000000 0.000000 0.028453 0.000000
# 6 0.000000 0.000000 0.000000 0.000000 0.000000 0.073731
#
#
# Mechanical properties :
#
#
# Convention : Reuss Voigt Hill
#
# Bulk Modulus (GPa) = 38.39367 39.44584 38.91976
# Shear Modulus (GPa) = 24.71067 28.16027 26.43547
#
# Velocity S-wave (km/s) = 3.50185 3.73829 3.62200
# Velocity P-wave (km/s) = 5.95011 6.18131 6.06681
#
# Compressibility (1/GPa) = 0.02604596
#
# Stress axis : x y z
#
# Youngs Moduli (GPa) = 72.93527 73.45413 65.95858
#
# Poissons Ratio (x) = 0.21298 0.02613
# Poissons Ratio (y) = 0.21147 0.32480
# Poissons Ratio (z) = 0.02890 0.36171
#
# Static dielectric constant tensor:
#      x y z
#    x 5.318850 0.000000 0.000000 
#    y 0.000000 3.739770 0.000000 
#    z 0.000000 0.000000 3.798320 
# 
# 
# High freq. dielectric constant tensor:
#      x y z
#    x 1.785930 0.000000 0.000000 
#    y 0.000000 1.785890 0.000000 
#    z 0.000000 0.000000 1.787530 
# 
# From -- ./inp_files/22817.got.cif
#   From: 2010.03.12/outbox.cif.g09.slc.cpg/sg73_12_cif.got.tgz:22817.got - 2010.04.16 15:25:48.
