data_PCOD8296973
_publ_section_title
;
Structure prediction by ZEFSAII (Michael W. Deem and Ramdas Pophale) SiO2 
 PCOD8296973
Probable space group: I B C A 
;
_chemical_formula_sum "Si O2"
_cell_formula_units_Z 64
_cell_length_a 11.843820
_cell_length_b 9.560048
_cell_length_c 25.253529
_cell_angle_alpha 90.000000
_cell_angle_beta 90.000000
_cell_angle_gamma 90.000000
_cell_volume 2859.393644
_symmetry_space_group_name_H-M "I B C A "
_symmetry_group_IT_number 73
_symmetry_cell_setting 'orthorhombic'
loop_
_space_group_symop_operation_xyz
x,y,z
-x,1/2-y,z
x,-y,1/2-z
1/2-x,y,-z
-x,-y,-z
x,1/2+y,-z
-x,y,1/2+z
1/2+x,-y,z
1/2+x,1/2+y,1/2+z
1/2-x,-y,1/2+z
1/2+x,1/2-y,-z
-x,1/2+y,1/2-z
1/2-x,1/2-y,1/2-z
1/2+x,y,1/2-z
1/2-x,1/2+y,z
x,1/2-y,1/2+z
loop_
_atom_site_type_symbol
_atom_site_label
_atom_site_fract_x
_atom_site_fract_y
_atom_site_fract_z
Si Si1 0.214888 0.653744 0.584225
Si Si2 0.702455 0.401460 0.846110
Si Si3 0.500000 0.750000 0.709755
Si Si4 0.075806 0.870831 0.983748
Si Si5 0.356099 0.000000 0.250000
O O1 0.225446 0.788312 0.621521
O O2 0.160367 0.526057 0.616322
O O3 0.333208 0.593536 0.561329
O O4 0.134137 0.694498 0.535898
O O5 0.589238 0.331449 0.825567
O O6 0.777505 0.472729 0.800499
O O7 0.433506 0.637434 0.745091
O O8 0.000000 0.750000 0.958273
O O9 0.000000 0.000000 0.000000
#
# Coordination Sequence:
#
# PCOD8296973 Si02
#       5
#    16  16   8  16   8
#     4  11  26  43  70 104 142 186 238 293 350 430
#     4  12  26  48  70 106 146 186 241 297 354 431
#     4  12  28  46  76 102 142 190 240 288 378 422
#     4  11  24  44  69 101 143 185 234 292 357 420
#     4  12  28  50  72 106 146 186 240 312 348 432
#
# _framework density 22.382368
#
# number of rings (size 3 to 8) (size 9 to 14) (size 15 to 20)
#    0.000    0.500    2.500    4.500    8.750    6.000 
#    0.000    0.000    0.000    0.000    0.000    0.000 
#    0.000    0.000    0.000    0.000    0.000    0.000 
#
# Total GULP energy -396914.916906 kJ/mol
# GULP energy per Si atom -12403.591153 kJ/mol
# Density = 2.233142 g / cm^3
# Si number density = 22.382368 Si / 1000 Ang^3
#
#
#
# Elastic Constant Matrix: (Units=GPa)
#
#
# Indices 1 2 3 4 5 6 
#
# 1 94.5133 19.0285 24.9391 0.0000 0.0000 0.0000
# 2 19.0285 104.4070 23.9624 0.0000 0.0000 0.0000
# 3 24.9391 23.9624 90.0627 0.0000 0.0000 0.0000
# 4 0.0000 0.0000 0.0000 46.5997 0.0000 0.0000
# 5 0.0000 0.0000 0.0000 0.0000 10.0584 0.0000
# 6 0.0000 0.0000 0.0000 0.0000 0.0000 51.9439
#
#
#
# Elastic Compliance Matrix: (Units=1/GPa)
#
#
# Indices 1 2 3 4 5 6 
#
# 1 0.011622 -0.001469 -0.002827 0.000000 0.000000 0.000000
# 2 -0.001469 0.010387 -0.002357 0.000000 0.000000 0.000000
# 3 -0.002827 -0.002357 0.012513 0.000000 0.000000 0.000000
# 4 0.000000 0.000000 0.000000 0.021459 0.000000 0.000000
# 5 0.000000 0.000000 0.000000 0.000000 0.099419 0.000000
# 6 0.000000 0.000000 0.000000 0.000000 0.000000 0.019252
#
#
# Mechanical properties :
#
#
# Convention : Reuss Voigt Hill
#
# Bulk Modulus (GPa) = 47.13509 47.20476 47.16993
# Shear Modulus (GPa) = 25.63696 36.45727 31.04712
#
# Velocity S-wave (km/s) = 3.38806 4.04027 3.72845
# Velocity P-wave (km/s) = 6.03407 6.54988 6.29726
#
# Compressibility (1/GPa) = 0.02121562
#
# Stress axis : x y z
#
# Youngs Moduli (GPa) = 86.04072 96.27831 79.91487
#
# Poissons Ratio (x) = 0.14146 0.22595
# Poissons Ratio (y) = 0.12642 0.18833
# Poissons Ratio (z) = 0.24327 0.22689
#
# Static dielectric constant tensor:
#      x y z
#    x 4.304040 0.000000 0.000000 
#    y 0.000000 4.115060 0.000000 
#    z 0.000000 0.000000 4.278690 
# 
# 
# High freq. dielectric constant tensor:
#      x y z
#    x 1.888930 0.000000 0.000000 
#    y 0.000000 1.896810 0.000000 
#    z 0.000000 0.000000 1.891680 
# 
# From -- ./inp_files/4043.got.cif
#   From: 2010.03.12/outbox.cif.g09.slc.cpg/sg73_3_cif.got.tgz:4043.got - 2010.04.16 15:25:48.
