data_PCOD8296384
_publ_section_title
;
Structure prediction by ZEFSAII (Michael W. Deem and Ramdas Pophale) SiO2 
 PCOD8296384
Probable space group: I B C A 
;
_chemical_formula_sum "Si O2"
_cell_formula_units_Z 72
_cell_length_a 16.976732
_cell_length_b 20.630520
_cell_length_c 9.881503
_cell_angle_alpha 90.000000
_cell_angle_beta 90.000000
_cell_angle_gamma 90.000000
_cell_volume 3460.885842
_symmetry_space_group_name_H-M "I B C A "
_symmetry_group_IT_number 73
_symmetry_cell_setting 'orthorhombic'
loop_
_space_group_symop_operation_xyz
x,y,z
-x,1/2-y,z
x,-y,1/2-z
1/2-x,y,-z
-x,-y,-z
x,1/2+y,-z
-x,y,1/2+z
1/2+x,-y,z
1/2+x,1/2+y,1/2+z
1/2-x,-y,1/2+z
1/2+x,1/2-y,-z
-x,1/2+y,1/2-z
1/2-x,1/2-y,1/2-z
1/2+x,y,1/2-z
1/2-x,1/2+y,z
x,1/2-y,1/2+z
loop_
_atom_site_type_symbol
_atom_site_label
_atom_site_fract_x
_atom_site_fract_y
_atom_site_fract_z
Si Si1 0.672761 0.876408 0.816778
Si Si2 0.411266 0.674893 0.073559
Si Si3 0.411266 0.325107 0.926441
Si Si4 0.750000 0.000000 0.250000
Si Si5 0.172762 0.376408 0.816779
O O1 0.651133 0.846369 0.960376
O O2 0.602051 0.866115 0.710257
O O3 0.693200 0.952979 0.839463
O O4 0.750000 0.841545 0.750000
O O5 0.500000 0.661294 0.022430
O O6 0.399128 0.750000 0.108006
O O7 0.397949 0.633885 0.210256
O O8 0.348867 0.346369 0.039624
O O9 0.693200 0.952979 0.339463
#
# Coordination Sequence:
#
# PCOD8296384 Si02
#       5
#    16  16  16   8  16
#     4  10  22  40  64  82 123 157 197 242 293 338
#     4  11  23  39  60  92 124 151 191 245 300 354
#     4  11  23  39  60  92 124 151 191 245 300 354
#     4   8  24  42  60  86 120 150 206 256 268 346
#     4  10  22  40  64  82 123 157 197 242 293 338
#
# _framework density 20.803922
#
# number of rings (size 3 to 8) (size 9 to 14) (size 15 to 20)
#    1.333    0.444    0.000    4.000    0.000   12.444 
#    0.000    6.667    0.000    0.000    0.000    0.000 
#    0.000    0.000    0.000    0.000    0.000    0.000 
#
# Total GULP energy -446129.253233 kJ/mol
# GULP energy per Si atom -12392.479256 kJ/mol
# Density = 2.075657 g / cm^3
# Si number density = 20.803922 Si / 1000 Ang^3
#
#
#
# Elastic Constant Matrix: (Units=GPa)
#
#
# Indices 1 2 3 4 5 6 
#
# 1 71.7954 53.3921 9.4103 0.0000 0.0000 0.0000
# 2 53.3921 117.3121 37.5633 0.0000 0.0000 0.0000
# 3 9.4103 37.5633 94.7035 0.0000 0.0000 0.0000
# 4 0.0000 0.0000 0.0000 3.0805 0.0000 0.0000
# 5 0.0000 0.0000 0.0000 0.0000 36.5099 0.0000
# 6 0.0000 0.0000 0.0000 0.0000 0.0000 20.0965
#
#
#
# Elastic Compliance Matrix: (Units=1/GPa)
#
#
# Indices 1 2 3 4 5 6 
#
# 1 0.021376 -0.010365 0.001987 0.000000 0.000000 0.000000
# 2 -0.010365 0.014790 -0.004837 0.000000 0.000000 0.000000
# 3 0.001987 -0.004837 0.012280 0.000000 0.000000 0.000000
# 4 0.000000 0.000000 0.000000 0.324619 0.000000 0.000000
# 5 0.000000 0.000000 0.000000 0.000000 0.027390 0.000000
# 6 0.000000 0.000000 0.000000 0.000000 0.000000 0.049760
#
#
# Mechanical properties :
#
#
# Convention : Reuss Voigt Hill
#
# Bulk Modulus (GPa) = 45.41785 53.83803 49.62794
# Shear Modulus (GPa) = 10.33091 24.16709 17.24900
#
# Velocity S-wave (km/s) = 2.23084 3.41201 2.88257
# Velocity P-wave (km/s) = 5.33988 6.43874 5.91488
#
# Compressibility (1/GPa) = 0.02201777
#
# Stress axis : x y z
#
# Youngs Moduli (GPa) = 46.78063 67.61102 81.43195
#
# Poissons Ratio (x) = 0.70081 -0.16182
# Poissons Ratio (y) = 0.48490 0.39385
# Poissons Ratio (z) = -0.09296 0.32701
#
# Static dielectric constant tensor:
#      x y z
#    x 3.859300 0.000000 0.000000 
#    y 0.000000 3.591870 0.000000 
#    z 0.000000 0.000000 3.538720 
# 
# 
# High freq. dielectric constant tensor:
#      x y z
#    x 1.818650 0.000000 0.000000 
#    y 0.000000 1.798160 0.000000 
#    z 0.000000 0.000000 1.807480 
# 
# From -- ./inp_files/11757.got.cif
#   From: 2010.03.12/outbox.cif.g09.slc.cpg/sg73_6_cif.got.tgz:11757.got - 2010.04.16 15:25:48.
