data_PCOD8296049
_publ_section_title
;
Structure prediction by ZEFSAII (Michael W. Deem and Ramdas Pophale) SiO2 
 PCOD8296049
Probable space group: I B C A 
;
_chemical_formula_sum "Si O2"
_cell_formula_units_Z 112
_cell_length_a 12.115474
_cell_length_b 14.396251
_cell_length_c 29.045604
_cell_angle_alpha 90.000000
_cell_angle_beta 90.000000
_cell_angle_gamma 90.000000
_cell_volume 5066.058867
_symmetry_space_group_name_H-M "I B C A "
_symmetry_group_IT_number 73
_symmetry_cell_setting 'orthorhombic'
loop_
_space_group_symop_operation_xyz
x,y,z
-x,1/2-y,z
x,-y,1/2-z
1/2-x,y,-z
-x,-y,-z
x,1/2+y,-z
-x,y,1/2+z
1/2+x,-y,z
1/2+x,1/2+y,1/2+z
1/2-x,-y,1/2+z
1/2+x,1/2-y,-z
-x,1/2+y,1/2-z
1/2-x,1/2-y,1/2-z
1/2+x,y,1/2-z
1/2-x,1/2+y,z
x,1/2-y,1/2+z
loop_
_atom_site_type_symbol
_atom_site_label
_atom_site_fract_x
_atom_site_fract_y
_atom_site_fract_z
Si Si1 0.365884 0.519937 0.078787
Si Si2 0.750000 0.431300 0.500000
Si Si3 0.022455 0.845074 0.109388
Si Si4 0.000000 0.250000 0.724022
Si Si5 0.635486 0.874073 0.665231
Si Si6 0.813936 0.078246 0.352573
Si Si7 0.345809 0.231120 0.693832
Si Si8 0.433830 0.345292 0.936520
O O1 0.385368 0.410539 0.088519
O O2 0.303571 0.568458 0.121551
O O3 0.477733 0.572526 0.067093
O O4 0.289430 0.510413 0.035097
O O5 0.653232 0.366531 0.477778
O O6 0.063093 0.811518 0.159691
O O7 0.000000 0.750000 0.080035
O O8 0.908521 0.901401 0.110102
O O9 0.974646 0.338498 0.691123
O O10 0.894485 0.223487 0.754963
O O11 0.736894 0.828877 0.691484
O O12 0.633174 0.842586 0.611613
O O13 0.648558 0.983910 0.672348
O O14 0.810879 0.162455 0.316672
O O15 0.500000 0.250000 0.946367
#
# Coordination Sequence:
#
# PCOD8296049 Si02
#       8
#    16   8  16   8  16  16  16  16
#     4  12  23  43  74 107 141 187 242 302 373 442
#     4  12  26  46  70 108 148 182 252 310 356 460
#     4  10  20  41  70  96 141 187 234 289 360 431
#     4  12  26  44  68 102 148 186 244 310 350 428
#     4  12  24  45  70 102 146 191 241 303 371 439
#     4  11  22  40  73 100 137 190 239 293 372 435
#     4  11  23  46  66 103 144 188 244 300 359 437
#     4  12  26  47  72 105 147 193 239 300 384 447
#
# _framework density 22.107914999999998
#
# number of rings (size 3 to 8) (size 9 to 14) (size 15 to 20)
#    0.000    0.571    7.143    1.714    0.000    2.857 
#    0.000    0.000    0.000    0.000    0.000    0.000 
#    0.000    0.000    0.000    0.000    0.000    0.000 
#
# Total GULP energy -694127.830764 kJ/mol
# GULP energy per Si atom -12395.139835 kJ/mol
# Density = 2.205760 g / cm^3
# Si number density = 22.107915 Si / 1000 Ang^3
#
#
#
# Elastic Constant Matrix: (Units=GPa)
#
#
# Indices 1 2 3 4 5 6 
#
# 1 120.8354 66.0804 42.7530 0.0000 0.0000 0.0000
# 2 66.0804 162.2902 42.6537 0.0000 0.0000 0.0000
# 3 42.7530 42.6537 78.3795 0.0000 0.0000 0.0000
# 4 0.0000 0.0000 0.0000 18.9494 0.0000 0.0000
# 5 0.0000 0.0000 0.0000 0.0000 32.0537 0.0000
# 6 0.0000 0.0000 0.0000 0.0000 0.0000 46.0429
#
#
#
# Elastic Compliance Matrix: (Units=1/GPa)
#
#
# Indices 1 2 3 4 5 6 
#
# 1 0.011857 -0.003650 -0.004481 0.000000 0.000000 0.000000
# 2 -0.003650 0.008314 -0.002533 0.000000 0.000000 0.000000
# 3 -0.004481 -0.002533 0.016581 0.000000 0.000000 0.000000
# 4 0.000000 0.000000 0.000000 0.052772 0.000000 0.000000
# 5 0.000000 0.000000 0.000000 0.000000 0.031198 0.000000
# 6 0.000000 0.000000 0.000000 0.000000 0.000000 0.021719
#
#
# Mechanical properties :
#
#
# Convention : Reuss Voigt Hill
#
# Bulk Modulus (GPa) = 64.83816 73.83102 69.33459
# Shear Modulus (GPa) = 29.60115 33.41038 31.50577
#
# Velocity S-wave (km/s) = 3.66312 3.89169 3.77913
# Velocity P-wave (km/s) = 6.87626 7.32543 7.10439
#
# Compressibility (1/GPa) = 0.01542302
#
# Stress axis : x y z
#
# Youngs Moduli (GPa) = 84.33511 120.28043 60.30835
#
# Poissons Ratio (x) = 0.43905 0.27026
# Poissons Ratio (y) = 0.30784 0.15278
# Poissons Ratio (z) = 0.37793 0.30471
#
# Static dielectric constant tensor:
#      x y z
#    x 4.282220 0.000000 0.000000 
#    y 0.000000 4.185680 0.000000 
#    z 0.000000 0.000000 3.857010 
# 
# 
# High freq. dielectric constant tensor:
#      x y z
#    x 1.890610 0.000000 0.000000 
#    y 0.000000 1.878240 0.000000 
#    z 0.000000 0.000000 1.851930 
# 
# From -- ./inp_files/34081.got.cif
#   From: 2010.03.12/outbox.cif.g09.slc.cpg/sg73_18_cif.got.tgz:34081.got - 2010.04.16 15:25:48.
