data_PCOD8296207
_publ_section_title
;
Structure prediction by ZEFSAII (Michael W. Deem and Ramdas Pophale) SiO2 
 PCOD8296207
Probable space group: I B C A 
;
_chemical_formula_sum "Si O2"
_cell_formula_units_Z 80
_cell_length_a 16.352097
_cell_length_b 23.069091
_cell_length_c 9.538112
_cell_angle_alpha 90.000000
_cell_angle_beta 90.000000
_cell_angle_gamma 90.000000
_cell_volume 3598.043045
_symmetry_space_group_name_H-M "I B C A "
_symmetry_group_IT_number 73
_symmetry_cell_setting 'orthorhombic'
loop_
_space_group_symop_operation_xyz
x,y,z
-x,1/2-y,z
x,-y,1/2-z
1/2-x,y,-z
-x,-y,-z
x,1/2+y,-z
-x,y,1/2+z
1/2+x,-y,z
1/2+x,1/2+y,1/2+z
1/2-x,-y,1/2+z
1/2+x,1/2-y,-z
-x,1/2+y,1/2-z
1/2-x,1/2-y,1/2-z
1/2+x,y,1/2-z
1/2-x,1/2+y,z
x,1/2-y,1/2+z
loop_
_atom_site_type_symbol
_atom_site_label
_atom_site_fract_x
_atom_site_fract_y
_atom_site_fract_z
Si Si1 0.195490 0.587220 0.363998
Si Si2 0.141789 0.588066 0.779628
Si Si3 0.659955 0.707064 0.062054
Si Si4 0.083140 0.784889 0.228385
Si Si5 0.405894 0.993278 0.973984
O O1 0.250000 0.589745 0.500000
O O2 0.258616 0.590091 0.233461
O O3 0.139377 0.644854 0.366111
O O4 0.138865 0.529525 0.382370
O O5 0.091602 0.648339 0.777994
O O6 0.105743 0.551962 0.650982
O O7 0.127967 0.556281 0.928397
O O8 0.654694 0.754251 0.183911
O O9 0.750000 0.708311 0.000000
O O10 0.596084 0.719891 0.937749
O O11 0.000000 0.750000 0.267259
O O12 0.500000 0.000000 0.000000
#
# Coordination Sequence:
#
# PCOD8296207 Si02
#       5
#    16  16  16  16  16
#     4   9  18  41  69  86 134 176 217 281 351 407
#     4  10  22  43  65  96 138 179 226 287 354 430
#     4  11  22  43  69  95 136 188 235 285 354 418
#     4  12  25  40  69 103 143 184 236 293 356 424
#     4  10  21  39  70  93 129 176 229 287 355 412
#
# _framework density 22.234307999999999
#
# number of rings (size 3 to 8) (size 9 to 14) (size 15 to 20)
#    0.000    1.600    6.000    1.200    2.800    1.600 
#    0.000   17.000    0.000    0.000    0.000    0.000 
#    0.000    0.000    0.000    0.000    0.000    0.000 
#
# Total GULP energy -495556.178350 kJ/mol
# GULP energy per Si atom -12388.904459 kJ/mol
# Density = 2.218370 g / cm^3
# Si number density = 22.234308 Si / 1000 Ang^3
#
#
#
# Elastic Constant Matrix: (Units=GPa)
#
#
# Indices 1 2 3 4 5 6 
#
# 1 114.3729 64.9429 34.6813 0.0000 0.0000 0.0000
# 2 64.9429 162.1376 54.0570 0.0000 0.0000 0.0000
# 3 34.6813 54.0570 57.8938 0.0000 0.0000 0.0000
# 4 0.0000 0.0000 0.0000 21.9322 0.0000 0.0000
# 5 0.0000 0.0000 0.0000 0.0000 28.9271 0.0000
# 6 0.0000 0.0000 0.0000 0.0000 0.0000 41.5182
#
#
#
# Elastic Compliance Matrix: (Units=1/GPa)
#
#
# Indices 1 2 3 4 5 6 
#
# 1 0.011890 -0.003467 -0.003886 0.000000 0.000000 0.000000
# 2 -0.003467 0.009966 -0.007229 0.000000 0.000000 0.000000
# 3 -0.003886 -0.007229 0.026351 0.000000 0.000000 0.000000
# 4 0.000000 0.000000 0.000000 0.045595 0.000000 0.000000
# 5 0.000000 0.000000 0.000000 0.000000 0.034570 0.000000
# 6 0.000000 0.000000 0.000000 0.000000 0.000000 0.024086
#
#
# Mechanical properties :
#
#
# Convention : Reuss Voigt Hill
#
# Bulk Modulus (GPa) = 52.51000 71.30743 61.90871
# Shear Modulus (GPa) = 26.60012 30.52370 28.56191
#
# Velocity S-wave (km/s) = 3.46259 3.70918 3.58800
# Velocity P-wave (km/s) = 6.29714 7.10525 6.71336
#
# Compressibility (1/GPa) = 0.01904399
#
# Stress axis : x y z
#
# Youngs Moduli (GPa) = 84.10275 100.33637 37.94989
#
# Poissons Ratio (x) = 0.34787 0.14746
# Poissons Ratio (y) = 0.29159 0.27434
# Poissons Ratio (z) = 0.32678 0.72533
#
# Static dielectric constant tensor:
#      x y z
#    x 4.335770 0.000000 0.000000 
#    y 0.000000 5.609110 0.000000 
#    z 0.000000 0.000000 4.007950 
# 
# 
# High freq. dielectric constant tensor:
#      x y z
#    x 1.867280 0.000000 0.000000 
#    y 0.000000 1.887700 0.000000 
#    z 0.000000 0.000000 1.853710 
# 
# From -- ./inp_files/10800.got.cif
#   From: 2010.03.12/outbox.cif.g09.slc.cpg/sg73_6_cif.got.tgz:10800.got - 2010.04.16 15:25:48.
