data_PCOD8296361
_publ_section_title
;
Structure prediction by ZEFSAII (Michael W. Deem and Ramdas Pophale) SiO2 
 PCOD8296361
Probable space group: I B C A 
;
_chemical_formula_sum "Si O2"
_cell_formula_units_Z 96
_cell_length_a 21.965448
_cell_length_b 24.038401
_cell_length_c 8.129196
_cell_angle_alpha 90.000000
_cell_angle_beta 90.000000
_cell_angle_gamma 90.000000
_cell_volume 4292.331306
_symmetry_space_group_name_H-M "I B C A "
_symmetry_group_IT_number 73
_symmetry_cell_setting 'orthorhombic'
loop_
_space_group_symop_operation_xyz
x,y,z
-x,1/2-y,z
x,-y,1/2-z
1/2-x,y,-z
-x,-y,-z
x,1/2+y,-z
-x,y,1/2+z
1/2+x,-y,z
1/2+x,1/2+y,1/2+z
1/2-x,-y,1/2+z
1/2+x,1/2-y,-z
-x,1/2+y,1/2-z
1/2-x,1/2-y,1/2-z
1/2+x,y,1/2-z
1/2-x,1/2+y,z
x,1/2-y,1/2+z
loop_
_atom_site_type_symbol
_atom_site_label
_atom_site_fract_x
_atom_site_fract_y
_atom_site_fract_z
Si Si1 0.281728 0.323657 0.744639
Si Si2 0.971906 0.126287 0.015532
Si Si3 0.433231 0.059505 0.187530
Si Si4 0.796122 0.444202 0.848360
Si Si5 0.828219 0.272425 0.081720
Si Si6 0.047081 0.203766 0.236016
O O1 0.288574 0.389834 0.766658
O O2 0.211840 0.311982 0.699233
O O3 0.300711 0.290718 0.910714
O O4 0.325867 0.297871 0.600936
O O5 0.933157 0.160883 0.880922
O O6 0.013986 0.078860 0.934444
O O7 0.927542 0.100210 0.153190
O O8 0.017799 0.169809 0.090463
O O9 0.367320 0.055030 0.097004
O O10 0.454723 0.000000 0.250000
O O11 0.779351 0.500000 0.750000
O O12 0.750000 0.439036 0.000000
O O13 0.895338 0.267478 0.153610
O O14 0.000000 0.250000 0.304047
#
# Coordination Sequence:
#
# PCOD8296361 Si02
#       6
#    16  16  16  16  16  16
#     4  10  22  43  65  93 125 171 218 274 319 395
#     4  10  23  40  63  98 129 175 215 266 334 388
#     4  10  22  43  68  94 127 171 222 281 323 393
#     4  11  24  47  68  96 134 177 225 281 333 392
#     4  10  22  39  66  92 129 168 214 262 335 385
#     4  11  24  37  60  98 137 173 208 264 325 401
#
# _framework density 22.365469999999998
#
# number of rings (size 3 to 8) (size 9 to 14) (size 15 to 20)
#    0.000    1.667    1.667    2.000    9.333    0.000 
#   12.000    0.833    0.000    0.000    0.000    0.000 
#    0.000    0.000    0.000    0.000    0.000    0.000 
#
# Total GULP energy -594956.849602 kJ/mol
# GULP energy per Si atom -12394.934367 kJ/mol
# Density = 2.231457 g / cm^3
# Si number density = 22.365470 Si / 1000 Ang^3
#
#
#
# Elastic Constant Matrix: (Units=GPa)
#
#
# Indices 1 2 3 4 5 6 
#
# 1 99.8296 21.5316 29.4003 0.0000 0.0000 0.0000
# 2 21.5316 154.8556 24.3103 0.0000 0.0000 0.0000
# 3 29.4003 24.3103 65.0486 0.0000 0.0000 0.0000
# 4 0.0000 0.0000 0.0000 14.8284 0.0000 0.0000
# 5 0.0000 0.0000 0.0000 0.0000 43.3851 0.0000
# 6 0.0000 0.0000 0.0000 0.0000 0.0000 6.8006
#
#
#
# Elastic Compliance Matrix: (Units=1/GPa)
#
#
# Indices 1 2 3 4 5 6 
#
# 1 0.011658 -0.000843 -0.004954 0.000000 0.000000 0.000000
# 2 -0.000843 0.006921 -0.002205 0.000000 0.000000 0.000000
# 3 -0.004954 -0.002205 0.018436 0.000000 0.000000 0.000000
# 4 0.000000 0.000000 0.000000 0.067438 0.000000 0.000000
# 5 0.000000 0.000000 0.000000 0.000000 0.023049 0.000000
# 6 0.000000 0.000000 0.000000 0.000000 0.000000 0.147047
#
#
# Mechanical properties :
#
#
# Convention : Reuss Voigt Hill
#
# Bulk Modulus (GPa) = 47.59608 52.24646 49.92127
# Shear Modulus (GPa) = 16.80343 29.30226 23.05285
#
# Velocity S-wave (km/s) = 2.74398 3.62354 3.21399
# Velocity P-wave (km/s) = 5.60058 6.39670 6.01183
#
# Compressibility (1/GPa) = 0.02101014
#
# Stress axis : x y z
#
# Youngs Moduli (GPa) = 85.77871 144.48561 54.24051
#
# Poissons Ratio (x) = 0.12184 0.26870
# Poissons Ratio (y) = 0.07233 0.11963
# Poissons Ratio (z) = 0.42494 0.31866
#
# Static dielectric constant tensor:
#      x y z
#    x 3.923460 0.000000 0.000000 
#    y 0.000000 5.144690 0.000000 
#    z 0.000000 0.000000 4.050050 
# 
# 
# High freq. dielectric constant tensor:
#      x y z
#    x 1.876850 0.000000 0.000000 
#    y 0.000000 1.892190 0.000000 
#    z 0.000000 0.000000 1.868590 
# 
# From -- ./inp_files/7179.got.cif
#   From: 2010.03.12/outbox.cif.g09.slc.cpg/sg73_4_cif.got.tgz:7179.got - 2010.04.16 15:25:48.
