data_PCOD8296929
_publ_section_title
;
Structure prediction by ZEFSAII (Michael W. Deem and Ramdas Pophale) SiO2 
 PCOD8296929
Probable space group: I B C A 
;
_chemical_formula_sum "Si O2"
_cell_formula_units_Z 80
_cell_length_a 13.519824
_cell_length_b 11.830282
_cell_length_c 23.426059
_cell_angle_alpha 90.000000
_cell_angle_beta 90.000000
_cell_angle_gamma 90.000000
_cell_volume 3746.841897
_symmetry_space_group_name_H-M "I B C A "
_symmetry_group_IT_number 73
_symmetry_cell_setting 'orthorhombic'
loop_
_space_group_symop_operation_xyz
x,y,z
-x,1/2-y,z
x,-y,1/2-z
1/2-x,y,-z
-x,-y,-z
x,1/2+y,-z
-x,y,1/2+z
1/2+x,-y,z
1/2+x,1/2+y,1/2+z
1/2-x,-y,1/2+z
1/2+x,1/2-y,-z
-x,1/2+y,1/2-z
1/2-x,1/2-y,1/2-z
1/2+x,y,1/2-z
1/2-x,1/2+y,z
x,1/2-y,1/2+z
loop_
_atom_site_type_symbol
_atom_site_label
_atom_site_fract_x
_atom_site_fract_y
_atom_site_fract_z
Si Si1 0.500000 0.750000 0.224694
Si Si2 0.750000 0.989003 0.500000
Si Si3 0.849498 0.396114 0.290378
Si Si4 0.609726 0.607142 0.414143
Si Si5 0.388980 0.866093 0.913089
Si Si6 0.628193 0.439013 0.307822
O O1 0.409721 0.710583 0.265703
O O2 0.544119 0.655508 0.182000
O O3 0.692985 0.908958 0.456380
O O4 0.674761 0.069245 0.532753
O O5 0.872052 0.500000 0.250000
O O6 0.888180 0.431048 0.352826
O O7 0.732202 0.375059 0.297113
O O8 0.636357 0.735720 0.398174
O O9 0.497563 0.608582 0.437725
O O10 0.630803 0.526611 0.360084
O O11 0.594851 0.500000 0.250000
#
# Coordination Sequence:
#
# PCOD8296929 Si02
#       6
#     8   8  16  16  16  16
#     4  12  22  38  66 102 134 172 220 264 328 402
#     4  12  24  46  66 100 128 170 236 274 320 388
#     4  11  23  42  66  98 138 175 214 266 333 397
#     4  11  24  45  69  96 134 174 218 274 329 391
#     4  11  23  44  70  94 132 178 215 271 337 380
#     4  11  23  42  65  99 137 171 215 268 330 397
#
# _framework density 21.351315
#
# number of rings (size 3 to 8) (size 9 to 14) (size 15 to 20)
#    0.000    0.800    2.000    7.200    0.000    1.600 
#    3.600    2.000    0.000    0.000    0.000    0.000 
#    0.000    0.000    0.000    0.000    0.000    0.000 
#
# Total GULP energy -495987.104595 kJ/mol
# GULP energy per Si atom -12399.677615 kJ/mol
# Density = 2.130272 g / cm^3
# Si number density = 21.351315 Si / 1000 Ang^3
#
#
#
# Elastic Constant Matrix: (Units=GPa)
#
#
# Indices 1 2 3 4 5 6 
#
# 1 130.5622 83.4267 45.4845 0.0000 0.0000 0.0000
# 2 83.4267 111.5462 65.7308 0.0000 0.0000 0.0000
# 3 45.4845 65.7308 135.0057 0.0000 0.0000 0.0000
# 4 0.0000 0.0000 0.0000 30.8269 0.0000 0.0000
# 5 0.0000 0.0000 0.0000 0.0000 26.7354 0.0000
# 6 0.0000 0.0000 0.0000 0.0000 0.0000 23.8618
#
#
#
# Elastic Compliance Matrix: (Units=1/GPa)
#
#
# Indices 1 2 3 4 5 6 
#
# 1 0.014700 -0.011325 0.000561 0.000000 0.000000 0.000000
# 2 -0.011325 0.021297 -0.006553 0.000000 0.000000 0.000000
# 3 0.000561 -0.006553 0.010409 0.000000 0.000000 0.000000
# 4 0.000000 0.000000 0.000000 0.032439 0.000000 0.000000
# 5 0.000000 0.000000 0.000000 0.000000 0.037404 0.000000
# 6 0.000000 0.000000 0.000000 0.000000 0.000000 0.041908
#
#
# Mechanical properties :
#
#
# Convention : Reuss Voigt Hill
#
# Bulk Modulus (GPa) = 84.95277 85.15535 85.05406
# Shear Modulus (GPa) = 25.41750 28.44963 26.93357
#
# Velocity S-wave (km/s) = 3.45402 3.65424 3.55554
# Velocity P-wave (km/s) = 7.46870 7.60093 7.53511
#
# Compressibility (1/GPa) = 0.01177125
#
# Stress axis : x y z
#
# Youngs Moduli (GPa) = 68.02597 46.95518 96.07424
#
# Poissons Ratio (x) = 0.53178 -0.05393
# Poissons Ratio (y) = 0.77041 0.62961
# Poissons Ratio (z) = -0.03819 0.30771
#
# Static dielectric constant tensor:
#      x y z
#    x 4.153180 0.000000 0.000000 
#    y 0.000000 3.833020 0.000000 
#    z 0.000000 0.000000 3.763980 
# 
# 
# High freq. dielectric constant tensor:
#      x y z
#    x 1.861480 0.000000 0.000000 
#    y 0.000000 1.837150 0.000000 
#    z 0.000000 0.000000 1.828370 
# 
# From -- ./inp_files/13486.got.cif
#   From: 2010.03.12/outbox.cif.g09.slc.cpg/sg73_7_cif.got.tgz:13486.got - 2010.04.16 15:25:48.
