data_PCOD8296872
_publ_section_title
;
Structure prediction by ZEFSAII (Michael W. Deem and Ramdas Pophale) SiO2 
 PCOD8296872
Probable space group: I B C A 
;
_chemical_formula_sum "Si O2"
_cell_formula_units_Z 104
_cell_length_a 24.596081
_cell_length_b 12.189480
_cell_length_c 16.038572
_cell_angle_alpha 90.000000
_cell_angle_beta 90.000000
_cell_angle_gamma 90.000000
_cell_volume 4808.579403
_symmetry_space_group_name_H-M "I B C A "
_symmetry_group_IT_number 73
_symmetry_cell_setting 'orthorhombic'
loop_
_space_group_symop_operation_xyz
x,y,z
-x,1/2-y,z
x,-y,1/2-z
1/2-x,y,-z
-x,-y,-z
x,1/2+y,-z
-x,y,1/2+z
1/2+x,-y,z
1/2+x,1/2+y,1/2+z
1/2-x,-y,1/2+z
1/2+x,1/2-y,-z
-x,1/2+y,1/2-z
1/2-x,1/2-y,1/2-z
1/2+x,y,1/2-z
1/2-x,1/2+y,z
x,1/2-y,1/2+z
loop_
_atom_site_type_symbol
_atom_site_label
_atom_site_fract_x
_atom_site_fract_y
_atom_site_fract_z
Si Si1 0.190365 0.171243 0.619153
Si Si2 0.616241 0.038263 0.618643
Si Si3 0.701137 0.443378 0.660809
Si Si4 0.547773 0.683498 0.684279
Si Si5 0.639609 0.878781 0.059160
Si Si6 0.975509 0.500000 0.750000
Si Si7 0.643691 0.238737 0.719195
O O1 0.249496 0.117654 0.612957
O O2 0.173578 0.263573 0.549908
O O3 0.187743 0.235503 0.706843
O O4 0.145709 0.077223 0.617056
O O5 0.610630 0.084401 0.525672
O O6 0.652616 0.129410 0.665462
O O7 0.559497 0.018279 0.665713
O O8 0.716380 0.500000 0.750000
O O9 0.681385 0.531326 0.593610
O O10 0.653988 0.352674 0.671273
O O11 0.500000 0.750000 0.635947
O O12 0.589019 0.628091 0.621152
O O13 0.516853 0.599654 0.742919
O O14 0.582126 0.763589 0.745440
#
# Coordination Sequence:
#
# PCOD8296872 Si02
#       7
#    16  16  16  16  16   8  16
#     4  11  24  45  72  99 134 189 228 281 347 424
#     4  12  25  46  68 100 145 184 232 287 353 417
#     4  12  23  43  75 103 135 189 231 283 353 418
#     4  11  21  44  70  98 132 175 228 291 341 409
#     4  11  28  46  64 107 147 172 233 304 343 413
#     4  12  22  44  74  98 128 188 234 274 356 422
#     4  11  22  44  71 101 136 179 238 283 340 427
#
# _framework density 21.628008999999999
#
# number of rings (size 3 to 8) (size 9 to 14) (size 15 to 20)
#    0.000    0.615    6.154    3.231    4.308    1.231 
#    2.769    0.000    0.000    0.000    0.000    0.000 
#    0.000    0.000    0.000    0.000    0.000    0.000 
#
# Total GULP energy -644551.371910 kJ/mol
# GULP energy per Si atom -12395.218691 kJ/mol
# Density = 2.157878 g / cm^3
# Si number density = 21.628009 Si / 1000 Ang^3
#
#
#
# Elastic Constant Matrix: (Units=GPa)
#
#
# Indices 1 2 3 4 5 6 
#
# 1 135.6641 47.6666 39.2115 0.0000 0.0000 0.0000
# 2 47.6666 133.9147 38.1845 0.0000 0.0000 0.0000
# 3 39.2115 38.1845 94.6812 0.0000 0.0000 0.0000
# 4 0.0000 0.0000 0.0000 20.6880 0.0000 0.0000
# 5 0.0000 0.0000 0.0000 0.0000 9.7036 0.0000
# 6 0.0000 0.0000 0.0000 0.0000 0.0000 50.9784
#
#
#
# Elastic Compliance Matrix: (Units=1/GPa)
#
#
# Indices 1 2 3 4 5 6 
#
# 1 0.009020 -0.002424 -0.002758 0.000000 0.000000 0.000000
# 2 -0.002424 0.009089 -0.002662 0.000000 0.000000 0.000000
# 3 -0.002758 -0.002662 0.012777 0.000000 0.000000 0.000000
# 4 0.000000 0.000000 0.000000 0.048337 0.000000 0.000000
# 5 0.000000 0.000000 0.000000 0.000000 0.103054 0.000000
# 6 0.000000 0.000000 0.000000 0.000000 0.000000 0.019616
#
#
# Mechanical properties :
#
#
# Convention : Reuss Voigt Hill
#
# Bulk Modulus (GPa) = 65.79367 68.26502 67.02935
# Shear Modulus (GPa) = 22.45695 32.22051 27.33873
#
# Velocity S-wave (km/s) = 3.22580 3.86393 3.55920
# Velocity P-wave (km/s) = 6.66041 7.17902 6.92457
#
# Compressibility (1/GPa) = 0.01519903
#
# Stress axis : x y z
#
# Youngs Moduli (GPa) = 110.86411 110.01938 78.26348
#
# Poissons Ratio (x) = 0.26672 0.21584
# Poissons Ratio (y) = 0.26877 0.20831
# Poissons Ratio (z) = 0.30575 0.29284
#
# Static dielectric constant tensor:
#      x y z
#    x 3.908250 0.000000 0.000000 
#    y 0.000000 4.388320 0.000000 
#    z 0.000000 0.000000 3.805190 
# 
# 
# High freq. dielectric constant tensor:
#      x y z
#    x 1.847740 0.000000 0.000000 
#    y 0.000000 1.880480 0.000000 
#    z 0.000000 0.000000 1.824730 
# 
# From -- ./inp_files/23918.got.cif
#   From: 2010.03.12/outbox.cif.g09.slc.cpg/sg73_12_cif.got.tgz:23918.got - 2010.04.16 15:25:48.
