data_PCOD8296266
_publ_section_title
;
Structure prediction by ZEFSAII (Michael W. Deem and Ramdas Pophale) SiO2 
 PCOD8296266
Probable space group: I B C A 
;
_chemical_formula_sum "Si O2"
_cell_formula_units_Z 64
_cell_length_a 9.260821
_cell_length_b 30.378078
_cell_length_c 10.963766
_cell_angle_alpha 90.000000
_cell_angle_beta 90.000000
_cell_angle_gamma 90.000000
_cell_volume 3084.391805
_symmetry_space_group_name_H-M "I B C A "
_symmetry_group_IT_number 73
_symmetry_cell_setting 'orthorhombic'
loop_
_space_group_symop_operation_xyz
x,y,z
-x,1/2-y,z
x,-y,1/2-z
1/2-x,y,-z
-x,-y,-z
x,1/2+y,-z
-x,y,1/2+z
1/2+x,-y,z
1/2+x,1/2+y,1/2+z
1/2-x,-y,1/2+z
1/2+x,1/2-y,-z
-x,1/2+y,1/2-z
1/2-x,1/2-y,1/2-z
1/2+x,y,1/2-z
1/2-x,1/2+y,z
x,1/2-y,1/2+z
loop_
_atom_site_type_symbol
_atom_site_label
_atom_site_fract_x
_atom_site_fract_y
_atom_site_fract_z
Si Si1 0.030261 0.455318 0.184521
Si Si2 0.750000 0.565781 0.000000
Si Si3 0.251263 0.305987 0.639494
Si Si4 0.723729 0.900414 0.246219
Si Si5 0.000000 0.750000 0.250555
O O1 0.979552 0.500000 0.250000
O O2 0.892819 0.424328 0.159478
O O3 0.128782 0.427126 0.278150
O O4 0.120232 0.464062 0.058460
O O5 0.816475 0.595643 0.108859
O O6 0.250000 0.320305 0.500000
O O7 0.241732 0.349315 0.720887
O O8 0.402099 0.281489 0.666530
O O9 0.109990 0.276707 0.664103
#
# Coordination Sequence:
#
# PCOD8296266 Si02
#       5
#    16   8  16  16   8
#     4  10  21  42  63  93 129 171 219 263 323 373
#     4   8  24  42  58  96 130 170 210 280 310 384
#     4  11  23  44  67  98 128 168 216 263 327 394
#     4  10  22  42  63  93 128 173 211 264 327 379
#     4  10  24  44  66  98 130 164 212 268 330 384
#
# _framework density 20.749634
#
# number of rings (size 3 to 8) (size 9 to 14) (size 15 to 20)
#    1.500    0.500    0.000    3.000    0.000    5.000 
#   11.250    0.000    0.000    0.000    0.000    0.000 
#    0.000    0.000    0.000    0.000    0.000    0.000 
#
# Total GULP energy -396480.957712 kJ/mol
# GULP energy per Si atom -12390.029928 kJ/mol
# Density = 2.070241 g / cm^3
# Si number density = 20.749634 Si / 1000 Ang^3
#
#
#
# Elastic Constant Matrix: (Units=GPa)
#
#
# Indices 1 2 3 4 5 6 
#
# 1 107.1692 40.0468 -0.1575 -0.0001 -0.0001 -0.0001
# 2 40.0468 130.1886 23.1204 -0.0010 -0.0001 0.0002
# 3 -0.1575 23.1204 84.8532 -0.0041 0.0000 0.0003
# 4 -0.0001 -0.0010 -0.0041 6.2222 0.0000 0.0002
# 5 -0.0001 -0.0001 0.0000 0.0000 23.8628 -0.0004
# 6 -0.0001 0.0002 0.0003 0.0002 -0.0004 30.1082
#
#
#
# Elastic Compliance Matrix: (Units=1/GPa)
#
#
# Indices 1 2 3 4 5 6 
#
# 1 0.010616 -0.003435 0.000956 0.000000 0.000000 0.000000
# 2 -0.003435 0.009183 -0.002509 0.000000 0.000000 0.000000
# 3 0.000956 -0.002509 0.012470 0.000008 0.000000 0.000000
# 4 0.000000 0.000000 0.000008 0.160716 0.000000 -0.000001
# 5 0.000000 0.000000 0.000000 0.000000 0.041906 0.000001
# 6 0.000000 0.000000 0.000000 -0.000001 0.000001 0.033214
#
#
# Mechanical properties :
#
#
# Convention : Reuss Voigt Hill
#
# Bulk Modulus (GPa) = 44.85609 49.80338 47.32973
# Shear Modulus (GPa) = 17.51235 29.31873 23.41554
#
# Velocity S-wave (km/s) = 2.90829 3.76304 3.36293
# Velocity P-wave (km/s) = 5.73953 6.55246 6.15942
#
# Compressibility (1/GPa) = 0.02229352
#
# Stress axis : x y z
#
# Youngs Moduli (GPa) = 94.19610 108.89213 80.19006
#
# Poissons Ratio (x) = 0.37408 -0.07664
# Poissons Ratio (y) = 0.32359 0.20117
# Poissons Ratio (z) = -0.09003 0.27317
#
# Static dielectric constant tensor:
#      x y z
#    x 3.833290 0.000000 0.000000 
#    y 0.000000 3.532180 0.000000 
#    z 0.000000 0.000000 3.458470 
# 
# 
# High freq. dielectric constant tensor:
#      x y z
#    x 1.825980 0.000000 0.000000 
#    y 0.000000 1.805210 0.000000 
#    z 0.000000 0.000000 1.795490 
# 
# From -- ./inp_files/9055.got.cif
#   From: 2010.03.12/outbox.cif.g09.slc.cpg/sg73_5_cif.got.tgz:9055.got - 2010.04.16 15:25:48.
