data_PCOD8296959
_publ_section_title
;
Structure prediction by ZEFSAII (Michael W. Deem and Ramdas Pophale) SiO2 
 PCOD8296959
Probable space group: I B C A 
;
_chemical_formula_sum "Si O2"
_cell_formula_units_Z 112
_cell_length_a 11.401788
_cell_length_b 27.805636
_cell_length_c 14.652845
_cell_angle_alpha 90.000000
_cell_angle_beta 90.000000
_cell_angle_gamma 90.000000
_cell_volume 4645.449576
_symmetry_space_group_name_H-M "I B C A "
_symmetry_group_IT_number 73
_symmetry_cell_setting 'orthorhombic'
loop_
_space_group_symop_operation_xyz
x,y,z
-x,1/2-y,z
x,-y,1/2-z
1/2-x,y,-z
-x,-y,-z
x,1/2+y,-z
-x,y,1/2+z
1/2+x,-y,z
1/2+x,1/2+y,1/2+z
1/2-x,-y,1/2+z
1/2+x,1/2-y,-z
-x,1/2+y,1/2-z
1/2-x,1/2-y,1/2-z
1/2+x,y,1/2-z
1/2-x,1/2+y,z
x,1/2-y,1/2+z
loop_
_atom_site_type_symbol
_atom_site_label
_atom_site_fract_x
_atom_site_fract_y
_atom_site_fract_z
Si Si1 0.402379 0.674690 0.831746
Si Si2 0.190207 0.086183 0.593333
Si Si3 0.649774 0.630839 0.629886
Si Si4 0.932866 0.314840 0.623785
Si Si5 0.750000 0.935323 0.000000
Si Si6 0.612689 0.991257 0.848551
Si Si7 0.428403 0.911475 0.807361
Si Si8 0.000000 0.750000 0.525796
O O1 0.279739 0.646940 0.841187
O O2 0.402177 0.698645 0.729220
O O3 0.503649 0.634953 0.847185
O O4 0.423590 0.715326 0.908161
O O5 0.250000 0.072772 0.500000
O O6 0.130475 0.137274 0.591831
O O7 0.293520 0.086270 0.666209
O O8 0.091939 0.045043 0.612503
O O9 0.573774 0.678770 0.616139
O O10 0.648662 0.599912 0.537081
O O11 0.578519 0.596583 0.699584
O O12 0.906996 0.275851 0.544098
O O13 0.795912 0.965588 0.085090
O O14 0.493095 0.961019 0.835844
O O15 0.673016 0.000000 0.750000
#
# Coordination Sequence:
#
# PCOD8296959 Si02
#       8
#    16  16  16  16   8  16  16   8
#     4  11  23  50  76 111 156 202 254 327 397 465
#     4  12  26  46  73 110 153 202 252 313 388 453
#     4  11  23  47  80 109 151 209 252 323 390 463
#     4  11  26  49  73 112 153 198 253 323 394 462
#     4  12  24  44  80 108 154 202 270 300 376 466
#     4  12  26  47  71 114 152 203 258 311 374 464
#     4  11  25  49  77 104 158 204 249 320 394 456
#     4  12  26  48  78 112 148 196 266 318 386 480
#
# _framework density 24.109614000000001
#
# number of rings (size 3 to 8) (size 9 to 14) (size 15 to 20)
#    0.000    0.571    3.571    4.714    2.000    3.429 
#    7.714    2.143    0.000    0.000    0.000    0.000 
#    0.000    0.000    0.000    0.000    0.000    0.000 
#
# Total GULP energy -693860.523884 kJ/mol
# GULP energy per Si atom -12390.366498 kJ/mol
# Density = 2.405474 g / cm^3
# Si number density = 24.109614 Si / 1000 Ang^3
#
#
#
# Elastic Constant Matrix: (Units=GPa)
#
#
# Indices 1 2 3 4 5 6 
#
# 1 84.6655 49.2839 18.6464 0.0001 -0.0001 0.0000
# 2 49.2839 154.8059 75.2149 0.0005 -0.0001 -0.0001
# 3 18.6464 75.2149 155.0023 0.0011 -0.0008 -0.0007
# 4 0.0001 0.0005 0.0011 52.2421 -0.0003 -0.0001
# 5 -0.0001 -0.0001 -0.0008 -0.0003 23.8419 0.0003
# 6 0.0000 -0.0001 -0.0007 -0.0001 0.0003 23.3366
#
#
#
# Elastic Compliance Matrix: (Units=1/GPa)
#
#
# Indices 1 2 3 4 5 6 
#
# 1 0.014548 -0.004948 0.000651 0.000000 0.000000 0.000000
# 2 -0.004948 0.010135 -0.004323 0.000000 0.000000 0.000000
# 3 0.000651 -0.004323 0.008471 0.000000 0.000000 0.000000
# 4 0.000000 0.000000 0.000000 0.019142 0.000000 0.000000
# 5 0.000000 0.000000 0.000000 0.000000 0.041943 -0.000001
# 6 0.000000 0.000000 0.000000 0.000000 -0.000001 0.042851
#
#
# Mechanical properties :
#
#
# Convention : Reuss Voigt Hill
#
# Bulk Modulus (GPa) = 62.83605 75.64046 69.23826
# Shear Modulus (GPa) = 31.32162 36.63936 33.98049
#
# Velocity S-wave (km/s) = 3.60826 3.90256 3.75829
# Velocity P-wave (km/s) = 6.59383 7.19363 6.90025
#
# Compressibility (1/GPa) = 0.01591443
#
# Stress axis : x y z
#
# Youngs Moduli (GPa) = 68.73849 98.66622 118.05091
#
# Poissons Ratio (x) = 0.48816 -0.07682
# Poissons Ratio (y) = 0.34009 0.51032
# Poissons Ratio (z) = -0.04473 0.42653
#
# Static dielectric constant tensor:
#      x y z
#    x 4.062270 0.000000 0.000000 
#    y 0.000000 4.508490 0.000000 
#    z 0.000000 0.000000 4.556010 
# 
# 
# High freq. dielectric constant tensor:
#      x y z
#    x 1.942990 0.000000 0.000000 
#    y 0.000000 1.962370 0.000000 
#    z 0.000000 0.000000 1.980940 
# 
# From -- ./inp_files/16393.got.cif
#   From: 2010.03.12/outbox.cif.g09.slc.cpg/sg73_9_cif.got.tgz:16393.got - 2010.04.16 15:25:48.
