data_PCOD8296671
_publ_section_title
;
Structure prediction by ZEFSAII (Michael W. Deem and Ramdas Pophale) SiO2 
 PCOD8296671
Probable space group: I B C A 
;
_chemical_formula_sum "Si O2"
_cell_formula_units_Z 72
_cell_length_a 14.791849
_cell_length_b 21.022159
_cell_length_c 10.520300
_cell_angle_alpha 90.000000
_cell_angle_beta 90.000000
_cell_angle_gamma 90.000000
_cell_volume 3271.356736
_symmetry_space_group_name_H-M "I B C A "
_symmetry_group_IT_number 73
_symmetry_cell_setting 'orthorhombic'
loop_
_space_group_symop_operation_xyz
x,y,z
-x,1/2-y,z
x,-y,1/2-z
1/2-x,y,-z
-x,-y,-z
x,1/2+y,-z
-x,y,1/2+z
1/2+x,-y,z
1/2+x,1/2+y,1/2+z
1/2-x,-y,1/2+z
1/2+x,1/2-y,-z
-x,1/2+y,1/2-z
1/2-x,1/2-y,1/2-z
1/2+x,y,1/2-z
1/2-x,1/2+y,z
x,1/2-y,1/2+z
loop_
_atom_site_type_symbol
_atom_site_label
_atom_site_fract_x
_atom_site_fract_y
_atom_site_fract_z
Si Si1 0.574865 0.633423 0.730758
Si Si2 0.000000 0.750000 0.407460
Si Si3 0.721114 0.448520 0.862434
Si Si4 0.113123 0.575392 0.268767
Si Si5 0.648531 0.342610 0.507992
O O1 0.560099 0.704090 0.679587
O O2 0.626841 0.590393 0.625092
O O3 0.480102 0.605097 0.777451
O O4 0.640564 0.630923 0.850715
O O5 0.072111 0.711464 0.491499
O O6 0.709971 0.500000 0.750000
O O7 0.803737 0.401425 0.820395
O O8 0.750000 0.478020 0.000000
O O9 0.106118 0.500000 0.250000
O O10 0.132111 0.598322 0.412819
O O11 0.750000 0.314260 0.500000
#
# Coordination Sequence:
#
# PCOD8296671 Si02
#       5
#    16   8  16  16  16
#     4  11  24  45  67  99 136 185 226 288 342 408
#     4  10  26  44  66 100 136 182 238 282 342 404
#     4  11  26  44  70 103 142 179 226 279 345 418
#     4  10  24  41  66 101 136 176 226 280 345 414
#     4  11  23  45  69  99 137 178 232 289 342 403
#
# _framework density 22.009218000000001
#
# number of rings (size 3 to 8) (size 9 to 14) (size 15 to 20)
#    0.000    1.333    2.222    1.333   12.444    2.667 
#    0.000    0.000    0.000    0.000    0.000    0.000 
#    0.000    0.000    0.000    0.000    0.000    0.000 
#
# Total GULP energy -446162.087106 kJ/mol
# GULP energy per Si atom -12393.391309 kJ/mol
# Density = 2.195912 g / cm^3
# Si number density = 22.009218 Si / 1000 Ang^3
#
#
#
# Elastic Constant Matrix: (Units=GPa)
#
#
# Indices 1 2 3 4 5 6 
#
# 1 145.2437 38.1045 29.7350 0.0000 0.0000 0.0000
# 2 38.1045 105.9538 34.6130 0.0000 0.0000 0.0000
# 3 29.7350 34.6130 107.1216 0.0002 0.0001 0.0000
# 4 0.0000 0.0000 0.0002 22.5295 0.0000 0.0000
# 5 0.0000 0.0000 0.0001 0.0000 37.2418 0.0000
# 6 0.0000 0.0000 0.0000 0.0000 0.0000 24.5205
#
#
#
# Elastic Compliance Matrix: (Units=1/GPa)
#
#
# Indices 1 2 3 4 5 6 
#
# 1 0.007787 -0.002341 -0.001405 0.000000 0.000000 0.000000
# 2 -0.002341 0.011256 -0.002987 0.000000 0.000000 0.000000
# 3 -0.001405 -0.002987 0.010690 0.000000 0.000000 0.000000
# 4 0.000000 0.000000 0.000000 0.044386 0.000000 0.000000
# 5 0.000000 0.000000 0.000000 0.000000 0.026852 0.000000
# 6 0.000000 0.000000 0.000000 0.000000 0.000000 0.040782
#
#
# Mechanical properties :
#
#
# Convention : Reuss Voigt Hill
#
# Bulk Modulus (GPa) = 61.47687 62.58046 62.02866
# Shear Modulus (GPa) = 31.12508 33.91614 32.52061
#
# Velocity S-wave (km/s) = 3.76464 3.92981 3.84811
# Velocity P-wave (km/s) = 6.84760 7.00619 6.92735
#
# Compressibility (1/GPa) = 0.01626628
#
# Stress axis : x y z
#
# Youngs Moduli (GPa) = 128.42111 88.84182 93.54236
#
# Poissons Ratio (x) = 0.20802 0.13142
# Poissons Ratio (y) = 0.30069 0.27942
# Poissons Ratio (z) = 0.18042 0.26538
#
# Static dielectric constant tensor:
#      x y z
#    x 4.713390 0.000000 0.000000 
#    y 0.000000 3.747030 0.000000 
#    z 0.000000 0.000000 3.882240 
# 
# 
# High freq. dielectric constant tensor:
#      x y z
#    x 1.895310 0.000000 0.000000 
#    y 0.000000 1.845540 0.000000 
#    z 0.000000 0.000000 1.863070 
# 
# From -- ./inp_files/10633.got.cif
#   From: 2010.03.12/outbox.cif.g09.slc.cpg/sg73_6_cif.got.tgz:10633.got - 2010.04.16 15:25:48.
