data_PCOD8296644
_publ_section_title
;
Structure prediction by ZEFSAII (Michael W. Deem and Ramdas Pophale) SiO2 
 PCOD8296644
Probable space group: I B C A 
;
_chemical_formula_sum "Si O2"
_cell_formula_units_Z 56
_cell_length_a 11.051301
_cell_length_b 8.976507
_cell_length_c 26.333363
_cell_angle_alpha 90.000000
_cell_angle_beta 90.000000
_cell_angle_gamma 90.000000
_cell_volume 2612.324404
_symmetry_space_group_name_H-M "I B C A "
_symmetry_group_IT_number 73
_symmetry_cell_setting 'orthorhombic'
loop_
_space_group_symop_operation_xyz
x,y,z
-x,1/2-y,z
x,-y,1/2-z
1/2-x,y,-z
-x,-y,-z
x,1/2+y,-z
-x,y,1/2+z
1/2+x,-y,z
1/2+x,1/2+y,1/2+z
1/2-x,-y,1/2+z
1/2+x,1/2-y,-z
-x,1/2+y,1/2-z
1/2-x,1/2-y,1/2-z
1/2+x,y,1/2-z
1/2-x,1/2+y,z
x,1/2-y,1/2+z
loop_
_atom_site_type_symbol
_atom_site_label
_atom_site_fract_x
_atom_site_fract_y
_atom_site_fract_z
Si Si1 0.000000 0.250000 0.138827
Si Si2 0.628264 0.237324 0.047781
Si Si3 0.646702 0.101750 0.441751
Si Si4 0.377148 0.827821 0.235172
O O1 0.048033 0.117383 0.102682
O O2 0.108088 0.315796 0.173910
O O3 0.500000 0.250000 0.076559
O O4 0.726992 0.330372 0.079253
O O5 0.667958 0.067275 0.042871
O O6 0.611292 0.305346 0.991554
O O7 0.500000 0.750000 0.259390
O O8 0.250000 0.750000 0.250000
O O9 0.371911 0.000000 0.250000
#
# Coordination Sequence:
#
# PCOD8296644 Si02
#       4
#     8  16  16  16
#     4  10  26  42  72  98 140 162 238 284 318 426
#     4  11  23  39  67  89 144 190 216 270 329 379
#     4  11  23  42  63 101 135 183 233 267 324 386
#     4  10  23  48  76 101 134 177 216 288 366 416
#
# _framework density 21.436848000000001
#
# number of rings (size 3 to 8) (size 9 to 14) (size 15 to 20)
#    0.857    0.571    1.429    5.143    4.000    2.286 
#    0.000    0.000    0.000    0.000    0.000    0.000 
#    0.000    0.000    0.000    0.000    0.000    0.000 
#
# Total GULP energy -346866.505629 kJ/mol
# GULP energy per Si atom -12388.089487 kJ/mol
# Density = 2.138806 g / cm^3
# Si number density = 21.436848 Si / 1000 Ang^3
#
#
#
# Elastic Constant Matrix: (Units=GPa)
#
#
# Indices 1 2 3 4 5 6 
#
# 1 170.4652 68.0131 19.4086 0.0000 0.0000 0.0000
# 2 68.0131 206.9485 33.4878 0.0000 0.0000 0.0000
# 3 19.4086 33.4878 80.3326 0.0000 0.0000 0.0000
# 4 0.0000 0.0000 0.0000 6.5825 0.0000 0.0000
# 5 0.0000 0.0000 0.0000 0.0000 43.2247 0.0000
# 6 0.0000 0.0000 0.0000 0.0000 0.0000 37.8868
#
#
#
# Elastic Compliance Matrix: (Units=1/GPa)
#
#
# Indices 1 2 3 4 5 6 
#
# 1 0.006795 -0.002110 -0.000762 0.000000 0.000000 0.000000
# 2 -0.002110 0.005837 -0.001923 0.000000 0.000000 0.000000
# 3 -0.000762 -0.001923 0.013434 0.000000 0.000000 0.000000
# 4 0.000000 0.000000 0.000000 0.151917 0.000000 0.000000
# 5 0.000000 0.000000 0.000000 0.000000 0.023135 0.000000
# 6 0.000000 0.000000 0.000000 0.000000 0.000000 0.026394
#
#
# Mechanical properties :
#
#
# Convention : Reuss Voigt Hill
#
# Bulk Modulus (GPa) = 60.69772 77.72947 69.21360
# Shear Modulus (GPa) = 20.61053 39.99460 30.30256
#
# Velocity S-wave (km/s) = 3.10409 4.32405 3.76383
# Velocity P-wave (km/s) = 6.42054 7.82741 7.15862
#
# Compressibility (1/GPa) = 0.01647508
#
# Stress axis : x y z
#
# Youngs Moduli (GPa) = 147.17034 171.32878 74.43701
#
# Poissons Ratio (x) = 0.36147 0.05673
# Poissons Ratio (y) = 0.31050 0.14317
# Poissons Ratio (z) = 0.11217 0.32953
#
# Static dielectric constant tensor:
#      x y z
#    x 4.741940 0.000000 0.000000 
#    y 0.000000 3.805800 0.000000 
#    z 0.000000 0.000000 3.508110 
# 
# 
# High freq. dielectric constant tensor:
#      x y z
#    x 1.864790 0.000000 0.000000 
#    y 0.000000 1.847780 0.000000 
#    z 0.000000 0.000000 1.799540 
# 
# From -- ./inp_files/31551.got.cif
#   From: 2010.03.12/outbox.cif.g09.slc.cpg/sg73_16_cif.got.tgz:31551.got - 2010.04.16 15:25:48.
