data_PCOD8296339
_publ_section_title
;
Structure prediction by ZEFSAII (Michael W. Deem and Ramdas Pophale) SiO2 
 PCOD8296339
Probable space group: I B C A 
;
_chemical_formula_sum "Si O2"
_cell_formula_units_Z 96
_cell_length_a 24.792335
_cell_length_b 19.263316
_cell_length_c 8.885618
_cell_angle_alpha 90.000000
_cell_angle_beta 90.000000
_cell_angle_gamma 90.000000
_cell_volume 4243.616400
_symmetry_space_group_name_H-M "I B C A "
_symmetry_group_IT_number 73
_symmetry_cell_setting 'orthorhombic'
loop_
_space_group_symop_operation_xyz
x,y,z
-x,1/2-y,z
x,-y,1/2-z
1/2-x,y,-z
-x,-y,-z
x,1/2+y,-z
-x,y,1/2+z
1/2+x,-y,z
1/2+x,1/2+y,1/2+z
1/2-x,-y,1/2+z
1/2+x,1/2-y,-z
-x,1/2+y,1/2-z
1/2-x,1/2-y,1/2-z
1/2+x,y,1/2-z
1/2-x,1/2+y,z
x,1/2-y,1/2+z
loop_
_atom_site_type_symbol
_atom_site_label
_atom_site_fract_x
_atom_site_fract_y
_atom_site_fract_z
Si Si1 0.492702 0.606305 0.435948
Si Si2 0.044297 0.192778 0.180192
Si Si3 0.335918 0.799722 0.599840
Si Si4 0.076962 0.067838 0.693278
Si Si5 0.266119 0.571188 0.170081
Si Si6 0.827594 0.665326 0.745426
O O1 0.534660 0.631384 0.561788
O O2 0.461833 0.669192 0.352957
O O3 0.526576 0.566679 0.309621
O O4 0.446748 0.561060 0.523058
O O5 0.104610 0.218232 0.158464
O O6 0.000000 0.250000 0.142863
O O7 0.313082 0.870280 0.675105
O O8 0.331157 0.805587 0.422514
O O9 0.305844 0.728936 0.651423
O O10 0.113817 0.136100 0.704685
O O11 0.110493 0.000000 0.750000
O O12 0.285742 0.500000 0.250000
O O13 0.214972 0.602653 0.258609
O O14 0.250000 0.553121 0.000000
#
# Coordination Sequence:
#
# PCOD8296339 Si02
#       6
#    16  16  16  16  16  16
#     4  10  22  38  58  91 126 175 222 276 323 404
#     4  11  22  37  62  94 135 173 221 267 331 391
#     4  11  24  42  66  99 135 171 222 276 334 400
#     4  11  22  41  62  91 133 177 228 274 338 398
#     4  10  24  48  71  99 132 171 222 285 338 405
#     4  11  24  42  67  97 132 173 221 278 340 400
#
# _framework density 22.622215000000001
#
# number of rings (size 3 to 8) (size 9 to 14) (size 15 to 20)
#    0.000    1.333    1.667    4.000    4.667    1.333 
#    6.000    0.833    0.000    0.000    0.000    0.000 
#    0.000    0.000    0.000    0.000    0.000    0.000 
#
# Total GULP energy -594936.179218 kJ/mol
# GULP energy per Si atom -12394.503734 kJ/mol
# Density = 2.257073 g / cm^3
# Si number density = 22.622215 Si / 1000 Ang^3
#
#
#
# Elastic Constant Matrix: (Units=GPa)
#
#
# Indices 1 2 3 4 5 6 
#
# 1 80.3594 26.7408 22.0140 0.0000 0.0000 0.0000
# 2 26.7408 128.7202 34.1110 0.0000 0.0000 0.0000
# 3 22.0140 34.1110 89.2832 0.0000 0.0000 0.0000
# 4 0.0000 0.0000 0.0000 36.3417 0.0000 0.0000
# 5 0.0000 0.0000 0.0000 0.0000 -7.9438 0.0000
# 6 0.0000 0.0000 0.0000 0.0000 0.0000 32.8627
#
#
#
# Elastic Compliance Matrix: (Units=1/GPa)
#
#
# Indices 1 2 3 4 5 6 
#
# 1 0.013884 -0.002200 -0.002583 0.000000 0.000000 0.000000
# 2 -0.002200 0.008992 -0.002893 0.000000 0.000000 0.000000
# 3 -0.002583 -0.002893 0.012942 0.000000 0.000000 0.000000
# 4 0.000000 0.000000 0.000000 0.027517 0.000000 0.000000
# 5 0.000000 0.000000 0.000000 0.000000 -0.125884 0.000000
# 6 0.000000 0.000000 0.000000 0.000000 0.000000 0.030430
#
#
# Mechanical properties :
#
#
# Convention : Reuss Voigt Hill
#
# Bulk Modulus (GPa) = 48.85900 51.56604 50.21252
# Shear Modulus (GPa) = -502.75016 26.61859 -238.06578
#
# Velocity S-wave (km/s) = -14.92380 3.43396 -10.26956
# Velocity P-wave (km/s) = 16.59262 6.21021 10.87999
#
# Compressibility (1/GPa) = 0.02046706
#
# Stress axis : x y z
#
# Youngs Moduli (GPa) = 72.02724 111.20388 77.26489
#
# Poissons Ratio (x) = 0.24463 0.19956
# Poissons Ratio (y) = 0.15845 0.22354
# Poissons Ratio (z) = 0.18603 0.32174
#
# Static dielectric constant tensor:
#      x y z
#    x 4.009800 0.000000 0.000000 
#    y 0.000000 4.167070 0.000000 
#    z 0.000000 0.000000 4.088940 
# 
# 
# High freq. dielectric constant tensor:
#      x y z
#    x 1.879500 0.000000 0.000000 
#    y 0.000000 1.898700 0.000000 
#    z 0.000000 0.000000 1.896230 
# 
# From -- ./inp_files/7799.got.cif
#   From: 2010.03.12/outbox.cif.g09.slc.cpg/sg73_4_cif.got.tgz:7799.got - 2010.04.16 15:25:48.
