data_PCOD8296883
_publ_section_title
;
Structure prediction by ZEFSAII (Michael W. Deem and Ramdas Pophale) SiO2 
 PCOD8296883
Probable space group: I B C A 
;
_chemical_formula_sum "Si O2"
_cell_formula_units_Z 64
_cell_length_a 18.982094
_cell_length_b 8.774673
_cell_length_c 18.663401
_cell_angle_alpha 90.000000
_cell_angle_beta 90.000000
_cell_angle_gamma 90.000000
_cell_volume 3108.607196
_symmetry_space_group_name_H-M "I B C A "
_symmetry_group_IT_number 73
_symmetry_cell_setting 'orthorhombic'
loop_
_space_group_symop_operation_xyz
x,y,z
-x,1/2-y,z
x,-y,1/2-z
1/2-x,y,-z
-x,-y,-z
x,1/2+y,-z
-x,y,1/2+z
1/2+x,-y,z
1/2+x,1/2+y,1/2+z
1/2-x,-y,1/2+z
1/2+x,1/2-y,-z
-x,1/2+y,1/2-z
1/2-x,1/2-y,1/2-z
1/2+x,y,1/2-z
1/2-x,1/2+y,z
x,1/2-y,1/2+z
loop_
_atom_site_type_symbol
_atom_site_label
_atom_site_fract_x
_atom_site_fract_y
_atom_site_fract_z
Si Si1 0.063201 0.866093 0.191356
Si Si2 0.811698 0.714674 0.924251
Si Si3 0.322960 0.326185 0.767663
Si Si4 0.663389 0.938587 0.436435
O O1 0.121112 0.754381 0.219669
O O2 0.096266 0.932859 0.117401
O O3 0.000000 0.750000 0.173972
O O4 0.044773 0.000000 0.250000
O O5 0.849866 0.692172 0.848811
O O6 0.730756 0.661609 0.912876
O O7 0.810293 0.890348 0.945258
O O8 0.856289 0.621615 0.983910
O O9 0.315742 0.500000 0.750000
O O10 0.250000 0.250000 0.750000
#
# Coordination Sequence:
#
# PCOD8296883 Si02
#       4
#    16  16  16  16
#     4  12  26  48  66  96 135 184 232 290 344 420
#     4  11  22  39  67 104 138 171 223 284 347 402
#     4  12  23  39  71 103 133 173 233 287 344 405
#     4  11  23  40  67 101 140 174 223 281 352 412
#
# _framework density 20.587999
#
# number of rings (size 3 to 8) (size 9 to 14) (size 15 to 20)
#    0.000    0.500    5.000    6.000    3.500    0.000 
#    0.000    2.500    0.000    0.000    0.000    0.000 
#    0.000    0.000    0.000    0.000    0.000    0.000 
#
# Total GULP energy -396573.139732 kJ/mol
# GULP energy per Si atom -12392.910617 kJ/mol
# Density = 2.054114 g / cm^3
# Si number density = 20.587999 Si / 1000 Ang^3
#
#
#
# Elastic Constant Matrix: (Units=GPa)
#
#
# Indices 1 2 3 4 5 6 
#
# 1 78.7523 35.5144 27.0549 0.0000 0.0000 0.0000
# 2 35.5144 179.0309 39.1080 0.0000 0.0000 0.0000
# 3 27.0549 39.1080 137.2711 0.0000 0.0000 0.0000
# 4 0.0000 0.0000 0.0000 35.6467 0.0000 0.0000
# 5 0.0000 0.0000 0.0000 0.0000 25.6218 0.0000
# 6 0.0000 0.0000 0.0000 0.0000 0.0000 44.8736
#
#
#
# Elastic Compliance Matrix: (Units=1/GPa)
#
#
# Indices 1 2 3 4 5 6 
#
# 1 0.014532 -0.002407 -0.002178 0.000000 0.000000 0.000000
# 2 -0.002407 0.006355 -0.001336 0.000000 0.000000 0.000000
# 3 -0.002178 -0.001336 0.008095 0.000000 0.000000 0.000000
# 4 0.000000 0.000000 0.000000 0.028053 0.000000 0.000000
# 5 0.000000 0.000000 0.000000 0.000000 0.039029 0.000000
# 6 0.000000 0.000000 0.000000 0.000000 0.000000 0.022285
#
#
# Mechanical properties :
#
#
# Convention : Reuss Voigt Hill
#
# Bulk Modulus (GPa) = 58.34680 66.48987 62.41833
# Shear Modulus (GPa) = 36.79054 40.78687 38.78870
#
# Velocity S-wave (km/s) = 4.23187 4.45578 4.34527
# Velocity P-wave (km/s) = 7.23049 7.67056 7.45378
#
# Compressibility (1/GPa) = 0.01713890
#
# Stress axis : x y z
#
# Youngs Moduli (GPa) = 68.81459 157.35792 123.53530
#
# Poissons Ratio (x) = 0.37873 0.26911
# Poissons Ratio (y) = 0.16562 0.16506
# Poissons Ratio (z) = 0.14990 0.21025
#
# Static dielectric constant tensor:
#      x y z
#    x 3.683040 0.000000 0.000000 
#    y 0.000000 3.976280 0.000000 
#    z 0.000000 0.000000 3.813150 
# 
# 
# High freq. dielectric constant tensor:
#      x y z
#    x 1.768820 0.000000 0.000000 
#    y 0.000000 1.831320 0.000000 
#    z 0.000000 0.000000 1.825510 
# 
# From -- ./inp_files/5235.got.cif
#   From: 2010.03.12/outbox.cif.g09.slc.cpg/sg73_3_cif.got.tgz:5235.got - 2010.04.16 15:25:48.
