data_PCOD8296026
_publ_section_title
;
Structure prediction by ZEFSAII (Michael W. Deem and Ramdas Pophale) SiO2 
 PCOD8296026
Probable space group: I B C A 
;
_chemical_formula_sum "Si O2"
_cell_formula_units_Z 96
_cell_length_a 20.509532
_cell_length_b 14.727169
_cell_length_c 14.878120
_cell_angle_alpha 90.000000
_cell_angle_beta 90.000000
_cell_angle_gamma 90.000000
_cell_volume 4493.896628
_symmetry_space_group_name_H-M "I B C A "
_symmetry_group_IT_number 73
_symmetry_cell_setting 'orthorhombic'
loop_
_space_group_symop_operation_xyz
x,y,z
-x,1/2-y,z
x,-y,1/2-z
1/2-x,y,-z
-x,-y,-z
x,1/2+y,-z
-x,y,1/2+z
1/2+x,-y,z
1/2+x,1/2+y,1/2+z
1/2-x,-y,1/2+z
1/2+x,1/2-y,-z
-x,1/2+y,1/2-z
1/2-x,1/2-y,1/2-z
1/2+x,y,1/2-z
1/2-x,1/2+y,z
x,1/2-y,1/2+z
loop_
_atom_site_type_symbol
_atom_site_label
_atom_site_fract_x
_atom_site_fract_y
_atom_site_fract_z
Si Si1 0.726377 0.338603 0.799054
Si Si2 0.376305 0.426069 0.184008
Si Si3 0.138898 0.570487 0.169982
Si Si4 0.679179 0.745712 0.035980
Si Si5 0.073488 0.241930 0.883208
Si Si6 0.824337 0.039335 0.009222
O O1 0.750000 0.250000 0.750000
O O2 0.693015 0.405404 0.728825
O O3 0.788384 0.391297 0.835260
O O4 0.673431 0.307253 0.874603
O O5 0.412118 0.500000 0.250000
O O6 0.415648 0.332100 0.176394
O O7 0.361288 0.466070 0.085959
O O8 0.126364 0.500000 0.250000
O O9 0.085970 0.652350 0.177904
O O10 0.131080 0.520912 0.074335
O O11 0.676854 0.638633 0.054982
O O12 0.750000 0.771980 0.000000
O O13 0.622238 0.769606 0.966740
O O14 0.000000 0.250000 0.919508
O O15 0.750000 0.003832 0.000000
#
# Coordination Sequence:
#
# PCOD8296026 Si02
#       6
#    16  16  16  16  16  16
#     4  12  20  37  68 106 135 172 228 288 357 419
#     4  11  24  41  66  96 135 179 230 282 347 424
#     4  12  24  39  69 104 136 179 231 294 357 418
#     4  10  20  40  68  95 134 181 224 288 355 409
#     4  11  26  47  66  95 141 187 236 288 348 426
#     4  10  21  37  60 101 137 168 222 287 353 421
#
# _framework density 21.362307000000001
#
# number of rings (size 3 to 8) (size 9 to 14) (size 15 to 20)
#    0.000    1.000    3.333    5.500    4.667    0.667 
#    0.000    4.167    0.000    0.000    0.000    0.000 
#    0.000    0.000    0.000    0.000    0.000    0.000 
#
# Total GULP energy -595038.886365 kJ/mol
# GULP energy per Si atom -12396.643466 kJ/mol
# Density = 2.131369 g / cm^3
# Si number density = 21.362307 Si / 1000 Ang^3
#
#
#
# Elastic Constant Matrix: (Units=GPa)
#
#
# Indices 1 2 3 4 5 6 
#
# 1 110.3274 41.4708 39.5870 0.0000 0.0000 0.0000
# 2 41.4708 131.7491 72.9111 0.0000 0.0000 0.0000
# 3 39.5870 72.9111 136.1374 0.0000 0.0000 0.0000
# 4 0.0000 0.0000 0.0000 36.1213 0.0000 0.0000
# 5 0.0000 0.0000 0.0000 0.0000 20.7681 0.0000
# 6 0.0000 0.0000 0.0000 0.0000 0.0000 7.8413
#
#
#
# Elastic Compliance Matrix: (Units=1/GPa)
#
#
# Indices 1 2 3 4 5 6 
#
# 1 0.010595 -0.002317 -0.001840 0.000000 0.000000 0.000000
# 2 -0.002317 0.011294 -0.005375 0.000000 0.000000 0.000000
# 3 -0.001840 -0.005375 0.010759 0.000000 0.000000 0.000000
# 4 0.000000 0.000000 0.000000 0.027685 0.000000 0.000000
# 5 0.000000 0.000000 0.000000 0.000000 0.048151 0.000000
# 6 0.000000 0.000000 0.000000 0.000000 0.000000 0.127529
#
#
# Mechanical properties :
#
#
# Convention : Reuss Voigt Hill
#
# Bulk Modulus (GPa) = 73.61282 76.23907 74.92595
# Shear Modulus (GPa) = 19.26003 27.89581 23.57792
#
# Velocity S-wave (km/s) = 3.00591 3.61756 3.32583
# Velocity P-wave (km/s) = 6.82505 7.29487 7.06387
#
# Compressibility (1/GPa) = 0.01358459
#
# Stress axis : x y z
#
# Youngs Moduli (GPa) = 94.38406 88.54249 92.94248
#
# Poissons Ratio (x) = 0.20512 0.17103
# Poissons Ratio (y) = 0.21865 0.49957
# Poissons Ratio (z) = 0.17368 0.47592
#
# Static dielectric constant tensor:
#      x y z
#    x 3.388220 0.000000 0.000000 
#    y 0.000000 4.646370 0.000000 
#    z 0.000000 0.000000 4.021830 
# 
# 
# High freq. dielectric constant tensor:
#      x y z
#    x 1.783450 0.000000 0.000000 
#    y 0.000000 1.867660 0.000000 
#    z 0.000000 0.000000 1.842460 
# 
# From -- ./inp_files/18640.got.cif
#   From: 2010.03.12/outbox.cif.g09.slc.cpg/sg73_10_cif.got.tgz:18640.got - 2010.04.16 15:25:48.
