data_PCOD8296821
_publ_section_title
;
Structure prediction by ZEFSAII (Michael W. Deem and Ramdas Pophale) SiO2 
 PCOD8296821
Probable space group: I B C A 
;
_chemical_formula_sum "Si O2"
_cell_formula_units_Z 72
_cell_length_a 11.267325
_cell_length_b 19.153468
_cell_length_c 13.919505
_cell_angle_alpha 90.000000
_cell_angle_beta 90.000000
_cell_angle_gamma 90.000000
_cell_volume 3003.945391
_symmetry_space_group_name_H-M "I B C A "
_symmetry_group_IT_number 73
_symmetry_cell_setting 'orthorhombic'
loop_
_space_group_symop_operation_xyz
x,y,z
-x,1/2-y,z
x,-y,1/2-z
1/2-x,y,-z
-x,-y,-z
x,1/2+y,-z
-x,y,1/2+z
1/2+x,-y,z
1/2+x,1/2+y,1/2+z
1/2-x,-y,1/2+z
1/2+x,1/2-y,-z
-x,1/2+y,1/2-z
1/2-x,1/2-y,1/2-z
1/2+x,y,1/2-z
1/2-x,1/2+y,z
x,1/2-y,1/2+z
loop_
_atom_site_type_symbol
_atom_site_label
_atom_site_fract_x
_atom_site_fract_y
_atom_site_fract_z
Si Si1 0.364036 0.776387 0.803352
Si Si2 0.355207 0.000000 0.750000
Si Si3 0.973385 0.629174 0.349942
Si Si4 0.885732 0.710285 0.511296
Si Si5 0.260427 0.399961 0.892839
O O1 0.250000 0.750000 0.750000
O O2 0.455057 0.806289 0.724277
O O3 0.411133 0.711300 0.872097
O O4 0.334652 0.838413 0.877759
O O5 0.437305 0.055584 0.804336
O O6 0.266860 0.035704 0.675608
O O7 0.894508 0.638583 0.449166
O O8 0.110963 0.630520 0.372388
O O9 0.750000 0.740804 0.500000
O O10 0.000000 0.750000 0.463275
O O11 0.250000 0.428541 0.000000
#
# Coordination Sequence:
#
# PCOD8296821 Si02
#       5
#    16   8  16  16  16
#     4  11  24  41  67 107 146 188 234 297 371 459
#     4  10  26  50  72 104 142 200 260 308 376 434
#     4  11  25  44  75 104 145 196 246 306 373 444
#     4  12  25  41  69 112 149 194 241 300 376 449
#     4  11  25  48  70 104 150 187 252 315 367 445
#
# _framework density 23.968478999999999
#
# number of rings (size 3 to 8) (size 9 to 14) (size 15 to 20)
#    0.000    0.889    2.222    4.000    3.111    1.778 
#    0.000    0.000    0.000    0.000    0.000    0.000 
#    0.000    0.000    0.000    0.000    0.000    0.000 
#
# Total GULP energy -445997.545230 kJ/mol
# GULP energy per Si atom -12388.820701 kJ/mol
# Density = 2.391393 g / cm^3
# Si number density = 23.968479 Si / 1000 Ang^3
#
#
#
# Elastic Constant Matrix: (Units=GPa)
#
#
# Indices 1 2 3 4 5 6 
#
# 1 181.9552 38.6966 56.1496 0.0000 0.0000 0.0000
# 2 38.6966 99.7382 72.7036 0.0000 0.0000 0.0000
# 3 56.1496 72.7036 197.9346 -0.0002 0.0001 0.0000
# 4 0.0000 0.0000 -0.0002 28.8363 0.0000 0.0000
# 5 0.0000 0.0000 0.0001 0.0000 39.8363 0.0000
# 6 0.0000 0.0000 0.0000 0.0000 0.0000 37.1708
#
#
#
# Elastic Compliance Matrix: (Units=1/GPa)
#
#
# Indices 1 2 3 4 5 6 
#
# 1 0.006190 -0.001532 -0.001193 0.000000 0.000000 0.000000
# 2 -0.001532 0.014071 -0.004734 0.000000 0.000000 0.000000
# 3 -0.001193 -0.004734 0.007130 0.000000 0.000000 0.000000
# 4 0.000000 0.000000 0.000000 0.034679 0.000000 0.000000
# 5 0.000000 0.000000 0.000000 0.000000 0.025103 0.000000
# 6 0.000000 0.000000 0.000000 0.000000 0.000000 0.026903
#
#
# Mechanical properties :
#
#
# Convention : Reuss Voigt Hill
#
# Bulk Modulus (GPa) = 80.17539 90.52529 85.35034
# Shear Modulus (GPa) = 37.55145 41.97388 39.76266
#
# Velocity S-wave (km/s) = 3.96245 4.18929 4.07745
# Velocity P-wave (km/s) = 7.37954 7.82628 7.60619
#
# Compressibility (1/GPa) = 0.01247266
#
# Stress axis : x y z
#
# Youngs Moduli (GPa) = 161.55485 71.06614 140.26095
#
# Poissons Ratio (x) = 0.10885 0.16738
# Poissons Ratio (y) = 0.24745 0.66401
# Poissons Ratio (z) = 0.19279 0.33643
#
# Static dielectric constant tensor:
#      x y z
#    x 4.655390 0.000000 0.000000 
#    y 0.000000 4.185060 0.000000 
#    z 0.000000 0.000000 5.022330 
# 
# 
# High freq. dielectric constant tensor:
#      x y z
#    x 1.975610 0.000000 0.000000 
#    y 0.000000 1.917960 0.000000 
#    z 0.000000 0.000000 1.980590 
# 
# From -- ./inp_files/15954.got.cif
#   From: 2010.03.12/outbox.cif.g09.slc.cpg/sg73_8_cif.got.tgz:15954.got - 2010.04.16 15:25:48.
