data_PCOD8296631
_publ_section_title
;
Structure prediction by ZEFSAII (Michael W. Deem and Ramdas Pophale) SiO2 
 PCOD8296631
Probable space group: I B C A 
;
_chemical_formula_sum "Si O2"
_cell_formula_units_Z 64
_cell_length_a 11.794890
_cell_length_b 19.764278
_cell_length_c 13.532739
_cell_angle_alpha 90.000000
_cell_angle_beta 90.000000
_cell_angle_gamma 90.000000
_cell_volume 3154.718080
_symmetry_space_group_name_H-M "I B C A "
_symmetry_group_IT_number 73
_symmetry_cell_setting 'orthorhombic'
loop_
_space_group_symop_operation_xyz
x,y,z
-x,1/2-y,z
x,-y,1/2-z
1/2-x,y,-z
-x,-y,-z
x,1/2+y,-z
-x,y,1/2+z
1/2+x,-y,z
1/2+x,1/2+y,1/2+z
1/2-x,-y,1/2+z
1/2+x,1/2-y,-z
-x,1/2+y,1/2-z
1/2-x,1/2-y,1/2-z
1/2+x,y,1/2-z
1/2-x,1/2+y,z
x,1/2-y,1/2+z
loop_
_atom_site_type_symbol
_atom_site_label
_atom_site_fract_x
_atom_site_fract_y
_atom_site_fract_z
Si Si1 0.172322 0.312564 0.775097
Si Si2 0.065787 0.861168 0.425416
Si Si3 0.689733 0.094054 0.904679
Si Si4 0.250000 0.464365 0.500000
Si Si5 0.500000 0.750000 0.426318
O O1 0.250000 0.250000 0.750000
O O2 0.104619 0.332791 0.678676
O O3 0.252186 0.375081 0.807291
O O4 0.084537 0.293836 0.860430
O O5 0.145547 0.920294 0.464037
O O6 0.070831 0.801071 0.505057
O O7 0.942245 0.890884 0.408247
O O8 0.750000 0.128685 0.000000
O O9 0.708929 0.012640 0.909116
#
# Coordination Sequence:
#
# PCOD8296631 Si02
#       5
#    16  16  16   8   8
#     4  12  25  40  67 105 137 184 237 287 355 432
#     4  12  24  43  71 101 134 187 235 287 364 430
#     4  10  23  46  66  95 141 181 222 298 350 416
#     4  10  24  44  72  96 134 188 234 282 366 426
#     4  12  22  42  66  96 144 176 222 302 352 414
#
# _framework density 20.287074
#
# number of rings (size 3 to 8) (size 9 to 14) (size 15 to 20)
#    0.750    0.000    2.500    6.000    0.000    1.000 
#    0.000    2.500    0.000    0.000    0.000    0.000 
#    0.000    0.000    0.000    0.000    0.000    0.000 
#
# Total GULP energy -396832.324597 kJ/mol
# GULP energy per Si atom -12401.010144 kJ/mol
# Density = 2.024090 g / cm^3
# Si number density = 20.287074 Si / 1000 Ang^3
#
#
#
# Elastic Constant Matrix: (Units=GPa)
#
#
# Indices 1 2 3 4 5 6 
#
# 1 174.5331 80.3398 79.1555 0.0000 0.0000 0.0000
# 2 80.3398 157.1548 80.7491 -0.0004 -0.0001 -0.0001
# 3 79.1555 80.7491 140.0449 -0.0005 -0.0001 -0.0001
# 4 0.0000 -0.0004 -0.0005 53.4160 -0.0001 -0.0001
# 5 0.0000 -0.0001 -0.0001 -0.0001 46.8126 0.0000
# 6 0.0000 -0.0001 -0.0001 -0.0001 0.0000 50.4251
#
#
#
# Elastic Compliance Matrix: (Units=1/GPa)
#
#
# Indices 1 2 3 4 5 6 
#
# 1 0.008410 -0.002639 -0.003232 0.000000 0.000000 0.000000
# 2 -0.002639 0.009870 -0.004200 0.000000 0.000000 0.000000
# 3 -0.003232 -0.004200 0.011389 0.000000 0.000000 0.000000
# 4 0.000000 0.000000 0.000000 0.018721 0.000000 0.000000
# 5 0.000000 0.000000 0.000000 0.000000 0.021362 0.000000
# 6 0.000000 0.000000 0.000000 0.000000 0.000000 0.019831
#
#
# Mechanical properties :
#
#
# Convention : Reuss Voigt Hill
#
# Bulk Modulus (GPa) = 104.95085 105.80240 105.37663
# Shear Modulus (GPa) = 44.28731 45.56329 44.92530
#
# Velocity S-wave (km/s) = 4.67736 4.74426 4.71093
# Velocity P-wave (km/s) = 9.00086 9.07064 9.03582
#
# Compressibility (1/GPa) = 0.00952827
#
# Stress axis : x y z
#
# Youngs Moduli (GPa) = 118.90635 101.31871 87.80581
#
# Poissons Ratio (x) = 0.26734 0.28379
# Poissons Ratio (y) = 0.31375 0.36874
# Poissons Ratio (z) = 0.38431 0.42549
#
# Static dielectric constant tensor:
#      x y z
#    x 3.914070 0.000010 0.000000 
#    y 0.000010 3.556380 0.000000 
#    z 0.000000 0.000000 3.699370 
# 
# 
# High freq. dielectric constant tensor:
#      x y z
#    x 1.810950 0.000000 0.000000 
#    y 0.000000 1.799680 0.000000 
#    z 0.000000 0.000000 1.794580 
# 
# From -- ./inp_files/9499.got.cif
#   From: 2010.03.12/outbox.cif.g09.slc.cpg/sg73_5_cif.got.tgz:9499.got - 2010.04.16 15:25:48.
