data_PCOD8296478
_publ_section_title
;
Structure prediction by ZEFSAII (Michael W. Deem and Ramdas Pophale) SiO2 
 PCOD8296478
Probable space group: I B C A 
;
_chemical_formula_sum "Si O2"
_cell_formula_units_Z 120
_cell_length_a 9.037116
_cell_length_b 22.985978
_cell_length_c 24.601389
_cell_angle_alpha 90.000000
_cell_angle_beta 90.000000
_cell_angle_gamma 90.000000
_cell_volume 5110.371492
_symmetry_space_group_name_H-M "I B C A "
_symmetry_group_IT_number 73
_symmetry_cell_setting 'orthorhombic'
loop_
_space_group_symop_operation_xyz
x,y,z
-x,1/2-y,z
x,-y,1/2-z
1/2-x,y,-z
-x,-y,-z
x,1/2+y,-z
-x,y,1/2+z
1/2+x,-y,z
1/2+x,1/2+y,1/2+z
1/2-x,-y,1/2+z
1/2+x,1/2-y,-z
-x,1/2+y,1/2-z
1/2-x,1/2-y,1/2-z
1/2+x,y,1/2-z
1/2-x,1/2+y,z
x,1/2-y,1/2+z
loop_
_atom_site_type_symbol
_atom_site_label
_atom_site_fract_x
_atom_site_fract_y
_atom_site_fract_z
Si Si1 0.411746 0.337449 0.473733
Si Si2 0.245669 0.695328 0.875383
Si Si3 0.337525 0.924038 0.325663
Si Si4 0.500000 0.750000 0.941368
Si Si5 0.069829 0.806560 0.272284
Si Si6 0.610291 0.464207 0.965643
Si Si7 0.645533 0.523074 0.854192
Si Si8 0.701368 0.121792 0.790144
O O1 0.250000 0.337018 0.500000
O O2 0.394111 0.304060 0.416323
O O3 0.520766 0.305576 0.517491
O O4 0.468165 0.401615 0.455662
O O5 0.314126 0.629826 0.867383
O O6 0.363388 0.740746 0.900303
O O7 0.191668 0.715461 0.815923
O O8 0.474983 0.962502 0.345156
O O9 0.364704 0.906220 0.264281
O O10 0.192088 0.965037 0.321621
O O11 0.148422 0.843154 0.224702
O O12 0.000000 0.750000 0.243261
O O13 0.940731 0.839617 0.306970
O O14 0.666196 0.504008 0.916223
O O15 0.750000 0.446690 0.000000
O O16 0.500000 0.500000 0.000000
O O17 0.754072 0.576527 0.837462
#
# Coordination Sequence:
#
# PCOD8296478 Si02
#       8
#    16  16  16   8  16  16  16  16
#     4   9  20  42  68  95 138 186 242 299 367 431
#     4  10  23  44  71 106 138 195 248 320 384 451
#     4  11  25  44  72 107 149 192 253 314 386 468
#     4  10  22  42  78  98 142 198 252 310 368 456
#     4  11  25  47  72 103 151 193 252 318 385 464
#     4  11  24  43  68 103 145 190 239 304 374 450
#     4  12  25  42  76 105 148 204 250 311 394 457
#     4  11  25  47  72 108 147 194 255 317 380 469
#
# _framework density 23.481659000000001
#
# number of rings (size 3 to 8) (size 9 to 14) (size 15 to 20)
#    0.000    1.333    2.667    1.600    8.400    3.200 
#    4.800    2.000    8.800    0.000    0.000    0.000 
#    0.000    0.000    0.000    0.000    0.000    0.000 
#
# Total GULP energy -743358.719073 kJ/mol
# GULP energy per Si atom -12389.311985 kJ/mol
# Density = 2.342821 g / cm^3
# Si number density = 23.481659 Si / 1000 Ang^3
#
#
#
# Elastic Constant Matrix: (Units=GPa)
#
#
# Indices 1 2 3 4 5 6 
#
# 1 86.3562 54.0036 17.4509 0.0000 0.0000 0.0000
# 2 54.0036 123.4825 42.9376 0.0000 0.0000 0.0000
# 3 17.4509 42.9376 98.9227 0.0000 0.0000 0.0000
# 4 0.0000 0.0000 0.0000 35.6801 0.0000 0.0000
# 5 0.0000 0.0000 0.0000 0.0000 37.4765 0.0000
# 6 0.0000 0.0000 0.0000 0.0000 0.0000 50.8881
#
#
#
# Elastic Compliance Matrix: (Units=1/GPa)
#
#
# Indices 1 2 3 4 5 6 
#
# 1 0.015945 -0.007061 0.000252 0.000000 0.000000 0.000000
# 2 -0.007061 0.012665 -0.004252 0.000000 0.000000 0.000000
# 3 0.000252 -0.004252 0.011910 0.000000 0.000000 0.000000
# 4 0.000000 0.000000 0.000000 0.028027 0.000000 0.000000
# 5 0.000000 0.000000 0.000000 0.000000 0.026683 0.000000
# 6 0.000000 0.000000 0.000000 0.000000 0.000000 0.019651
#
#
# Mechanical properties :
#
#
# Convention : Reuss Voigt Hill
#
# Bulk Modulus (GPa) = 54.35269 59.72731 57.04000
# Shear Modulus (GPa) = 34.93241 37.76688 36.34964
#
# Velocity S-wave (km/s) = 3.86119 4.01478 3.93873
# Velocity P-wave (km/s) = 6.56319 6.85436 6.71035
#
# Compressibility (1/GPa) = 0.01839835
#
# Stress axis : x y z
#
# Youngs Moduli (GPa) = 62.71745 78.96029 83.96420
#
# Poissons Ratio (x) = 0.55752 -0.02116
# Poissons Ratio (y) = 0.44283 0.35697
# Poissons Ratio (z) = -0.01580 0.33570
#
# Static dielectric constant tensor:
#      x y z
#    x 3.900610 0.000000 0.000000 
#    y 0.000000 4.407890 0.000000 
#    z 0.000000 0.000000 3.918570 
# 
# 
# High freq. dielectric constant tensor:
#      x y z
#    x 1.918670 0.000000 0.000000 
#    y 0.000000 1.936530 0.000000 
#    z 0.000000 0.000000 1.926230 
# 
# From -- ./inp_files/31421.got.cif
#   From: 2010.03.12/outbox.cif.g09.slc.cpg/sg73_16_cif.got.tgz:31421.got - 2010.04.16 15:25:48.
