data_PCOD8296909
_publ_section_title
;
Structure prediction by ZEFSAII (Michael W. Deem and Ramdas Pophale) SiO2 
 PCOD8296909
Probable space group: I B C A 
;
_chemical_formula_sum "Si O2"
_cell_formula_units_Z 72
_cell_length_a 14.068834
_cell_length_b 20.839129
_cell_length_c 11.746506
_cell_angle_alpha 90.000000
_cell_angle_beta 90.000000
_cell_angle_gamma 90.000000
_cell_volume 3443.867019
_symmetry_space_group_name_H-M "I B C A "
_symmetry_group_IT_number 73
_symmetry_cell_setting 'orthorhombic'
loop_
_space_group_symop_operation_xyz
x,y,z
-x,1/2-y,z
x,-y,1/2-z
1/2-x,y,-z
-x,-y,-z
x,1/2+y,-z
-x,y,1/2+z
1/2+x,-y,z
1/2+x,1/2+y,1/2+z
1/2-x,-y,1/2+z
1/2+x,1/2-y,-z
-x,1/2+y,1/2-z
1/2-x,1/2-y,1/2-z
1/2+x,y,1/2-z
1/2-x,1/2+y,z
x,1/2-y,1/2+z
loop_
_atom_site_type_symbol
_atom_site_label
_atom_site_fract_x
_atom_site_fract_y
_atom_site_fract_z
Si Si1 0.125601 0.602632 0.432785
Si Si2 0.645672 0.251693 0.485093
Si Si3 0.500000 0.750000 0.827274
Si Si4 0.053209 0.146517 0.171721
Si Si5 0.312517 0.564620 0.319594
O O1 0.151568 0.677873 0.430699
O O2 0.199747 0.571625 0.342964
O O3 0.134731 0.569311 0.557283
O O4 0.016075 0.594134 0.389889
O O5 0.750000 0.222922 0.500000
O O6 0.597306 0.259406 0.606225
O O7 0.585263 0.200445 0.416371
O O8 0.485139 0.684373 0.758263
O O9 0.144852 0.117597 0.234140
O O10 0.331939 0.500000 0.250000
#
# Coordination Sequence:
#
# PCOD8296909 Si02
#       5
#    16  16   8  16  16
#     4  11  22  46  68  94 138 173 227 290 339 406
#     4  12  22  38  65 105 138 170 214 285 345 421
#     4  12  20  38  64 106 142 168 218 266 370 410
#     4  12  23  40  72 104 133 177 225 282 357 403
#     4  11  26  46  66  91 135 193 232 276 339 399
#
# _framework density 20.906732000000002
#
# number of rings (size 3 to 8) (size 9 to 14) (size 15 to 20)
#    0.000    0.444    8.889    0.000    3.111    3.556 
#    4.000    0.000    0.000    0.000    0.000    0.000 
#    0.000    0.000    0.000    0.000    0.000    0.000 
#
# Total GULP energy -446143.048254 kJ/mol
# GULP energy per Si atom -12392.862452 kJ/mol
# Density = 2.085915 g / cm^3
# Si number density = 20.906732 Si / 1000 Ang^3
#
#
#
# Elastic Constant Matrix: (Units=GPa)
#
#
# Indices 1 2 3 4 5 6 
#
# 1 117.3750 20.2284 56.1697 0.0000 0.0000 0.0000
# 2 20.2284 82.7926 46.0529 0.0001 0.0000 0.0000
# 3 56.1697 46.0529 109.9939 0.0001 0.0001 0.0000
# 4 0.0000 0.0001 0.0001 39.2114 0.0001 0.0000
# 5 0.0000 0.0000 0.0001 0.0001 37.4615 0.0000
# 6 0.0000 0.0000 0.0000 0.0000 0.0000 27.9231
#
#
#
# Elastic Compliance Matrix: (Units=1/GPa)
#
#
# Indices 1 2 3 4 5 6 
#
# 1 0.011297 0.000585 -0.006014 0.000000 0.000000 0.000000
# 2 0.000585 0.015776 -0.006904 0.000000 0.000000 0.000000
# 3 -0.006014 -0.006904 0.015053 0.000000 0.000000 0.000000
# 4 0.000000 0.000000 0.000000 0.025503 0.000000 0.000000
# 5 0.000000 0.000000 0.000000 0.000000 0.026694 0.000000
# 6 0.000000 0.000000 0.000000 0.000000 0.000000 0.035813
#
#
# Mechanical properties :
#
#
# Convention : Reuss Voigt Hill
#
# Bulk Modulus (GPa) = 57.27287 61.67371 59.47329
# Shear Modulus (GPa) = 31.12938 33.43324 32.28131
#
# Velocity S-wave (km/s) = 3.86290 4.00329 3.93372
# Velocity P-wave (km/s) = 6.88113 7.13666 7.01006
#
# Compressibility (1/GPa) = 0.01746027
#
# Stress axis : x y z
#
# Youngs Moduli (GPa) = 88.52087 63.38893 66.43218
#
# Poissons Ratio (x) = -0.03708 0.39951
# Poissons Ratio (y) = -0.05179 0.45863
# Poissons Ratio (z) = 0.53235 0.43762
#
# Static dielectric constant tensor:
#      x y z
#    x 4.451760 0.000000 0.000000 
#    y 0.000000 3.633500 0.000000 
#    z 0.000000 0.000000 4.044390 
# 
# 
# High freq. dielectric constant tensor:
#      x y z
#    x 1.825980 0.000000 0.000000 
#    y 0.000000 1.795240 0.000000 
#    z 0.000000 0.000000 1.828650 
# 
# From -- ./inp_files/10608.got.cif
#   From: 2010.03.12/outbox.cif.g09.slc.cpg/sg73_6_cif.got.tgz:10608.got - 2010.04.16 15:25:48.
