data_PCOD8296427
_publ_section_title
;
Structure prediction by ZEFSAII (Michael W. Deem and Ramdas Pophale) SiO2 
 PCOD8296427
Probable space group: I B C A 
;
_chemical_formula_sum "Si O2"
_cell_formula_units_Z 112
_cell_length_a 11.538377
_cell_length_b 29.473202
_cell_length_c 15.617299
_cell_angle_alpha 90.000000
_cell_angle_beta 90.000000
_cell_angle_gamma 90.000000
_cell_volume 5311.020412
_symmetry_space_group_name_H-M "I B C A "
_symmetry_group_IT_number 73
_symmetry_cell_setting 'orthorhombic'
loop_
_space_group_symop_operation_xyz
x,y,z
-x,1/2-y,z
x,-y,1/2-z
1/2-x,y,-z
-x,-y,-z
x,1/2+y,-z
-x,y,1/2+z
1/2+x,-y,z
1/2+x,1/2+y,1/2+z
1/2-x,-y,1/2+z
1/2+x,1/2-y,-z
-x,1/2+y,1/2-z
1/2-x,1/2-y,1/2-z
1/2+x,y,1/2-z
1/2-x,1/2+y,z
x,1/2-y,1/2+z
loop_
_atom_site_type_symbol
_atom_site_label
_atom_site_fract_x
_atom_site_fract_y
_atom_site_fract_z
Si Si1 0.739140 0.235375 0.846246
Si Si2 0.783284 0.861580 0.597582
Si Si3 0.000000 0.250000 0.563424
Si Si4 0.828727 0.000000 0.750000
Si Si5 0.515427 0.992944 0.900253
Si Si6 0.030766 0.896455 0.642766
Si Si7 0.140520 0.687102 0.051175
Si Si8 0.147468 0.931365 0.801650
O O1 0.750000 0.250000 0.750000
O O2 0.795054 0.186111 0.854734
O O3 0.606515 0.235221 0.877131
O O4 0.818728 0.268336 0.900470
O O5 0.750000 0.852873 0.500000
O O6 0.899519 0.889241 0.614465
O O7 0.681465 0.890434 0.637879
O O8 0.034797 0.294938 0.508378
O O9 0.902845 0.996144 0.661978
O O10 0.750556 0.954024 0.754811
O O11 0.572209 0.942935 0.901151
O O12 0.604565 0.028881 0.863102
O O13 0.500000 0.000000 0.000000
O O14 0.103939 0.852648 0.615205
O O15 0.047829 0.907804 0.743450
O O16 0.250000 0.666923 0.000000
#
# Coordination Sequence:
#
# PCOD8296427 Si02
#       8
#    16  16   8   8  16  16  16  16
#     4  11  24  43  66  99 133 180 223 284 349 410
#     4  12  25  43  71 102 134 179 233 286 350 423
#     4  10  22  44  68  90 138 176 224 280 344 420
#     4  12  22  48  66  94 142 180 224 286 344 410
#     4  12  25  43  68  97 133 185 231 283 348 412
#     4  12  23  43  66  99 135 177 229 284 349 420
#     4  10  22  41  66  96 133 173 222 280 343 413
#     4  12  24  44  69  97 139 177 226 285 346 414
#
# _framework density 21.088225000000001
#
# number of rings (size 3 to 8) (size 9 to 14) (size 15 to 20)
#    0.000    0.571    4.286    4.714    0.000    4.000 
#    0.000    4.286    0.000    0.000    0.000    0.000 
#    0.000    0.000    0.000    0.000    0.000    0.000 
#
# Total GULP energy -694139.386766 kJ/mol
# GULP energy per Si atom -12395.346192 kJ/mol
# Density = 2.104023 g / cm^3
# Si number density = 21.088225 Si / 1000 Ang^3
#
#
#
# Elastic Constant Matrix: (Units=GPa)
#
#
# Indices 1 2 3 4 5 6 
#
# 1 84.3609 39.2183 59.6260 -0.0001 0.0000 0.0000
# 2 39.2183 160.2498 61.5925 -0.0001 0.0000 0.0000
# 3 59.6260 61.5925 139.0225 -0.0010 0.0004 -0.0004
# 4 -0.0001 -0.0001 -0.0010 40.4197 0.0001 -0.0001
# 5 0.0000 0.0000 0.0004 0.0001 33.9707 0.0000
# 6 0.0000 0.0000 -0.0004 -0.0001 0.0000 29.2779
#
#
#
# Elastic Compliance Matrix: (Units=1/GPa)
#
#
# Indices 1 2 3 4 5 6 
#
# 1 0.017375 -0.001673 -0.006711 0.000000 0.000000 0.000000
# 2 -0.001673 0.007682 -0.002686 0.000000 0.000000 0.000000
# 3 -0.006711 -0.002686 0.011261 0.000000 0.000000 0.000000
# 4 0.000000 0.000000 0.000000 0.024740 0.000000 0.000000
# 5 0.000000 0.000000 0.000000 0.000000 0.029437 0.000000
# 6 0.000000 0.000000 0.000000 0.000000 0.000000 0.034156
#
#
# Mechanical properties :
#
#
# Convention : Reuss Voigt Hill
#
# Bulk Modulus (GPa) = 70.52775 78.27853 74.40314
# Shear Modulus (GPa) = 32.99973 35.61342 34.30658
#
# Velocity S-wave (km/s) = 3.96010 4.11394 4.03775
# Velocity P-wave (km/s) = 7.37744 7.73085 7.55621
#
# Compressibility (1/GPa) = 0.01417882
#
# Stress axis : x y z
#
# Youngs Moduli (GPa) = 57.55512 130.17418 88.79984
#
# Poissons Ratio (x) = 0.21776 0.59591
# Poissons Ratio (y) = 0.09628 0.23851
# Poissons Ratio (z) = 0.38624 0.34964
#
# Static dielectric constant tensor:
#      x y z
#    x 3.969050 0.000000 0.000000 
#    y 0.000000 4.045950 0.000000 
#    z 0.000000 0.000000 4.457520 
# 
# 
# High freq. dielectric constant tensor:
#      x y z
#    x 1.829040 0.000000 0.000000 
#    y 0.000000 1.846350 0.000000 
#    z 0.000000 0.000000 1.829070 
# 
# From -- ./inp_files/16389.got.cif
#   From: 2010.03.12/outbox.cif.g09.slc.cpg/sg73_9_cif.got.tgz:16389.got - 2010.04.16 15:25:48.
