data_PCOD8296820
_publ_section_title
;
Structure prediction by ZEFSAII (Michael W. Deem and Ramdas Pophale) SiO2 
 PCOD8296820
Probable space group: I B C A 
;
_chemical_formula_sum "Si O2"
_cell_formula_units_Z 64
_cell_length_a 5.466407
_cell_length_b 29.791228
_cell_length_c 16.135795
_cell_angle_alpha 90.000000
_cell_angle_beta 90.000000
_cell_angle_gamma 90.000000
_cell_volume 2627.729985
_symmetry_space_group_name_H-M "I B C A "
_symmetry_group_IT_number 73
_symmetry_cell_setting 'orthorhombic'
loop_
_space_group_symop_operation_xyz
x,y,z
-x,1/2-y,z
x,-y,1/2-z
1/2-x,y,-z
-x,-y,-z
x,1/2+y,-z
-x,y,1/2+z
1/2+x,-y,z
1/2+x,1/2+y,1/2+z
1/2-x,-y,1/2+z
1/2+x,1/2-y,-z
-x,1/2+y,1/2-z
1/2-x,1/2-y,1/2-z
1/2+x,y,1/2-z
1/2-x,1/2+y,z
x,1/2-y,1/2+z
loop_
_atom_site_type_symbol
_atom_site_label
_atom_site_fract_x
_atom_site_fract_y
_atom_site_fract_z
Si Si1 0.750000 0.173618 0.500000
Si Si2 0.379342 0.612479 0.584959
Si Si3 0.446266 0.982070 0.155582
Si Si4 0.500000 0.750000 0.902722
Si Si5 0.762219 0.684615 0.200825
O O1 0.619374 0.141988 0.433443
O O2 0.559042 0.206482 0.543929
O O3 0.250000 0.596087 0.500000
O O4 0.454425 0.571387 0.644587
O O5 0.195240 0.643958 0.635988
O O6 0.444045 0.000000 0.250000
O O7 0.694532 0.000686 0.112190
O O8 0.724110 0.733464 0.844374
O O9 0.494629 0.679953 0.239147
#
# Coordination Sequence:
#
# PCOD8296820 Si02
#       5
#     8  16  16   8  16
#     4  12  26  50  78 116 168 216 270 340 392 478
#     4  12  28  50  80 117 158 213 269 330 404 481
#     4  10  26  49  81 113 154 201 255 330 404 481
#     4  12  24  50  76 114 164 222 276 326 402 460
#     4  12  28  47  78 114 159 210 270 334 387 471
#
# _framework density 24.355622
#
# number of rings (size 3 to 8) (size 9 to 14) (size 15 to 20)
#    0.000    0.500    2.500    3.750   10.500    3.000 
#    0.000    0.000    0.000    0.000    0.000    0.000 
#    0.000    0.000    0.000    0.000    0.000    0.000 
#
# Total GULP energy -396604.726778 kJ/mol
# GULP energy per Si atom -12393.897712 kJ/mol
# Density = 2.430019 g / cm^3
# Si number density = 24.355622 Si / 1000 Ang^3
#
#
#
# Elastic Constant Matrix: (Units=GPa)
#
#
# Indices 1 2 3 4 5 6 
#
# 1 153.5097 50.5094 26.1795 0.0000 0.0000 0.0000
# 2 50.5094 185.4210 56.8419 0.0000 0.0000 0.0000
# 3 26.1795 56.8419 95.2792 -0.0001 0.0000 0.0000
# 4 0.0000 0.0000 -0.0001 69.3310 0.0000 0.0000
# 5 0.0000 0.0000 0.0000 0.0000 32.9750 0.0000
# 6 0.0000 0.0000 0.0000 0.0000 0.0000 37.3038
#
#
#
# Elastic Compliance Matrix: (Units=1/GPa)
#
#
# Indices 1 2 3 4 5 6 
#
# 1 0.007232 -0.001665 -0.000993 0.000000 0.000000 0.000000
# 2 -0.001665 0.006984 -0.003709 0.000000 0.000000 0.000000
# 3 -0.000993 -0.003709 0.012981 0.000000 0.000000 0.000000
# 4 0.000000 0.000000 0.000000 0.014424 0.000000 0.000000
# 5 0.000000 0.000000 0.000000 0.000000 0.030326 0.000000
# 6 0.000000 0.000000 0.000000 0.000000 0.000000 0.026807
#
#
# Mechanical properties :
#
#
# Convention : Reuss Voigt Hill
#
# Bulk Modulus (GPa) = 69.15084 77.91906 73.53495
# Shear Modulus (GPa) = 42.98910 47.96724 45.47817
#
# Velocity S-wave (km/s) = 4.20582 4.44267 4.32586
# Velocity P-wave (km/s) = 7.21381 7.64055 7.43024
#
# Compressibility (1/GPa) = 0.01446114
#
# Stress axis : x y z
#
# Youngs Moduli (GPa) = 138.28144 143.18989 77.03540
#
# Poissons Ratio (x) = 0.23846 0.07653
# Poissons Ratio (y) = 0.23029 0.28571
# Poissons Ratio (z) = 0.13738 0.53106
#
# Static dielectric constant tensor:
#      x y z
#    x 4.900370 0.000000 0.000000 
#    y 0.000000 4.397810 0.000000 
#    z 0.000000 0.000000 4.549000 
# 
# 
# High freq. dielectric constant tensor:
#      x y z
#    x 1.980170 0.000000 0.000000 
#    y 0.000000 1.973910 0.000000 
#    z 0.000000 0.000000 1.963190 
# 
# From -- ./inp_files/1163.got.cif
#   From: 2010.03.12/outbox.cif.g09.slc.cpg/sg73_1_cif.got.tgz:1163.got - 2010.04.16 15:25:48.
