data_PCOD8296991
_publ_section_title
;
Structure prediction by ZEFSAII (Michael W. Deem and Ramdas Pophale) SiO2 
 PCOD8296991
Probable space group: I B C A 
;
_chemical_formula_sum "Si O2"
_cell_formula_units_Z 64
_cell_length_a 30.431990
_cell_length_b 9.256401
_cell_length_c 10.208404
_cell_angle_alpha 90.000000
_cell_angle_beta 90.000000
_cell_angle_gamma 90.000000
_cell_volume 2875.612496
_symmetry_space_group_name_H-M "I B C A "
_symmetry_group_IT_number 73
_symmetry_cell_setting 'orthorhombic'
loop_
_space_group_symop_operation_xyz
x,y,z
-x,1/2-y,z
x,-y,1/2-z
1/2-x,y,-z
-x,-y,-z
x,1/2+y,-z
-x,y,1/2+z
1/2+x,-y,z
1/2+x,1/2+y,1/2+z
1/2-x,-y,1/2+z
1/2+x,1/2-y,-z
-x,1/2+y,1/2-z
1/2-x,1/2-y,1/2-z
1/2+x,y,1/2-z
1/2-x,1/2+y,z
x,1/2-y,1/2+z
loop_
_atom_site_type_symbol
_atom_site_label
_atom_site_fract_x
_atom_site_fract_y
_atom_site_fract_z
Si Si1 0.518108 0.085676 0.378929
Si Si2 0.121678 0.434374 0.613271
Si Si3 0.769825 0.000000 0.250000
Si Si4 0.750000 0.834549 0.000000
Si Si5 0.171389 0.839900 0.938681
O O1 0.500000 0.250000 0.373616
O O2 0.569779 0.069968 0.399791
O O3 0.502645 0.000000 0.250000
O O4 0.500000 0.000000 0.500000
O O5 0.136986 0.500000 0.750000
O O6 0.133448 0.267361 0.604458
O O7 0.147483 0.522431 0.501446
O O8 0.801454 0.878998 0.309406
O O9 0.740780 0.066883 0.370034
O O10 0.792993 0.738894 0.033320
#
# Coordination Sequence:
#
# PCOD8296991 Si02
#       5
#    16  16   8   8  16
#     4  11  24  47  74 108 142 187 235 294 362 435
#     4  11  26  45  70 103 142 182 234 293 351 422
#     4  12  26  46  70 102 134 194 236 296 344 416
#     4  12  26  46  74 100 142 188 240 290 350 412
#     4  12  25  46  69 103 141 185 240 288 354 409
#
# _framework density 22.256129000000001
#
# number of rings (size 3 to 8) (size 9 to 14) (size 15 to 20)
#    0.000    0.500    2.500    5.250    1.750    2.000 
#    4.500    0.000    0.000    0.000    0.000    0.000 
#    0.000    0.000    0.000    0.000    0.000    0.000 
#
# Total GULP energy -396687.269768 kJ/mol
# GULP energy per Si atom -12396.477180 kJ/mol
# Density = 2.220547 g / cm^3
# Si number density = 22.256129 Si / 1000 Ang^3
#
#
#
# Elastic Constant Matrix: (Units=GPa)
#
#
# Indices 1 2 3 4 5 6 
#
# 1 75.3709 39.7519 38.4239 0.0000 0.0000 0.0000
# 2 39.7519 150.9194 53.7691 0.0000 0.0000 0.0000
# 3 38.4239 53.7691 118.5994 0.0000 0.0000 0.0000
# 4 0.0000 0.0000 0.0000 37.8300 0.0000 0.0000
# 5 0.0000 0.0000 0.0000 0.0000 15.7242 0.0000
# 6 0.0000 0.0000 0.0000 0.0000 0.0000 50.5488
#
#
#
# Elastic Compliance Matrix: (Units=1/GPa)
#
#
# Indices 1 2 3 4 5 6 
#
# 1 0.016955 -0.002992 -0.004136 0.000000 0.000000 0.000000
# 2 -0.002992 0.008431 -0.002853 0.000000 0.000000 0.000000
# 3 -0.004136 -0.002853 0.011065 0.000000 0.000000 0.000000
# 4 0.000000 0.000000 0.000000 0.026434 0.000000 0.000000
# 5 0.000000 0.000000 0.000000 0.000000 0.063596 0.000000
# 6 0.000000 0.000000 0.000000 0.000000 0.000000 0.019783
#
#
# Mechanical properties :
#
#
# Convention : Reuss Voigt Hill
#
# Bulk Modulus (GPa) = 60.65106 67.64217 64.14661
# Shear Modulus (GPa) = 29.11688 35.01692 32.06690
#
# Velocity S-wave (km/s) = 3.62092 3.97086 3.79992
# Velocity P-wave (km/s) = 6.69268 7.17511 6.93809
#
# Compressibility (1/GPa) = 0.01648776
#
# Stress axis : x y z
#
# Youngs Moduli (GPa) = 58.98129 118.61644 90.37329
#
# Poissons Ratio (x) = 0.35491 0.37382
# Poissons Ratio (y) = 0.17648 0.25781
# Poissons Ratio (z) = 0.24397 0.33838
#
# Static dielectric constant tensor:
#      x y z
#    x 4.275610 0.000000 0.000000 
#    y 0.000000 4.222840 0.000000 
#    z 0.000000 0.000000 7.509600 
# 
# 
# High freq. dielectric constant tensor:
#      x y z
#    x 1.883280 0.000000 0.000000 
#    y 0.000000 1.899530 0.000000 
#    z 0.000000 0.000000 1.880560 
# 
# From -- ./inp_files/8247.got.cif
#   From: 2010.03.12/outbox.cif.g09.slc.cpg/sg73_5_cif.got.tgz:8247.got - 2010.04.16 15:25:48.
