data_PCOD8296882
_publ_section_title
;
Structure prediction by ZEFSAII (Michael W. Deem and Ramdas Pophale) SiO2 
 PCOD8296882
Probable space group: I B C A 
;
_chemical_formula_sum "Si O2"
_cell_formula_units_Z 64
_cell_length_a 19.177067
_cell_length_b 8.005201
_cell_length_c 18.924131
_cell_angle_alpha 90.000000
_cell_angle_beta 90.000000
_cell_angle_gamma 90.000000
_cell_volume 2905.162116
_symmetry_space_group_name_H-M "I B C A "
_symmetry_group_IT_number 73
_symmetry_cell_setting 'orthorhombic'
loop_
_space_group_symop_operation_xyz
x,y,z
-x,1/2-y,z
x,-y,1/2-z
1/2-x,y,-z
-x,-y,-z
x,1/2+y,-z
-x,y,1/2+z
1/2+x,-y,z
1/2+x,1/2+y,1/2+z
1/2-x,-y,1/2+z
1/2+x,1/2-y,-z
-x,1/2+y,1/2-z
1/2-x,1/2-y,1/2-z
1/2+x,y,1/2-z
1/2-x,1/2+y,z
x,1/2-y,1/2+z
loop_
_atom_site_type_symbol
_atom_site_label
_atom_site_fract_x
_atom_site_fract_y
_atom_site_fract_z
Si Si1 0.159335 0.849801 0.929293
Si Si2 0.184331 0.042210 0.422741
Si Si3 0.438938 0.370420 0.804790
Si Si4 0.676588 0.817880 0.276904
O O1 0.231815 0.950640 0.925310
O O2 0.164991 0.652603 0.910491
O O3 0.102020 0.930622 0.876006
O O4 0.140406 0.881484 0.011371
O O5 0.164939 0.169815 0.360592
O O6 0.500000 0.250000 0.831620
O O7 0.475060 0.500000 0.750000
O O8 0.382077 0.298817 0.752444
O O9 0.750000 0.750000 0.250000
O O10 0.665464 0.000000 0.250000
#
# Coordination Sequence:
#
# PCOD8296882 Si02
#       4
#    16  16  16  16
#     4  11  24  41  69 102 142 178 224 286 353 415
#     4  11  22  39  67 103 138 171 230 282 348 403
#     4  12  28  46  68  97 139 183 237 288 352 413
#     4  12  22  40  70 102 133 177 231 290 341 408
#
# _framework density 22.029751999999998
#
# number of rings (size 3 to 8) (size 9 to 14) (size 15 to 20)
#    0.000    0.500    5.000    4.500    7.000    0.000 
#    0.000    2.500    0.000    0.000    0.000    0.000 
#    0.000    0.000    0.000    0.000    0.000    0.000 
#
# Total GULP energy -396424.774179 kJ/mol
# GULP energy per Si atom -12388.274193 kJ/mol
# Density = 2.197961 g / cm^3
# Si number density = 22.029752 Si / 1000 Ang^3
#
#
#
# Elastic Constant Matrix: (Units=GPa)
#
#
# Indices 1 2 3 4 5 6 
#
# 1 71.5463 -4.4314 31.7410 0.0000 0.0000 0.0000
# 2 -4.4314 42.6237 6.0068 0.0000 0.0000 0.0000
# 3 31.7410 6.0068 178.8995 0.0000 0.0000 0.0000
# 4 0.0000 0.0000 0.0000 40.3702 0.0000 0.0000
# 5 0.0000 0.0000 0.0000 0.0000 37.1847 0.0000
# 6 0.0000 0.0000 0.0000 0.0000 0.0000 28.5392
#
#
#
# Elastic Compliance Matrix: (Units=1/GPa)
#
#
# Indices 1 2 3 4 5 6 
#
# 1 0.015337 0.001987 -0.002788 0.000000 0.000000 0.000000
# 2 0.001987 0.023830 -0.001153 0.000000 0.000000 0.000000
# 3 -0.002788 -0.001153 0.006123 0.000000 0.000000 0.000000
# 4 0.000000 0.000000 0.000000 0.024771 0.000000 0.000000
# 5 0.000000 0.000000 0.000000 0.000000 0.026893 0.000000
# 6 0.000000 0.000000 0.000000 0.000000 0.000000 0.035040
#
#
# Mechanical properties :
#
#
# Convention : Reuss Voigt Hill
#
# Bulk Modulus (GPa) = 24.16406 39.96690 32.06548
# Shear Modulus (GPa) = 33.40143 38.53570 35.96857
#
# Velocity S-wave (km/s) = 3.89806 4.18695 4.04509
# Velocity P-wave (km/s) = 5.59039 6.44637 6.03358
#
# Compressibility (1/GPa) = 0.04138377
#
# Stress axis : x y z
#
# Youngs Moduli (GPa) = 65.20234 41.96353 163.31685
#
# Poissons Ratio (x) = -0.08340 0.45530
# Poissons Ratio (y) = -0.12958 0.18826
# Poissons Ratio (z) = 0.18177 0.04837
#
# Static dielectric constant tensor:
#      x y z
#    x 4.519820 0.000000 0.000000 
#    y 0.000000 3.813750 0.000000 
#    z 0.000000 0.000000 3.804090 
# 
# 
# High freq. dielectric constant tensor:
#      x y z
#    x 1.830190 0.000000 0.000000 
#    y 0.000000 1.868740 0.000000 
#    z 0.000000 0.000000 1.896040 
# 
# From -- ./inp_files/6082.got.cif
#   From: 2010.03.12/outbox.cif.g09.slc.cpg/sg73_4_cif.got.tgz:6082.got - 2010.04.16 15:25:48.
