data_PCOD8296377
_publ_section_title
;
Structure prediction by ZEFSAII (Michael W. Deem and Ramdas Pophale) SiO2 
 PCOD8296377
Probable space group: I B C A 
;
_chemical_formula_sum "Si O2"
_cell_formula_units_Z 88
_cell_length_a 17.295647
_cell_length_b 12.791367
_cell_length_c 18.555115
_cell_angle_alpha 90.000000
_cell_angle_beta 90.000000
_cell_angle_gamma 90.000000
_cell_volume 4105.040278
_symmetry_space_group_name_H-M "I B C A "
_symmetry_group_IT_number 73
_symmetry_cell_setting 'orthorhombic'
loop_
_space_group_symop_operation_xyz
x,y,z
-x,1/2-y,z
x,-y,1/2-z
1/2-x,y,-z
-x,-y,-z
x,1/2+y,-z
-x,y,1/2+z
1/2+x,-y,z
1/2+x,1/2+y,1/2+z
1/2-x,-y,1/2+z
1/2+x,1/2-y,-z
-x,1/2+y,1/2-z
1/2-x,1/2-y,1/2-z
1/2+x,y,1/2-z
1/2-x,1/2+y,z
x,1/2-y,1/2+z
loop_
_atom_site_type_symbol
_atom_site_label
_atom_site_fract_x
_atom_site_fract_y
_atom_site_fract_z
Si Si1 0.544253 0.058985 0.619687
Si Si2 0.136045 0.000000 0.750000
Si Si3 0.260719 0.171863 0.317519
Si Si4 0.100979 0.341860 0.094944
Si Si5 0.500000 0.750000 0.474413
Si Si6 0.500000 0.250000 0.782570
Si Si7 0.101395 0.588195 0.694963
O O1 0.544286 0.164579 0.573576
O O2 0.453260 0.034216 0.634897
O O3 0.583905 0.074698 0.698392
O O4 0.590106 0.966372 0.578608
O O5 0.190581 0.070692 0.702631
O O6 0.250000 0.250000 0.250000
O O7 0.313148 0.207500 0.386700
O O8 0.176316 0.137024 0.344427
O O9 0.049411 0.326652 0.166603
O O10 0.070470 0.287330 0.023731
O O11 0.556806 0.317698 0.733620
O O12 0.130740 0.500000 0.750000
#
# Coordination Sequence:
#
# PCOD8296377 Si02
#       7
#    16   8  16  16   8   8  16
#     4  11  22  39  65  93 125 164 227 272 325 382
#     4  10  22  40  62 100 130 156 204 296 332 380
#     4  11  22  36  63  95 135 163 206 274 350 380
#     4  10  22  42  59  89 132 176 217 271 320 402
#     4  11  25  40  68  88 123 191 226 254 326 419
#     4  11  19  36  62  92 133 165 210 270 338 373
#     4  12  21  36  64 102 127 164 211 278 337 391
#
# _framework density 21.437061
#
# number of rings (size 3 to 8) (size 9 to 14) (size 15 to 20)
#    0.000    1.091    5.455    2.182    2.545    0.000 
#    0.000    0.909    0.000    0.000    0.000    0.000 
#    0.000    0.000    0.000    0.000    0.000    0.000 
#
# Total GULP energy -545170.706951 kJ/mol
# GULP energy per Si atom -12390.243340 kJ/mol
# Density = 2.138827 g / cm^3
# Si number density = 21.437061 Si / 1000 Ang^3
#
#
#
# Elastic Constant Matrix: (Units=GPa)
#
#
# Indices 1 2 3 4 5 6 
#
# 1 147.1621 40.3802 44.0561 0.0000 0.0000 0.0000
# 2 40.3802 98.4796 42.4586 0.0000 0.0000 0.0000
# 3 44.0561 42.4586 100.1794 0.0000 0.0000 0.0000
# 4 0.0000 0.0000 0.0000 34.9531 0.0000 0.0000
# 5 0.0000 0.0000 0.0000 0.0000 21.3414 0.0000
# 6 0.0000 0.0000 0.0000 0.0000 0.0000 30.8616
#
#
#
# Elastic Compliance Matrix: (Units=1/GPa)
#
#
# Indices 1 2 3 4 5 6 
#
# 1 0.008201 -0.002212 -0.002669 0.000000 0.000000 0.000000
# 2 -0.002212 0.013021 -0.004546 0.000000 0.000000 0.000000
# 3 -0.002669 -0.004546 0.013083 0.000000 0.000000 0.000000
# 4 0.000000 0.000000 0.000000 0.028610 0.000000 0.000000
# 5 0.000000 0.000000 0.000000 0.000000 0.046857 0.000000
# 6 0.000000 0.000000 0.000000 0.000000 0.000000 0.032403
#
#
# Mechanical properties :
#
#
# Convention : Reuss Voigt Hill
#
# Bulk Modulus (GPa) = 64.72131 66.62344 65.67237
# Shear Modulus (GPa) = 30.08792 32.02631 31.05711
#
# Velocity S-wave (km/s) = 3.75046 3.86938 3.81038
# Velocity P-wave (km/s) = 7.00082 7.14905 7.07532
#
# Compressibility (1/GPa) = 0.01545086
#
# Stress axis : x y z
#
# Youngs Moduli (GPa) = 121.93243 76.79682 76.43720
#
# Poissons Ratio (x) = 0.16988 0.20402
# Poissons Ratio (y) = 0.26972 0.34748
# Poissons Ratio (z) = 0.32546 0.34912
#
# Static dielectric constant tensor:
#      x y z
#    x 4.383340 0.000000 0.000000 
#    y 0.000000 3.995050 0.000000 
#    z 0.000000 0.000000 3.927590 
# 
# 
# High freq. dielectric constant tensor:
#      x y z
#    x 1.845950 0.000000 0.000000 
#    y 0.000000 1.846730 0.000000 
#    z 0.000000 0.000000 1.815380 
# 
# From -- ./inp_files/12764.got.cif
#   From: 2010.03.12/outbox.cif.g09.slc.cpg/sg73_7_cif.got.tgz:12764.got - 2010.04.16 15:25:48.
