data_PCOD8296887
_publ_section_title
;
Structure prediction by ZEFSAII (Michael W. Deem and Ramdas Pophale) SiO2 
 PCOD8296887
Probable space group: I B C A 
;
_chemical_formula_sum "Si O2"
_cell_formula_units_Z 64
_cell_length_a 20.202149
_cell_length_b 15.916680
_cell_length_c 8.098998
_cell_angle_alpha 90.000000
_cell_angle_beta 90.000000
_cell_angle_gamma 90.000000
_cell_volume 2604.242047
_symmetry_space_group_name_H-M "I B C A "
_symmetry_group_IT_number 73
_symmetry_cell_setting 'orthorhombic'
loop_
_space_group_symop_operation_xyz
x,y,z
-x,1/2-y,z
x,-y,1/2-z
1/2-x,y,-z
-x,-y,-z
x,1/2+y,-z
-x,y,1/2+z
1/2+x,-y,z
1/2+x,1/2+y,1/2+z
1/2-x,-y,1/2+z
1/2+x,1/2-y,-z
-x,1/2+y,1/2-z
1/2-x,1/2-y,1/2-z
1/2+x,y,1/2-z
1/2-x,1/2+y,z
x,1/2-y,1/2+z
loop_
_atom_site_type_symbol
_atom_site_label
_atom_site_fract_x
_atom_site_fract_y
_atom_site_fract_z
Si Si1 0.955422 0.668328 0.427105
Si Si2 0.054203 0.425624 0.879414
Si Si3 0.317681 0.128341 0.462997
Si Si4 0.184141 0.807563 0.590320
O O1 0.948257 0.659886 0.230033
O O2 0.882151 0.667655 0.496726
O O3 0.000000 0.750000 0.465459
O O4 0.990932 0.583369 0.499527
O O5 0.051976 0.500000 0.750000
O O6 0.119980 0.429517 0.992173
O O7 0.250000 0.075851 0.500000
O O8 0.323036 0.159556 0.275840
O O9 0.311849 0.206615 0.590362
O O10 0.250000 0.845007 0.500000
#
# Coordination Sequence:
#
# PCOD8296887 Si02
#       4
#    16  16  16  16
#     4  12  24  42  70 102 133 181 240 293 350 427
#     4  12  26  44  66 102 148 189 231 290 364 430
#     4  11  22  41  67 102 140 179 231 291 356 425
#     4  11  22  40  71 105 136 173 233 303 355 413
#
# _framework density 24.575289000000001
#
# number of rings (size 3 to 8) (size 9 to 14) (size 15 to 20)
#    0.000    0.500    2.500    9.000    0.000    0.000 
#    0.000    3.750    0.000    1.500    0.000    0.000 
#    0.000    0.000    0.000    0.000    0.000    0.000 
#
# Total GULP energy -396649.210009 kJ/mol
# GULP energy per Si atom -12395.287813 kJ/mol
# Density = 2.451935 g / cm^3
# Si number density = 24.575289 Si / 1000 Ang^3
#
#
#
# Elastic Constant Matrix: (Units=GPa)
#
#
# Indices 1 2 3 4 5 6 
#
# 1 231.0115 18.8061 51.8142 0.0000 0.0000 0.0000
# 2 18.8061 39.3072 13.7241 0.0000 0.0000 0.0000
# 3 51.8142 13.7241 135.3499 0.0000 0.0000 0.0000
# 4 0.0000 0.0000 0.0000 17.1485 0.0000 0.0000
# 5 0.0000 0.0000 0.0000 0.0000 48.2301 0.0000
# 6 0.0000 0.0000 0.0000 0.0000 0.0000 -21.2218
#
#
#
# Elastic Compliance Matrix: (Units=1/GPa)
#
#
# Indices 1 2 3 4 5 6 
#
# 1 0.004847 -0.001732 -0.001680 0.000000 0.000000 0.000000
# 2 -0.001732 0.026994 -0.002074 0.000000 0.000000 0.000000
# 3 -0.001680 -0.002074 0.008242 0.000000 0.000000 0.000000
# 4 0.000000 0.000000 0.000000 0.058314 0.000000 0.000000
# 5 0.000000 0.000000 0.000000 0.000000 0.020734 0.000000
# 6 0.000000 0.000000 0.000000 0.000000 0.000000 -0.047121
#
#
# Mechanical properties :
#
#
# Convention : Reuss Voigt Hill
#
# Bulk Modulus (GPa) = 34.35268 63.81751 49.08509
# Shear Modulus (GPa) = 53.94707 30.25298 42.10002
#
# Velocity S-wave (km/s) = 4.69035 3.51241 4.14346
# Velocity P-wave (km/s) = 6.58342 6.51720 6.55040
#
# Compressibility (1/GPa) = 0.02910981
#
# Stress axis : x y z
#
# Youngs Moduli (GPa) = 206.33208 37.04590 121.33626
#
# Poissons Ratio (x) = 0.06418 0.20381
# Poissons Ratio (y) = 0.35743 0.25164
# Poissons Ratio (z) = 0.34657 0.07683
#
# Static dielectric constant tensor:
#      x y z
#    x 5.004790 0.000000 0.000000 
#    y 0.000000 4.124300 0.000000 
#    z 0.000000 0.000000 4.889520 
# 
# 
# High freq. dielectric constant tensor:
#      x y z
#    x 2.006790 0.000000 0.000000 
#    y 0.000000 1.937710 0.000000 
#    z 0.000000 0.000000 2.001620 
# 
# From -- ./inp_files/5958.got.cif
#   From: 2010.03.12/outbox.cif.g09.slc.cpg/sg73_3_cif.got.tgz:5958.got - 2010.04.16 15:25:48.
