data_PCOD8296530
_publ_section_title
;
Structure prediction by ZEFSAII (Michael W. Deem and Ramdas Pophale) SiO2 
 PCOD8296530
Probable space group: I B C A 
;
_chemical_formula_sum "Si O2"
_cell_formula_units_Z 48
_cell_length_a 8.434846
_cell_length_b 12.338971
_cell_length_c 19.421041
_cell_angle_alpha 90.000000
_cell_angle_beta 90.000000
_cell_angle_gamma 90.000000
_cell_volume 2021.289902
_symmetry_space_group_name_H-M "I B C A "
_symmetry_group_IT_number 73
_symmetry_cell_setting 'orthorhombic'
loop_
_space_group_symop_operation_xyz
x,y,z
-x,1/2-y,z
x,-y,1/2-z
1/2-x,y,-z
-x,-y,-z
x,1/2+y,-z
-x,y,1/2+z
1/2+x,-y,z
1/2+x,1/2+y,1/2+z
1/2-x,-y,1/2+z
1/2+x,1/2-y,-z
-x,1/2+y,1/2-z
1/2-x,1/2-y,1/2-z
1/2+x,y,1/2-z
1/2-x,1/2+y,z
x,1/2-y,1/2+z
loop_
_atom_site_type_symbol
_atom_site_label
_atom_site_fract_x
_atom_site_fract_y
_atom_site_fract_z
Si Si1 0.051244 0.629378 0.382508
Si Si2 0.250000 0.801008 0.000000
Si Si3 0.000000 0.750000 0.606320
Si Si4 0.135896 0.452923 0.824668
O O1 0.120400 0.626057 0.460240
O O2 0.182949 0.585349 0.329111
O O3 0.000000 0.750000 0.361003
O O4 0.900179 0.549949 0.378780
O O5 0.156161 0.731692 0.057962
O O6 0.980148 0.853275 0.655941
O O7 0.097053 0.500000 0.750000
#
# Coordination Sequence:
#
# PCOD8296530 Si02
#       4
#    16   8   8  16
#     4  11  26  46  73 106 148 196 245 307 365 438
#     4  10  22  46  72 112 146 186 250 302 378 434
#     4  10  24  44  74 108 148 192 244 306 362 440
#     4  11  27  46  73 109 150 200 244 302 371 438
#
# _framework density 23.747214
#
# number of rings (size 3 to 8) (size 9 to 14) (size 15 to 20)
#    0.000    1.333    1.667    1.000   11.667    8.000 
#    0.000    0.000    0.000    0.000    0.000    0.000 
#    0.000    0.000    0.000    0.000    0.000    0.000 
#
# Total GULP energy -297485.921732 kJ/mol
# GULP energy per Si atom -12395.246739 kJ/mol
# Density = 2.369316 g / cm^3
# Si number density = 23.747214 Si / 1000 Ang^3
#
#
#
# Elastic Constant Matrix: (Units=GPa)
#
#
# Indices 1 2 3 4 5 6 
#
# 1 107.9972 69.8459 60.3367 0.0000 0.0000 0.0000
# 2 69.8459 187.6530 64.7806 0.0000 0.0000 0.0000
# 3 60.3367 64.7806 143.5889 0.0000 0.0000 0.0000
# 4 0.0000 0.0000 0.0000 35.4286 0.0000 0.0000
# 5 0.0000 0.0000 0.0000 0.0000 38.5620 0.0000
# 6 0.0000 0.0000 0.0000 0.0000 0.0000 41.0880
#
#
#
# Elastic Compliance Matrix: (Units=1/GPa)
#
#
# Indices 1 2 3 4 5 6 
#
# 1 0.014050 -0.003780 -0.004198 0.000000 0.000000 0.000000
# 2 -0.003780 0.007329 -0.001718 0.000000 0.000000 0.000000
# 3 -0.004198 -0.001718 0.009504 0.000000 0.000000 0.000000
# 4 0.000000 0.000000 0.000000 0.028226 0.000000 0.000000
# 5 0.000000 0.000000 0.000000 0.000000 0.025932 0.000000
# 6 0.000000 0.000000 0.000000 0.000000 0.000000 0.024338
#
#
# Mechanical properties :
#
#
# Convention : Reuss Voigt Hill
#
# Bulk Modulus (GPa) = 87.03737 92.12949 89.58343
# Shear Modulus (GPa) = 37.70692 39.30078 38.50385
#
# Velocity S-wave (km/s) = 3.98910 4.07254 4.03104
# Velocity P-wave (km/s) = 7.61239 7.80988 7.71177
#
# Compressibility (1/GPa) = 0.01148932
#
# Stress axis : x y z
#
# Youngs Moduli (GPa) = 71.17529 136.44257 105.22283
#
# Poissons Ratio (x) = 0.51577 0.44177
# Poissons Ratio (y) = 0.26905 0.18079
# Poissons Ratio (z) = 0.29882 0.23443
#
# Static dielectric constant tensor:
#      x y z
#    x 4.606780 0.000000 0.000000 
#    y 0.000000 4.240300 0.000000 
#    z 0.000000 0.000000 4.128470 
# 
# 
# High freq. dielectric constant tensor:
#      x y z
#    x 1.956120 0.000000 0.000000 
#    y 0.000000 1.931310 0.000000 
#    z 0.000000 0.000000 1.934670 
# 
# From -- ./inp_files/4410.got.cif
#   From: 2010.03.12/outbox.cif.g09.slc.cpg/sg73_3_cif.got.tgz:4410.got - 2010.04.16 15:25:48.
