data_PCOD8296173
_publ_section_title
;
Structure prediction by ZEFSAII (Michael W. Deem and Ramdas Pophale) SiO2 
 PCOD8296173
Probable space group: I B C A 
;
_chemical_formula_sum "Si O2"
_cell_formula_units_Z 120
_cell_length_a 26.463341
_cell_length_b 16.284184
_cell_length_c 13.442394
_cell_angle_alpha 90.000000
_cell_angle_beta 90.000000
_cell_angle_gamma 90.000000
_cell_volume 5792.783461
_symmetry_space_group_name_H-M "I B C A "
_symmetry_group_IT_number 73
_symmetry_cell_setting 'orthorhombic'
loop_
_space_group_symop_operation_xyz
x,y,z
-x,1/2-y,z
x,-y,1/2-z
1/2-x,y,-z
-x,-y,-z
x,1/2+y,-z
-x,y,1/2+z
1/2+x,-y,z
1/2+x,1/2+y,1/2+z
1/2-x,-y,1/2+z
1/2+x,1/2-y,-z
-x,1/2+y,1/2-z
1/2-x,1/2-y,1/2-z
1/2+x,y,1/2-z
1/2-x,1/2+y,z
x,1/2-y,1/2+z
loop_
_atom_site_type_symbol
_atom_site_label
_atom_site_fract_x
_atom_site_fract_y
_atom_site_fract_z
Si Si1 0.395967 0.621139 0.664932
Si Si2 0.589209 0.933737 0.328613
Si Si3 0.808715 0.997436 0.356665
Si Si4 0.873987 0.862012 0.116130
Si Si5 0.354936 0.811568 0.961262
Si Si6 0.750000 0.118265 0.000000
Si Si7 0.451209 0.054091 0.980083
Si Si8 0.991429 0.652099 0.307524
O O1 0.365947 0.536450 0.656708
O O2 0.379123 0.664694 0.768178
O O3 0.382251 0.671831 0.566252
O O4 0.455611 0.605921 0.674790
O O5 0.626660 0.862340 0.364328
O O6 0.538075 0.890023 0.285673
O O7 0.611853 0.000000 0.250000
O O8 0.583760 0.986598 0.428193
O O9 0.771382 0.942402 0.418134
O O10 0.781592 0.000000 0.250000
O O11 0.821604 0.086855 0.401211
O O12 0.867382 0.782546 0.050850
O O13 0.924090 0.910765 0.078429
O O14 0.294730 0.823873 0.962516
O O15 0.460322 0.132712 0.907797
O O16 0.500000 0.000000 0.000000
O O17 0.000000 0.750000 0.291371
#
# Coordination Sequence:
#
# PCOD8296173 Si02
#       8
#    16  16  16  16  16   8  16  16
#     4  10  21  39  59  84 124 164 199 247 305 374
#     4  10  23  39  57  87 125 162 203 251 310 372
#     4   9  20  39  62  87 114 153 200 246 308 375
#     4  11  22  38  62  88 119 158 203 257 309 368
#     4  11  23  42  63  90 124 160 206 265 317 364
#     4  10  22  42  64  86 118 158 202 258 320 372
#     4  11  21  34  56  87 121 164 209 247 299 370
#     4  11  21  35  58  89 122 163 209 252 303 370
#
# _framework density 20.715430000000001
#
# number of rings (size 3 to 8) (size 9 to 14) (size 15 to 20)
#    0.000    1.600    0.000    5.600    0.000    5.867 
#    0.000   10.000    0.000    0.000    0.000    0.000 
#    0.000    0.000    0.000    0.000    0.000    0.000 
#
# Total GULP energy -743284.272526 kJ/mol
# GULP energy per Si atom -12388.071209 kJ/mol
# Density = 2.066828 g / cm^3
# Si number density = 20.715430 Si / 1000 Ang^3
#
#
#
# Elastic Constant Matrix: (Units=GPa)
#
#
# Indices 1 2 3 4 5 6 
#
# 1 114.8447 32.7256 46.1273 0.0000 0.0000 0.0000
# 2 32.7256 111.4798 52.9335 0.0000 0.0000 0.0000
# 3 46.1273 52.9335 113.3520 0.0000 0.0000 0.0000
# 4 0.0000 0.0000 0.0000 28.9320 0.0000 0.0000
# 5 0.0000 0.0000 0.0000 0.0000 13.2356 0.0000
# 6 0.0000 0.0000 0.0000 0.0000 0.0000 28.1000
#
#
#
# Elastic Compliance Matrix: (Units=1/GPa)
#
#
# Indices 1 2 3 4 5 6 
#
# 1 0.010567 -0.001362 -0.003664 0.000000 0.000000 0.000000
# 2 -0.001362 0.011702 -0.004910 0.000000 0.000000 0.000000
# 3 -0.003664 -0.004910 0.012606 0.000000 0.000000 0.000000
# 4 0.000000 0.000000 0.000000 0.034564 0.000000 0.000000
# 5 0.000000 0.000000 0.000000 0.000000 0.075554 0.000000
# 6 0.000000 0.000000 0.000000 0.000000 0.000000 0.035587
#
#
# Mechanical properties :
#
#
# Convention : Reuss Voigt Hill
#
# Bulk Modulus (GPa) = 66.65764 67.02773 66.84268
# Shear Modulus (GPa) = 24.33642 27.91284 26.12463
#
# Velocity S-wave (km/s) = 3.43125 3.67473 3.55508
# Velocity P-wave (km/s) = 6.92428 7.10152 7.01346
#
# Compressibility (1/GPa) = 0.01500203
#
# Stress axis : x y z
#
# Youngs Moduli (GPa) = 94.63177 85.45856 79.32701
#
# Poissons Ratio (x) = 0.11642 0.29066
# Poissons Ratio (y) = 0.12892 0.38950
# Poissons Ratio (z) = 0.34674 0.41961
#
# Static dielectric constant tensor:
#      x y z
#    x 3.626700 0.000000 0.000000 
#    y 0.000000 3.578570 0.000000 
#    z 0.000000 0.000000 3.629660 
# 
# 
# High freq. dielectric constant tensor:
#      x y z
#    x 1.789760 0.000000 0.000000 
#    y 0.000000 1.815450 0.000000 
#    z 0.000000 0.000000 1.825570 
# 
# From -- ./inp_files/14377.got.cif
#   From: 2010.03.12/outbox.cif.g09.slc.cpg/sg73_8_cif.got.tgz:14377.got - 2010.04.16 15:25:48.
