data_PCOD8296811
_publ_section_title
;
Structure prediction by ZEFSAII (Michael W. Deem and Ramdas Pophale) SiO2 
 PCOD8296811
Probable space group: I B C A 
;
_chemical_formula_sum "Si O2"
_cell_formula_units_Z 112
_cell_length_a 32.034183
_cell_length_b 13.913910
_cell_length_c 11.533360
_cell_angle_alpha 90.000000
_cell_angle_beta 90.000000
_cell_angle_gamma 90.000000
_cell_volume 5140.657744
_symmetry_space_group_name_H-M "I B C A "
_symmetry_group_IT_number 73
_symmetry_cell_setting 'orthorhombic'
loop_
_space_group_symop_operation_xyz
x,y,z
-x,1/2-y,z
x,-y,1/2-z
1/2-x,y,-z
-x,-y,-z
x,1/2+y,-z
-x,y,1/2+z
1/2+x,-y,z
1/2+x,1/2+y,1/2+z
1/2-x,-y,1/2+z
1/2+x,1/2-y,-z
-x,1/2+y,1/2-z
1/2-x,1/2-y,1/2-z
1/2+x,y,1/2-z
1/2-x,1/2+y,z
x,1/2-y,1/2+z
loop_
_atom_site_type_symbol
_atom_site_label
_atom_site_fract_x
_atom_site_fract_y
_atom_site_fract_z
Si Si1 0.728575 0.000000 0.750000
Si Si2 0.000000 0.250000 0.362895
Si Si3 0.790840 0.350448 0.922441
Si Si4 0.425718 0.683251 0.496124
Si Si5 0.617902 0.872756 0.966130
Si Si6 0.935622 0.107752 0.246651
Si Si7 0.719577 0.137610 0.108520
Si Si8 0.868440 0.045534 0.877640
O O1 0.700849 0.946969 0.846385
O O2 0.757826 0.911476 0.715339
O O3 0.972655 0.317439 0.447258
O O4 0.971540 0.182490 0.282459
O O5 0.834060 0.342063 0.991875
O O6 0.787142 0.248827 0.855248
O O7 0.750000 0.369926 0.000000
O O8 0.411258 0.791824 0.522379
O O9 0.421096 0.626660 0.615824
O O10 0.397364 0.639282 0.392051
O O11 0.604905 0.884503 0.830916
O O12 0.610602 0.970704 0.034549
O O13 0.954075 0.000000 0.250000
O O14 0.677618 0.078396 0.082814
O O15 0.750000 0.130740 0.000000
O O16 0.868388 0.000000 0.750000
#
# Coordination Sequence:
#
# PCOD8296811 Si02
#       8
#     8   8  16  16  16  16  16  16
#     4  12  22  40  64  92 132 172 232 284 348 398
#     4  10  26  46  72 108 144 178 226 286 360 432
#     4  11  25  43  64  96 135 182 231 287 344 407
#     4  11  25  48  70 105 142 181 231 294 353 427
#     4  11  25  44  70 101 141 184 237 289 351 419
#     4  11  24  47  75 105 140 184 234 285 351 424
#     4  11  24  43  64  95 136 181 234 287 343 416
#     4  12  25  44  71 102 141 189 237 293 357 418
#
# _framework density 21.787095999999998
#
# number of rings (size 3 to 8) (size 9 to 14) (size 15 to 20)
#    0.000    0.857    3.571    3.000    5.000    2.286 
#    0.000    0.000    0.000    0.000    0.000    0.000 
#    0.000    0.000    0.000    0.000    0.000    0.000 
#
# Total GULP energy -694249.908002 kJ/mol
# GULP energy per Si atom -12397.319786 kJ/mol
# Density = 2.173751 g / cm^3
# Si number density = 21.787096 Si / 1000 Ang^3
#
#
#
# Elastic Constant Matrix: (Units=GPa)
#
#
# Indices 1 2 3 4 5 6 
#
# 1 112.1939 17.7080 32.1428 0.0000 0.0000 0.0000
# 2 17.7080 123.8572 40.1805 0.0000 0.0000 0.0000
# 3 32.1428 40.1805 100.2689 0.0000 0.0000 0.0000
# 4 0.0000 0.0000 0.0000 43.0837 0.0000 0.0000
# 5 0.0000 0.0000 0.0000 0.0000 22.3618 0.0000
# 6 0.0000 0.0000 0.0000 0.0000 0.0000 36.2060
#
#
#
# Elastic Compliance Matrix: (Units=1/GPa)
#
#
# Indices 1 2 3 4 5 6 
#
# 1 0.009835 -0.000441 -0.002976 0.000000 0.000000 0.000000
# 2 -0.000441 0.009300 -0.003586 0.000000 0.000000 0.000000
# 3 -0.002976 -0.003586 0.012364 0.000000 0.000000 0.000000
# 4 0.000000 0.000000 0.000000 0.023211 0.000000 0.000000
# 5 0.000000 0.000000 0.000000 0.000000 0.044719 0.000000
# 6 0.000000 0.000000 0.000000 0.000000 0.000000 0.027620
#
#
# Mechanical properties :
#
#
# Convention : Reuss Voigt Hill
#
# Bulk Modulus (GPa) = 57.16063 57.37584 57.26823
# Shear Modulus (GPa) = 34.04014 36.74954 35.39484
#
# Velocity S-wave (km/s) = 3.95701 4.11147 4.03498
# Velocity P-wave (km/s) = 6.86805 6.99506 6.93185
#
# Compressibility (1/GPa) = 0.01749456
#
# Stress axis : x y z
#
# Youngs Moduli (GPa) = 101.67369 107.52707 80.87929
#
# Poissons Ratio (x) = 0.04738 0.24072
# Poissons Ratio (y) = 0.04480 0.28999
# Poissons Ratio (z) = 0.30261 0.38554
#
# Static dielectric constant tensor:
#      x y z
#    x 3.848210 0.000000 0.000000 
#    y 0.000000 4.289950 0.000000 
#    z 0.000000 0.000000 -57.367350 
# 
# 
# High freq. dielectric constant tensor:
#      x y z
#    x 1.855620 0.000000 0.000000 
#    y 0.000000 1.881420 0.000000 
#    z 0.000000 0.000000 1.843120 
# 
# From -- ./inp_files/14855.got.cif
#   From: 2010.03.12/outbox.cif.g09.slc.cpg/sg73_8_cif.got.tgz:14855.got - 2010.04.16 15:25:48.
