data_PCOD8296705
_publ_section_title
;
Structure prediction by ZEFSAII (Michael W. Deem and Ramdas Pophale) SiO2 
 PCOD8296705
Probable space group: I B C A 
;
_chemical_formula_sum "Si O2"
_cell_formula_units_Z 96
_cell_length_a 21.309416
_cell_length_b 16.242061
_cell_length_c 13.257636
_cell_angle_alpha 90.000000
_cell_angle_beta 90.000000
_cell_angle_gamma 90.000000
_cell_volume 4588.584945
_symmetry_space_group_name_H-M "I B C A "
_symmetry_group_IT_number 73
_symmetry_cell_setting 'orthorhombic'
loop_
_space_group_symop_operation_xyz
x,y,z
-x,1/2-y,z
x,-y,1/2-z
1/2-x,y,-z
-x,-y,-z
x,1/2+y,-z
-x,y,1/2+z
1/2+x,-y,z
1/2+x,1/2+y,1/2+z
1/2-x,-y,1/2+z
1/2+x,1/2-y,-z
-x,1/2+y,1/2-z
1/2-x,1/2-y,1/2-z
1/2+x,y,1/2-z
1/2-x,1/2+y,z
x,1/2-y,1/2+z
loop_
_atom_site_type_symbol
_atom_site_label
_atom_site_fract_x
_atom_site_fract_y
_atom_site_fract_z
Si Si1 0.815711 0.202723 0.262371
Si Si2 0.562413 0.803240 0.287237
Si Si3 0.683571 0.895584 0.956662
Si Si4 0.357898 0.048674 0.347528
Si Si5 0.929473 0.835232 0.926657
Si Si6 0.561488 0.348599 0.493698
O O1 0.750000 0.250000 0.250000
O O2 0.877036 0.256414 0.240572
O O3 0.829020 0.174958 0.375799
O O4 0.814213 0.124321 0.187567
O O5 0.500000 0.750000 0.311762
O O6 0.548553 0.858369 0.188166
O O7 0.582479 0.852509 0.388100
O O8 0.686254 0.985806 0.907853
O O9 0.750000 0.874087 0.000000
O O10 0.631122 0.888086 0.043280
O O11 0.410211 0.078081 0.426698
O O12 0.387440 0.000000 0.250000
O O13 0.918415 0.737544 0.942993
O O14 0.986804 0.862208 0.997625
#
# Coordination Sequence:
#
# PCOD8296705 Si02
#       6
#    16  16  16  16  16  16
#     4  11  22  38  67  96 121 169 224 266 318 388
#     4  12  20  36  64 100 129 155 217 277 312 374
#     4  11  24  42  59  90 133 173 210 268 330 392
#     4  10  24  44  63  90 134 175 210 262 340 396
#     4  11  21  39  66  98 128 163 220 270 320 383
#     4  11  21  39  68  98 124 170 217 271 324 384
#
# _framework density 20.921482999999998
#
# number of rings (size 3 to 8) (size 9 to 14) (size 15 to 20)
#    0.000    1.000    6.667    1.000    0.000    3.333 
#    0.000    2.500    0.000    0.000    0.000    0.000 
#    0.000    0.000    0.000    0.000    0.000    0.000 
#
# Total GULP energy -594884.330931 kJ/mol
# GULP energy per Si atom -12393.423561 kJ/mol
# Density = 2.087387 g / cm^3
# Si number density = 20.921483 Si / 1000 Ang^3
#
#
#
# Elastic Constant Matrix: (Units=GPa)
#
#
# Indices 1 2 3 4 5 6 
#
# 1 114.5609 30.9356 21.8871 0.0000 0.0000 0.0000
# 2 30.9356 58.5452 23.8036 0.0000 0.0000 0.0000
# 3 21.8871 23.8036 144.5855 0.0000 0.0000 0.0000
# 4 0.0000 0.0000 0.0000 -12.8061 0.0000 0.0000
# 5 0.0000 0.0000 0.0000 0.0000 31.9666 0.0000
# 6 0.0000 0.0000 0.0000 0.0000 0.0000 14.5295
#
#
#
# Elastic Compliance Matrix: (Units=1/GPa)
#
#
# Indices 1 2 3 4 5 6 
#
# 1 0.010249 -0.005128 -0.000707 0.000000 0.000000 0.000000
# 2 -0.005128 0.020872 -0.002660 0.000000 0.000000 0.000000
# 3 -0.000707 -0.002660 0.007461 0.000000 0.000000 0.000000
# 4 0.000000 0.000000 0.000000 -0.078087 0.000000 0.000000
# 5 0.000000 0.000000 0.000000 0.000000 0.031283 0.000000
# 6 0.000000 0.000000 0.000000 0.000000 0.000000 0.068826
#
#
# Mechanical properties :
#
#
# Convention : Reuss Voigt Hill
#
# Bulk Modulus (GPa) = 46.31393 52.32713 49.32053
# Shear Modulus (GPa) = 58.96894 22.80901 40.88897
#
# Velocity S-wave (km/s) = 5.31479 3.30543 4.42566
# Velocity P-wave (km/s) = 7.73613 6.29550 7.05270
#
# Compressibility (1/GPa) = 0.02159178
#
# Stress axis : x y z
#
# Youngs Moduli (GPa) = 97.57195 47.91115 134.02503
#
# Poissons Ratio (x) = 0.24569 0.09478
# Poissons Ratio (y) = 0.50035 0.35650
# Poissons Ratio (z) = 0.06900 0.12744
#
# Static dielectric constant tensor:
#      x y z
#    x 3.643250 0.000000 0.000000 
#    y 0.000000 3.583980 0.000000 
#    z 0.000000 0.000000 4.102520 
# 
# 
# High freq. dielectric constant tensor:
#      x y z
#    x 1.809990 0.000000 0.000000 
#    y 0.000000 1.786850 0.000000 
#    z 0.000000 0.000000 1.844510 
# 
# From -- ./inp_files/18664.got.cif
#   From: 2010.03.12/outbox.cif.g09.slc.cpg/sg73_10_cif.got.tgz:18664.got - 2010.04.16 15:25:48.
