data_PCOD8296161
_publ_section_title
;
Structure prediction by ZEFSAII (Michael W. Deem and Ramdas Pophale) SiO2 
 PCOD8296161
Probable space group: I B C A 
;
_chemical_formula_sum "Si O2"
_cell_formula_units_Z 80
_cell_length_a 9.365399
_cell_length_b 13.687711
_cell_length_c 30.493440
_cell_angle_alpha 90.000000
_cell_angle_beta 90.000000
_cell_angle_gamma 90.000000
_cell_volume 3908.980753
_symmetry_space_group_name_H-M "I B C A "
_symmetry_group_IT_number 73
_symmetry_cell_setting 'orthorhombic'
loop_
_space_group_symop_operation_xyz
x,y,z
-x,1/2-y,z
x,-y,1/2-z
1/2-x,y,-z
-x,-y,-z
x,1/2+y,-z
-x,y,1/2+z
1/2+x,-y,z
1/2+x,1/2+y,1/2+z
1/2-x,-y,1/2+z
1/2+x,1/2-y,-z
-x,1/2+y,1/2-z
1/2-x,1/2-y,1/2-z
1/2+x,y,1/2-z
1/2-x,1/2+y,z
x,1/2-y,1/2+z
loop_
_atom_site_type_symbol
_atom_site_label
_atom_site_fract_x
_atom_site_fract_y
_atom_site_fract_z
Si Si1 0.926988 0.067726 0.192221
Si Si2 0.076549 0.550440 0.107429
Si Si3 0.000000 0.250000 0.139173
Si Si4 0.674531 0.500000 0.750000
Si Si5 0.000000 0.750000 0.562092
Si Si6 0.628729 0.102928 0.422524
Si Si7 0.750000 0.292028 0.000000
O O1 0.915908 0.170819 0.167897
O O2 0.945383 0.975614 0.158843
O O3 0.779085 0.061889 0.218746
O O4 0.068740 0.070478 0.222560
O O5 0.017447 0.656873 0.093944
O O6 0.241965 0.539950 0.096461
O O7 0.007503 0.466561 0.077542
O O8 0.884111 0.302603 0.108635
O O9 0.857877 0.767780 0.531895
O O10 0.648063 0.137935 0.471974
#
# Coordination Sequence:
#
# PCOD8296161 Si02
#       7
#    16  16   8   8   8  16   8
#     4  10  21  40  60  85 118 148 191 236 286 352
#     4  10  22  39  60  86 116 159 199 235 290 354
#     4  10  21  38  63  86 116 156 192 234 287 352
#     4  10  22  38  60  86 116 150 182 240 296 334
#     4  10  23  38  59  86 116 158 198 240 293 342
#     4  10  22  38  60  86 117 158 196 242 293 335
#     4  10  22  38  56  88 122 152 200 246 288 338
#
# _framework density 20.465693999999999
#
# number of rings (size 3 to 8) (size 9 to 14) (size 15 to 20)
#    0.000    2.000    0.000    3.000    0.000   16.000 
#    0.000    4.000    0.000    0.000    0.000    0.000 
#    0.000    0.000    0.000    0.000    0.000    0.000 
#
# Total GULP energy -495852.950247 kJ/mol
# GULP energy per Si atom -12396.323756 kJ/mol
# Density = 2.041911 g / cm^3
# Si number density = 20.465694 Si / 1000 Ang^3
#
#
#
# Elastic Constant Matrix: (Units=GPa)
#
#
# Indices 1 2 3 4 5 6 
#
# 1 132.6772 48.6308 46.9085 0.0000 0.0000 0.0000
# 2 48.6308 117.8907 55.6579 0.0000 0.0000 0.0000
# 3 46.9085 55.6579 108.6618 0.0000 0.0000 0.0000
# 4 0.0000 0.0000 0.0000 -0.0817 0.0000 0.0000
# 5 0.0000 0.0000 0.0000 0.0000 39.0583 0.0000
# 6 0.0000 0.0000 0.0000 0.0000 0.0000 31.4192
#
#
#
# Elastic Compliance Matrix: (Units=1/GPa)
#
#
# Indices 1 2 3 4 5 6 
#
# 1 0.009465 -0.002605 -0.002751 0.000000 0.000000 0.000000
# 2 -0.002605 0.011905 -0.004973 0.000000 0.000000 0.000000
# 3 -0.002751 -0.004973 0.012938 -0.000001 0.000000 0.000000
# 4 0.000000 0.000000 -0.000001-12.242461 0.000000 0.000000
# 5 0.000000 0.000000 0.000000 0.000000 0.025603 0.000000
# 6 0.000000 0.000000 0.000000 0.000000 0.000000 0.031828
#
#
# Mechanical properties :
#
#
# Convention : Reuss Voigt Hill
#
# Bulk Modulus (GPa) = 73.27112 73.51379 73.39245
# Shear Modulus (GPa) = -0.41235 27.94799 13.76782
#
# Velocity S-wave (km/s) = -0.44936 3.69941 2.59651
# Velocity P-wave (km/s) = 5.96745 7.36519 6.70285
#
# Compressibility (1/GPa) = 0.01364794
#
# Stress axis : x y z
#
# Youngs Moduli (GPa) = 105.65462 83.99773 77.29182
#
# Poissons Ratio (x) = 0.21884 0.21266
# Poissons Ratio (y) = 0.27526 0.38439
# Poissons Ratio (z) = 0.29070 0.41774
#
# Static dielectric constant tensor:
#      x y z
#    x 3.873920 0.000000 0.000000 
#    y 0.000000 3.501500 0.000000 
#    z 0.000000 0.000000 3.913190 
# 
# 
# High freq. dielectric constant tensor:
#      x y z
#    x 1.813540 0.000000 0.000000 
#    y 0.000000 1.781570 0.000000 
#    z 0.000000 0.000000 1.811510 
# 
# From -- ./inp_files/14639.got.cif
#   From: 2010.03.12/outbox.cif.g09.slc.cpg/sg73_8_cif.got.tgz:14639.got - 2010.04.16 15:25:48.
