data_PCOD8296287
_publ_section_title
;
Structure prediction by ZEFSAII (Michael W. Deem and Ramdas Pophale) SiO2 
 PCOD8296287
Probable space group: I B C A 
;
_chemical_formula_sum "Si O2"
_cell_formula_units_Z 88
_cell_length_a 15.105810
_cell_length_b 12.636803
_cell_length_c 22.575875
_cell_angle_alpha 90.000000
_cell_angle_beta 90.000000
_cell_angle_gamma 90.000000
_cell_volume 4309.489479
_symmetry_space_group_name_H-M "I B C A "
_symmetry_group_IT_number 73
_symmetry_cell_setting 'orthorhombic'
loop_
_space_group_symop_operation_xyz
x,y,z
-x,1/2-y,z
x,-y,1/2-z
1/2-x,y,-z
-x,-y,-z
x,1/2+y,-z
-x,y,1/2+z
1/2+x,-y,z
1/2+x,1/2+y,1/2+z
1/2-x,-y,1/2+z
1/2+x,1/2-y,-z
-x,1/2+y,1/2-z
1/2-x,1/2-y,1/2-z
1/2+x,y,1/2-z
1/2-x,1/2+y,z
x,1/2-y,1/2+z
loop_
_atom_site_type_symbol
_atom_site_label
_atom_site_fract_x
_atom_site_fract_y
_atom_site_fract_z
Si Si1 0.581363 0.130488 0.115570
Si Si2 0.818523 0.341735 0.883331
Si Si3 0.549788 0.105364 0.519876
Si Si4 0.560469 0.392316 0.216762
Si Si5 0.500000 0.250000 0.810885
Si Si6 0.883870 0.114312 0.603672
O O1 0.658745 0.216616 0.118242
O O2 0.522756 0.167421 0.058926
O O3 0.522325 0.136866 0.174551
O O4 0.619190 0.012805 0.106803
O O5 0.863401 0.406874 0.937825
O O6 0.850431 0.396711 0.822289
O O7 0.713988 0.344352 0.886420
O O8 0.582202 0.160334 0.459455
O O9 0.500000 0.000000 0.500000
O O10 0.541095 0.500000 0.250000
O O11 0.571971 0.305794 0.268527
O O12 0.549573 0.339398 0.848205
#
# Coordination Sequence:
#
# PCOD8296287 Si02
#       6
#    16  16  16  16   8  16
#     4  10  21  43  67  88 132 177 205 261 330 387
#     4  11  23  42  67  97 127 172 215 270 327 374
#     4   9  20  42  67  92 128 169 208 257 323 395
#     4  11  21  42  65  91 125 172 218 255 320 392
#     4  12  24  40  64  90 130 174 212 262 314 396
#     4  11  25  41  64 101 131 161 222 272 322 377
#
# _framework density 20.420052999999999
#
# number of rings (size 3 to 8) (size 9 to 14) (size 15 to 20)
#    0.000    1.455    3.636    2.182    2.545    2.182 
#    3.273    1.818    0.000    0.000    0.000    0.000 
#    0.000    0.000    0.000    0.000    0.000    0.000 
#
# Total GULP energy -545275.220025 kJ/mol
# GULP energy per Si atom -12392.618637 kJ/mol
# Density = 2.037358 g / cm^3
# Si number density = 20.420053 Si / 1000 Ang^3
#
#
#
# Elastic Constant Matrix: (Units=GPa)
#
#
# Indices 1 2 3 4 5 6 
#
# 1 120.3956 40.7864 56.0307 0.0000 0.0000 0.0000
# 2 40.7864 107.8674 48.2834 0.0000 0.0000 0.0000
# 3 56.0307 48.2834 164.3057 0.0000 0.0000 0.0000
# 4 0.0000 0.0000 0.0000 20.3751 0.0000 0.0000
# 5 0.0000 0.0000 0.0000 0.0000 8.2040 0.0000
# 6 0.0000 0.0000 0.0000 0.0000 0.0000 29.3104
#
#
#
# Elastic Compliance Matrix: (Units=1/GPa)
#
#
# Indices 1 2 3 4 5 6 
#
# 1 0.010529 -0.002734 -0.002787 0.000000 0.000000 0.000000
# 2 -0.002734 0.011384 -0.002413 0.000000 0.000000 0.000000
# 3 -0.002787 -0.002413 0.007746 0.000000 0.000000 0.000000
# 4 0.000000 0.000000 0.000000 0.049080 0.000000 0.000000
# 5 0.000000 0.000000 0.000000 0.000000 0.121892 0.000000
# 6 0.000000 0.000000 0.000000 0.000000 0.000000 0.034118
#
#
# Mechanical properties :
#
#
# Convention : Reuss Voigt Hill
#
# Bulk Modulus (GPa) = 72.51002 75.86330 74.18666
# Shear Modulus (GPa) = 19.59141 28.07577 23.83359
#
# Velocity S-wave (km/s) = 3.10081 3.71200 3.42009
# Velocity P-wave (km/s) = 6.95747 7.45681 7.21146
#
# Compressibility (1/GPa) = 0.01379120
#
# Stress axis : x y z
#
# Youngs Moduli (GPa) = 94.97400 87.83883 129.10043
#
# Poissons Ratio (x) = 0.24012 0.35984
# Poissons Ratio (y) = 0.25962 0.31156
# Poissons Ratio (z) = 0.26472 0.21198
#
# Static dielectric constant tensor:
#      x y z
#    x 3.433580 0.000000 0.000000 
#    y 0.000000 3.701330 0.000000 
#    z 0.000000 0.000000 4.376180 
# 
# 
# High freq. dielectric constant tensor:
#      x y z
#    x 1.772320 0.000000 0.000000 
#    y 0.000000 1.805030 0.000000 
#    z 0.000000 0.000000 1.822870 
# 
# From -- ./inp_files/18551.got.cif
#   From: 2010.03.12/outbox.cif.g09.slc.cpg/sg73_10_cif.got.tgz:18551.got - 2010.04.16 15:25:48.
