data_PCOD8296535
_publ_section_title
;
Structure prediction by ZEFSAII (Michael W. Deem and Ramdas Pophale) SiO2 
 PCOD8296535
Probable space group: I B C A 
;
_chemical_formula_sum "Si O2"
_cell_formula_units_Z 56
_cell_length_a 12.277520
_cell_length_b 14.191087
_cell_length_c 9.817471
_cell_angle_alpha 90.000000
_cell_angle_beta 90.000000
_cell_angle_gamma 90.000000
_cell_volume 1710.511270
_symmetry_space_group_name_H-M "I B C A "
_symmetry_group_IT_number 73
_symmetry_cell_setting 'orthorhombic'
loop_
_space_group_symop_operation_xyz
x,y,z
-x,1/2-y,z
x,-y,1/2-z
1/2-x,y,-z
-x,-y,-z
x,1/2+y,-z
-x,y,1/2+z
1/2+x,-y,z
1/2+x,1/2+y,1/2+z
1/2-x,-y,1/2+z
1/2+x,1/2-y,-z
-x,1/2+y,1/2-z
1/2-x,1/2-y,1/2-z
1/2+x,y,1/2-z
1/2-x,1/2+y,z
x,1/2-y,1/2+z
loop_
_atom_site_type_symbol
_atom_site_label
_atom_site_fract_x
_atom_site_fract_y
_atom_site_fract_z
Si Si1 0.250000 0.526486 0.500000
Si Si2 0.870339 0.749590 0.918150
Si Si3 0.090705 0.602691 0.699025
Si Si4 0.152050 0.637591 0.171350
O O1 0.156520 0.596015 0.557162
O O2 0.199203 0.462750 0.377645
O O3 0.842002 0.841224 0.818782
O O4 0.824701 0.657892 0.832972
O O5 0.000000 0.750000 0.925717
O O6 0.817737 0.772337 0.069998
O O7 0.064334 0.500000 0.750000
O O8 0.977877 0.647475 0.655186
#
# Coordination Sequence:
#
# PCOD8296535 Si02
#       4
#     8  16  16  16
#     4  12  26  44  72 116 150 192 242 316 368 442
#     4  10  22  46  74 103 143 198 243 295 365 441
#     4  11  24  47  73 108 148 194 251 307 374 433
#     4  11  25  48  76 105 150 193 246 300 372 441
#
# _framework density 32.738748999999999
#
# number of rings (size 3 to 8) (size 9 to 14) (size 15 to 20)
#    0.000    1.143    2.857    3.429    0.000    3.429 
#   10.286    0.000    0.000    0.000    0.000    0.000 
#    0.000    0.000    0.000    0.000    0.000    0.000 
#
# Total GULP energy -347268.442194 kJ/mol
# GULP energy per Si atom -12402.444364 kJ/mol
# Density = 3.266423 g / cm^3
# Si number density = 32.738749 Si / 1000 Ang^3
#
#
#
# Elastic Constant Matrix: (Units=GPa)
#
#
# Indices 1 2 3 4 5 6 
#
# 1 129.4770 -6.9298 65.7862 0.0000 0.0000 0.0000
# 2 -6.9298 100.6784 36.5943 0.0000 0.0000 0.0000
# 3 65.7862 36.5943 241.9791 0.0000 0.0000 0.0000
# 4 0.0000 0.0000 0.0000 51.7195 0.0000 0.0000
# 5 0.0000 0.0000 0.0000 0.0000 60.9988 0.0000
# 6 0.0000 0.0000 0.0000 0.0000 0.0000 33.2162
#
#
#
# Elastic Compliance Matrix: (Units=1/GPa)
#
#
# Indices 1 2 3 4 5 6 
#
# 1 0.009208 0.001634 -0.002750 0.000000 0.000000 0.000000
# 2 0.001634 0.010800 -0.002077 0.000000 0.000000 0.000000
# 3 -0.002750 -0.002077 0.005195 0.000000 0.000000 0.000000
# 4 0.000000 0.000000 0.000000 0.019335 0.000000 0.000000
# 5 0.000000 0.000000 0.000000 0.000000 0.016394 0.000000
# 6 0.000000 0.000000 0.000000 0.000000 0.000000 0.030106
#
#
# Mechanical properties :
#
#
# Convention : Reuss Voigt Hill
#
# Bulk Modulus (GPa) = 53.15107 73.67068 63.41087
# Shear Modulus (GPa) = 48.21707 54.29913 51.25810
#
# Velocity S-wave (km/s) = 3.84185 4.07696 3.96115
# Velocity P-wave (km/s) = 5.99582 6.68682 6.35073
#
# Compressibility (1/GPa) = 0.01881430
#
# Stress axis : x y z
#
# Youngs Moduli (GPa) = 108.59762 92.59135 192.51062
#
# Poissons Ratio (x) = -0.15125 0.52950
# Poissons Ratio (y) = -0.17740 0.39992
# Poissons Ratio (z) = 0.29870 0.19235
#
# Static dielectric constant tensor:
#      x y z
#    x 7.023120 0.000000 0.000000 
#    y 0.000000 6.339520 0.000000 
#    z 0.000000 0.000000 6.644520 
# 
# 
# High freq. dielectric constant tensor:
#      x y z
#    x 2.431120 0.000000 0.000000 
#    y 0.000000 2.373570 0.000000 
#    z 0.000000 0.000000 2.394830 
# 
# From -- ./inp_files/10235.got.cif
#   From: 2010.03.12/outbox.cif.g09.slc.cpg/sg73_6_cif.got.tgz:10235.got - 2010.04.16 15:25:48.
