data_PCOD8296033
_publ_section_title
;
Structure prediction by ZEFSAII (Michael W. Deem and Ramdas Pophale) SiO2 
 PCOD8296033
Probable space group: I B C A 
;
_chemical_formula_sum "Si O2"
_cell_formula_units_Z 72
_cell_length_a 13.379516
_cell_length_b 12.924538
_cell_length_c 18.123219
_cell_angle_alpha 90.000000
_cell_angle_beta 90.000000
_cell_angle_gamma 90.000000
_cell_volume 3133.940663
_symmetry_space_group_name_H-M "I B C A "
_symmetry_group_IT_number 73
_symmetry_cell_setting 'orthorhombic'
loop_
_space_group_symop_operation_xyz
x,y,z
-x,1/2-y,z
x,-y,1/2-z
1/2-x,y,-z
-x,-y,-z
x,1/2+y,-z
-x,y,1/2+z
1/2+x,-y,z
1/2+x,1/2+y,1/2+z
1/2-x,-y,1/2+z
1/2+x,1/2-y,-z
-x,1/2+y,1/2-z
1/2-x,1/2-y,1/2-z
1/2+x,y,1/2-z
1/2-x,1/2+y,z
x,1/2-y,1/2+z
loop_
_atom_site_type_symbol
_atom_site_label
_atom_site_fract_x
_atom_site_fract_y
_atom_site_fract_z
Si Si1 0.099179 0.302763 0.908157
Si Si2 0.715478 0.217031 0.330113
Si Si3 0.394658 0.368568 0.925381
Si Si4 0.396523 0.961694 0.614289
Si Si5 0.250000 0.509907 0.000000
O O1 0.191332 0.227449 0.886734
O O2 0.111424 0.415869 0.870633
O O3 0.000000 0.250000 0.875651
O O4 0.087440 0.313431 0.996208
O O5 0.750000 0.250000 0.250000
O O6 0.624953 0.286488 0.360995
O O7 0.665736 0.102337 0.324089
O O8 0.488517 0.433954 0.896957
O O9 0.296849 0.440384 0.933908
O O10 0.340226 0.927352 0.537505
#
# Coordination Sequence:
#
# PCOD8296033 Si02
#       5
#    16  16  16  16   8
#     4  11  24  43  72 106 135 180 240 302 362 420
#     4  12  27  45  65  98 150 193 231 282 360 439
#     4  11  22  44  72 105 138 177 239 308 362 420
#     4  11  25  41  74 103 141 177 239 297 367 423
#     4  10  20  40  74 110 130 176 234 304 376 406
#
# _framework density 22.974271000000002
#
# number of rings (size 3 to 8) (size 9 to 14) (size 15 to 20)
#    0.000    0.889    4.444    4.667    9.333    2.667 
#    0.000    0.000    0.000    0.000    0.000    0.000 
#    0.000    0.000    0.000    0.000    0.000    0.000 
#
# Total GULP energy -446190.023639 kJ/mol
# GULP energy per Si atom -12394.167323 kJ/mol
# Density = 2.292198 g / cm^3
# Si number density = 22.974271 Si / 1000 Ang^3
#
#
#
# Elastic Constant Matrix: (Units=GPa)
#
#
# Indices 1 2 3 4 5 6 
#
# 1 147.2841 63.1271 10.4351 0.0000 0.0000 0.0000
# 2 63.1271 107.4004 41.9834 0.0000 0.0000 0.0000
# 3 10.4351 41.9834 78.7304 0.0000 0.0000 0.0000
# 4 0.0000 0.0000 0.0000 16.8194 0.0000 0.0000
# 5 0.0000 0.0000 0.0000 0.0000 17.3092 0.0000
# 6 0.0000 0.0000 0.0000 0.0000 0.0000 45.5239
#
#
#
# Elastic Compliance Matrix: (Units=1/GPa)
#
#
# Indices 1 2 3 4 5 6 
#
# 1 0.009352 -0.006333 0.002137 0.000000 0.000000 0.000000
# 2 -0.006333 0.016051 -0.007720 0.000000 0.000000 0.000000
# 3 0.002137 -0.007720 0.016535 0.000000 0.000000 0.000000
# 4 0.000000 0.000000 0.000000 0.059455 0.000000 0.000000
# 5 0.000000 0.000000 0.000000 0.000000 0.057773 0.000000
# 6 0.000000 0.000000 0.000000 0.000000 0.000000 0.021966
#
#
# Mechanical properties :
#
#
# Convention : Reuss Voigt Hill
#
# Bulk Modulus (GPa) = 55.22458 62.72289 58.97374
# Shear Modulus (GPa) = 23.69683 30.45512 27.07597
#
# Velocity S-wave (km/s) = 3.21511 3.64485 3.43670
# Velocity P-wave (km/s) = 6.15405 6.71371 6.43996
#
# Compressibility (1/GPa) = 0.01810788
#
# Stress axis : x y z
#
# Youngs Moduli (GPa) = 106.92510 62.30228 60.47800
#
# Poissons Ratio (x) = 0.39453 -0.12926
# Poissons Ratio (y) = 0.67711 0.46688
# Poissons Ratio (z) = -0.22853 0.48096
#
# Static dielectric constant tensor:
#      x y z
#    x 4.444410 0.000000 0.000000 
#    y 0.000000 4.276360 0.000000 
#    z 0.000000 0.000000 3.656450 
# 
# 
# High freq. dielectric constant tensor:
#      x y z
#    x 1.938540 0.000000 0.000000 
#    y 0.000000 1.908460 0.000000 
#    z 0.000000 0.000000 1.859670 
# 
# From -- ./inp_files/21808.got.cif
#   From: 2010.03.12/outbox.cif.g09.slc.cpg/sg73_11_cif.got.tgz:21808.got - 2010.04.16 15:25:48.
