data_PCOD8296454
_publ_section_title
;
Structure prediction by ZEFSAII (Michael W. Deem and Ramdas Pophale) SiO2 
 PCOD8296454
Probable space group: I B C A 
;
_chemical_formula_sum "Si O2"
_cell_formula_units_Z 64
_cell_length_a 9.267075
_cell_length_b 11.280887
_cell_length_c 26.892630
_cell_angle_alpha 90.000000
_cell_angle_beta 90.000000
_cell_angle_gamma 90.000000
_cell_volume 2811.377751
_symmetry_space_group_name_H-M "I B C A "
_symmetry_group_IT_number 73
_symmetry_cell_setting 'orthorhombic'
loop_
_space_group_symop_operation_xyz
x,y,z
-x,1/2-y,z
x,-y,1/2-z
1/2-x,y,-z
-x,-y,-z
x,1/2+y,-z
-x,y,1/2+z
1/2+x,-y,z
1/2+x,1/2+y,1/2+z
1/2-x,-y,1/2+z
1/2+x,1/2-y,-z
-x,1/2+y,1/2-z
1/2-x,1/2-y,1/2-z
1/2+x,y,1/2-z
1/2-x,1/2+y,z
x,1/2-y,1/2+z
loop_
_atom_site_type_symbol
_atom_site_label
_atom_site_fract_x
_atom_site_fract_y
_atom_site_fract_z
Si Si1 0.802129 0.437640 0.943876
Si Si2 0.559582 0.067833 0.184756
Si Si3 0.000000 0.750000 0.102646
Si Si4 0.180653 0.000000 0.750000
Si Si5 0.488963 0.109997 0.892836
O O1 0.891375 0.317349 0.934035
O O2 0.665991 0.436025 0.908954
O O3 0.892235 0.555173 0.930089
O O4 0.750000 0.444349 0.000000
O O5 0.579276 0.158245 0.139262
O O6 0.714479 0.066261 0.211166
O O7 0.426675 0.096302 0.222944
O O8 0.503689 0.940583 0.163228
O O9 0.500000 0.250000 0.893608
#
# Coordination Sequence:
#
# PCOD8296454 Si02
#       5
#    16  16   8   8  16
#     4  11  26  46  72 106 143 185 246 288 352 429
#     4  10  22  44  63 102 135 182 233 286 361 413
#     4  10  24  42  74  98 146 184 228 302 356 422
#     4  10  22  42  66  94 140 174 242 292 336 438
#     4  11  26  45  73 101 146 191 229 299 361 421
#
# _framework density 22.764638999999999
#
# number of rings (size 3 to 8) (size 9 to 14) (size 15 to 20)
#    0.000    1.500    0.000    3.750   12.250    2.000 
#    9.000    0.000    0.000    0.000    0.000    0.000 
#    0.000    0.000    0.000    0.000    0.000    0.000 
#
# Total GULP energy -396650.387531 kJ/mol
# GULP energy per Si atom -12395.324610 kJ/mol
# Density = 2.271283 g / cm^3
# Si number density = 22.764639 Si / 1000 Ang^3
#
#
#
# Elastic Constant Matrix: (Units=GPa)
#
#
# Indices 1 2 3 4 5 6 
#
# 1 142.9003 53.5437 35.5643 0.0000 0.0000 0.0000
# 2 53.5437 158.5657 52.3218 0.0000 0.0001 0.0000
# 3 35.5643 52.3218 110.0510 0.0000 0.0000 0.0000
# 4 0.0000 0.0000 0.0000 26.2129 0.0000 0.0000
# 5 0.0000 0.0001 0.0000 0.0000 385.3063 0.0000
# 6 0.0000 0.0000 0.0000 0.0000 0.0000 72.5116
#
#
#
# Elastic Compliance Matrix: (Units=1/GPa)
#
#
# Indices 1 2 3 4 5 6 
#
# 1 0.008239 -0.002258 -0.001589 0.000000 0.000000 0.000000
# 2 -0.002258 0.008099 -0.003121 0.000000 0.000000 0.000000
# 3 -0.001589 -0.003121 0.011084 0.000000 0.000000 0.000000
# 4 0.000000 0.000000 0.000000 0.038149 0.000000 0.000000
# 5 0.000000 0.000000 0.000000 0.000000 0.002595 0.000000
# 6 0.000000 0.000000 0.000000 0.000000 0.000000 0.013791
#
#
# Mechanical properties :
#
#
# Convention : Reuss Voigt Hill
#
# Bulk Modulus (GPa) = 74.14830 77.15295 75.65062
# Shear Modulus (GPa) = 49.80648 114.81197 82.30922
#
# Velocity S-wave (km/s) = 4.68256 7.10942 6.01956
# Velocity P-wave (km/s) = 7.86623 10.06762 9.03423
#
# Compressibility (1/GPa) = 0.01348649
#
# Stress axis : x y z
#
# Youngs Moduli (GPa) = 121.36803 123.47662 90.22041
#
# Poissons Ratio (x) = 0.27879 0.14338
# Poissons Ratio (y) = 0.27403 0.28155
# Poissons Ratio (z) = 0.19288 0.38534
#
# Static dielectric constant tensor:
#      x y z
#    x 4.304150 0.000000 0.000000 
#    y 0.000000 5.879030 0.000000 
#    z 0.000000 0.000000 4.661250 
# 
# 
# High freq. dielectric constant tensor:
#      x y z
#    x 1.920530 0.000000 0.000000 
#    y 0.000000 1.878330 0.000000 
#    z 0.000000 0.000000 1.913090 
# 
# From -- ./inp_files/4030.got.cif
#   From: 2010.03.12/outbox.cif.g09.slc.cpg/sg73_3_cif.got.tgz:4030.got - 2010.04.16 15:25:48.
