data_PCOD8296960
_publ_section_title
;
Structure prediction by ZEFSAII (Michael W. Deem and Ramdas Pophale) SiO2 
 PCOD8296960
Probable space group: I B C A 
;
_chemical_formula_sum "Si O2"
_cell_formula_units_Z 96
_cell_length_a 22.431371
_cell_length_b 16.841872
_cell_length_c 11.536353
_cell_angle_alpha 90.000000
_cell_angle_beta 90.000000
_cell_angle_gamma 90.000000
_cell_volume 4358.275875
_symmetry_space_group_name_H-M "I B C A "
_symmetry_group_IT_number 73
_symmetry_cell_setting 'orthorhombic'
loop_
_space_group_symop_operation_xyz
x,y,z
-x,1/2-y,z
x,-y,1/2-z
1/2-x,y,-z
-x,-y,-z
x,1/2+y,-z
-x,y,1/2+z
1/2+x,-y,z
1/2+x,1/2+y,1/2+z
1/2-x,-y,1/2+z
1/2+x,1/2-y,-z
-x,1/2+y,1/2-z
1/2-x,1/2-y,1/2-z
1/2+x,y,1/2-z
1/2-x,1/2+y,z
x,1/2-y,1/2+z
loop_
_atom_site_type_symbol
_atom_site_label
_atom_site_fract_x
_atom_site_fract_y
_atom_site_fract_z
Si Si1 0.611036 0.318489 0.674588
Si Si2 0.623432 0.429296 0.001880
Si Si3 0.023194 0.165534 0.125469
Si Si4 0.404151 0.896903 0.058616
Si Si5 0.207948 0.584680 0.795368
Si Si6 0.666721 0.851447 0.774897
O O1 0.549214 0.325142 0.745077
O O2 0.597074 0.328044 0.539001
O O3 0.654531 0.389478 0.711717
O O4 0.643263 0.236184 0.701294
O O5 0.600158 0.519024 0.994337
O O6 0.638016 0.412338 0.134781
O O7 0.573241 0.368022 0.960195
O O8 0.683470 0.419490 0.926532
O O9 0.000000 0.250000 0.078764
O O10 0.966502 0.106692 0.128640
O O11 0.349968 0.880393 0.146119
O O12 0.231558 0.500000 0.750000
O O13 0.261854 0.647435 0.788346
#
# Coordination Sequence:
#
# PCOD8296960 Si02
#       6
#    16  16  16  16  16  16
#     4  11  26  46  69 103 143 187 244 293 364 433
#     4  11  25  46  72 105 144 188 240 297 361 433
#     4  11  24  45  71 100 145 190 236 300 357 422
#     4  12  25  46  72 109 142 190 243 297 362 439
#     4  11  23  48  73 102 145 190 235 296 359 433
#     4  12  26  44  73 105 143 186 243 296 365 430
#
# _framework density 22.027059999999999
#
# number of rings (size 3 to 8) (size 9 to 14) (size 15 to 20)
#    0.000    0.667    3.333    4.000    4.667    1.333 
#    6.000    0.000    0.000    0.000    0.000    0.000 
#    0.000    0.000    0.000    0.000    0.000    0.000 
#
# Total GULP energy -595525.054931 kJ/mol
# GULP energy per Si atom -12406.771978 kJ/mol
# Density = 2.197692 g / cm^3
# Si number density = 22.027060 Si / 1000 Ang^3
#
#
#
# Elastic Constant Matrix: (Units=GPa)
#
#
# Indices 1 2 3 4 5 6 
#
# 1 147.8879 48.7045 59.0517 0.0000 0.0000 0.0000
# 2 48.7045 104.0074 52.3849 0.0000 0.0000 0.0000
# 3 59.0517 52.3849 132.9816 0.0000 0.0000 0.0000
# 4 0.0000 0.0000 0.0000 30.0902 0.0000 0.0000
# 5 0.0000 0.0000 0.0000 0.0000 32.4042 0.0000
# 6 0.0000 0.0000 0.0000 0.0000 0.0000 31.3100
#
#
#
# Elastic Compliance Matrix: (Units=1/GPa)
#
#
# Indices 1 2 3 4 5 6 
#
# 1 0.008780 -0.002679 -0.002843 0.000000 0.000000 0.000000
# 2 -0.002679 0.012812 -0.003857 0.000000 0.000000 0.000000
# 3 -0.002843 -0.003857 0.010302 0.000000 0.000000 0.000000
# 4 0.000000 0.000000 0.000000 0.033233 0.000000 0.000000
# 5 0.000000 0.000000 0.000000 0.000000 0.030860 0.000000
# 6 0.000000 0.000000 0.000000 0.000000 0.000000 0.031939
#
#
# Mechanical properties :
#
#
# Convention : Reuss Voigt Hill
#
# Bulk Modulus (GPa) = 76.13800 78.35103 77.24452
# Shear Modulus (GPa) = 33.09871 33.74327 33.42099
#
# Velocity S-wave (km/s) = 3.88059 3.91820 3.89944
# Velocity P-wave (km/s) = 7.39725 7.49115 7.44435
#
# Compressibility (1/GPa) = 0.01313405
#
# Stress axis : x y z
#
# Youngs Moduli (GPa) = 113.90118 78.05117 97.06978
#
# Poissons Ratio (x) = 0.20912 0.27599
# Poissons Ratio (y) = 0.30517 0.37442
# Poissons Ratio (z) = 0.32384 0.30106
#
# Static dielectric constant tensor:
#      x y z
#    x 4.009510 0.000000 0.000000 
#    y 0.000000 3.985560 0.000000 
#    z 0.000000 0.000000 3.910300 
# 
# 
# High freq. dielectric constant tensor:
#      x y z
#    x 1.874080 0.000000 0.000000 
#    y 0.000000 1.874210 0.000000 
#    z 0.000000 0.000000 1.868650 
# 
# From -- ./inp_files/13644.got.cif
#   From: 2010.03.12/outbox.cif.g09.slc.cpg/sg73_7_cif.got.tgz:13644.got - 2010.04.16 15:25:48.
