data_PCOD8296321
_publ_section_title
;
Structure prediction by ZEFSAII (Michael W. Deem and Ramdas Pophale) SiO2 
 PCOD8296321
Probable space group: I B C A 
;
_chemical_formula_sum "Si O2"
_cell_formula_units_Z 120
_cell_length_a 11.807173
_cell_length_b 22.548458
_cell_length_c 22.619497
_cell_angle_alpha 90.000000
_cell_angle_beta 90.000000
_cell_angle_gamma 90.000000
_cell_volume 6022.068861
_symmetry_space_group_name_H-M "I B C A "
_symmetry_group_IT_number 73
_symmetry_cell_setting 'orthorhombic'
loop_
_space_group_symop_operation_xyz
x,y,z
-x,1/2-y,z
x,-y,1/2-z
1/2-x,y,-z
-x,-y,-z
x,1/2+y,-z
-x,y,1/2+z
1/2+x,-y,z
1/2+x,1/2+y,1/2+z
1/2-x,-y,1/2+z
1/2+x,1/2-y,-z
-x,1/2+y,1/2-z
1/2-x,1/2-y,1/2-z
1/2+x,y,1/2-z
1/2-x,1/2+y,z
x,1/2-y,1/2+z
loop_
_atom_site_type_symbol
_atom_site_label
_atom_site_fract_x
_atom_site_fract_y
_atom_site_fract_z
Si Si1 0.158518 0.903681 0.716500
Si Si2 0.205765 0.620923 0.672731
Si Si3 0.608123 0.394677 0.848884
Si Si4 0.475119 0.682283 0.255657
Si Si5 0.731140 0.297836 0.567717
Si Si6 0.000000 0.750000 0.539593
Si Si7 0.149774 0.181668 0.042311
Si Si8 0.956465 0.482730 0.313469
O O1 0.197050 0.906226 0.785279
O O2 0.263085 0.900775 0.672431
O O3 0.080661 0.845222 0.708266
O O4 0.084615 0.961209 0.698808
O O5 0.140606 0.673729 0.707580
O O6 0.260159 0.649354 0.613428
O O7 0.117823 0.568774 0.656129
O O8 0.536051 0.352707 0.806023
O O9 0.609341 0.369436 0.914455
O O10 0.546681 0.458597 0.853615
O O11 0.500000 0.750000 0.241765
O O12 0.750000 0.319644 0.500000
O O13 0.600964 0.277249 0.579095
O O14 0.811094 0.240691 0.578444
O O15 0.043237 0.803472 0.498563
O O16 0.250000 0.158387 0.000000
O O17 0.900182 0.500000 0.250000
#
# Coordination Sequence:
#
# PCOD8296321 Si02
#       8
#    16  16  16  16  16   8  16  16
#     4  10  22  37  57  79 122 155 189 250 293 364
#     4  10  22  36  60  83 119 159 200 244 297 375
#     4  11  23  37  60  85 121 157 203 249 290 375
#     4  10  23  32  51  91 119 152 191 237 313 364
#     4   9  20  37  58  88 114 158 203 241 311 361
#     4   8  18  38  62  76 126 152 190 256 288 376
#     4   9  21  38  59  89 117 159 202 240 312 357
#     4  11  21  40  54  87 113 159 208 229 309 359
#
# _framework density 19.926707
#
# number of rings (size 3 to 8) (size 9 to 14) (size 15 to 20)
#    0.000    2.400    4.000    0.000    7.467    5.333 
#    0.000    0.667    0.000    1.600    0.000    0.000 
#    0.000    0.000    0.000    0.000    0.000    0.000 
#
# Total GULP energy -743828.021998 kJ/mol
# GULP energy per Si atom -12397.133700 kJ/mol
# Density = 1.988135 g / cm^3
# Si number density = 19.926707 Si / 1000 Ang^3
#
#
#
# Elastic Constant Matrix: (Units=GPa)
#
#
# Indices 1 2 3 4 5 6 
#
# 1 73.1074 29.8302 0.9379 0.0000 0.0000 0.0000
# 2 29.8302 134.5192 36.2053 0.0000 0.0000 0.0000
# 3 0.9379 36.2053 65.8762 0.0000 0.0000 0.0000
# 4 0.0000 0.0000 0.0000 33.8602 0.0000 0.0000
# 5 0.0000 0.0000 0.0000 0.0000 10.9884 0.0000
# 6 0.0000 0.0000 0.0000 0.0000 0.0000 22.2383
#
#
#
# Elastic Compliance Matrix: (Units=1/GPa)
#
#
# Indices 1 2 3 4 5 6 
#
# 1 0.015245 -0.003899 0.001926 0.000000 0.000000 0.000000
# 2 -0.003899 0.009722 -0.005287 0.000000 0.000000 0.000000
# 3 0.001926 -0.005287 0.018059 0.000000 0.000000 0.000000
# 4 0.000000 0.000000 0.000000 0.029533 0.000000 0.000000
# 5 0.000000 0.000000 0.000000 0.000000 0.091005 0.000000
# 6 0.000000 0.000000 0.000000 0.000000 0.000000 0.044967
#
#
# Mechanical properties :
#
#
# Convention : Reuss Voigt Hill
#
# Bulk Modulus (GPa) = 35.08321 45.27217 40.17769
# Shear Modulus (GPa) = 21.50048 27.18600 24.34324
#
# Velocity S-wave (km/s) = 3.28834 3.69765 3.49899
# Velocity P-wave (km/s) = 5.66233 6.40303 6.04404
#
# Compressibility (1/GPa) = 0.02850367
#
# Stress axis : x y z
#
# Youngs Moduli (GPa) = 65.59677 102.86407 55.37549
#
# Poissons Ratio (x) = 0.40105 -0.10664
# Poissons Ratio (y) = 0.25575 0.29279
# Poissons Ratio (z) = -0.12632 0.54389
#
# Static dielectric constant tensor:
#      x y z
#    x 3.967100 0.000000 0.000000 
#    y 0.000000 3.549630 0.000000 
#    z 0.000000 0.000000 3.285360 
# 
# 
# High freq. dielectric constant tensor:
#      x y z
#    x 1.790260 0.000000 0.000000 
#    y 0.000000 1.765610 0.000000 
#    z 0.000000 0.000000 1.741970 
# 
# From -- ./inp_files/31913.got.cif
#   From: 2010.03.12/outbox.cif.g09.slc.cpg/sg73_16_cif.got.tgz:31913.got - 2010.04.16 15:25:48.
