data_PCOD8296502
_publ_section_title
;
Structure prediction by ZEFSAII (Michael W. Deem and Ramdas Pophale) SiO2 
 PCOD8296502
Probable space group: I B C A 
;
_chemical_formula_sum "Si O2"
_cell_formula_units_Z 96
_cell_length_a 22.530063
_cell_length_b 8.334765
_cell_length_c 23.571608
_cell_angle_alpha 90.000000
_cell_angle_beta 90.000000
_cell_angle_gamma 90.000000
_cell_volume 4426.342092
_symmetry_space_group_name_H-M "I B C A "
_symmetry_group_IT_number 73
_symmetry_cell_setting 'orthorhombic'
loop_
_space_group_symop_operation_xyz
x,y,z
-x,1/2-y,z
x,-y,1/2-z
1/2-x,y,-z
-x,-y,-z
x,1/2+y,-z
-x,y,1/2+z
1/2+x,-y,z
1/2+x,1/2+y,1/2+z
1/2-x,-y,1/2+z
1/2+x,1/2-y,-z
-x,1/2+y,1/2-z
1/2-x,1/2-y,1/2-z
1/2+x,y,1/2-z
1/2-x,1/2+y,z
x,1/2-y,1/2+z
loop_
_atom_site_type_symbol
_atom_site_label
_atom_site_fract_x
_atom_site_fract_y
_atom_site_fract_z
Si Si1 0.741646 0.167715 0.628380
Si Si2 0.546793 0.605415 0.196200
Si Si3 0.183390 0.599706 0.304757
Si Si4 0.535176 0.018837 0.574002
Si Si5 0.423972 0.839340 0.975662
Si Si6 0.797032 0.065640 0.950466
O O1 0.777232 0.241225 0.682698
O O2 0.703073 0.304127 0.599442
O O3 0.695496 0.025816 0.644120
O O4 0.787542 0.105062 0.580385
O O5 0.500000 0.750000 0.190649
O O6 0.527317 0.500000 0.250000
O O7 0.615493 0.660341 0.202312
O O8 0.545806 0.495598 0.140601
O O9 0.204616 0.500000 0.250000
O O10 0.466235 0.061318 0.566699
O O11 0.576809 0.156192 0.545355
O O12 0.550504 0.854512 0.540160
O O13 0.361146 0.926502 0.977756
O O14 0.750000 0.096280 0.000000
#
# Coordination Sequence:
#
# PCOD8296502 Si02
#       6
#    16  16  16  16  16  16
#     4  10  23  40  63  97 128 176 216 270 331 390
#     4  11  27  46  70  98 135 178 227 283 338 399
#     4  10  22  44  68  95 128 170 222 280 328 390
#     4  10  24  43  67  97 130 176 222 276 328 399
#     4  10  24  40  66  95 133 174 219 269 334 398
#     4  11  24  37  60  95 135 173 213 263 327 397
#
# _framework density 21.688337000000001
#
# number of rings (size 3 to 8) (size 9 to 14) (size 15 to 20)
#    0.000    1.667    0.000    2.000   18.667    0.000 
#    0.000    0.833    0.000    0.000    0.000    0.000 
#    0.000    0.000    0.000    0.000    0.000    0.000 
#
# Total GULP energy -594976.228591 kJ/mol
# GULP energy per Si atom -12395.338096 kJ/mol
# Density = 2.163897 g / cm^3
# Si number density = 21.688337 Si / 1000 Ang^3
#
#
#
# Elastic Constant Matrix: (Units=GPa)
#
#
# Indices 1 2 3 4 5 6 
#
# 1 113.4940 26.4242 16.9530 0.0000 0.0000 0.0000
# 2 26.4242 87.5442 34.1441 0.0000 0.0000 0.0000
# 3 16.9530 34.1441 123.2726 0.0000 0.0000 0.0000
# 4 0.0000 0.0000 0.0000 38.2688 0.0000 0.0000
# 5 0.0000 0.0000 0.0000 0.0000 21.5443 0.0000
# 6 0.0000 0.0000 0.0000 0.0000 0.0000 26.3349
#
#
#
# Elastic Compliance Matrix: (Units=1/GPa)
#
#
# Indices 1 2 3 4 5 6 
#
# 1 0.009513 -0.002647 -0.000575 0.000000 0.000000 0.000000
# 2 -0.002647 0.013543 -0.003387 0.000000 0.000000 0.000000
# 3 -0.000575 -0.003387 0.009129 0.000000 0.000000 0.000000
# 4 0.000000 0.000000 0.000000 0.026131 0.000000 0.000000
# 5 0.000000 0.000000 0.000000 0.000000 0.046416 0.000000
# 6 0.000000 0.000000 0.000000 0.000000 0.000000 0.037972
#
#
# Mechanical properties :
#
#
# Convention : Reuss Voigt Hill
#
# Bulk Modulus (GPa) = 52.72367 53.26151 52.99259
# Shear Modulus (GPa) = 30.81746 33.68223 32.24985
#
# Velocity S-wave (km/s) = 3.77360 3.94510 3.86030
# Velocity P-wave (km/s) = 6.58401 6.73519 6.66003
#
# Compressibility (1/GPa) = 0.01896681
#
# Stress axis : x y z
#
# Youngs Moduli (GPa) = 105.11632 73.83969 109.53696
#
# Poissons Ratio (x) = 0.19547 0.06299
# Poissons Ratio (y) = 0.27826 0.37101
# Poissons Ratio (z) = 0.06045 0.25010
#
# Static dielectric constant tensor:
#      x y z
#    x 3.888620 0.000000 0.000000 
#    y 0.000000 3.908240 0.000000 
#    z 0.000000 0.000000 3.993340 
# 
# 
# High freq. dielectric constant tensor:
#      x y z
#    x 1.850630 0.000000 0.000000 
#    y 0.000000 1.849850 0.000000 
#    z 0.000000 0.000000 1.855230 
# 
# From -- ./inp_files/30293.got.cif
#   From: 2010.03.12/outbox.cif.g09.slc.cpg/sg73_16_cif.got.tgz:30293.got - 2010.04.16 15:25:48.
