data_PCOD8296439
_publ_section_title
;
Structure prediction by ZEFSAII (Michael W. Deem and Ramdas Pophale) SiO2 
 PCOD8296439
Probable space group: I B C A 
;
_chemical_formula_sum "Si O2"
_cell_formula_units_Z 96
_cell_length_a 15.964717
_cell_length_b 19.953447
_cell_length_c 13.819804
_cell_angle_alpha 90.000000
_cell_angle_beta 90.000000
_cell_angle_gamma 90.000000
_cell_volume 4402.314243
_symmetry_space_group_name_H-M "I B C A "
_symmetry_group_IT_number 73
_symmetry_cell_setting 'orthorhombic'
loop_
_space_group_symop_operation_xyz
x,y,z
-x,1/2-y,z
x,-y,1/2-z
1/2-x,y,-z
-x,-y,-z
x,1/2+y,-z
-x,y,1/2+z
1/2+x,-y,z
1/2+x,1/2+y,1/2+z
1/2-x,-y,1/2+z
1/2+x,1/2-y,-z
-x,1/2+y,1/2-z
1/2-x,1/2-y,1/2-z
1/2+x,y,1/2-z
1/2-x,1/2+y,z
x,1/2-y,1/2+z
loop_
_atom_site_type_symbol
_atom_site_label
_atom_site_fract_x
_atom_site_fract_y
_atom_site_fract_z
Si Si1 0.349270 0.770216 0.002712
Si Si2 0.609603 0.500000 0.750000
Si Si3 0.402612 0.363605 0.564853
Si Si4 0.000000 0.750000 0.346764
Si Si5 0.426787 0.402261 0.973157
Si Si6 0.024759 0.888178 0.762222
Si Si7 0.168323 0.519695 0.954644
O O1 0.410682 0.757575 0.096050
O O2 0.360277 0.849291 0.980827
O O3 0.250000 0.756713 0.000000
O O4 0.380676 0.715112 0.925549
O O5 0.551833 0.564383 0.768843
O O6 0.670749 0.480323 0.838663
O O7 0.484888 0.370802 0.500120
O O8 0.410429 0.390924 0.673290
O O9 0.334994 0.406817 0.504153
O O10 0.987883 0.685961 0.277698
O O11 0.424965 0.412222 0.857126
O O12 0.412743 0.475634 0.017061
O O13 0.250000 0.483895 0.000000
#
# Coordination Sequence:
#
# PCOD8296439 Si02
#       7
#    16   8  16   8  16  16  16
#     4  11  22  42  68  96 137 176 221 279 333 396
#     4  12  22  42  66  96 126 182 222 266 340 402
#     4  12  22  41  68  96 127 178 226 270 338 394
#     4  10  22  42  62 102 134 176 226 272 336 406
#     4  11  22  44  63  97 129 173 224 273 333 403
#     4  11  23  37  70  94 128 172 230 268 329 413
#     4  12  26  42  65  98 136 172 221 281 331 398
#
# _framework density 21.806712000000001
#
# number of rings (size 3 to 8) (size 9 to 14) (size 15 to 20)
#    0.000    0.667    6.667    2.500    2.333    1.333 
#    0.000    3.333    0.000    0.000    0.000    0.000 
#    0.000    0.000    0.000    0.000    0.000    0.000 
#
# Total GULP energy -594641.721396 kJ/mol
# GULP energy per Si atom -12388.369196 kJ/mol
# Density = 2.175708 g / cm^3
# Si number density = 21.806712 Si / 1000 Ang^3
#
#
#
# Elastic Constant Matrix: (Units=GPa)
#
#
# Indices 1 2 3 4 5 6 
#
# 1 101.4412 8.2186 28.7458 0.0000 0.0000 0.0000
# 2 8.2186 77.5519 13.7813 0.0000 0.0000 0.0000
# 3 28.7458 13.7813 137.4444 0.0000 0.0000 0.0000
# 4 0.0000 0.0000 0.0000 31.8736 0.0000 0.0000
# 5 0.0000 0.0000 0.0000 0.0000 19.2296 0.0000
# 6 0.0000 0.0000 0.0000 0.0000 0.0000 27.6714
#
#
#
# Elastic Compliance Matrix: (Units=1/GPa)
#
#
# Indices 1 2 3 4 5 6 
#
# 1 0.010520 -0.000737 -0.002126 0.000000 0.000000 0.000000
# 2 -0.000737 0.013180 -0.001167 0.000000 0.000000 0.000000
# 3 -0.002126 -0.001167 0.007837 0.000000 0.000000 0.000000
# 4 0.000000 0.000000 0.000000 0.031374 0.000000 0.000000
# 5 0.000000 0.000000 0.000000 0.000000 0.052003 0.000000
# 6 0.000000 0.000000 0.000000 0.000000 0.000000 0.036138
#
#
# Mechanical properties :
#
#
# Convention : Reuss Voigt Hill
#
# Bulk Modulus (GPa) = 42.59627 46.43655 44.51641
# Shear Modulus (GPa) = 29.95082 33.46770 31.70926
#
# Velocity S-wave (km/s) = 3.71005 3.92183 3.81741
# Velocity P-wave (km/s) = 6.15862 6.46904 6.31574
#
# Compressibility (1/GPa) = 0.02347623
#
# Stress axis : x y z
#
# Youngs Moduli (GPa) = 95.05538 75.87165 127.59279
#
# Poissons Ratio (x) = 0.05592 0.27131
# Poissons Ratio (y) = 0.07006 0.14895
# Poissons Ratio (z) = 0.20212 0.08857
#
# Static dielectric constant tensor:
#      x y z
#    x 3.808150 0.000000 0.000000 
#    y 0.000000 4.454210 0.000000 
#    z 0.000000 0.000000 3.863280 
# 
# 
# High freq. dielectric constant tensor:
#      x y z
#    x 1.838760 0.000000 0.000000 
#    y 0.000000 1.881860 0.000000 
#    z 0.000000 0.000000 1.845910 
# 
# From -- ./inp_files/17103.got.cif
#   From: 2010.03.12/outbox.cif.g09.slc.cpg/sg73_9_cif.got.tgz:17103.got - 2010.04.16 15:25:48.
