data_PCOD8296773
_publ_section_title
;
Structure prediction by ZEFSAII (Michael W. Deem and Ramdas Pophale) SiO2 
 PCOD8296773
Probable space group: I B C A 
;
_chemical_formula_sum "Si O2"
_cell_formula_units_Z 72
_cell_length_a 15.724607
_cell_length_b 9.810380
_cell_length_c 21.894370
_cell_angle_alpha 90.000000
_cell_angle_beta 90.000000
_cell_angle_gamma 90.000000
_cell_volume 3377.521195
_symmetry_space_group_name_H-M "I B C A "
_symmetry_group_IT_number 73
_symmetry_cell_setting 'orthorhombic'
loop_
_space_group_symop_operation_xyz
x,y,z
-x,1/2-y,z
x,-y,1/2-z
1/2-x,y,-z
-x,-y,-z
x,1/2+y,-z
-x,y,1/2+z
1/2+x,-y,z
1/2+x,1/2+y,1/2+z
1/2-x,-y,1/2+z
1/2+x,1/2-y,-z
-x,1/2+y,1/2-z
1/2-x,1/2-y,1/2-z
1/2+x,y,1/2-z
1/2-x,1/2+y,z
x,1/2-y,1/2+z
loop_
_atom_site_type_symbol
_atom_site_label
_atom_site_fract_x
_atom_site_fract_y
_atom_site_fract_z
Si Si1 0.406868 0.200678 0.413571
Si Si2 0.738997 0.098739 0.407642
Si Si3 0.380294 0.466490 0.679710
Si Si4 0.651944 0.164742 0.044693
Si Si5 0.000000 0.750000 0.126426
O O1 0.500000 0.250000 0.429836
O O2 0.349589 0.328137 0.393519
O O3 0.370774 0.130734 0.474902
O O4 0.410415 0.096511 0.358269
O O5 0.788162 0.082670 0.343559
O O6 0.800683 0.187825 0.452194
O O7 0.719223 0.949018 0.433901
O O8 0.371508 0.500000 0.750000
O O9 0.450990 0.351180 0.671184
O O10 0.566114 0.166048 0.084475
#
# Coordination Sequence:
#
# PCOD8296773 Si02
#       5
#    16  16  16  16   8
#     4  12  26  42  73 107 144 181 233 294 362 416
#     4  11  25  44  72 104 143 189 230 292 351 422
#     4  11  27  48  69 103 142 194 241 281 342 422
#     4  11  24  44  71 108 145 177 233 296 367 421
#     4  10  24  48  72 102 146 184 230 300 356 412
#
# _framework density 21.317408
#
# number of rings (size 3 to 8) (size 9 to 14) (size 15 to 20)
#    0.000    0.889    3.333    2.000   10.889    2.667 
#    0.000    1.111    0.000    0.000    0.000    0.000 
#    0.000    0.000    0.000    0.000    0.000    0.000 
#
# Total GULP energy -446539.177741 kJ/mol
# GULP energy per Si atom -12403.866048 kJ/mol
# Density = 2.126889 g / cm^3
# Si number density = 21.317408 Si / 1000 Ang^3
#
#
#
# Elastic Constant Matrix: (Units=GPa)
#
#
# Indices 1 2 3 4 5 6 
#
# 1 159.5421 53.5854 63.8499 0.0000 0.0000 0.0000
# 2 53.5854 107.2133 57.5523 0.0000 0.0000 0.0000
# 3 63.8499 57.5523 179.3281 0.0000 0.0000 0.0000
# 4 0.0000 0.0000 0.0000 25.9863 0.0000 0.0000
# 5 0.0000 0.0000 0.0000 0.0000 20.7089 0.0000
# 6 0.0000 0.0000 0.0000 0.0000 0.0000 -201.4304
#
#
#
# Elastic Compliance Matrix: (Units=1/GPa)
#
#
# Indices 1 2 3 4 5 6 
#
# 1 0.008034 -0.002996 -0.001899 0.000000 0.000000 0.000000
# 2 -0.002996 0.012386 -0.002908 0.000000 0.000000 0.000000
# 3 -0.001899 -0.002908 0.007186 0.000000 0.000000 0.000000
# 4 0.000000 0.000000 0.000000 0.038482 0.000000 0.000000
# 5 0.000000 0.000000 0.000000 0.000000 0.048288 0.000000
# 6 0.000000 0.000000 0.000000 0.000000 0.000000 -0.004964
#
#
# Mechanical properties :
#
#
# Convention : Reuss Voigt Hill
#
# Bulk Modulus (GPa) = 83.33942 88.45096 85.89519
# Shear Modulus (GPa) = 38.75422 -12.87398 12.94012
#
# Velocity S-wave (km/s) = 4.26838 -2.46014 2.46645
# Velocity P-wave (km/s) = 7.96690 5.78902 6.96363
#
# Compressibility (1/GPa) = 0.01199912
#
# Stress axis : x y z
#
# Youngs Moduli (GPa) = 124.46698 80.73750 139.16177
#
# Poissons Ratio (x) = 0.24190 0.26428
# Poissons Ratio (y) = 0.37292 0.40472
# Poissons Ratio (z) = 0.23637 0.23480
#
# Static dielectric constant tensor:
#      x y z
#    x 4.197590 0.000000 0.000000 
#    y 0.000000 3.916020 0.000000 
#    z 0.000000 0.000000 3.538270 
# 
# 
# High freq. dielectric constant tensor:
#      x y z
#    x 1.864220 0.000000 0.000000 
#    y 0.000000 1.844810 0.000000 
#    z 0.000000 0.000000 1.815080 
# 
# From -- ./inp_files/5995.got.cif
#   From: 2010.03.12/outbox.cif.g09.slc.cpg/sg73_3_cif.got.tgz:5995.got - 2010.04.16 15:25:48.
