data_PCOD8296607
_publ_section_title
;
Structure prediction by ZEFSAII (Michael W. Deem and Ramdas Pophale) SiO2 
 PCOD8296607
Probable space group: I B C A 
;
_chemical_formula_sum "Si O2"
_cell_formula_units_Z 88
_cell_length_a 17.579353
_cell_length_b 13.403342
_cell_length_c 17.965889
_cell_angle_alpha 90.000000
_cell_angle_beta 90.000000
_cell_angle_gamma 90.000000
_cell_volume 4233.160142
_symmetry_space_group_name_H-M "I B C A "
_symmetry_group_IT_number 73
_symmetry_cell_setting 'orthorhombic'
loop_
_space_group_symop_operation_xyz
x,y,z
-x,1/2-y,z
x,-y,1/2-z
1/2-x,y,-z
-x,-y,-z
x,1/2+y,-z
-x,y,1/2+z
1/2+x,-y,z
1/2+x,1/2+y,1/2+z
1/2-x,-y,1/2+z
1/2+x,1/2-y,-z
-x,1/2+y,1/2-z
1/2-x,1/2-y,1/2-z
1/2+x,y,1/2-z
1/2-x,1/2+y,z
x,1/2-y,1/2+z
loop_
_atom_site_type_symbol
_atom_site_label
_atom_site_fract_x
_atom_site_fract_y
_atom_site_fract_z
Si Si1 0.564592 0.927765 0.468073
Si Si2 0.874021 0.783718 0.252819
Si Si3 0.085634 0.770975 0.922304
Si Si4 0.269217 0.605799 0.224351
Si Si5 0.500000 0.250000 0.134794
Si Si6 0.186171 0.912737 0.439236
O O1 0.607030 0.875108 0.538051
O O2 0.531427 0.843178 0.412797
O O3 0.500000 0.000000 0.500000
O O4 0.629248 0.993866 0.427796
O O5 0.911894 0.779066 0.333641
O O6 0.817251 0.877793 0.251157
O O7 0.825285 0.684594 0.237070
O O8 0.935463 0.795918 0.188130
O O9 0.137473 0.685381 0.959078
O O10 0.000000 0.750000 0.947241
O O11 0.299773 0.500000 0.250000
O O12 0.269757 0.612546 0.135847
O O13 0.250000 0.935418 0.500000
#
# Coordination Sequence:
#
# PCOD8296607 Si02
#       6
#    16  16  16  16   8  16
#     4  12  25  42  67 100 135 174 223 277 333 405
#     4  10  24  42  69  94 131 175 220 272 341 395
#     4  11  22  46  67  97 137 174 221 286 335 400
#     4  10  23  44  64  95 133 170 223 278 327 401
#     4  12  24  42  72  96 132 176 222 274 340 398
#     4  11  26  43  68  99 136 178 227 275 341 405
#
# _framework density 20.788252
#
# number of rings (size 3 to 8) (size 9 to 14) (size 15 to 20)
#    0.000    1.091    3.636    1.091    7.636    0.727 
#    0.000    2.727    0.000    0.000    0.000    0.000 
#    0.000    0.000    0.000    0.000    0.000    0.000 
#
# Total GULP energy -545607.396362 kJ/mol
# GULP energy per Si atom -12400.168099 kJ/mol
# Density = 2.074094 g / cm^3
# Si number density = 20.788252 Si / 1000 Ang^3
#
#
#
# Elastic Constant Matrix: (Units=GPa)
#
#
# Indices 1 2 3 4 5 6 
#
# 1 95.6742 34.0445 35.5100 0.0000 0.0000 0.0000
# 2 34.0445 120.9371 34.2750 0.0000 0.0000 0.0000
# 3 35.5100 34.2750 74.7743 0.0000 0.0000 0.0000
# 4 0.0000 0.0000 0.0000 30.4298 0.0000 0.0000
# 5 0.0000 0.0000 0.0000 0.0000 28.8748 0.0000
# 6 0.0000 0.0000 0.0000 0.0000 0.0000 24.7257
#
#
#
# Elastic Compliance Matrix: (Units=1/GPa)
#
#
# Indices 1 2 3 4 5 6 
#
# 1 0.013191 -0.002227 -0.005243 0.000000 0.000000 0.000000
# 2 -0.002227 0.009879 -0.003471 0.000000 0.000000 0.000000
# 3 -0.005243 -0.003471 0.017455 0.000000 0.000000 0.000000
# 4 0.000000 0.000000 0.000000 0.032863 0.000000 0.000000
# 5 0.000000 0.000000 0.000000 0.000000 0.034632 0.000000
# 6 0.000000 0.000000 0.000000 0.000000 0.000000 0.040444
#
#
# Mechanical properties :
#
#
# Convention : Reuss Voigt Hill
#
# Bulk Modulus (GPa) = 53.64237 55.44941 54.54589
# Shear Modulus (GPa) = 28.31897 29.30980 28.81439
#
# Velocity S-wave (km/s) = 3.69488 3.75897 3.72706
# Velocity P-wave (km/s) = 6.63800 6.75064 6.69456
#
# Compressibility (1/GPa) = 0.01864198
#
# Stress axis : x y z
#
# Youngs Moduli (GPa) = 75.81054 101.22060 57.29158
#
# Poissons Ratio (x) = 0.22544 0.30040
# Poissons Ratio (y) = 0.16885 0.19885
# Poissons Ratio (z) = 0.39750 0.35132
#
# Static dielectric constant tensor:
#      x y z
#    x 3.812630 0.000000 0.000000 
#    y 0.000000 3.952420 0.000000 
#    z 0.000000 0.000000 3.774710 
# 
# 
# High freq. dielectric constant tensor:
#      x y z
#    x 1.817810 0.000000 0.000000 
#    y 0.000000 1.820160 0.000000 
#    z 0.000000 0.000000 1.819650 
# 
# From -- ./inp_files/11863.got.cif
#   From: 2010.03.12/outbox.cif.g09.slc.cpg/sg73_6_cif.got.tgz:11863.got - 2010.04.16 15:25:48.
