data_PCOD8296963
_publ_section_title
;
Structure prediction by ZEFSAII (Michael W. Deem and Ramdas Pophale) SiO2 
 PCOD8296963
Probable space group: I B C A 
;
_chemical_formula_sum "Si O2"
_cell_formula_units_Z 64
_cell_length_a 4.946791
_cell_length_b 22.781778
_cell_length_c 22.206855
_cell_angle_alpha 90.000000
_cell_angle_beta 90.000000
_cell_angle_gamma 90.000000
_cell_volume 2502.639151
_symmetry_space_group_name_H-M "I B C A "
_symmetry_group_IT_number 73
_symmetry_cell_setting 'orthorhombic'
loop_
_space_group_symop_operation_xyz
x,y,z
-x,1/2-y,z
x,-y,1/2-z
1/2-x,y,-z
-x,-y,-z
x,1/2+y,-z
-x,y,1/2+z
1/2+x,-y,z
1/2+x,1/2+y,1/2+z
1/2-x,-y,1/2+z
1/2+x,1/2-y,-z
-x,1/2+y,1/2-z
1/2-x,1/2-y,1/2-z
1/2+x,y,1/2-z
1/2-x,1/2+y,z
x,1/2-y,1/2+z
loop_
_atom_site_type_symbol
_atom_site_label
_atom_site_fract_x
_atom_site_fract_y
_atom_site_fract_z
Si Si1 0.774043 0.086877 0.787797
Si Si2 0.273038 0.286784 0.839249
Si Si3 0.662774 0.962835 0.585242
Si Si4 0.482916 0.837636 0.039449
O O1 0.576522 0.070769 0.732443
O O2 0.797961 0.155702 0.802373
O O3 0.665256 0.050369 0.843862
O O4 0.500000 0.250000 0.801173
O O5 0.461698 0.304508 0.897140
O O6 0.000000 0.250000 0.854261
O O7 0.575575 0.906499 0.547866
O O8 0.463035 0.016190 0.568272
O O9 0.250000 0.808479 0.000000
O O10 0.750000 0.828300 0.000000
#
# Coordination Sequence:
#
# PCOD8296963 Si02
#       4
#    16  16  16  16
#     4  11  24  41  63  93 127 165 211 261 315 378
#     4  11  24  42  64  92 126 164 210 262 317 381
#     4  11  24  41  63  93 127 165 211 261 315 378
#     4  11  24  42  64  92 126 164 210 262 317 381
#
# _framework density 25.573004000000001
#
# number of rings (size 3 to 8) (size 9 to 14) (size 15 to 20)
#    0.000    1.000    0.000    6.000    0.000   19.000 
#    0.000    0.000    0.000    0.000    0.000    0.000 
#    0.000    0.000    0.000    0.000    0.000    0.000 
#
# Total GULP energy -396593.083932 kJ/mol
# GULP energy per Si atom -12393.533873 kJ/mol
# Density = 2.551480 g / cm^3
# Si number density = 25.573004 Si / 1000 Ang^3
#
#
#
# Elastic Constant Matrix: (Units=GPa)
#
#
# Indices 1 2 3 4 5 6 
#
# 1 169.0046 22.8793 29.8538 0.0000 0.0000 0.0000
# 2 22.8793 85.4063 -12.8406 0.0000 0.0000 0.0000
# 3 29.8538 -12.8406 29.9870 0.0000 0.0000 0.0000
# 4 0.0000 0.0000 0.0000 3.4393 0.0000 0.0000
# 5 0.0000 0.0000 0.0000 0.0000 29.4445 0.0000
# 6 0.0000 0.0000 0.0000 0.0000 0.0000 49.2841
#
#
#
# Elastic Compliance Matrix: (Units=1/GPa)
#
#
# Indices 1 2 3 4 5 6 
#
# 1 0.008106 -0.003618 -0.009619 0.000000 0.000000 0.000000
# 2 -0.003618 0.014129 0.009652 0.000000 0.000000 0.000000
# 3 -0.009619 0.009652 0.047057 -0.000001 0.000000 0.000000
# 4 0.000000 0.000000 -0.000001 0.290759 0.000000 0.000000
# 5 0.000000 0.000000 0.000000 0.000000 0.033962 0.000000
# 6 0.000000 0.000000 0.000000 0.000000 0.000000 0.020291
#
#
# Mechanical properties :
#
#
# Convention : Reuss Voigt Hill
#
# Bulk Modulus (GPa) = 16.09737 40.46476 28.28106
# Shear Modulus (GPa) = 11.30760 32.73395 22.02078
#
# Velocity S-wave (km/s) = 2.10506 3.58162 2.93762
# Velocity P-wave (km/s) = 3.49524 5.74122 4.75280
#
# Compressibility (1/GPa) = 0.06212195
#
# Stress axis : x y z
#
# Youngs Moduli (GPa) = 123.36710 70.77657 21.25084
#
# Poissons Ratio (x) = 0.25605 0.20441
# Poissons Ratio (y) = 0.44630 -0.20511
# Poissons Ratio (z) = 1.18667 -0.68311
#
# Static dielectric constant tensor:
#      x y z
#    x 4.509010 0.000000 0.000000 
#    y 0.000000 4.873480 0.000000 
#    z 0.000000 0.000000 4.620850 
# 
# 
# High freq. dielectric constant tensor:
#      x y z
#    x 2.030980 0.000000 0.000000 
#    y 0.000000 2.041160 0.000000 
#    z 0.000000 0.000000 2.025280 
# 
# From -- ./inp_files/1541.got.cif
#   From: 2010.03.12/outbox.cif.g09.slc.cpg/sg73_1_cif.got.tgz:1541.got - 2010.04.16 15:25:48.
