data_PCOD8296241
_publ_section_title
;
Structure prediction by ZEFSAII (Michael W. Deem and Ramdas Pophale) SiO2 
 PCOD8296241
Probable space group: I B C A 
;
_chemical_formula_sum "Si O2"
_cell_formula_units_Z 96
_cell_length_a 18.747216
_cell_length_b 16.065602
_cell_length_c 14.965678
_cell_angle_alpha 90.000000
_cell_angle_beta 90.000000
_cell_angle_gamma 90.000000
_cell_volume 4507.442381
_symmetry_space_group_name_H-M "I B C A "
_symmetry_group_IT_number 73
_symmetry_cell_setting 'orthorhombic'
loop_
_space_group_symop_operation_xyz
x,y,z
-x,1/2-y,z
x,-y,1/2-z
1/2-x,y,-z
-x,-y,-z
x,1/2+y,-z
-x,y,1/2+z
1/2+x,-y,z
1/2+x,1/2+y,1/2+z
1/2-x,-y,1/2+z
1/2+x,1/2-y,-z
-x,1/2+y,1/2-z
1/2-x,1/2-y,1/2-z
1/2+x,y,1/2-z
1/2-x,1/2+y,z
x,1/2-y,1/2+z
loop_
_atom_site_type_symbol
_atom_site_label
_atom_site_fract_x
_atom_site_fract_y
_atom_site_fract_z
Si Si1 0.184596 0.500740 0.060592
Si Si2 0.853234 0.644048 0.821789
Si Si3 0.045122 0.081021 0.983464
Si Si4 0.486267 0.092765 0.218839
Si Si5 0.769097 0.414713 0.208567
Si Si6 0.590683 0.174474 0.349497
O O1 0.146863 0.416295 0.093009
O O2 0.127445 0.555301 0.008701
O O3 0.208865 0.560915 0.138995
O O4 0.250000 0.472906 0.000000
O O5 0.905599 0.604943 0.749248
O O6 0.772278 0.645255 0.780366
O O7 0.885512 0.730292 0.855888
O O8 0.016388 0.112334 0.887359
O O9 0.042472 0.149554 0.063427
O O10 0.000000 0.000000 0.000000
O O11 0.541621 0.158212 0.262457
O O12 0.510819 0.000000 0.250000
O O13 0.799578 0.500000 0.250000
O O14 0.834832 0.372391 0.160358
#
# Coordination Sequence:
#
# PCOD8296241 Si02
#       6
#    16  16  16  16  16  16
#     4  11  21  42  69  96 132 182 233 275 334 421
#     4  11  23  43  64  99 141 180 220 290 358 401
#     4  12  24  41  70 101 130 181 237 284 337 422
#     4  12  22  44  71  92 135 187 232 281 346 424
#     4  10  21  40  69  94 130 181 232 268 336 427
#     4  12  25  41  67 105 140 172 235 297 349 409
#
# _framework density 21.298109
#
# number of rings (size 3 to 8) (size 9 to 14) (size 15 to 20)
#    0.000    0.667    6.667    2.000    0.000    0.000 
#    3.000    8.333    0.000    0.000    0.000    0.000 
#    0.000    0.000    0.000    0.000    0.000    0.000 
#
# Total GULP energy -594873.013361 kJ/mol
# GULP energy per Si atom -12393.187778 kJ/mol
# Density = 2.124963 g / cm^3
# Si number density = 21.298109 Si / 1000 Ang^3
#
#
#
# Elastic Constant Matrix: (Units=GPa)
#
#
# Indices 1 2 3 4 5 6 
#
# 1 62.1397 38.3578 23.3012 0.0000 0.0000 0.0000
# 2 38.3578 84.8027 50.3978 0.0000 0.0000 0.0000
# 3 23.3012 50.3978 128.7331 0.0000 0.0000 0.0000
# 4 0.0000 0.0000 0.0000 7.3213 0.0000 0.0000
# 5 0.0000 0.0000 0.0000 0.0000 23.0266 0.0000
# 6 0.0000 0.0000 0.0000 0.0000 0.0000 32.9780
#
#
#
# Elastic Compliance Matrix: (Units=1/GPa)
#
#
# Indices 1 2 3 4 5 6 
#
# 1 0.022328 -0.010031 -0.000114 0.000000 0.000000 0.000000
# 2 -0.010031 0.019874 -0.005965 0.000000 0.000000 0.000000
# 3 -0.000114 -0.005965 0.010124 0.000000 0.000000 0.000000
# 4 0.000000 0.000000 0.000000 0.136588 0.000000 0.000000
# 5 0.000000 0.000000 0.000000 0.000000 0.043428 0.000000
# 6 0.000000 0.000000 0.000000 0.000000 0.000000 0.030323
#
#
# Mechanical properties :
#
#
# Convention : Reuss Voigt Hill
#
# Bulk Modulus (GPa) = 49.73879 55.53210 52.63544
# Shear Modulus (GPa) = 16.57889 23.57309 20.07599
#
# Velocity S-wave (km/s) = 2.79305 3.33049 3.07354
# Velocity P-wave (km/s) = 5.81427 6.39687 6.11252
#
# Compressibility (1/GPa) = 0.02010503
#
# Stress axis : x y z
#
# Youngs Moduli (GPa) = 44.78720 50.31605 98.77619
#
# Poissons Ratio (x) = 0.50474 0.01128
# Poissons Ratio (y) = 0.44928 0.58919
# Poissons Ratio (z) = 0.00512 0.30013
#
# Static dielectric constant tensor:
#      x y z
#    x 3.895590 0.000000 0.000000 
#    y 0.000000 3.595160 0.000000 
#    z 0.000000 0.000000 4.446040 
# 
# 
# High freq. dielectric constant tensor:
#      x y z
#    x 1.853390 0.000000 0.000000 
#    y 0.000000 1.818690 0.000000 
#    z 0.000000 0.000000 1.836150 
# 
# From -- ./inp_files/17008.got.cif
#   From: 2010.03.12/outbox.cif.g09.slc.cpg/sg73_9_cif.got.tgz:17008.got - 2010.04.16 15:25:48.
