data_PCOD8296808
_publ_section_title
;
Structure prediction by ZEFSAII (Michael W. Deem and Ramdas Pophale) SiO2 
 PCOD8296808
Probable space group: I B C A 
;
_chemical_formula_sum "Si O2"
_cell_formula_units_Z 72
_cell_length_a 8.918843
_cell_length_b 18.860594
_cell_length_c 17.559806
_cell_angle_alpha 90.000000
_cell_angle_beta 90.000000
_cell_angle_gamma 90.000000
_cell_volume 2953.817090
_symmetry_space_group_name_H-M "I B C A "
_symmetry_group_IT_number 73
_symmetry_cell_setting 'orthorhombic'
loop_
_space_group_symop_operation_xyz
x,y,z
-x,1/2-y,z
x,-y,1/2-z
1/2-x,y,-z
-x,-y,-z
x,1/2+y,-z
-x,y,1/2+z
1/2+x,-y,z
1/2+x,1/2+y,1/2+z
1/2-x,-y,1/2+z
1/2+x,1/2-y,-z
-x,1/2+y,1/2-z
1/2-x,1/2-y,1/2-z
1/2+x,y,1/2-z
1/2-x,1/2+y,z
x,1/2-y,1/2+z
loop_
_atom_site_type_symbol
_atom_site_label
_atom_site_fract_x
_atom_site_fract_y
_atom_site_fract_z
Si Si1 0.798768 0.454684 0.323947
Si Si2 0.000000 0.250000 0.679133
Si Si3 0.789999 0.833113 0.916737
Si Si4 0.487873 0.039271 0.419998
Si Si5 0.985675 0.829128 0.178951
O O1 0.739519 0.500000 0.250000
O O2 0.682323 0.448889 0.393671
O O3 0.943848 0.495879 0.351206
O O4 0.861652 0.374601 0.313282
O O5 0.146024 0.266756 0.629596
O O6 0.056463 0.183884 0.731934
O O7 0.648041 0.866783 0.869804
O O8 0.923328 0.888115 0.928012
O O9 0.750000 0.804927 0.000000
O O10 0.500000 0.000000 0.500000
O O11 0.000000 0.750000 0.140578
#
# Coordination Sequence:
#
# PCOD8296808 Si02
#       5
#    16   8  16  16  16
#     4  12  25  46  77 110 148 202 258 310 374 454
#     4  10  26  44  76 106 152 194 246 304 368 446
#     4  12  26  47  75 108 148 198 250 305 380 451
#     4  12  27  47  74 109 151 196 253 317 377 445
#     4  10  26  48  75 112 155 192 253 311 381 450
#
# _framework density 24.375238
#
# number of rings (size 3 to 8) (size 9 to 14) (size 15 to 20)
#    0.667    0.000    0.000    7.333    4.667    3.556 
#    0.000    1.111    0.000    0.000    0.000    0.000 
#    0.000    0.000    0.000    0.000    0.000    0.000 
#
# Total GULP energy -446073.470934 kJ/mol
# GULP energy per Si atom -12390.929748 kJ/mol
# Density = 2.431976 g / cm^3
# Si number density = 24.375238 Si / 1000 Ang^3
#
#
#
# Elastic Constant Matrix: (Units=GPa)
#
#
# Indices 1 2 3 4 5 6 
#
# 1 135.4312 45.3192 74.4788 0.0000 0.0000 0.0000
# 2 45.3192 94.9128 49.7682 0.0000 0.0000 0.0000
# 3 74.4788 49.7682 187.2429 0.0000 0.0000 0.0000
# 4 0.0000 0.0000 0.0000 29.8088 0.0000 0.0000
# 5 0.0000 0.0000 0.0000 0.0000 37.9294 0.0000
# 6 0.0000 0.0000 0.0000 0.0000 0.0000 32.4567
#
#
#
# Elastic Compliance Matrix: (Units=1/GPa)
#
#
# Indices 1 2 3 4 5 6 
#
# 1 0.010222 -0.003194 -0.003217 0.000000 0.000000 0.000000
# 2 -0.003194 0.013240 -0.002249 0.000000 0.000000 0.000000
# 3 -0.003217 -0.002249 0.007218 0.000000 0.000000 0.000000
# 4 0.000000 0.000000 0.000000 0.033547 0.000000 0.000000
# 5 0.000000 0.000000 0.000000 0.000000 0.026365 0.000000
# 6 0.000000 0.000000 0.000000 0.000000 0.000000 0.030810
#
#
# Mechanical properties :
#
#
# Convention : Reuss Voigt Hill
#
# Bulk Modulus (GPa) = 74.84635 84.07992 79.46314
# Shear Modulus (GPa) = 34.92240 36.57370 35.74805
#
# Velocity S-wave (km/s) = 3.78921 3.87776 3.83374
# Velocity P-wave (km/s) = 7.06517 7.39042 7.22962
#
# Compressibility (1/GPa) = 0.01336070
#
# Stress axis : x y z
#
# Youngs Moduli (GPa) = 97.83113 75.52784 138.54353
#
# Poissons Ratio (x) = 0.24123 0.44568
# Poissons Ratio (y) = 0.31246 0.31155
# Poissons Ratio (z) = 0.31472 0.16984
#
# Static dielectric constant tensor:
#      x y z
#    x 4.323860 0.000000 0.000000 
#    y 0.000000 4.598570 0.000000 
#    z 0.000000 0.000000 4.658040 
# 
# 
# High freq. dielectric constant tensor:
#      x y z
#    x 1.973990 0.000000 0.000000 
#    y 0.000000 1.964880 0.000000 
#    z 0.000000 0.000000 1.974190 
# 
# From -- ./inp_files/24688.got.cif
#   From: 2010.03.12/outbox.cif.g09.slc.cpg/sg73_13_cif.got.tgz:24688.got - 2010.04.16 15:25:48.
