data_PCOD8296874
_publ_section_title
;
Structure prediction by ZEFSAII (Michael W. Deem and Ramdas Pophale) SiO2 
 PCOD8296874
Probable space group: I B C A 
;
_chemical_formula_sum "Si O2"
_cell_formula_units_Z 96
_cell_length_a 8.568597
_cell_length_b 22.880168
_cell_length_c 23.527542
_cell_angle_alpha 90.000000
_cell_angle_beta 90.000000
_cell_angle_gamma 90.000000
_cell_volume 4612.596699
_symmetry_space_group_name_H-M "I B C A "
_symmetry_group_IT_number 73
_symmetry_cell_setting 'orthorhombic'
loop_
_space_group_symop_operation_xyz
x,y,z
-x,1/2-y,z
x,-y,1/2-z
1/2-x,y,-z
-x,-y,-z
x,1/2+y,-z
-x,y,1/2+z
1/2+x,-y,z
1/2+x,1/2+y,1/2+z
1/2-x,-y,1/2+z
1/2+x,1/2-y,-z
-x,1/2+y,1/2-z
1/2-x,1/2-y,1/2-z
1/2+x,y,1/2-z
1/2-x,1/2+y,z
x,1/2-y,1/2+z
loop_
_atom_site_type_symbol
_atom_site_label
_atom_site_fract_x
_atom_site_fract_y
_atom_site_fract_z
Si Si1 0.955936 0.685499 0.698672
Si Si2 0.433965 0.064011 0.996261
Si Si3 0.605177 0.024752 0.689597
Si Si4 0.147960 0.624096 0.790045
Si Si5 0.087044 0.590347 0.379957
Si Si6 0.567637 0.112965 0.109273
O O1 0.771514 0.676756 0.706444
O O2 0.000000 0.750000 0.719384
O O3 0.052936 0.634333 0.731863
O O4 0.998525 0.674448 0.632618
O O5 0.482733 0.088497 0.935811
O O6 0.250000 0.062000 0.000000
O O7 0.500760 0.103188 0.046795
O O8 0.500000 0.000000 0.000000
O O9 0.764092 0.061351 0.703760
O O10 0.481639 0.062821 0.654332
O O11 0.537560 0.000000 0.750000
O O12 0.639543 0.971146 0.647535
O O13 0.015240 0.629569 0.837685
O O14 0.247635 0.621839 0.395095
#
# Coordination Sequence:
#
# PCOD8296874 Si02
#       6
#    16  16  16  16  16  16
#     4  11  23  43  67  90 123 166 219 281 330 376
#     4  12  24  40  60  91 128 171 212 251 312 390
#     4  11  22  36  56  88 128 168 200 251 317 395
#     4  11  24  39  60  93 125 166 214 264 322 389
#     4  12  23  38  61  90 130 168 204 258 321 396
#     4  11  23  39  61  90 122 162 214 259 319 382
#
# _framework density 20.812571999999999
#
# number of rings (size 3 to 8) (size 9 to 14) (size 15 to 20)
#    0.000    0.667    1.667    9.000    0.000    2.667 
#    0.000    0.000    0.000    7.000    0.000    0.000 
#    0.000    0.000    0.000    0.000    0.000    0.000 
#
# Total GULP energy -594999.089549 kJ/mol
# GULP energy per Si atom -12395.814366 kJ/mol
# Density = 2.076520 g / cm^3
# Si number density = 20.812572 Si / 1000 Ang^3
#
#
#
# Elastic Constant Matrix: (Units=GPa)
#
#
# Indices 1 2 3 4 5 6 
#
# 1 154.4084 26.0912 36.1172 0.0000 0.0000 0.0000
# 2 26.0912 55.9545 33.7842 0.0000 0.0000 0.0000
# 3 36.1172 33.7842 127.7393 0.0000 0.0000 0.0000
# 4 0.0000 0.0000 0.0000 19.3430 0.0000 0.0000
# 5 0.0000 0.0000 0.0000 0.0000 41.3448 0.0000
# 6 0.0000 0.0000 0.0000 0.0000 0.0000 20.2756
#
#
#
# Elastic Compliance Matrix: (Units=1/GPa)
#
#
# Indices 1 2 3 4 5 6 
#
# 1 0.007227 -0.002542 -0.001371 0.000000 0.000000 0.000000
# 2 -0.002542 0.022162 -0.005143 0.000000 0.000000 0.000000
# 3 -0.001371 -0.005143 0.009576 0.000000 0.000000 0.000000
# 4 0.000000 0.000000 0.000000 0.051698 0.000000 0.000000
# 5 0.000000 0.000000 0.000000 0.000000 0.024187 0.000000
# 6 0.000000 0.000000 0.000000 0.000000 0.000000 0.049320
#
#
# Mechanical properties :
#
#
# Convention : Reuss Voigt Hill
#
# Bulk Modulus (GPa) = 47.95327 58.89862 53.42594
# Shear Modulus (GPa) = 26.42251 32.33332 29.37792
#
# Velocity S-wave (km/s) = 3.56693 3.94578 3.76113
# Velocity P-wave (km/s) = 6.32887 7.00856 6.67737
#
# Compressibility (1/GPa) = 0.02085364
#
# Stress axis : x y z
#
# Youngs Moduli (GPa) = 138.37902 45.12232 104.42573
#
# Poissons Ratio (x) = 0.11470 0.14316
# Poissons Ratio (y) = 0.35175 0.53702
# Poissons Ratio (z) = 0.18971 0.23205
#
# Static dielectric constant tensor:
#      x y z
#    x 3.716470 0.000000 0.000000 
#    y 0.000000 3.382420 0.000000 
#    z 0.000000 0.000000 3.951180 
# 
# 
# High freq. dielectric constant tensor:
#      x y z
#    x 1.838300 0.000000 0.000000 
#    y 0.000000 1.771490 0.000000 
#    z 0.000000 0.000000 1.824380 
# 
# From -- ./inp_files/28405.got.cif
#   From: 2010.03.12/outbox.cif.g09.slc.cpg/sg73_15_cif.got.tgz:28405.got - 2010.04.16 15:25:48.
