data_PCOD8296076
_publ_section_title
;
Structure prediction by ZEFSAII (Michael W. Deem and Ramdas Pophale) SiO2 
 PCOD8296076
Probable space group: I B C A 
;
_chemical_formula_sum "Si O2"
_cell_formula_units_Z 80
_cell_length_a 13.352388
_cell_length_b 22.834091
_cell_length_c 10.519862
_cell_angle_alpha 90.000000
_cell_angle_beta 90.000000
_cell_angle_gamma 90.000000
_cell_volume 3207.396966
_symmetry_space_group_name_H-M "I B C A "
_symmetry_group_IT_number 73
_symmetry_cell_setting 'orthorhombic'
loop_
_space_group_symop_operation_xyz
x,y,z
-x,1/2-y,z
x,-y,1/2-z
1/2-x,y,-z
-x,-y,-z
x,1/2+y,-z
-x,y,1/2+z
1/2+x,-y,z
1/2+x,1/2+y,1/2+z
1/2-x,-y,1/2+z
1/2+x,1/2-y,-z
-x,1/2+y,1/2-z
1/2-x,1/2-y,1/2-z
1/2+x,y,1/2-z
1/2-x,1/2+y,z
x,1/2-y,1/2+z
loop_
_atom_site_type_symbol
_atom_site_label
_atom_site_fract_x
_atom_site_fract_y
_atom_site_fract_z
Si Si1 0.154733 0.456565 0.075287
Si Si2 0.538142 0.867657 0.437858
Si Si3 0.336128 0.219002 0.402251
Si Si4 0.318205 0.663488 0.219699
Si Si5 0.664039 0.914657 0.864060
O O1 0.153596 0.435515 0.219024
O O2 0.155150 0.526316 0.054076
O O3 0.250000 0.428980 0.000000
O O4 0.058054 0.429532 0.006077
O O5 0.570869 0.813847 0.530027
O O6 0.598173 0.865785 0.306144
O O7 0.420458 0.867098 0.405665
O O8 0.250000 0.235527 0.500000
O O9 0.372514 0.280749 0.344192
O O10 0.285271 0.179584 0.293329
O O11 0.274903 0.615482 0.118732
#
# Coordination Sequence:
#
# PCOD8296076 Si02
#       5
#    16  16  16  16  16
#     4  11  22  47  71 102 147 193 240 307 375 433
#     4  11  21  45  73  98 149 185 236 312 362 432
#     4   9  19  40  70  94 133 188 234 292 357 421
#     4  10  20  43  70 100 139 190 239 291 368 439
#     4  11  24  41  72 110 139 188 253 292 372 452
#
# _framework density 24.942343999999999
#
# number of rings (size 3 to 8) (size 9 to 14) (size 15 to 20)
#    0.000    1.600    4.000    1.200    0.000    0.800 
#   14.400   13.000    0.000    0.000    0.000    0.000 
#    0.000    0.000    0.000    0.000    0.000    0.000 
#
# Total GULP energy -495917.894658 kJ/mol
# GULP energy per Si atom -12397.947366 kJ/mol
# Density = 2.488557 g / cm^3
# Si number density = 24.942344 Si / 1000 Ang^3
#
#
#
# Elastic Constant Matrix: (Units=GPa)
#
#
# Indices 1 2 3 4 5 6 
#
# 1 114.8594 44.2444 35.2716 0.0000 0.0000 0.0000
# 2 44.2444 141.1737 34.8012 -0.0001 0.0000 0.0000
# 3 35.2716 34.8012 62.0056 -0.0003 -0.0001 0.0000
# 4 0.0000 -0.0001 -0.0003 38.7940 0.0000 0.0000
# 5 0.0000 0.0000 -0.0001 0.0000 41.6105 0.0000
# 6 0.0000 0.0000 0.0000 0.0000 0.0000 20.7691
#
#
#
# Elastic Compliance Matrix: (Units=1/GPa)
#
#
# Indices 1 2 3 4 5 6 
#
# 1 0.011126 -0.002236 -0.005074 0.000000 0.000000 0.000000
# 2 -0.002236 0.008670 -0.003594 0.000000 0.000000 0.000000
# 3 -0.005074 -0.003594 0.021031 0.000000 0.000000 0.000000
# 4 0.000000 0.000000 0.000000 0.025777 0.000000 0.000000
# 5 0.000000 0.000000 0.000000 0.000000 0.024032 0.000000
# 6 0.000000 0.000000 0.000000 0.000000 0.000000 0.048148
#
#
# Mechanical properties :
#
#
# Convention : Reuss Voigt Hill
#
# Bulk Modulus (GPa) = 52.57955 60.74141 56.66048
# Shear Modulus (GPa) = 29.95211 33.81616 31.88414
#
# Velocity S-wave (km/s) = 3.46909 3.68608 3.57923
# Velocity P-wave (km/s) = 6.09691 6.52088 6.31245
#
# Compressibility (1/GPa) = 0.01901880
#
# Stress axis : x y z
#
# Youngs Moduli (GPa) = 89.88168 115.33608 47.54858
#
# Poissons Ratio (x) = 0.25790 0.24125
# Poissons Ratio (y) = 0.20098 0.17090
# Poissons Ratio (z) = 0.45604 0.41455
#
# Static dielectric constant tensor:
#      x y z
#    x 4.060110 0.000000 0.000000 
#    y 0.000000 4.695820 0.000000 
#    z 0.000000 0.000000 4.741640 
# 
# 
# High freq. dielectric constant tensor:
#      x y z
#    x 1.970400 0.000000 0.000000 
#    y 0.000000 2.003190 0.000000 
#    z 0.000000 0.000000 2.007130 
# 
# From -- ./inp_files/10819.got.cif
#   From: 2010.03.12/outbox.cif.g09.slc.cpg/sg73_6_cif.got.tgz:10819.got - 2010.04.16 15:25:48.
