data_PCOD8296460
_publ_section_title
;
Structure prediction by ZEFSAII (Michael W. Deem and Ramdas Pophale) SiO2 
 PCOD8296460
Probable space group: I B C A 
;
_chemical_formula_sum "Si O2"
_cell_formula_units_Z 88
_cell_length_a 8.854576
_cell_length_b 23.566674
_cell_length_c 19.698178
_cell_angle_alpha 90.000000
_cell_angle_beta 90.000000
_cell_angle_gamma 90.000000
_cell_volume 4110.476046
_symmetry_space_group_name_H-M "I B C A "
_symmetry_group_IT_number 73
_symmetry_cell_setting 'orthorhombic'
loop_
_space_group_symop_operation_xyz
x,y,z
-x,1/2-y,z
x,-y,1/2-z
1/2-x,y,-z
-x,-y,-z
x,1/2+y,-z
-x,y,1/2+z
1/2+x,-y,z
1/2+x,1/2+y,1/2+z
1/2-x,-y,1/2+z
1/2+x,1/2-y,-z
-x,1/2+y,1/2-z
1/2-x,1/2-y,1/2-z
1/2+x,y,1/2-z
1/2-x,1/2+y,z
x,1/2-y,1/2+z
loop_
_atom_site_type_symbol
_atom_site_label
_atom_site_fract_x
_atom_site_fract_y
_atom_site_fract_z
Si Si1 0.797772 0.659672 0.681478
Si Si2 0.000000 0.750000 0.123485
Si Si3 0.540124 0.813751 0.688196
Si Si4 0.681929 0.566099 0.428574
Si Si5 0.724987 0.160447 0.078827
Si Si6 0.346236 0.960932 0.931725
O O1 0.862088 0.722649 0.665718
O O2 0.618062 0.654696 0.679358
O O3 0.862212 0.649916 0.757354
O O4 0.853950 0.614927 0.625919
O O5 0.076671 0.800268 0.081379
O O6 0.500000 0.750000 0.712016
O O7 0.631354 0.812837 0.617320
O O8 0.750000 0.590660 0.500000
O O9 0.792490 0.518775 0.393348
O O10 0.523463 0.536535 0.446742
O O11 0.693832 0.097307 0.108672
O O12 0.750000 0.153256 0.000000
O O13 0.250000 0.965274 0.000000
#
# Coordination Sequence:
#
# PCOD8296460 Si02
#       6
#    16   8  16  16  16  16
#     4  12  26  42  72  94 136 182 234 274 343 420
#     4  12  22  44  62 104 136 174 232 284 340 410
#     4  12  25  45  67  97 137 189 222 272 345 416
#     4  11  24  42  72 101 133 178 232 287 346 412
#     4  11  26  41  69 100 142 175 227 290 346 406
#     4  10  22  42  67  99 139 175 225 282 356 411
#
# _framework density 21.408712000000001
#
# number of rings (size 3 to 8) (size 9 to 14) (size 15 to 20)
#    0.000    0.727    4.545    3.818    8.909    0.727 
#    0.000    0.909    0.000    0.000    0.000    0.000 
#    0.000    0.000    0.000    0.000    0.000    0.000 
#
# Total GULP energy -545243.583928 kJ/mol
# GULP energy per Si atom -12391.899635 kJ/mol
# Density = 2.135999 g / cm^3
# Si number density = 21.408712 Si / 1000 Ang^3
#
#
#
# Elastic Constant Matrix: (Units=GPa)
#
#
# Indices 1 2 3 4 5 6 
#
# 1 151.9766 25.6851 45.2672 0.0000 0.0000 0.0000
# 2 25.6851 104.3419 39.8463 0.0000 0.0000 0.0000
# 3 45.2672 39.8463 97.4560 0.0001 0.0000 0.0000
# 4 0.0000 0.0000 0.0001 18.1837 0.0000 0.0000
# 5 0.0000 0.0000 0.0000 0.0000 23.6799 0.0000
# 6 0.0000 0.0000 0.0000 0.0000 0.0000 37.9286
#
#
#
# Elastic Compliance Matrix: (Units=1/GPa)
#
#
# Indices 1 2 3 4 5 6 
#
# 1 0.007671 -0.000625 -0.003307 0.000000 0.000000 0.000000
# 2 -0.000625 0.011408 -0.004374 0.000000 0.000000 0.000000
# 3 -0.003307 -0.004374 0.013586 0.000000 0.000000 0.000000
# 4 0.000000 0.000000 0.000000 0.054994 0.000000 0.000000
# 5 0.000000 0.000000 0.000000 0.000000 0.042230 0.000000
# 6 0.000000 0.000000 0.000000 0.000000 0.000000 0.026365
#
#
# Mechanical properties :
#
#
# Convention : Reuss Voigt Hill
#
# Bulk Modulus (GPa) = 62.29980 63.93019 63.11500
# Shear Modulus (GPa) = 28.05560 32.15684 30.10622
#
# Velocity S-wave (km/s) = 3.62398 3.87983 3.75408
# Velocity P-wave (km/s) = 6.83186 7.07088 6.95240
#
# Compressibility (1/GPa) = 0.01605142
#
# Stress axis : x y z
#
# Youngs Moduli (GPa) = 130.36549 87.65686 73.60724
#
# Poissons Ratio (x) = 0.05481 0.24344
# Poissons Ratio (y) = 0.08151 0.32195
# Poissons Ratio (z) = 0.43116 0.38341
#
# Static dielectric constant tensor:
#      x y z
#    x 4.100640 0.000000 0.000000 
#    y 0.000000 4.318080 0.000000 
#    z 0.000000 0.000000 3.506990 
# 
# 
# High freq. dielectric constant tensor:
#      x y z
#    x 1.864290 0.000000 0.000000 
#    y 0.000000 1.843330 0.000000 
#    z 0.000000 0.000000 1.807090 
# 
# From -- ./inp_files/24788.got.cif
#   From: 2010.03.12/outbox.cif.g09.slc.cpg/sg73_13_cif.got.tgz:24788.got - 2010.04.16 15:25:48.
