data_PCOD8296519
_publ_section_title
;
Structure prediction by ZEFSAII (Michael W. Deem and Ramdas Pophale) SiO2 
 PCOD8296519
Probable space group: I B C A 
;
_chemical_formula_sum "Si O2"
_cell_formula_units_Z 104
_cell_length_a 19.354874
_cell_length_b 17.710020
_cell_length_c 14.403955
_cell_angle_alpha 90.000000
_cell_angle_beta 90.000000
_cell_angle_gamma 90.000000
_cell_volume 4937.318637
_symmetry_space_group_name_H-M "I B C A "
_symmetry_group_IT_number 73
_symmetry_cell_setting 'orthorhombic'
loop_
_space_group_symop_operation_xyz
x,y,z
-x,1/2-y,z
x,-y,1/2-z
1/2-x,y,-z
-x,-y,-z
x,1/2+y,-z
-x,y,1/2+z
1/2+x,-y,z
1/2+x,1/2+y,1/2+z
1/2-x,-y,1/2+z
1/2+x,1/2-y,-z
-x,1/2+y,1/2-z
1/2-x,1/2-y,1/2-z
1/2+x,y,1/2-z
1/2-x,1/2+y,z
x,1/2-y,1/2+z
loop_
_atom_site_type_symbol
_atom_site_label
_atom_site_fract_x
_atom_site_fract_y
_atom_site_fract_z
Si Si1 0.489484 0.338354 0.573725
Si Si2 0.047973 0.410907 0.231840
Si Si3 0.619441 0.921663 0.407956
Si Si4 0.184116 0.173282 0.687369
Si Si5 0.674900 0.342665 0.769741
Si Si6 0.250000 0.133300 0.500000
Si Si7 0.077191 0.408114 0.596317
O O1 0.500000 0.250000 0.571283
O O2 0.465851 0.366043 0.674155
O O3 0.563170 0.370570 0.540378
O O4 0.431913 0.368730 0.502932
O O5 0.050740 0.500000 0.250000
O O6 0.120826 0.384866 0.187301
O O7 0.987824 0.387871 0.160952
O O8 0.628847 0.886490 0.305973
O O9 0.691012 0.922442 0.462879
O O10 0.584719 0.002729 0.407193
O O11 0.244163 0.140336 0.754418
O O12 0.159879 0.253007 0.729892
O O13 0.218182 0.183731 0.583986
O O14 0.649823 0.375327 0.867350
#
# Coordination Sequence:
#
# PCOD8296519 Si02
#       7
#    16  16  16  16  16   8  16
#     4  12  27  42  69 105 139 177 232 289 351 422
#     4  12  25  44  71 102 136 181 229 294 344 421
#     4  11  22  46  67  97 138 179 228 284 349 411
#     4  10  24  43  68  99 137 179 235 282 348 417
#     4  10  22  45  66  94 132 186 221 281 347 411
#     4  10  24  40  74  94 140 184 230 288 346 414
#     4  12  25  43  71 101 139 181 227 283 351 416
#
# _framework density 21.064064999999999
#
# number of rings (size 3 to 8) (size 9 to 14) (size 15 to 20)
#    0.000    0.923    3.077    2.769    6.462    2.462 
#    0.000    0.000    0.000    0.000    0.000    0.000 
#    0.000    0.000    0.000    0.000    0.000    0.000 
#
# Total GULP energy -644792.514038 kJ/mol
# GULP energy per Si atom -12399.856039 kJ/mol
# Density = 2.101612 g / cm^3
# Si number density = 21.064065 Si / 1000 Ang^3
#
#
#
# Elastic Constant Matrix: (Units=GPa)
#
#
# Indices 1 2 3 4 5 6 
#
# 1 111.1243 48.0559 50.2953 0.0000 0.0000 0.0000
# 2 48.0559 140.6882 49.3649 0.0000 0.0000 0.0000
# 3 50.2953 49.3649 114.4969 0.0000 0.0000 0.0000
# 4 0.0000 0.0000 0.0000 14.9775 0.0000 0.0000
# 5 0.0000 0.0000 0.0000 0.0000 28.9782 0.0000
# 6 0.0000 0.0000 0.0000 0.0000 0.0000 33.9082
#
#
#
# Elastic Compliance Matrix: (Units=1/GPa)
#
#
# Indices 1 2 3 4 5 6 
#
# 1 0.012018 -0.002654 -0.004135 0.000000 0.000000 0.000000
# 2 -0.002654 0.008961 -0.002698 0.000000 0.000000 0.000000
# 3 -0.004135 -0.002698 0.011713 0.000000 0.000000 0.000000
# 4 0.000000 0.000000 0.000000 0.066767 0.000000 0.000000
# 5 0.000000 0.000000 0.000000 0.000000 0.034509 0.000000
# 6 0.000000 0.000000 0.000000 0.000000 0.000000 0.029491
#
#
# Mechanical properties :
#
#
# Convention : Reuss Voigt Hill
#
# Bulk Modulus (GPa) = 72.89132 73.52684 73.20908
# Shear Modulus (GPa) = 26.73711 30.14567 28.44139
#
# Velocity S-wave (km/s) = 3.56662 3.78715 3.67854
# Velocity P-wave (km/s) = 7.18615 7.35564 7.27139
#
# Compressibility (1/GPa) = 0.01371905
#
# Stress axis : x y z
#
# Youngs Moduli (GPa) = 83.20670 111.59347 85.37334
#
# Poissons Ratio (x) = 0.29620 0.35301
# Poissons Ratio (y) = 0.22086 0.23030
# Poissons Ratio (z) = 0.34405 0.30103
#
# Static dielectric constant tensor:
#      x y z
#    x 4.045030 0.000000 0.000000 
#    y 0.000000 3.851620 0.000000 
#    z 0.000000 0.000000 3.759370 
# 
# 
# High freq. dielectric constant tensor:
#      x y z
#    x 1.840780 0.000000 0.000000 
#    y 0.000000 1.820860 0.000000 
#    z 0.000000 0.000000 1.829620 
# 
# From -- ./inp_files/18797.got.cif
#   From: 2010.03.12/outbox.cif.g09.slc.cpg/sg73_10_cif.got.tgz:18797.got - 2010.04.16 15:25:48.
