data_PCOD8296510
_publ_section_title
;
Structure prediction by ZEFSAII (Michael W. Deem and Ramdas Pophale) SiO2 
 PCOD8296510
Probable space group: I B C A 
;
_chemical_formula_sum "Si O2"
_cell_formula_units_Z 80
_cell_length_a 12.304673
_cell_length_b 12.919383
_cell_length_c 24.749869
_cell_angle_alpha 90.000000
_cell_angle_beta 90.000000
_cell_angle_gamma 90.000000
_cell_volume 3934.456559
_symmetry_space_group_name_H-M "I B C A "
_symmetry_group_IT_number 73
_symmetry_cell_setting 'orthorhombic'
loop_
_space_group_symop_operation_xyz
x,y,z
-x,1/2-y,z
x,-y,1/2-z
1/2-x,y,-z
-x,-y,-z
x,1/2+y,-z
-x,y,1/2+z
1/2+x,-y,z
1/2+x,1/2+y,1/2+z
1/2-x,-y,1/2+z
1/2+x,1/2-y,-z
-x,1/2+y,1/2-z
1/2-x,1/2-y,1/2-z
1/2+x,y,1/2-z
1/2-x,1/2+y,z
x,1/2-y,1/2+z
loop_
_atom_site_type_symbol
_atom_site_label
_atom_site_fract_x
_atom_site_fract_y
_atom_site_fract_z
Si Si1 0.372229 0.537062 0.097934
Si Si2 0.433749 0.152448 0.448753
Si Si3 0.000000 0.250000 0.238795
Si Si4 0.675641 0.753339 0.152389
Si Si5 0.250000 0.463640 0.000000
Si Si6 0.587504 0.674659 0.840333
O O1 0.484245 0.562235 0.067981
O O2 0.342506 0.625063 0.141126
O O3 0.273848 0.531048 0.053809
O O4 0.391369 0.431222 0.129325
O O5 0.500000 0.250000 0.472431
O O6 0.359069 0.186442 0.399013
O O7 0.355903 0.108534 0.494854
O O8 0.100634 0.285261 0.201747
O O9 0.039758 0.156854 0.279212
O O10 0.800153 0.736238 0.166171
O O11 0.500000 0.750000 0.871353
#
# Coordination Sequence:
#
# PCOD8296510 Si02
#       6
#    16  16   8  16   8  16
#     4  11  24  43  67  97 133 174 222 279 333 400
#     4  10  23  43  66  93 136 177 217 283 332 398
#     4  10  22  44  70  92 130 174 218 272 344 390
#     4  11  21  47  65  93 140 170 219 279 339 398
#     4  12  24  40  68  98 130 182 232 264 352 394
#     4  10  25  40  68 101 131 169 223 276 329 410
#
# _framework density 20.333176000000002
#
# number of rings (size 3 to 8) (size 9 to 14) (size 15 to 20)
#    0.600    0.800    5.000    1.200    2.800    4.800 
#    0.000    0.000    0.000    0.000    0.000    0.000 
#    0.000    0.000    0.000    0.000    0.000    0.000 
#
# Total GULP energy -495812.427411 kJ/mol
# GULP energy per Si atom -12395.310685 kJ/mol
# Density = 2.028690 g / cm^3
# Si number density = 20.333176 Si / 1000 Ang^3
#
#
#
# Elastic Constant Matrix: (Units=GPa)
#
#
# Indices 1 2 3 4 5 6 
#
# 1 158.3101 54.8138 34.5980 0.0000 0.0000 0.0000
# 2 54.8138 94.4451 40.4331 0.0000 0.0000 0.0000
# 3 34.5980 40.4331 74.7888 0.0000 0.0000 0.0000
# 4 0.0000 0.0000 0.0000 8.0458 0.0000 0.0000
# 5 0.0000 0.0000 0.0000 0.0000 40.0098 0.0000
# 6 0.0000 0.0000 0.0000 0.0000 0.0000 28.3711
#
#
#
# Elastic Compliance Matrix: (Units=1/GPa)
#
#
# Indices 1 2 3 4 5 6 
#
# 1 0.008042 -0.004001 -0.001558 0.000000 0.000000 0.000000
# 2 -0.004001 0.015767 -0.006673 0.000000 0.000000 0.000000
# 3 -0.001558 -0.006673 0.017699 0.000000 0.000000 0.000000
# 4 0.000000 0.000000 0.000000 0.124288 0.000000 0.000000
# 5 0.000000 0.000000 0.000000 0.000000 0.024994 0.000000
# 6 0.000000 0.000000 0.000000 0.000000 0.000000 0.035247
#
#
# Mechanical properties :
#
#
# Convention : Reuss Voigt Hill
#
# Bulk Modulus (GPa) = 58.66679 65.24820 61.95750
# Shear Modulus (GPa) = 19.51728 28.46530 23.99129
#
# Velocity S-wave (km/s) = 3.10154 3.74564 3.43871
# Velocity P-wave (km/s) = 6.46076 7.13201 6.80467
#
# Compressibility (1/GPa) = 0.01704542
#
# Stress axis : x y z
#
# Youngs Moduli (GPa) = 124.34168 63.42327 56.49932
#
# Poissons Ratio (x) = 0.25374 0.08800
# Poissons Ratio (y) = 0.49747 0.37704
# Poissons Ratio (z) = 0.19366 0.42325
#
# Static dielectric constant tensor:
#      x y z
#    x 4.061390 0.000000 0.000000 
#    y 0.000000 3.521710 0.000000 
#    z 0.000000 0.000000 3.631350 
# 
# 
# High freq. dielectric constant tensor:
#      x y z
#    x 1.814660 0.000000 0.000000 
#    y 0.000000 1.775740 0.000000 
#    z 0.000000 0.000000 1.790620 
# 
# From -- ./inp_files/33843.got.cif
#   From: 2010.03.12/outbox.cif.g09.slc.cpg/sg73_17_cif.got.tgz:33843.got - 2010.04.16 15:25:48.
