data_PCOD8296075
_publ_section_title
;
Structure prediction by ZEFSAII (Michael W. Deem and Ramdas Pophale) SiO2 
 PCOD8296075
Probable space group: I B C A 
;
_chemical_formula_sum "Si O2"
_cell_formula_units_Z 120
_cell_length_a 22.905403
_cell_length_b 8.309807
_cell_length_c 28.835448
_cell_angle_alpha 90.000000
_cell_angle_beta 90.000000
_cell_angle_gamma 90.000000
_cell_volume 5488.524126
_symmetry_space_group_name_H-M "I B C A "
_symmetry_group_IT_number 73
_symmetry_cell_setting 'orthorhombic'
loop_
_space_group_symop_operation_xyz
x,y,z
-x,1/2-y,z
x,-y,1/2-z
1/2-x,y,-z
-x,-y,-z
x,1/2+y,-z
-x,y,1/2+z
1/2+x,-y,z
1/2+x,1/2+y,1/2+z
1/2-x,-y,1/2+z
1/2+x,1/2-y,-z
-x,1/2+y,1/2-z
1/2-x,1/2-y,1/2-z
1/2+x,y,1/2-z
1/2-x,1/2+y,z
x,1/2-y,1/2+z
loop_
_atom_site_type_symbol
_atom_site_label
_atom_site_fract_x
_atom_site_fract_y
_atom_site_fract_z
Si Si1 0.306156 0.279410 0.622216
Si Si2 0.894132 0.838738 0.273330
Si Si3 0.624445 0.699708 0.552051
Si Si4 0.188219 0.122274 0.474393
Si Si5 0.500000 0.250000 0.416907
Si Si6 0.318346 0.345496 0.859351
Si Si7 0.588215 0.191128 0.179107
Si Si8 0.982351 0.988199 0.337064
O O1 0.303713 0.251781 0.566786
O O2 0.317608 0.463577 0.634136
O O3 0.245402 0.226592 0.643544
O O4 0.354677 0.169482 0.647468
O O5 0.848229 0.787390 0.312065
O O6 0.898522 0.702482 0.233957
O O7 0.869318 0.000000 0.250000
O O8 0.957755 0.873080 0.296304
O O9 0.640324 0.814835 0.509781
O O10 0.661325 0.537192 0.547441
O O11 0.553777 0.684018 0.551698
O O12 0.642933 0.776137 0.599992
O O13 0.250000 0.088871 0.500000
O O14 0.523079 0.398006 0.385899
O O15 0.555256 0.349567 0.160590
O O16 0.549844 0.030312 0.172710
#
# Coordination Sequence:
#
# PCOD8296075 Si02
#       8
#    16  16  16  16   8  16  16  16
#     4  12  24  43  73 100 142 181 233 288 353 413
#     4  10  20  43  67  98 144 186 228 282 339 400
#     4  12  26  46  71 106 138 181 230 297 357 424
#     4  12  26  46  75 103 137 184 241 294 355 435
#     4  12  24  44  72 106 146 176 228 294 360 424
#     4  12  24  44  70 100 142 187 228 289 351 410
#     4  10  22  43  69 103 136 191 235 284 336 412
#     4  10  21  40  71  95 138 184 234 279 338 409
#
# _framework density 21.863802
#
# number of rings (size 3 to 8) (size 9 to 14) (size 15 to 20)
#    0.000    0.800    5.333    2.800    0.000    4.267 
#    0.000    1.333    0.000    0.000    0.000    0.000 
#    0.000    0.000    0.000    0.000    0.000    0.000 
#
# Total GULP energy -744149.472509 kJ/mol
# GULP energy per Si atom -12402.491208 kJ/mol
# Density = 2.181404 g / cm^3
# Si number density = 21.863802 Si / 1000 Ang^3
#
#
#
# Elastic Constant Matrix: (Units=GPa)
#
#
# Indices 1 2 3 4 5 6 
#
# 1 148.9179 29.8781 63.5256 0.0000 0.0000 0.0000
# 2 29.8781 52.4138 35.1978 0.0000 0.0000 0.0000
# 3 63.5256 35.1978 116.4102 0.0000 0.0000 0.0000
# 4 0.0000 0.0000 0.0000 -10.9370 0.0000 0.0000
# 5 0.0000 0.0000 0.0000 0.0000 43.7044 0.0000
# 6 0.0000 0.0000 0.0000 0.0000 0.0000 406.0168
#
#
#
# Elastic Compliance Matrix: (Units=1/GPa)
#
#
# Indices 1 2 3 4 5 6 
#
# 1 0.008967 -0.002290 -0.004201 0.000000 0.000000 0.000000
# 2 -0.002290 0.024525 -0.006165 0.000000 0.000000 0.000000
# 3 -0.004201 -0.006165 0.012747 0.000000 0.000000 0.000000
# 4 0.000000 0.000000 0.000000 -0.091433 0.000000 0.000000
# 5 0.000000 0.000000 0.000000 0.000000 0.022881 0.000000
# 6 0.000000 0.000000 0.000000 0.000000 0.000000 0.002463
#
#
# Mechanical properties :
#
#
# Convention : Reuss Voigt Hill
#
# Bulk Modulus (GPa) = 47.78904 63.88277 55.83590
# Shear Modulus (GPa) = 402.01157 100.36619 251.18888
#
# Velocity S-wave (km/s) = 13.57461 6.78269 10.73021
# Velocity P-wave (km/s) = 16.35844 9.51954 13.38320
#
# Compressibility (1/GPa) = 0.02092530
#
# Stress axis : x y z
#
# Youngs Moduli (GPa) = 111.52599 40.77486 78.45151
#
# Poissons Ratio (x) = 0.09339 0.32954
# Poissons Ratio (y) = 0.25545 0.48369
# Poissons Ratio (z) = 0.46847 0.25139
#
# Static dielectric constant tensor:
#      x y z
#    x 4.688320 0.000000 0.000000 
#    y 0.000000 3.927060 0.000000 
#    z 0.000000 0.000000 4.125430 
# 
# 
# High freq. dielectric constant tensor:
#      x y z
#    x 1.869530 0.000000 0.000000 
#    y 0.000000 1.858500 0.000000 
#    z 0.000000 0.000000 1.862070 
# 
# From -- ./inp_files/32899.got.cif
#   From: 2010.03.12/outbox.cif.g09.slc.cpg/sg73_17_cif.got.tgz:32899.got - 2010.04.16 15:25:48.
