data_PCOD8296195
_publ_section_title
;
Structure prediction by ZEFSAII (Michael W. Deem and Ramdas Pophale) SiO2 
 PCOD8296195
Probable space group: I B C A 
;
_chemical_formula_sum "Si O2"
_cell_formula_units_Z 80
_cell_length_a 25.078378
_cell_length_b 16.292916
_cell_length_c 9.935343
_cell_angle_alpha 90.000000
_cell_angle_beta 90.000000
_cell_angle_gamma 90.000000
_cell_volume 4059.580218
_symmetry_space_group_name_H-M "I B C A "
_symmetry_group_IT_number 73
_symmetry_cell_setting 'orthorhombic'
loop_
_space_group_symop_operation_xyz
x,y,z
-x,1/2-y,z
x,-y,1/2-z
1/2-x,y,-z
-x,-y,-z
x,1/2+y,-z
-x,y,1/2+z
1/2+x,-y,z
1/2+x,1/2+y,1/2+z
1/2-x,-y,1/2+z
1/2+x,1/2-y,-z
-x,1/2+y,1/2-z
1/2-x,1/2-y,1/2-z
1/2+x,y,1/2-z
1/2-x,1/2+y,z
x,1/2-y,1/2+z
loop_
_atom_site_type_symbol
_atom_site_label
_atom_site_fract_x
_atom_site_fract_y
_atom_site_fract_z
Si Si1 0.968159 0.093751 0.274377
Si Si2 0.854936 0.342182 0.822863
Si Si3 0.467862 0.667846 0.492611
Si Si4 0.750000 0.589964 0.000000
Si Si5 0.346579 0.291734 0.970026
Si Si6 0.210884 0.500000 0.250000
O O1 0.917505 0.140923 0.335718
O O2 0.016590 0.101112 0.379466
O O3 0.952848 0.000000 0.250000
O O4 0.986864 0.135581 0.136603
O O5 0.835156 0.295185 0.957194
O O6 0.843611 0.284380 0.692179
O O7 0.825358 0.428377 0.811416
O O8 0.500000 0.750000 0.458420
O O9 0.404396 0.676556 0.484560
O O10 0.697273 0.643933 0.980741
O O11 0.752020 0.533586 0.868224
#
# Coordination Sequence:
#
# PCOD8296195 Si02
#       6
#    16  16  16   8  16   8
#     4  11  22  38  58  89 125 158 196 247 309 357
#     4  10  21  39  63  87 119 159 198 250 304 357
#     4  11  22  38  62  90 120 161 204 247 295 363
#     4  10  24  44  62  90 122 160 204 250 300 358
#     4  10  23  39  62  89 120 156 209 249 295 361
#     4  10  22  42  64  86 122 160 198 248 308 354
#
# _framework density 19.706472000000002
#
# number of rings (size 3 to 8) (size 9 to 14) (size 15 to 20)
#    0.000    1.600    3.000    1.200    2.800    5.600 
#    1.800    0.000    0.000    0.000    0.000    0.000 
#    0.000    0.000    0.000    0.000    0.000    0.000 
#
# Total GULP energy -496102.508305 kJ/mol
# GULP energy per Si atom -12402.562708 kJ/mol
# Density = 1.966162 g / cm^3
# Si number density = 19.706472 Si / 1000 Ang^3
#
#
#
# Elastic Constant Matrix: (Units=GPa)
#
#
# Indices 1 2 3 4 5 6 
#
# 1 101.1088 30.0969 39.2888 0.0000 0.0000 0.0000
# 2 30.0969 99.6291 40.0287 0.0000 0.0000 0.0000
# 3 39.2888 40.0287 55.6893 0.0000 0.0000 0.0000
# 4 0.0000 0.0000 0.0000 35.5048 0.0000 0.0000
# 5 0.0000 0.0000 0.0000 0.0000 28.8786 0.0000
# 6 0.0000 0.0000 0.0000 0.0000 0.0000 17.4157
#
#
#
# Elastic Compliance Matrix: (Units=1/GPa)
#
#
# Indices 1 2 3 4 5 6 
#
# 1 0.013635 -0.000357 -0.009363 0.000000 0.000000 0.000000
# 2 -0.000357 0.014122 -0.009899 0.000000 0.000000 0.000000
# 3 -0.009363 -0.009899 0.031677 0.000000 0.000000 0.000000
# 4 0.000000 0.000000 0.000000 0.028165 0.000000 0.000000
# 5 0.000000 0.000000 0.000000 0.000000 0.034628 0.000000
# 6 0.000000 0.000000 0.000000 0.000000 0.000000 0.057420
#
#
# Mechanical properties :
#
#
# Convention : Reuss Voigt Hill
#
# Bulk Modulus (GPa) = 49.51242 52.80622 51.15932
# Shear Modulus (GPa) = 22.16149 26.16065 24.16107
#
# Velocity S-wave (km/s) = 3.35711 3.64746 3.50529
# Velocity P-wave (km/s) = 6.34085 6.67781 6.51151
#
# Compressibility (1/GPa) = 0.02019695
#
# Stress axis : x y z
#
# Youngs Moduli (GPa) = 73.34182 70.81001 31.56839
#
# Poissons Ratio (x) = 0.02530 0.29556
# Poissons Ratio (y) = 0.02620 0.31249
# Poissons Ratio (z) = 0.68667 0.70094
#
# Static dielectric constant tensor:
#      x y z
#    x 3.545050 0.000000 0.000000 
#    y 0.000000 3.571600 0.000000 
#    z 0.000000 0.000000 3.729470 
# 
# 
# High freq. dielectric constant tensor:
#      x y z
#    x 1.767650 0.000000 0.000000 
#    y 0.000000 1.767060 0.000000 
#    z 0.000000 0.000000 1.774390 
# 
# From -- ./inp_files/5608.got.cif
#   From: 2010.03.12/outbox.cif.g09.slc.cpg/sg73_3_cif.got.tgz:5608.got - 2010.04.16 15:25:48.
