data_PCOD8296023
_publ_section_title
;
Structure prediction by ZEFSAII (Michael W. Deem and Ramdas Pophale) SiO2 
 PCOD8296023
Probable space group: I B C A 
;
_chemical_formula_sum "Si O2"
_cell_formula_units_Z 112
_cell_length_a 14.533656
_cell_length_b 14.501889
_cell_length_c 25.815019
_cell_angle_alpha 90.000000
_cell_angle_beta 90.000000
_cell_angle_gamma 90.000000
_cell_volume 5440.914511
_symmetry_space_group_name_H-M "I B C A "
_symmetry_group_IT_number 73
_symmetry_cell_setting 'orthorhombic'
loop_
_space_group_symop_operation_xyz
x,y,z
-x,1/2-y,z
x,-y,1/2-z
1/2-x,y,-z
-x,-y,-z
x,1/2+y,-z
-x,y,1/2+z
1/2+x,-y,z
1/2+x,1/2+y,1/2+z
1/2-x,-y,1/2+z
1/2+x,1/2-y,-z
-x,1/2+y,1/2-z
1/2-x,1/2-y,1/2-z
1/2+x,y,1/2-z
1/2-x,1/2+y,z
x,1/2-y,1/2+z
loop_
_atom_site_type_symbol
_atom_site_label
_atom_site_fract_x
_atom_site_fract_y
_atom_site_fract_z
Si Si1 0.553342 0.045811 0.199548
Si Si2 0.244063 0.640515 0.596728
Si Si3 0.378259 0.876829 0.350647
Si Si4 0.395834 0.272473 0.431638
Si Si5 0.314774 0.708436 0.295109
Si Si6 0.601874 0.774662 0.949206
Si Si7 0.692323 0.446491 0.872198
O O1 0.469764 0.067383 0.161230
O O2 0.615881 0.128358 0.222581
O O3 0.508746 0.000000 0.250000
O O4 0.613848 0.975336 0.167144
O O5 0.341922 0.675403 0.574849
O O6 0.245627 0.669906 0.657220
O O7 0.164814 0.687055 0.562712
O O8 0.224131 0.531214 0.590395
O O9 0.384322 0.785170 0.316521
O O10 0.369093 0.859658 0.412597
O O11 0.281803 0.925566 0.336751
O O12 0.500000 0.250000 0.413376
O O13 0.392916 0.304254 0.491268
O O14 0.345535 0.355703 0.401585
O O15 0.250000 0.750000 0.250000
O O16 0.500000 0.750000 0.931789
#
# Coordination Sequence:
#
# PCOD8296023 Si02
#       7
#    16  16  16  16  16  16  16
#     4  11  25  40  62 100 131 170 230 276 332 409
#     4  10  22  41  63  97 132 172 220 274 335 400
#     4  11  22  42  68  90 131 179 221 267 343 396
#     4  11  24  44  67  98 135 178 224 281 341 396
#     4  10  20  40  67  91 127 173 216 270 340 392
#     4  10  20  42  67  91 129 172 222 276 329 409
#     4  11  24  43  66  95 137 173 221 286 332 402
#
# _framework density 20.584776000000002
#
# number of rings (size 3 to 8) (size 9 to 14) (size 15 to 20)
#    0.000    1.429    2.857    4.286    2.000    2.857 
#    5.143    2.143    0.000    0.000    0.000    0.000 
#    0.000    0.000    0.000    0.000    0.000    0.000 
#
# Total GULP energy -694027.362677 kJ/mol
# GULP energy per Si atom -12393.345762 kJ/mol
# Density = 2.053792 g / cm^3
# Si number density = 20.584776 Si / 1000 Ang^3
#
#
#
# Elastic Constant Matrix: (Units=GPa)
#
#
# Indices 1 2 3 4 5 6 
#
# 1 137.3499 43.4608 33.1125 0.0000 0.0000 0.0000
# 2 43.4608 96.9165 27.9382 0.0000 0.0000 0.0000
# 3 33.1125 27.9382 73.7447 0.0000 0.0000 0.0000
# 4 0.0000 0.0000 0.0000 19.3308 0.0000 0.0000
# 5 0.0000 0.0000 0.0000 0.0000 32.9450 0.0000
# 6 0.0000 0.0000 0.0000 0.0000 0.0000 34.8085
#
#
#
# Elastic Compliance Matrix: (Units=1/GPa)
#
#
# Indices 1 2 3 4 5 6 
#
# 1 0.008976 -0.003214 -0.002813 0.000000 0.000000 0.000000
# 2 -0.003214 0.012734 -0.003381 0.000000 0.000000 0.000000
# 3 -0.002813 -0.003381 0.016104 0.000000 0.000000 0.000000
# 4 0.000000 0.000000 0.000000 0.051731 0.000000 0.000000
# 5 0.000000 0.000000 0.000000 0.000000 0.030354 0.000000
# 6 0.000000 0.000000 0.000000 0.000000 0.000000 0.028729
#
#
# Mechanical properties :
#
#
# Convention : Reuss Voigt Hill
#
# Bulk Modulus (GPa) = 52.63635 57.44823 55.04229
# Shear Modulus (GPa) = 28.77270 30.98351 29.87810
#
# Velocity S-wave (km/s) = 3.74273 3.88386 3.81394
# Velocity P-wave (km/s) = 6.65608 6.93406 6.79649
#
# Compressibility (1/GPa) = 0.01899828
#
# Stress axis : x y z
#
# Youngs Moduli (GPa) = 111.41065 78.52842 62.09602
#
# Poissons Ratio (x) = 0.25241 0.17465
# Poissons Ratio (y) = 0.35811 0.20995
# Poissons Ratio (z) = 0.31335 0.26551
#
# Static dielectric constant tensor:
#      x y z
#    x 3.871580 0.000000 0.000000 
#    y 0.000000 3.829020 0.000000 
#    z 0.000000 0.000000 3.646950 
# 
# 
# High freq. dielectric constant tensor:
#      x y z
#    x 1.819900 0.000000 0.000000 
#    y 0.000000 1.801800 0.000000 
#    z 0.000000 0.000000 1.797590 
# 
# From -- ./inp_files/32178.got.cif
#   From: 2010.03.12/outbox.cif.g09.slc.cpg/sg73_17_cif.got.tgz:32178.got - 2010.04.16 15:25:48.
