data_PCOD8296845
_publ_section_title
;
Structure prediction by ZEFSAII (Michael W. Deem and Ramdas Pophale) SiO2 
 PCOD8296845
Probable space group: I B C A 
;
_chemical_formula_sum "Si O2"
_cell_formula_units_Z 96
_cell_length_a 12.927938
_cell_length_b 14.712747
_cell_length_c 22.335596
_cell_angle_alpha 90.000000
_cell_angle_beta 90.000000
_cell_angle_gamma 90.000000
_cell_volume 4248.352781
_symmetry_space_group_name_H-M "I B C A "
_symmetry_group_IT_number 73
_symmetry_cell_setting 'orthorhombic'
loop_
_space_group_symop_operation_xyz
x,y,z
-x,1/2-y,z
x,-y,1/2-z
1/2-x,y,-z
-x,-y,-z
x,1/2+y,-z
-x,y,1/2+z
1/2+x,-y,z
1/2+x,1/2+y,1/2+z
1/2-x,-y,1/2+z
1/2+x,1/2-y,-z
-x,1/2+y,1/2-z
1/2-x,1/2-y,1/2-z
1/2+x,y,1/2-z
1/2-x,1/2+y,z
x,1/2-y,1/2+z
loop_
_atom_site_type_symbol
_atom_site_label
_atom_site_fract_x
_atom_site_fract_y
_atom_site_fract_z
Si Si1 0.522675 0.655926 0.604343
Si Si2 0.109109 0.603311 0.108533
Si Si3 0.772578 0.237026 0.570523
Si Si4 0.553024 0.517951 0.819044
Si Si5 0.762093 0.433917 0.403190
Si Si6 0.053699 0.592676 0.513438
O O1 0.500000 0.750000 0.639492
O O2 0.636950 0.662863 0.576723
O O3 0.513140 0.572961 0.648673
O O4 0.442386 0.651637 0.547602
O O5 0.180940 0.691313 0.109745
O O6 0.174286 0.511762 0.090523
O O7 0.019376 0.635779 0.063242
O O8 0.044007 0.586633 0.170239
O O9 0.750000 0.247668 0.500000
O O10 0.791556 0.334470 0.603354
O O11 0.571749 0.500000 0.750000
O O12 0.662681 0.548398 0.846533
O O13 0.830722 0.426058 0.463613
O O14 0.000000 0.500000 0.500000
#
# Coordination Sequence:
#
# PCOD8296845 Si02
#       6
#    16  16  16  16  16  16
#     4  12  23  42  63  99 135 170 225 273 335 415
#     4  11  23  42  65  97 137 171 224 275 341 409
#     4  12  24  36  67 106 138 172 211 273 352 429
#     4  11  26  48  69  88 130 186 234 288 335 387
#     4  11  25  42  67  99 139 177 221 275 346 406
#     4  11  21  37  63  95 138 173 205 268 341 414
#
# _framework density 22.596993000000001
#
# number of rings (size 3 to 8) (size 9 to 14) (size 15 to 20)
#    0.000    0.667    6.667    2.000    2.333    2.667 
#    3.000    0.833    0.000    0.000    0.000    0.000 
#    0.000    0.000    0.000    0.000    0.000    0.000 
#
# Total GULP energy -594699.928465 kJ/mol
# GULP energy per Si atom -12389.581843 kJ/mol
# Density = 2.254556 g / cm^3
# Si number density = 22.596993 Si / 1000 Ang^3
#
#
#
# Elastic Constant Matrix: (Units=GPa)
#
#
# Indices 1 2 3 4 5 6 
#
# 1 102.9351 11.6366 44.5020 0.0000 0.0000 0.0000
# 2 11.6366 76.6453 29.0382 0.0000 0.0000 0.0000
# 3 44.5020 29.0382 126.0007 0.0000 0.0000 0.0000
# 4 0.0000 0.0000 0.0000 17.2837 0.0000 0.0000
# 5 0.0000 0.0000 0.0000 0.0000 18.1991 0.0000
# 6 0.0000 0.0000 0.0000 0.0000 0.0000 42.9523
#
#
#
# Elastic Compliance Matrix: (Units=1/GPa)
#
#
# Indices 1 2 3 4 5 6 
#
# 1 0.011469 -0.000226 -0.003999 0.000000 0.000000 0.000000
# 2 -0.000226 0.014300 -0.003216 0.000000 0.000000 0.000000
# 3 -0.003999 -0.003216 0.010090 0.000000 0.000000 0.000000
# 4 0.000000 0.000000 0.000000 0.057858 0.000000 0.000000
# 5 0.000000 0.000000 0.000000 0.000000 0.054948 0.000000
# 6 0.000000 0.000000 0.000000 0.000000 0.000000 0.023282
#
#
# Mechanical properties :
#
#
# Convention : Reuss Voigt Hill
#
# Bulk Modulus (GPa) = 47.66991 52.88165 50.27578
# Shear Modulus (GPa) = 25.79717 30.38064 28.08890
#
# Velocity S-wave (km/s) = 3.38245 3.67066 3.52950
# Velocity P-wave (km/s) = 6.03292 6.43567 6.23755
#
# Compressibility (1/GPa) = 0.02097759
#
# Stress axis : x y z
#
# Youngs Moduli (GPa) = 87.19023 69.93131 99.11002
#
# Poissons Ratio (x) = 0.01583 0.39630
# Poissons Ratio (y) = 0.01974 0.31870
# Poissons Ratio (z) = 0.34864 0.22487
#
# Static dielectric constant tensor:
#      x y z
#    x 4.064910 0.000000 0.000000 
#    y 0.000000 6.498350 0.000000 
#    z 0.000000 0.000000 2.666410 
# 
# 
# High freq. dielectric constant tensor:
#      x y z
#    x 1.932370 0.000000 0.000000 
#    y 0.000000 1.902110 0.000000 
#    z 0.000000 0.000000 1.829030 
# 
# From -- ./inp_files/25970.got.cif
#   From: 2010.03.12/outbox.cif.g09.slc.cpg/sg73_13_cif.got.tgz:25970.got - 2010.04.16 15:25:48.
