data_PCOD8296471
_publ_section_title
;
Structure prediction by ZEFSAII (Michael W. Deem and Ramdas Pophale) SiO2 
 PCOD8296471
Probable space group: I B C A 
;
_chemical_formula_sum "Si O2"
_cell_formula_units_Z 112
_cell_length_a 30.924775
_cell_length_b 14.800798
_cell_length_c 10.695085
_cell_angle_alpha 90.000000
_cell_angle_beta 90.000000
_cell_angle_gamma 90.000000
_cell_volume 4895.261772
_symmetry_space_group_name_H-M "I B C A "
_symmetry_group_IT_number 73
_symmetry_cell_setting 'orthorhombic'
loop_
_space_group_symop_operation_xyz
x,y,z
-x,1/2-y,z
x,-y,1/2-z
1/2-x,y,-z
-x,-y,-z
x,1/2+y,-z
-x,y,1/2+z
1/2+x,-y,z
1/2+x,1/2+y,1/2+z
1/2-x,-y,1/2+z
1/2+x,1/2-y,-z
-x,1/2+y,1/2-z
1/2-x,1/2-y,1/2-z
1/2+x,y,1/2-z
1/2-x,1/2+y,z
x,1/2-y,1/2+z
loop_
_atom_site_type_symbol
_atom_site_label
_atom_site_fract_x
_atom_site_fract_y
_atom_site_fract_z
Si Si1 0.973353 0.387717 0.612433
Si Si2 0.030877 0.098757 0.886812
Si Si3 0.882462 0.808895 0.446680
Si Si4 0.227602 0.647798 0.630445
Si Si5 0.188611 0.326593 0.259211
Si Si6 0.124246 0.381256 0.453099
Si Si7 0.354720 0.955252 0.880152
O O1 0.992304 0.375850 0.754355
O O2 0.965523 0.492582 0.588345
O O3 0.929507 0.330992 0.606265
O O4 0.006592 0.353608 0.504475
O O5 0.080257 0.131145 0.874372
O O6 0.843316 0.838063 0.357953
O O7 0.875897 0.701827 0.451812
O O8 0.876823 0.859070 0.582136
O O9 0.250000 0.679105 0.500000
O O10 0.197384 0.724951 0.692079
O O11 0.266111 0.625499 0.726471
O O12 0.197349 0.559171 0.615874
O O13 0.166894 0.381763 0.369723
O O14 0.126479 0.476744 0.518951
O O15 0.369571 0.000000 0.750000
#
# Coordination Sequence:
#
# PCOD8296471 Si02
#       7
#    16  16  16  16  16  16  16
#     4  10  22  44  70 102 145 181 238 305 368 438
#     4  10  22  42  71 105 137 187 240 297 366 440
#     4  12  24  47  72 101 147 188 236 309 364 437
#     4  11  23  45  71 107 148 191 242 300 372 424
#     4  11  23  44  76 101 144 190 240 303 357 438
#     4  12  25  43  75 106 137 196 243 291 370 438
#     4  12  27  44  67 106 146 189 245 298 365 439
#
# _framework density 22.879266999999999
#
# number of rings (size 3 to 8) (size 9 to 14) (size 15 to 20)
#    0.000    0.857    5.714    0.857    0.000    4.571 
#    0.000    1.429    0.000    0.000    0.000    0.000 
#    0.000    0.000    0.000    0.000    0.000    0.000 
#
# Total GULP energy -694000.620817 kJ/mol
# GULP energy per Si atom -12392.868229 kJ/mol
# Density = 2.282719 g / cm^3
# Si number density = 22.879267 Si / 1000 Ang^3
#
#
#
# Elastic Constant Matrix: (Units=GPa)
#
#
# Indices 1 2 3 4 5 6 
#
# 1 116.8768 21.7747 55.0563 0.0000 0.0000 0.0000
# 2 21.7747 51.9021 14.1384 0.0000 0.0000 0.0000
# 3 55.0563 14.1384 127.2204 0.0000 0.0000 0.0000
# 4 0.0000 0.0000 0.0000 9.8926 0.0000 0.0000
# 5 0.0000 0.0000 0.0000 0.0000 41.6374 0.0000
# 6 0.0000 0.0000 0.0000 0.0000 0.0000 35.5024
#
#
#
# Elastic Compliance Matrix: (Units=1/GPa)
#
#
# Indices 1 2 3 4 5 6 
#
# 1 0.011340 -0.003528 -0.004516 0.000000 0.000000 0.000000
# 2 -0.003528 0.020966 -0.000803 0.000000 0.000000 0.000000
# 3 -0.004516 -0.000803 0.009904 0.000000 0.000000 0.000000
# 4 0.000000 0.000000 0.000000 0.101086 0.000000 0.000000
# 5 0.000000 0.000000 0.000000 0.000000 0.024017 0.000000
# 6 0.000000 0.000000 0.000000 0.000000 0.000000 0.028167
#
#
# Mechanical properties :
#
#
# Convention : Reuss Voigt Hill
#
# Bulk Modulus (GPa) = 40.78835 53.10423 46.94629
# Shear Modulus (GPa) = 22.58914 31.07513 26.83214
#
# Velocity S-wave (km/s) = 3.14557 3.68940 3.42829
# Velocity P-wave (km/s) = 5.57308 6.43506 6.01952
#
# Compressibility (1/GPa) = 0.02451681
#
# Stress axis : x y z
#
# Youngs Moduli (GPa) = 88.18044 47.69663 100.97064
#
# Poissons Ratio (x) = 0.16825 0.45595
# Poissons Ratio (y) = 0.31106 0.08112
# Poissons Ratio (z) = 0.39819 0.03832
#
# Static dielectric constant tensor:
#      x y z
#    x 4.226820 0.000000 0.000000 
#    y 0.000000 3.919850 0.000000 
#    z 0.000000 0.000000 4.280680 
# 
# 
# High freq. dielectric constant tensor:
#      x y z
#    x 1.908250 0.000000 0.000000 
#    y 0.000000 1.886760 0.000000 
#    z 0.000000 0.000000 1.909050 
# 
# From -- ./inp_files/14803.got.cif
#   From: 2010.03.12/outbox.cif.g09.slc.cpg/sg73_8_cif.got.tgz:14803.got - 2010.04.16 15:25:48.
