data_PCOD8296813
_publ_section_title
;
Structure prediction by ZEFSAII (Michael W. Deem and Ramdas Pophale) SiO2 
 PCOD8296813
Probable space group: I B C A 
;
_chemical_formula_sum "Si O2"
_cell_formula_units_Z 72
_cell_length_a 17.275903
_cell_length_b 19.915844
_cell_length_c 8.156707
_cell_angle_alpha 90.000000
_cell_angle_beta 90.000000
_cell_angle_gamma 90.000000
_cell_volume 2806.430780
_symmetry_space_group_name_H-M "I B C A "
_symmetry_group_IT_number 73
_symmetry_cell_setting 'orthorhombic'
loop_
_space_group_symop_operation_xyz
x,y,z
-x,1/2-y,z
x,-y,1/2-z
1/2-x,y,-z
-x,-y,-z
x,1/2+y,-z
-x,y,1/2+z
1/2+x,-y,z
1/2+x,1/2+y,1/2+z
1/2-x,-y,1/2+z
1/2+x,1/2-y,-z
-x,1/2+y,1/2-z
1/2-x,1/2-y,1/2-z
1/2+x,y,1/2-z
1/2-x,1/2+y,z
x,1/2-y,1/2+z
loop_
_atom_site_type_symbol
_atom_site_label
_atom_site_fract_x
_atom_site_fract_y
_atom_site_fract_z
Si Si1 0.259028 0.930520 0.691698
Si Si2 0.187244 0.300601 0.184535
Si Si3 0.948933 0.500000 0.750000
Si Si4 0.084731 0.778413 0.534330
Si Si5 0.918056 0.924503 0.926479
O O1 0.250000 0.909604 0.500000
O O2 0.225521 0.874540 0.815566
O O3 0.351380 0.942413 0.705127
O O4 0.218408 0.000000 0.750000
O O5 0.250000 0.250000 0.250000
O O6 0.153592 0.275216 0.010815
O O7 0.107717 0.302012 0.285688
O O8 0.000334 0.551612 0.855304
O O9 0.901359 0.543682 0.611352
O O10 0.082852 0.843846 0.421205
O O11 0.000000 0.750000 0.542337
#
# Coordination Sequence:
#
# PCOD8296813 Si02
#       5
#    16  16   8  16  16
#     4  12  26  47  73 106 148 195 256 311 381 453
#     4  12  25  50  73 106 149 195 250 319 370 459
#     4  10  26  46  74 106 156 190 238 312 392 450
#     4  12  28  46  75 107 148 196 255 310 382 451
#     4  11  24  48  72 108 145 196 245 307 371 471
#
# _framework density 25.655363000000001
#
# number of rings (size 3 to 8) (size 9 to 14) (size 15 to 20)
#    0.000    0.444    5.556    1.333    7.778    1.778 
#    4.000    0.000    0.000    0.000    0.000    0.000 
#    0.000    0.000    0.000    0.000    0.000    0.000 
#
# Total GULP energy -446090.164642 kJ/mol
# GULP energy per Si atom -12391.393462 kJ/mol
# Density = 2.559697 g / cm^3
# Si number density = 25.655363 Si / 1000 Ang^3
#
#
#
# Elastic Constant Matrix: (Units=GPa)
#
#
# Indices 1 2 3 4 5 6 
#
# 1 98.7864 48.4003 29.6529 0.0000 0.0000 0.0000
# 2 48.4003 188.7133 30.6396 0.0000 0.0000 0.0000
# 3 29.6529 30.6396 80.5693 0.0000 0.0000 0.0000
# 4 0.0000 0.0000 0.0000 32.9335 0.0000 0.0000
# 5 0.0000 0.0000 0.0000 0.0000 37.7153 0.0000
# 6 0.0000 0.0000 0.0000 0.0000 0.0000 40.1496
#
#
#
# Elastic Compliance Matrix: (Units=1/GPa)
#
#
# Indices 1 2 3 4 5 6 
#
# 1 0.012486 -0.002618 -0.003600 0.000000 0.000000 0.000000
# 2 -0.002618 0.006197 -0.001393 0.000000 0.000000 0.000000
# 3 -0.003600 -0.001393 0.014266 0.000000 0.000000 0.000000
# 4 0.000000 0.000000 0.000000 0.030364 0.000000 0.000000
# 5 0.000000 0.000000 0.000000 0.000000 0.026514 0.000000
# 6 0.000000 0.000000 0.000000 0.000000 0.000000 0.024907
#
#
# Mechanical properties :
#
#
# Convention : Reuss Voigt Hill
#
# Bulk Modulus (GPa) = 56.40947 65.05050 60.72999
# Shear Modulus (GPa) = 36.80117 39.45142 38.12630
#
# Velocity S-wave (km/s) = 3.79151 3.92566 3.85917
# Velocity P-wave (km/s) = 6.41892 6.77926 6.60155
#
# Compressibility (1/GPa) = 0.01772752
#
# Stress axis : x y z
#
# Youngs Moduli (GPa) = 80.08933 161.37780 70.09514
#
# Poissons Ratio (x) = 0.42247 0.25233
# Poissons Ratio (y) = 0.20967 0.09764
# Poissons Ratio (z) = 0.28831 0.22480
#
# Static dielectric constant tensor:
#      x y z
#    x 4.881010 0.000000 0.000000 
#    y 0.000000 4.724080 0.000000 
#    z 0.000000 0.000000 4.906970 
# 
# 
# High freq. dielectric constant tensor:
#      x y z
#    x 2.049090 0.000000 0.000000 
#    y 0.000000 2.033270 0.000000 
#    z 0.000000 0.000000 2.010000 
# 
# From -- ./inp_files/5357.got.cif
#   From: 2010.03.12/outbox.cif.g09.slc.cpg/sg73_3_cif.got.tgz:5357.got - 2010.04.16 15:25:48.
