data_PCOD8296373
_publ_section_title
;
Structure prediction by ZEFSAII (Michael W. Deem and Ramdas Pophale) SiO2 
 PCOD8296373
Probable space group: I B C A 
;
_chemical_formula_sum "Si O2"
_cell_formula_units_Z 72
_cell_length_a 32.949893
_cell_length_b 23.449679
_cell_length_c 5.046021
_cell_angle_alpha 90.000000
_cell_angle_beta 90.000000
_cell_angle_gamma 90.000000
_cell_volume 3898.880859
_symmetry_space_group_name_H-M "I B C A "
_symmetry_group_IT_number 73
_symmetry_cell_setting 'orthorhombic'
loop_
_space_group_symop_operation_xyz
x,y,z
-x,1/2-y,z
x,-y,1/2-z
1/2-x,y,-z
-x,-y,-z
x,1/2+y,-z
-x,y,1/2+z
1/2+x,-y,z
1/2+x,1/2+y,1/2+z
1/2-x,-y,1/2+z
1/2+x,1/2-y,-z
-x,1/2+y,1/2-z
1/2-x,1/2-y,1/2-z
1/2+x,y,1/2-z
1/2-x,1/2+y,z
x,1/2-y,1/2+z
loop_
_atom_site_type_symbol
_atom_site_label
_atom_site_fract_x
_atom_site_fract_y
_atom_site_fract_z
Si Si1 0.797685 0.716079 0.973139
Si Si2 0.723157 0.000000 0.750000
Si Si3 0.884819 0.932427 0.769326
Si Si4 0.976812 0.067666 0.730058
Si Si5 0.662338 0.899428 0.716639
O O1 0.810872 0.733225 0.270313
O O2 0.750000 0.705190 0.000000
O O3 0.818360 0.660872 0.850531
O O4 0.750000 0.018804 0.500000
O O5 0.696192 0.053228 0.838445
O O6 0.930804 0.913996 0.832265
O O7 0.875108 0.908180 0.480619
O O8 0.879171 0.000000 0.750000
O O9 0.854619 0.904704 0.984934
O O10 0.006152 0.092974 0.503803
O O11 0.979343 0.000000 0.750000
#
# Coordination Sequence:
#
# PCOD8296373 Si02
#       5
#    16   8  16  16  16
#     4  10  22  40  59  78 102 140 188 241 284 314
#     4  12  24  36  52  76 108 146 180 212 262 332
#     4  11  20  34  52  79 117 148 177 216 275 325
#     4   9  17  29  47  72 105 148 183 209 247 318
#     4  12  22  37  55  80 111 145 182 226 275 332
#
# _framework density 18.466839
#
# number of rings (size 3 to 8) (size 9 to 14) (size 15 to 20)
#    0.000    1.333    2.222    4.667    0.000    6.222 
#    0.000    0.000    0.000    0.000    0.000    0.000 
#    0.000   62.222    0.000    0.000    0.000    0.000 
#
# Total GULP energy -446301.266465 kJ/mol
# GULP energy per Si atom -12397.257402 kJ/mol
# Density = 1.842481 g / cm^3
# Si number density = 18.466839 Si / 1000 Ang^3
#
#
#
# Elastic Constant Matrix: (Units=GPa)
#
#
# Indices 1 2 3 4 5 6 
#
# 1 87.4400 36.7194 42.0036 0.0000 0.0000 0.0000
# 2 36.7194 72.2435 12.5253 0.0000 0.0000 0.0000
# 3 42.0036 12.5253 106.2391 0.0000 0.0000 0.0000
# 4 0.0000 0.0000 0.0000 26.4394 0.0000 0.0000
# 5 0.0000 0.0000 0.0000 0.0000 49.8885 0.0000
# 6 0.0000 0.0000 0.0000 0.0000 0.0000 12.5448
#
#
#
# Elastic Compliance Matrix: (Units=1/GPa)
#
#
# Indices 1 2 3 4 5 6 
#
# 1 0.017676 -0.007935 -0.006053 0.000000 0.000000 0.000000
# 2 -0.007935 0.017693 0.001051 0.000000 0.000000 0.000000
# 3 -0.006053 0.001051 0.011682 0.000000 0.000000 0.000000
# 4 0.000000 0.000000 0.000000 0.037822 0.000000 0.000000
# 5 0.000000 0.000000 0.000000 0.000000 0.020045 0.000000
# 6 0.000000 0.000000 0.000000 0.000000 0.000000 0.079714
#
#
# Mechanical properties :
#
#
# Convention : Reuss Voigt Hill
#
# Bulk Modulus (GPa) = 47.21961 49.82435 48.52198
# Shear Modulus (GPa) = 22.98160 29.41950 26.20055
#
# Velocity S-wave (km/s) = 3.53155 3.99569 3.77077
# Velocity P-wave (km/s) = 6.50035 6.95172 6.72982
#
# Compressibility (1/GPa) = 0.02117764
#
# Stress axis : x y z
#
# Youngs Moduli (GPa) = 56.57270 56.51976 85.60162
#
# Poissons Ratio (x) = 0.44848 0.51816
# Poissons Ratio (y) = 0.44890 -0.08999
# Poissons Ratio (z) = 0.34244 -0.05942
#
# Static dielectric constant tensor:
#      x y z
#    x 3.413930 0.000000 0.000000 
#    y 0.000000 3.043230 0.000000 
#    z 0.000000 0.000000 3.776310 
# 
# 
# High freq. dielectric constant tensor:
#      x y z
#    x 1.715410 0.000000 0.000000 
#    y 0.000000 1.669330 0.000000 
#    z 0.000000 0.000000 1.742150 
# 
# From -- ./inp_files/1694.got.cif
#   From: 2010.03.12/outbox.cif.g09.slc.cpg/sg73_1_cif.got.tgz:1694.got - 2010.04.16 15:25:48.
