data_PCOD8296936
_publ_section_title
;
Structure prediction by ZEFSAII (Michael W. Deem and Ramdas Pophale) SiO2 
 PCOD8296936
Probable space group: I B C A 
;
_chemical_formula_sum "Si O2"
_cell_formula_units_Z 112
_cell_length_a 13.590780
_cell_length_b 27.195539
_cell_length_c 14.088886
_cell_angle_alpha 90.000000
_cell_angle_beta 90.000000
_cell_angle_gamma 90.000000
_cell_volume 5207.373254
_symmetry_space_group_name_H-M "I B C A "
_symmetry_group_IT_number 73
_symmetry_cell_setting 'orthorhombic'
loop_
_space_group_symop_operation_xyz
x,y,z
-x,1/2-y,z
x,-y,1/2-z
1/2-x,y,-z
-x,-y,-z
x,1/2+y,-z
-x,y,1/2+z
1/2+x,-y,z
1/2+x,1/2+y,1/2+z
1/2-x,-y,1/2+z
1/2+x,1/2-y,-z
-x,1/2+y,1/2-z
1/2-x,1/2-y,1/2-z
1/2+x,y,1/2-z
1/2-x,1/2+y,z
x,1/2-y,1/2+z
loop_
_atom_site_type_symbol
_atom_site_label
_atom_site_fract_x
_atom_site_fract_y
_atom_site_fract_z
Si Si1 0.820800 0.056893 0.758424
Si Si2 0.980929 0.876121 0.792225
Si Si3 0.653637 0.117056 0.653489
Si Si4 0.960407 0.072491 0.526228
Si Si5 0.849587 0.976834 0.549037
Si Si6 0.225543 0.724120 0.106802
Si Si7 0.898492 0.774881 0.752439
O O1 0.932641 0.072340 0.736979
O O2 0.742789 0.085052 0.693399
O O3 0.816032 0.063009 0.872041
O O4 0.801064 0.000000 0.750000
O O5 0.979552 0.879202 0.907656
O O6 0.910629 0.833393 0.752524
O O7 0.087681 0.870292 0.745458
O O8 0.591175 0.088816 0.572583
O O9 0.698855 0.166595 0.610350
O O10 0.067939 0.049143 0.514359
O O11 0.893196 0.030897 0.579684
O O12 0.750000 0.992070 0.500000
O O13 0.134327 0.755962 0.148193
O O14 0.319305 0.739561 0.168696
O O15 0.250000 0.739912 0.000000
O O16 0.000000 0.750000 0.783640
#
# Coordination Sequence:
#
# PCOD8296936 Si02
#       7
#    16  16  16  16  16  16  16
#     4  12  24  41  66  97 142 185 228 284 350 415
#     4  12  24  45  67 101 139 180 231 286 358 415
#     4  12  25  43  72 101 134 187 237 285 350 428
#     4  11  25  41  69  99 139 186 243 286 346 433
#     4  11  23  43  62  98 142 186 234 294 347 410
#     4  11  25  46  73 105 135 182 240 286 354 429
#     4  11  24  47  72 101 142 178 229 298 354 422
#
# _framework density 21.507966
#
# number of rings (size 3 to 8) (size 9 to 14) (size 15 to 20)
#    0.000    0.571    5.714    2.571    0.000    2.286 
#    2.571    0.714    0.000    0.000    0.000    0.000 
#    0.000    0.000    0.000    0.000    0.000    0.000 
#
# Total GULP energy -693957.581265 kJ/mol
# GULP energy per Si atom -12392.099665 kJ/mol
# Density = 2.145901 g / cm^3
# Si number density = 21.507966 Si / 1000 Ang^3
#
#
#
# Elastic Constant Matrix: (Units=GPa)
#
#
# Indices 1 2 3 4 5 6 
#
# 1 115.2102 29.7605 36.2463 0.0001 -0.0002 0.0000
# 2 29.7605 94.4628 36.2808 -0.0003 -0.0003 0.0001
# 3 36.2463 36.2808 111.0817 -0.0036 -0.0011 0.0002
# 4 0.0001 -0.0003 -0.0036 31.1027 -0.0004 0.0001
# 5 -0.0002 -0.0003 -0.0011 -0.0004 15.1562 -0.0001
# 6 0.0000 0.0001 0.0002 0.0001 -0.0001 32.0656
#
#
#
# Elastic Compliance Matrix: (Units=1/GPa)
#
#
# Indices 1 2 3 4 5 6 
#
# 1 0.010051 -0.002180 -0.002567 0.000000 0.000000 0.000000
# 2 -0.002180 0.012578 -0.003397 0.000000 0.000000 0.000000
# 3 -0.002567 -0.003397 0.010950 0.000001 0.000001 0.000000
# 4 0.000000 0.000000 0.000001 0.032152 0.000001 0.000000
# 5 0.000000 0.000000 0.000001 0.000001 0.065979 0.000000
# 6 0.000000 0.000000 0.000000 0.000000 0.000000 0.031186
#
#
# Mechanical properties :
#
#
# Convention : Reuss Voigt Hill
#
# Bulk Modulus (GPa) = 57.83990 58.37000 58.10495
# Shear Modulus (GPa) = 27.03480 30.22938 28.63209
#
# Velocity S-wave (km/s) = 3.54922 3.75306 3.65256
# Velocity P-wave (km/s) = 6.61412 6.78073 6.69795
#
# Compressibility (1/GPa) = 0.01728910
#
# Stress axis : x y z
#
# Youngs Moduli (GPa) = 99.49495 79.50615 91.32825
#
# Poissons Ratio (x) = 0.17336 0.23448
# Poissons Ratio (y) = 0.21694 0.31020
# Poissons Ratio (z) = 0.25545 0.27005
#
# Static dielectric constant tensor:
#      x y z
#    x 3.951900 0.000000 0.000000 
#    y 0.000000 5.055540 0.000000 
#    z 0.000000 0.000000 4.129910 
# 
# 
# High freq. dielectric constant tensor:
#      x y z
#    x 1.856630 0.000000 0.000000 
#    y 0.000000 1.839350 0.000000 
#    z 0.000000 0.000000 1.849430 
# 
# From -- ./inp_files/16337.got.cif
#   From: 2010.03.12/outbox.cif.g09.slc.cpg/sg73_9_cif.got.tgz:16337.got - 2010.04.16 15:25:48.
