data_PCOD8296053
_publ_section_title
;
Structure prediction by ZEFSAII (Michael W. Deem and Ramdas Pophale) SiO2 
 PCOD8296053
Probable space group: I B C A 
;
_chemical_formula_sum "Si O2"
_cell_formula_units_Z 88
_cell_length_a 13.678166
_cell_length_b 21.743953
_cell_length_c 12.001276
_cell_angle_alpha 90.000000
_cell_angle_beta 90.000000
_cell_angle_gamma 90.000000
_cell_volume 3569.388288
_symmetry_space_group_name_H-M "I B C A "
_symmetry_group_IT_number 73
_symmetry_cell_setting 'orthorhombic'
loop_
_space_group_symop_operation_xyz
x,y,z
-x,1/2-y,z
x,-y,1/2-z
1/2-x,y,-z
-x,-y,-z
x,1/2+y,-z
-x,y,1/2+z
1/2+x,-y,z
1/2+x,1/2+y,1/2+z
1/2-x,-y,1/2+z
1/2+x,1/2-y,-z
-x,1/2+y,1/2-z
1/2-x,1/2-y,1/2-z
1/2+x,y,1/2-z
1/2-x,1/2+y,z
x,1/2-y,1/2+z
loop_
_atom_site_type_symbol
_atom_site_label
_atom_site_fract_x
_atom_site_fract_y
_atom_site_fract_z
Si Si1 0.051296 0.574625 0.056875
Si Si2 0.148103 0.354105 0.635419
Si Si3 0.895423 0.768829 0.679883
Si Si4 0.653094 0.861834 0.758367
Si Si5 0.642341 0.552659 0.048548
Si Si6 0.750000 0.253021 0.000000
O O1 0.067703 0.623621 0.153516
O O2 0.106185 0.512618 0.097240
O O3 0.089656 0.594802 0.934103
O O4 0.934166 0.568203 0.050031
O O5 0.085494 0.326448 0.738161
O O6 0.245992 0.384882 0.685268
O O7 0.170707 0.297169 0.555566
O O8 0.847537 0.712428 0.752058
O O9 0.815246 0.788351 0.585073
O O10 0.000000 0.750000 0.627272
O O11 0.636925 0.893920 0.640563
O O12 0.750000 0.547085 0.000000
#
# Coordination Sequence:
#
# PCOD8296053 Si02
#       6
#    16  16  16  16  16   8
#     4  11  23  46  73  94 142 189 225 290 364 415
#     4  11  21  44  70  97 139 187 231 285 357 422
#     4  11  24  41  67 104 140 188 234 288 355 420
#     4  11  22  46  67 101 140 183 236 289 353 416
#     4  11  26  43  68 109 134 177 243 292 342 421
#     4  10  20  42  64  96 136 180 234 280 344 420
#
# _framework density 24.654086
#
# number of rings (size 3 to 8) (size 9 to 14) (size 15 to 20)
#    0.000    1.091    3.636    4.909    0.000    3.636 
#   13.091    3.636    0.000    0.000    0.000    0.000 
#    0.000    0.000    0.000    0.000    0.000    0.000 
#
# Total GULP energy -545553.094613 kJ/mol
# GULP energy per Si atom -12398.933968 kJ/mol
# Density = 2.459797 g / cm^3
# Si number density = 24.654086 Si / 1000 Ang^3
#
#
#
# Elastic Constant Matrix: (Units=GPa)
#
#
# Indices 1 2 3 4 5 6 
#
# 1 141.0905 9.7113 29.2493 0.0000 0.0000 0.0000
# 2 9.7113 66.1139 25.9428 0.0000 0.0000 0.0000
# 3 29.2493 25.9428 84.2612 -0.0001 0.0001 0.0001
# 4 0.0000 0.0000 -0.0001 12.4352 0.0000 0.0000
# 5 0.0000 0.0000 0.0001 0.0000 27.8618 0.0000
# 6 0.0000 0.0000 0.0001 0.0000 0.0000 31.8743
#
#
#
# Elastic Compliance Matrix: (Units=1/GPa)
#
#
# Indices 1 2 3 4 5 6 
#
# 1 0.007638 -0.000093 -0.002623 0.000000 0.000000 0.000000
# 2 -0.000093 0.017205 -0.005265 0.000000 0.000000 0.000000
# 3 -0.002623 -0.005265 0.014399 0.000000 0.000000 0.000000
# 4 0.000000 0.000000 0.000000 0.080417 0.000000 0.000000
# 5 0.000000 0.000000 0.000000 0.000000 0.035891 0.000000
# 6 0.000000 0.000000 0.000000 0.000000 0.000000 0.031373
#
#
# Mechanical properties :
#
#
# Convention : Reuss Voigt Hill
#
# Bulk Modulus (GPa) = 42.95321 46.80806 44.88063
# Shear Modulus (GPa) = 23.73666 29.53839 26.63753
#
# Velocity S-wave (km/s) = 3.10625 3.46513 3.29059
# Velocity P-wave (km/s) = 5.50683 5.91918 5.71672
#
# Compressibility (1/GPa) = 0.02328115
#
# Stress axis : x y z
#
# Youngs Moduli (GPa) = 130.92867 58.12265 69.44790
#
# Poissons Ratio (x) = 0.00539 0.18214
# Poissons Ratio (y) = 0.01214 0.36564
# Poissons Ratio (z) = 0.34339 0.30601
#
# Static dielectric constant tensor:
#      x y z
#    x 4.458510 0.000000 0.000000 
#    y 0.000000 4.380380 0.000000 
#    z 0.000000 0.000000 4.380570 
# 
# 
# High freq. dielectric constant tensor:
#      x y z
#    x 1.996230 0.000000 0.000000 
#    y 0.000000 1.969670 0.000000 
#    z 0.000000 0.000000 1.969690 
# 
# From -- ./inp_files/10913.got.cif
#   From: 2010.03.12/outbox.cif.g09.slc.cpg/sg73_6_cif.got.tgz:10913.got - 2010.04.16 15:25:48.
