data_PCOD8296513
_publ_section_title
;
Structure prediction by ZEFSAII (Michael W. Deem and Ramdas Pophale) SiO2 
 PCOD8296513
Probable space group: I B C A 
;
_chemical_formula_sum "Si O2"
_cell_formula_units_Z 88
_cell_length_a 8.294492
_cell_length_b 29.001021
_cell_length_c 16.342283
_cell_angle_alpha 90.000000
_cell_angle_beta 90.000000
_cell_angle_gamma 90.000000
_cell_volume 3931.115530
_symmetry_space_group_name_H-M "I B C A "
_symmetry_group_IT_number 73
_symmetry_cell_setting 'orthorhombic'
loop_
_space_group_symop_operation_xyz
x,y,z
-x,1/2-y,z
x,-y,1/2-z
1/2-x,y,-z
-x,-y,-z
x,1/2+y,-z
-x,y,1/2+z
1/2+x,-y,z
1/2+x,1/2+y,1/2+z
1/2-x,-y,1/2+z
1/2+x,1/2-y,-z
-x,1/2+y,1/2-z
1/2-x,1/2-y,1/2-z
1/2+x,y,1/2-z
1/2-x,1/2+y,z
x,1/2-y,1/2+z
loop_
_atom_site_type_symbol
_atom_site_label
_atom_site_fract_x
_atom_site_fract_y
_atom_site_fract_z
Si Si1 0.983814 0.349731 0.702928
Si Si2 0.059836 0.500000 0.750000
Si Si3 0.250000 0.396426 0.000000
Si Si4 0.500000 0.250000 0.042064
Si Si5 0.078675 0.844948 0.469153
Si Si6 0.319089 0.439988 0.828107
Si Si7 0.698569 0.211514 0.185267
O O1 0.891260 0.397103 0.724933
O O2 0.853343 0.316778 0.660380
O O3 0.103330 0.356868 0.626921
O O4 0.064956 0.324607 0.780039
O O5 0.159615 0.456374 0.781823
O O6 0.949365 0.518584 0.824919
O O7 0.416661 0.367342 0.009395
O O8 0.273733 0.428249 0.920757
O O9 0.643034 0.233955 0.101550
O O10 0.568432 0.290384 0.985448
O O11 0.250000 0.864993 0.500000
O O12 0.750000 0.250000 0.250000
#
# Coordination Sequence:
#
# PCOD8296513 Si02
#       7
#    16   8   8   8  16  16  16
#     4  11  24  43  63  92 133 177 218 277 334 394
#     4  10  22  44  72 108 128 168 218 272 360 418
#     4  10  24  50  66 100 138 174 224 278 336 418
#     4  12  24  36  62  90 130 176 232 292 314 382
#     4  11  26  42  66  93 131 184 230 276 338 389
#     4  10  22  44  71  99 139 170 217 281 342 419
#     4  12  23  39  59  93 131 174 231 275 323 385
#
# _framework density 22.385504000000001
#
# number of rings (size 3 to 8) (size 9 to 14) (size 15 to 20)
#    0.000    1.091    1.818    4.364    6.364    0.727 
#   13.091    0.000    0.000    0.000    0.000    0.000 
#    0.000    0.000    0.000    0.000    0.000    0.000 
#
# Total GULP energy -545344.542798 kJ/mol
# GULP energy per Si atom -12394.194154 kJ/mol
# Density = 2.233455 g / cm^3
# Si number density = 22.385504 Si / 1000 Ang^3
#
#
#
# Elastic Constant Matrix: (Units=GPa)
#
#
# Indices 1 2 3 4 5 6 
#
# 1 138.5824 41.1463 30.2846 -0.0001 0.0000 0.0000
# 2 41.1463 102.2975 42.0993 -0.0001 0.0000 0.0000
# 3 30.2846 42.0993 73.9293 0.0006 0.0002 -0.0006
# 4 -0.0001 -0.0001 0.0006 35.6677 0.0001 -0.0003
# 5 0.0000 0.0000 0.0002 0.0001 25.7633 0.0000
# 6 0.0000 0.0000 -0.0006 -0.0003 0.0000 28.3038
#
#
#
# Elastic Compliance Matrix: (Units=1/GPa)
#
#
# Indices 1 2 3 4 5 6 
#
# 1 0.008412 -0.002567 -0.001984 0.000000 0.000000 0.000000
# 2 -0.002567 0.013551 -0.006665 0.000000 0.000000 0.000000
# 3 -0.001984 -0.006665 0.018135 0.000000 0.000000 0.000000
# 4 0.000000 0.000000 0.000000 0.028037 0.000000 0.000000
# 5 0.000000 0.000000 0.000000 0.000000 0.038815 0.000000
# 6 0.000000 0.000000 0.000000 0.000000 0.000000 0.035331
#
#
# Mechanical properties :
#
#
# Convention : Reuss Voigt Hill
#
# Bulk Modulus (GPa) = 56.60871 60.20774 58.40822
# Shear Modulus (GPa) = 29.30839 31.36557 30.33698
#
# Velocity S-wave (km/s) = 3.62229 3.74726 3.68531
# Velocity P-wave (km/s) = 6.54505 6.75847 6.65261
#
# Compressibility (1/GPa) = 0.01766513
#
# Stress axis : x y z
#
# Youngs Moduli (GPa) = 118.88328 73.79656 55.14313
#
# Poissons Ratio (x) = 0.18942 0.10941
# Poissons Ratio (y) = 0.30515 0.36753
# Poissons Ratio (z) = 0.23587 0.49186
#
# Static dielectric constant tensor:
#      x y z
#    x 4.409250 0.000000 0.000000 
#    y 0.000000 4.142440 0.000010 
#    z 0.000000 0.000010 4.334280 
# 
# 
# High freq. dielectric constant tensor:
#      x y z
#    x 1.904180 0.000000 0.000000 
#    y 0.000000 1.878770 0.000000 
#    z 0.000000 0.000000 1.870250 
# 
# From -- ./inp_files/20859.got.cif
#   From: 2010.03.12/outbox.cif.g09.slc.cpg/sg73_11_cif.got.tgz:20859.got - 2010.04.16 15:25:48.
