data_PCOD8296097
_publ_section_title
;
Structure prediction by ZEFSAII (Michael W. Deem and Ramdas Pophale) SiO2 
 PCOD8296097
Probable space group: I B C A 
;
_chemical_formula_sum "Si O2"
_cell_formula_units_Z 104
_cell_length_a 21.418954
_cell_length_b 8.559426
_cell_length_c 26.726526
_cell_angle_alpha 90.000000
_cell_angle_beta 90.000000
_cell_angle_gamma 90.000000
_cell_volume 4899.879628
_symmetry_space_group_name_H-M "I B C A "
_symmetry_group_IT_number 73
_symmetry_cell_setting 'orthorhombic'
loop_
_space_group_symop_operation_xyz
x,y,z
-x,1/2-y,z
x,-y,1/2-z
1/2-x,y,-z
-x,-y,-z
x,1/2+y,-z
-x,y,1/2+z
1/2+x,-y,z
1/2+x,1/2+y,1/2+z
1/2-x,-y,1/2+z
1/2+x,1/2-y,-z
-x,1/2+y,1/2-z
1/2-x,1/2-y,1/2-z
1/2+x,y,1/2-z
1/2-x,1/2+y,z
x,1/2-y,1/2+z
loop_
_atom_site_type_symbol
_atom_site_label
_atom_site_fract_x
_atom_site_fract_y
_atom_site_fract_z
Si Si1 0.633387 0.196503 0.568590
Si Si2 0.705473 0.193163 0.829416
Si Si3 0.670404 0.964057 0.306505
Si Si4 0.154172 0.475290 0.986266
Si Si5 0.927439 0.226134 0.330702
Si Si6 0.375434 0.000000 0.250000
Si Si7 0.719548 0.758463 0.562799
O O1 0.608804 0.364331 0.547102
O O2 0.601278 0.144092 0.620134
O O3 0.707892 0.222292 0.573011
O O4 0.614360 0.066487 0.527816
O O5 0.777248 0.169847 0.813208
O O6 0.691605 0.377119 0.832219
O O7 0.664811 0.095935 0.790212
O O8 0.693809 0.148996 0.887697
O O9 0.605775 0.895205 0.327501
O O10 0.657467 0.000000 0.250000
O O11 0.189248 0.589488 0.947567
O O12 0.204820 0.366392 0.015166
O O13 0.917240 0.121742 0.281039
O O14 0.000000 0.250000 0.338349
#
# Coordination Sequence:
#
# PCOD8296097 Si02
#       7
#    16  16  16  16  16   8  16
#     4  11  20  38  60  89 126 164 209 256 317 375
#     4  12  24  37  70 101 136 161 205 265 345 390
#     4  12  23  43  64  98 134 171 206 267 328 389
#     4  10  21  35  60  95 130 159 201 260 328 396
#     4  12  28  46  66  89 129 181 229 262 310 380
#     4  12  26  44  64  98 128 168 214 276 322 388
#     4  11  20  33  58  94 130 165 193 251 329 395
#
# _framework density 21.225010999999999
#
# number of rings (size 3 to 8) (size 9 to 14) (size 15 to 20)
#    0.000    0.615    3.846    6.923    3.231    0.000 
#    0.000    0.769    0.000    0.000    0.000    0.000 
#    0.000    0.000    0.000    0.000    0.000    0.000 
#
# Total GULP energy -644396.496800 kJ/mol
# GULP energy per Si atom -12392.240323 kJ/mol
# Density = 2.117670 g / cm^3
# Si number density = 21.225011 Si / 1000 Ang^3
#
#
#
# Elastic Constant Matrix: (Units=GPa)
#
#
# Indices 1 2 3 4 5 6 
#
# 1 85.9097 22.9737 26.9723 0.0000 0.0000 0.0000
# 2 22.9737 94.1288 9.1754 0.0000 0.0000 0.0000
# 3 26.9723 9.1754 113.7603 0.0000 0.0000 0.0000
# 4 0.0000 0.0000 0.0000 30.4315 0.0000 0.0000
# 5 0.0000 0.0000 0.0000 0.0000 17.8344 0.0000
# 6 0.0000 0.0000 0.0000 0.0000 0.0000 20.3630
#
#
#
# Elastic Compliance Matrix: (Units=1/GPa)
#
#
# Indices 1 2 3 4 5 6 
#
# 1 0.013354 -0.002974 -0.002926 0.000000 0.000000 0.000000
# 2 -0.002974 0.011370 -0.000212 0.000000 0.000000 0.000000
# 3 -0.002926 -0.000212 0.009501 0.000000 0.000000 0.000000
# 4 0.000000 0.000000 0.000000 0.032861 0.000000 0.000000
# 5 0.000000 0.000000 0.000000 0.000000 0.056072 0.000000
# 6 0.000000 0.000000 0.000000 0.000000 0.000000 0.049109
#
#
# Mechanical properties :
#
#
# Convention : Reuss Voigt Hill
#
# Bulk Modulus (GPa) = 45.45234 45.78242 45.61738
# Shear Modulus (GPa) = 26.06541 29.37093 27.71817
#
# Velocity S-wave (km/s) = 3.50816 3.72397 3.61767
# Velocity P-wave (km/s) = 6.15391 6.33304 6.24412
#
# Compressibility (1/GPa) = 0.02200107
#
# Stress axis : x y z
#
# Youngs Moduli (GPa) = 74.88276 87.94869 105.24826
#
# Poissons Ratio (x) = 0.26156 0.30800
# Poissons Ratio (y) = 0.22271 0.02231
# Poissons Ratio (z) = 0.21914 0.01864
#
# Static dielectric constant tensor:
#      x y z
#    x 3.235970 0.000000 0.000000 
#    y 0.000000 5.590720 0.000000 
#    z 0.000000 0.000000 4.504830 
# 
# 
# High freq. dielectric constant tensor:
#      x y z
#    x 1.762730 0.000000 0.000000 
#    y 0.000000 1.849070 0.000000 
#    z 0.000000 0.000000 1.867400 
# 
# From -- ./inp_files/32683.got.cif
#   From: 2010.03.12/outbox.cif.g09.slc.cpg/sg73_17_cif.got.tgz:32683.got - 2010.04.16 15:25:48.
