data_PCOD8296654
_publ_section_title
;
Structure prediction by ZEFSAII (Michael W. Deem and Ramdas Pophale) SiO2 
 PCOD8296654
Probable space group: I B C A 
;
_chemical_formula_sum "Si O2"
_cell_formula_units_Z 80
_cell_length_a 22.155606
_cell_length_b 8.455472
_cell_length_c 20.277328
_cell_angle_alpha 90.000000
_cell_angle_beta 90.000000
_cell_angle_gamma 90.000000
_cell_volume 3798.675671
_symmetry_space_group_name_H-M "I B C A "
_symmetry_group_IT_number 73
_symmetry_cell_setting 'orthorhombic'
loop_
_space_group_symop_operation_xyz
x,y,z
-x,1/2-y,z
x,-y,1/2-z
1/2-x,y,-z
-x,-y,-z
x,1/2+y,-z
-x,y,1/2+z
1/2+x,-y,z
1/2+x,1/2+y,1/2+z
1/2-x,-y,1/2+z
1/2+x,1/2-y,-z
-x,1/2+y,1/2-z
1/2-x,1/2-y,1/2-z
1/2+x,y,1/2-z
1/2-x,1/2+y,z
x,1/2-y,1/2+z
loop_
_atom_site_type_symbol
_atom_site_label
_atom_site_fract_x
_atom_site_fract_y
_atom_site_fract_z
Si Si1 0.934696 0.451924 0.570991
Si Si2 0.315212 0.128947 0.073941
Si Si3 0.500000 0.250000 0.030569
Si Si4 0.063210 0.333154 0.216113
Si Si5 0.686801 0.822050 0.773309
Si Si6 0.750000 0.884082 0.500000
O O1 0.874586 0.540717 0.550863
O O2 0.947658 0.318997 0.516416
O O3 0.930514 0.355386 0.638317
O O4 0.981901 0.599100 0.575449
O O5 0.316973 0.190743 0.148228
O O6 0.305338 0.275500 0.024478
O O7 0.264384 0.994373 0.063269
O O8 0.060117 0.500000 0.250000
O O9 0.124790 0.243747 0.242598
O O10 0.000000 0.250000 0.234191
O O11 0.750000 0.750000 0.750000
O O12 0.687034 0.000000 0.750000
#
# Coordination Sequence:
#
# PCOD8296654 Si02
#       6
#    16  16   8  16  16   8
#     4  11  21  42  62  94 126 165 211 263 318 378
#     4  11  21  41  62  92 126 164 209 262 314 376
#     4  10  24  38  66  94 126 162 212 262 326 378
#     4  11  24  43  66  93 129 170 215 266 317 380
#     4  11  23  42  66  93 128 169 212 263 317 378
#     4  10  24  38  64  94 124 160 212 260 322 370
#
# _framework density 21.059971999999998
#
# number of rings (size 3 to 8) (size 9 to 14) (size 15 to 20)
#    0.000    1.200    5.000    2.400    1.400    0.800 
#    0.000    2.000    0.000    0.000    0.000    0.000 
#    0.000    0.000    0.000    0.000    0.000    0.000 
#
# Total GULP energy -495553.699885 kJ/mol
# GULP energy per Si atom -12388.842497 kJ/mol
# Density = 2.101204 g / cm^3
# Si number density = 21.059972 Si / 1000 Ang^3
#
#
#
# Elastic Constant Matrix: (Units=GPa)
#
#
# Indices 1 2 3 4 5 6 
#
# 1 168.3689 39.0295 47.1990 0.0000 0.0000 0.0000
# 2 39.0295 60.7003 25.2067 0.0000 0.0000 0.0000
# 3 47.1990 25.2067 112.1961 0.0000 0.0000 0.0000
# 4 0.0000 0.0000 0.0000 -2.9111 0.0000 0.0000
# 5 0.0000 0.0000 0.0000 0.0000 29.4082 0.0000
# 6 0.0000 0.0000 0.0000 0.0000 0.0000 45.5583
#
#
#
# Elastic Compliance Matrix: (Units=1/GPa)
#
#
# Indices 1 2 3 4 5 6 
#
# 1 0.007472 -0.003859 -0.002276 0.000000 0.000000 0.000000
# 2 -0.003859 0.020163 -0.002906 0.000000 0.000000 0.000000
# 3 -0.002276 -0.002906 0.010524 0.000000 0.000000 0.000000
# 4 0.000000 0.000000 0.000000 -0.343513 0.000000 0.000000
# 5 0.000000 0.000000 0.000000 0.000000 0.034004 0.000000
# 6 0.000000 0.000000 0.000000 0.000000 0.000000 0.021950
#
#
# Mechanical properties :
#
#
# Convention : Reuss Voigt Hill
#
# Bulk Modulus (GPa) = 49.81441 62.68173 56.24807
# Shear Modulus (GPa) = -22.25929 29.73309 3.73690
#
# Velocity S-wave (km/s) = -3.25460 3.76151 1.33351
# Velocity P-wave (km/s) = 3.09543 6.97806 5.39792
#
# Compressibility (1/GPa) = 0.02007451
#
# Stress axis : x y z
#
# Youngs Moduli (GPa) = 133.83198 49.59657 95.02489
#
# Poissons Ratio (x) = 0.19140 0.21631
# Poissons Ratio (y) = 0.51648 0.27618
# Poissons Ratio (z) = 0.30465 0.14415
#
# Static dielectric constant tensor:
#      x y z
#    x 6.148200 0.000000 0.000000 
#    y 0.000000 3.900340 0.000000 
#    z 0.000000 0.000000 4.119370 
# 
# 
# High freq. dielectric constant tensor:
#      x y z
#    x 1.837090 0.000000 0.000000 
#    y 0.000000 1.820340 0.000000 
#    z 0.000000 0.000000 1.823990 
# 
# From -- ./inp_files/27486.got.cif
#   From: 2010.03.12/outbox.cif.g09.slc.cpg/sg73_14_cif.got.tgz:27486.got - 2010.04.16 15:25:48.
