data_PCOD8296744
_publ_section_title
;
Structure prediction by ZEFSAII (Michael W. Deem and Ramdas Pophale) SiO2 
 PCOD8296744
Probable space group: I B C A 
;
_chemical_formula_sum "Si O2"
_cell_formula_units_Z 72
_cell_length_a 9.050431
_cell_length_b 24.018233
_cell_length_c 15.370944
_cell_angle_alpha 90.000000
_cell_angle_beta 90.000000
_cell_angle_gamma 90.000000
_cell_volume 3341.264493
_symmetry_space_group_name_H-M "I B C A "
_symmetry_group_IT_number 73
_symmetry_cell_setting 'orthorhombic'
loop_
_space_group_symop_operation_xyz
x,y,z
-x,1/2-y,z
x,-y,1/2-z
1/2-x,y,-z
-x,-y,-z
x,1/2+y,-z
-x,y,1/2+z
1/2+x,-y,z
1/2+x,1/2+y,1/2+z
1/2-x,-y,1/2+z
1/2+x,1/2-y,-z
-x,1/2+y,1/2-z
1/2-x,1/2-y,1/2-z
1/2+x,y,1/2-z
1/2-x,1/2+y,z
x,1/2-y,1/2+z
loop_
_atom_site_type_symbol
_atom_site_label
_atom_site_fract_x
_atom_site_fract_y
_atom_site_fract_z
Si Si1 0.799147 0.374520 0.217527
Si Si2 0.320248 0.964037 0.411048
Si Si3 0.869330 0.433031 0.384730
Si Si4 0.750000 0.159511 0.000000
Si Si5 0.428628 0.691509 0.663682
O O1 0.705800 0.416666 0.159985
O O2 0.886641 0.411092 0.287628
O O3 0.688895 0.329482 0.263301
O O4 0.927846 0.347977 0.158431
O O5 0.250000 0.942652 0.500000
O O6 0.495911 0.970498 0.417243
O O7 0.271765 0.026581 0.387967
O O8 0.859839 0.379613 0.446579
O O9 0.652460 0.195652 0.931137
O O10 0.500000 0.750000 0.691807
#
# Coordination Sequence:
#
# PCOD8296744 Si02
#       5
#    16  16  16   8  16
#     4  11  24  43  70  98 139 176 233 281 347 413
#     4  12  24  39  66 100 140 183 224 273 345 415
#     4  11  24  41  64 101 138 185 221 275 339 418
#     4  10  24  46  68 100 144 170 234 288 340 410
#     4  11  24  48  71  99 132 181 233 295 344 409
#
# _framework density 21.548728000000001
#
# number of rings (size 3 to 8) (size 9 to 14) (size 15 to 20)
#    0.000    0.889    3.333    3.333    6.222    1.778 
#    6.000    2.222    0.000    0.000    0.000    0.000 
#    0.000    0.000    0.000    0.000    0.000    0.000 
#
# Total GULP energy -446264.065842 kJ/mol
# GULP energy per Si atom -12396.224051 kJ/mol
# Density = 2.149968 g / cm^3
# Si number density = 21.548728 Si / 1000 Ang^3
#
#
#
# Elastic Constant Matrix: (Units=GPa)
#
#
# Indices 1 2 3 4 5 6 
#
# 1 90.3675 25.9612 3.8086 -0.0002 0.0000 -0.0001
# 2 25.9612 78.2948 25.1974 -0.0003 0.0000 -0.0002
# 3 3.8086 25.1974 100.4612 -0.0015 0.0000 -0.0008
# 4 -0.0002 -0.0003 -0.0015 5.8724 0.0001 -0.0008
# 5 0.0000 0.0000 0.0000 0.0001 21.4379 0.0000
# 6 -0.0001 -0.0002 -0.0008 -0.0008 0.0000 33.3533
#
#
#
# Elastic Compliance Matrix: (Units=1/GPa)
#
#
# Indices 1 2 3 4 5 6 
#
# 1 0.012265 -0.004261 0.000604 0.000000 0.000000 0.000000
# 2 -0.004261 0.015374 -0.003695 0.000000 0.000000 0.000000
# 3 0.000604 -0.003695 0.010858 0.000003 0.000000 0.000000
# 4 0.000000 0.000000 0.000003 0.170289 -0.000001 0.000004
# 5 0.000000 0.000000 0.000000 -0.000001 0.046646 0.000000
# 6 0.000000 0.000000 0.000000 0.000004 0.000000 0.029982
#
#
# Mechanical properties :
#
#
# Convention : Reuss Voigt Hill
#
# Bulk Modulus (GPa) = 42.02924 42.11754 42.07339
# Shear Modulus (GPa) = 16.23121 26.40982 21.32051
#
# Velocity S-wave (km/s) = 2.74749 3.50463 3.14890
# Velocity P-wave (km/s) = 5.44165 5.99703 5.72607
#
# Compressibility (1/GPa) = 0.02379296
#
# Stress axis : x y z
#
# Youngs Moduli (GPa) = 81.53543 65.04429 92.09916
#
# Poissons Ratio (x) = 0.27716 -0.05561
# Poissons Ratio (y) = 0.34743 0.34027
# Poissons Ratio (z) = -0.04923 0.24031
#
# Static dielectric constant tensor:
#      x y z
#    x 4.075920 0.000000 0.000000 
#    y 0.000000 3.691350 0.000000 
#    z 0.000000 0.000000 4.072650 
# 
# 
# High freq. dielectric constant tensor:
#      x y z
#    x 1.860210 0.000000 0.000000 
#    y 0.000000 1.835320 0.000000 
#    z 0.000000 0.000000 1.852200 
# 
# From -- ./inp_files/4770.got.cif
#   From: 2010.03.12/outbox.cif.g09.slc.cpg/sg73_3_cif.got.tgz:4770.got - 2010.04.16 15:25:48.
