data_PCOD8296253
_publ_section_title
;
Structure prediction by ZEFSAII (Michael W. Deem and Ramdas Pophale) SiO2 
 PCOD8296253
Probable space group: I B C A 
;
_chemical_formula_sum "Si O2"
_cell_formula_units_Z 120
_cell_length_a 20.810272
_cell_length_b 12.379837
_cell_length_c 21.711820
_cell_angle_alpha 90.000000
_cell_angle_beta 90.000000
_cell_angle_gamma 90.000000
_cell_volume 5593.567884
_symmetry_space_group_name_H-M "I B C A "
_symmetry_group_IT_number 73
_symmetry_cell_setting 'orthorhombic'
loop_
_space_group_symop_operation_xyz
x,y,z
-x,1/2-y,z
x,-y,1/2-z
1/2-x,y,-z
-x,-y,-z
x,1/2+y,-z
-x,y,1/2+z
1/2+x,-y,z
1/2+x,1/2+y,1/2+z
1/2-x,-y,1/2+z
1/2+x,1/2-y,-z
-x,1/2+y,1/2-z
1/2-x,1/2-y,1/2-z
1/2+x,y,1/2-z
1/2-x,1/2+y,z
x,1/2-y,1/2+z
loop_
_atom_site_type_symbol
_atom_site_label
_atom_site_fract_x
_atom_site_fract_y
_atom_site_fract_z
Si Si1 0.849470 0.717105 0.730051
Si Si2 0.571795 0.293006 0.345970
Si Si3 0.750000 0.187272 0.500000
Si Si4 0.856782 0.274997 0.910344
Si Si5 0.768632 0.097894 0.712117
Si Si6 0.067363 0.076129 0.442354
Si Si7 0.841786 0.107206 0.595766
Si Si8 0.069404 0.490746 0.420645
O O1 0.912707 0.700568 0.772303
O O2 0.860522 0.761430 0.661225
O O3 0.805675 0.796683 0.768273
O O4 0.807954 0.607087 0.722950
O O5 0.500000 0.250000 0.354711
O O6 0.618525 0.213348 0.383965
O O7 0.580258 0.414205 0.371335
O O8 0.713199 0.250133 0.556550
O O9 0.809548 0.121048 0.528767
O O10 0.909262 0.199691 0.942974
O O11 0.874648 0.401592 0.915260
O O12 0.782076 0.080921 0.640193
O O13 0.798109 0.000000 0.750000
O O14 0.066371 0.042570 0.512753
O O15 0.113267 0.997029 0.404011
O O16 0.998269 0.069518 0.409387
#
# Coordination Sequence:
#
# PCOD8296253 Si02
#       8
#    16  16   8  16  16  16  16  16
#     4  10  24  41  65  99 130 177 228 280 339 403
#     4  11  24  45  71  96 137 183 237 283 349 421
#     4  12  24  42  64  98 140 176 224 282 338 424
#     4  12  25  45  64 105 137 174 226 287 344 409
#     4  10  21  41  66  93 134 180 221 274 337 410
#     4  11  24  43  70  98 138 174 228 288 343 410
#     4  11  22  44  68  99 133 182 231 278 343 415
#     4  11  25  42  70 101 130 185 222 284 348 408
#
# _framework density 21.453213000000002
#
# number of rings (size 3 to 8) (size 9 to 14) (size 15 to 20)
#    0.000    1.067    4.000    2.000    1.867    1.600 
#    2.400    0.000    0.000    0.000    0.000    0.000 
#    0.000    0.000    0.000    0.000    0.000    0.000 
#
# Total GULP energy -743622.092276 kJ/mol
# GULP energy per Si atom -12393.701538 kJ/mol
# Density = 2.140438 g / cm^3
# Si number density = 21.453213 Si / 1000 Ang^3
#
#
#
# Elastic Constant Matrix: (Units=GPa)
#
#
# Indices 1 2 3 4 5 6 
#
# 1 99.9846 35.2843 35.7273 0.0000 0.0000 0.0000
# 2 35.2843 89.0387 23.2696 0.0000 0.0000 0.0000
# 3 35.7273 23.2696 108.6475 0.0000 0.0000 0.0000
# 4 0.0000 0.0000 0.0000 26.3809 0.0000 0.0000
# 5 0.0000 0.0000 0.0000 0.0000 35.3357 0.0000
# 6 0.0000 0.0000 0.0000 0.0000 0.0000 -486.2695
#
#
#
# Elastic Compliance Matrix: (Units=1/GPa)
#
#
# Indices 1 2 3 4 5 6 
#
# 1 0.012634 -0.004153 -0.003265 0.000000 0.000000 0.000000
# 2 -0.004153 0.013262 -0.001475 0.000000 0.000000 0.000000
# 3 -0.003265 -0.001475 0.010594 0.000000 0.000000 0.000000
# 4 0.000000 0.000000 0.000000 0.037906 0.000000 0.000000
# 5 0.000000 0.000000 0.000000 0.000000 0.028300 0.000000
# 6 0.000000 0.000000 0.000000 0.000000 0.000000 -0.002056
#
#
# Mechanical properties :
#
#
# Convention : Reuss Voigt Hill
#
# Bulk Modulus (GPa) = 53.46483 54.02589 53.74536
# Shear Modulus (GPa) = 40.10910 -71.35126 -15.62108
#
# Velocity S-wave (km/s) = 4.32859 -5.77332 -2.70135
# Velocity P-wave (km/s) = 7.06809 4.38222 3.92136
#
# Compressibility (1/GPa) = 0.01870389
#
# Stress axis : x y z
#
# Youngs Moduli (GPa) = 79.15224 75.40142 94.39697
#
# Poissons Ratio (x) = 0.31316 0.30820
# Poissons Ratio (y) = 0.32874 0.13921
# Poissons Ratio (z) = 0.25843 0.11120
#
# Static dielectric constant tensor:
#      x y z
#    x 4.078560 0.000000 0.000000 
#    y 0.000000 3.790870 0.000000 
#    z 0.000000 0.000000 4.016500 
# 
# 
# High freq. dielectric constant tensor:
#      x y z
#    x 1.845040 0.000000 0.000000 
#    y 0.000000 1.830270 0.000000 
#    z 0.000000 0.000000 1.853670 
# 
# From -- ./inp_files/30170.got.cif
#   From: 2010.03.12/outbox.cif.g09.slc.cpg/sg73_16_cif.got.tgz:30170.got - 2010.04.16 15:25:48.
