data_PCOD8296101
_publ_section_title
;
Structure prediction by ZEFSAII (Michael W. Deem and Ramdas Pophale) SiO2 
 PCOD8296101
Probable space group: I B C A 
;
_chemical_formula_sum "Si O2"
_cell_formula_units_Z 104
_cell_length_a 11.132403
_cell_length_b 17.853768
_cell_length_c 24.590844
_cell_angle_alpha 90.000000
_cell_angle_beta 90.000000
_cell_angle_gamma 90.000000
_cell_volume 4887.561571
_symmetry_space_group_name_H-M "I B C A "
_symmetry_group_IT_number 73
_symmetry_cell_setting 'orthorhombic'
loop_
_space_group_symop_operation_xyz
x,y,z
-x,1/2-y,z
x,-y,1/2-z
1/2-x,y,-z
-x,-y,-z
x,1/2+y,-z
-x,y,1/2+z
1/2+x,-y,z
1/2+x,1/2+y,1/2+z
1/2-x,-y,1/2+z
1/2+x,1/2-y,-z
-x,1/2+y,1/2-z
1/2-x,1/2-y,1/2-z
1/2+x,y,1/2-z
1/2-x,1/2+y,z
x,1/2-y,1/2+z
loop_
_atom_site_type_symbol
_atom_site_label
_atom_site_fract_x
_atom_site_fract_y
_atom_site_fract_z
Si Si1 0.006309 0.424081 0.604974
Si Si2 0.000000 0.250000 0.231886
Si Si3 0.673356 0.293504 0.862413
Si Si4 0.173803 0.511132 0.313027
Si Si5 0.810400 0.838307 0.444518
Si Si6 0.086941 0.849178 0.672534
Si Si7 0.878534 0.426212 0.379237
O O1 0.921054 0.431396 0.658983
O O2 0.931063 0.389802 0.553751
O O3 0.120388 0.371878 0.616954
O O4 0.051962 0.506821 0.590004
O O5 0.888221 0.273979 0.194824
O O6 0.952052 0.180538 0.268163
O O7 0.648617 0.230324 0.907031
O O8 0.817482 0.292508 0.854149
O O9 0.150420 0.500000 0.250000
O O10 0.155589 0.427342 0.333363
O O11 0.308410 0.539861 0.326455
O O12 0.750000 0.808353 0.500000
O O13 0.711286 0.893313 0.421869
O O14 0.964633 0.858034 0.638545
#
# Coordination Sequence:
#
# PCOD8296101 Si02
#       7
#    16   8  16  16  16  16  16
#     4  10  21  44  66  96 130 174 217 282 330 393
#     4  12  24  38  64  94 142 180 218 258 332 402
#     4  12  23  44  65  96 135 173 223 272 332 402
#     4  10  21  35  65  95 136 174 221 258 317 390
#     4  11  25  46  70  93 124 171 224 283 343 394
#     4  11  24  38  62  98 131 181 215 259 326 398
#     4  10  23  43  66  97 136 166 222 279 321 400
#
# _framework density 21.278504000000002
#
# number of rings (size 3 to 8) (size 9 to 14) (size 15 to 20)
#    0.000    1.231    3.077    2.308    4.308    3.077 
#    5.538    0.769    0.000    0.000    0.000    0.000 
#    0.000    0.000    0.000    0.000    0.000    0.000 
#
# Total GULP energy -644385.092538 kJ/mol
# GULP energy per Si atom -12392.021010 kJ/mol
# Density = 2.123007 g / cm^3
# Si number density = 21.278504 Si / 1000 Ang^3
#
#
#
# Elastic Constant Matrix: (Units=GPa)
#
#
# Indices 1 2 3 4 5 6 
#
# 1 116.5031 44.1212 27.7174 0.0000 0.0000 0.0000
# 2 44.1212 79.8264 25.5296 0.0000 0.0000 0.0000
# 3 27.7174 25.5296 65.5067 0.0000 0.0000 0.0000
# 4 0.0000 0.0000 0.0000 14.0426 0.0000 0.0000
# 5 0.0000 0.0000 0.0000 0.0000 17.8257 0.0000
# 6 0.0000 0.0000 0.0000 0.0000 0.0000 47.1491
#
#
#
# Elastic Compliance Matrix: (Units=1/GPa)
#
#
# Indices 1 2 3 4 5 6 
#
# 1 0.011250 -0.005364 -0.002670 0.000000 0.000000 0.000000
# 2 -0.005364 0.016869 -0.004304 0.000000 0.000000 0.000000
# 3 -0.002670 -0.004304 0.018073 0.000000 0.000000 0.000000
# 4 0.000000 0.000000 0.000000 0.071212 0.000000 0.000000
# 5 0.000000 0.000000 0.000000 0.000000 0.056099 0.000000
# 6 0.000000 0.000000 0.000000 0.000000 0.000000 0.021209
#
#
# Mechanical properties :
#
#
# Convention : Reuss Voigt Hill
#
# Bulk Modulus (GPa) = 46.47930 50.73029 48.60480
# Shear Modulus (GPa) = 22.06923 26.76802 24.41862
#
# Velocity S-wave (km/s) = 3.22399 3.55065 3.39126
# Velocity P-wave (km/s) = 5.97909 6.37984 6.18272
#
# Compressibility (1/GPa) = 0.02151495
#
# Stress axis : x y z
#
# Youngs Moduli (GPa) = 88.88797 59.28122 55.33209
#
# Poissons Ratio (x) = 0.31800 0.14771
# Poissons Ratio (y) = 0.47682 0.23817
# Poissons Ratio (z) = 0.23729 0.25517
#
# Static dielectric constant tensor:
#      x y z
#    x 4.183660 0.000000 0.000000 
#    y 0.000000 4.104090 0.000000 
#    z 0.000000 0.000000 3.503570 
# 
# 
# High freq. dielectric constant tensor:
#      x y z
#    x 1.854860 0.000000 0.000000 
#    y 0.000000 1.850260 0.000000 
#    z 0.000000 0.000000 1.789580 
# 
# From -- ./inp_files/31777.got.cif
#   From: 2010.03.12/outbox.cif.g09.slc.cpg/sg73_16_cif.got.tgz:31777.got - 2010.04.16 15:25:48.
