data_PCOD8296908
_publ_section_title
;
Structure prediction by ZEFSAII (Michael W. Deem and Ramdas Pophale) SiO2 
 PCOD8296908
Probable space group: I B C A 
;
_chemical_formula_sum "Si O2"
_cell_formula_units_Z 96
_cell_length_a 17.349684
_cell_length_b 22.178275
_cell_length_c 11.527163
_cell_angle_alpha 90.000000
_cell_angle_beta 90.000000
_cell_angle_gamma 90.000000
_cell_volume 4435.491667
_symmetry_space_group_name_H-M "I B C A "
_symmetry_group_IT_number 73
_symmetry_cell_setting 'orthorhombic'
loop_
_space_group_symop_operation_xyz
x,y,z
-x,1/2-y,z
x,-y,1/2-z
1/2-x,y,-z
-x,-y,-z
x,1/2+y,-z
-x,y,1/2+z
1/2+x,-y,z
1/2+x,1/2+y,1/2+z
1/2-x,-y,1/2+z
1/2+x,1/2-y,-z
-x,1/2+y,1/2-z
1/2-x,1/2-y,1/2-z
1/2+x,y,1/2-z
1/2-x,1/2+y,z
x,1/2-y,1/2+z
loop_
_atom_site_type_symbol
_atom_site_label
_atom_site_fract_x
_atom_site_fract_y
_atom_site_fract_z
Si Si1 0.170630 0.533952 0.047008
Si Si2 0.081088 0.914983 0.950573
Si Si3 0.144110 0.148568 0.336380
Si Si4 0.587711 0.867505 0.086143
Si Si5 0.170201 0.779508 0.569112
Si Si6 0.809439 0.377671 0.745223
O O1 0.102446 0.485530 0.060902
O O2 0.179832 0.564596 0.172598
O O3 0.250000 0.503537 0.000000
O O4 0.153068 0.584717 0.950609
O O5 0.128071 0.876709 0.856645
O O6 0.991994 0.902020 0.930092
O O7 0.098840 0.896871 0.081686
O O8 0.096797 0.153982 0.217595
O O9 0.147155 0.212212 0.400574
O O10 0.227055 0.119652 0.315502
O O11 0.599911 0.808713 0.004772
O O12 0.250000 0.781838 0.500000
O O13 0.182181 0.814774 0.688671
#
# Coordination Sequence:
#
# PCOD8296908 Si02
#       6
#    16  16  16  16  16  16
#     4  11  22  48  74  99 140 193 238 294 345 426
#     4  12  28  41  68 106 144 183 240 287 360 425
#     4  12  25  45  72 104 138 185 243 292 346 434
#     4  11  26  47  65 106 143 188 231 293 369 416
#     4  11  23  45  75  99 139 188 237 292 350 423
#     4  11  22  45  73 104 139 185 239 292 348 423
#
# _framework density 21.643597
#
# number of rings (size 3 to 8) (size 9 to 14) (size 15 to 20)
#    0.000    0.667    3.333    5.000    7.000    1.333 
#    3.000    0.000    0.000    0.000    0.000    0.000 
#    0.000    0.000    0.000    0.000    0.000    0.000 
#
# Total GULP energy -595420.207699 kJ/mol
# GULP energy per Si atom -12404.587660 kJ/mol
# Density = 2.159434 g / cm^3
# Si number density = 21.643597 Si / 1000 Ang^3
#
#
#
# Elastic Constant Matrix: (Units=GPa)
#
#
# Indices 1 2 3 4 5 6 
#
# 1 113.0570 33.4938 34.3864 0.0000 0.0000 0.0000
# 2 33.4938 120.9835 31.2414 0.0000 0.0000 0.0000
# 3 34.3864 31.2414 111.7421 0.0000 0.0000 0.0000
# 4 0.0000 0.0000 0.0000 28.4336 0.0000 0.0000
# 5 0.0000 0.0000 0.0000 0.0000 33.6866 0.0000
# 6 0.0000 0.0000 0.0000 0.0000 0.0000 17.9388
#
#
#
# Elastic Compliance Matrix: (Units=1/GPa)
#
#
# Indices 1 2 3 4 5 6 
#
# 1 0.010267 -0.002184 -0.002549 0.000000 0.000000 0.000000
# 2 -0.002184 0.009373 -0.001948 0.000000 0.000000 0.000000
# 3 -0.002549 -0.001948 0.010278 0.000000 0.000000 0.000000
# 4 0.000000 0.000000 0.000000 0.035170 0.000000 0.000000
# 5 0.000000 0.000000 0.000000 0.000000 0.029685 0.000000
# 6 0.000000 0.000000 0.000000 0.000000 0.000000 0.055745
#
#
# Mechanical properties :
#
#
# Convention : Reuss Voigt Hill
#
# Bulk Modulus (GPa) = 60.40172 60.44731 60.42452
# Shear Modulus (GPa) = 29.51566 32.45586 30.98576
#
# Velocity S-wave (km/s) = 3.69686 3.87662 3.78780
# Velocity P-wave (km/s) = 6.79635 6.93013 6.86356
#
# Compressibility (1/GPa) = 0.01655582
#
# Stress axis : x y z
#
# Youngs Moduli (GPa) = 97.39508 106.68414 97.29212
#
# Poissons Ratio (x) = 0.23303 0.24799
# Poissons Ratio (y) = 0.21274 0.18957
# Poissons Ratio (z) = 0.24825 0.20787
#
# Static dielectric constant tensor:
#      x y z
#    x 3.856120 0.000000 0.000000 
#    y 0.000000 3.852270 0.000000 
#    z 0.000000 0.000000 4.156250 
# 
# 
# High freq. dielectric constant tensor:
#      x y z
#    x 1.845440 0.000000 0.000000 
#    y 0.000000 1.853640 0.000000 
#    z 0.000000 0.000000 1.869130 
# 
# From -- ./inp_files/12008.got.cif
#   From: 2010.03.12/outbox.cif.g09.slc.cpg/sg73_7_cif.got.tgz:12008.got - 2010.04.16 15:25:48.
