data_PCOD8296968
_publ_section_title
;
Structure prediction by ZEFSAII (Michael W. Deem and Ramdas Pophale) SiO2 
 PCOD8296968
Probable space group: I B C A 
;
_chemical_formula_sum "Si O2"
_cell_formula_units_Z 112
_cell_length_a 16.828497
_cell_length_b 26.311296
_cell_length_c 11.253555
_cell_angle_alpha 90.000000
_cell_angle_beta 90.000000
_cell_angle_gamma 90.000000
_cell_volume 4982.844197
_symmetry_space_group_name_H-M "I B C A "
_symmetry_group_IT_number 73
_symmetry_cell_setting 'orthorhombic'
loop_
_space_group_symop_operation_xyz
x,y,z
-x,1/2-y,z
x,-y,1/2-z
1/2-x,y,-z
-x,-y,-z
x,1/2+y,-z
-x,y,1/2+z
1/2+x,-y,z
1/2+x,1/2+y,1/2+z
1/2-x,-y,1/2+z
1/2+x,1/2-y,-z
-x,1/2+y,1/2-z
1/2-x,1/2-y,1/2-z
1/2+x,y,1/2-z
1/2-x,1/2+y,z
x,1/2-y,1/2+z
loop_
_atom_site_type_symbol
_atom_site_label
_atom_site_fract_x
_atom_site_fract_y
_atom_site_fract_z
Si Si1 0.451908 0.654486 0.523157
Si Si2 0.281800 0.298400 0.381182
Si Si3 0.000000 0.250000 0.385235
Si Si4 0.367153 0.207565 0.278113
Si Si5 0.383408 0.392779 0.406304
Si Si6 0.656331 0.505855 0.486404
Si Si7 0.567862 0.500000 0.250000
Si Si8 0.572232 0.566767 0.836368
O O1 0.454273 0.710532 0.467781
O O2 0.387525 0.662515 0.628589
O O3 0.533074 0.635296 0.580318
O O4 0.426079 0.614546 0.424191
O O5 0.250000 0.270680 0.500000
O O6 0.352008 0.263313 0.332248
O O7 0.212697 0.309615 0.287084
O O8 0.314762 0.352247 0.421630
O O9 0.940980 0.214974 0.309306
O O10 0.367872 0.434888 0.507368
O O11 0.375706 0.417857 0.276675
O O12 0.750000 0.496806 0.500000
O O13 0.623793 0.483785 0.361065
O O14 0.612259 0.480012 0.596681
O O15 0.514350 0.451752 0.209788
#
# Coordination Sequence:
#
# PCOD8296968 Si02
#       8
#    16  16   8  16  16  16   8  16
#     4  12  24  42  72 107 135 186 250 297 361 439
#     4  11  24  43  66  97 144 189 231 294 371 439
#     4  12  24  44  70 100 138 184 236 306 350 438
#     4  11  24  43  67 100 141 187 238 299 365 437
#     4  12  24  44  68 101 142 182 238 302 362 442
#     4  12  28  47  73 107 146 190 242 310 381 449
#     4  12  24  50  78 100 146 192 242 306 372 450
#     4  12  25  47  74 103 144 191 247 304 370 447
#
# _framework density 22.477122000000001
#
# number of rings (size 3 to 8) (size 9 to 14) (size 15 to 20)
#    0.000    0.286    2.857    7.286    2.000    2.286 
#    5.143    0.000    0.000    0.000    0.000    0.000 
#    0.000    0.000    0.000    0.000    0.000    0.000 
#
# Total GULP energy -694553.035059 kJ/mol
# GULP energy per Si atom -12402.732769 kJ/mol
# Density = 2.242596 g / cm^3
# Si number density = 22.477122 Si / 1000 Ang^3
#
#
#
# Elastic Constant Matrix: (Units=GPa)
#
#
# Indices 1 2 3 4 5 6 
#
# 1 108.4880 27.0079 36.6579 -0.0001 -0.0001 -0.0001
# 2 27.0079 93.7939 25.9634 -0.0002 0.0001 -0.0001
# 3 36.6579 25.9634 111.6495 -0.0003 0.0014 -0.0001
# 4 -0.0001 -0.0002 -0.0003 64.8465 0.0005 -0.0001
# 5 -0.0001 0.0001 0.0014 0.0005 10.5931 -0.0001
# 6 -0.0001 -0.0001 -0.0001 -0.0001 -0.0001 5.5885
#
#
#
# Elastic Compliance Matrix: (Units=1/GPa)
#
#
# Indices 1 2 3 4 5 6 
#
# 1 0.010804 -0.002276 -0.003018 0.000000 0.000000 0.000000
# 2 -0.002276 0.011874 -0.002014 0.000000 0.000000 0.000000
# 3 -0.003018 -0.002014 0.010416 0.000000 -0.000001 0.000000
# 4 0.000000 0.000000 0.000000 0.015421 -0.000001 0.000000
# 5 0.000000 0.000000 -0.000001 -0.000001 0.094401 0.000002
# 6 0.000000 0.000000 0.000000 0.000000 0.000002 0.178939
#
#
# Mechanical properties :
#
#
# Convention : Reuss Voigt Hill
#
# Bulk Modulus (GPa) = 54.11653 54.79887 54.45770
# Shear Modulus (GPa) = 14.59297 31.15910 22.87604
#
# Velocity S-wave (km/s) = 2.55078 3.72729 3.19368
# Velocity P-wave (km/s) = 5.72746 6.55411 6.15468
#
# Compressibility (1/GPa) = 0.01847864
#
# Stress axis : x y z
#
# Youngs Moduli (GPa) = 92.55911 84.21423 96.00686
#
# Poissons Ratio (x) = 0.19163 0.28976
# Poissons Ratio (y) = 0.21062 0.19338
# Poissons Ratio (z) = 0.27935 0.16963
#
# Static dielectric constant tensor:
#      x y z
#    x 3.970800 0.000000 0.000000 
#    y 0.000000 4.040020 0.000000 
#    z 0.000000 0.000000 4.331900 
# 
# 
# High freq. dielectric constant tensor:
#      x y z
#    x 1.881470 0.000000 0.000000 
#    y 0.000000 1.889150 0.000000 
#    z 0.000000 0.000000 1.905830 
# 
# From -- ./inp_files/11310.got.cif
#   From: 2010.03.12/outbox.cif.g09.slc.cpg/sg73_6_cif.got.tgz:11310.got - 2010.04.16 15:25:48.
