data_PCOD8296875
_publ_section_title
;
Structure prediction by ZEFSAII (Michael W. Deem and Ramdas Pophale) SiO2 
 PCOD8296875
Probable space group: I B C A 
;
_chemical_formula_sum "Si O2"
_cell_formula_units_Z 96
_cell_length_a 9.514838
_cell_length_b 20.823133
_cell_length_c 24.362277
_cell_angle_alpha 90.000000
_cell_angle_beta 90.000000
_cell_angle_gamma 90.000000
_cell_volume 4826.867176
_symmetry_space_group_name_H-M "I B C A "
_symmetry_group_IT_number 73
_symmetry_cell_setting 'orthorhombic'
loop_
_space_group_symop_operation_xyz
x,y,z
-x,1/2-y,z
x,-y,1/2-z
1/2-x,y,-z
-x,-y,-z
x,1/2+y,-z
-x,y,1/2+z
1/2+x,-y,z
1/2+x,1/2+y,1/2+z
1/2-x,-y,1/2+z
1/2+x,1/2-y,-z
-x,1/2+y,1/2-z
1/2-x,1/2-y,1/2-z
1/2+x,y,1/2-z
1/2-x,1/2+y,z
x,1/2-y,1/2+z
loop_
_atom_site_type_symbol
_atom_site_label
_atom_site_fract_x
_atom_site_fract_y
_atom_site_fract_z
Si Si1 0.646662 0.755251 0.873007
Si Si2 0.047707 0.395851 0.131216
Si Si3 0.683010 0.865462 0.304327
Si Si4 0.633890 0.794295 0.546643
Si Si5 0.763263 0.372541 0.181174
Si Si6 0.963573 0.025734 0.312129
O O1 0.500000 0.750000 0.908151
O O2 0.625949 0.699699 0.828908
O O3 0.786895 0.748010 0.908086
O O4 0.650344 0.821713 0.840086
O O5 0.155383 0.374893 0.178462
O O6 0.093426 0.364791 0.072161
O O7 0.035103 0.473087 0.138637
O O8 0.892953 0.368819 0.139911
O O9 0.673655 0.855698 0.239837
O O10 0.589876 0.925358 0.324978
O O11 0.500000 0.750000 0.528220
O O12 0.750000 0.807720 0.500000
O O13 0.689180 0.441651 0.183900
O O14 0.984414 0.000000 0.250000
#
# Coordination Sequence:
#
# PCOD8296875 Si02
#       6
#    16  16  16  16  16  16
#     4  11  23  40  60  96 126 165 219 272 331 377
#     4  11  24  37  62  96 128 167 226 263 315 386
#     4  11  22  36  58  88 135 184 213 261 302 385
#     4  11  24  47  73  93 119 161 217 290 347 392
#     4  12  21  38  59  90 137 178 217 257 315 383
#     4  12  22  37  60  88 137 189 222 245 303 392
#
# _framework density 19.888676
#
# number of rings (size 3 to 8) (size 9 to 14) (size 15 to 20)
#    0.000    0.667    6.667    2.000    0.000    0.000 
#    0.000    0.000    0.000   10.000    0.000    0.000 
#    0.000    0.000    0.000    0.000    0.000    0.000 
#
# Total GULP energy -594749.757902 kJ/mol
# GULP energy per Si atom -12390.619956 kJ/mol
# Density = 1.984341 g / cm^3
# Si number density = 19.888676 Si / 1000 Ang^3
#
#
#
# Elastic Constant Matrix: (Units=GPa)
#
#
# Indices 1 2 3 4 5 6 
#
# 1 127.9947 36.5446 29.6675 0.0000 0.0000 0.0000
# 2 36.5446 108.1398 47.3115 0.0000 0.0000 0.0000
# 3 29.6675 47.3115 81.4583 0.0000 0.0000 0.0000
# 4 0.0000 0.0000 0.0000 23.8608 0.0000 0.0000
# 5 0.0000 0.0000 0.0000 0.0000 24.9945 0.0000
# 6 0.0000 0.0000 0.0000 0.0000 0.0000 29.5587
#
#
#
# Elastic Compliance Matrix: (Units=1/GPa)
#
#
# Indices 1 2 3 4 5 6 
#
# 1 0.008884 -0.002127 -0.002000 0.000000 0.000000 0.000000
# 2 -0.002127 0.012907 -0.006722 0.000000 0.000000 0.000000
# 3 -0.002000 -0.006722 0.016909 0.000000 0.000000 0.000000
# 4 0.000000 0.000000 0.000000 0.041910 0.000000 0.000000
# 5 0.000000 0.000000 0.000000 0.000000 0.040009 0.000000
# 6 0.000000 0.000000 0.000000 0.000000 0.000000 0.033831
#
#
# Mechanical properties :
#
#
# Convention : Reuss Voigt Hill
#
# Bulk Modulus (GPa) = 58.81822 60.51556 59.66689
# Shear Modulus (GPa) = 27.50068 29.28743 28.39405
#
# Velocity S-wave (km/s) = 3.72254 3.84157 3.78252
# Velocity P-wave (km/s) = 6.93645 7.08308 7.01015
#
# Compressibility (1/GPa) = 0.01700153
#
# Stress axis : x y z
#
# Youngs Moduli (GPa) = 112.56525 77.47801 59.14131
#
# Poissons Ratio (x) = 0.16481 0.11829
# Poissons Ratio (y) = 0.23944 0.39753
# Poissons Ratio (z) = 0.22514 0.52078
#
# Static dielectric constant tensor:
#      x y z
#    x 3.864650 0.000000 0.000000 
#    y 0.000000 3.763310 0.000000 
#    z 0.000000 0.000000 3.255330 
# 
# 
# High freq. dielectric constant tensor:
#      x y z
#    x 1.810530 0.000000 0.000000 
#    y 0.000000 1.781080 0.000000 
#    z 0.000000 0.000000 1.730280 
# 
# From -- ./inp_files/6442.got.cif
#   From: 2010.03.12/outbox.cif.g09.slc.cpg/sg73_4_cif.got.tgz:6442.got - 2010.04.16 15:25:48.
