data_PCOD8296856
_publ_section_title
;
Structure prediction by ZEFSAII (Michael W. Deem and Ramdas Pophale) SiO2 
 PCOD8296856
Probable space group: I B C A 
;
_chemical_formula_sum "Si O2"
_cell_formula_units_Z 72
_cell_length_a 14.594319
_cell_length_b 21.218144
_cell_length_c 10.286360
_cell_angle_alpha 90.000000
_cell_angle_beta 90.000000
_cell_angle_gamma 90.000000
_cell_volume 3185.319108
_symmetry_space_group_name_H-M "I B C A "
_symmetry_group_IT_number 73
_symmetry_cell_setting 'orthorhombic'
loop_
_space_group_symop_operation_xyz
x,y,z
-x,1/2-y,z
x,-y,1/2-z
1/2-x,y,-z
-x,-y,-z
x,1/2+y,-z
-x,y,1/2+z
1/2+x,-y,z
1/2+x,1/2+y,1/2+z
1/2-x,-y,1/2+z
1/2+x,1/2-y,-z
-x,1/2+y,1/2-z
1/2-x,1/2-y,1/2-z
1/2+x,y,1/2-z
1/2-x,1/2+y,z
x,1/2-y,1/2+z
loop_
_atom_site_type_symbol
_atom_site_label
_atom_site_fract_x
_atom_site_fract_y
_atom_site_fract_z
Si Si1 0.821661 0.774867 0.100310
Si Si2 0.928037 0.428250 0.284619
Si Si3 0.500000 0.250000 0.986236
Si Si4 0.069534 0.379336 0.074723
Si Si5 0.243638 0.851980 0.173875
O O1 0.815895 0.698014 0.089955
O O2 0.803069 0.805811 0.236971
O O3 0.926765 0.790373 0.069052
O O4 0.750000 0.805727 0.000000
O O5 0.909064 0.500000 0.250000
O O6 0.954543 0.411852 0.435154
O O7 0.830345 0.395087 0.251804
O O8 0.010604 0.409669 0.189585
O O9 0.448688 0.304251 0.906163
O O10 0.179634 0.391917 0.094200
#
# Coordination Sequence:
#
# PCOD8296856 Si02
#       5
#    16  16   8  16  16
#     4  11  21  40  64 104 145 181 230 291 362 436
#     4  12  27  49  72 103 143 196 246 291 350 432
#     4  12  22  40  72 104 148 178 226 302 366 422
#     4  12  26  46  73 108 143 190 236 306 360 427
#     4  11  24  42  69 100 144 185 236 293 362 416
#
# _framework density 22.603701000000001
#
# number of rings (size 3 to 8) (size 9 to 14) (size 15 to 20)
#    0.000    0.444    4.444    4.000    3.111    1.778 
#    0.000    8.889    0.000    0.000    0.000    0.000 
#    0.000    0.000    0.000    0.000    0.000    0.000 
#
# Total GULP energy -446031.662531 kJ/mol
# GULP energy per Si atom -12389.768404 kJ/mol
# Density = 2.255225 g / cm^3
# Si number density = 22.603701 Si / 1000 Ang^3
#
#
#
# Elastic Constant Matrix: (Units=GPa)
#
#
# Indices 1 2 3 4 5 6 
#
# 1 164.3461 24.9772 46.9426 0.0000 0.0000 0.0000
# 2 24.9772 96.7958 26.8412 0.0000 0.0000 0.0000
# 3 46.9426 26.8412 105.8973 0.0000 0.0000 0.0000
# 4 0.0000 0.0000 0.0000 27.5762 0.0000 0.0000
# 5 0.0000 0.0000 0.0000 0.0000 32.6314 0.0000
# 6 0.0000 0.0000 0.0000 0.0000 0.0000 27.6293
#
#
#
# Elastic Compliance Matrix: (Units=1/GPa)
#
#
# Indices 1 2 3 4 5 6 
#
# 1 0.007060 -0.001026 -0.002870 0.000000 0.000000 0.000000
# 2 -0.001026 0.011261 -0.002399 0.000000 0.000000 0.000000
# 3 -0.002870 -0.002399 0.011323 0.000000 0.000000 0.000000
# 4 0.000000 0.000000 0.000000 0.036263 0.000000 0.000000
# 5 0.000000 0.000000 0.000000 0.000000 0.030645 0.000000
# 6 0.000000 0.000000 0.000000 0.000000 0.000000 0.036193
#
#
# Mechanical properties :
#
#
# Convention : Reuss Voigt Hill
#
# Bulk Modulus (GPa) = 58.63574 62.72901 60.68238
# Shear Modulus (GPa) = 33.10775 35.45259 34.28017
#
# Velocity S-wave (km/s) = 3.83130 3.96465 3.89855
# Velocity P-wave (km/s) = 6.75047 6.98354 6.86800
#
# Compressibility (1/GPa) = 0.01705444
#
# Stress axis : x y z
#
# Youngs Moduli (GPa) = 141.63641 88.80076 88.31300
#
# Poissons Ratio (x) = 0.09112 0.25343
# Poissons Ratio (y) = 0.14533 0.21190
# Poissons Ratio (z) = 0.40645 0.21307
#
# Static dielectric constant tensor:
#      x y z
#    x 3.777990 0.000000 0.000000 
#    y 0.000000 3.902880 0.000000 
#    z 0.000000 0.000000 3.997700 
# 
# 
# High freq. dielectric constant tensor:
#      x y z
#    x 1.920970 0.000000 0.000000 
#    y 0.000000 1.857680 0.000000 
#    z 0.000000 0.000000 1.894290 
# 
# From -- ./inp_files/10627.got.cif
#   From: 2010.03.12/outbox.cif.g09.slc.cpg/sg73_6_cif.got.tgz:10627.got - 2010.04.16 15:25:48.
