data_PCOD8296531
_publ_section_title
;
Structure prediction by ZEFSAII (Michael W. Deem and Ramdas Pophale) SiO2 
 PCOD8296531
Probable space group: I B C A 
;
_chemical_formula_sum "Si O2"
_cell_formula_units_Z 120
_cell_length_a 29.291969
_cell_length_b 11.717675
_cell_length_c 16.702302
_cell_angle_alpha 90.000000
_cell_angle_beta 90.000000
_cell_angle_gamma 90.000000
_cell_volume 5732.794131
_symmetry_space_group_name_H-M "I B C A "
_symmetry_group_IT_number 73
_symmetry_cell_setting 'orthorhombic'
loop_
_space_group_symop_operation_xyz
x,y,z
-x,1/2-y,z
x,-y,1/2-z
1/2-x,y,-z
-x,-y,-z
x,1/2+y,-z
-x,y,1/2+z
1/2+x,-y,z
1/2+x,1/2+y,1/2+z
1/2-x,-y,1/2+z
1/2+x,1/2-y,-z
-x,1/2+y,1/2-z
1/2-x,1/2-y,1/2-z
1/2+x,y,1/2-z
1/2-x,1/2+y,z
x,1/2-y,1/2+z
loop_
_atom_site_type_symbol
_atom_site_label
_atom_site_fract_x
_atom_site_fract_y
_atom_site_fract_z
Si Si1 0.705634 0.973890 0.657371
Si Si2 0.800700 0.533384 0.401488
Si Si3 0.454022 0.071981 0.985263
Si Si4 0.142388 0.317949 0.855998
Si Si5 0.640528 0.402974 0.051357
Si Si6 0.799761 0.238045 0.712969
Si Si7 0.050795 0.446503 0.832791
Si Si8 0.500000 0.250000 0.576684
O O1 0.695648 0.839139 0.648054
O O2 0.717946 0.000000 0.750000
O O3 0.746027 0.013927 0.597154
O O4 0.659596 0.036491 0.630590
O O5 0.821868 0.410036 0.387012
O O6 0.821549 0.588111 0.481546
O O7 0.810617 0.617738 0.327872
O O8 0.443791 0.056231 0.891219
O O9 0.407036 0.032843 0.028873
O O10 0.461689 0.201710 0.015300
O O11 0.500000 0.000000 0.000000
O O12 0.131209 0.230192 0.928027
O O13 0.163909 0.245672 0.783752
O O14 0.098106 0.381404 0.822401
O O15 0.750000 0.250000 0.750000
O O16 0.033068 0.500000 0.750000
O O17 0.015182 0.354021 0.866931
#
# Coordination Sequence:
#
# PCOD8296531 Si02
#       8
#    16  16  16  16  16  16  16   8
#     4  12  24  45  65  97 141 186 231 283 344 414
#     4  12  25  42  67  99 139 179 234 282 340 413
#     4  10  23  46  71  97 139 185 230 293 366 422
#     4  12  23  42  67  98 139 176 231 286 341 412
#     4  12  26  44  68 104 136 185 235 293 347 424
#     4  12  23  42  68  91 136 189 227 277 345 405
#     4  11  23  42  72 106 136 177 235 291 356 433
#     4  10  22  46  72  96 142 184 220 300 364 432
#
# _framework density 20.932202
#
# number of rings (size 3 to 8) (size 9 to 14) (size 15 to 20)
#    0.000    0.533    6.667    1.600    1.867    0.533 
#    0.000    5.333    0.000    0.000    0.000    0.000 
#    0.000    0.000    0.000    0.000    0.000    0.000 
#
# Total GULP energy -743620.154198 kJ/mol
# GULP energy per Si atom -12393.669237 kJ/mol
# Density = 2.088456 g / cm^3
# Si number density = 20.932202 Si / 1000 Ang^3
#
#
#
# Elastic Constant Matrix: (Units=GPa)
#
#
# Indices 1 2 3 4 5 6 
#
# 1 116.2450 38.4701 52.0137 0.0000 0.0000 0.0000
# 2 38.4701 115.4609 60.9311 0.0000 0.0000 0.0000
# 3 52.0137 60.9311 112.2913 0.0000 0.0000 0.0000
# 4 0.0000 0.0000 0.0000 42.3522 0.0000 0.0000
# 5 0.0000 0.0000 0.0000 0.0000 30.5958 0.0000
# 6 0.0000 0.0000 0.0000 0.0000 0.0000 33.1320
#
#
#
# Elastic Compliance Matrix: (Units=1/GPa)
#
#
# Indices 1 2 3 4 5 6 
#
# 1 0.011004 -0.001368 -0.004354 0.000000 0.000000 0.000000
# 2 -0.001368 0.012306 -0.006044 0.000000 0.000000 0.000000
# 3 -0.004354 -0.006044 0.014202 0.000000 0.000000 0.000000
# 4 0.000000 0.000000 0.000000 0.023612 0.000000 0.000000
# 5 0.000000 0.000000 0.000000 0.000000 0.032684 0.000000
# 6 0.000000 0.000000 0.000000 0.000000 0.000000 0.030182
#
#
# Mechanical properties :
#
#
# Convention : Reuss Voigt Hill
#
# Bulk Modulus (GPa) = 71.53741 71.86966 71.70353
# Shear Modulus (GPa) = 32.85522 34.05481 33.45501
#
# Velocity S-wave (km/s) = 3.96612 4.03787 4.00216
# Velocity P-wave (km/s) = 7.43125 7.49321 7.46229
#
# Compressibility (1/GPa) = 0.01397870
#
# Stress axis : x y z
#
# Youngs Moduli (GPa) = 90.87786 81.25933 70.41327
#
# Poissons Ratio (x) = 0.11119 0.30661
# Poissons Ratio (y) = 0.12435 0.42556
# Poissons Ratio (z) = 0.39573 0.49111
#
# Static dielectric constant tensor:
#      x y z
#    x 3.945260 0.000000 0.000000 
#    y 0.000000 4.241880 0.000000 
#    z 0.000000 0.000000 3.824460 
# 
# 
# High freq. dielectric constant tensor:
#      x y z
#    x 1.822190 0.000000 0.000000 
#    y 0.000000 1.826480 0.000000 
#    z 0.000000 0.000000 1.813220 
# 
# From -- ./inp_files/12249.got.cif
#   From: 2010.03.12/outbox.cif.g09.slc.cpg/sg73_7_cif.got.tgz:12249.got - 2010.04.16 15:25:48.
