data_PCOD8296489
_publ_section_title
;
Structure prediction by ZEFSAII (Michael W. Deem and Ramdas Pophale) SiO2 
 PCOD8296489
Probable space group: I B C A 
;
_chemical_formula_sum "Si O2"
_cell_formula_units_Z 120
_cell_length_a 23.445985
_cell_length_b 10.900395
_cell_length_c 21.026875
_cell_angle_alpha 90.000000
_cell_angle_beta 90.000000
_cell_angle_gamma 90.000000
_cell_volume 5373.848908
_symmetry_space_group_name_H-M "I B C A "
_symmetry_group_IT_number 73
_symmetry_cell_setting 'orthorhombic'
loop_
_space_group_symop_operation_xyz
x,y,z
-x,1/2-y,z
x,-y,1/2-z
1/2-x,y,-z
-x,-y,-z
x,1/2+y,-z
-x,y,1/2+z
1/2+x,-y,z
1/2+x,1/2+y,1/2+z
1/2-x,-y,1/2+z
1/2+x,1/2-y,-z
-x,1/2+y,1/2-z
1/2-x,1/2-y,1/2-z
1/2+x,y,1/2-z
1/2-x,1/2+y,z
x,1/2-y,1/2+z
loop_
_atom_site_type_symbol
_atom_site_label
_atom_site_fract_x
_atom_site_fract_y
_atom_site_fract_z
Si Si1 0.568225 0.554842 0.048346
Si Si2 0.750000 0.751179 0.500000
Si Si3 0.134216 0.307295 0.840537
Si Si4 0.047576 0.477128 0.901655
Si Si5 0.561546 0.758365 0.134414
Si Si6 0.650660 0.862117 0.722169
Si Si7 0.173417 0.403285 0.425621
Si Si8 0.252261 0.094970 0.371499
O O1 0.521617 0.480907 0.092711
O O2 0.558408 0.698484 0.063480
O O3 0.632557 0.517475 0.063933
O O4 0.565952 0.537484 0.973797
O O5 0.804066 0.661018 0.510265
O O6 0.738362 0.830294 0.562918
O O7 0.072898 0.371679 0.854967
O O8 0.140655 0.249241 0.771097
O O9 0.137576 0.196200 0.888568
O O10 0.185808 0.403772 0.852269
O O11 0.077294 0.599643 0.873109
O O12 0.500000 0.750000 0.168589
O O13 0.603192 0.665694 0.170152
O O14 0.712013 0.849019 0.687703
O O15 0.642552 0.000000 0.750000
O O16 0.226930 0.455057 0.383878
#
# Coordination Sequence:
#
# PCOD8296489 Si02
#       8
#    16   8  16  16  16  16  16  16
#     4  10  22  43  69  99 138 179 219 288 367 417
#     4  10  26  38  66 110 132 176 226 288 366 428
#     4  11  26  44  67 105 133 183 246 276 350 423
#     4  10  25  42  67 103 137 174 233 291 352 424
#     4  10  23  46  68  97 137 178 228 288 350 416
#     4  12  24  49  69  98 137 195 236 292 356 420
#     4  11  23  41  67  99 138 172 224 284 355 423
#     4  11  24  44  68  98 142 183 224 292 353 426
#
# _framework density 22.330365
#
# number of rings (size 3 to 8) (size 9 to 14) (size 15 to 20)
#    0.000    1.333    2.667    0.800    9.333    2.133 
#    9.600    0.000    0.000    0.000    0.000    0.000 
#    0.000    0.000    0.000    0.000    0.000    0.000 
#
# Total GULP energy -743304.251318 kJ/mol
# GULP energy per Si atom -12388.404189 kJ/mol
# Density = 2.227954 g / cm^3
# Si number density = 22.330365 Si / 1000 Ang^3
#
#
#
# Elastic Constant Matrix: (Units=GPa)
#
#
# Indices 1 2 3 4 5 6 
#
# 1 66.6016 25.2518 26.0579 0.0000 0.0000 0.0000
# 2 25.2518 107.6363 36.9972 0.0000 0.0000 0.0000
# 3 26.0579 36.9972 97.6764 0.0000 0.0000 0.0000
# 4 0.0000 0.0000 0.0000 25.8248 0.0000 0.0000
# 5 0.0000 0.0000 0.0000 0.0000 26.3201 0.0000
# 6 0.0000 0.0000 0.0000 0.0000 0.0000 39.3495
#
#
#
# Elastic Compliance Matrix: (Units=1/GPa)
#
#
# Indices 1 2 3 4 5 6 
#
# 1 0.017506 -0.002876 -0.003581 0.000000 0.000000 0.000000
# 2 -0.002876 0.011154 -0.003457 0.000000 0.000000 0.000000
# 3 -0.003581 -0.003457 0.012503 0.000000 0.000000 0.000000
# 4 0.000000 0.000000 0.000000 0.038722 0.000000 0.000000
# 5 0.000000 0.000000 0.000000 0.000000 0.037994 0.000000
# 6 0.000000 0.000000 0.000000 0.000000 0.000000 0.025413
#
#
# Mechanical properties :
#
#
# Convention : Reuss Voigt Hill
#
# Bulk Modulus (GPa) = 46.87411 49.83646 48.35529
# Shear Modulus (GPa) = 29.37165 30.53938 29.95551
#
# Velocity S-wave (km/s) = 3.63067 3.70214 3.66658
# Velocity P-wave (km/s) = 6.21389 6.37501 6.29497
#
# Compressibility (1/GPa) = 0.02133374
#
# Stress axis : x y z
#
# Youngs Moduli (GPa) = 57.12278 89.65630 79.98239
#
# Poissons Ratio (x) = 0.25787 0.28640
# Poissons Ratio (y) = 0.16430 0.27653
# Poissons Ratio (z) = 0.20455 0.30998
#
# Static dielectric constant tensor:
#      x y z
#    x 4.084800 0.000000 0.000000 
#    y 0.000000 4.048470 0.000000 
#    z 0.000000 0.000000 4.184560 
# 
# 
# High freq. dielectric constant tensor:
#      x y z
#    x 1.882730 0.000000 0.000000 
#    y 0.000000 1.882390 0.000000 
#    z 0.000000 0.000000 1.871530 
# 
# From -- ./inp_files/27351.got.cif
#   From: 2010.03.12/outbox.cif.g09.slc.cpg/sg73_14_cif.got.tgz:27351.got - 2010.04.16 15:25:48.
