data_PCOD8296583
_publ_section_title
;
Structure prediction by ZEFSAII (Michael W. Deem and Ramdas Pophale) SiO2 
 PCOD8296583
Probable space group: I B C A 
;
_chemical_formula_sum "Si O2"
_cell_formula_units_Z 120
_cell_length_a 24.642138
_cell_length_b 25.578644
_cell_length_c 8.031282
_cell_angle_alpha 90.000000
_cell_angle_beta 90.000000
_cell_angle_gamma 90.000000
_cell_volume 5062.217237
_symmetry_space_group_name_H-M "I B C A "
_symmetry_group_IT_number 73
_symmetry_cell_setting 'orthorhombic'
loop_
_space_group_symop_operation_xyz
x,y,z
-x,1/2-y,z
x,-y,1/2-z
1/2-x,y,-z
-x,-y,-z
x,1/2+y,-z
-x,y,1/2+z
1/2+x,-y,z
1/2+x,1/2+y,1/2+z
1/2-x,-y,1/2+z
1/2+x,1/2-y,-z
-x,1/2+y,1/2-z
1/2-x,1/2-y,1/2-z
1/2+x,y,1/2-z
1/2-x,1/2+y,z
x,1/2-y,1/2+z
loop_
_atom_site_type_symbol
_atom_site_label
_atom_site_fract_x
_atom_site_fract_y
_atom_site_fract_z
Si Si1 0.873821 0.768305 0.729323
Si Si2 0.212653 0.683088 0.166221
Si Si3 0.016852 0.891059 0.414762
Si Si4 0.750000 0.626376 0.000000
Si Si5 0.668359 0.554047 0.817293
Si Si6 0.049037 0.045619 0.369101
Si Si7 0.132144 0.632703 0.959637
Si Si8 0.951167 0.711577 0.946297
O O1 0.816344 0.739064 0.699712
O O2 0.863885 0.811111 0.869944
O O3 0.924160 0.730839 0.775858
O O4 0.898144 0.794616 0.564299
O O5 0.240834 0.663274 0.337594
O O6 0.250000 0.687606 0.000000
O O7 0.167836 0.638605 0.126151
O O8 0.039105 0.898922 0.227372
O O9 0.070962 0.878895 0.521728
O O10 0.988998 0.946295 0.470073
O O11 0.974030 0.845286 0.413577
O O12 0.701709 0.586857 0.952397
O O13 0.696282 0.500000 0.750000
O O14 0.612359 0.538525 0.911643
O O15 0.656847 0.587360 0.652707
O O16 0.028228 0.000000 0.250000
O O17 0.000000 0.750000 0.005144
#
# Coordination Sequence:
#
# PCOD8296583 Si02
#       8
#    16  16  16   8  16  16  16  16
#     4  12  26  44  68 102 145 195 245 298 381 441
#     4  12  28  51  74 106 150 194 257 321 379 459
#     4  11  23  39  71  98 145 190 235 292 366 441
#     4  12  28  48  84 108 142 204 256 312 404 440
#     4  10  24  48  75 107 146 191 256 317 374 450
#     4  10  23  42  68 103 145 190 238 302 367 441
#     4  11  24  48  67 105 150 190 241 318 362 455
#     4  12  24  39  66 104 145 186 243 294 361 452
#
# _framework density 23.705027000000001
#
# number of rings (size 3 to 8) (size 9 to 14) (size 15 to 20)
#    0.000    0.800    4.000    2.400    7.467    1.600 
#    2.400    0.000    0.000    0.800    0.000    0.000 
#    0.000    0.000    0.000    0.000    0.000    0.000 
#
# Total GULP energy -743554.084017 kJ/mol
# GULP energy per Si atom -12392.568067 kJ/mol
# Density = 2.365107 g / cm^3
# Si number density = 23.705027 Si / 1000 Ang^3
#
#
#
# Elastic Constant Matrix: (Units=GPa)
#
#
# Indices 1 2 3 4 5 6 
#
# 1 105.4128 43.9246 42.8172 0.0000 0.0000 0.0000
# 2 43.9246 105.9864 27.5617 0.0000 0.0000 0.0000
# 3 42.8172 27.5617 85.1548 0.0000 0.0000 0.0000
# 4 0.0000 0.0000 0.0000 27.9794 0.0000 0.0000
# 5 0.0000 0.0000 0.0000 0.0000 39.0535 0.0000
# 6 0.0000 0.0000 0.0000 0.0000 0.0000 31.4497
#
#
#
# Elastic Compliance Matrix: (Units=1/GPa)
#
#
# Indices 1 2 3 4 5 6 
#
# 1 0.013410 -0.004154 -0.005398 0.000000 0.000000 0.000000
# 2 -0.004154 0.011589 -0.001662 0.000000 0.000000 0.000000
# 3 -0.005398 -0.001662 0.014996 0.000000 0.000000 0.000000
# 4 0.000000 0.000000 0.000000 0.035741 0.000000 0.000000
# 5 0.000000 0.000000 0.000000 0.000000 0.025606 0.000000
# 6 0.000000 0.000000 0.000000 0.000000 0.000000 0.031797
#
#
# Mechanical properties :
#
#
# Convention : Reuss Voigt Hill
#
# Bulk Modulus (GPa) = 56.92890 58.35122 57.64006
# Shear Modulus (GPa) = 30.97464 31.84655 31.41059
#
# Velocity S-wave (km/s) = 3.61871 3.66929 3.64409
# Velocity P-wave (km/s) = 6.44420 6.52844 6.48646
#
# Compressibility (1/GPa) = 0.01756577
#
# Stress axis : x y z
#
# Youngs Moduli (GPa) = 74.57067 86.28908 66.68555
#
# Poissons Ratio (x) = 0.35843 0.35999
# Poissons Ratio (y) = 0.30975 0.11086
# Poissons Ratio (z) = 0.40256 0.14344
#
# Static dielectric constant tensor:
#      x y z
#    x 4.591150 0.000000 0.000000 
#    y 0.000000 4.299560 0.000000 
#    z 0.000000 0.000000 4.304950 
# 
# 
# High freq. dielectric constant tensor:
#      x y z
#    x 1.948920 0.000000 0.000000 
#    y 0.000000 1.943980 0.000000 
#    z 0.000000 0.000000 1.929490 
# 
# From -- ./inp_files/7376.got.cif
#   From: 2010.03.12/outbox.cif.g09.slc.cpg/sg73_4_cif.got.tgz:7376.got - 2010.04.16 15:25:48.
