data_PCOD8296052
_publ_section_title
;
Structure prediction by ZEFSAII (Michael W. Deem and Ramdas Pophale) SiO2 
 PCOD8296052
Probable space group: I B C A 
;
_chemical_formula_sum "Si O2"
_cell_formula_units_Z 120
_cell_length_a 9.344391
_cell_length_b 23.734477
_cell_length_c 25.154630
_cell_angle_alpha 90.000000
_cell_angle_beta 90.000000
_cell_angle_gamma 90.000000
_cell_volume 5578.900328
_symmetry_space_group_name_H-M "I B C A "
_symmetry_group_IT_number 73
_symmetry_cell_setting 'orthorhombic'
loop_
_space_group_symop_operation_xyz
x,y,z
-x,1/2-y,z
x,-y,1/2-z
1/2-x,y,-z
-x,-y,-z
x,1/2+y,-z
-x,y,1/2+z
1/2+x,-y,z
1/2+x,1/2+y,1/2+z
1/2-x,-y,1/2+z
1/2+x,1/2-y,-z
-x,1/2+y,1/2-z
1/2-x,1/2-y,1/2-z
1/2+x,y,1/2-z
1/2-x,1/2+y,z
x,1/2-y,1/2+z
loop_
_atom_site_type_symbol
_atom_site_label
_atom_site_fract_x
_atom_site_fract_y
_atom_site_fract_z
Si Si1 0.411254 0.430796 0.656400
Si Si2 0.407358 0.947856 0.017914
Si Si3 0.934499 0.134474 0.929605
Si Si4 0.336556 0.183136 0.206061
Si Si5 0.490603 0.809721 0.688831
Si Si6 0.190860 0.987428 0.189002
Si Si7 0.500000 0.250000 0.621069
Si Si8 0.850009 0.400101 0.624249
O O1 0.456834 0.409056 0.598794
O O2 0.411965 0.376417 0.694237
O O3 0.523312 0.478046 0.677689
O O4 0.254591 0.460026 0.654915
O O5 0.425952 0.941647 0.081712
O O6 0.250000 0.965430 0.000000
O O7 0.445738 0.887109 0.990419
O O8 0.500000 0.000000 0.000000
O O9 0.773884 0.130860 0.908141
O O10 0.970867 0.199507 0.920129
O O11 0.397469 0.200504 0.263066
O O12 0.372190 0.230040 0.160624
O O13 0.166565 0.175479 0.210466
O O14 0.500000 0.750000 0.657918
O O15 0.534355 0.857503 0.647482
O O16 0.279642 0.931825 0.174039
O O17 0.218887 0.000000 0.250000
#
# Coordination Sequence:
#
# PCOD8296052 Si02
#       8
#    16  16  16  16  16  16   8  16
#     4  10  23  36  58  88 123 164 213 258 321 375
#     4  10  21  44  70  95 127 170 210 268 330 388
#     4   9  20  40  66  93 123 168 211 267 325 382
#     4  11  25  39  64  92 131 175 218 263 320 397
#     4  12  25  41  65  94 129 174 218 264 320 385
#     4  11  22  37  56  86 126 168 205 266 314 379
#     4  10  20  42  64  92 130 168 222 258 326 394
#     4  10  23  40  65  92 130 165 217 266 321 387
#
# _framework density 21.509616000000001
#
# number of rings (size 3 to 8) (size 9 to 14) (size 15 to 20)
#    0.000    1.600    0.667    3.200    9.333    0.000 
#    6.000    0.000    0.000    0.000    0.000    0.000 
#    0.000    0.000    0.000    0.000    0.000    0.000 
#
# Total GULP energy -743794.080943 kJ/mol
# GULP energy per Si atom -12396.568016 kJ/mol
# Density = 2.146066 g / cm^3
# Si number density = 21.509616 Si / 1000 Ang^3
#
#
#
# Elastic Constant Matrix: (Units=GPa)
#
#
# Indices 1 2 3 4 5 6 
#
# 1 95.5976 43.2131 41.3263 0.0000 0.0000 0.0000
# 2 43.2131 100.9299 36.6322 0.0000 0.0000 0.0000
# 3 41.3263 36.6322 97.9607 0.0000 0.0000 0.0000
# 4 0.0000 0.0000 0.0000 30.6510 0.0000 0.0000
# 5 0.0000 0.0000 0.0000 0.0000 22.6410 0.0000
# 6 0.0000 0.0000 0.0000 0.0000 0.0000 32.7660
#
#
#
# Elastic Compliance Matrix: (Units=1/GPa)
#
#
# Indices 1 2 3 4 5 6 
#
# 1 0.014424 -0.004590 -0.004369 0.000000 0.000000 0.000000
# 2 -0.004590 0.012924 -0.002897 0.000000 0.000000 0.000000
# 3 -0.004369 -0.002897 0.013134 0.000000 0.000000 0.000000
# 4 0.000000 0.000000 0.000000 0.032625 0.000000 0.000000
# 5 0.000000 0.000000 0.000000 0.000000 0.044168 0.000000
# 6 0.000000 0.000000 0.000000 0.000000 0.000000 0.030519
#
#
# Mechanical properties :
#
#
# Convention : Reuss Voigt Hill
#
# Bulk Modulus (GPa) = 59.62267 59.64795 59.63531
# Shear Modulus (GPa) = 28.23325 28.76603 28.49964
#
# Velocity S-wave (km/s) = 3.62689 3.66096 3.64397
# Velocity P-wave (km/s) = 6.73189 6.75730 6.74461
#
# Compressibility (1/GPa) = 0.01677214
#
# Stress axis : x y z
#
# Youngs Moduli (GPa) = 69.32968 77.37289 76.13644
#
# Poissons Ratio (x) = 0.35514 0.33260
# Poissons Ratio (y) = 0.31822 0.22054
# Poissons Ratio (z) = 0.30287 0.22413
#
# Static dielectric constant tensor:
#      x y z
#    x 3.919190 0.000000 0.000000 
#    y 0.000000 4.000610 0.000000 
#    z 0.000000 0.000000 3.866210 
# 
# 
# High freq. dielectric constant tensor:
#      x y z
#    x 1.843910 0.000000 0.000000 
#    y 0.000000 1.855390 0.000000 
#    z 0.000000 0.000000 1.826890 
# 
# From -- ./inp_files/28533.got.cif
#   From: 2010.03.12/outbox.cif.g09.slc.cpg/sg73_15_cif.got.tgz:28533.got - 2010.04.16 15:25:48.
