data_PCOD8296962
_publ_section_title
;
Structure prediction by ZEFSAII (Michael W. Deem and Ramdas Pophale) SiO2 
 PCOD8296962
Probable space group: I B C A 
;
_chemical_formula_sum "Si O2"
_cell_formula_units_Z 80
_cell_length_a 16.033392
_cell_length_b 24.000945
_cell_length_c 9.752576
_cell_angle_alpha 90.000000
_cell_angle_beta 90.000000
_cell_angle_gamma 90.000000
_cell_volume 3752.952743
_symmetry_space_group_name_H-M "I B C A "
_symmetry_group_IT_number 73
_symmetry_cell_setting 'orthorhombic'
loop_
_space_group_symop_operation_xyz
x,y,z
-x,1/2-y,z
x,-y,1/2-z
1/2-x,y,-z
-x,-y,-z
x,1/2+y,-z
-x,y,1/2+z
1/2+x,-y,z
1/2+x,1/2+y,1/2+z
1/2-x,-y,1/2+z
1/2+x,1/2-y,-z
-x,1/2+y,1/2-z
1/2-x,1/2-y,1/2-z
1/2+x,y,1/2-z
1/2-x,1/2+y,z
x,1/2-y,1/2+z
loop_
_atom_site_type_symbol
_atom_site_label
_atom_site_fract_x
_atom_site_fract_y
_atom_site_fract_z
Si Si1 0.893221 0.472496 0.385092
Si Si2 0.096732 0.350698 0.957387
Si Si3 0.306034 0.744495 0.880950
Si Si4 0.434825 0.842627 0.278011
Si Si5 0.590963 0.959979 0.864050
O O1 0.852529 0.500000 0.250000
O O2 0.860304 0.411286 0.430287
O O3 0.869492 0.519668 0.494717
O O4 0.991630 0.465353 0.368082
O O5 0.167615 0.304857 0.937705
O O6 0.026824 0.340394 0.841670
O O7 0.059046 0.345245 0.111866
O O8 0.250000 0.750000 0.750000
O O9 0.387315 0.710241 0.838556
O O10 0.250000 0.715648 0.000000
O O11 0.384503 0.896644 0.331468
O O12 0.629490 0.000000 0.750000
#
# Coordination Sequence:
#
# PCOD8296962 Si02
#       5
#    16  16  16  16  16
#     4   9  18  31  56  93 129 160 197 251 313 370
#     4  11  24  41  65  97 130 161 211 266 310 369
#     4  12  27  46  66  86 124 173 215 261 321 374
#     4  11  24  40  66  97 128 163 212 264 310 373
#     4   9  16  31  56  89 127 158 194 245 316 366
#
# _framework density 21.316548999999998
#
# number of rings (size 3 to 8) (size 9 to 14) (size 15 to 20)
#    0.000    1.600    4.000    0.600   11.200    1.600 
#    0.000    0.000    0.000    7.200    0.000    0.000 
#    0.000    0.000    0.000    0.000    0.000    0.000 
#
# Total GULP energy -495793.220583 kJ/mol
# GULP energy per Si atom -12394.830515 kJ/mol
# Density = 2.126803 g / cm^3
# Si number density = 21.316549 Si / 1000 Ang^3
#
#
#
# Elastic Constant Matrix: (Units=GPa)
#
#
# Indices 1 2 3 4 5 6 
#
# 1 33.5425 15.9223 22.1609 0.0000 0.0000 0.0000
# 2 15.9223 121.9895 46.6349 0.0000 0.0000 0.0000
# 3 22.1609 46.6349 175.2442 -0.0002 0.0001 -0.0002
# 4 0.0000 0.0000 -0.0002 38.1524 0.0000 0.0000
# 5 0.0000 0.0000 0.0001 0.0000 28.2359 0.0000
# 6 0.0000 0.0000 -0.0002 0.0000 0.0000 7.1005
#
#
#
# Elastic Compliance Matrix: (Units=1/GPa)
#
#
# Indices 1 2 3 4 5 6 
#
# 1 0.033531 -0.003068 -0.003424 0.000000 0.000000 0.000000
# 2 -0.003068 0.009406 -0.002115 0.000000 0.000000 0.000000
# 3 -0.003424 -0.002115 0.006702 0.000000 0.000000 0.000000
# 4 0.000000 0.000000 0.000000 0.026211 0.000000 0.000000
# 5 0.000000 0.000000 0.000000 0.000000 0.035416 0.000000
# 6 0.000000 0.000000 0.000000 0.000000 0.000000 0.140834
#
#
# Mechanical properties :
#
#
# Convention : Reuss Voigt Hill
#
# Bulk Modulus (GPa) = 30.83921 55.57915 43.20918
# Shear Modulus (GPa) = 17.84929 31.10165 24.47547
#
# Velocity S-wave (km/s) = 2.89683 3.82388 3.39217
# Velocity P-wave (km/s) = 5.06828 6.75470 5.97132
#
# Compressibility (1/GPa) = 0.03242625
#
# Stress axis : x y z
#
# Youngs Moduli (GPa) = 29.82293 106.30995 149.20468
#
# Poissons Ratio (x) = 0.32612 0.51086
# Poissons Ratio (y) = 0.09149 0.31561
# Poissons Ratio (z) = 0.10211 0.22487
#
# Static dielectric constant tensor:
#      x y z
#    x 2.549420 0.000010 0.000050 
#    y 0.000010 3.345340 -0.000200 
#    z 0.000050 -0.000200 8.370000 
# 
# 
# High freq. dielectric constant tensor:
#      x y z
#    x 1.787450 0.000000 0.000000 
#    y 0.000000 1.848990 0.000000 
#    z 0.000000 0.000000 1.858720 
# 
# From -- ./inp_files/5582.got.cif
#   From: 2010.03.12/outbox.cif.g09.slc.cpg/sg73_3_cif.got.tgz:5582.got - 2010.04.16 15:25:48.
