data_PCOD8296894
_publ_section_title
;
Structure prediction by ZEFSAII (Michael W. Deem and Ramdas Pophale) SiO2 
 PCOD8296894
Probable space group: I B C A 
;
_chemical_formula_sum "Si O2"
_cell_formula_units_Z 96
_cell_length_a 18.160594
_cell_length_b 16.813469
_cell_length_c 13.955378
_cell_angle_alpha 90.000000
_cell_angle_beta 90.000000
_cell_angle_gamma 90.000000
_cell_volume 4261.171183
_symmetry_space_group_name_H-M "I B C A "
_symmetry_group_IT_number 73
_symmetry_cell_setting 'orthorhombic'
loop_
_space_group_symop_operation_xyz
x,y,z
-x,1/2-y,z
x,-y,1/2-z
1/2-x,y,-z
-x,-y,-z
x,1/2+y,-z
-x,y,1/2+z
1/2+x,-y,z
1/2+x,1/2+y,1/2+z
1/2-x,-y,1/2+z
1/2+x,1/2-y,-z
-x,1/2+y,1/2-z
1/2-x,1/2-y,1/2-z
1/2+x,y,1/2-z
1/2-x,1/2+y,z
x,1/2-y,1/2+z
loop_
_atom_site_type_symbol
_atom_site_label
_atom_site_fract_x
_atom_site_fract_y
_atom_site_fract_z
Si Si1 0.805219 0.084951 0.780529
Si Si2 0.901930 0.680214 0.352245
Si Si3 0.559798 0.099375 0.534503
Si Si4 0.841493 0.353929 0.640148
Si Si5 0.392006 0.937189 0.969545
Si Si6 0.469069 0.910357 0.250495
O O1 0.836055 0.125082 0.684965
O O2 0.740797 0.140888 0.820278
O O3 0.871202 0.073380 0.858010
O O4 0.772217 0.000000 0.750000
O O5 0.913749 0.672045 0.466960
O O6 0.878325 0.770110 0.333658
O O7 0.975035 0.654455 0.293744
O O8 0.475890 0.083169 0.507031
O O9 0.560439 0.120308 0.646507
O O10 0.615629 0.028100 0.505210
O O11 0.839101 0.376787 0.527765
O O12 0.896002 0.419052 0.686446
O O13 0.504499 0.000000 0.250000
#
# Coordination Sequence:
#
# PCOD8296894 Si02
#       6
#    16  16  16  16  16  16
#     4  12  25  46  75 104 144 199 243 290 364 448
#     4  12  25  46  70 105 146 185 240 308 361 427
#     4  11  22  41  74 106 133 181 252 295 352 430
#     4  12  27  44  67 107 152 186 236 302 371 427
#     4  11  22  43  73 102 138 187 241 300 353 427
#     4  12  22  43  74 104 141 187 244 299 359 439
#
# _framework density 22.529018000000001
#
# number of rings (size 3 to 8) (size 9 to 14) (size 15 to 20)
#    0.000    0.333    6.667    3.500    0.000    1.333 
#    3.000    2.500    0.000    0.000    0.000    0.000 
#    0.000    0.000    0.000    0.000    0.000    0.000 
#
# Total GULP energy -595089.840298 kJ/mol
# GULP energy per Si atom -12397.705006 kJ/mol
# Density = 2.247774 g / cm^3
# Si number density = 22.529018 Si / 1000 Ang^3
#
#
#
# Elastic Constant Matrix: (Units=GPa)
#
#
# Indices 1 2 3 4 5 6 
#
# 1 88.3058 37.3903 25.7096 0.0000 0.0000 0.0000
# 2 37.3903 95.6682 33.9416 0.0000 0.0000 0.0000
# 3 25.7096 33.9416 133.9432 0.0000 0.0000 0.0000
# 4 0.0000 0.0000 0.0000 26.1189 0.0000 0.0000
# 5 0.0000 0.0000 0.0000 0.0000 28.8855 0.0000
# 6 0.0000 0.0000 0.0000 0.0000 0.0000 30.1218
#
#
#
# Elastic Compliance Matrix: (Units=1/GPa)
#
#
# Indices 1 2 3 4 5 6 
#
# 1 0.013808 -0.004897 -0.001410 0.000000 0.000000 0.000000
# 2 -0.004897 0.013222 -0.002411 0.000000 0.000000 0.000000
# 3 -0.001410 -0.002411 0.008347 0.000000 0.000000 0.000000
# 4 0.000000 0.000000 0.000000 0.038286 0.000000 0.000000
# 5 0.000000 0.000000 0.000000 0.000000 0.034619 0.000000
# 6 0.000000 0.000000 0.000000 0.000000 0.000000 0.033199
#
#
# Mechanical properties :
#
#
# Convention : Reuss Voigt Hill
#
# Bulk Modulus (GPa) = 55.73000 56.88891 56.30945
# Shear Modulus (GPa) = 30.32215 31.75028 31.03621
#
# Velocity S-wave (km/s) = 3.67265 3.75814 3.71564
# Velocity P-wave (km/s) = 6.54027 6.64362 6.59215
#
# Compressibility (1/GPa) = 0.01794366
#
# Stress axis : x y z
#
# Youngs Moduli (GPa) = 72.42208 75.63296 119.79986
#
# Poissons Ratio (x) = 0.37034 0.16887
# Poissons Ratio (y) = 0.35462 0.28879
# Poissons Ratio (z) = 0.10208 0.18232
#
# Static dielectric constant tensor:
#      x y z
#    x 3.834010 0.000000 0.000000 
#    y 0.000000 3.844740 0.000000 
#    z 0.000000 0.000000 4.199080 
# 
# 
# High freq. dielectric constant tensor:
#      x y z
#    x 1.876860 0.000000 0.000000 
#    y 0.000000 1.874640 0.000000 
#    z 0.000000 0.000000 1.901560 
# 
# From -- ./inp_files/18622.got.cif
#   From: 2010.03.12/outbox.cif.g09.slc.cpg/sg73_10_cif.got.tgz:18622.got - 2010.04.16 15:25:48.
