data_PCOD8296938
_publ_section_title
;
Structure prediction by ZEFSAII (Michael W. Deem and Ramdas Pophale) SiO2 
 PCOD8296938
Probable space group: I B C A 
;
_chemical_formula_sum "Si O2"
_cell_formula_units_Z 104
_cell_length_a 9.084293
_cell_length_b 26.045901
_cell_length_c 21.337008
_cell_angle_alpha 90.000000
_cell_angle_beta 90.000000
_cell_angle_gamma 90.000000
_cell_volume 5048.519509
_symmetry_space_group_name_H-M "I B C A "
_symmetry_group_IT_number 73
_symmetry_cell_setting 'orthorhombic'
loop_
_space_group_symop_operation_xyz
x,y,z
-x,1/2-y,z
x,-y,1/2-z
1/2-x,y,-z
-x,-y,-z
x,1/2+y,-z
-x,y,1/2+z
1/2+x,-y,z
1/2+x,1/2+y,1/2+z
1/2-x,-y,1/2+z
1/2+x,1/2-y,-z
-x,1/2+y,1/2-z
1/2-x,1/2-y,1/2-z
1/2+x,y,1/2-z
1/2-x,1/2+y,z
x,1/2-y,1/2+z
loop_
_atom_site_type_symbol
_atom_site_label
_atom_site_fract_x
_atom_site_fract_y
_atom_site_fract_z
Si Si1 0.225967 0.754390 0.677350
Si Si2 0.112279 0.536476 0.321650
Si Si3 0.591532 0.546076 0.030633
Si Si4 0.054695 0.064174 0.290158
Si Si5 0.574784 0.342055 0.498452
Si Si6 0.500000 0.750000 0.592799
Si Si7 0.981394 0.830450 0.638718
O O1 0.250000 0.750000 0.750000
O O2 0.369770 0.766153 0.638261
O O3 0.166798 0.699894 0.654134
O O4 0.118975 0.802224 0.668579
O O5 0.105290 0.546065 0.394935
O O6 0.277974 0.544774 0.295858
O O7 0.063315 0.477807 0.312920
O O8 0.996026 0.573070 0.282815
O O9 0.750000 0.542508 0.000000
O O10 0.500000 0.500000 0.000000
O O11 0.516043 0.600936 0.017174
O O12 0.032323 0.113224 0.333339
O O13 0.750000 0.341883 0.500000
O O14 0.524115 0.299937 0.449094
O O15 0.500161 0.329277 0.564360
#
# Coordination Sequence:
#
# PCOD8296938 Si02
#       7
#    16  16  16  16  16   8  16
#     4  11  26  45  67 100 134 171 228 287 337 408
#     4  11  23  43  67 101 137 180 230 279 336 409
#     4  11  24  44  68  99 138 180 226 279 338 407
#     4  11  24  43  71  98 139 181 225 281 342 406
#     4  11  23  43  71  96 136 182 219 283 341 408
#     4  12  24  44  72 100 130 182 236 274 350 418
#     4  11  24  45  68  96 139 174 221 282 346 398
#
# _framework density 20.600100000000001
#
# number of rings (size 3 to 8) (size 9 to 14) (size 15 to 20)
#    0.000    0.923    1.538    7.385    2.154    1.231 
#    8.308    0.000    0.000    0.000    0.000    0.000 
#    0.000    0.000    0.000    0.000    0.000    0.000 
#
# Total GULP energy -644615.494902 kJ/mol
# GULP energy per Si atom -12396.451825 kJ/mol
# Density = 2.055321 g / cm^3
# Si number density = 20.600100 Si / 1000 Ang^3
#
#
#
# Elastic Constant Matrix: (Units=GPa)
#
#
# Indices 1 2 3 4 5 6 
#
# 1 117.4032 56.3425 65.5267 0.0000 0.0000 0.0000
# 2 56.3425 136.3551 46.6602 0.0000 0.0000 0.0000
# 3 65.5267 46.6602 185.5844 -0.0001 0.0000 0.0000
# 4 0.0000 0.0000 -0.0001 40.9829 0.0000 0.0000
# 5 0.0000 0.0000 0.0000 0.0000 34.0800 0.0000
# 6 0.0000 0.0000 0.0000 0.0000 0.0000 22.1640
#
#
#
# Elastic Compliance Matrix: (Units=1/GPa)
#
#
# Indices 1 2 3 4 5 6 
#
# 1 0.012268 -0.003925 -0.003345 0.000000 0.000000 0.000000
# 2 -0.003925 0.009280 -0.000947 0.000000 0.000000 0.000000
# 3 -0.003345 -0.000947 0.006808 0.000000 0.000000 0.000000
# 4 0.000000 0.000000 0.000000 0.024400 0.000000 0.000000
# 5 0.000000 0.000000 0.000000 0.000000 0.029343 0.000000
# 6 0.000000 0.000000 0.000000 0.000000 0.000000 0.045118
#
#
# Mechanical properties :
#
#
# Convention : Reuss Voigt Hill
#
# Bulk Modulus (GPa) = 83.88221 86.26684 85.07452
# Shear Modulus (GPa) = 33.86978 37.49959 35.68469
#
# Velocity S-wave (km/s) = 4.05922 4.27120 4.16656
# Velocity P-wave (km/s) = 7.92322 8.14199 8.03335
#
# Compressibility (1/GPa) = 0.01192148
#
# Stress axis : x y z
#
# Youngs Moduli (GPa) = 81.51313 107.76278 146.89450
#
# Poissons Ratio (x) = 0.42292 0.49134
# Poissons Ratio (y) = 0.31990 0.13917
# Poissons Ratio (z) = 0.27265 0.10210
#
# Static dielectric constant tensor:
#      x y z
#    x 3.614220 0.000000 -0.000010 
#    y 0.000000 3.678860 0.000000 
#    z -0.000010 0.000000 4.098110 
# 
# 
# High freq. dielectric constant tensor:
#      x y z
#    x 1.806820 0.000000 0.000000 
#    y 0.000000 1.815520 0.000000 
#    z 0.000000 0.000000 1.831500 
# 
# From -- ./inp_files/24970.got.cif
#   From: 2010.03.12/outbox.cif.g09.slc.cpg/sg73_13_cif.got.tgz:24970.got - 2010.04.16 15:25:48.
