data_PCOD8296352
_publ_section_title
;
Structure prediction by ZEFSAII (Michael W. Deem and Ramdas Pophale) SiO2 
 PCOD8296352
Probable space group: I B C A 
;
_chemical_formula_sum "Si O2"
_cell_formula_units_Z 80
_cell_length_a 8.903495
_cell_length_b 17.936876
_cell_length_c 22.137113
_cell_angle_alpha 90.000000
_cell_angle_beta 90.000000
_cell_angle_gamma 90.000000
_cell_volume 3535.316555
_symmetry_space_group_name_H-M "I B C A "
_symmetry_group_IT_number 73
_symmetry_cell_setting 'orthorhombic'
loop_
_space_group_symop_operation_xyz
x,y,z
-x,1/2-y,z
x,-y,1/2-z
1/2-x,y,-z
-x,-y,-z
x,1/2+y,-z
-x,y,1/2+z
1/2+x,-y,z
1/2+x,1/2+y,1/2+z
1/2-x,-y,1/2+z
1/2+x,1/2-y,-z
-x,1/2+y,1/2-z
1/2-x,1/2-y,1/2-z
1/2+x,y,1/2-z
1/2-x,1/2+y,z
x,1/2-y,1/2+z
loop_
_atom_site_type_symbol
_atom_site_label
_atom_site_fract_x
_atom_site_fract_y
_atom_site_fract_z
Si Si1 0.880376 0.010423 0.316698
Si Si2 0.750000 0.057581 0.500000
Si Si3 0.500000 0.250000 0.770091
Si Si4 0.842853 0.052588 0.893940
Si Si5 0.038680 0.328995 0.441116
Si Si6 0.282420 0.170044 0.178757
O O1 0.766997 0.080988 0.316395
O O2 0.005880 0.020855 0.366134
O O3 0.947763 0.000000 0.250000
O O4 0.780966 0.940382 0.340474
O O5 0.891416 0.111455 0.487499
O O6 0.785963 0.005350 0.556255
O O7 0.383376 0.204245 0.811967
O O8 0.596284 0.194641 0.728696
O O9 0.880610 0.134847 0.918713
O O10 0.153492 0.308957 0.387038
O O11 0.000000 0.250000 0.473223
#
# Coordination Sequence:
#
# PCOD8296352 Si02
#       6
#    16   8   8  16  16  16
#     4  11  25  40  69 102 133 177 229 279 337 413
#     4  12  24  50  70 100 134 186 236 282 344 402
#     4  10  22  38  68  90 138 190 206 284 350 402
#     4  11  24  45  72  99 139 178 227 287 340 410
#     4  11  25  46  67 100 138 175 230 288 337 410
#     4  10  22  41  62  96 135 174 227 271 337 412
#
# _framework density 22.628810000000001
#
# number of rings (size 3 to 8) (size 9 to 14) (size 15 to 20)
#    0.000    1.200    5.000    1.200    8.400    0.800 
#    1.800    0.000    0.000    0.000    0.000    0.000 
#    0.000    0.000    0.000    0.000    0.000    0.000 
#
# Total GULP energy -495866.680120 kJ/mol
# GULP energy per Si atom -12396.667003 kJ/mol
# Density = 2.257731 g / cm^3
# Si number density = 22.628810 Si / 1000 Ang^3
#
#
#
# Elastic Constant Matrix: (Units=GPa)
#
#
# Indices 1 2 3 4 5 6 
#
# 1 70.7212 29.0903 13.0616 0.0000 0.0000 0.0000
# 2 29.0903 97.1947 24.2347 0.0000 0.0000 0.0000
# 3 13.0616 24.2347 80.9184 0.0000 0.0000 0.0000
# 4 0.0000 0.0000 0.0000 17.1752 0.0000 0.0000
# 5 0.0000 0.0000 0.0000 0.0000 15.0492 0.0000
# 6 0.0000 0.0000 0.0000 0.0000 0.0000 38.9193
#
#
#
# Elastic Compliance Matrix: (Units=1/GPa)
#
#
# Indices 1 2 3 4 5 6 
#
# 1 0.016243 -0.004547 -0.001260 0.000000 0.000000 0.000000
# 2 -0.004547 0.012392 -0.002977 0.000000 0.000000 0.000000
# 3 -0.001260 -0.002977 0.013453 0.000000 0.000000 0.000000
# 4 0.000000 0.000000 0.000000 0.058224 0.000000 0.000000
# 5 0.000000 0.000000 0.000000 0.000000 0.066449 0.000000
# 6 0.000000 0.000000 0.000000 0.000000 0.000000 0.025694
#
#
# Mechanical properties :
#
#
# Convention : Reuss Voigt Hill
#
# Bulk Modulus (GPa) = 40.78470 42.40084 41.59277
# Shear Modulus (GPa) = 22.91502 26.39191 24.65347
#
# Velocity S-wave (km/s) = 3.18567 3.41881 3.30430
# Velocity P-wave (km/s) = 5.62083 5.86196 5.74266
#
# Compressibility (1/GPa) = 0.02451900
#
# Stress axis : x y z
#
# Youngs Moduli (GPa) = 61.56393 80.69701 74.33172
#
# Poissons Ratio (x) = 0.36696 0.09366
# Poissons Ratio (y) = 0.27996 0.22131
# Poissons Ratio (z) = 0.07757 0.24026
#
# Static dielectric constant tensor:
#      x y z
#    x 4.148090 0.000000 0.000000 
#    y 0.000000 4.315070 0.000000 
#    z 0.000000 0.000000 4.081930 
# 
# 
# High freq. dielectric constant tensor:
#      x y z
#    x 1.891770 0.000000 0.000000 
#    y 0.000000 1.891350 0.000000 
#    z 0.000000 0.000000 1.888490 
# 
# From -- ./inp_files/7012.got.cif
#   From: 2010.03.12/outbox.cif.g09.slc.cpg/sg73_4_cif.got.tgz:7012.got - 2010.04.16 15:25:48.
