data_PCOD8296561
_publ_section_title
;
Structure prediction by ZEFSAII (Michael W. Deem and Ramdas Pophale) SiO2 
 PCOD8296561
Probable space group: I B C A 
;
_chemical_formula_sum "Si O2"
_cell_formula_units_Z 120
_cell_length_a 24.574010
_cell_length_b 8.681714
_cell_length_c 29.284741
_cell_angle_alpha 90.000000
_cell_angle_beta 90.000000
_cell_angle_gamma 90.000000
_cell_volume 6247.739207
_symmetry_space_group_name_H-M "I B C A "
_symmetry_group_IT_number 73
_symmetry_cell_setting 'orthorhombic'
loop_
_space_group_symop_operation_xyz
x,y,z
-x,1/2-y,z
x,-y,1/2-z
1/2-x,y,-z
-x,-y,-z
x,1/2+y,-z
-x,y,1/2+z
1/2+x,-y,z
1/2+x,1/2+y,1/2+z
1/2-x,-y,1/2+z
1/2+x,1/2-y,-z
-x,1/2+y,1/2-z
1/2-x,1/2-y,1/2-z
1/2+x,y,1/2-z
1/2-x,1/2+y,z
x,1/2-y,1/2+z
loop_
_atom_site_type_symbol
_atom_site_label
_atom_site_fract_x
_atom_site_fract_y
_atom_site_fract_z
Si Si1 0.302914 0.340842 0.552006
Si Si2 0.344820 0.189077 0.641239
Si Si3 0.761418 0.000000 0.250000
Si Si4 0.768565 0.758246 0.313528
Si Si5 0.858728 0.664763 0.374327
Si Si6 0.941556 0.178629 0.300657
Si Si7 0.558400 0.318154 0.304256
Si Si8 0.815046 0.795450 0.458582
O O1 0.334568 0.298133 0.598008
O O2 0.240082 0.293395 0.555045
O O3 0.331595 0.251249 0.509994
O O4 0.306458 0.522974 0.544772
O O5 0.293809 0.198046 0.675725
O O6 0.397700 0.243040 0.667454
O O7 0.357801 0.018378 0.623722
O O8 0.796580 0.094678 0.212581
O O9 0.724016 0.118539 0.278103
O O10 0.799023 0.724502 0.359857
O O11 0.901580 0.730628 0.338570
O O12 0.863895 0.736637 0.425150
O O13 0.925472 0.214293 0.248223
O O14 0.000000 0.250000 0.312135
O O15 0.942695 0.999369 0.312889
O O16 0.500000 0.250000 0.315514
#
# Coordination Sequence:
#
# PCOD8296561 Si02
#       8
#    16  16   8  16  16  16  16  16
#     4  11  22  38  59  85 119 155 194 241 296 355
#     4  12  24  37  59  86 119 155 199 243 292 353
#     4  10  24  38  48  74 120 162 192 238 286 354
#     4  11  24  36  53  80 118 156 199 234 293 346
#     4  12  24  37  59  86 119 155 199 243 292 353
#     4  10  23  41  62  86 117 157 203 249 296 346
#     4  10  23  41  62  86 117 157 203 249 296 346
#     4  11  22  38  59  85 119 155 194 241 296 355
#
# _framework density 19.206949000000002
#
# number of rings (size 3 to 8) (size 9 to 14) (size 15 to 20)
#    0.000    1.067    2.667    4.800    7.467    1.600 
#    0.000    0.000    0.000    0.800    0.000    5.600 
#    0.000    0.000    0.000    0.000    0.000    0.000 
#
# Total GULP energy -743822.585159 kJ/mol
# GULP energy per Si atom -12397.043086 kJ/mol
# Density = 1.916323 g / cm^3
# Si number density = 19.206949 Si / 1000 Ang^3
#
#
#
# Elastic Constant Matrix: (Units=GPa)
#
#
# Indices 1 2 3 4 5 6 
#
# 1 71.9323 33.4361 40.9079 0.0000 0.0000 0.0000
# 2 33.4361 153.4500 50.7484 0.0000 0.0000 0.0000
# 3 40.9079 50.7484 119.5110 0.0000 0.0000 0.0000
# 4 0.0000 0.0000 0.0000 37.0442 0.0000 0.0000
# 5 0.0000 0.0000 0.0000 0.0000 20.6199 0.0000
# 6 0.0000 0.0000 0.0000 0.0000 0.0000 25.0112
#
#
#
# Elastic Compliance Matrix: (Units=1/GPa)
#
#
# Indices 1 2 3 4 5 6 
#
# 1 0.017866 -0.002176 -0.005191 0.000000 0.000000 0.000000
# 2 -0.002176 0.007847 -0.002587 0.000000 0.000000 0.000000
# 3 -0.005191 -0.002587 0.011243 0.000000 0.000000 0.000000
# 4 0.000000 0.000000 0.000000 0.026995 0.000000 0.000000
# 5 0.000000 0.000000 0.000000 0.000000 0.048497 0.000000
# 6 0.000000 0.000000 0.000000 0.000000 0.000000 0.039982
#
#
# Mechanical properties :
#
#
# Convention : Reuss Voigt Hill
#
# Bulk Modulus (GPa) = 58.66342 66.11980 62.39161
# Shear Modulus (GPa) = 28.08677 31.18846 29.63761
#
# Velocity S-wave (km/s) = 3.82818 4.03403 3.93245
# Velocity P-wave (km/s) = 7.08160 7.49650 7.29200
#
# Compressibility (1/GPa) = 0.01704640
#
# Stress axis : x y z
#
# Youngs Moduli (GPa) = 55.97302 127.44522 88.94471
#
# Poissons Ratio (x) = 0.27732 0.46174
# Poissons Ratio (y) = 0.12180 0.23010
# Poissons Ratio (z) = 0.29057 0.32971
#
# Static dielectric constant tensor:
#      x y z
#    x 3.228800 0.000000 0.000000 
#    y 0.000000 3.824740 0.000000 
#    z 0.000000 0.000000 3.750270 
# 
# 
# High freq. dielectric constant tensor:
#      x y z
#    x 1.705390 0.000000 0.000000 
#    y 0.000000 1.775590 0.000000 
#    z 0.000000 0.000000 1.759250 
# 
# From -- ./inp_files/34816.got.cif
#   From: 2010.03.12/outbox.cif.g09.slc.cpg/sg73_18_cif.got.tgz:34816.got - 2010.04.16 15:25:48.
