data_PCOD8296828
_publ_section_title
;
Structure prediction by ZEFSAII (Michael W. Deem and Ramdas Pophale) SiO2 
 PCOD8296828
Probable space group: I B C A 
;
_chemical_formula_sum "Si O2"
_cell_formula_units_Z 40
_cell_length_a 19.600580
_cell_length_b 8.215919
_cell_length_c 9.059134
_cell_angle_alpha 90.000000
_cell_angle_beta 90.000000
_cell_angle_gamma 90.000000
_cell_volume 1458.853748
_symmetry_space_group_name_H-M "I B C A "
_symmetry_group_IT_number 73
_symmetry_cell_setting 'orthorhombic'
loop_
_space_group_symop_operation_xyz
x,y,z
-x,1/2-y,z
x,-y,1/2-z
1/2-x,y,-z
-x,-y,-z
x,1/2+y,-z
-x,y,1/2+z
1/2+x,-y,z
1/2+x,1/2+y,1/2+z
1/2-x,-y,1/2+z
1/2+x,1/2-y,-z
-x,1/2+y,1/2-z
1/2-x,1/2-y,1/2-z
1/2+x,y,1/2-z
1/2-x,1/2+y,z
x,1/2-y,1/2+z
loop_
_atom_site_type_symbol
_atom_site_label
_atom_site_fract_x
_atom_site_fract_y
_atom_site_fract_z
Si Si1 0.731272 0.000000 0.750000
Si Si2 0.568693 0.176194 0.822214
Si Si3 0.658531 0.789379 0.399944
O O1 0.779012 0.905153 0.635896
O O2 0.683733 0.893163 0.858572
O O3 0.500000 0.250000 0.896347
O O4 0.590061 0.309537 0.698144
O O5 0.555318 0.000000 0.750000
O O6 0.634250 0.180919 0.932535
#
# Coordination Sequence:
#
# PCOD8296828 Si02
#       3
#     8  16  16
#     4  10  26  52  84 122 166 208 272 338 414 504
#     4  12  30  54  80 118 164 223 281 342 407 489
#     4  11  27  51  83 117 164 213 270 342 412 489
#
# _framework density 27.418786999999998
#
# number of rings (size 3 to 8) (size 9 to 14) (size 15 to 20)
#    0.000    0.800    2.000    1.200    8.400   12.800 
#    0.000    0.000    0.000    0.000    0.000    0.000 
#    0.000    0.000    0.000    0.000    0.000    0.000 
#
# Total GULP energy -247812.183352 kJ/mol
# GULP energy per Si atom -12390.609168 kJ/mol
# Density = 2.735638 g / cm^3
# Si number density = 27.418787 Si / 1000 Ang^3
#
#
#
# Elastic Constant Matrix: (Units=GPa)
#
#
# Indices 1 2 3 4 5 6 
#
# 1 177.8928 65.4152 38.5708 0.0000 0.0000 0.0000
# 2 65.4152 144.4435 61.7247 0.0000 0.0000 0.0000
# 3 38.5708 61.7247 124.3349 0.0000 0.0000 0.0000
# 4 0.0000 0.0000 0.0000 26.6587 0.0000 0.0000
# 5 0.0000 0.0000 0.0000 0.0000 75.8770 0.0000
# 6 0.0000 0.0000 0.0000 0.0000 0.0000 40.8805
#
#
#
# Elastic Compliance Matrix: (Units=1/GPa)
#
#
# Indices 1 2 3 4 5 6 
#
# 1 0.006797 -0.002764 -0.000737 0.000000 0.000000 0.000000
# 2 -0.002764 0.009911 -0.004063 0.000000 0.000000 0.000000
# 3 -0.000737 -0.004063 0.010288 0.000000 0.000000 0.000000
# 4 0.000000 0.000000 0.000000 0.037511 0.000000 0.000000
# 5 0.000000 0.000000 0.000000 0.000000 0.013179 0.000000
# 6 0.000000 0.000000 0.000000 0.000000 0.000000 0.024462
#
#
# Mechanical properties :
#
#
# Convention : Reuss Voigt Hill
#
# Bulk Modulus (GPa) = 84.24407 86.45471 85.34939
# Shear Modulus (GPa) = 41.24348 47.41394 44.32871
#
# Velocity S-wave (km/s) = 3.88262 4.16294 4.02522
# Velocity P-wave (km/s) = 7.13381 7.39638 7.26628
#
# Compressibility (1/GPa) = 0.01187027
#
# Stress axis : x y z
#
# Youngs Moduli (GPa) = 147.11706 100.89982 97.19799
#
# Poissons Ratio (x) = 0.27884 0.07161
# Poissons Ratio (y) = 0.40656 0.39490
# Poissons Ratio (z) = 0.10838 0.40994
#
# Static dielectric constant tensor:
#      x y z
#    x 5.396550 0.000000 0.000000 
#    y 0.000000 5.252310 0.000000 
#    z 0.000000 0.000000 4.941090 
# 
# 
# High freq. dielectric constant tensor:
#      x y z
#    x 2.140630 0.000000 0.000000 
#    y 0.000000 2.101740 0.000000 
#    z 0.000000 0.000000 2.105880 
# 
# From -- ./inp_files/3400.got.cif
#   From: 2010.03.12/outbox.cif.g09.slc.cpg/sg73_2_cif.got.tgz:3400.got - 2010.04.16 15:25:48.
