data_PCOD8296082
_publ_section_title
;
Structure prediction by ZEFSAII (Michael W. Deem and Ramdas Pophale) SiO2 
 PCOD8296082
Probable space group: I B C A 
;
_chemical_formula_sum "Si O2"
_cell_formula_units_Z 80
_cell_length_a 26.164001
_cell_length_b 9.787400
_cell_length_c 14.644928
_cell_angle_alpha 90.000000
_cell_angle_beta 90.000000
_cell_angle_gamma 90.000000
_cell_volume 3750.237185
_symmetry_space_group_name_H-M "I B C A "
_symmetry_group_IT_number 73
_symmetry_cell_setting 'orthorhombic'
loop_
_space_group_symop_operation_xyz
x,y,z
-x,1/2-y,z
x,-y,1/2-z
1/2-x,y,-z
-x,-y,-z
x,1/2+y,-z
-x,y,1/2+z
1/2+x,-y,z
1/2+x,1/2+y,1/2+z
1/2-x,-y,1/2+z
1/2+x,1/2-y,-z
-x,1/2+y,1/2-z
1/2-x,1/2-y,1/2-z
1/2+x,y,1/2-z
1/2-x,1/2+y,z
x,1/2-y,1/2+z
loop_
_atom_site_type_symbol
_atom_site_label
_atom_site_fract_x
_atom_site_fract_y
_atom_site_fract_z
Si Si1 0.197073 0.955853 0.544817
Si Si2 0.592814 0.296498 0.186216
Si Si3 0.667919 0.000000 0.750000
Si Si4 0.956909 0.039913 0.071998
Si Si5 0.635004 0.193382 0.020851
Si Si6 0.000000 0.250000 0.703459
O O1 0.250000 0.908081 0.500000
O O2 0.200344 0.974873 0.656448
O O3 0.153369 0.851190 0.509917
O O4 0.183427 0.101466 0.502475
O O5 0.630409 0.368249 0.260388
O O6 0.571377 0.408917 0.113721
O O7 0.622462 0.180905 0.128641
O O8 0.548425 0.214446 0.234747
O O9 0.989412 0.112737 0.149506
O O10 0.915338 0.150337 0.035663
O O11 0.000000 0.000000 0.000000
#
# Coordination Sequence:
#
# PCOD8296082 Si02
#       6
#    16  16   8  16  16   8
#     4  11  24  45  74 101 130 180 234 292 356 425
#     4  11  21  40  62  94 132 184 220 280 349 406
#     4  10  20  44  68  88 140 176 218 288 358 400
#     4  12  23  39  63  97 137 182 228 281 335 415
#     4  11  22  44  69  96 137 175 228 281 354 413
#     4  12  22  36  62  94 136 180 234 274 332 420
#
# _framework density 21.331983999999999
#
# number of rings (size 3 to 8) (size 9 to 14) (size 15 to 20)
#    0.000    0.800    6.000    3.000    0.000    0.000 
#    0.000   11.000    0.000    0.000    0.000    0.000 
#    0.000    0.000    0.000    0.000    0.000    0.000 
#
# Total GULP energy -495602.948431 kJ/mol
# GULP energy per Si atom -12390.073711 kJ/mol
# Density = 2.128343 g / cm^3
# Si number density = 21.331984 Si / 1000 Ang^3
#
#
#
# Elastic Constant Matrix: (Units=GPa)
#
#
# Indices 1 2 3 4 5 6 
#
# 1 118.4401 24.9356 67.7784 0.0000 0.0000 0.0000
# 2 24.9356 64.5457 45.3239 0.0000 0.0000 0.0000
# 3 67.7784 45.3239 114.1133 0.0000 0.0000 0.0000
# 4 0.0000 0.0000 0.0000 21.2112 0.0000 0.0000
# 5 0.0000 0.0000 0.0000 0.0000 49.1917 0.0000
# 6 0.0000 0.0000 0.0000 0.0000 0.0000 31.5648
#
#
#
# Elastic Compliance Matrix: (Units=1/GPa)
#
#
# Indices 1 2 3 4 5 6 
#
# 1 0.012804 0.000546 -0.007822 0.000000 0.000000 0.000000
# 2 0.000546 0.021508 -0.008867 0.000000 0.000000 0.000000
# 3 -0.007822 -0.008867 0.016931 0.000000 0.000000 0.000000
# 4 0.000000 0.000000 0.000000 0.047145 0.000000 0.000000
# 5 0.000000 0.000000 0.000000 0.000000 0.020329 0.000000
# 6 0.000000 0.000000 0.000000 0.000000 0.000000 0.031681
#
#
# Mechanical properties :
#
#
# Convention : Reuss Voigt Hill
#
# Bulk Modulus (GPa) = 52.74952 63.68610 58.21781
# Shear Modulus (GPa) = 26.45449 30.99764 28.72606
#
# Velocity S-wave (km/s) = 3.52537 3.81610 3.67361
# Velocity P-wave (km/s) = 6.43060 7.02399 6.73383
#
# Compressibility (1/GPa) = 0.01895752
#
# Stress axis : x y z
#
# Youngs Moduli (GPa) = 78.09806 46.49335 59.06288
#
# Poissons Ratio (x) = -0.02539 0.46200
# Poissons Ratio (y) = -0.04265 0.52372
# Poissons Ratio (z) = 0.61089 0.41226
#
# Static dielectric constant tensor:
#      x y z
#    x 3.775130 0.000000 0.000000 
#    y 0.000000 3.664490 0.000000 
#    z 0.000000 0.000000 4.128010 
# 
# 
# High freq. dielectric constant tensor:
#      x y z
#    x 1.837290 0.000000 0.000000 
#    y 0.000000 1.826100 0.000000 
#    z 0.000000 0.000000 1.842470 
# 
# From -- ./inp_files/19721.got.cif
#   From: 2010.03.12/outbox.cif.g09.slc.cpg/sg73_10_cif.got.tgz:19721.got - 2010.04.16 15:25:48.
