data_PCOD8296862
_publ_section_title
;
Structure prediction by ZEFSAII (Michael W. Deem and Ramdas Pophale) SiO2 
 PCOD8296862
Probable space group: I B C A 
;
_chemical_formula_sum "Si O2"
_cell_formula_units_Z 64
_cell_length_a 7.557593
_cell_length_b 14.323369
_cell_length_c 21.838082
_cell_angle_alpha 90.000000
_cell_angle_beta 90.000000
_cell_angle_gamma 90.000000
_cell_volume 2363.976598
_symmetry_space_group_name_H-M "I B C A "
_symmetry_group_IT_number 73
_symmetry_cell_setting 'orthorhombic'
loop_
_space_group_symop_operation_xyz
x,y,z
-x,1/2-y,z
x,-y,1/2-z
1/2-x,y,-z
-x,-y,-z
x,1/2+y,-z
-x,y,1/2+z
1/2+x,-y,z
1/2+x,1/2+y,1/2+z
1/2-x,-y,1/2+z
1/2+x,1/2-y,-z
-x,1/2+y,1/2-z
1/2-x,1/2-y,1/2-z
1/2+x,y,1/2-z
1/2-x,1/2+y,z
x,1/2-y,1/2+z
loop_
_atom_site_type_symbol
_atom_site_label
_atom_site_fract_x
_atom_site_fract_y
_atom_site_fract_z
Si Si1 0.164344 0.557592 0.933234
Si Si2 0.511755 0.104507 0.262336
Si Si3 0.702598 0.883291 0.621514
Si Si4 0.809416 0.684836 0.657903
O O1 0.150943 0.452418 0.906815
O O2 0.314592 0.606775 0.893667
O O3 0.974300 0.608968 0.922450
O O4 0.250000 0.558175 0.000000
O O5 0.339686 0.093000 0.306784
O O6 0.643076 0.172430 0.297733
O O7 0.481887 0.162560 0.199400
O O8 0.584748 0.000000 0.250000
O O9 0.795847 0.782080 0.621036
#
# Coordination Sequence:
#
# PCOD8296862 Si02
#       4
#    16  16  16  16
#     4  11  24  46  71 100 137 187 236 291 343 411
#     4  11  21  41  71 102 146 181 226 291 363 426
#     4  11  25  45  68 100 143 182 233 291 349 418
#     4  11  25  45  70 108 145 184 233 292 357 432
#
# _framework density 27.073025999999999
#
# number of rings (size 3 to 8) (size 9 to 14) (size 15 to 20)
#    0.000    1.000    2.500    5.250    3.500    1.000 
#    0.000    3.750    0.000    0.000    0.000    0.000 
#    0.000    0.000    0.000    0.000    0.000    0.000 
#
# Total GULP energy -396560.162853 kJ/mol
# GULP energy per Si atom -12392.505089 kJ/mol
# Density = 2.701141 g / cm^3
# Si number density = 27.073026 Si / 1000 Ang^3
#
#
#
# Elastic Constant Matrix: (Units=GPa)
#
#
# Indices 1 2 3 4 5 6 
#
# 1 62.3825 56.4978 23.3607 0.0000 0.0000 0.0000
# 2 56.4978 175.6518 69.7258 0.0000 0.0000 0.0000
# 3 23.3607 69.7258 158.6281 0.0000 0.0000 0.0000
# 4 0.0000 0.0000 0.0000 13.0010 0.0000 0.0000
# 5 0.0000 0.0000 0.0000 0.0000 39.5168 0.0000
# 6 0.0000 0.0000 0.0000 0.0000 0.0000 36.4565
#
#
#
# Elastic Compliance Matrix: (Units=1/GPa)
#
#
# Indices 1 2 3 4 5 6 
#
# 1 0.022623 -0.007212 -0.000161 0.000000 0.000000 0.000000
# 2 -0.007212 0.009196 -0.002980 0.000000 0.000000 0.000000
# 3 -0.000161 -0.002980 0.007638 0.000000 0.000000 0.000000
# 4 0.000000 0.000000 0.000000 0.076917 0.000000 0.000000
# 5 0.000000 0.000000 0.000000 0.000000 0.025306 0.000000
# 6 0.000000 0.000000 0.000000 0.000000 0.000000 0.027430
#
#
# Mechanical properties :
#
#
# Convention : Reuss Voigt Hill
#
# Bulk Modulus (GPa) = 53.33686 77.31457 65.32571
# Shear Modulus (GPa) = 25.50164 34.26674 29.88419
#
# Velocity S-wave (km/s) = 3.07246 3.56155 3.32601
# Velocity P-wave (km/s) = 5.68600 6.74779 6.23952
#
# Compressibility (1/GPa) = 0.01874876
#
# Stress axis : x y z
#
# Youngs Moduli (GPa) = 44.20347 108.74473 130.93041
#
# Poissons Ratio (x) = 0.78432 0.02112
# Poissons Ratio (y) = 0.31882 0.39016
# Poissons Ratio (z) = 0.00713 0.32405
#
# Static dielectric constant tensor:
#      x y z
#    x 5.068630 0.000000 0.000000 
#    y 0.000000 4.931740 0.000000 
#    z 0.000000 0.000000 5.174680 
# 
# 
# High freq. dielectric constant tensor:
#      x y z
#    x 2.104100 0.000000 0.000000 
#    y 0.000000 2.101090 0.000000 
#    z 0.000000 0.000000 2.076360 
# 
# From -- ./inp_files/28173.got.cif
#   From: 2010.03.12/outbox.cif.g09.slc.cpg/sg73_15_cif.got.tgz:28173.got - 2010.04.16 15:25:48.
