data_PCOD8296589
_publ_section_title
;
Structure prediction by ZEFSAII (Michael W. Deem and Ramdas Pophale) SiO2 
 PCOD8296589
Probable space group: I B C A 
;
_chemical_formula_sum "Si O2"
_cell_formula_units_Z 120
_cell_length_a 14.069940
_cell_length_b 21.827903
_cell_length_c 16.030578
_cell_angle_alpha 90.000000
_cell_angle_beta 90.000000
_cell_angle_gamma 90.000000
_cell_volume 4923.267601
_symmetry_space_group_name_H-M "I B C A "
_symmetry_group_IT_number 73
_symmetry_cell_setting 'orthorhombic'
loop_
_space_group_symop_operation_xyz
x,y,z
-x,1/2-y,z
x,-y,1/2-z
1/2-x,y,-z
-x,-y,-z
x,1/2+y,-z
-x,y,1/2+z
1/2+x,-y,z
1/2+x,1/2+y,1/2+z
1/2-x,-y,1/2+z
1/2+x,1/2-y,-z
-x,1/2+y,1/2-z
1/2-x,1/2-y,1/2-z
1/2+x,y,1/2-z
1/2-x,1/2+y,z
x,1/2-y,1/2+z
loop_
_atom_site_type_symbol
_atom_site_label
_atom_site_fract_x
_atom_site_fract_y
_atom_site_fract_z
Si Si1 0.829439 0.640985 0.105642
Si Si2 0.318586 0.652644 0.075225
Si Si3 0.990514 0.385971 0.626195
Si Si4 0.219498 0.680047 0.238225
Si Si5 0.476901 0.375283 0.689890
Si Si6 0.073468 0.510218 0.074930
Si Si7 0.402407 0.722572 0.529176
Si Si8 0.250000 0.033405 0.500000
O O1 0.747310 0.647506 0.174772
O O2 0.813227 0.575161 0.062525
O O3 0.937308 0.651596 0.136376
O O4 0.827638 0.694643 0.036847
O O5 0.414510 0.611393 0.067735
O O6 0.272900 0.643416 0.165268
O O7 0.346140 0.723878 0.074554
O O8 0.250000 0.634257 0.000000
O O9 0.025766 0.386398 0.721223
O O10 0.926188 0.445521 0.621993
O O11 0.927138 0.327558 0.600087
O O12 0.250000 0.750000 0.250000
O O13 0.109017 0.672121 0.210864
O O14 0.444158 0.435676 0.640258
O O15 0.181489 0.515483 0.044328
O O16 0.000000 0.500000 0.000000
O O17 0.500000 0.750000 0.488886
#
# Coordination Sequence:
#
# PCOD8296589 Si02
#       8
#    16  16  16  16  16  16  16   8
#     4  12  26  49  75 109 154 202 261 325 397 486
#     4  11  25  41  69 110 147 194 245 309 388 474
#     4  11  23  48  71 101 151 193 249 318 389 467
#     4  12  28  45  75 115 153 201 254 320 398 488
#     4  12  27  50  72 110 151 199 257 328 399 464
#     4  12  26  48  77 108 145 203 259 327 392 472
#     4  10  23  42  73 106 148 205 251 317 400 484
#     4  12  26  48  82 110 148 208 274 328 404 474
#
# _framework density 24.374057000000001
#
# number of rings (size 3 to 8) (size 9 to 14) (size 15 to 20)
#    0.000    0.533    4.000    2.800   10.267    1.067 
#    0.000    0.000    0.000    0.000    0.000    0.000 
#    0.000    0.000    0.000    0.000    0.000    0.000 
#
# Total GULP energy -743544.726818 kJ/mol
# GULP energy per Si atom -12392.412114 kJ/mol
# Density = 2.431858 g / cm^3
# Si number density = 24.374057 Si / 1000 Ang^3
#
#
#
# Elastic Constant Matrix: (Units=GPa)
#
#
# Indices 1 2 3 4 5 6 
#
# 1 145.5098 30.3940 43.7600 0.0000 0.0000 0.0000
# 2 30.3940 81.8979 23.6102 0.0008 0.0000 0.0000
# 3 43.7600 23.6102 132.7751 0.0013 -0.0001 -0.0001
# 4 0.0000 0.0008 0.0013 30.6276 0.0000 0.0000
# 5 0.0000 0.0000 -0.0001 0.0000 49.7296 0.0000
# 6 0.0000 0.0000 -0.0001 0.0000 0.0000 41.9716
#
#
#
# Elastic Compliance Matrix: (Units=1/GPa)
#
#
# Indices 1 2 3 4 5 6 
#
# 1 0.008032 -0.002337 -0.002231 0.000000 0.000000 0.000000
# 2 -0.002337 0.013550 -0.001639 0.000000 0.000000 0.000000
# 3 -0.002231 -0.001639 0.008558 0.000000 0.000000 0.000000
# 4 0.000000 0.000000 0.000000 0.032650 0.000000 0.000000
# 5 0.000000 0.000000 0.000000 0.000000 0.020109 0.000000
# 6 0.000000 0.000000 0.000000 0.000000 0.000000 0.023826
#
#
# Mechanical properties :
#
#
# Convention : Reuss Voigt Hill
#
# Bulk Modulus (GPa) = 56.41934 61.74568 59.08251
# Shear Modulus (GPa) = 39.98421 41.96034 40.97227
#
# Velocity S-wave (km/s) = 4.05463 4.15362 4.10442
# Velocity P-wave (km/s) = 6.71696 6.95636 6.83771
#
# Compressibility (1/GPa) = 0.01772442
#
# Stress axis : x y z
#
# Youngs Moduli (GPa) = 124.50650 73.79886 116.84363
#
# Poissons Ratio (x) = 0.17250 0.26073
# Poissons Ratio (y) = 0.29103 0.19153
# Poissons Ratio (z) = 0.27783 0.12097
#
# Static dielectric constant tensor:
#      x y z
#    x 4.466620 0.000000 -0.000010 
#    y 0.000000 4.248210 0.000000 
#    z -0.000010 0.000000 3.570880 
# 
# 
# High freq. dielectric constant tensor:
#      x y z
#    x 1.991820 0.000000 0.000000 
#    y 0.000000 1.958430 0.000000 
#    z 0.000000 0.000000 1.976400 
# 
# From -- ./inp_files/22169.got.cif
#   From: 2010.03.12/outbox.cif.g09.slc.cpg/sg73_12_cif.got.tgz:22169.got - 2010.04.16 15:25:48.
