data_PCOD8296422
_publ_section_title
;
Structure prediction by ZEFSAII (Michael W. Deem and Ramdas Pophale) SiO2 
 PCOD8296422
Probable space group: I B C A 
;
_chemical_formula_sum "Si O2"
_cell_formula_units_Z 80
_cell_length_a 8.698647
_cell_length_b 14.756318
_cell_length_c 27.306660
_cell_angle_alpha 90.000000
_cell_angle_beta 90.000000
_cell_angle_gamma 90.000000
_cell_volume 3505.082913
_symmetry_space_group_name_H-M "I B C A "
_symmetry_group_IT_number 73
_symmetry_cell_setting 'orthorhombic'
loop_
_space_group_symop_operation_xyz
x,y,z
-x,1/2-y,z
x,-y,1/2-z
1/2-x,y,-z
-x,-y,-z
x,1/2+y,-z
-x,y,1/2+z
1/2+x,-y,z
1/2+x,1/2+y,1/2+z
1/2-x,-y,1/2+z
1/2+x,1/2-y,-z
-x,1/2+y,1/2-z
1/2-x,1/2-y,1/2-z
1/2+x,y,1/2-z
1/2-x,1/2+y,z
x,1/2-y,1/2+z
loop_
_atom_site_type_symbol
_atom_site_label
_atom_site_fract_x
_atom_site_fract_y
_atom_site_fract_z
Si Si1 0.837129 0.795059 0.047658
Si Si2 0.231470 0.107198 0.557963
Si Si3 0.392515 0.426598 0.708625
Si Si4 0.964774 0.536723 0.601347
Si Si5 0.378561 0.813444 0.728340
O O1 0.735968 0.714047 0.072224
O O2 0.859169 0.878403 0.084378
O O3 0.000000 0.750000 0.031967
O O4 0.750000 0.833247 0.000000
O O5 0.250000 0.097094 0.500000
O O6 0.361000 0.053252 0.587198
O O7 0.075970 0.058615 0.575318
O O8 0.364491 0.500000 0.750000
O O9 0.451622 0.474105 0.659530
O O10 0.522639 0.356883 0.727095
O O11 0.221144 0.385360 0.697216
O O12 0.500000 0.750000 0.697538
O O13 0.250000 0.750000 0.750000
#
# Coordination Sequence:
#
# PCOD8296422 Si02
#       5
#    16  16  16  16  16
#     4   9  20  40  64  91 127 169 206 266 328 397
#     4  10  22  41  65  98 130 169 216 272 333 407
#     4  11  24  41  66  93 135 173 227 284 342 404
#     4  11  24  40  66  95 131 175 220 268 338 402
#     4   9  21  42  65  90 123 172 217 281 343 397
#
# _framework density 22.823996999999999
#
# number of rings (size 3 to 8) (size 9 to 14) (size 15 to 20)
#    0.000    2.000    0.000    1.800    5.600   10.400 
#    3.600    1.000    0.000    0.000    0.000    0.000 
#    0.000    0.000    0.000    0.000    0.000    0.000 
#
# Total GULP energy -495684.510455 kJ/mol
# GULP energy per Si atom -12392.112761 kJ/mol
# Density = 2.277205 g / cm^3
# Si number density = 22.823997 Si / 1000 Ang^3
#
#
#
# Elastic Constant Matrix: (Units=GPa)
#
#
# Indices 1 2 3 4 5 6 
#
# 1 68.9696 7.6101 1.6650 0.0000 0.0000 0.0000
# 2 7.6101 72.5731 -2.9771 0.0000 0.0000 0.0000
# 3 1.6650 -2.9771 75.5118 0.0000 0.0000 0.0000
# 4 0.0000 0.0000 0.0000 16.7763 0.0000 0.0000
# 5 0.0000 0.0000 0.0000 0.0000 30.2681 0.0000
# 6 0.0000 0.0000 0.0000 0.0000 0.0000 7.9719
#
#
#
# Elastic Compliance Matrix: (Units=1/GPa)
#
#
# Indices 1 2 3 4 5 6 
#
# 1 0.014680 -0.001555 -0.000385 0.000000 0.000000 0.000000
# 2 -0.001555 0.013966 0.000585 0.000000 0.000000 0.000000
# 3 -0.000385 0.000585 0.013275 0.000000 0.000000 0.000000
# 4 0.000000 0.000000 0.000000 0.059608 0.000000 0.000000
# 5 0.000000 0.000000 0.000000 0.000000 0.033038 0.000000
# 6 0.000000 0.000000 0.000000 0.000000 0.000000 0.125441
#
#
# Mechanical properties :
#
#
# Convention : Reuss Voigt Hill
#
# Bulk Modulus (GPa) = 25.50348 25.51672 25.51010
# Shear Modulus (GPa) = 18.12984 25.05368 21.59176
#
# Velocity S-wave (km/s) = 2.82145 3.31674 3.07907
# Velocity P-wave (km/s) = 4.67037 5.08642 4.88283
#
# Compressibility (1/GPa) = 0.03921034
#
# Stress axis : x y z
#
# Youngs Moduli (GPa) = 68.11973 71.60103 75.33234
#
# Poissons Ratio (x) = 0.11135 0.02900
# Poissons Ratio (y) = 0.10594 -0.04406
# Poissons Ratio (z) = 0.02623 -0.04188
#
# Static dielectric constant tensor:
#      x y z
#    x 4.834870 0.000000 0.000000 
#    y 0.000000 4.827050 0.000000 
#    z 0.000000 0.000000 3.442360 
# 
# 
# High freq. dielectric constant tensor:
#      x y z
#    x 1.915110 0.000000 0.000000 
#    y 0.000000 1.916100 0.000000 
#    z 0.000000 0.000000 1.862040 
# 
# From -- ./inp_files/7728.got.cif
#   From: 2010.03.12/outbox.cif.g09.slc.cpg/sg73_4_cif.got.tgz:7728.got - 2010.04.16 15:25:48.
