data_PCOD8296732
_publ_section_title
;
Structure prediction by ZEFSAII (Michael W. Deem and Ramdas Pophale) SiO2 
 PCOD8296732
Probable space group: I B C A 
;
_chemical_formula_sum "Si O2"
_cell_formula_units_Z 56
_cell_length_a 14.284221
_cell_length_b 13.154215
_cell_length_c 9.890894
_cell_angle_alpha 90.000000
_cell_angle_beta 90.000000
_cell_angle_gamma 90.000000
_cell_volume 1858.476373
_symmetry_space_group_name_H-M "I B C A "
_symmetry_group_IT_number 73
_symmetry_cell_setting 'orthorhombic'
loop_
_space_group_symop_operation_xyz
x,y,z
-x,1/2-y,z
x,-y,1/2-z
1/2-x,y,-z
-x,-y,-z
x,1/2+y,-z
-x,y,1/2+z
1/2+x,-y,z
1/2+x,1/2+y,1/2+z
1/2-x,-y,1/2+z
1/2+x,1/2-y,-z
-x,1/2+y,1/2-z
1/2-x,1/2-y,1/2-z
1/2+x,y,1/2-z
1/2-x,1/2+y,z
x,1/2-y,1/2+z
loop_
_atom_site_type_symbol
_atom_site_label
_atom_site_fract_x
_atom_site_fract_y
_atom_site_fract_z
Si Si1 0.797995 0.076482 0.646886
Si Si2 0.750000 0.738258 0.000000
Si Si3 0.509854 0.369211 0.715629
Si Si4 0.099729 0.069991 0.536176
O O1 0.743762 0.182665 0.626905
O O2 0.889260 0.101949 0.731625
O O3 0.741338 0.000000 0.750000
O O4 0.830662 0.025318 0.500007
O O5 0.843926 0.673294 0.999991
O O6 0.500000 0.250000 0.706171
O O7 0.507001 0.422357 0.564776
O O8 0.431340 0.422340 0.808439
#
# Coordination Sequence:
#
# PCOD8296732 Si02
#       4
#    16   8  16  16
#     4  10  24  45  71 105 142 191 246 295 359 431
#     4  12  24  48  72 104 152 190 236 302 366 440
#     4  11  22  45  72 105 143 187 245 298 352 426
#     4  11  25  46  76 106 144 190 243 300 362 427
#
# _framework density 30.132211000000002
#
# number of rings (size 3 to 8) (size 9 to 14) (size 15 to 20)
#    0.000    1.143    2.857    2.571    0.000    4.571 
#    5.143    0.000    0.000    0.000    0.000    0.000 
#    0.000    0.000    0.000    0.000    0.000    0.000 
#
# Total GULP energy -347111.878586 kJ/mol
# GULP energy per Si atom -12396.852807 kJ/mol
# Density = 3.006363 g / cm^3
# Si number density = 30.132211 Si / 1000 Ang^3
#
#
#
# Elastic Constant Matrix: (Units=GPa)
#
#
# Indices 1 2 3 4 5 6 
#
# 1 81.4579 16.8499 26.7388 0.0000 0.0000 0.0000
# 2 16.8499 178.8787 48.5090 0.0000 0.0000 0.0000
# 3 26.7388 48.5090 146.1008 0.0000 0.0000 0.0000
# 4 0.0000 0.0000 0.0000 72.0323 0.0000 0.0000
# 5 0.0000 0.0000 0.0000 0.0000 -190.1575 0.0000
# 6 0.0000 0.0000 0.0000 0.0000 0.0000 9.2937
#
#
#
# Elastic Compliance Matrix: (Units=1/GPa)
#
#
# Indices 1 2 3 4 5 6 
#
# 1 0.013128 -0.000643 -0.002189 0.000000 0.000000 0.000000
# 2 -0.000643 0.006175 -0.001933 0.000000 0.000000 0.000000
# 3 -0.002189 -0.001933 0.007887 0.000000 0.000000 0.000000
# 4 0.000000 0.000000 0.000000 0.013883 0.000000 0.000000
# 5 0.000000 0.000000 0.000000 0.000000 -0.005259 0.000000
# 6 0.000000 0.000000 0.000000 0.000000 0.000000 0.107600
#
#
# Mechanical properties :
#
#
# Convention : Reuss Voigt Hill
#
# Bulk Modulus (GPa) = 56.62369 65.62586 61.12477
# Shear Modulus (GPa) = 31.48030 -0.81033 15.33498
#
# Velocity S-wave (km/s) = 3.23575 -0.51914 2.25838
# Velocity P-wave (km/s) = 5.72649 4.63328 5.20864
#
# Compressibility (1/GPa) = 0.01766045
#
# Stress axis : x y z
#
# Youngs Moduli (GPa) = 76.17379 161.94245 126.79245
#
# Poissons Ratio (x) = 0.10412 0.27757
# Poissons Ratio (y) = 0.04898 0.24504
# Poissons Ratio (z) = 0.16675 0.31297
#
# Static dielectric constant tensor:
#      x y z
#    x 5.665720 0.000000 0.000000 
#    y 0.000000 7.959960 0.000000 
#    z 0.000000 0.000000 8.768010 
# 
# 
# High freq. dielectric constant tensor:
#      x y z
#    x 2.240960 0.000000 0.000000 
#    y 0.000000 2.271730 0.000000 
#    z 0.000000 0.000000 2.247500 
# 
# From -- ./inp_files/10233.got.cif
#   From: 2010.03.12/outbox.cif.g09.slc.cpg/sg73_6_cif.got.tgz:10233.got - 2010.04.16 15:25:48.
