data_PCOD8296139
_publ_section_title
;
Structure prediction by ZEFSAII (Michael W. Deem and Ramdas Pophale) SiO2 
 PCOD8296139
Probable space group: I B C A 
;
_chemical_formula_sum "Si O2"
_cell_formula_units_Z 104
_cell_length_a 20.106559
_cell_length_b 8.973131
_cell_length_c 26.794884
_cell_angle_alpha 90.000000
_cell_angle_beta 90.000000
_cell_angle_gamma 90.000000
_cell_volume 4834.300492
_symmetry_space_group_name_H-M "I B C A "
_symmetry_group_IT_number 73
_symmetry_cell_setting 'orthorhombic'
loop_
_space_group_symop_operation_xyz
x,y,z
-x,1/2-y,z
x,-y,1/2-z
1/2-x,y,-z
-x,-y,-z
x,1/2+y,-z
-x,y,1/2+z
1/2+x,-y,z
1/2+x,1/2+y,1/2+z
1/2-x,-y,1/2+z
1/2+x,1/2-y,-z
-x,1/2+y,1/2-z
1/2-x,1/2-y,1/2-z
1/2+x,y,1/2-z
1/2-x,1/2+y,z
x,1/2-y,1/2+z
loop_
_atom_site_type_symbol
_atom_site_label
_atom_site_fract_x
_atom_site_fract_y
_atom_site_fract_z
Si Si1 0.216273 0.674136 0.432168
Si Si2 0.340221 0.931814 0.503758
Si Si3 0.361791 0.896594 0.166805
Si Si4 0.867813 0.839558 0.758120
Si Si5 0.869777 0.313616 0.432229
Si Si6 0.427577 0.799850 0.334187
Si Si7 0.739620 0.500000 0.250000
O O1 0.204583 0.829862 0.460137
O O2 0.206164 0.539685 0.470702
O O3 0.167866 0.656295 0.385438
O O4 0.292733 0.677671 0.415106
O O5 0.384464 0.827580 0.468040
O O6 0.388477 0.034687 0.538115
O O7 0.395458 0.753033 0.194153
O O8 0.417872 0.023045 0.156557
O O9 0.304133 0.959164 0.202267
O O10 0.875595 0.740860 0.708820
O O11 0.788607 0.864033 0.766089
O O12 0.904825 0.000000 0.750000
O O13 0.914532 0.297064 0.383592
O O14 0.500000 0.750000 0.315251
#
# Coordination Sequence:
#
# PCOD8296139 Si02
#       7
#    16  16  16  16  16  16   8
#     4  11  21  34  65 100 132 166 200 271 347 398
#     4  10  21  37  62  98 135 160 207 268 346 402
#     4  12  23  40  67  97 138 173 211 278 334 405
#     4  10  25  41  68  99 129 167 215 275 338 407
#     4  11  21  38  61  95 128 171 212 270 327 404
#     4  12  27  46  63  88 131 187 227 267 321 396
#     4  10  22  40  66 108 130 158 208 280 360 404
#
# _framework density 21.512936
#
# number of rings (size 3 to 8) (size 9 to 14) (size 15 to 20)
#    0.462    0.615    3.077    5.077    4.308    1.231 
#    0.000    0.769    0.000    0.000    0.000    0.000 
#    0.000    0.000    0.000    0.000    0.000    0.000 
#
# Total GULP energy -644537.505110 kJ/mol
# GULP energy per Si atom -12394.952021 kJ/mol
# Density = 2.146397 g / cm^3
# Si number density = 21.512936 Si / 1000 Ang^3
#
#
#
# Elastic Constant Matrix: (Units=GPa)
#
#
# Indices 1 2 3 4 5 6 
#
# 1 41.3518 29.3467 18.5527 0.0000 0.0000 0.0000
# 2 29.3467 156.2527 61.0164 0.0000 0.0000 0.0000
# 3 18.5527 61.0164 128.3078 0.0000 0.0000 0.0000
# 4 0.0000 0.0000 0.0000 82.8315 0.0000 0.0000
# 5 0.0000 0.0000 0.0000 0.0000 5.1101 0.0000
# 6 0.0000 0.0000 0.0000 0.0000 0.0000 12.9017
#
#
#
# Elastic Compliance Matrix: (Units=1/GPa)
#
#
# Indices 1 2 3 4 5 6 
#
# 1 0.028282 -0.004562 -0.001920 0.000000 0.000000 0.000000
# 2 -0.004562 0.008595 -0.003428 0.000000 0.000000 0.000000
# 3 -0.001920 -0.003428 0.009701 0.000000 0.000000 0.000000
# 4 0.000000 0.000000 0.000000 0.012073 0.000000 0.000000
# 5 0.000000 0.000000 0.000000 0.000000 0.195692 0.000000
# 6 0.000000 0.000000 0.000000 0.000000 0.000000 0.077509
#
#
# Mechanical properties :
#
#
# Convention : Reuss Voigt Hill
#
# Bulk Modulus (GPa) = 37.37078 60.41600 48.89339
# Shear Modulus (GPa) = 13.86611 34.63509 24.25060
#
# Velocity S-wave (km/s) = 2.54155 4.01679 3.36111
# Velocity P-wave (km/s) = 5.10114 7.04680 6.15138
#
# Compressibility (1/GPa) = 0.02675888
#
# Stress axis : x y z
#
# Youngs Moduli (GPa) = 35.35856 116.34321 103.07728
#
# Poissons Ratio (x) = 0.53076 0.19790
# Poissons Ratio (y) = 0.16131 0.35333
# Poissons Ratio (z) = 0.06789 0.39880
#
# Static dielectric constant tensor:
#      x y z
#    x 3.248880 0.000000 0.000000 
#    y 0.000000 4.405870 0.000000 
#    z 0.000000 0.000000 4.023570 
# 
# 
# High freq. dielectric constant tensor:
#      x y z
#    x 1.783240 0.000000 0.000000 
#    y 0.000000 1.872770 0.000000 
#    z 0.000000 0.000000 1.852510 
# 
# From -- ./inp_files/32673.got.cif
#   From: 2010.03.12/outbox.cif.g09.slc.cpg/sg73_17_cif.got.tgz:32673.got - 2010.04.16 15:25:48.
