data_PCOD8296204
_publ_section_title
;
Structure prediction by ZEFSAII (Michael W. Deem and Ramdas Pophale) SiO2 
 PCOD8296204
Probable space group: I B C A 
;
_chemical_formula_sum "Si O2"
_cell_formula_units_Z 112
_cell_length_a 14.763432
_cell_length_b 15.225043
_cell_length_c 23.973734
_cell_angle_alpha 90.000000
_cell_angle_beta 90.000000
_cell_angle_gamma 90.000000
_cell_volume 5388.669378
_symmetry_space_group_name_H-M "I B C A "
_symmetry_group_IT_number 73
_symmetry_cell_setting 'orthorhombic'
loop_
_space_group_symop_operation_xyz
x,y,z
-x,1/2-y,z
x,-y,1/2-z
1/2-x,y,-z
-x,-y,-z
x,1/2+y,-z
-x,y,1/2+z
1/2+x,-y,z
1/2+x,1/2+y,1/2+z
1/2-x,-y,1/2+z
1/2+x,1/2-y,-z
-x,1/2+y,1/2-z
1/2-x,1/2-y,1/2-z
1/2+x,y,1/2-z
1/2-x,1/2+y,z
x,1/2-y,1/2+z
loop_
_atom_site_type_symbol
_atom_site_label
_atom_site_fract_x
_atom_site_fract_y
_atom_site_fract_z
Si Si1 0.448575 0.165021 0.655161
Si Si2 0.316170 0.669992 0.244752
Si Si3 0.376465 0.590805 0.544030
Si Si4 0.558958 0.001537 0.846351
Si Si5 0.603437 0.389310 0.863208
Si Si6 0.173908 0.557518 0.575695
Si Si7 0.299108 0.500000 0.750000
Si Si8 0.000000 0.750000 0.935669
O O1 0.500000 0.250000 0.632418
O O2 0.402522 0.182122 0.715136
O O3 0.374728 0.132880 0.611051
O O4 0.530970 0.098147 0.659777
O O5 0.250000 0.750000 0.250000
O O6 0.340664 0.667971 0.179984
O O7 0.265773 0.581059 0.258189
O O8 0.426551 0.528588 0.588842
O O9 0.274128 0.596949 0.567574
O O10 0.375167 0.543851 0.483975
O O11 0.427091 0.685344 0.533624
O O12 0.475201 0.062504 0.827188
O O13 0.644069 0.009987 0.806382
O O14 0.666982 0.462205 0.894094
O O15 0.563707 0.316530 0.903352
#
# Coordination Sequence:
#
# PCOD8296204 Si02
#       8
#    16  16  16  16  16  16   8   8
#     4  11  24  40  60  96 130 171 216 275 317 393
#     4  12  26  38  64  94 131 170 219 273 333 399
#     4  10  22  44  67  98 129 176 219 277 329 399
#     4  10  21  39  66  87 130 170 219 263 334 395
#     4  10  23  41  63  94 127 177 217 273 334 400
#     4  10  23  44  67  93 136 172 225 271 334 400
#     4  12  22  40  64  94 126 176 212 280 326 396
#     4  10  24  38  72  94 134 170 222 276 328 404
#
# _framework density 20.784351999999998
#
# number of rings (size 3 to 8) (size 9 to 14) (size 15 to 20)
#    0.000    1.429    0.000    5.143    8.000    5.143 
#    0.000    1.429    0.000    0.000    0.000    0.000 
#    0.000    0.000    0.000    0.000    0.000    0.000 
#
# Total GULP energy -693913.707566 kJ/mol
# GULP energy per Si atom -12391.316207 kJ/mol
# Density = 2.073705 g / cm^3
# Si number density = 20.784352 Si / 1000 Ang^3
#
#
#
# Elastic Constant Matrix: (Units=GPa)
#
#
# Indices 1 2 3 4 5 6 
#
# 1 74.6383 27.0280 21.2340 0.0000 0.0000 0.0000
# 2 27.0280 109.4635 22.0869 0.0000 0.0000 0.0000
# 3 21.2340 22.0869 99.2143 0.0000 0.0000 0.0000
# 4 0.0000 0.0000 0.0000 24.7920 0.0000 0.0000
# 5 0.0000 0.0000 0.0000 0.0000 64.3813 0.0000
# 6 0.0000 0.0000 0.0000 0.0000 0.0000 22.5232
#
#
#
# Elastic Compliance Matrix: (Units=1/GPa)
#
#
# Indices 1 2 3 4 5 6 
#
# 1 0.015305 -0.003265 -0.002549 0.000000 0.000000 0.000000
# 2 -0.003265 0.010262 -0.001586 0.000000 0.000000 0.000000
# 3 -0.002549 -0.001586 0.010978 0.000000 0.000000 0.000000
# 4 0.000000 0.000000 0.000000 0.040336 0.000000 0.000000
# 5 0.000000 0.000000 0.000000 0.000000 0.015532 0.000000
# 6 0.000000 0.000000 0.000000 0.000000 0.000000 0.044399
#
#
# Mechanical properties :
#
#
# Convention : Reuss Voigt Hill
#
# Bulk Modulus (GPa) = 45.98566 47.11265 46.54916
# Shear Modulus (GPa) = 31.47452 36.53710 34.00581
#
# Velocity S-wave (km/s) = 3.89567 4.19730 4.04929
# Velocity P-wave (km/s) = 6.51216 6.79752 6.65637
#
# Compressibility (1/GPa) = 0.02174591
#
# Stress axis : x y z
#
# Youngs Moduli (GPa) = 65.33669 97.45127 91.09370
#
# Poissons Ratio (x) = 0.31816 0.23219
# Poissons Ratio (y) = 0.21331 0.14444
# Poissons Ratio (z) = 0.16653 0.15452
#
# Static dielectric constant tensor:
#      x y z
#    x 3.925220 0.000000 0.000000 
#    y 0.000000 3.905630 0.000000 
#    z 0.000000 0.000000 3.908850 
# 
# 
# High freq. dielectric constant tensor:
#      x y z
#    x 1.831030 0.000000 0.000000 
#    y 0.000000 1.816860 0.000000 
#    z 0.000000 0.000000 1.813190 
# 
# From -- ./inp_files/29574.got.cif
#   From: 2010.03.12/outbox.cif.g09.slc.cpg/sg73_15_cif.got.tgz:29574.got - 2010.04.16 15:25:48.
