data_PCOD8296663
_publ_section_title
;
Structure prediction by ZEFSAII (Michael W. Deem and Ramdas Pophale) SiO2 
 PCOD8296663
Probable space group: I B C A 
;
_chemical_formula_sum "Si O2"
_cell_formula_units_Z 120
_cell_length_a 18.271225
_cell_length_b 22.865423
_cell_length_c 13.678051
_cell_angle_alpha 90.000000
_cell_angle_beta 90.000000
_cell_angle_gamma 90.000000
_cell_volume 5714.406413
_symmetry_space_group_name_H-M "I B C A "
_symmetry_group_IT_number 73
_symmetry_cell_setting 'orthorhombic'
loop_
_space_group_symop_operation_xyz
x,y,z
-x,1/2-y,z
x,-y,1/2-z
1/2-x,y,-z
-x,-y,-z
x,1/2+y,-z
-x,y,1/2+z
1/2+x,-y,z
1/2+x,1/2+y,1/2+z
1/2-x,-y,1/2+z
1/2+x,1/2-y,-z
-x,1/2+y,1/2-z
1/2-x,1/2-y,1/2-z
1/2+x,y,1/2-z
1/2-x,1/2+y,z
x,1/2-y,1/2+z
loop_
_atom_site_type_symbol
_atom_site_label
_atom_site_fract_x
_atom_site_fract_y
_atom_site_fract_z
Si Si1 0.511661 0.069288 0.009990
Si Si2 0.073417 0.097363 0.291816
Si Si3 0.624854 0.351840 0.985140
Si Si4 0.931693 0.414812 0.690868
Si Si5 0.782744 0.096568 0.676604
Si Si6 0.157104 0.320379 0.300545
Si Si7 0.815903 0.000000 0.250000
Si Si8 0.923050 0.780970 0.798282
O O1 0.569515 0.081442 0.095282
O O2 0.434474 0.101672 0.024549
O O3 0.549335 0.101996 0.919292
O O4 0.500000 0.000000 0.000000
O O5 0.151174 0.078691 0.247861
O O6 0.064031 0.166539 0.276843
O O7 0.007640 0.062079 0.238316
O O8 0.689499 0.389255 0.932965
O O9 0.598227 0.304741 0.905386
O O10 0.651224 0.316921 0.081130
O O11 0.905837 0.360636 0.755053
O O12 0.868960 0.463075 0.680779
O O13 0.737725 0.152458 0.720933
O O14 0.730177 0.040213 0.675559
O O15 0.142983 0.258153 0.247912
O O16 0.000000 0.750000 0.809616
#
# Coordination Sequence:
#
# PCOD8296663 Si02
#       8
#    16  16  16  16  16  16   8  16
#     4  12  24  38  67  97 134 172 227 285 333 401
#     4  11  23  42  67  98 134 172 231 281 338 413
#     4  11  23  42  65 104 132 179 231 279 338 422
#     4  11  21  43  61  95 128 170 227 270 339 400
#     4  10  24  43  66  98 140 174 233 275 347 417
#     4  11  23  43  68  98 139 178 221 284 346 402
#     4  10  24  40  68  88 134 190 210 290 342 404
#     4  11  21  41  69  98 135 179 228 289 335 404
#
# _framework density 20.999555999999998
#
# number of rings (size 3 to 8) (size 9 to 14) (size 15 to 20)
#    0.000    1.067    5.333    1.200    3.733    5.333 
#    0.000    2.667    0.000    0.000    0.000    0.000 
#    0.000    0.000    0.000    0.000    0.000    0.000 
#
# Total GULP energy -743602.172342 kJ/mol
# GULP energy per Si atom -12393.369539 kJ/mol
# Density = 2.095176 g / cm^3
# Si number density = 20.999556 Si / 1000 Ang^3
#
#
#
# Elastic Constant Matrix: (Units=GPa)
#
#
# Indices 1 2 3 4 5 6 
#
# 1 116.0012 34.3716 27.1054 0.0000 0.0000 0.0000
# 2 34.3716 93.5707 22.7015 0.0000 0.0000 0.0000
# 3 27.1054 22.7015 128.6612 0.0000 0.0000 0.0000
# 4 0.0000 0.0000 0.0000 27.3613 0.0000 0.0000
# 5 0.0000 0.0000 0.0000 0.0000 31.8268 0.0000
# 6 0.0000 0.0000 0.0000 0.0000 0.0000 36.5954
#
#
#
# Elastic Compliance Matrix: (Units=1/GPa)
#
#
# Indices 1 2 3 4 5 6 
#
# 1 0.009949 -0.003287 -0.001516 0.000000 0.000000 0.000000
# 2 -0.003287 0.012251 -0.001469 0.000000 0.000000 0.000000
# 3 -0.001516 -0.001469 0.008351 0.000000 0.000000 0.000000
# 4 0.000000 0.000000 0.000000 0.036548 0.000000 0.000000
# 5 0.000000 0.000000 0.000000 0.000000 0.031420 0.000000
# 6 0.000000 0.000000 0.000000 0.000000 0.000000 0.027326
#
#
# Mechanical properties :
#
#
# Convention : Reuss Voigt Hill
#
# Bulk Modulus (GPa) = 55.53461 56.28778 55.91120
# Shear Modulus (GPa) = 34.62836 36.09368 35.36102
#
# Velocity S-wave (km/s) = 4.06520 4.15032 4.10798
# Velocity P-wave (km/s) = 6.96688 7.05899 7.01309
#
# Compressibility (1/GPa) = 0.01800679
#
# Stress axis : x y z
#
# Youngs Moduli (GPa) = 100.51570 81.62695 119.74676
#
# Poissons Ratio (x) = 0.26828 0.18154
# Poissons Ratio (y) = 0.33036 0.17593
# Poissons Ratio (z) = 0.15238 0.11992
#
# Static dielectric constant tensor:
#      x y z
#    x 4.025190 0.000000 0.000000 
#    y 0.000000 3.945730 0.000000 
#    z 0.000000 0.000000 3.776090 
# 
# 
# High freq. dielectric constant tensor:
#      x y z
#    x 1.837870 0.000000 0.000000 
#    y 0.000000 1.817430 0.000000 
#    z 0.000000 0.000000 1.816640 
# 
# From -- ./inp_files/18278.got.cif
#   From: 2010.03.12/outbox.cif.g09.slc.cpg/sg73_10_cif.got.tgz:18278.got - 2010.04.16 15:25:48.
