data_PCOD8296570
_publ_section_title
;
Structure prediction by ZEFSAII (Michael W. Deem and Ramdas Pophale) SiO2 
 PCOD8296570
Probable space group: I B C A 
;
_chemical_formula_sum "Si O2"
_cell_formula_units_Z 88
_cell_length_a 23.282266
_cell_length_b 5.247721
_cell_length_c 31.936531
_cell_angle_alpha 90.000000
_cell_angle_beta 90.000000
_cell_angle_gamma 90.000000
_cell_volume 3901.968190
_symmetry_space_group_name_H-M "I B C A "
_symmetry_group_IT_number 73
_symmetry_cell_setting 'orthorhombic'
loop_
_space_group_symop_operation_xyz
x,y,z
-x,1/2-y,z
x,-y,1/2-z
1/2-x,y,-z
-x,-y,-z
x,1/2+y,-z
-x,y,1/2+z
1/2+x,-y,z
1/2+x,1/2+y,1/2+z
1/2-x,-y,1/2+z
1/2+x,1/2-y,-z
-x,1/2+y,1/2-z
1/2-x,1/2-y,1/2-z
1/2+x,y,1/2-z
1/2-x,1/2+y,z
x,1/2-y,1/2+z
loop_
_atom_site_type_symbol
_atom_site_label
_atom_site_fract_x
_atom_site_fract_y
_atom_site_fract_z
Si Si1 0.714046 0.289870 0.679523
Si Si2 0.150766 0.000000 0.250000
Si Si3 0.314844 0.831740 0.982000
Si Si4 0.063080 0.664105 0.382665
Si Si5 0.868184 0.682613 0.104650
Si Si6 0.563090 0.324440 0.287204
O O1 0.739002 0.572935 0.672673
O O2 0.689467 0.284444 0.727069
O O3 0.663740 0.236506 0.646750
O O4 0.109663 0.097979 0.212401
O O5 0.319921 0.829270 0.931831
O O6 0.250000 0.835955 0.000000
O O7 0.346774 0.583507 0.000676
O O8 0.085852 0.408799 0.406041
O O9 0.060031 0.570308 0.334184
O O10 0.000000 0.750000 0.398268
O O11 0.103537 0.905743 0.390687
O O12 0.500000 0.250000 0.271857
O O13 0.587614 0.500000 0.250000
#
# Coordination Sequence:
#
# PCOD8296570 Si02
#       6
#    16   8  16  16  16  16
#     4  12  28  43  64  92 135 190 232 283 332 417
#     4  12  24  44  58  90 134 186 234 282 350 388
#     4  10  23  41  70 105 135 171 217 284 341 414
#     4  11  25  44  71 105 138 183 234 283 347 419
#     4  12  24  46  73 101 142 181 221 287 357 403
#     4  11  23  38  65  95 131 178 241 302 347 392
#
# _framework density 22.552720000000001
#
# number of rings (size 3 to 8) (size 9 to 14) (size 15 to 20)
#    0.000    0.727    2.727    4.364    7.636    0.000 
#    0.000    0.000    0.000   10.909    0.000    0.000 
#    0.000    0.000    0.000    0.000    0.000    0.000 
#
# Total GULP energy -545270.868972 kJ/mol
# GULP energy per Si atom -12392.519749 kJ/mol
# Density = 2.250139 g / cm^3
# Si number density = 22.552720 Si / 1000 Ang^3
#
#
#
# Elastic Constant Matrix: (Units=GPa)
#
#
# Indices 1 2 3 4 5 6 
#
# 1 101.1173 30.3925 39.0059 0.0000 0.0000 0.0000
# 2 30.3925 144.1830 27.3442 0.0000 0.0000 0.0000
# 3 39.0059 27.3442 90.5826 0.0000 0.0000 0.0000
# 4 0.0000 0.0000 0.0000 30.1126 0.0000 0.0000
# 5 0.0000 0.0000 0.0000 0.0000 30.1007 0.0000
# 6 0.0000 0.0000 0.0000 0.0000 0.0000 35.0480
#
#
#
# Elastic Compliance Matrix: (Units=1/GPa)
#
#
# Indices 1 2 3 4 5 6 
#
# 1 0.012229 -0.001675 -0.004760 0.000000 0.000000 0.000000
# 2 -0.001675 0.007586 -0.001569 0.000000 0.000000 0.000000
# 3 -0.004760 -0.001569 0.013563 0.000000 0.000000 0.000000
# 4 0.000000 0.000000 0.000000 0.033209 0.000000 0.000000
# 5 0.000000 0.000000 0.000000 0.000000 0.033222 0.000000
# 6 0.000000 0.000000 0.000000 0.000000 0.000000 0.028532
#
#
# Mechanical properties :
#
#
# Convention : Reuss Voigt Hill
#
# Bulk Modulus (GPa) = 57.56993 58.81867 58.19430
# Shear Modulus (GPa) = 33.30226 34.99494 34.14860
#
# Velocity S-wave (km/s) = 3.84688 3.94343 3.89545
# Velocity P-wave (km/s) = 6.73153 6.84626 6.78914
#
# Compressibility (1/GPa) = 0.01737018
#
# Stress axis : x y z
#
# Youngs Moduli (GPa) = 81.77091 131.81784 73.72937
#
# Poissons Ratio (x) = 0.22080 0.35098
# Poissons Ratio (y) = 0.13697 0.11566
# Poissons Ratio (z) = 0.38927 0.20679
#
# Static dielectric constant tensor:
#      x y z
#    x 4.035440 0.000000 0.000000 
#    y 0.000000 5.127310 0.000000 
#    z 0.000000 0.000000 3.853760 
# 
# 
# High freq. dielectric constant tensor:
#      x y z
#    x 1.883900 0.000000 0.000000 
#    y 0.000000 1.903370 0.000000 
#    z 0.000000 0.000000 1.869470 
# 
# From -- ./inp_files/2272.got.cif
#   From: 2010.03.12/outbox.cif.g09.slc.cpg/sg73_2_cif.got.tgz:2272.got - 2010.04.16 15:25:48.
