data_PCOD8296716
_publ_section_title
;
Structure prediction by ZEFSAII (Michael W. Deem and Ramdas Pophale) SiO2 
 PCOD8296716
Probable space group: I B C A 
;
_chemical_formula_sum "Si O2"
_cell_formula_units_Z 64
_cell_length_a 9.983678
_cell_length_b 9.256426
_cell_length_c 28.919194
_cell_angle_alpha 90.000000
_cell_angle_beta 90.000000
_cell_angle_gamma 90.000000
_cell_volume 2672.514583
_symmetry_space_group_name_H-M "I B C A "
_symmetry_group_IT_number 73
_symmetry_cell_setting 'orthorhombic'
loop_
_space_group_symop_operation_xyz
x,y,z
-x,1/2-y,z
x,-y,1/2-z
1/2-x,y,-z
-x,-y,-z
x,1/2+y,-z
-x,y,1/2+z
1/2+x,-y,z
1/2+x,1/2+y,1/2+z
1/2-x,-y,1/2+z
1/2+x,1/2-y,-z
-x,1/2+y,1/2-z
1/2-x,1/2-y,1/2-z
1/2+x,y,1/2-z
1/2-x,1/2+y,z
x,1/2-y,1/2+z
loop_
_atom_site_type_symbol
_atom_site_label
_atom_site_fract_x
_atom_site_fract_y
_atom_site_fract_z
Si Si1 0.839861 0.056897 0.061102
Si Si2 0.022717 0.589260 0.204640
Si Si3 0.500000 0.250000 0.384780
Si Si4 0.792536 0.055145 0.648549
Si Si5 0.250000 0.183717 0.000000
O O1 0.977002 0.098597 0.087342
O O2 0.724553 0.013058 0.097344
O O3 0.858558 0.927283 0.023682
O O4 0.810165 0.214052 0.038915
O O5 0.056103 0.500000 0.250000
O O6 0.146196 0.577024 0.169619
O O7 0.000000 0.750000 0.222079
O O8 0.885031 0.544452 0.180160
O O9 0.632738 0.212534 0.354795
#
# Coordination Sequence:
#
# PCOD8296716 Si02
#       5
#    16  16   8  16   8
#     4  11  23  46  71 110 154 203 254 315 375 449
#     4  12  30  50  82 117 152 199 255 318 381 466
#     4  12  24  44  78 110 148 210 252 314 376 460
#     4  12  26  50  81 112 157 203 257 309 393 455
#     4  10  24  44  70 110 154 198 264 312 374 442
#
# _framework density 23.947486000000001
#
# number of rings (size 3 to 8) (size 9 to 14) (size 15 to 20)
#    0.000    0.500    5.000    2.250    1.750    3.000 
#    0.000    0.000    0.000    0.000    0.000    0.000 
#    0.000    0.000    0.000    0.000    0.000    0.000 
#
# Total GULP energy -396565.293381 kJ/mol
# GULP energy per Si atom -12392.665418 kJ/mol
# Density = 2.389298 g / cm^3
# Si number density = 23.947486 Si / 1000 Ang^3
#
#
#
# Elastic Constant Matrix: (Units=GPa)
#
#
# Indices 1 2 3 4 5 6 
#
# 1 101.1049 35.5451 24.7199 0.0000 0.0000 0.0000
# 2 35.5451 168.6358 61.4300 0.0000 0.0000 0.0000
# 3 24.7199 61.4300 111.0796 0.0000 0.0000 0.0000
# 4 0.0000 0.0000 0.0000 44.4562 0.0000 0.0000
# 5 0.0000 0.0000 0.0000 0.0000 -42.6454 0.0000
# 6 0.0000 0.0000 0.0000 0.0000 0.0000 40.6374
#
#
#
# Elastic Compliance Matrix: (Units=1/GPa)
#
#
# Indices 1 2 3 4 5 6 
#
# 1 0.010864 -0.001765 -0.001442 0.000000 0.000000 0.000000
# 2 -0.001765 0.007713 -0.003873 0.000000 0.000000 0.000000
# 3 -0.001442 -0.003873 0.011465 0.000000 0.000000 0.000000
# 4 0.000000 0.000000 0.000000 0.022494 0.000000 0.000000
# 5 0.000000 0.000000 0.000000 0.000000 -0.023449 0.000000
# 6 0.000000 0.000000 0.000000 0.000000 0.000000 0.024608
#
#
# Mechanical properties :
#
#
# Convention : Reuss Voigt Hill
#
# Bulk Modulus (GPa) = 62.95893 69.35670 66.15782
# Shear Modulus (GPa) = 68.35624 25.76466 47.06045
#
# Velocity S-wave (km/s) = 5.34848 3.28362 4.43781
# Velocity P-wave (km/s) = 8.03051 6.58795 7.34473
#
# Compressibility (1/GPa) = 0.01588337
#
# Stress axis : x y z
#
# Youngs Moduli (GPa) = 92.05045 129.65849 87.22186
#
# Poissons Ratio (x) = 0.22880 0.12575
# Poissons Ratio (y) = 0.16244 0.33777
# Poissons Ratio (z) = 0.13271 0.50211
#
# Static dielectric constant tensor:
#      x y z
#    x 4.313990 0.000000 0.000000 
#    y 0.000000 4.493290 0.000000 
#    z 0.000000 0.000000 4.484540 
# 
# 
# High freq. dielectric constant tensor:
#      x y z
#    x 1.941800 0.000000 0.000000 
#    y 0.000000 1.965500 0.000000 
#    z 0.000000 0.000000 1.959920 
# 
# From -- ./inp_files/9053.got.cif
#   From: 2010.03.12/outbox.cif.g09.slc.cpg/sg73_5_cif.got.tgz:9053.got - 2010.04.16 15:25:48.
