data_PCOD8296188
_publ_section_title
;
Structure prediction by ZEFSAII (Michael W. Deem and Ramdas Pophale) SiO2 
 PCOD8296188
Probable space group: I B C A 
;
_chemical_formula_sum "Si O2"
_cell_formula_units_Z 104
_cell_length_a 19.106599
_cell_length_b 27.200622
_cell_length_c 9.520463
_cell_angle_alpha 90.000000
_cell_angle_beta 90.000000
_cell_angle_gamma 90.000000
_cell_volume 4947.892936
_symmetry_space_group_name_H-M "I B C A "
_symmetry_group_IT_number 73
_symmetry_cell_setting 'orthorhombic'
loop_
_space_group_symop_operation_xyz
x,y,z
-x,1/2-y,z
x,-y,1/2-z
1/2-x,y,-z
-x,-y,-z
x,1/2+y,-z
-x,y,1/2+z
1/2+x,-y,z
1/2+x,1/2+y,1/2+z
1/2-x,-y,1/2+z
1/2+x,1/2-y,-z
-x,1/2+y,1/2-z
1/2-x,1/2-y,1/2-z
1/2+x,y,1/2-z
1/2-x,1/2+y,z
x,1/2-y,1/2+z
loop_
_atom_site_type_symbol
_atom_site_label
_atom_site_fract_x
_atom_site_fract_y
_atom_site_fract_z
Si Si1 0.456086 0.063392 0.000886
Si Si2 0.816735 0.315458 0.307190
Si Si3 0.832566 0.297766 0.767296
Si Si4 0.999655 0.000000 0.250000
Si Si5 0.824874 0.632137 0.480317
Si Si6 0.446587 0.146566 0.577106
Si Si7 0.482753 0.194990 0.319845
O O1 0.388450 0.096980 0.020194
O O2 0.530345 0.092636 0.022798
O O3 0.451314 0.026047 0.132499
O O4 0.453834 0.037647 0.846202
O O5 0.733103 0.311999 0.335033
O O6 0.843943 0.260478 0.279609
O O7 0.862681 0.341414 0.431740
O O8 0.834550 0.349283 0.175753
O O9 0.820639 0.319707 0.921178
O O10 0.902460 0.320618 0.703980
O O11 0.750000 0.604028 0.500000
O O12 0.493028 0.185405 0.485519
O O13 0.469070 0.156265 0.737670
O O14 0.500000 0.250000 0.275793
#
# Coordination Sequence:
#
# PCOD8296188 Si02
#       7
#    16  16  16   8  16  16  16
#     4  11  22  42  65  93 118 150 198 258 323 386
#     4  10  22  36  55  86 125 175 212 246 290 345
#     4  10  22  36  54  83 129 173 211 248 288 340
#     4  10  24  42  68  92 116 144 188 266 336 390
#     4  10  21  39  62  88 125 168 204 248 303 363
#     4  12  24  37  62  87 121 159 211 255 301 359
#     4  12  24  35  54  87 126 166 209 259 290 336
#
# _framework density 21.019047
#
# number of rings (size 3 to 8) (size 9 to 14) (size 15 to 20)
#    0.000    1.231    3.077    3.231    2.154    0.615 
#    0.000    0.769    0.000    0.000    0.000    0.000 
#    0.000    0.000    0.000    0.000    0.000    0.000 
#
# Total GULP energy -644347.990829 kJ/mol
# GULP energy per Si atom -12391.307516 kJ/mol
# Density = 2.097121 g / cm^3
# Si number density = 21.019047 Si / 1000 Ang^3
#
#
#
# Elastic Constant Matrix: (Units=GPa)
#
#
# Indices 1 2 3 4 5 6 
#
# 1 118.4638 38.6599 18.6182 0.0000 0.0000 0.0000
# 2 38.6599 84.2205 19.6060 0.0000 0.0000 0.0000
# 3 18.6182 19.6060 82.2862 0.0000 0.0000 0.0000
# 4 0.0000 0.0000 0.0000 27.8371 0.0000 0.0000
# 5 0.0000 0.0000 0.0000 0.0000 28.9927 0.0000
# 6 0.0000 0.0000 0.0000 0.0000 0.0000 16.1361
#
#
#
# Elastic Compliance Matrix: (Units=1/GPa)
#
#
# Indices 1 2 3 4 5 6 
#
# 1 0.010047 -0.004323 -0.001243 0.000000 0.000000 0.000000
# 2 -0.004323 0.014431 -0.002460 0.000000 0.000000 0.000000
# 3 -0.001243 -0.002460 0.013020 0.000000 0.000000 0.000000
# 4 0.000000 0.000000 0.000000 0.035923 0.000000 0.000000
# 5 0.000000 0.000000 0.000000 0.000000 0.034491 0.000000
# 6 0.000000 0.000000 0.000000 0.000000 0.000000 0.061973
#
#
# Mechanical properties :
#
#
# Convention : Reuss Voigt Hill
#
# Bulk Modulus (GPa) = 46.62957 48.74874 47.68915
# Shear Modulus (GPa) = 25.89507 28.46562 27.18035
#
# Velocity S-wave (km/s) = 3.51377 3.68404 3.59991
# Velocity P-wave (km/s) = 6.22050 6.42956 6.32590
#
# Compressibility (1/GPa) = 0.02144562
#
# Stress axis : x y z
#
# Youngs Moduli (GPa) = 99.52733 69.29738 76.80355
#
# Poissons Ratio (x) = 0.29955 0.09550
# Poissons Ratio (y) = 0.43022 0.18896
# Poissons Ratio (z) = 0.12375 0.17049
#
# Static dielectric constant tensor:
#      x y z
#    x 4.037620 0.000000 0.000000 
#    y 0.000000 3.632840 0.000000 
#    z 0.000000 0.000000 3.869980 
# 
# 
# High freq. dielectric constant tensor:
#      x y z
#    x 1.828230 0.000000 0.000000 
#    y 0.000000 1.792020 0.000000 
#    z 0.000000 0.000000 1.834650 
# 
# From -- ./inp_files/6686.got.cif
#   From: 2010.03.12/outbox.cif.g09.slc.cpg/sg73_4_cif.got.tgz:6686.got - 2010.04.16 15:25:48.
