data_PCOD8296613
_publ_section_title
;
Structure prediction by ZEFSAII (Michael W. Deem and Ramdas Pophale) SiO2 
 PCOD8296613
Probable space group: I B C A 
;
_chemical_formula_sum "Si O2"
_cell_formula_units_Z 72
_cell_length_a 21.935664
_cell_length_b 8.906910
_cell_length_c 16.989075
_cell_angle_alpha 90.000000
_cell_angle_beta 90.000000
_cell_angle_gamma 90.000000
_cell_volume 3319.308230
_symmetry_space_group_name_H-M "I B C A "
_symmetry_group_IT_number 73
_symmetry_cell_setting 'orthorhombic'
loop_
_space_group_symop_operation_xyz
x,y,z
-x,1/2-y,z
x,-y,1/2-z
1/2-x,y,-z
-x,-y,-z
x,1/2+y,-z
-x,y,1/2+z
1/2+x,-y,z
1/2+x,1/2+y,1/2+z
1/2-x,-y,1/2+z
1/2+x,1/2-y,-z
-x,1/2+y,1/2-z
1/2-x,1/2-y,1/2-z
1/2+x,y,1/2-z
1/2-x,1/2+y,z
x,1/2-y,1/2+z
loop_
_atom_site_type_symbol
_atom_site_label
_atom_site_fract_x
_atom_site_fract_y
_atom_site_fract_z
Si Si1 0.422593 0.637080 0.444506
Si Si2 0.953116 0.971571 0.097014
Si Si3 0.887087 0.500000 0.750000
Si Si4 0.712973 0.929076 0.421258
Si Si5 0.777884 0.661608 0.679305
O O1 0.442542 0.603706 0.534090
O O2 0.475279 0.564562 0.390028
O O3 0.418556 0.816578 0.429347
O O4 0.359434 0.547693 0.429968
O O5 0.929669 0.048205 0.177506
O O6 0.845389 0.628409 0.711381
O O7 0.750000 0.970152 0.500000
O O8 0.721960 0.754464 0.401661
O O9 0.738969 0.015405 0.344514
O O10 0.750000 0.750000 0.750000
#
# Coordination Sequence:
#
# PCOD8296613 Si02
#       5
#    16  16   8  16  16
#     4  10  23  44  67  98 130 174 228 276 328 409
#     4  10  23  44  69  94 134 175 225 279 337 392
#     4  12  22  44  66  94 136 176 216 278 338 398
#     4  12  25  42  69 100 131 178 223 276 337 405
#     4  12  25  43  64  98 137 172 215 280 341 397
#
# _framework density 21.691265999999999
#
# number of rings (size 3 to 8) (size 9 to 14) (size 15 to 20)
#    0.000    0.889    4.444    2.000    3.111    0.000 
#    4.000    8.889    0.000    0.000    0.000    0.000 
#    0.000    0.000    0.000    0.000    0.000    0.000 
#
# Total GULP energy -446069.653076 kJ/mol
# GULP energy per Si atom -12390.823697 kJ/mol
# Density = 2.164190 g / cm^3
# Si number density = 21.691266 Si / 1000 Ang^3
#
#
#
# Elastic Constant Matrix: (Units=GPa)
#
#
# Indices 1 2 3 4 5 6 
#
# 1 160.5394 29.3132 56.6886 0.0000 0.0000 0.0000
# 2 29.3132 73.7877 44.5016 0.0000 0.0000 0.0000
# 3 56.6886 44.5016 123.6364 0.0000 0.0000 0.0000
# 4 0.0000 0.0000 0.0000 40.5004 0.0000 0.0000
# 5 0.0000 0.0000 0.0000 0.0000 36.9072 0.0000
# 6 0.0000 0.0000 0.0000 0.0000 0.0000 14.5063
#
#
#
# Elastic Compliance Matrix: (Units=1/GPa)
#
#
# Indices 1 2 3 4 5 6 
#
# 1 0.007509 -0.001158 -0.003026 0.000000 0.000000 0.000000
# 2 -0.001158 0.017489 -0.005764 0.000000 0.000000 0.000000
# 3 -0.003026 -0.005764 0.011550 0.000000 0.000000 0.000000
# 4 0.000000 0.000000 0.000000 0.024691 0.000000 0.000000
# 5 0.000000 0.000000 0.000000 0.000000 0.027095 0.000000
# 6 0.000000 0.000000 0.000000 0.000000 0.000000 0.068935
#
#
# Mechanical properties :
#
#
# Convention : Reuss Voigt Hill
#
# Bulk Modulus (GPa) = 60.05289 68.77447 64.41368
# Shear Modulus (GPa) = 27.36485 33.54682 30.45584
#
# Velocity S-wave (km/s) = 3.55570 3.93690 3.75114
# Velocity P-wave (km/s) = 6.67853 7.24158 6.96574
#
# Compressibility (1/GPa) = 0.01665199
#
# Stress axis : x y z
#
# Youngs Moduli (GPa) = 133.17333 57.18001 86.57701
#
# Poissons Ratio (x) = 0.06621 0.26200
# Poissons Ratio (y) = 0.15421 0.49902
# Poissons Ratio (z) = 0.40300 0.32958
#
# Static dielectric constant tensor:
#      x y z
#    x -30.916640 0.000000 0.000000 
#    y 0.000000 4.078110 0.000000 
#    z 0.000000 0.000000 3.810590 
# 
# 
# High freq. dielectric constant tensor:
#      x y z
#    x 1.863450 0.000000 0.000000 
#    y 0.000000 1.840280 0.000000 
#    z 0.000000 0.000000 1.854750 
# 
# From -- ./inp_files/5306.got.cif
#   From: 2010.03.12/outbox.cif.g09.slc.cpg/sg73_3_cif.got.tgz:5306.got - 2010.04.16 15:25:48.
