data_PCOD8296714
_publ_section_title
;
Structure prediction by ZEFSAII (Michael W. Deem and Ramdas Pophale) SiO2 
 PCOD8296714
Probable space group: I B C A 
;
_chemical_formula_sum "Si O2"
_cell_formula_units_Z 88
_cell_length_a 20.666360
_cell_length_b 8.812269
_cell_length_c 20.221627
_cell_angle_alpha 90.000000
_cell_angle_beta 90.000000
_cell_angle_gamma 90.000000
_cell_volume 3682.712632
_symmetry_space_group_name_H-M "I B C A "
_symmetry_group_IT_number 73
_symmetry_cell_setting 'orthorhombic'
loop_
_space_group_symop_operation_xyz
x,y,z
-x,1/2-y,z
x,-y,1/2-z
1/2-x,y,-z
-x,-y,-z
x,1/2+y,-z
-x,y,1/2+z
1/2+x,-y,z
1/2+x,1/2+y,1/2+z
1/2-x,-y,1/2+z
1/2+x,1/2-y,-z
-x,1/2+y,1/2-z
1/2-x,1/2-y,1/2-z
1/2+x,y,1/2-z
1/2-x,1/2+y,z
x,1/2-y,1/2+z
loop_
_atom_site_type_symbol
_atom_site_label
_atom_site_fract_x
_atom_site_fract_y
_atom_site_fract_z
Si Si1 0.800427 0.519160 0.910383
Si Si2 0.000000 0.750000 0.518050
Si Si3 0.500000 0.250000 0.318085
Si Si4 0.559545 0.966148 0.085513
Si Si5 0.750000 0.774804 0.000000
Si Si6 0.818046 0.066535 0.677809
Si Si7 0.630893 0.876073 0.699173
O O1 0.789034 0.676267 0.948171
O O2 0.749001 0.493059 0.851356
O O3 0.869881 0.539928 0.873331
O O4 0.801960 0.381502 0.962175
O O5 0.947603 0.653068 0.475411
O O6 0.041323 0.635824 0.563763
O O7 0.510599 0.096570 0.359257
O O8 0.436007 0.204297 0.276966
O O9 0.630107 0.970586 0.119449
O O10 0.814533 0.247067 0.690891
O O11 0.835395 0.000000 0.750000
O O12 0.654809 0.000000 0.750000
#
# Coordination Sequence:
#
# PCOD8296714 Si02
#       7
#    16   8   8  16   8  16  16
#     4  11  23  46  68 107 139 188 229 297 364 435
#     4   9  18  40  65  92 131 180 231 286 352 435
#     4   9  22  44  61  98 135 176 243 282 352 413
#     4   9  20  40  61  97 127 173 224 291 348 415
#     4  10  24  44  70 104 148 184 232 290 352 452
#     4  11  25  42  66 100 139 178 236 291 360 438
#     4  11  25  45  73  99 142 191 239 305 357 436
#
# _framework density 23.895430000000001
#
# number of rings (size 3 to 8) (size 9 to 14) (size 15 to 20)
#    0.000    1.818    1.818    0.545    2.545    7.273 
#   16.364    1.818    0.000    0.000    0.000    0.000 
#    0.000    0.000    0.000    0.000    0.000    0.000 
#
# Total GULP energy -545085.009413 kJ/mol
# GULP energy per Si atom -12388.295668 kJ/mol
# Density = 2.384104 g / cm^3
# Si number density = 23.895430 Si / 1000 Ang^3
#
#
#
# Elastic Constant Matrix: (Units=GPa)
#
#
# Indices 1 2 3 4 5 6 
#
# 1 75.3339 26.8221 31.8249 0.0000 0.0000 0.0000
# 2 26.8221 171.5177 67.6853 0.0000 0.0000 0.0000
# 3 31.8249 67.6853 120.3763 0.0000 0.0000 0.0000
# 4 0.0000 0.0000 0.0000 -60.6949 0.0000 0.0000
# 5 0.0000 0.0000 0.0000 0.0000 7.4907 0.0000
# 6 0.0000 0.0000 0.0000 0.0000 0.0000 16.8047
#
#
#
# Elastic Compliance Matrix: (Units=1/GPa)
#
#
# Indices 1 2 3 4 5 6 
#
# 1 0.015078 -0.001009 -0.003419 0.000000 0.000000 0.000000
# 2 -0.001009 0.007560 -0.003984 0.000000 0.000000 0.000000
# 3 -0.003419 -0.003984 0.011452 0.000000 0.000000 0.000000
# 4 0.000000 0.000000 0.000000 -0.016476 0.000000 0.000000
# 5 0.000000 0.000000 0.000000 0.000000 0.133499 0.000000
# 6 0.000000 0.000000 0.000000 0.000000 0.000000 0.059507
#
#
# Mechanical properties :
#
#
# Convention : Reuss Voigt Hill
#
# Bulk Modulus (GPa) = 57.91909 68.87696 63.39803
# Shear Modulus (GPa) = 21.44092 8.77980 15.11036
#
# Velocity S-wave (km/s) = 2.99871 1.91892 2.51739
# Velocity P-wave (km/s) = 6.02336 5.81348 5.91935
#
# Compressibility (1/GPa) = 0.01726546
#
# Stress axis : x y z
#
# Youngs Moduli (GPa) = 66.32285 132.26852 87.32421
#
# Poissons Ratio (x) = 0.13341 0.29857
# Poissons Ratio (y) = 0.06689 0.34793
# Poissons Ratio (z) = 0.22677 0.52701
#
# Static dielectric constant tensor:
#      x y z
#    x 4.184500 0.000000 0.000000 
#    y 0.000000 4.655950 0.000000 
#    z 0.000000 0.000000 5.073970 
# 
# 
# High freq. dielectric constant tensor:
#      x y z
#    x 1.925920 0.000000 0.000000 
#    y 0.000000 1.964350 0.000000 
#    z 0.000000 0.000000 1.951680 
# 
# From -- ./inp_files/30083.got.cif
#   From: 2010.03.12/outbox.cif.g09.slc.cpg/sg73_16_cif.got.tgz:30083.got - 2010.04.16 15:25:48.
