data_PCOD8296972
_publ_section_title
;
Structure prediction by ZEFSAII (Michael W. Deem and Ramdas Pophale) SiO2 
 PCOD8296972
Probable space group: I B C A 
;
_chemical_formula_sum "Si O2"
_cell_formula_units_Z 88
_cell_length_a 11.926054
_cell_length_b 13.459296
_cell_length_c 24.890895
_cell_angle_alpha 90.000000
_cell_angle_beta 90.000000
_cell_angle_gamma 90.000000
_cell_volume 3995.394143
_symmetry_space_group_name_H-M "I B C A "
_symmetry_group_IT_number 73
_symmetry_cell_setting 'orthorhombic'
loop_
_space_group_symop_operation_xyz
x,y,z
-x,1/2-y,z
x,-y,1/2-z
1/2-x,y,-z
-x,-y,-z
x,1/2+y,-z
-x,y,1/2+z
1/2+x,-y,z
1/2+x,1/2+y,1/2+z
1/2-x,-y,1/2+z
1/2+x,1/2-y,-z
-x,1/2+y,1/2-z
1/2-x,1/2-y,1/2-z
1/2+x,y,1/2-z
1/2-x,1/2+y,z
x,1/2-y,1/2+z
loop_
_atom_site_type_symbol
_atom_site_label
_atom_site_fract_x
_atom_site_fract_y
_atom_site_fract_z
Si Si1 0.297406 0.818816 0.703098
Si Si2 0.919714 0.614441 0.952710
Si Si3 0.750000 0.755447 0.000000
Si Si4 0.576382 0.607894 0.445906
Si Si5 0.934083 0.500000 0.250000
Si Si6 0.000000 0.750000 0.365812
Si Si7 0.946050 0.352038 0.828557
O O1 0.250000 0.750000 0.750000
O O2 0.387951 0.754743 0.669990
O O3 0.188976 0.849301 0.668592
O O4 0.354835 0.919622 0.722464
O O5 0.815826 0.688029 0.957610
O O6 0.876871 0.503981 0.941383
O O7 0.996429 0.651690 0.903242
O O8 0.984002 0.619454 0.008671
O O9 0.679023 0.822131 0.959751
O O10 0.515160 0.635988 0.390226
O O11 0.013212 0.554592 0.206673
O O12 0.000000 0.250000 0.804889
#
# Coordination Sequence:
#
# PCOD8296972 Si02
#       7
#    16  16   8  16   8   8  16
#     4  12  26  48  74 106 146 192 251 312 376 441
#     4  11  24  44  68 104 147 187 235 297 364 448
#     4  12  20  44  68 100 144 190 232 296 354 450
#     4  11  25  43  68 104 143 183 235 288 361 439
#     4  12  26  50  74 106 150 188 256 316 372 444
#     4  12  24  46  74 110 150 196 246 308 388 442
#     4  12  25  48  76 108 143 196 246 307 372 448
#
# _framework density 22.025361
#
# number of rings (size 3 to 8) (size 9 to 14) (size 15 to 20)
#    0.000    0.364    3.636    5.455    0.000    1.455 
#    6.545    0.000    0.000    0.000    0.000    0.000 
#    0.000    0.000    0.000    0.000    0.000    0.000 
#
# Total GULP energy -545788.182758 kJ/mol
# GULP energy per Si atom -12404.276881 kJ/mol
# Density = 2.197523 g / cm^3
# Si number density = 22.025361 Si / 1000 Ang^3
#
#
#
# Elastic Constant Matrix: (Units=GPa)
#
#
# Indices 1 2 3 4 5 6 
#
# 1 117.8455 53.2868 36.2591 0.0000 0.0000 0.0000
# 2 53.2868 162.3122 48.5374 0.0000 0.0000 0.0000
# 3 36.2591 48.5374 123.8603 0.0000 0.0000 0.0000
# 4 0.0000 0.0000 0.0000 29.5988 0.0000 0.0000
# 5 0.0000 0.0000 0.0000 0.0000 29.9064 0.0000
# 6 0.0000 0.0000 0.0000 0.0000 0.0000 125.4338
#
#
#
# Elastic Compliance Matrix: (Units=1/GPa)
#
#
# Indices 1 2 3 4 5 6 
#
# 1 0.010355 -0.002824 -0.001925 0.000000 0.000000 0.000000
# 2 -0.002824 0.007749 -0.002210 0.000000 0.000000 0.000000
# 3 -0.001925 -0.002210 0.009503 0.000000 0.000000 0.000000
# 4 0.000000 0.000000 0.000000 0.033785 0.000000 0.000000
# 5 0.000000 0.000000 0.000000 0.000000 0.033438 0.000000
# 6 0.000000 0.000000 0.000000 0.000000 0.000000 0.007972
#
#
# Mechanical properties :
#
#
# Convention : Reuss Voigt Hill
#
# Bulk Modulus (GPa) = 73.04729 75.57608 74.31169
# Shear Modulus (GPa) = 41.22622 54.71679 47.97150
#
# Velocity S-wave (km/s) = 4.33108 4.98965 4.67198
# Velocity P-wave (km/s) = 7.63204 8.22089 7.93194
#
# Compressibility (1/GPa) = 0.01368976
#
# Stress axis : x y z
#
# Youngs Moduli (GPa) = 96.57383 129.05070 105.22950
#
# Poissons Ratio (x) = 0.36443 0.20253
# Poissons Ratio (y) = 0.27272 0.23255
# Poissons Ratio (z) = 0.18587 0.28519
#
# Static dielectric constant tensor:
#      x y z
#    x 4.062160 0.000000 0.000000 
#    y 0.000000 4.299100 0.000000 
#    z 0.000000 0.000000 4.036270 
# 
# 
# High freq. dielectric constant tensor:
#      x y z
#    x 1.865940 0.000000 0.000000 
#    y 0.000000 1.884460 0.000000 
#    z 0.000000 0.000000 1.877920 
# 
# From -- ./inp_files/28861.got.cif
#   From: 2010.03.12/outbox.cif.g09.slc.cpg/sg73_15_cif.got.tgz:28861.got - 2010.04.16 15:25:48.
