data_PCOD8296989
_publ_section_title
;
Structure prediction by ZEFSAII (Michael W. Deem and Ramdas Pophale) SiO2 
 PCOD8296989
Probable space group: I B C A 
;
_chemical_formula_sum "Si O2"
_cell_formula_units_Z 120
_cell_length_a 21.936556
_cell_length_b 21.899121
_cell_length_c 11.613302
_cell_angle_alpha 90.000000
_cell_angle_beta 90.000000
_cell_angle_gamma 90.000000
_cell_volume 5578.929177
_symmetry_space_group_name_H-M "I B C A "
_symmetry_group_IT_number 73
_symmetry_cell_setting 'orthorhombic'
loop_
_space_group_symop_operation_xyz
x,y,z
-x,1/2-y,z
x,-y,1/2-z
1/2-x,y,-z
-x,-y,-z
x,1/2+y,-z
-x,y,1/2+z
1/2+x,-y,z
1/2+x,1/2+y,1/2+z
1/2-x,-y,1/2+z
1/2+x,1/2-y,-z
-x,1/2+y,1/2-z
1/2-x,1/2-y,1/2-z
1/2+x,y,1/2-z
1/2-x,1/2+y,z
x,1/2-y,1/2+z
loop_
_atom_site_type_symbol
_atom_site_label
_atom_site_fract_x
_atom_site_fract_y
_atom_site_fract_z
Si Si1 0.310584 0.209693 0.730652
Si Si2 0.185094 0.859424 0.456128
Si Si3 0.000000 0.250000 0.497486
Si Si4 0.353387 0.482933 0.372442
Si Si5 0.398884 0.309751 0.641401
Si Si6 0.923883 0.648145 0.885259
Si Si7 0.992556 0.968338 0.874538
Si Si8 0.816580 0.608880 0.041752
O O1 0.250000 0.250000 0.750000
O O2 0.334700 0.184973 0.852416
O O3 0.362897 0.248148 0.669819
O O4 0.301642 0.149831 0.653042
O O5 0.250000 0.836182 0.500000
O O6 0.189535 0.930764 0.424632
O O7 0.136605 0.853716 0.556144
O O8 0.963640 0.204998 0.413981
O O9 0.955297 0.288842 0.577626
O O10 0.324859 0.500000 0.250000
O O11 0.421034 0.454783 0.359530
O O12 0.353475 0.545902 0.442385
O O13 0.407480 0.350503 0.752500
O O14 0.970455 0.592969 0.897516
O O15 0.859712 0.644584 0.952877
O O16 0.013589 0.000000 0.750000
O O17 0.000000 0.000000 0.000000
O O18 0.750000 0.590565 0.000000
#
# Coordination Sequence:
#
# PCOD8296989 Si02
#       8
#    16  16   8  16  16  16  16  16
#     4  12  25  46  72 105 147 193 246 298 375 449
#     4  12  26  45  73 106 145 191 245 304 363 448
#     4  12  26  48  70 108 152 188 248 308 376 444
#     4  11  24  47  71 103 140 191 244 299 372 436
#     4  12  27  43  74 109 146 195 244 307 373 443
#     4  12  27  47  73 109 150 192 249 310 373 448
#     4  11  26  47  76 106 142 195 249 306 375 446
#     4  12  26  46  73 103 147 193 242 306 373 446
#
# _framework density 21.509505000000001
#
# number of rings (size 3 to 8) (size 9 to 14) (size 15 to 20)
#    0.000    0.267    5.333    3.200    5.600    1.067 
#    0.000    0.667    0.000    0.000    0.000    0.000 
#    0.000    0.000    0.000    0.000    0.000    0.000 
#
# Total GULP energy -743836.917858 kJ/mol
# GULP energy per Si atom -12397.281964 kJ/mol
# Density = 2.146055 g / cm^3
# Si number density = 21.509505 Si / 1000 Ang^3
#
#
#
# Elastic Constant Matrix: (Units=GPa)
#
#
# Indices 1 2 3 4 5 6 
#
# 1 107.1736 28.3618 35.6081 0.0000 0.0000 0.0000
# 2 28.3618 106.8005 46.0051 0.0000 0.0000 0.0000
# 3 35.6081 46.0051 156.4474 0.0000 0.0000 0.0000
# 4 0.0000 0.0000 0.0000 43.8321 0.0000 0.0000
# 5 0.0000 0.0000 0.0000 0.0000 31.9148 0.0000
# 6 0.0000 0.0000 0.0000 0.0000 0.0000 31.2824
#
#
#
# Elastic Compliance Matrix: (Units=1/GPa)
#
#
# Indices 1 2 3 4 5 6 
#
# 1 0.010456 -0.002006 -0.001790 0.000000 0.000000 0.000000
# 2 -0.002006 0.011106 -0.002809 0.000000 0.000000 0.000000
# 3 -0.001790 -0.002809 0.007625 0.000000 0.000000 0.000000
# 4 0.000000 0.000000 0.000000 0.022814 0.000000 0.000000
# 5 0.000000 0.000000 0.000000 0.000000 0.031333 0.000000
# 6 0.000000 0.000000 0.000000 0.000000 0.000000 0.031967
#
#
# Mechanical properties :
#
#
# Convention : Reuss Voigt Hill
#
# Bulk Modulus (GPa) = 62.58802 65.59685 64.09243
# Shear Modulus (GPa) = 37.35853 38.76897 38.06375
#
# Velocity S-wave (km/s) = 4.17206 4.25009 4.21125
# Velocity P-wave (km/s) = 7.23665 7.39237 7.31493
#
# Compressibility (1/GPa) = 0.01597750
#
# Stress axis : x y z
#
# Youngs Moduli (GPa) = 95.63738 90.04131 131.13938
#
# Poissons Ratio (x) = 0.18059 0.23475
# Poissons Ratio (y) = 0.19181 0.36842
# Poissons Ratio (z) = 0.17120 0.25296
#
# Static dielectric constant tensor:
#      x y z
#    x 4.090090 0.000000 0.000000 
#    y 0.000000 4.119720 0.000000 
#    z 0.000000 0.000000 4.354010 
# 
# 
# High freq. dielectric constant tensor:
#      x y z
#    x 1.847620 0.000000 0.000000 
#    y 0.000000 1.850470 0.000000 
#    z 0.000000 0.000000 1.863460 
# 
# From -- ./inp_files/13126.got.cif
#   From: 2010.03.12/outbox.cif.g09.slc.cpg/sg73_7_cif.got.tgz:13126.got - 2010.04.16 15:25:48.
