data_PCOD8296612
_publ_section_title
;
Structure prediction by ZEFSAII (Michael W. Deem and Ramdas Pophale) SiO2 
 PCOD8296612
Probable space group: I B C A 
;
_chemical_formula_sum "Si O2"
_cell_formula_units_Z 120
_cell_length_a 21.048055
_cell_length_b 17.626406
_cell_length_c 14.339922
_cell_angle_alpha 90.000000
_cell_angle_beta 90.000000
_cell_angle_gamma 90.000000
_cell_volume 5320.133474
_symmetry_space_group_name_H-M "I B C A "
_symmetry_group_IT_number 73
_symmetry_cell_setting 'orthorhombic'
loop_
_space_group_symop_operation_xyz
x,y,z
-x,1/2-y,z
x,-y,1/2-z
1/2-x,y,-z
-x,-y,-z
x,1/2+y,-z
-x,y,1/2+z
1/2+x,-y,z
1/2+x,1/2+y,1/2+z
1/2-x,-y,1/2+z
1/2+x,1/2-y,-z
-x,1/2+y,1/2-z
1/2-x,1/2-y,1/2-z
1/2+x,y,1/2-z
1/2-x,1/2+y,z
x,1/2-y,1/2+z
loop_
_atom_site_type_symbol
_atom_site_label
_atom_site_fract_x
_atom_site_fract_y
_atom_site_fract_z
Si Si1 0.836403 0.672578 0.241101
Si Si2 0.910930 0.119774 0.594226
Si Si3 0.505844 0.987016 0.357246
Si Si4 0.687224 0.891937 0.940612
Si Si5 0.500000 0.250000 0.940096
Si Si6 0.456095 0.183647 0.615895
Si Si7 0.135340 0.028999 0.646706
Si Si8 0.803433 0.337923 0.730152
O O1 0.863053 0.614710 0.318560
O O2 0.885656 0.681423 0.156932
O O3 0.821048 0.751741 0.292050
O O4 0.769343 0.640712 0.203809
O O5 0.873910 0.137401 0.498595
O O6 0.960337 0.188333 0.619707
O O7 0.945298 0.038208 0.583126
O O8 0.509968 0.897913 0.377371
O O9 0.521517 0.000000 0.250000
O O10 0.436708 0.017385 0.384461
O O11 0.684953 0.850590 0.840864
O O12 0.680756 0.982718 0.924167
O O13 0.750000 0.874059 0.000000
O O14 0.549014 0.203031 0.006150
O O15 0.500000 0.250000 0.664750
O O16 0.153168 0.117267 0.655508
O O17 0.148630 0.000000 0.750000
#
# Coordination Sequence:
#
# PCOD8296612 Si02
#       8
#    16  16  16  16   8  16  16  16
#     4  11  23  40  70  93 130 175 230 276 318 412
#     4  12  25  41  67 102 136 170 224 280 342 398
#     4  11  23  42  67 102 129 176 220 274 336 404
#     4  11  22  43  65  95 134 172 215 285 342 383
#     4  10  26  40  64 100 134 182 210 278 350 394
#     4  10  24  44  66  96 138 178 213 281 341 401
#     4   9  22  39  67  91 125 171 218 261 325 409
#     4  10  23  44  67  95 125 184 229 266 330 403
#
# _framework density 22.555826
#
# number of rings (size 3 to 8) (size 9 to 14) (size 15 to 20)
#    0.400    1.067    2.667    1.600    8.400    3.200 
#    2.400    0.000    5.867    0.000    0.000    0.000 
#    0.000    0.000    0.000    0.000    0.000    0.000 
#
# Total GULP energy -743733.498153 kJ/mol
# GULP energy per Si atom -12395.558303 kJ/mol
# Density = 2.250449 g / cm^3
# Si number density = 22.555826 Si / 1000 Ang^3
#
#
#
# Elastic Constant Matrix: (Units=GPa)
#
#
# Indices 1 2 3 4 5 6 
#
# 1 137.7917 52.7202 20.5854 0.0000 0.0000 0.0000
# 2 52.7202 128.5033 6.8478 0.0000 0.0000 0.0000
# 3 20.5854 6.8478 34.0769 0.0000 0.0000 0.0000
# 4 0.0000 0.0000 0.0000 29.2681 0.0000 0.0000
# 5 0.0000 0.0000 0.0000 0.0000 18.0741 0.0000
# 6 0.0000 0.0000 0.0000 0.0000 0.0000 34.0968
#
#
#
# Elastic Compliance Matrix: (Units=1/GPa)
#
#
# Indices 1 2 3 4 5 6 
#
# 1 0.009364 -0.003579 -0.004938 0.000000 0.000000 0.000000
# 2 -0.003579 0.009234 0.000306 0.000000 0.000000 0.000000
# 3 -0.004938 0.000306 0.032267 0.000000 0.000000 0.000000
# 4 0.000000 0.000000 0.000000 0.034167 0.000000 0.000000
# 5 0.000000 0.000000 0.000000 0.000000 0.055328 0.000000
# 6 0.000000 0.000000 0.000000 0.000000 0.000000 0.029328
#
#
# Mechanical properties :
#
#
# Convention : Reuss Voigt Hill
#
# Bulk Modulus (GPa) = 29.03222 51.18653 40.10937
# Shear Modulus (GPa) = 25.30504 30.96904 28.13704
#
# Velocity S-wave (km/s) = 3.35309 3.70941 3.53574
# Velocity P-wave (km/s) = 5.28111 6.41006 5.87278
#
# Compressibility (1/GPa) = 0.03444450
#
# Stress axis : x y z
#
# Youngs Moduli (GPa) = 106.78946 108.29804 30.99180
#
# Poissons Ratio (x) = 0.38756 0.15303
# Poissons Ratio (y) = 0.38216 -0.00949
# Poissons Ratio (z) = 0.52729 -0.03317
#
# Static dielectric constant tensor:
#      x y z
#    x 4.086530 0.000000 0.000000 
#    y 0.000000 4.214450 0.000000 
#    z 0.000000 0.000000 3.787890 
# 
# 
# High freq. dielectric constant tensor:
#      x y z
#    x 1.892370 0.000000 0.000000 
#    y 0.000000 1.888400 0.000000 
#    z 0.000000 0.000000 1.872000 
# 
# From -- ./inp_files/23353.got.cif
#   From: 2010.03.12/outbox.cif.g09.slc.cpg/sg73_12_cif.got.tgz:23353.got - 2010.04.16 15:25:48.
