data_PCOD8296034
_publ_section_title
;
Structure prediction by ZEFSAII (Michael W. Deem and Ramdas Pophale) SiO2 
 PCOD8296034
Probable space group: I B C A 
;
_chemical_formula_sum "Si O2"
_cell_formula_units_Z 96
_cell_length_a 13.735344
_cell_length_b 20.601127
_cell_length_c 17.087474
_cell_angle_alpha 90.000000
_cell_angle_beta 90.000000
_cell_angle_gamma 90.000000
_cell_volume 4835.132579
_symmetry_space_group_name_H-M "I B C A "
_symmetry_group_IT_number 73
_symmetry_cell_setting 'orthorhombic'
loop_
_space_group_symop_operation_xyz
x,y,z
-x,1/2-y,z
x,-y,1/2-z
1/2-x,y,-z
-x,-y,-z
x,1/2+y,-z
-x,y,1/2+z
1/2+x,-y,z
1/2+x,1/2+y,1/2+z
1/2-x,-y,1/2+z
1/2+x,1/2-y,-z
-x,1/2+y,1/2-z
1/2-x,1/2-y,1/2-z
1/2+x,y,1/2-z
1/2-x,1/2+y,z
x,1/2-y,1/2+z
loop_
_atom_site_type_symbol
_atom_site_label
_atom_site_fract_x
_atom_site_fract_y
_atom_site_fract_z
Si Si1 0.989599 0.379061 0.305600
Si Si2 0.727903 0.156891 0.192702
Si Si3 0.375997 0.450370 0.807688
Si Si4 0.000000 0.250000 0.219875
Si Si5 0.750000 0.621806 0.500000
Si Si6 0.796381 0.786841 0.854479
Si Si7 0.930568 0.540946 0.556799
O O1 0.873967 0.379259 0.311968
O O2 0.026037 0.429527 0.239445
O O3 0.029260 0.308433 0.278690
O O4 0.022789 0.400382 0.392398
O O5 0.811792 0.109402 0.165786
O O6 0.735367 0.219936 0.136334
O O7 0.750868 0.175292 0.282119
O O8 0.318199 0.500000 0.750000
O O9 0.397237 0.483785 0.888171
O O10 0.089873 0.229179 0.164154
O O11 0.718629 0.668507 0.570642
O O12 0.840770 0.574216 0.512824
O O13 0.000000 0.500000 0.500000
#
# Coordination Sequence:
#
# PCOD8296034 Si02
#       7
#    16  16  16   8   8  16  16
#     4  10  22  41  69  97 125 170 225 277 321 394
#     4  10  21  39  72  94 126 165 231 267 325 384
#     4  10  21  41  65  94 125 172 223 267 320 398
#     4  10  20  40  74  96 130 164 230 278 324 402
#     4  12  28  46  64  96 144 178 216 280 356 394
#     4  10  22  42  67 101 129 173 211 282 337 402
#     4  11  28  45  63  94 138 178 223 272 343 408
#
# _framework density 19.854676999999999
#
# number of rings (size 3 to 8) (size 9 to 14) (size 15 to 20)
#    0.000    1.667    1.667    2.000   11.667    2.000 
#    6.000    0.000    0.000    0.000    0.000    0.000 
#    0.000    0.000    0.000    0.000    0.000    0.000 
#
# Total GULP energy -594807.611140 kJ/mol
# GULP energy per Si atom -12391.825232 kJ/mol
# Density = 1.980949 g / cm^3
# Si number density = 19.854677 Si / 1000 Ang^3
#
#
#
# Elastic Constant Matrix: (Units=GPa)
#
#
# Indices 1 2 3 4 5 6 
#
# 1 122.9343 67.4665 53.1307 0.0000 0.0000 0.0000
# 2 67.4665 143.8884 80.3291 -0.0001 0.0000 0.0000
# 3 53.1307 80.3291 122.7235 -0.0003 0.0000 0.0000
# 4 0.0000 -0.0001 -0.0003 40.4273 0.0000 0.0000
# 5 0.0000 0.0000 0.0000 0.0000 19.2561 0.0000
# 6 0.0000 0.0000 0.0000 0.0000 0.0000 31.3753
#
#
#
# Elastic Compliance Matrix: (Units=1/GPa)
#
#
# Indices 1 2 3 4 5 6 
#
# 1 0.011334 -0.004058 -0.002251 0.000000 0.000000 0.000000
# 2 -0.004058 0.012405 -0.006363 0.000000 0.000000 0.000000
# 3 -0.002251 -0.006363 0.013288 0.000000 0.000000 0.000000
# 4 0.000000 0.000000 0.000000 0.024736 0.000000 0.000000
# 5 0.000000 0.000000 0.000000 0.000000 0.051931 0.000000
# 6 0.000000 0.000000 0.000000 0.000000 0.000000 0.031872
#
#
# Mechanical properties :
#
#
# Convention : Reuss Voigt Hill
#
# Bulk Modulus (GPa) = 85.58998 87.93319 86.76159
# Shear Modulus (GPa) = 28.60361 30.78640 29.69500
#
# Velocity S-wave (km/s) = 3.79971 3.94202 3.87152
# Velocity P-wave (km/s) = 7.90267 8.06870 7.98612
#
# Compressibility (1/GPa) = 0.01168361
#
# Stress axis : x y z
#
# Youngs Moduli (GPa) = 88.22917 80.61541 75.25800
#
# Poissons Ratio (x) = 0.32712 0.16940
# Poissons Ratio (y) = 0.35801 0.47885
# Poissons Ratio (z) = 0.19859 0.51294
#
# Static dielectric constant tensor:
#      x y z
#    x 3.640410 0.000000 0.000000 
#    y 0.000000 3.983330 0.000000 
#    z 0.000000 0.000000 3.422780 
# 
# 
# High freq. dielectric constant tensor:
#      x y z
#    x 1.777560 0.000000 0.000000 
#    y 0.000000 1.799310 0.000000 
#    z 0.000000 0.000000 1.756590 
# 
# From -- ./inp_files/17088.got.cif
#   From: 2010.03.12/outbox.cif.g09.slc.cpg/sg73_9_cif.got.tgz:17088.got - 2010.04.16 15:25:48.
