data_PCOD8296242
_publ_section_title
;
Structure prediction by ZEFSAII (Michael W. Deem and Ramdas Pophale) SiO2 
 PCOD8296242
Probable space group: I B C A 
;
_chemical_formula_sum "Si O2"
_cell_formula_units_Z 88
_cell_length_a 17.831144
_cell_length_b 22.354263
_cell_length_c 9.782750
_cell_angle_alpha 90.000000
_cell_angle_beta 90.000000
_cell_angle_gamma 90.000000
_cell_volume 3899.424523
_symmetry_space_group_name_H-M "I B C A "
_symmetry_group_IT_number 73
_symmetry_cell_setting 'orthorhombic'
loop_
_space_group_symop_operation_xyz
x,y,z
-x,1/2-y,z
x,-y,1/2-z
1/2-x,y,-z
-x,-y,-z
x,1/2+y,-z
-x,y,1/2+z
1/2+x,-y,z
1/2+x,1/2+y,1/2+z
1/2-x,-y,1/2+z
1/2+x,1/2-y,-z
-x,1/2+y,1/2-z
1/2-x,1/2-y,1/2-z
1/2+x,y,1/2-z
1/2-x,1/2+y,z
x,1/2-y,1/2+z
loop_
_atom_site_type_symbol
_atom_site_label
_atom_site_fract_x
_atom_site_fract_y
_atom_site_fract_z
Si Si1 0.811441 0.000000 0.250000
Si Si2 0.574181 0.060745 0.193946
Si Si3 0.854691 0.190383 0.217568
Si Si4 0.932850 0.423847 0.612831
Si Si5 0.669016 0.790766 0.017368
Si Si6 0.783520 0.614548 0.290814
O O1 0.865440 0.029083 0.136408
O O2 0.761019 0.052525 0.316489
O O3 0.504630 0.068795 0.293719
O O4 0.642986 0.107545 0.195950
O O5 0.612081 0.000000 0.250000
O O6 0.541086 0.063859 0.041773
O O7 0.907128 0.143059 0.143165
O O8 0.877566 0.204608 0.375611
O O9 0.870603 0.250860 0.132808
O O10 0.769201 0.165071 0.220521
O O11 0.683687 0.859229 0.067007
O O12 0.750000 0.759058 0.000000
#
# Coordination Sequence:
#
# PCOD8296242 Si02
#       6
#     8  16  16  16  16  16
#     4  10  22  44  66 108 134 170 228 282 338 422
#     4  12  26  45  68  99 139 186 218 278 339 412
#     4  10  24  42  72 102 133 178 225 291 334 409
#     4  11  27  44  70  96 140 180 231 273 340 409
#     4  10  21  40  70 100 139 170 222 284 349 395
#     4  10  22  41  69 103 137 174 226 281 346 404
#
# _framework density 22.567430999999999
#
# number of rings (size 3 to 8) (size 9 to 14) (size 15 to 20)
#    0.000    1.455    1.818    2.727    7.636    6.545 
#    0.000    0.909    0.000    0.000    0.000    0.000 
#    0.000    0.000    0.000    0.000    0.000    0.000 
#
# Total GULP energy -545186.472961 kJ/mol
# GULP energy per Si atom -12390.601658 kJ/mol
# Density = 2.251607 g / cm^3
# Si number density = 22.567431 Si / 1000 Ang^3
#
#
#
# Elastic Constant Matrix: (Units=GPa)
#
#
# Indices 1 2 3 4 5 6 
#
# 1 87.9923 39.1545 52.0366 0.0000 0.0000 0.0000
# 2 39.1545 127.5860 64.9143 0.0000 0.0000 0.0000
# 3 52.0366 64.9143 182.6760 0.0000 0.0000 0.0000
# 4 0.0000 0.0000 0.0000 36.5505 0.0000 0.0000
# 5 0.0000 0.0000 0.0000 0.0000 25.0891 0.0000
# 6 0.0000 0.0000 0.0000 0.0000 0.0000 0.1785
#
#
#
# Elastic Compliance Matrix: (Units=1/GPa)
#
#
# Indices 1 2 3 4 5 6 
#
# 1 0.014475 -0.002862 -0.003106 0.000000 0.000000 0.000000
# 2 -0.002862 0.010133 -0.002786 0.000000 0.000000 0.000000
# 3 -0.003106 -0.002786 0.007349 0.000000 0.000000 0.000000
# 4 0.000000 0.000000 0.000000 0.027359 0.000000 0.000000
# 5 0.000000 0.000000 0.000000 0.000000 0.039858 0.000000
# 6 0.000000 0.000000 0.000000 0.000000 0.000000 5.603516
#
#
# Mechanical properties :
#
#
# Convention : Reuss Voigt Hill
#
# Bulk Modulus (GPa) = 69.20544 78.94057 74.07301
# Shear Modulus (GPa) = 0.87336 28.50686 14.69011
#
# Velocity S-wave (km/s) = 0.62277 3.55799 2.55413
# Velocity P-wave (km/s) = 5.59015 7.20658 6.44921
#
# Compressibility (1/GPa) = 0.01444973
#
# Stress axis : x y z
#
# Youngs Moduli (GPa) = 69.08420 98.68318 136.07316
#
# Poissons Ratio (x) = 0.28240 0.42270
# Poissons Ratio (y) = 0.19770 0.37907
# Poissons Ratio (z) = 0.21460 0.27491
#
# Static dielectric constant tensor:
#      x y z
#    x 3.941020 0.000000 0.000000 
#    y 0.000000 4.474940 0.000000 
#    z 0.000000 0.000000 4.043210 
# 
# 
# High freq. dielectric constant tensor:
#      x y z
#    x 1.871490 0.000000 0.000000 
#    y 0.000000 1.896340 0.000000 
#    z 0.000000 0.000000 1.887880 
# 
# From -- ./inp_files/6306.got.cif
#   From: 2010.03.12/outbox.cif.g09.slc.cpg/sg73_4_cif.got.tgz:6306.got - 2010.04.16 15:25:48.
