data_PCOD8296618
_publ_section_title
;
Structure prediction by ZEFSAII (Michael W. Deem and Ramdas Pophale) SiO2 
 PCOD8296618
Probable space group: I B C A 
;
_chemical_formula_sum "Si O2"
_cell_formula_units_Z 64
_cell_length_a 8.996819
_cell_length_b 20.780304
_cell_length_c 13.861875
_cell_angle_alpha 90.000000
_cell_angle_beta 90.000000
_cell_angle_gamma 90.000000
_cell_volume 2591.569489
_symmetry_space_group_name_H-M "I B C A "
_symmetry_group_IT_number 73
_symmetry_cell_setting 'orthorhombic'
loop_
_space_group_symop_operation_xyz
x,y,z
-x,1/2-y,z
x,-y,1/2-z
1/2-x,y,-z
-x,-y,-z
x,1/2+y,-z
-x,y,1/2+z
1/2+x,-y,z
1/2+x,1/2+y,1/2+z
1/2-x,-y,1/2+z
1/2+x,1/2-y,-z
-x,1/2+y,1/2-z
1/2-x,1/2-y,1/2-z
1/2+x,y,1/2-z
1/2-x,1/2+y,z
x,1/2-y,1/2+z
loop_
_atom_site_type_symbol
_atom_site_label
_atom_site_fract_x
_atom_site_fract_y
_atom_site_fract_z
Si Si1 0.884452 0.797224 0.240833
Si Si2 0.385321 0.860623 0.062868
Si Si3 0.214017 0.481854 0.859222
Si Si4 0.588040 0.088379 0.595133
O O1 0.750000 0.750000 0.250000
O O2 0.934883 0.815629 0.349385
O O3 0.866105 0.860822 0.177536
O O4 0.000000 0.750000 0.189427
O O5 0.323343 0.926167 0.107192
O O6 0.250000 0.829348 0.000000
O O7 0.533790 0.873616 0.999890
O O8 0.246551 0.500000 0.750000
O O9 0.263759 0.545071 0.921022
O O10 0.044012 0.460613 0.873206
#
# Coordination Sequence:
#
# PCOD8296618 Si02
#       4
#    16  16  16  16
#     4  12  27  48  73 100 142 198 250 300 355 428
#     4  10  23  44  70 106 144 183 241 304 368 440
#     4  11  21  41  72 104 146 183 229 295 376 440
#     4  11  25  44  70 109 145 185 237 302 368 438
#
# _framework density 24.695460000000001
#
# number of rings (size 3 to 8) (size 9 to 14) (size 15 to 20)
#    0.000    1.000    2.500    4.500    0.000    3.000 
#    0.000    2.500    0.000    0.000    0.000    0.000 
#    0.000    0.000    0.000    0.000    0.000    0.000 
#
# Total GULP energy -396492.452888 kJ/mol
# GULP energy per Si atom -12390.389153 kJ/mol
# Density = 2.463925 g / cm^3
# Si number density = 24.695460 Si / 1000 Ang^3
#
#
#
# Elastic Constant Matrix: (Units=GPa)
#
#
# Indices 1 2 3 4 5 6 
#
# 1 93.1518 69.6398 21.9459 0.0000 0.0000 0.0000
# 2 69.6398 133.3982 32.8218 0.0000 0.0000 0.0000
# 3 21.9459 32.8218 126.4800 0.0000 0.0001 0.0000
# 4 0.0000 0.0000 0.0000 34.1976 0.0000 0.0000
# 5 0.0000 0.0000 0.0001 0.0000 32.1221 0.0000
# 6 0.0000 0.0000 0.0000 0.0000 0.0000 50.2794
#
#
#
# Elastic Compliance Matrix: (Units=1/GPa)
#
#
# Indices 1 2 3 4 5 6 
#
# 1 0.017667 -0.009047 -0.000718 0.000000 0.000000 0.000000
# 2 -0.009047 0.012640 -0.001710 0.000000 0.000000 0.000000
# 3 -0.000718 -0.001710 0.008475 0.000000 0.000000 0.000000
# 4 0.000000 0.000000 0.000000 0.029242 0.000000 0.000000
# 5 0.000000 0.000000 0.000000 0.000000 0.031131 0.000000
# 6 0.000000 0.000000 0.000000 0.000000 0.000000 0.019889
#
#
# Mechanical properties :
#
#
# Convention : Reuss Voigt Hill
#
# Bulk Modulus (GPa) = 63.16155 66.87166 65.01660
# Shear Modulus (GPa) = 33.95095 38.56134 36.25614
#
# Velocity S-wave (km/s) = 3.71183 3.95584 3.83578
# Velocity P-wave (km/s) = 6.63340 6.92836 6.78248
#
# Compressibility (1/GPa) = 0.01583242
#
# Stress axis : x y z
#
# Youngs Moduli (GPa) = 56.60112 79.11452 117.99686
#
# Poissons Ratio (x) = 0.71572 0.08471
# Poissons Ratio (y) = 0.51205 0.20182
# Poissons Ratio (z) = 0.04064 0.13532
#
# Static dielectric constant tensor:
#      x y z
#    x 4.479810 0.000000 0.000000 
#    y 0.000000 4.483700 0.000000 
#    z 0.000000 0.000000 4.984770 
# 
# 
# High freq. dielectric constant tensor:
#      x y z
#    x 1.978880 0.000000 0.000000 
#    y 0.000000 1.983890 0.000000 
#    z 0.000000 0.000000 2.000910 
# 
# From -- ./inp_files/15444.got.cif
#   From: 2010.03.12/outbox.cif.g09.slc.cpg/sg73_8_cif.got.tgz:15444.got - 2010.04.16 15:25:48.
