data_PCOD8296560
_publ_section_title
;
Structure prediction by ZEFSAII (Michael W. Deem and Ramdas Pophale) SiO2 
 PCOD8296560
Probable space group: I B C A 
;
_chemical_formula_sum "Si O2"
_cell_formula_units_Z 96
_cell_length_a 22.507596
_cell_length_b 24.643829
_cell_length_c 8.758909
_cell_angle_alpha 90.000000
_cell_angle_beta 90.000000
_cell_angle_gamma 90.000000
_cell_volume 4858.333371
_symmetry_space_group_name_H-M "I B C A "
_symmetry_group_IT_number 73
_symmetry_cell_setting 'orthorhombic'
loop_
_space_group_symop_operation_xyz
x,y,z
-x,1/2-y,z
x,-y,1/2-z
1/2-x,y,-z
-x,-y,-z
x,1/2+y,-z
-x,y,1/2+z
1/2+x,-y,z
1/2+x,1/2+y,1/2+z
1/2-x,-y,1/2+z
1/2+x,1/2-y,-z
-x,1/2+y,1/2-z
1/2-x,1/2-y,1/2-z
1/2+x,y,1/2-z
1/2-x,1/2+y,z
x,1/2-y,1/2+z
loop_
_atom_site_type_symbol
_atom_site_label
_atom_site_fract_x
_atom_site_fract_y
_atom_site_fract_z
Si Si1 0.944807 0.811135 0.044689
Si Si2 0.474348 0.538412 0.623785
Si Si3 0.873437 0.102907 0.966499
Si Si4 0.927336 0.700431 0.905272
Si Si5 0.809468 0.002152 0.573601
Si Si6 0.595171 0.411287 0.869155
O O1 0.939373 0.803056 0.225526
O O2 0.913120 0.762150 0.952928
O O3 0.909954 0.865405 0.997837
O O4 0.013923 0.816581 0.000483
O O5 0.442718 0.500000 0.750000
O O6 0.500000 0.500000 0.500000
O O7 0.432400 0.582009 0.548783
O O8 0.531340 0.569287 0.693954
O O9 0.873953 0.110520 0.784021
O O10 0.822307 0.057917 0.999197
O O11 0.870315 0.162931 0.043468
O O12 0.750000 0.026807 0.500000
O O13 0.867167 0.040384 0.550153
O O14 0.795429 0.000000 0.750000
#
# Coordination Sequence:
#
# PCOD8296560 Si02
#       6
#    16  16  16  16  16  16
#     4  11  22  35  54  80 116 152 191 228 278 335
#     4  12  21  32  50  80 116 147 183 222 276 341
#     4  11  22  36  56  80 116 150 186 231 283 333
#     4  11  22  35  53  81 114 154 189 230 276 335
#     4  10  23  41  59  82 113 148 188 235 282 334
#     4  11  21  37  55  81 115 151 184 231 283 334
#
# _framework density 19.759862999999999
#
# number of rings (size 3 to 8) (size 9 to 14) (size 15 to 20)
#    0.000    1.000    5.000    4.500    2.333    2.000 
#    0.000    0.000    0.000    1.000    0.000    7.000 
#    0.000    0.000    0.000    0.000    0.000    0.000 
#
# Total GULP energy -594765.491668 kJ/mol
# GULP energy per Si atom -12390.947743 kJ/mol
# Density = 1.971489 g / cm^3
# Si number density = 19.759863 Si / 1000 Ang^3
#
#
#
# Elastic Constant Matrix: (Units=GPa)
#
#
# Indices 1 2 3 4 5 6 
#
# 1 63.4554 18.7460 11.5859 0.0000 0.0000 0.0000
# 2 18.7460 103.4157 36.3715 0.0000 0.0000 0.0000
# 3 11.5859 36.3715 111.5607 0.0000 0.0000 0.0000
# 4 0.0000 0.0000 0.0000 38.6103 0.0000 0.0000
# 5 0.0000 0.0000 0.0000 0.0000 21.8544 0.0000
# 6 0.0000 0.0000 0.0000 0.0000 0.0000 14.6373
#
#
#
# Elastic Compliance Matrix: (Units=1/GPa)
#
#
# Indices 1 2 3 4 5 6 
#
# 1 0.016721 -0.002734 -0.000845 0.000000 0.000000 0.000000
# 2 -0.002734 0.011369 -0.003423 0.000000 0.000000 0.000000
# 3 -0.000845 -0.003423 0.010167 0.000000 0.000000 0.000000
# 4 0.000000 0.000000 0.000000 0.025900 0.000000 0.000000
# 5 0.000000 0.000000 0.000000 0.000000 0.045757 0.000000
# 6 0.000000 0.000000 0.000000 0.000000 0.000000 0.068318
#
#
# Mechanical properties :
#
#
# Convention : Reuss Voigt Hill
#
# Bulk Modulus (GPa) = 41.23011 45.75986 43.49498
# Shear Modulus (GPa) = 24.95992 29.13562 27.04777
#
# Velocity S-wave (km/s) = 3.55796 3.84407 3.70378
# Velocity P-wave (km/s) = 6.14733 6.55063 6.35218
#
# Compressibility (1/GPa) = 0.02425412
#
# Stress axis : x y z
#
# Youngs Moduli (GPa) = 59.80491 87.95846 98.35367
#
# Poissons Ratio (x) = 0.24045 0.08314
# Poissons Ratio (y) = 0.16349 0.33663
# Poissons Ratio (z) = 0.05055 0.30105
#
# Static dielectric constant tensor:
#      x y z
#    x 3.021320 0.000000 0.000000 
#    y 0.000000 3.905440 0.000000 
#    z 0.000000 0.000000 3.585720 
# 
# 
# High freq. dielectric constant tensor:
#      x y z
#    x 1.707380 0.000000 0.000000 
#    y 0.000000 1.783270 0.000000 
#    z 0.000000 0.000000 1.784200 
# 
# From -- ./inp_files/7183.got.cif
#   From: 2010.03.12/outbox.cif.g09.slc.cpg/sg73_4_cif.got.tgz:7183.got - 2010.04.16 15:25:48.
