data_PCOD8296462
_publ_section_title
;
Structure prediction by ZEFSAII (Michael W. Deem and Ramdas Pophale) SiO2 
 PCOD8296462
Probable space group: I B C A 
;
_chemical_formula_sum "Si O2"
_cell_formula_units_Z 104
_cell_length_a 10.160193
_cell_length_b 19.239414
_cell_length_c 24.351858
_cell_angle_alpha 90.000000
_cell_angle_beta 90.000000
_cell_angle_gamma 90.000000
_cell_volume 4760.207677
_symmetry_space_group_name_H-M "I B C A "
_symmetry_group_IT_number 73
_symmetry_cell_setting 'orthorhombic'
loop_
_space_group_symop_operation_xyz
x,y,z
-x,1/2-y,z
x,-y,1/2-z
1/2-x,y,-z
-x,-y,-z
x,1/2+y,-z
-x,y,1/2+z
1/2+x,-y,z
1/2+x,1/2+y,1/2+z
1/2-x,-y,1/2+z
1/2+x,1/2-y,-z
-x,1/2+y,1/2-z
1/2-x,1/2-y,1/2-z
1/2+x,y,1/2-z
1/2-x,1/2+y,z
x,1/2-y,1/2+z
loop_
_atom_site_type_symbol
_atom_site_label
_atom_site_fract_x
_atom_site_fract_y
_atom_site_fract_z
Si Si1 0.704770 0.487533 0.375903
Si Si2 0.708441 0.572695 0.720614
Si Si3 0.344462 0.118307 0.551073
Si Si4 0.500000 0.250000 0.868254
Si Si5 0.427248 0.620612 0.701431
Si Si6 0.135142 0.598625 0.045084
Si Si7 0.245159 0.234013 0.934457
O O1 0.764199 0.553039 0.342452
O O2 0.818756 0.438810 0.401475
O O3 0.603542 0.442666 0.339875
O O4 0.625364 0.525305 0.424004
O O5 0.695638 0.500000 0.750000
O O6 0.571736 0.612817 0.727167
O O7 0.821637 0.620277 0.748736
O O8 0.250000 0.107629 0.500000
O O9 0.487658 0.111024 0.523074
O O10 0.321792 0.192682 0.581584
O O11 0.427373 0.307084 0.830854
O O12 0.387771 0.220780 0.908053
O O13 0.162368 0.666120 0.083989
O O14 0.250000 0.592492 0.000000
O O15 0.250000 0.232602 0.000000
#
# Coordination Sequence:
#
# PCOD8296462 Si02
#       7
#    16  16  16   8  16  16  16
#     4  11  22  41  67 100 134 175 229 286 350 422
#     4  10  22  42  68  96 127 170 221 284 350 418
#     4  11  24  40  64  97 137 183 232 282 343 426
#     4  12  24  46  70  98 134 186 228 288 360 414
#     4  11  24  43  70  97 132 176 230 289 358 422
#     4  11  25  40  65  99 137 181 229 287 345 413
#     4  10  24  40  66  93 136 183 228 276 343 425
#
# _framework density 21.847787
#
# number of rings (size 3 to 8) (size 9 to 14) (size 15 to 20)
#    0.000    1.231    1.538    4.154    8.615    5.538 
#    0.000    0.000    0.000    0.000    0.000    0.000 
#    0.000    0.000    0.000    0.000    0.000    0.000 
#
# Total GULP energy -644474.602910 kJ/mol
# GULP energy per Si atom -12393.742364 kJ/mol
# Density = 2.179806 g / cm^3
# Si number density = 21.847787 Si / 1000 Ang^3
#
#
#
# Elastic Constant Matrix: (Units=GPa)
#
#
# Indices 1 2 3 4 5 6 
#
# 1 169.6362 52.1126 50.6633 0.0000 0.0000 0.0000
# 2 52.1126 103.0201 45.6862 0.0000 0.0000 0.0000
# 3 50.6633 45.6862 76.1733 0.0000 0.0000 0.0000
# 4 0.0000 0.0000 0.0000 24.6218 0.0000 0.0000
# 5 0.0000 0.0000 0.0000 0.0000 30.8651 0.0000
# 6 0.0000 0.0000 0.0000 0.0000 0.0000 32.6712
#
#
#
# Elastic Compliance Matrix: (Units=1/GPa)
#
#
# Indices 1 2 3 4 5 6 
#
# 1 0.007710 -0.002215 -0.003799 0.000000 0.000000 0.000000
# 2 -0.002215 0.013861 -0.006840 0.000000 0.000000 0.000000
# 3 -0.003799 -0.006840 0.019757 0.000000 0.000000 0.000000
# 4 0.000000 0.000000 0.000000 0.040614 0.000000 0.000000
# 5 0.000000 0.000000 0.000000 0.000000 0.032399 0.000000
# 6 0.000000 0.000000 0.000000 0.000000 0.000000 0.030608
#
#
# Mechanical properties :
#
#
# Convention : Reuss Voigt Hill
#
# Bulk Modulus (GPa) = 64.02403 71.75043 67.88723
# Shear Modulus (GPa) = 28.43088 30.98946 29.71017
#
# Velocity S-wave (km/s) = 3.61129 3.77028 3.69164
# Velocity P-wave (km/s) = 6.83789 7.20179 7.02220
#
# Compressibility (1/GPa) = 0.01561914
#
# Stress axis : x y z
#
# Youngs Moduli (GPa) = 129.69748 72.14663 50.61428
#
# Poissons Ratio (x) = 0.15982 0.19231
# Poissons Ratio (y) = 0.28732 0.34619
# Poissons Ratio (z) = 0.49278 0.49347
#
# Static dielectric constant tensor:
#      x y z
#    x 3.935510 0.000000 0.000000 
#    y 0.000000 4.545000 0.000000 
#    z 0.000000 0.000000 4.149390 
# 
# 
# High freq. dielectric constant tensor:
#      x y z
#    x 1.860910 0.000000 0.000000 
#    y 0.000000 1.870600 0.000000 
#    z 0.000000 0.000000 1.841790 
# 
# From -- ./inp_files/31275.got.cif
#   From: 2010.03.12/outbox.cif.g09.slc.cpg/sg73_16_cif.got.tgz:31275.got - 2010.04.16 15:25:48.
