data_PCOD8296928
_publ_section_title
;
Structure prediction by ZEFSAII (Michael W. Deem and Ramdas Pophale) SiO2 
 PCOD8296928
Probable space group: I B C A 
;
_chemical_formula_sum "Si O2"
_cell_formula_units_Z 80
_cell_length_a 28.571177
_cell_length_b 15.315063
_cell_length_c 8.697656
_cell_angle_alpha 90.000000
_cell_angle_beta 90.000000
_cell_angle_gamma 90.000000
_cell_volume 3805.827906
_symmetry_space_group_name_H-M "I B C A "
_symmetry_group_IT_number 73
_symmetry_cell_setting 'orthorhombic'
loop_
_space_group_symop_operation_xyz
x,y,z
-x,1/2-y,z
x,-y,1/2-z
1/2-x,y,-z
-x,-y,-z
x,1/2+y,-z
-x,y,1/2+z
1/2+x,-y,z
1/2+x,1/2+y,1/2+z
1/2-x,-y,1/2+z
1/2+x,1/2-y,-z
-x,1/2+y,1/2-z
1/2-x,1/2-y,1/2-z
1/2+x,y,1/2-z
1/2-x,1/2+y,z
x,1/2-y,1/2+z
loop_
_atom_site_type_symbol
_atom_site_label
_atom_site_fract_x
_atom_site_fract_y
_atom_site_fract_z
Si Si1 0.950163 0.593044 0.559392
Si Si2 0.956437 0.396315 0.580593
Si Si3 0.857125 0.338227 0.564470
Si Si4 0.799709 0.994842 0.567616
Si Si5 0.349441 0.842639 0.428217
O O1 0.948229 0.492080 0.506843
O O2 0.958567 0.598742 0.738404
O O3 0.901652 0.637511 0.510452
O O4 0.993917 0.641860 0.477884
O O5 0.912969 0.335572 0.530951
O O6 0.837207 0.422866 0.480845
O O7 0.834305 0.251832 0.491963
O O8 0.846104 0.344967 0.744657
O O9 0.750000 0.966145 0.500000
O O10 0.813405 0.088005 0.496592
O O11 0.797158 0.000000 0.750000
#
# Coordination Sequence:
#
# PCOD8296928 Si02
#       5
#    16  16  16  16  16
#     4   9  18  34  57  86 124 168 210 256 306 362
#     4   9  18  34  57  86 124 168 210 256 306 362
#     4  11  23  42  65  95 131 167 211 261 312 372
#     4  12  26  46  71  96 123 162 205 258 322 380
#     4  11  23  42  65  95 131 167 211 261 312 372
#
# _framework density 21.020394
#
# number of rings (size 3 to 8) (size 9 to 14) (size 15 to 20)
#    0.000    1.600    2.000    3.000    0.000    4.800 
#    0.000    8.000    0.000    0.000    0.000    0.000 
#    0.000    0.000    0.000    0.000    0.000    0.000 
#
# Total GULP energy -496100.893468 kJ/mol
# GULP energy per Si atom -12402.522337 kJ/mol
# Density = 2.097255 g / cm^3
# Si number density = 21.020394 Si / 1000 Ang^3
#
#
#
# Elastic Constant Matrix: (Units=GPa)
#
#
# Indices 1 2 3 4 5 6 
#
# 1 77.9242 3.0540 30.8620 0.0000 0.0000 0.0000
# 2 3.0540 82.1278 21.7976 0.0000 0.0000 0.0000
# 3 30.8620 21.7976 93.2039 0.0000 0.0000 0.0000
# 4 0.0000 0.0000 0.0000 2.9877 0.0000 0.0000
# 5 0.0000 0.0000 0.0000 0.0000 36.7027 0.0000
# 6 0.0000 0.0000 0.0000 0.0000 0.0000 45.4533
#
#
#
# Elastic Compliance Matrix: (Units=1/GPa)
#
#
# Indices 1 2 3 4 5 6 
#
# 1 0.014819 0.000801 -0.005094 0.000000 0.000000 0.000000
# 2 0.000801 0.013025 -0.003311 0.000000 0.000000 0.000000
# 3 -0.005094 -0.003311 0.013190 0.000000 0.000000 0.000000
# 4 0.000000 0.000000 0.000000 0.334707 0.000000 0.000000
# 5 0.000000 0.000000 0.000000 0.000000 0.027246 0.000000
# 6 0.000000 0.000000 0.000000 0.000000 0.000000 0.022001
#
#
# Mechanical properties :
#
#
# Convention : Reuss Voigt Hill
#
# Bulk Modulus (GPa) = 38.72156 40.52035 39.62096
# Shear Modulus (GPa) = 11.14066 30.19823 20.66944
#
# Velocity S-wave (km/s) = 2.30466 3.79438 3.13917
# Velocity P-wave (km/s) = 5.05399 6.20604 5.65941
#
# Compressibility (1/GPa) = 0.02582541
#
# Stress axis : x y z
#
# Youngs Moduli (GPa) = 67.47998 76.77396 75.81227
#
# Poissons Ratio (x) = -0.06150 0.38621
# Poissons Ratio (y) = -0.05405 0.25105
# Poissons Ratio (z) = 0.34377 0.25423
#
# Static dielectric constant tensor:
#      x y z
#    x 3.921960 0.000000 0.000000 
#    y 0.000000 3.747260 0.000000 
#    z 0.000000 0.000000 3.680410 
# 
# 
# High freq. dielectric constant tensor:
#      x y z
#    x 1.826970 0.000000 0.000000 
#    y 0.000000 1.818990 0.000000 
#    z 0.000000 0.000000 1.822280 
# 
# From -- ./inp_files/7706.got.cif
#   From: 2010.03.12/outbox.cif.g09.slc.cpg/sg73_4_cif.got.tgz:7706.got - 2010.04.16 15:25:48.
