data_PCOD8296772
_publ_section_title
;
Structure prediction by ZEFSAII (Michael W. Deem and Ramdas Pophale) SiO2 
 PCOD8296772
Probable space group: I B C A 
;
_chemical_formula_sum "Si O2"
_cell_formula_units_Z 88
_cell_length_a 33.845148
_cell_length_b 20.823707
_cell_length_c 5.365837
_cell_angle_alpha 90.000000
_cell_angle_beta 90.000000
_cell_angle_gamma 90.000000
_cell_volume 3781.742356
_symmetry_space_group_name_H-M "I B C A "
_symmetry_group_IT_number 73
_symmetry_cell_setting 'orthorhombic'
loop_
_space_group_symop_operation_xyz
x,y,z
-x,1/2-y,z
x,-y,1/2-z
1/2-x,y,-z
-x,-y,-z
x,1/2+y,-z
-x,y,1/2+z
1/2+x,-y,z
1/2+x,1/2+y,1/2+z
1/2-x,-y,1/2+z
1/2+x,1/2-y,-z
-x,1/2+y,1/2-z
1/2-x,1/2-y,1/2-z
1/2+x,y,1/2-z
1/2-x,1/2+y,z
x,1/2-y,1/2+z
loop_
_atom_site_type_symbol
_atom_site_label
_atom_site_fract_x
_atom_site_fract_y
_atom_site_fract_z
Si Si1 0.121030 0.500000 0.750000
Si Si2 0.026000 0.500000 0.250000
Si Si3 0.515992 0.822409 0.040552
Si Si4 0.224805 0.500000 0.250000
Si Si5 0.084789 0.399073 0.414698
Si Si6 0.204152 0.288065 0.987539
Si Si7 0.338186 0.590685 0.621724
O O1 0.093281 0.442883 0.654542
O O2 0.148657 0.528464 0.535000
O O3 0.054824 0.437999 0.236859
O O4 0.000000 0.500000 0.500000
O O5 0.500000 0.750000 0.066068
O O6 0.494667 0.856470 0.803242
O O7 0.563167 0.832394 0.000438
O O8 0.250000 0.507653 0.500000
O O9 0.197979 0.564098 0.211050
O O10 0.125646 0.381353 0.282135
O O11 0.193170 0.244999 0.749928
O O12 0.250000 0.306933 0.000000
O O13 0.177870 0.351659 0.951750
#
# Coordination Sequence:
#
# PCOD8296772 Si02
#       7
#     8   8  16   8  16  16  16
#     4  12  24  46  72 112 160 190 250 300 394 456
#     4  12  24  40  67  99 136 186 236 286 366 436
#     4  10  24  48  72 102 141 190 250 309 368 437
#     4  12  26  44  73 113 154 198 248 312 390 458
#     4  12  25  44  70 105 151 193 242 311 370 457
#     4  10  25  49  74 104 142 196 257 307 360 441
#     4  12  26  46  73 111 154 201 245 314 383 459
#
# _framework density 23.269697000000001
#
# number of rings (size 3 to 8) (size 9 to 14) (size 15 to 20)
#    0.000    0.727    3.636    2.727    5.091    2.182 
#    6.545    0.000    0.000    0.000    0.000    0.000 
#    0.000    0.000    0.000    0.000    0.000    0.000 
#
# Total GULP energy -545394.345840 kJ/mol
# GULP energy per Si atom -12395.326042 kJ/mol
# Density = 2.321673 g / cm^3
# Si number density = 23.269697 Si / 1000 Ang^3
#
#
#
# Elastic Constant Matrix: (Units=GPa)
#
#
# Indices 1 2 3 4 5 6 
#
# 1 129.2156 54.7103 41.9119 0.0000 0.0000 -0.0001
# 2 54.7103 93.0094 15.0609 0.0002 -0.0001 0.0000
# 3 41.9119 15.0609 145.6385 0.0027 -0.0002 0.0006
# 4 0.0000 0.0002 0.0027 23.1662 0.0003 -0.0003
# 5 0.0000 -0.0001 -0.0002 0.0003 30.9698 0.0000
# 6 -0.0001 0.0000 0.0006 -0.0003 0.0000 54.6524
#
#
#
# Elastic Compliance Matrix: (Units=1/GPa)
#
#
# Indices 1 2 3 4 5 6 
#
# 1 0.011185 -0.006161 -0.002582 0.000000 0.000000 0.000000
# 2 -0.006161 0.014329 0.000291 0.000000 0.000000 0.000000
# 3 -0.002582 0.000291 0.007579 -0.000001 0.000000 0.000000
# 4 0.000000 0.000000 -0.000001 0.043166 0.000000 0.000000
# 5 0.000000 0.000000 0.000000 0.000000 0.032290 0.000000
# 6 0.000000 0.000000 0.000000 0.000000 0.000000 0.018297
#
#
# Mechanical properties :
#
#
# Convention : Reuss Voigt Hill
#
# Bulk Modulus (GPa) = 61.76811 65.69219 63.73015
# Shear Modulus (GPa) = 33.52415 38.83635 36.18025
#
# Velocity S-wave (km/s) = 3.79974 4.08973 3.94740
# Velocity P-wave (km/s) = 6.77147 7.11289 6.94428
#
# Compressibility (1/GPa) = 0.01618958
#
# Stress axis : x y z
#
# Youngs Moduli (GPa) = 89.40459 69.79024 131.94096
#
# Poissons Ratio (x) = 0.43000 0.34063
# Poissons Ratio (y) = 0.55085 -0.03844
# Poissons Ratio (z) = 0.23082 -0.02033
#
# Static dielectric constant tensor:
#      x y z
#    x 4.409420 0.000000 0.000000 
#    y 0.000000 3.008140 -0.000010 
#    z 0.000000 -0.000010 4.708300 
# 
# 
# High freq. dielectric constant tensor:
#      x y z
#    x 1.929610 0.000000 0.000000 
#    y 0.000000 1.906690 0.000000 
#    z 0.000000 0.000000 1.929010 
# 
# From -- ./inp_files/3130.got.cif
#   From: 2010.03.12/outbox.cif.g09.slc.cpg/sg73_2_cif.got.tgz:3130.got - 2010.04.16 15:25:48.
