data_PCOD8296658
_publ_section_title
;
Structure prediction by ZEFSAII (Michael W. Deem and Ramdas Pophale) SiO2 
 PCOD8296658
Probable space group: I B C A 
;
_chemical_formula_sum "Si O2"
_cell_formula_units_Z 56
_cell_length_a 28.430575
_cell_length_b 8.631843
_cell_length_c 9.695407
_cell_angle_alpha 90.000000
_cell_angle_beta 90.000000
_cell_angle_gamma 90.000000
_cell_volume 2379.332960
_symmetry_space_group_name_H-M "I B C A "
_symmetry_group_IT_number 73
_symmetry_cell_setting 'orthorhombic'
loop_
_space_group_symop_operation_xyz
x,y,z
-x,1/2-y,z
x,-y,1/2-z
1/2-x,y,-z
-x,-y,-z
x,1/2+y,-z
-x,y,1/2+z
1/2+x,-y,z
1/2+x,1/2+y,1/2+z
1/2-x,-y,1/2+z
1/2+x,1/2-y,-z
-x,1/2+y,1/2-z
1/2-x,1/2-y,1/2-z
1/2+x,y,1/2-z
1/2-x,1/2+y,z
x,1/2-y,1/2+z
loop_
_atom_site_type_symbol
_atom_site_label
_atom_site_fract_x
_atom_site_fract_y
_atom_site_fract_z
Si Si1 0.302059 0.778408 0.303037
Si Si2 0.565109 0.491753 0.100822
Si Si3 0.836193 0.573394 0.957399
Si Si4 0.500000 0.250000 0.490969
O O1 0.250000 0.750000 0.250000
O O2 0.334421 0.796440 0.165166
O O3 0.316330 0.631685 0.396536
O O4 0.305578 0.928876 0.402140
O O5 0.588580 0.500000 0.250000
O O6 0.609841 0.525632 0.004100
O O7 0.542894 0.322013 0.078374
O O8 0.522406 0.614340 0.099692
#
# Coordination Sequence:
#
# PCOD8296658 Si02
#       4
#    16  16  16   8
#     4  11  25  45  70 100 140 177 240 284 355 414
#     4  11  21  43  67  98 139 176 235 277 353 408
#     4  11  25  46  71 103 137 188 224 296 343 425
#     4  10  24  38  68 102 134 182 222 294 338 418
#
# _framework density 23.536009
#
# number of rings (size 3 to 8) (size 9 to 14) (size 15 to 20)
#    0.000    1.143    2.857    3.429    0.000   10.286 
#    0.000    0.000    0.000    0.000    0.000    0.000 
#    0.000    0.000    0.000    0.000    0.000    0.000 
#
# Total GULP energy -347048.017335 kJ/mol
# GULP energy per Si atom -12394.572048 kJ/mol
# Density = 2.348244 g / cm^3
# Si number density = 23.536009 Si / 1000 Ang^3
#
#
#
# Elastic Constant Matrix: (Units=GPa)
#
#
# Indices 1 2 3 4 5 6 
#
# 1 171.8982 60.3297 48.9948 0.0000 0.0000 0.0000
# 2 60.3297 89.0713 25.7727 0.0000 0.0000 0.0000
# 3 48.9948 25.7727 86.4598 0.0000 0.0000 0.0000
# 4 0.0000 0.0000 0.0000 38.6758 0.0000 0.0000
# 5 0.0000 0.0000 0.0000 0.0000 36.6701 0.0000
# 6 0.0000 0.0000 0.0000 0.0000 0.0000 44.4426
#
#
#
# Elastic Compliance Matrix: (Units=1/GPa)
#
#
# Indices 1 2 3 4 5 6 
#
# 1 0.008443 -0.004743 -0.003370 0.000000 0.000000 0.000000
# 2 -0.004743 0.014951 -0.001769 0.000000 0.000000 0.000000
# 3 -0.003370 -0.001769 0.014003 0.000000 0.000000 0.000000
# 4 0.000000 0.000000 0.000000 0.025856 0.000000 0.000000
# 5 0.000000 0.000000 0.000000 0.000000 0.027270 0.000000
# 6 0.000000 0.000000 0.000000 0.000000 0.000000 0.022501
#
#
# Mechanical properties :
#
#
# Convention : Reuss Voigt Hill
#
# Bulk Modulus (GPa) = 56.71409 68.62486 62.66948
# Shear Modulus (GPa) = 36.05755 38.11317 37.08536
#
# Velocity S-wave (km/s) = 3.91834 4.02849 3.97380
# Velocity P-wave (km/s) = 6.67984 7.13155 6.90939
#
# Compressibility (1/GPa) = 0.01763230
#
# Stress axis : x y z
#
# Youngs Moduli (GPa) = 118.44528 66.88304 71.41166
#
# Poissons Ratio (x) = 0.31724 0.24069
# Poissons Ratio (y) = 0.56181 0.12633
# Poissons Ratio (z) = 0.39921 0.11832
#
# Static dielectric constant tensor:
#      x y z
#    x 4.117050 0.000000 0.000000 
#    y 0.000000 4.536530 0.000000 
#    z 0.000000 0.000000 4.229500 
# 
# 
# High freq. dielectric constant tensor:
#      x y z
#    x 1.942760 0.000000 0.000000 
#    y 0.000000 1.933180 0.000000 
#    z 0.000000 0.000000 1.919720 
# 
# From -- ./inp_files/3839.got.cif
#   From: 2010.03.12/outbox.cif.g09.slc.cpg/sg73_2_cif.got.tgz:3839.got - 2010.04.16 15:25:48.
