data_PCOD8296760
_publ_section_title
;
Structure prediction by ZEFSAII (Michael W. Deem and Ramdas Pophale) SiO2 
 PCOD8296760
Probable space group: I B C A 
;
_chemical_formula_sum "Si O2"
_cell_formula_units_Z 56
_cell_length_a 8.922027
_cell_length_b 8.922022
_cell_length_c 25.212466
_cell_angle_alpha 90.000000
_cell_angle_beta 90.000000
_cell_angle_gamma 90.000000
_cell_volume 2006.975859
_symmetry_space_group_name_H-M "I B C A "
_symmetry_group_IT_number 73
_symmetry_cell_setting 'orthorhombic'
loop_
_space_group_symop_operation_xyz
x,y,z
-x,1/2-y,z
x,-y,1/2-z
1/2-x,y,-z
-x,-y,-z
x,1/2+y,-z
-x,y,1/2+z
1/2+x,-y,z
1/2+x,1/2+y,1/2+z
1/2-x,-y,1/2+z
1/2+x,1/2-y,-z
-x,1/2+y,1/2-z
1/2-x,1/2-y,1/2-z
1/2+x,y,1/2-z
1/2-x,1/2+y,z
x,1/2-y,1/2+z
loop_
_atom_site_type_symbol
_atom_site_label
_atom_site_fract_x
_atom_site_fract_y
_atom_site_fract_z
Si Si1 0.074704 0.061717 0.676532
Si Si2 0.171221 0.500000 0.750000
Si Si3 0.250000 0.921220 0.500000
Si Si4 0.500000 0.750000 0.875000
Si Si5 0.311717 0.675295 0.573468
O O1 0.059215 0.885518 0.662011
O O2 0.226637 0.093367 0.709401
O O3 0.083054 0.166946 0.625000
O O4 0.934105 0.108718 0.713661
O O5 0.358718 0.815895 0.536339
O O6 0.343366 0.023363 0.459401
O O7 0.364482 0.809215 0.912011
#
# Coordination Sequence:
#
# PCOD8296760 Si02
#       5
#    16   8   8   8  16
#     4  11  23  47  74 115 156 199 261 320 380 466
#     4  10  24  46  76 110 154 208 256 314 400 450
#     4  10  24  46  76 110 154 208 256 314 400 450
#     4  12  24  44  76 108 162 200 256 324 380 456
#     4  11  23  47  74 115 156 199 261 320 380 466
#
# _framework density 27.902676
#
# number of rings (size 3 to 8) (size 9 to 14) (size 15 to 20)
#    0.000    1.143    5.714    0.000    0.000    2.286 
#    0.000    2.857    0.000    0.000    0.000    0.000 
#    0.000    0.000    0.000    0.000    0.000    0.000 
#
# Total GULP energy -347090.870665 kJ/mol
# GULP energy per Si atom -12396.102524 kJ/mol
# Density = 2.783917 g / cm^3
# Si number density = 27.902676 Si / 1000 Ang^3
#
#
#
# Elastic Constant Matrix: (Units=GPa)
#
#
# Indices 1 2 3 4 5 6 
#
# 1 155.6802 55.3484 83.8857 0.0000 0.0000 0.0000
# 2 55.3484 155.6801 83.8861 0.0000 0.0000 0.0000
# 3 83.8857 83.8861 232.3776 0.0000 0.0000 0.0000
# 4 0.0000 0.0000 0.0000 2.9998 0.0000 0.0000
# 5 0.0000 0.0000 0.0000 0.0000 2.9992 0.0000
# 6 0.0000 0.0000 0.0000 0.0000 0.0000 26.5418
#
#
#
# Elastic Compliance Matrix: (Units=1/GPa)
#
#
# Indices 1 2 3 4 5 6 
#
# 1 0.008306 -0.001660 -0.002399 0.000000 0.000000 0.000000
# 2 -0.001660 0.008307 -0.002399 0.000000 0.000000 0.000000
# 3 -0.002399 -0.002399 0.006035 0.000000 0.000000 0.000000
# 4 0.000000 0.000000 0.000000 0.333358 0.000000 0.000000
# 5 0.000000 0.000000 0.000000 0.000000 0.333425 0.000000
# 6 0.000000 0.000000 0.000000 0.000000 0.000000 0.037676
#
#
# Mechanical properties :
#
#
# Convention : Reuss Voigt Hill
#
# Bulk Modulus (GPa) = 102.76451 109.99758 106.38104
# Shear Modulus (GPa) = 6.72704 27.88267 17.30486
#
# Velocity S-wave (km/s) = 1.55439 3.16457 2.49306
# Velocity P-wave (km/s) = 6.33491 7.27050 6.81877
#
# Compressibility (1/GPa) = 0.00973099
#
# Stress axis : x y z
#
# Youngs Moduli (GPa) = 120.38774 120.38737 165.68673
#
# Poissons Ratio (x) = 0.19989 0.39751
# Poissons Ratio (y) = 0.19990 0.39751
# Poissons Ratio (z) = 0.28883 0.28883
#
# Static dielectric constant tensor:
#      x y z
#    x 4.896700 0.000000 0.000000 
#    y 0.000000 4.896700 0.000000 
#    z 0.000000 0.000000 5.606440 
# 
# 
# High freq. dielectric constant tensor:
#      x y z
#    x 2.119340 0.000000 0.000000 
#    y 0.000000 2.119340 0.000000 
#    z 0.000000 0.000000 2.155890 
# 
# From -- ./inp_files/3865.got.cif
#   From: 2010.03.12/outbox.cif.g09.slc.cpg/sg73_2_cif.got.tgz:3865.got - 2010.04.16 15:25:48.
