data_PCOD8296941
_publ_section_title
;
Structure prediction by ZEFSAII (Michael W. Deem and Ramdas Pophale) SiO2 
 PCOD8296941
Probable space group: I B C A 
;
_chemical_formula_sum "Si O2"
_cell_formula_units_Z 72
_cell_length_a 9.003695
_cell_length_b 14.036494
_cell_length_c 24.098879
_cell_angle_alpha 90.000000
_cell_angle_beta 90.000000
_cell_angle_gamma 90.000000
_cell_volume 3045.623819
_symmetry_space_group_name_H-M "I B C A "
_symmetry_group_IT_number 73
_symmetry_cell_setting 'orthorhombic'
loop_
_space_group_symop_operation_xyz
x,y,z
-x,1/2-y,z
x,-y,1/2-z
1/2-x,y,-z
-x,-y,-z
x,1/2+y,-z
-x,y,1/2+z
1/2+x,-y,z
1/2+x,1/2+y,1/2+z
1/2-x,-y,1/2+z
1/2+x,1/2-y,-z
-x,1/2+y,1/2-z
1/2-x,1/2-y,1/2-z
1/2+x,y,1/2-z
1/2-x,1/2+y,z
x,1/2-y,1/2+z
loop_
_atom_site_type_symbol
_atom_site_label
_atom_site_fract_x
_atom_site_fract_y
_atom_site_fract_z
Si Si1 0.470171 0.401493 0.971057
Si Si2 0.901572 0.521008 0.314025
Si Si3 0.313952 0.606843 0.635068
Si Si4 0.211277 0.180770 0.114264
Si Si5 0.500000 0.250000 0.056634
O O1 0.334165 0.421220 0.929327
O O2 0.609522 0.358438 0.936130
O O3 0.500000 0.500000 0.000000
O O4 0.418828 0.327202 0.017829
O O5 0.878158 0.500000 0.250000
O O6 0.851674 0.424512 0.346821
O O7 0.791903 0.605334 0.335302
O O8 0.070472 0.549072 0.326400
O O9 0.345935 0.719365 0.639917
O O10 0.378686 0.195996 0.093667
#
# Coordination Sequence:
#
# PCOD8296941 Si02
#       5
#    16  16  16  16   8
#     4  11  23  43  69 101 147 202 237 294 363 443
#     4  11  25  48  75 102 140 196 248 312 382 427
#     4  11  25  47  71 107 150 182 251 311 357 457
#     4  11  26  46  70 110 150 190 255 307 363 457
#     4  12  24  44  70 110 152 198 240 290 380 448
#
# _framework density 23.640478999999999
#
# number of rings (size 3 to 8) (size 9 to 14) (size 15 to 20)
#    0.000    0.889    2.222    4.667    9.333    2.667 
#    0.000    2.222    0.000    0.000    0.000    0.000 
#    0.000    0.000    0.000    0.000    0.000    0.000 
#
# Total GULP energy -446290.539762 kJ/mol
# GULP energy per Si atom -12396.959438 kJ/mol
# Density = 2.358667 g / cm^3
# Si number density = 23.640479 Si / 1000 Ang^3
#
#
#
# Elastic Constant Matrix: (Units=GPa)
#
#
# Indices 1 2 3 4 5 6 
#
# 1 92.1519 21.2715 41.0496 0.0000 0.0000 0.0000
# 2 21.2715 153.8628 58.4957 0.0000 0.0000 0.0000
# 3 41.0496 58.4957 129.2035 0.0000 0.0000 0.0000
# 4 0.0000 0.0000 0.0000 44.1268 0.0000 0.0000
# 5 0.0000 0.0000 0.0000 0.0000 -0.6692 0.0000
# 6 0.0000 0.0000 0.0000 0.0000 0.0000 44.7140
#
#
#
# Elastic Compliance Matrix: (Units=1/GPa)
#
#
# Indices 1 2 3 4 5 6 
#
# 1 0.012650 -0.000267 -0.003898 0.000000 0.000000 0.000000
# 2 -0.000267 0.007856 -0.003472 0.000000 0.000000 0.000000
# 3 -0.003898 -0.003472 0.010550 0.000000 0.000000 0.000000
# 4 0.000000 0.000000 0.000000 0.022662 0.000000 0.000000
# 5 0.000000 0.000000 0.000000 0.000000 -1.494359 0.000000
# 6 0.000000 0.000000 0.000000 0.000000 0.000000 0.022364
#
#
# Mechanical properties :
#
#
# Convention : Reuss Voigt Hill
#
# Bulk Modulus (GPa) = 63.36334 68.53907 65.95121
# Shear Modulus (GPa) = -3.57720 34.59441 15.50861
#
# Velocity S-wave (km/s) = -1.23144 3.82953 2.56407
# Velocity P-wave (km/s) = 4.98389 6.97201 6.06004
#
# Compressibility (1/GPa) = 0.01578200
#
# Stress axis : x y z
#
# Youngs Moduli (GPa) = 79.05330 127.28817 94.78526
#
# Poissons Ratio (x) = 0.03396 0.36949
# Poissons Ratio (y) = 0.02109 0.32910
# Poissons Ratio (z) = 0.30816 0.44195
#
# Static dielectric constant tensor:
#      x y z
#    x 2.216160 0.000000 0.000000 
#    y 0.000000 4.923690 0.000000 
#    z 0.000000 0.000000 4.163200 
# 
# 
# High freq. dielectric constant tensor:
#      x y z
#    x 1.935140 0.000000 0.000000 
#    y 0.000000 1.956030 0.000000 
#    z 0.000000 0.000000 1.923200 
# 
# From -- ./inp_files/31053.got.cif
#   From: 2010.03.12/outbox.cif.g09.slc.cpg/sg73_16_cif.got.tgz:31053.got - 2010.04.16 15:25:48.
