data_PCOD8296542
_publ_section_title
;
Structure prediction by ZEFSAII (Michael W. Deem and Ramdas Pophale) SiO2 
 PCOD8296542
Probable space group: I B C A 
;
_chemical_formula_sum "Si O2"
_cell_formula_units_Z 112
_cell_length_a 28.838523
_cell_length_b 14.053616
_cell_length_c 13.194433
_cell_angle_alpha 90.000000
_cell_angle_beta 90.000000
_cell_angle_gamma 90.000000
_cell_volume 5347.512748
_symmetry_space_group_name_H-M "I B C A "
_symmetry_group_IT_number 73
_symmetry_cell_setting 'orthorhombic'
loop_
_space_group_symop_operation_xyz
x,y,z
-x,1/2-y,z
x,-y,1/2-z
1/2-x,y,-z
-x,-y,-z
x,1/2+y,-z
-x,y,1/2+z
1/2+x,-y,z
1/2+x,1/2+y,1/2+z
1/2-x,-y,1/2+z
1/2+x,1/2-y,-z
-x,1/2+y,1/2-z
1/2-x,1/2-y,1/2-z
1/2+x,y,1/2-z
1/2-x,1/2+y,z
x,1/2-y,1/2+z
loop_
_atom_site_type_symbol
_atom_site_label
_atom_site_fract_x
_atom_site_fract_y
_atom_site_fract_z
Si Si1 0.153920 0.835174 0.046536
Si Si2 0.279004 0.288857 0.411226
Si Si3 0.277045 0.855941 0.790345
Si Si4 0.576746 0.686632 0.414971
Si Si5 0.198162 0.000000 0.750000
Si Si6 0.119752 0.989935 0.902580
Si Si7 0.538861 0.899803 0.718553
Si Si8 0.500000 0.250000 0.930494
O O1 0.183433 0.890566 0.132406
O O2 0.119393 0.759622 0.099194
O O3 0.184539 0.784186 0.958885
O O4 0.126615 0.921041 0.996570
O O5 0.250000 0.343338 0.500000
O O6 0.301072 0.355295 0.323342
O O7 0.238248 0.243243 0.341529
O O8 0.230561 0.916360 0.788633
O O9 0.595048 0.583046 0.447988
O O10 0.547717 0.673147 0.311321
O O11 0.544632 0.729030 0.502213
O O12 0.166592 0.025370 0.847143
O O13 0.088969 0.931243 0.822805
O O14 0.508589 0.844241 0.636234
O O15 0.513235 0.000000 0.750000
#
# Coordination Sequence:
#
# PCOD8296542 Si02
#       8
#    16  16  16  16   8  16  16   8
#     4  11  23  42  63  95 141 173 227 287 336 401
#     4   9  20  36  57  88 120 173 221 274 323 385
#     4  10  23  36  59  91 128 175 231 273 326 384
#     4  11  25  42  73 100 128 183 220 285 348 421
#     4  12  22  40  64  88 134 182 232 276 332 406
#     4  11  23  41  66  96 137 180 223 280 350 407
#     4  10  23  45  68 102 136 176 222 280 350 428
#     4  12  24  46  74 106 130 170 234 276 362 430
#
# _framework density 20.944317000000002
#
# number of rings (size 3 to 8) (size 9 to 14) (size 15 to 20)
#    0.000    1.429    5.000    0.429    8.000    3.429 
#    2.571    0.000    0.000    0.000    0.000    0.000 
#    0.000    0.000    0.000    0.000    0.000    0.000 
#
# Total GULP energy -693832.589446 kJ/mol
# GULP energy per Si atom -12389.867669 kJ/mol
# Density = 2.089665 g / cm^3
# Si number density = 20.944317 Si / 1000 Ang^3
#
#
#
# Elastic Constant Matrix: (Units=GPa)
#
#
# Indices 1 2 3 4 5 6 
#
# 1 68.3969 32.5634 34.1777 0.0000 0.0000 0.0000
# 2 32.5634 72.2998 35.2188 0.0000 0.0000 0.0000
# 3 34.1777 35.2188 114.3666 0.0000 0.0000 0.0000
# 4 0.0000 0.0000 0.0000 36.3897 0.0000 0.0000
# 5 0.0000 0.0000 0.0000 0.0000 21.0779 0.0000
# 6 0.0000 0.0000 0.0000 0.0000 0.0000 34.2577
#
#
#
# Elastic Compliance Matrix: (Units=1/GPa)
#
#
# Indices 1 2 3 4 5 6 
#
# 1 0.019889 -0.007132 -0.003747 0.000000 0.000000 0.000000
# 2 -0.007132 0.018830 -0.003667 0.000000 0.000000 0.000000
# 3 -0.003747 -0.003667 0.010993 0.000000 0.000000 0.000000
# 4 0.000000 0.000000 0.000000 0.027480 0.000000 0.000000
# 5 0.000000 0.000000 0.000000 0.000000 0.047443 0.000000
# 6 0.000000 0.000000 0.000000 0.000000 0.000000 0.029191
#
#
# Mechanical properties :
#
#
# Convention : Reuss Voigt Hill
#
# Bulk Modulus (GPa) = 48.50103 50.99810 49.74956
# Shear Modulus (GPa) = 26.34464 28.55194 27.44829
#
# Velocity S-wave (km/s) = 3.55045 3.69620 3.62406
# Velocity P-wave (km/s) = 6.32574 6.52825 6.42780
#
# Compressibility (1/GPa) = 0.02061812
#
# Stress axis : x y z
#
# Youngs Moduli (GPa) = 50.27978 53.10663 90.96752
#
# Poissons Ratio (x) = 0.37878 0.34087
# Poissons Ratio (y) = 0.35862 0.33359
# Poissons Ratio (z) = 0.18841 0.19475
#
# Static dielectric constant tensor:
#      x y z
#    x 3.649830 0.000000 0.000000 
#    y 0.000000 2.359250 0.000000 
#    z 0.000000 0.000000 4.393070 
# 
# 
# High freq. dielectric constant tensor:
#      x y z
#    x 1.805130 0.000000 0.000000 
#    y 0.000000 1.807310 0.000000 
#    z 0.000000 0.000000 1.836290 
# 
# From -- ./inp_files/14836.got.cif
#   From: 2010.03.12/outbox.cif.g09.slc.cpg/sg73_8_cif.got.tgz:14836.got - 2010.04.16 15:25:48.
