data_PCOD8296952
_publ_section_title
;
Structure prediction by ZEFSAII (Michael W. Deem and Ramdas Pophale) SiO2 
 PCOD8296952
Probable space group: I B C A 
;
_chemical_formula_sum "Si O2"
_cell_formula_units_Z 72
_cell_length_a 13.171595
_cell_length_b 19.450106
_cell_length_c 13.512120
_cell_angle_alpha 90.000000
_cell_angle_beta 90.000000
_cell_angle_gamma 90.000000
_cell_volume 3461.655415
_symmetry_space_group_name_H-M "I B C A "
_symmetry_group_IT_number 73
_symmetry_cell_setting 'orthorhombic'
loop_
_space_group_symop_operation_xyz
x,y,z
-x,1/2-y,z
x,-y,1/2-z
1/2-x,y,-z
-x,-y,-z
x,1/2+y,-z
-x,y,1/2+z
1/2+x,-y,z
1/2+x,1/2+y,1/2+z
1/2-x,-y,1/2+z
1/2+x,1/2-y,-z
-x,1/2+y,1/2-z
1/2-x,1/2-y,1/2-z
1/2+x,y,1/2-z
1/2-x,1/2+y,z
x,1/2-y,1/2+z
loop_
_atom_site_type_symbol
_atom_site_label
_atom_site_fract_x
_atom_site_fract_y
_atom_site_fract_z
Si Si1 0.220879 0.588614 0.105945
Si Si2 0.492427 0.560034 0.421203
Si Si3 0.763992 0.754687 0.864675
Si Si4 0.911127 0.200167 0.990281
Si Si5 0.354069 0.500000 0.250000
O O1 0.254199 0.667547 0.099456
O O2 0.282323 0.553729 0.194288
O O3 0.101260 0.580104 0.124726
O O4 0.250000 0.554527 0.000000
O O5 0.500000 0.500000 0.500000
O O6 0.447816 0.622001 0.486755
O O7 0.422405 0.541242 0.328197
O O8 0.750000 0.750000 0.750000
O O9 0.678990 0.707086 0.912515
O O10 0.872308 0.723023 0.900044
O O11 0.000000 0.250000 0.955353
#
# Coordination Sequence:
#
# PCOD8296952 Si02
#       5
#    16  16  16  16   8
#     4  12  23  49  70 103 152 189 239 317 361 432
#     4  12  26  46  76 107 147 193 243 303 371 445
#     4  11  24  43  72 103 143 184 240 296 359 429
#     4  11  23  45  70 100 139 188 235 288 362 425
#     4  12  28  44  76 106 148 202 246 294 388 446
#
# _framework density 20.799295999999998
#
# number of rings (size 3 to 8) (size 9 to 14) (size 15 to 20)
#    0.000    0.444    6.667    2.000    0.000    8.000 
#    0.000    0.000    0.000    0.000    0.000    0.000 
#    0.000    0.000    0.000    0.000    0.000    0.000 
#
# Total GULP energy -446474.461005 kJ/mol
# GULP energy per Si atom -12402.068361 kJ/mol
# Density = 2.075196 g / cm^3
# Si number density = 20.799296 Si / 1000 Ang^3
#
#
#
# Elastic Constant Matrix: (Units=GPa)
#
#
# Indices 1 2 3 4 5 6 
#
# 1 141.3629 65.5066 52.4932 0.0001 0.0000 0.0000
# 2 65.5066 158.3925 53.2124 0.0000 0.0000 0.0001
# 3 52.4932 53.2124 157.8383 -0.0002 -0.0001 0.0002
# 4 0.0001 0.0000 -0.0002 29.7377 -0.0001 0.0001
# 5 0.0000 0.0000 -0.0001 -0.0001 29.4156 0.0000
# 6 0.0000 0.0001 0.0002 0.0001 0.0000 41.1765
#
#
#
# Elastic Compliance Matrix: (Units=1/GPa)
#
#
# Indices 1 2 3 4 5 6 
#
# 1 0.009291 -0.003163 -0.002024 0.000000 0.000000 0.000000
# 2 -0.003163 0.008196 -0.001711 0.000000 0.000000 0.000000
# 3 -0.002024 -0.001711 0.007586 0.000000 0.000000 0.000000
# 4 0.000000 0.000000 0.000000 0.033627 0.000000 0.000000
# 5 0.000000 0.000000 0.000000 0.000000 0.033996 0.000000
# 6 0.000000 0.000000 0.000000 0.000000 0.000000 0.024286
#
#
# Mechanical properties :
#
#
# Convention : Reuss Voigt Hill
#
# Bulk Modulus (GPa) = 88.67301 88.89089 88.78195
# Shear Modulus (GPa) = 37.16468 39.15806 38.16137
#
# Velocity S-wave (km/s) = 4.23167 4.34367 4.28804
# Velocity P-wave (km/s) = 8.16096 8.24542 8.20330
#
# Compressibility (1/GPa) = 0.01127739
#
# Stress axis : x y z
#
# Youngs Moduli (GPa) = 107.63083 122.00527 131.82812
#
# Poissons Ratio (x) = 0.38586 0.26679
# Poissons Ratio (y) = 0.34039 0.22562
# Poissons Ratio (z) = 0.21782 0.20881
#
# Static dielectric constant tensor:
#      x y z
#    x 3.500220 0.000000 0.000000 
#    y 0.000000 3.852390 0.000000 
#    z 0.000000 0.000000 3.908370 
# 
# 
# High freq. dielectric constant tensor:
#      x y z
#    x 1.830710 0.000000 0.000000 
#    y 0.000000 1.822350 0.000000 
#    z 0.000000 0.000000 1.819050 
# 
# From -- ./inp_files/15940.got.cif
#   From: 2010.03.12/outbox.cif.g09.slc.cpg/sg73_8_cif.got.tgz:15940.got - 2010.04.16 15:25:48.
