data_PCOD8296915
_publ_section_title
;
Structure prediction by ZEFSAII (Michael W. Deem and Ramdas Pophale) SiO2 
 PCOD8296915
Probable space group: I B C A 
;
_chemical_formula_sum "Si O2"
_cell_formula_units_Z 96
_cell_length_a 9.979249
_cell_length_b 18.261694
_cell_length_c 24.953631
_cell_angle_alpha 90.000000
_cell_angle_beta 90.000000
_cell_angle_gamma 90.000000
_cell_volume 4547.499596
_symmetry_space_group_name_H-M "I B C A "
_symmetry_group_IT_number 73
_symmetry_cell_setting 'orthorhombic'
loop_
_space_group_symop_operation_xyz
x,y,z
-x,1/2-y,z
x,-y,1/2-z
1/2-x,y,-z
-x,-y,-z
x,1/2+y,-z
-x,y,1/2+z
1/2+x,-y,z
1/2+x,1/2+y,1/2+z
1/2-x,-y,1/2+z
1/2+x,1/2-y,-z
-x,1/2+y,1/2-z
1/2-x,1/2-y,1/2-z
1/2+x,y,1/2-z
1/2-x,1/2+y,z
x,1/2-y,1/2+z
loop_
_atom_site_type_symbol
_atom_site_label
_atom_site_fract_x
_atom_site_fract_y
_atom_site_fract_z
Si Si1 0.853399 0.716668 0.622339
Si Si2 0.419530 0.822472 0.262493
Si Si3 0.402595 0.049004 0.703740
Si Si4 0.800157 0.146488 0.151755
Si Si5 0.724842 0.571854 0.437565
Si Si6 0.510491 0.034343 0.888598
O O1 0.840654 0.681709 0.681448
O O2 0.751113 0.784576 0.617491
O O3 0.816370 0.653539 0.580668
O O4 0.000000 0.750000 0.611336
O O5 0.500000 0.750000 0.251128
O O6 0.522268 0.888871 0.263348
O O7 0.318591 0.830876 0.213551
O O8 0.307001 0.080842 0.657211
O O9 0.329682 0.000000 0.750000
O O10 0.509616 0.001149 0.670592
O O11 0.927236 0.115623 0.119336
O O12 0.750000 0.575704 0.500000
O O13 0.602936 0.515563 0.426907
O O14 0.860784 0.543933 0.410258
#
# Coordination Sequence:
#
# PCOD8296915 Si02
#       6
#    16  16  16  16  16  16
#     4  11  24  47  70  96 145 185 233 292 356 408
#     4  11  23  38  62  99 144 186 223 273 341 423
#     4  12  24  39  65 104 143 190 221 275 345 427
#     4  12  25  40  67 104 141 187 228 278 347 430
#     4  12  28  51  76 103 133 185 241 304 359 408
#     4  12  26  46  74 103 144 177 236 294 354 422
#
# _framework density 21.110502
#
# number of rings (size 3 to 8) (size 9 to 14) (size 15 to 20)
#    0.000    0.333    8.333    1.000    7.000    0.000 
#    3.000    0.000    0.000    0.000    0.000    0.000 
#    0.000    0.000    0.000    0.000    0.000    0.000 
#
# Total GULP energy -595187.718935 kJ/mol
# GULP energy per Si atom -12399.744144 kJ/mol
# Density = 2.106245 g / cm^3
# Si number density = 21.110502 Si / 1000 Ang^3
#
#
#
# Elastic Constant Matrix: (Units=GPa)
#
#
# Indices 1 2 3 4 5 6 
#
# 1 95.0869 44.3723 34.6399 0.0000 0.0000 0.0000
# 2 44.3723 123.5832 54.7044 0.0000 0.0000 0.0000
# 3 34.6399 54.7044 95.0087 0.0000 0.0000 0.0000
# 4 0.0000 0.0000 0.0000 28.3978 0.0000 0.0000
# 5 0.0000 0.0000 0.0000 0.0000 26.4096 0.0000
# 6 0.0000 0.0000 0.0000 0.0000 0.0000 41.1552
#
#
#
# Elastic Compliance Matrix: (Units=1/GPa)
#
#
# Indices 1 2 3 4 5 6 
#
# 1 0.013162 -0.003491 -0.002788 0.000000 0.000000 0.000000
# 2 -0.003491 0.011786 -0.005513 0.000000 0.000000 0.000000
# 3 -0.002788 -0.005513 0.014716 0.000000 0.000000 0.000000
# 4 0.000000 0.000000 0.000000 0.035214 0.000000 0.000000
# 5 0.000000 0.000000 0.000000 0.000000 0.037865 0.000000
# 6 0.000000 0.000000 0.000000 0.000000 0.000000 0.024298
#
#
# Mechanical properties :
#
#
# Convention : Reuss Voigt Hill
#
# Bulk Modulus (GPa) = 62.19683 64.56801 63.38242
# Shear Modulus (GPa) = 30.12300 31.19000 30.65650
#
# Velocity S-wave (km/s) = 3.78156 3.84795 3.81490
# Velocity P-wave (km/s) = 6.97089 7.09890 7.03519
#
# Compressibility (1/GPa) = 0.01607799
#
# Stress axis : x y z
#
# Youngs Moduli (GPa) = 75.97755 84.84899 67.95181
#
# Poissons Ratio (x) = 0.29624 0.18948
# Poissons Ratio (y) = 0.26527 0.37462
# Poissons Ratio (z) = 0.21186 0.46777
#
# Static dielectric constant tensor:
#      x y z
#    x 3.838180 0.000000 0.000000 
#    y 0.000000 4.100300 0.000000 
#    z 0.000000 0.000000 3.596670 
# 
# 
# High freq. dielectric constant tensor:
#      x y z
#    x 1.830350 0.000000 0.000000 
#    y 0.000000 1.850950 0.000000 
#    z 0.000000 0.000000 1.799930 
# 
# From -- ./inp_files/21359.got.cif
#   From: 2010.03.12/outbox.cif.g09.slc.cpg/sg73_11_cif.got.tgz:21359.got - 2010.04.16 15:25:48.
