data_PCOD8296657
_publ_section_title
;
Structure prediction by ZEFSAII (Michael W. Deem and Ramdas Pophale) SiO2 
 PCOD8296657
Probable space group: I B C A 
;
_chemical_formula_sum "Si O2"
_cell_formula_units_Z 88
_cell_length_a 24.819376
_cell_length_b 19.307909
_cell_length_c 8.602877
_cell_angle_alpha 90.000000
_cell_angle_beta 90.000000
_cell_angle_gamma 90.000000
_cell_volume 4122.586866
_symmetry_space_group_name_H-M "I B C A "
_symmetry_group_IT_number 73
_symmetry_cell_setting 'orthorhombic'
loop_
_space_group_symop_operation_xyz
x,y,z
-x,1/2-y,z
x,-y,1/2-z
1/2-x,y,-z
-x,-y,-z
x,1/2+y,-z
-x,y,1/2+z
1/2+x,-y,z
1/2+x,1/2+y,1/2+z
1/2-x,-y,1/2+z
1/2+x,1/2-y,-z
-x,1/2+y,1/2-z
1/2-x,1/2-y,1/2-z
1/2+x,y,1/2-z
1/2-x,1/2+y,z
x,1/2-y,1/2+z
loop_
_atom_site_type_symbol
_atom_site_label
_atom_site_fract_x
_atom_site_fract_y
_atom_site_fract_z
Si Si1 0.018012 0.849493 0.057649
Si Si2 0.309467 0.691263 0.063963
Si Si3 0.192795 0.163633 0.429959
Si Si4 0.107279 0.938916 0.956270
Si Si5 0.000000 0.750000 0.308445
Si Si6 0.897791 0.403764 0.903456
O O1 0.035673 0.802697 0.205043
O O2 0.954890 0.868160 0.057281
O O3 0.052164 0.918822 0.045627
O O4 0.036009 0.800164 0.914560
O O5 0.306670 0.681117 0.248102
O O6 0.250000 0.676612 0.000000
O O7 0.328092 0.769495 0.025141
O O8 0.350607 0.640859 0.977675
O O9 0.250000 0.141740 0.500000
O O10 0.155896 0.096717 0.453363
O O11 0.107939 0.912288 0.780314
O O12 0.108807 0.020751 0.978452
#
# Coordination Sequence:
#
# PCOD8296657 Si02
#       6
#    16  16  16  16   8  16
#     4  11  23  42  62  98 128 170 208 266 316 376
#     4  11  24  43  69  97 127 165 213 268 319 375
#     4  11  24  43  69  97 127 165 213 268 319 375
#     4  11  25  43  65  93 132 173 212 262 318 381
#     4  10  24  38  66  94 126 166 218 262 316 372
#     4  11  25  43  65  93 132 173 212 262 318 381
#
# _framework density 21.345821999999998
#
# number of rings (size 3 to 8) (size 9 to 14) (size 15 to 20)
#    0.000    1.091    1.818    4.909    7.636    1.455 
#    0.000    0.000    0.000    0.000    0.000    0.000 
#    0.000    0.000    0.000    0.000    0.000    0.000 
#
# Total GULP energy -545380.721555 kJ/mol
# GULP energy per Si atom -12395.016399 kJ/mol
# Density = 2.129724 g / cm^3
# Si number density = 21.345822 Si / 1000 Ang^3
#
#
#
# Elastic Constant Matrix: (Units=GPa)
#
#
# Indices 1 2 3 4 5 6 
#
# 1 106.6886 59.0516 19.2129 0.0000 0.0000 0.0000
# 2 59.0516 129.3287 29.2582 0.0000 0.0000 0.0000
# 3 19.2129 29.2582 99.6000 0.0000 0.0000 0.0000
# 4 0.0000 0.0000 0.0000 36.9350 0.0000 0.0000
# 5 0.0000 0.0000 0.0000 0.0000 25.2281 0.0000
# 6 0.0000 0.0000 0.0000 0.0000 0.0000 25.3157
#
#
#
# Elastic Compliance Matrix: (Units=1/GPa)
#
#
# Indices 1 2 3 4 5 6 
#
# 1 0.012601 -0.005574 -0.000793 0.000000 0.000000 0.000000
# 2 -0.005574 0.010749 -0.002082 0.000000 0.000000 0.000000
# 3 -0.000793 -0.002082 0.010805 0.000000 0.000000 0.000000
# 4 0.000000 0.000000 0.000000 0.027075 0.000000 0.000000
# 5 0.000000 0.000000 0.000000 0.000000 0.039638 0.000000
# 6 0.000000 0.000000 0.000000 0.000000 0.000000 0.039501
#
#
# Mechanical properties :
#
#
# Convention : Reuss Voigt Hill
#
# Bulk Modulus (GPa) = 57.95386 61.18475 59.56930
# Shear Modulus (GPa) = 30.67109 32.70207 31.68658
#
# Velocity S-wave (km/s) = 3.79471 3.91834 3.85702
# Velocity P-wave (km/s) = 6.81240 7.01406 6.91396
#
# Compressibility (1/GPa) = 0.01725511
#
# Stress axis : x y z
#
# Youngs Moduli (GPa) = 79.35701 93.03610 92.55111
#
# Poissons Ratio (x) = 0.51861 0.07342
# Poissons Ratio (y) = 0.44236 0.19271
# Poissons Ratio (z) = 0.06295 0.19372
#
# Static dielectric constant tensor:
#      x y z
#    x 3.715060 0.000000 0.000000 
#    y 0.000000 3.204510 0.000000 
#    z 0.000000 0.000000 4.174380 
# 
# 
# High freq. dielectric constant tensor:
#      x y z
#    x 1.828590 0.000000 0.000000 
#    y 0.000000 1.848810 0.000000 
#    z 0.000000 0.000000 1.857250 
# 
# From -- ./inp_files/7061.got.cif
#   From: 2010.03.12/outbox.cif.g09.slc.cpg/sg73_4_cif.got.tgz:7061.got - 2010.04.16 15:25:48.
