data_PCOD8296414
_publ_section_title
;
Structure prediction by ZEFSAII (Michael W. Deem and Ramdas Pophale) SiO2 
 PCOD8296414
Probable space group: I B C A 
;
_chemical_formula_sum "Si O2"
_cell_formula_units_Z 72
_cell_length_a 9.630224
_cell_length_b 14.857275
_cell_length_c 22.337393
_cell_angle_alpha 90.000000
_cell_angle_beta 90.000000
_cell_angle_gamma 90.000000
_cell_volume 3196.009313
_symmetry_space_group_name_H-M "I B C A "
_symmetry_group_IT_number 73
_symmetry_cell_setting 'orthorhombic'
loop_
_space_group_symop_operation_xyz
x,y,z
-x,1/2-y,z
x,-y,1/2-z
1/2-x,y,-z
-x,-y,-z
x,1/2+y,-z
-x,y,1/2+z
1/2+x,-y,z
1/2+x,1/2+y,1/2+z
1/2-x,-y,1/2+z
1/2+x,1/2-y,-z
-x,1/2+y,1/2-z
1/2-x,1/2-y,1/2-z
1/2+x,y,1/2-z
1/2-x,1/2+y,z
x,1/2-y,1/2+z
loop_
_atom_site_type_symbol
_atom_site_label
_atom_site_fract_x
_atom_site_fract_y
_atom_site_fract_z
Si Si1 0.335898 0.081323 0.134441
Si Si2 0.934626 0.657376 0.050686
Si Si3 0.649452 0.405810 0.428557
Si Si4 0.559649 0.654316 0.671743
Si Si5 0.535530 0.500000 0.250000
O O1 0.473304 0.124410 0.106138
O O2 0.216296 0.156340 0.145158
O O3 0.367466 0.037172 0.197973
O O4 0.285952 0.003454 0.088299
O O5 0.775525 0.666718 0.073553
O O6 0.000000 0.750000 0.026875
O O7 0.925097 0.590362 0.993592
O O8 0.536322 0.378199 0.381300
O O9 0.500000 0.750000 0.695042
O O10 0.558615 0.582459 0.725936
#
# Coordination Sequence:
#
# PCOD8296414 Si02
#       5
#    16  16  16  16   8
#     4  11  23  41  65  91 126 169 213 264 321 383
#     4  11  23  39  63  95 128 162 205 258 315 385
#     4  10  22  41  61  92 130 166 205 254 322 387
#     4  11  23  41  67  94 125 168 217 270 323 383
#     4  10  24  42  62  92 130 170 218 270 326 386
#
# _framework density 22.528095
#
# number of rings (size 3 to 8) (size 9 to 14) (size 15 to 20)
#    0.000    1.333    0.000    6.000    0.000    8.000 
#    0.000    0.000    0.000    0.000    0.000    0.000 
#    0.000    0.000    0.000    0.000    0.000    0.000 
#
# Total GULP energy -446214.443973 kJ/mol
# GULP energy per Si atom -12394.845666 kJ/mol
# Density = 2.247682 g / cm^3
# Si number density = 22.528095 Si / 1000 Ang^3
#
#
#
# Elastic Constant Matrix: (Units=GPa)
#
#
# Indices 1 2 3 4 5 6 
#
# 1 125.9422 40.1728 52.3920 0.0000 0.0000 0.0000
# 2 40.1728 100.4773 50.2480 0.0000 0.0000 0.0000
# 3 52.3920 50.2480 136.7468 0.0000 0.0000 0.0000
# 4 0.0000 0.0000 0.0000 25.1658 0.0000 0.0000
# 5 0.0000 0.0000 0.0000 0.0000 25.6083 0.0000
# 6 0.0000 0.0000 0.0000 0.0000 0.0000 38.2949
#
#
#
# Elastic Compliance Matrix: (Units=1/GPa)
#
#
# Indices 1 2 3 4 5 6 
#
# 1 0.009947 -0.002537 -0.002879 0.000000 0.000000 0.000000
# 2 -0.002537 0.012840 -0.003746 0.000000 0.000000 0.000000
# 3 -0.002879 -0.003746 0.009792 0.000000 0.000000 0.000000
# 4 0.000000 0.000000 0.000000 0.039736 0.000000 0.000000
# 5 0.000000 0.000000 0.000000 0.000000 0.039050 0.000000
# 6 0.000000 0.000000 0.000000 0.000000 0.000000 0.026113
#
#
# Mechanical properties :
#
#
# Convention : Reuss Voigt Hill
#
# Bulk Modulus (GPa) = 70.14915 72.08801 71.11858
# Shear Modulus (GPa) = 31.14193 32.50403 31.82298
#
# Velocity S-wave (km/s) = 3.72204 3.80257 3.76252
# Velocity P-wave (km/s) = 7.04823 7.16575 7.10724
#
# Compressibility (1/GPa) = 0.01425534
#
# Stress axis : x y z
#
# Youngs Moduli (GPa) = 100.53231 77.87919 102.12223
#
# Poissons Ratio (x) = 0.19761 0.29397
# Poissons Ratio (y) = 0.25509 0.38256
# Poissons Ratio (z) = 0.28940 0.29174
#
# Static dielectric constant tensor:
#      x y z
#    x 3.999140 0.000000 0.000000 
#    y 0.000000 4.476280 0.000000 
#    z 0.000000 0.000000 4.160700 
# 
# 
# High freq. dielectric constant tensor:
#      x y z
#    x 1.893640 0.000000 0.000000 
#    y 0.000000 1.875950 0.000000 
#    z 0.000000 0.000000 1.895790 
# 
# From -- ./inp_files/24642.got.cif
#   From: 2010.03.12/outbox.cif.g09.slc.cpg/sg73_13_cif.got.tgz:24642.got - 2010.04.16 15:25:48.
