data_PCOD8296313
_publ_section_title
;
Structure prediction by ZEFSAII (Michael W. Deem and Ramdas Pophale) SiO2 
 PCOD8296313
Probable space group: I B C A 
;
_chemical_formula_sum "Si O2"
_cell_formula_units_Z 112
_cell_length_a 12.597540
_cell_length_b 20.705117
_cell_length_c 21.489014
_cell_angle_alpha 90.000000
_cell_angle_beta 90.000000
_cell_angle_gamma 90.000000
_cell_volume 5605.055584
_symmetry_space_group_name_H-M "I B C A "
_symmetry_group_IT_number 73
_symmetry_cell_setting 'orthorhombic'
loop_
_space_group_symop_operation_xyz
x,y,z
-x,1/2-y,z
x,-y,1/2-z
1/2-x,y,-z
-x,-y,-z
x,1/2+y,-z
-x,y,1/2+z
1/2+x,-y,z
1/2+x,1/2+y,1/2+z
1/2-x,-y,1/2+z
1/2+x,1/2-y,-z
-x,1/2+y,1/2-z
1/2-x,1/2-y,1/2-z
1/2+x,y,1/2-z
1/2-x,1/2+y,z
x,1/2-y,1/2+z
loop_
_atom_site_type_symbol
_atom_site_label
_atom_site_fract_x
_atom_site_fract_y
_atom_site_fract_z
Si Si1 0.250000 0.740504 0.500000
Si Si2 0.736845 0.866334 0.401767
Si Si3 0.675960 0.216449 0.797475
Si Si4 0.962439 0.422825 0.615138
Si Si5 0.585440 0.096877 0.746566
Si Si6 0.270525 0.000000 0.750000
Si Si7 0.429138 0.542581 0.353745
Si Si8 0.910678 0.703486 0.410357
O O1 0.295027 0.690857 0.448759
O O2 0.175414 0.791462 0.464715
O O3 0.754389 0.835750 0.334349
O O4 0.848246 0.905250 0.416182
O O5 0.635006 0.911986 0.401350
O O6 0.750000 0.250000 0.750000
O O7 0.591520 0.174500 0.757564
O O8 0.623750 0.268725 0.843070
O O9 0.960474 0.432746 0.689925
O O10 0.008788 0.493603 0.598829
O O11 0.048337 0.368977 0.596474
O O12 0.509448 0.084562 0.688140
O O13 0.699291 0.063117 0.735257
O O14 0.342216 0.007718 0.689112
O O15 0.000000 0.750000 0.436989
#
# Coordination Sequence:
#
# PCOD8296313 Si02
#       8
#     8  16  16  16  16   8  16  16
#     4  10  22  46  66  82 112 162 222 264 320 364
#     4  10  22  41  63  84 119 166 207 258 321 359
#     4  10  22  35  56  91 129 163 204 244 309 378
#     4  11  20  37  61  93 115 163 210 244 314 383
#     4  11  20  33  53  89 131 167 195 236 302 380
#     4  12  18  32  56  88 132 170 198 232 300 382
#     4  12  21  34  61  94 130 167 201 250 313 379
#     4  11  21  40  68  86 115 168 212 261 309 378
#
# _framework density 19.981960999999998
#
# number of rings (size 3 to 8) (size 9 to 14) (size 15 to 20)
#    0.000    1.143   10.000    0.000    4.000    0.000 
#    0.000    4.286    0.000    0.000    0.000    0.000 
#    0.000    0.000    0.000    0.000    0.000    0.000 
#
# Total GULP energy -693810.359812 kJ/mol
# GULP energy per Si atom -12389.470711 kJ/mol
# Density = 1.993648 g / cm^3
# Si number density = 19.981961 Si / 1000 Ang^3
#
#
#
# Elastic Constant Matrix: (Units=GPa)
#
#
# Indices 1 2 3 4 5 6 
#
# 1 91.3887 38.4592 36.9793 0.0000 0.0000 0.0000
# 2 38.4592 81.5268 31.4754 0.0000 0.0000 0.0000
# 3 36.9793 31.4754 55.2700 0.0000 0.0000 0.0000
# 4 0.0000 0.0000 0.0000 12.2540 0.0000 0.0000
# 5 0.0000 0.0000 0.0000 0.0000 21.9455 0.0000
# 6 0.0000 0.0000 0.0000 0.0000 0.0000 47.0445
#
#
#
# Elastic Compliance Matrix: (Units=1/GPa)
#
#
# Indices 1 2 3 4 5 6 
#
# 1 0.016159 -0.004421 -0.008294 0.000000 0.000000 0.000000
# 2 -0.004421 0.016932 -0.006685 0.000000 0.000000 0.000000
# 3 -0.008294 -0.006685 0.027449 0.000000 0.000000 0.000000
# 4 0.000000 0.000000 0.000000 0.081606 0.000000 0.000000
# 5 0.000000 0.000000 0.000000 0.000000 0.045567 0.000000
# 6 0.000000 0.000000 0.000000 0.000000 0.000000 0.021256
#
#
# Mechanical properties :
#
#
# Convention : Reuss Voigt Hill
#
# Bulk Modulus (GPa) = 45.99549 49.11261 47.55405
# Shear Modulus (GPa) = 19.60672 24.33358 21.97015
#
# Velocity S-wave (km/s) = 3.13584 3.49345 3.31947
# Velocity P-wave (km/s) = 6.01497 6.39563 6.20822
#
# Compressibility (1/GPa) = 0.02174126
#
# Stress axis : x y z
#
# Youngs Moduli (GPa) = 61.88687 59.05931 36.43128
#
# Poissons Ratio (x) = 0.26108 0.30215
# Poissons Ratio (y) = 0.27358 0.24354
# Poissons Ratio (z) = 0.51327 0.39481
#
# Static dielectric constant tensor:
#      x y z
#    x 3.640800 0.000000 0.000000 
#    y 0.000000 3.376150 0.000000 
#    z 0.000000 0.000000 3.410640 
# 
# 
# High freq. dielectric constant tensor:
#      x y z
#    x 1.779310 0.000000 0.000000 
#    y 0.000000 1.784100 0.000000 
#    z 0.000000 0.000000 1.748680 
# 
# From -- ./inp_files/29069.got.cif
#   From: 2010.03.12/outbox.cif.g09.slc.cpg/sg73_15_cif.got.tgz:29069.got - 2010.04.16 15:25:48.
