data_PCOD8296219
_publ_section_title
;
Structure prediction by ZEFSAII (Michael W. Deem and Ramdas Pophale) SiO2 
 PCOD8296219
Probable space group: I B C A 
;
_chemical_formula_sum "Si O2"
_cell_formula_units_Z 104
_cell_length_a 14.401436
_cell_length_b 16.460958
_cell_length_c 21.484042
_cell_angle_alpha 90.000000
_cell_angle_beta 90.000000
_cell_angle_gamma 90.000000
_cell_volume 5093.037786
_symmetry_space_group_name_H-M "I B C A "
_symmetry_group_IT_number 73
_symmetry_cell_setting 'orthorhombic'
loop_
_space_group_symop_operation_xyz
x,y,z
-x,1/2-y,z
x,-y,1/2-z
1/2-x,y,-z
-x,-y,-z
x,1/2+y,-z
-x,y,1/2+z
1/2+x,-y,z
1/2+x,1/2+y,1/2+z
1/2-x,-y,1/2+z
1/2+x,1/2-y,-z
-x,1/2+y,1/2-z
1/2-x,1/2-y,1/2-z
1/2+x,y,1/2-z
1/2-x,1/2+y,z
x,1/2-y,1/2+z
loop_
_atom_site_type_symbol
_atom_site_label
_atom_site_fract_x
_atom_site_fract_y
_atom_site_fract_z
Si Si1 0.500000 0.750000 0.409332
Si Si2 0.588767 0.637995 0.313600
Si Si3 0.805653 0.104458 0.090179
Si Si4 0.249834 0.970411 0.317366
Si Si5 0.608559 0.105058 0.039004
Si Si6 0.542975 0.493633 0.856206
Si Si7 0.442729 0.328181 0.828309
O O1 0.574556 0.708328 0.363936
O O2 0.542796 0.817148 0.454796
O O3 0.697438 0.615719 0.323138
O O4 0.515181 0.563549 0.320768
O O5 0.571788 0.672966 0.245118
O O6 0.797704 0.022280 0.128980
O O7 0.705151 0.133656 0.069146
O O8 0.845063 0.175961 0.134697
O O9 0.874755 0.083563 0.032871
O O10 0.281819 0.000000 0.250000
O O11 0.138811 0.970672 0.321091
O O12 0.566674 0.025992 0.074197
O O13 0.486977 0.410344 0.856802
O O14 0.500000 0.250000 0.848824
#
# Coordination Sequence:
#
# PCOD8296219 Si02
#       7
#     8  16  16  16  16  16  16
#     4  10  22  40  62  86 122 170 196 246 306 362
#     4  11  20  40  59  88 125 155 204 248 303 373
#     4  10  21  40  62  89 122 162 203 253 298 356
#     4  11  19  35  64  89 116 160 202 249 312 356
#     4   9  22  42  62  86 122 165 208 244 298 361
#     4  10  22  39  61  87 119 162 207 250 299 369
#     4  12  23  37  58  91 127 154 198 258 306 358
#
# _framework density 20.420033
#
# number of rings (size 3 to 8) (size 9 to 14) (size 15 to 20)
#    0.000    1.538    3.846    1.385    1.077    1.846 
#    0.000    1.538    0.000    1.846    0.000    0.000 
#    0.000    0.000    0.000    0.000    0.000    0.000 
#
# Total GULP energy -644552.288596 kJ/mol
# GULP energy per Si atom -12395.236319 kJ/mol
# Density = 2.037356 g / cm^3
# Si number density = 20.420033 Si / 1000 Ang^3
#
#
#
# Elastic Constant Matrix: (Units=GPa)
#
#
# Indices 1 2 3 4 5 6 
#
# 1 56.9530 3.0182 15.5975 0.0000 0.0000 0.0000
# 2 3.0182 64.5903 11.1140 0.0000 0.0000 0.0000
# 3 15.5975 11.1140 110.0696 0.0000 0.0000 0.0000
# 4 0.0000 0.0000 0.0000 19.6258 0.0000 0.0000
# 5 0.0000 0.0000 0.0000 0.0000 25.7891 0.0000
# 6 0.0000 0.0000 0.0000 0.0000 0.0000 20.6573
#
#
#
# Elastic Compliance Matrix: (Units=1/GPa)
#
#
# Indices 1 2 3 4 5 6 
#
# 1 0.018278 -0.000416 -0.002548 0.000000 0.000000 0.000000
# 2 -0.000416 0.015765 -0.001533 0.000000 0.000000 0.000000
# 3 -0.002548 -0.001533 0.009601 0.000000 0.000000 0.000000
# 4 0.000000 0.000000 0.000000 0.050953 0.000000 0.000000
# 5 0.000000 0.000000 0.000000 0.000000 0.038776 0.000000
# 6 0.000000 0.000000 0.000000 0.000000 0.000000 0.048409
#
#
# Mechanical properties :
#
#
# Convention : Reuss Voigt Hill
#
# Bulk Modulus (GPa) = 28.85910 32.34135 30.60022
# Shear Modulus (GPa) = 24.71249 26.67334 25.69291
#
# Velocity S-wave (km/s) = 3.48258 3.61811 3.55099
# Velocity P-wave (km/s) = 5.50768 5.77293 5.64186
#
# Compressibility (1/GPa) = 0.03465112
#
# Stress axis : x y z
#
# Youngs Moduli (GPa) = 54.70990 63.43007 104.15537
#
# Poissons Ratio (x) = 0.02636 0.26540
# Poissons Ratio (y) = 0.02274 0.15967
# Poissons Ratio (z) = 0.13941 0.09724
#
# Static dielectric constant tensor:
#      x y z
#    x 4.016980 0.000000 0.000000 
#    y 0.000000 3.483630 0.000000 
#    z 0.000000 0.000000 3.830690 
# 
# 
# High freq. dielectric constant tensor:
#      x y z
#    x 1.810010 0.000000 0.000000 
#    y 0.000000 1.775860 0.000000 
#    z 0.000000 0.000000 1.807220 
# 
# From -- ./inp_files/19486.got.cif
#   From: 2010.03.12/outbox.cif.g09.slc.cpg/sg73_10_cif.got.tgz:19486.got - 2010.04.16 15:25:48.
