data_PCOD8296039
_publ_section_title
;
Structure prediction by ZEFSAII (Michael W. Deem and Ramdas Pophale) SiO2 
 PCOD8296039
Probable space group: I B C A 
;
_chemical_formula_sum "Si O2"
_cell_formula_units_Z 96
_cell_length_a 13.261654
_cell_length_b 20.292092
_cell_length_c 17.527236
_cell_angle_alpha 90.000000
_cell_angle_beta 90.000000
_cell_angle_gamma 90.000000
_cell_volume 4716.696693
_symmetry_space_group_name_H-M "I B C A "
_symmetry_group_IT_number 73
_symmetry_cell_setting 'orthorhombic'
loop_
_space_group_symop_operation_xyz
x,y,z
-x,1/2-y,z
x,-y,1/2-z
1/2-x,y,-z
-x,-y,-z
x,1/2+y,-z
-x,y,1/2+z
1/2+x,-y,z
1/2+x,1/2+y,1/2+z
1/2-x,-y,1/2+z
1/2+x,1/2-y,-z
-x,1/2+y,1/2-z
1/2-x,1/2-y,1/2-z
1/2+x,y,1/2-z
1/2-x,1/2+y,z
x,1/2-y,1/2+z
loop_
_atom_site_type_symbol
_atom_site_label
_atom_site_fract_x
_atom_site_fract_y
_atom_site_fract_z
Si Si1 0.388812 0.266220 0.300992
Si Si2 0.216510 0.556689 0.143981
Si Si3 0.753220 0.356112 0.721256
Si Si4 0.664490 0.164691 0.447524
Si Si5 0.472207 0.933386 0.456406
Si Si6 0.195789 0.572773 0.581130
O O1 0.500000 0.250000 0.275938
O O2 0.353253 0.331481 0.255794
O O3 0.330693 0.202885 0.270179
O O4 0.382574 0.279747 0.392279
O O5 0.210430 0.577850 0.233231
O O6 0.267749 0.615861 0.100536
O O7 0.103621 0.546259 0.111536
O O8 0.287830 0.494266 0.128609
O O9 0.746008 0.370248 0.631422
O O10 0.750000 0.199931 0.500000
O O11 0.576302 0.124037 0.490936
O O12 0.578374 0.907790 0.424074
O O13 0.500000 0.000000 0.500000
O O14 0.250000 0.567312 0.500000
#
# Coordination Sequence:
#
# PCOD8296039 Si02
#       6
#    16  16  16  16  16  16
#     4  10  23  43  64  84 119 169 216 257 301 365
#     4  10  20  41  63  90 126 162 200 252 321 382
#     4  10  25  43  61  87 126 164 213 261 306 371
#     4   9  19  39  63  87 123 164 202 252 313 372
#     4  11  20  36  64  98 126 161 197 250 318 385
#     4  12  23  38  62  97 132 152 202 264 318 378
#
# _framework density 20.353228000000001
#
# number of rings (size 3 to 8) (size 9 to 14) (size 15 to 20)
#    0.000    1.667    3.333    1.000    4.667    0.667 
#    0.000    1.667    0.000    0.000    0.000    0.000 
#    0.000    0.000    0.000    0.000    0.000    0.000 
#
# Total GULP energy -594914.456057 kJ/mol
# GULP energy per Si atom -12394.051168 kJ/mol
# Density = 2.030690 g / cm^3
# Si number density = 20.353228 Si / 1000 Ang^3
#
#
#
# Elastic Constant Matrix: (Units=GPa)
#
#
# Indices 1 2 3 4 5 6 
#
# 1 128.5961 26.8802 37.6981 0.0000 0.0000 0.0000
# 2 26.8802 55.4190 42.9577 0.0000 0.0000 0.0000
# 3 37.6981 42.9577 105.7526 0.0000 0.0000 0.0000
# 4 0.0000 0.0000 0.0000 35.4634 0.0000 0.0000
# 5 0.0000 0.0000 0.0000 0.0000 22.5306 0.0000
# 6 0.0000 0.0000 0.0000 0.0000 0.0000 21.5810
#
#
#
# Elastic Compliance Matrix: (Units=1/GPa)
#
#
# Indices 1 2 3 4 5 6 
#
# 1 0.008958 -0.002729 -0.002085 0.000000 0.000000 0.000000
# 2 -0.002729 0.027168 -0.010063 0.000000 0.000000 0.000000
# 3 -0.002085 -0.010063 0.014287 0.000000 0.000000 0.000000
# 4 0.000000 0.000000 0.000000 0.028198 0.000000 0.000000
# 5 0.000000 0.000000 0.000000 0.000000 0.044384 0.000000
# 6 0.000000 0.000000 0.000000 0.000000 0.000000 0.046337
#
#
# Mechanical properties :
#
#
# Convention : Reuss Voigt Hill
#
# Bulk Modulus (GPa) = 48.40404 56.09328 52.24866
# Shear Modulus (GPa) = 24.27502 28.06378 26.16940
#
# Velocity S-wave (km/s) = 3.45728 3.71730 3.58964
# Velocity P-wave (km/s) = 6.30640 6.78558 6.55037
#
# Compressibility (1/GPa) = 0.02065943
#
# Stress axis : x y z
#
# Youngs Moduli (GPa) = 111.63398 36.80734 69.99366
#
# Poissons Ratio (x) = 0.10044 0.14592
# Poissons Ratio (y) = 0.30464 0.70437
# Poissons Ratio (z) = 0.23273 0.37040
#
# Static dielectric constant tensor:
#      x y z
#    x 4.239150 0.000000 0.000000 
#    y 0.000000 3.627830 0.000000 
#    z 0.000000 0.000000 4.088620 
# 
# 
# High freq. dielectric constant tensor:
#      x y z
#    x 1.796320 0.000000 0.000000 
#    y 0.000000 1.785730 0.000000 
#    z 0.000000 0.000000 1.797950 
# 
# From -- ./inp_files/21362.got.cif
#   From: 2010.03.12/outbox.cif.g09.slc.cpg/sg73_11_cif.got.tgz:21362.got - 2010.04.16 15:25:48.
