data_PCOD8296483
_publ_section_title
;
Structure prediction by ZEFSAII (Michael W. Deem and Ramdas Pophale) SiO2 
 PCOD8296483
Probable space group: I B C A 
;
_chemical_formula_sum "Si O2"
_cell_formula_units_Z 96
_cell_length_a 14.121722
_cell_length_b 13.880260
_cell_length_c 21.652534
_cell_angle_alpha 90.000000
_cell_angle_beta 90.000000
_cell_angle_gamma 90.000000
_cell_volume 4244.181893
_symmetry_space_group_name_H-M "I B C A "
_symmetry_group_IT_number 73
_symmetry_cell_setting 'orthorhombic'
loop_
_space_group_symop_operation_xyz
x,y,z
-x,1/2-y,z
x,-y,1/2-z
1/2-x,y,-z
-x,-y,-z
x,1/2+y,-z
-x,y,1/2+z
1/2+x,-y,z
1/2+x,1/2+y,1/2+z
1/2-x,-y,1/2+z
1/2+x,1/2-y,-z
-x,1/2+y,1/2-z
1/2-x,1/2-y,1/2-z
1/2+x,y,1/2-z
1/2-x,1/2+y,z
x,1/2-y,1/2+z
loop_
_atom_site_type_symbol
_atom_site_label
_atom_site_fract_x
_atom_site_fract_y
_atom_site_fract_z
Si Si1 0.101467 0.270922 0.498741
Si Si2 0.357803 0.736752 0.729612
Si Si3 0.112068 0.885035 0.097388
Si Si4 0.989176 0.394366 0.275901
Si Si5 0.823586 0.852152 0.398928
Si Si6 0.640100 0.508433 0.486951
O O1 0.100978 0.219631 0.432566
O O2 0.180532 0.229739 0.546483
O O3 0.115454 0.381033 0.480110
O O4 0.000000 0.250000 0.531206
O O5 0.250000 0.750000 0.750000
O O6 0.410664 0.839554 0.734138
O O7 0.410503 0.661762 0.775036
O O8 0.371038 0.695256 0.660801
O O9 0.041694 0.899759 0.153459
O O10 0.220277 0.890630 0.120586
O O11 0.084079 0.965363 0.045989
O O12 0.004085 0.500000 0.250000
O O13 0.882928 0.944497 0.425466
O O14 0.750000 0.490922 0.500000
#
# Coordination Sequence:
#
# PCOD8296483 Si02
#       6
#    16  16  16  16  16  16
#     4  11  24  36  67 100 137 181 228 297 365 417
#     4  11  25  48  72 101 141 189 235 290 358 419
#     4  10  22  44  67  97 140 176 234 292 344 432
#     4  11  27  46  71 105 139 187 241 293 350 429
#     4  10  22  43  66 100 137 179 238 287 351 430
#     4   9  20  41  67  99 132 179 227 288 359 420
#
# _framework density 22.619201
#
# number of rings (size 3 to 8) (size 9 to 14) (size 15 to 20)
#    0.000    1.667    1.667    2.500    7.000    4.667 
#    0.000    0.000    0.000    0.000    0.000    0.000 
#    0.000    0.000    0.000    0.000    0.000    0.000 
#
# Total GULP energy -595127.183131 kJ/mol
# GULP energy per Si atom -12398.482982 kJ/mol
# Density = 2.256772 g / cm^3
# Si number density = 22.619201 Si / 1000 Ang^3
#
#
#
# Elastic Constant Matrix: (Units=GPa)
#
#
# Indices 1 2 3 4 5 6 
#
# 1 95.3071 31.3814 32.8988 0.0000 0.0000 0.0000
# 2 31.3814 178.0046 51.4603 0.0000 0.0000 0.0000
# 3 32.8988 51.4603 140.3985 0.0000 0.0000 0.0000
# 4 0.0000 0.0000 0.0000 29.1291 0.0000 0.0000
# 5 0.0000 0.0000 0.0000 0.0000 29.6787 0.0000
# 6 0.0000 0.0000 0.0000 0.0000 0.0000 25.7498
#
#
#
# Elastic Compliance Matrix: (Units=1/GPa)
#
#
# Indices 1 2 3 4 5 6 
#
# 1 0.011730 -0.001424 -0.002227 0.000000 0.000000 0.000000
# 2 -0.001424 0.006457 -0.002033 0.000000 0.000000 0.000000
# 3 -0.002227 -0.002033 0.008389 0.000000 0.000000 0.000000
# 4 0.000000 0.000000 0.000000 0.034330 0.000000 0.000000
# 5 0.000000 0.000000 0.000000 0.000000 0.033694 0.000000
# 6 0.000000 0.000000 0.000000 0.000000 0.000000 0.038835
#
#
# Mechanical properties :
#
#
# Convention : Reuss Voigt Hill
#
# Bulk Modulus (GPa) = 65.75188 71.68792 68.71990
# Shear Modulus (GPa) = 33.36179 36.77619 35.06899
#
# Velocity S-wave (km/s) = 3.84465 4.03660 3.94179
# Velocity P-wave (km/s) = 6.98861 7.31353 7.15291
#
# Compressibility (1/GPa) = 0.01520869
#
# Stress axis : x y z
#
# Youngs Moduli (GPa) = 85.25192 154.88045 119.19792
#
# Poissons Ratio (x) = 0.22059 0.26540
# Poissons Ratio (y) = 0.12142 0.24231
# Poissons Ratio (z) = 0.18982 0.31484
#
# Static dielectric constant tensor:
#      x y z
#    x 4.258810 0.000000 0.000000 
#    y 0.000000 4.223400 0.000000 
#    z 0.000000 0.000000 3.971190 
# 
# 
# High freq. dielectric constant tensor:
#      x y z
#    x 1.899560 0.000000 0.000000 
#    y 0.000000 1.896510 0.000000 
#    z 0.000000 0.000000 1.883060 
# 
# From -- ./inp_files/18629.got.cif
#   From: 2010.03.12/outbox.cif.g09.slc.cpg/sg73_10_cif.got.tgz:18629.got - 2010.04.16 15:25:48.
