data_PCOD8296283
_publ_section_title
;
Structure prediction by ZEFSAII (Michael W. Deem and Ramdas Pophale) SiO2 
 PCOD8296283
Probable space group: I B C A 
;
_chemical_formula_sum "Si O2"
_cell_formula_units_Z 112
_cell_length_a 12.180509
_cell_length_b 14.393214
_cell_length_c 30.375020
_cell_angle_alpha 90.000000
_cell_angle_beta 90.000000
_cell_angle_gamma 90.000000
_cell_volume 5325.247439
_symmetry_space_group_name_H-M "I B C A "
_symmetry_group_IT_number 73
_symmetry_cell_setting 'orthorhombic'
loop_
_space_group_symop_operation_xyz
x,y,z
-x,1/2-y,z
x,-y,1/2-z
1/2-x,y,-z
-x,-y,-z
x,1/2+y,-z
-x,y,1/2+z
1/2+x,-y,z
1/2+x,1/2+y,1/2+z
1/2-x,-y,1/2+z
1/2+x,1/2-y,-z
-x,1/2+y,1/2-z
1/2-x,1/2-y,1/2-z
1/2+x,y,1/2-z
1/2-x,1/2+y,z
x,1/2-y,1/2+z
loop_
_atom_site_type_symbol
_atom_site_label
_atom_site_fract_x
_atom_site_fract_y
_atom_site_fract_z
Si Si1 0.398765 0.315161 0.404654
Si Si2 0.129317 0.940098 0.325130
Si Si3 0.231592 0.669542 0.450301
Si Si4 0.000000 0.250000 0.335363
Si Si5 0.479173 0.458113 0.952886
Si Si6 0.815257 0.167738 0.275669
Si Si7 0.962709 0.000000 0.250000
Si Si8 0.585687 0.086459 0.107383
O O1 0.500000 0.250000 0.411981
O O2 0.404884 0.350557 0.354249
O O3 0.290306 0.256885 0.417604
O O4 0.414009 0.395824 0.440863
O O5 0.233241 0.905284 0.298089
O O6 0.158347 0.021391 0.359936
O O7 0.037193 0.985050 0.293353
O O8 0.250000 0.705533 0.500000
O O9 0.134844 0.594809 0.449912
O O10 0.340158 0.621129 0.432672
O O11 0.106902 0.274875 0.307504
O O12 0.030700 0.166106 0.365588
O O13 0.480505 0.536069 0.914689
O O14 0.500000 0.500000 0.000000
O O15 0.750000 0.250000 0.250000
O O16 0.892239 0.095762 0.248806
#
# Coordination Sequence:
#
# PCOD8296283 Si02
#       8
#    16  16  16   8  16  16   8  16
#     4   9  22  40  66  94 130 174 222 277 338 406
#     4  11  25  47  67 102 133 186 231 283 359 423
#     4  11  22  42  68 100 135 183 232 284 347 421
#     4  12  26  48  66 108 144 180 236 302 364 428
#     4  10  21  43  65  96 133 180 227 280 339 410
#     4  12  28  45  74 104 138 182 235 300 363 436
#     4  12  26  48  76 100 142 184 236 292 354 446
#     4  11  25  43  69  98 142 182 231 291 350 421
#
# _framework density 21.031887000000001
#
# number of rings (size 3 to 8) (size 9 to 14) (size 15 to 20)
#    0.000    1.143    2.857    2.143    6.000    2.286 
#    5.143    0.000    0.000    0.000    0.000    0.000 
#    0.000    0.000    0.000    0.000    0.000    0.000 
#
# Total GULP energy -693857.807571 kJ/mol
# GULP energy per Si atom -12390.317992 kJ/mol
# Density = 2.098402 g / cm^3
# Si number density = 21.031887 Si / 1000 Ang^3
#
#
#
# Elastic Constant Matrix: (Units=GPa)
#
#
# Indices 1 2 3 4 5 6 
#
# 1 84.9976 36.4187 42.1341 0.0000 0.0000 0.0000
# 2 36.4187 113.7074 57.0853 0.0000 0.0000 0.0000
# 3 42.1341 57.0853 126.8660 0.0000 0.0000 0.0000
# 4 0.0000 0.0000 0.0000 51.3003 0.0000 0.0000
# 5 0.0000 0.0000 0.0000 0.0000 25.5467 0.0000
# 6 0.0000 0.0000 0.0000 0.0000 0.0000 34.4402
#
#
#
# Elastic Compliance Matrix: (Units=1/GPa)
#
#
# Indices 1 2 3 4 5 6 
#
# 1 0.014806 -0.002937 -0.003596 0.000000 0.000000 0.000000
# 2 -0.002937 0.011943 -0.004399 0.000000 0.000000 0.000000
# 3 -0.003596 -0.004399 0.011056 0.000000 0.000000 0.000000
# 4 0.000000 0.000000 0.000000 0.019493 0.000000 0.000000
# 5 0.000000 0.000000 0.000000 0.000000 0.039144 0.000000
# 6 0.000000 0.000000 0.000000 0.000000 0.000000 0.029036
#
#
# Mechanical properties :
#
#
# Convention : Reuss Voigt Hill
#
# Bulk Modulus (GPa) = 62.72598 66.31635 64.52116
# Shear Modulus (GPa) = 32.75361 34.91964 33.83662
#
# Velocity S-wave (km/s) = 3.95058 4.07912 4.01537
# Velocity P-wave (km/s) = 7.12029 7.33386 7.22786
#
# Compressibility (1/GPa) = 0.01594236
#
# Stress axis : x y z
#
# Youngs Moduli (GPa) = 67.54091 83.72773 90.45002
#
# Poissons Ratio (x) = 0.24590 0.32524
# Poissons Ratio (y) = 0.19836 0.39787
# Poissons Ratio (z) = 0.24286 0.36830
#
# Static dielectric constant tensor:
#      x y z
#    x 3.907580 0.000000 0.000000 
#    y 0.000000 4.495900 0.000000 
#    z 0.000000 0.000000 3.948890 
# 
# 
# High freq. dielectric constant tensor:
#      x y z
#    x 1.815640 0.000000 0.000000 
#    y 0.000000 1.846210 0.000000 
#    z 0.000000 0.000000 1.834940 
# 
# From -- ./inp_files/34047.got.cif
#   From: 2010.03.12/outbox.cif.g09.slc.cpg/sg73_18_cif.got.tgz:34047.got - 2010.04.16 15:25:48.
