data_PCOD8296512
_publ_section_title
;
Structure prediction by ZEFSAII (Michael W. Deem and Ramdas Pophale) SiO2 
 PCOD8296512
Probable space group: I B C A 
;
_chemical_formula_sum "Si O2"
_cell_formula_units_Z 104
_cell_length_a 19.285688
_cell_length_b 26.798235
_cell_length_c 9.119601
_cell_angle_alpha 90.000000
_cell_angle_beta 90.000000
_cell_angle_gamma 90.000000
_cell_volume 4713.214068
_symmetry_space_group_name_H-M "I B C A "
_symmetry_group_IT_number 73
_symmetry_cell_setting 'orthorhombic'
loop_
_space_group_symop_operation_xyz
x,y,z
-x,1/2-y,z
x,-y,1/2-z
1/2-x,y,-z
-x,-y,-z
x,1/2+y,-z
-x,y,1/2+z
1/2+x,-y,z
1/2+x,1/2+y,1/2+z
1/2-x,-y,1/2+z
1/2+x,1/2-y,-z
-x,1/2+y,1/2-z
1/2-x,1/2-y,1/2-z
1/2+x,y,1/2-z
1/2-x,1/2+y,z
x,1/2-y,1/2+z
loop_
_atom_site_type_symbol
_atom_site_label
_atom_site_fract_x
_atom_site_fract_y
_atom_site_fract_z
Si Si1 0.089148 0.951241 0.845983
Si Si2 0.469774 0.696422 0.898572
Si Si3 0.734808 0.093064 0.836461
Si Si4 0.973130 0.870182 0.820245
Si Si5 0.250000 0.259801 0.000000
Si Si6 0.881942 0.050751 0.819145
Si Si7 0.679112 0.807205 0.759703
O O1 0.169738 0.943035 0.815985
O O2 0.043739 0.902679 0.805740
O O3 0.065498 0.000000 0.750000
O O4 0.083114 0.954708 0.021459
O O5 0.500000 0.750000 0.951927
O O6 0.529781 0.673930 0.798037
O O7 0.402442 0.695536 0.792995
O O8 0.457951 0.657042 0.027621
O O9 0.800028 0.058371 0.801555
O O10 0.718011 0.139314 0.728214
O O11 0.750000 0.114101 0.000000
O O12 0.909453 0.905037 0.781910
O O13 0.211945 0.227631 0.880030
O O14 0.308414 0.290507 0.909769
O O15 0.906058 0.000000 0.750000
#
# Coordination Sequence:
#
# PCOD8296512 Si02
#       7
#    16  16  16  16   8  16  16
#     4  11  24  45  72 100 143 192 239 293 371 443
#     4  12  29  46  73 104 146 195 249 302 370 436
#     4  10  22  44  71 101 142 185 230 296 372 431
#     4  12  26  47  70 106 144 193 241 305 363 448
#     4  10  26  42  70 102 136 182 244 296 366 432
#     4  11  26  44  72 107 142 184 242 303 367 443
#     4  11  24  45  70 101 139 189 235 305 360 435
#
# _framework density 22.065622000000001
#
# number of rings (size 3 to 8) (size 9 to 14) (size 15 to 20)
#    0.000    0.923    3.846    1.385    8.615    2.462 
#    0.000    0.000    0.000    0.000    0.000    0.000 
#    0.000    0.000    0.000    0.000    0.000    0.000 
#
# Total GULP energy -644220.621807 kJ/mol
# GULP energy per Si atom -12388.858112 kJ/mol
# Density = 2.201540 g / cm^3
# Si number density = 22.065622 Si / 1000 Ang^3
#
#
#
# Elastic Constant Matrix: (Units=GPa)
#
#
# Indices 1 2 3 4 5 6 
#
# 1 79.4293 41.9526 37.6725 0.0000 0.0000 0.0000
# 2 41.9526 115.4696 56.5541 0.0000 0.0000 0.0000
# 3 37.6725 56.5541 127.6462 0.0000 0.0000 0.0000
# 4 0.0000 0.0000 0.0000 57.2970 0.0000 0.0000
# 5 0.0000 0.0000 0.0000 0.0000 30.7817 0.0000
# 6 0.0000 0.0000 0.0000 0.0000 0.0000 31.7668
#
#
#
# Elastic Compliance Matrix: (Units=1/GPa)
#
#
# Indices 1 2 3 4 5 6 
#
# 1 0.016326 -0.004561 -0.002797 0.000000 0.000000 0.000000
# 2 -0.004561 0.012335 -0.004119 0.000000 0.000000 0.000000
# 3 -0.002797 -0.004119 0.010485 0.000000 0.000000 0.000000
# 4 0.000000 0.000000 0.000000 0.017453 0.000000 0.000000
# 5 0.000000 0.000000 0.000000 0.000000 0.032487 0.000000
# 6 0.000000 0.000000 0.000000 0.000000 0.000000 0.031479
#
#
# Mechanical properties :
#
#
# Convention : Reuss Voigt Hill
#
# Bulk Modulus (GPa) = 61.76596 66.10039 63.93317
# Shear Modulus (GPa) = 33.57597 36.39351 34.98474
#
# Velocity S-wave (km/s) = 3.90505 4.06560 3.98614
# Velocity P-wave (km/s) = 6.95595 7.21527 7.08680
#
# Compressibility (1/GPa) = 0.01619015
#
# Stress axis : x y z
#
# Youngs Moduli (GPa) = 61.25273 81.07129 95.37840
#
# Poissons Ratio (x) = 0.36980 0.26680
# Poissons Ratio (y) = 0.27940 0.39284
# Poissons Ratio (z) = 0.17134 0.33391
#
# Static dielectric constant tensor:
#      x y z
#    x 4.085410 0.000000 0.000000 
#    y 0.000000 4.012870 0.000000 
#    z 0.000000 0.000000 4.071780 
# 
# 
# High freq. dielectric constant tensor:
#      x y z
#    x 1.872070 0.000000 0.000000 
#    y 0.000000 1.881500 0.000000 
#    z 0.000000 0.000000 1.870670 
# 
# From -- ./inp_files/6556.got.cif
#   From: 2010.03.12/outbox.cif.g09.slc.cpg/sg73_4_cif.got.tgz:6556.got - 2010.04.16 15:25:48.
