data_PCOD8296937
_publ_section_title
;
Structure prediction by ZEFSAII (Michael W. Deem and Ramdas Pophale) SiO2 
 PCOD8296937
Probable space group: I B C A 
;
_chemical_formula_sum "Si O2"
_cell_formula_units_Z 96
_cell_length_a 11.812893
_cell_length_b 21.727441
_cell_length_c 17.466769
_cell_angle_alpha 90.000000
_cell_angle_beta 90.000000
_cell_angle_gamma 90.000000
_cell_volume 4483.089675
_symmetry_space_group_name_H-M "I B C A "
_symmetry_group_IT_number 73
_symmetry_cell_setting 'orthorhombic'
loop_
_space_group_symop_operation_xyz
x,y,z
-x,1/2-y,z
x,-y,1/2-z
1/2-x,y,-z
-x,-y,-z
x,1/2+y,-z
-x,y,1/2+z
1/2+x,-y,z
1/2+x,1/2+y,1/2+z
1/2-x,-y,1/2+z
1/2+x,1/2-y,-z
-x,1/2+y,1/2-z
1/2-x,1/2-y,1/2-z
1/2+x,y,1/2-z
1/2-x,1/2+y,z
x,1/2-y,1/2+z
loop_
_atom_site_type_symbol
_atom_site_label
_atom_site_fract_x
_atom_site_fract_y
_atom_site_fract_z
Si Si1 0.673398 0.986040 0.074608
Si Si2 0.225226 0.840741 0.201498
Si Si3 0.529944 0.106680 0.105194
Si Si4 0.121192 0.764982 0.335475
Si Si5 0.337565 0.444565 0.706420
Si Si6 0.378879 0.856621 0.528576
O O1 0.749131 0.977341 0.149659
O O2 0.601961 0.923108 0.067609
O O3 0.585109 0.042054 0.080434
O O4 0.750000 0.998043 0.000000
O O5 0.120811 0.849838 0.144894
O O6 0.191614 0.808072 0.279913
O O7 0.313190 0.799407 0.153166
O O8 0.276970 0.905292 0.227265
O O9 0.427999 0.096631 0.163800
O O10 0.474623 0.146259 0.036839
O O11 0.100571 0.799641 0.415421
O O12 0.000000 0.750000 0.298303
O O13 0.401499 0.500000 0.750000
O O14 0.250000 0.852987 0.500000
#
# Coordination Sequence:
#
# PCOD8296937 Si02
#       6
#    16  16  16  16  16  16
#     4  11  23  43  65 102 141 179 225 286 356 435
#     4  11  25  45  66 102 135 175 240 290 347 427
#     4  12  25  42  71 101 141 184 228 291 359 431
#     4  11  25  44  69  93 132 178 231 295 344 407
#     4  12  24  42  71 104 140 183 228 289 367 441
#     4  11  23  44  67  93 136 184 226 280 356 423
#
# _framework density 21.413803000000001
#
# number of rings (size 3 to 8) (size 9 to 14) (size 15 to 20)
#    0.000    0.667    6.667    1.500    2.333    5.333 
#    0.000    0.000    0.000    0.000    0.000    0.000 
#    0.000    0.000    0.000    0.000    0.000    0.000 
#
# Total GULP energy -595215.400244 kJ/mol
# GULP energy per Si atom -12400.320838 kJ/mol
# Density = 2.136506 g / cm^3
# Si number density = 21.413803 Si / 1000 Ang^3
#
#
#
# Elastic Constant Matrix: (Units=GPa)
#
#
# Indices 1 2 3 4 5 6 
#
# 1 116.7989 46.2448 44.6941 0.0001 0.0000 0.0000
# 2 46.2448 94.4372 59.4665 -0.0007 0.0000 -0.0001
# 3 44.6941 59.4665 107.7902 -0.0004 0.0000 -0.0002
# 4 0.0001 -0.0007 -0.0004 495.6304 0.0002 0.0018
# 5 0.0000 0.0000 0.0000 0.0002 39.0155 0.0000
# 6 0.0000 -0.0001 -0.0002 0.0018 0.0000 35.4907
#
#
#
# Elastic Compliance Matrix: (Units=1/GPa)
#
#
# Indices 1 2 3 4 5 6 
#
# 1 0.011025 -0.003862 -0.002441 0.000000 0.000000 0.000000
# 2 -0.003862 0.017578 -0.008097 0.000000 0.000000 0.000000
# 3 -0.002441 -0.008097 0.014756 0.000000 0.000000 0.000000
# 4 0.000000 0.000000 0.000000 0.002018 0.000000 0.000000
# 5 0.000000 0.000000 0.000000 0.000000 0.025631 0.000000
# 6 0.000000 0.000000 0.000000 0.000000 0.000000 0.028176
#
#
# Mechanical properties :
#
#
# Convention : Reuss Voigt Hill
#
# Bulk Modulus (GPa) = 68.67638 68.87078 68.77358
# Shear Modulus (GPa) = 37.64039 125.26873 81.45456
#
# Velocity S-wave (km/s) = 4.19712 7.65677 6.17421
# Velocity P-wave (km/s) = 7.45845 10.50713 9.11121
#
# Compressibility (1/GPa) = 0.01456105
#
# Stress axis : x y z
#
# Youngs Moduli (GPa) = 90.70535 56.88789 67.76838
#
# Poissons Ratio (x) = 0.21968 0.16541
# Poissons Ratio (y) = 0.35028 0.54869
# Poissons Ratio (z) = 0.22140 0.46060
#
# Static dielectric constant tensor:
#      x y z
#    x 3.924040 0.000000 0.000000 
#    y 0.000000 4.001720 0.000000 
#    z 0.000000 0.000000 3.894670 
# 
# 
# High freq. dielectric constant tensor:
#      x y z
#    x 1.843540 0.000000 0.000000 
#    y 0.000000 1.849190 0.000000 
#    z 0.000000 0.000000 1.842290 
# 
# From -- ./inp_files/21358.got.cif
#   From: 2010.03.12/outbox.cif.g09.slc.cpg/sg73_11_cif.got.tgz:21358.got - 2010.04.16 15:25:48.
