data_PCOD8296459
_publ_section_title
;
Structure prediction by ZEFSAII (Michael W. Deem and Ramdas Pophale) SiO2 
 PCOD8296459
Probable space group: I B C A 
;
_chemical_formula_sum "Si O2"
_cell_formula_units_Z 96
_cell_length_a 17.620146
_cell_length_b 9.819951
_cell_length_c 24.622950
_cell_angle_alpha 90.000000
_cell_angle_beta 90.000000
_cell_angle_gamma 90.000000
_cell_volume 4260.483685
_symmetry_space_group_name_H-M "I B C A "
_symmetry_group_IT_number 73
_symmetry_cell_setting 'orthorhombic'
loop_
_space_group_symop_operation_xyz
x,y,z
-x,1/2-y,z
x,-y,1/2-z
1/2-x,y,-z
-x,-y,-z
x,1/2+y,-z
-x,y,1/2+z
1/2+x,-y,z
1/2+x,1/2+y,1/2+z
1/2-x,-y,1/2+z
1/2+x,1/2-y,-z
-x,1/2+y,1/2-z
1/2-x,1/2-y,1/2-z
1/2+x,y,1/2-z
1/2-x,1/2+y,z
x,1/2-y,1/2+z
loop_
_atom_site_type_symbol
_atom_site_label
_atom_site_fract_x
_atom_site_fract_y
_atom_site_fract_z
Si Si1 0.831687 0.338839 0.975567
Si Si2 0.403256 0.009645 0.811739
Si Si3 0.142068 0.770215 0.648767
Si Si4 0.431202 0.449297 0.838799
Si Si5 0.308705 0.752080 0.155389
Si Si6 0.870984 0.630509 0.945660
O O1 0.840727 0.294027 0.913926
O O2 0.845416 0.500073 0.980913
O O3 0.750000 0.300914 0.000000
O O4 0.892076 0.251043 0.011870
O O5 0.407850 0.863496 0.840936
O O6 0.486978 0.076371 0.812691
O O7 0.375239 0.000000 0.750000
O O8 0.342931 0.099955 0.844810
O O9 0.096068 0.897280 0.672591
O O10 0.223522 0.751146 0.679387
O O11 0.367865 0.349134 0.811024
O O12 0.438504 0.413786 0.903877
O O13 0.303835 0.812267 0.093904
#
# Coordination Sequence:
#
# PCOD8296459 Si02
#       6
#    16  16  16  16  16  16
#     4  11  19  34  64 103 135 180 217 253 340 401
#     4  12  27  45  72  94 128 187 233 281 349 405
#     4  11  23  41  70 102 140 168 228 287 323 404
#     4   9  22  44  63  96 138 178 220 274 338 399
#     4  10  22  42  67  99 133 171 221 287 335 383
#     4   9  22  34  64  99 134 175 212 269 312 401
#
# _framework density 22.532651999999999
#
# number of rings (size 3 to 8) (size 9 to 14) (size 15 to 20)
#    1.000    0.667    1.667    2.500    2.333    3.333 
#    0.000    2.500    7.333    0.000    0.000    0.000 
#    0.000    0.000    0.000    0.000    0.000    0.000 
#
# Total GULP energy -594773.706980 kJ/mol
# GULP energy per Si atom -12391.118895 kJ/mol
# Density = 2.248137 g / cm^3
# Si number density = 22.532652 Si / 1000 Ang^3
#
#
#
# Elastic Constant Matrix: (Units=GPa)
#
#
# Indices 1 2 3 4 5 6 
#
# 1 80.5112 9.4453 4.8500 0.0000 0.0000 0.0000
# 2 9.4453 136.4781 32.8970 0.0000 0.0000 0.0000
# 3 4.8500 32.8970 43.9297 0.0000 0.0000 0.0000
# 4 0.0000 0.0000 0.0000 8.6358 0.0000 0.0000
# 5 0.0000 0.0000 0.0000 0.0000 16.4407 0.0000
# 6 0.0000 0.0000 0.0000 0.0000 0.0000 30.9646
#
#
#
# Elastic Compliance Matrix: (Units=1/GPa)
#
#
# Indices 1 2 3 4 5 6 
#
# 1 0.012551 -0.000652 -0.000897 0.000000 0.000000 0.000000
# 2 -0.000652 0.008975 -0.006649 0.000000 0.000000 0.000000
# 3 -0.000897 -0.006649 0.027842 0.000000 0.000000 0.000000
# 4 0.000000 0.000000 0.000000 0.115797 0.000000 0.000000
# 5 0.000000 0.000000 0.000000 0.000000 0.060825 0.000000
# 6 0.000000 0.000000 0.000000 0.000000 0.000000 0.032295
#
#
# Mechanical properties :
#
#
# Convention : Reuss Voigt Hill
#
# Bulk Modulus (GPa) = 30.32965 39.47818 34.90391
# Shear Modulus (GPa) = 17.50261 25.45667 21.47964
#
# Velocity S-wave (km/s) = 2.79008 3.36485 3.09085
# Velocity P-wave (km/s) = 4.88558 5.71443 5.31618
#
# Compressibility (1/GPa) = 0.03297104
#
# Stress axis : x y z
#
# Youngs Moduli (GPa) = 79.67362 111.42048 35.91719
#
# Poissons Ratio (x) = 0.07269 0.03222
# Poissons Ratio (y) = 0.05198 0.23881
# Poissons Ratio (z) = 0.07148 0.74083
#
# Static dielectric constant tensor:
#      x y z
#    x 3.729430 0.000000 0.000000 
#    y 0.000000 4.275850 0.000000 
#    z 0.000000 0.000000 3.737960 
# 
# 
# High freq. dielectric constant tensor:
#      x y z
#    x 1.861450 0.000000 0.000000 
#    y 0.000000 1.906190 0.000000 
#    z 0.000000 0.000000 1.865460 
# 
# From -- ./inp_files/32355.got.cif
#   From: 2010.03.12/outbox.cif.g09.slc.cpg/sg73_17_cif.got.tgz:32355.got - 2010.04.16 15:25:48.
