data_PCOD8296591
_publ_section_title
;
Structure prediction by ZEFSAII (Michael W. Deem and Ramdas Pophale) SiO2 
 PCOD8296591
Probable space group: I B C A 
;
_chemical_formula_sum "Si O2"
_cell_formula_units_Z 80
_cell_length_a 13.489069
_cell_length_b 27.711679
_cell_length_c 9.049319
_cell_angle_alpha 90.000000
_cell_angle_beta 90.000000
_cell_angle_gamma 90.000000
_cell_volume 3382.678428
_symmetry_space_group_name_H-M "I B C A "
_symmetry_group_IT_number 73
_symmetry_cell_setting 'orthorhombic'
loop_
_space_group_symop_operation_xyz
x,y,z
-x,1/2-y,z
x,-y,1/2-z
1/2-x,y,-z
-x,-y,-z
x,1/2+y,-z
-x,y,1/2+z
1/2+x,-y,z
1/2+x,1/2+y,1/2+z
1/2-x,-y,1/2+z
1/2+x,1/2-y,-z
-x,1/2+y,1/2-z
1/2-x,1/2-y,1/2-z
1/2+x,y,1/2-z
1/2-x,1/2+y,z
x,1/2-y,1/2+z
loop_
_atom_site_type_symbol
_atom_site_label
_atom_site_fract_x
_atom_site_fract_y
_atom_site_fract_z
Si Si1 0.876591 0.455420 0.843350
Si Si2 0.808846 0.636623 0.145430
Si Si3 0.390982 0.149332 0.222811
Si Si4 0.143120 0.047028 0.171653
Si Si5 0.479064 0.306051 0.002594
O O1 0.921948 0.500000 0.750000
O O2 0.910756 0.407718 0.755567
O O3 0.759257 0.459789 0.850236
O O4 0.912898 0.450417 0.013443
O O5 0.726477 0.659332 0.255733
O O6 0.872344 0.594127 0.224047
O O7 0.883793 0.679122 0.100952
O O8 0.750000 0.616549 0.000000
O O9 0.422296 0.166386 0.059267
O O10 0.460289 0.178960 0.334593
O O11 0.097288 0.000000 0.250000
O O12 0.500000 0.250000 0.014299
#
# Coordination Sequence:
#
# PCOD8296591 Si02
#       5
#    16  16  16  16  16
#     4   9  19  35  58  94 134 175 216 269 325 398
#     4   9  21  40  66  95 136 173 217 278 337 392
#     4  10  23  43  65  94 133 171 220 277 335 400
#     4   9  18  30  62  96 128 175 222 260 321 400
#     4  11  24  43  67  91 125 173 223 284 342 393
#
# _framework density 23.649896999999999
#
# number of rings (size 3 to 8) (size 9 to 14) (size 15 to 20)
#    0.000    2.400    0.000    0.600   14.000    0.800 
#    0.000    4.000    0.000    0.000    0.000    0.000 
#    0.000    0.000    0.000    0.000    0.000    0.000 
#
# Total GULP energy -495856.294117 kJ/mol
# GULP energy per Si atom -12396.407353 kJ/mol
# Density = 2.359607 g / cm^3
# Si number density = 23.649897 Si / 1000 Ang^3
#
#
#
# Elastic Constant Matrix: (Units=GPa)
#
#
# Indices 1 2 3 4 5 6 
#
# 1 60.5620 27.5353 35.8989 0.0022 0.0008 -0.0005
# 2 27.5353 188.8834 65.3413 -0.0034 0.0015 0.0039
# 3 35.8989 65.3413 106.6188 -0.0264 0.0033 0.0128
# 4 0.0022 -0.0034 -0.0264 40.0678 0.0018 0.0062
# 5 0.0008 0.0015 0.0033 0.0018 30.7285 0.0042
# 6 -0.0005 0.0039 0.0128 0.0062 0.0042 66.9642
#
#
#
# Elastic Compliance Matrix: (Units=1/GPa)
#
#
# Indices 1 2 3 4 5 6 
#
# 1 0.020717 -0.000770 -0.006503 -0.000005 0.000000 0.000001
# 2 -0.000770 0.006747 -0.003876 -0.000002 0.000000 0.000000
# 3 -0.006503 -0.003876 0.013944 0.000009 -0.000001 -0.000002
# 4 -0.000005 -0.000002 0.000009 0.024958 -0.000001 -0.000002
# 5 0.000000 0.000000 -0.000001 -0.000001 0.032543 -0.000002
# 6 0.000001 0.000000 -0.000002 -0.000002 -0.000002 0.014933
#
#
# Mechanical properties :
#
#
# Convention : Reuss Voigt Hill
#
# Bulk Modulus (GPa) = 52.32945 68.17944 60.25445
# Shear Modulus (GPa) = 35.08482 42.70468 38.89475
#
# Velocity S-wave (km/s) = 3.85581 4.25397 4.05977
# Velocity P-wave (km/s) = 6.48057 7.28145 6.89265
#
# Compressibility (1/GPa) = 0.01910970
#
# Stress axis : x y z
#
# Youngs Moduli (GPa) = 48.26893 148.20703 71.71461
#
# Poissons Ratio (x) = 0.11418 0.46639
# Poissons Ratio (y) = 0.03719 0.27794
# Poissons Ratio (z) = 0.31391 0.57441
#
# Static dielectric constant tensor:
#      x y z
#    x 4.160480 0.000000 0.000000 
#    y 0.000000 4.034190 -0.000010 
#    z 0.000000 -0.000010 4.540850 
# 
# 
# High freq. dielectric constant tensor:
#      x y z
#    x 1.933750 0.000000 0.000000 
#    y 0.000000 1.919060 0.000000 
#    z 0.000000 0.000000 1.943490 
# 
# From -- ./inp_files/5598.got.cif
#   From: 2010.03.12/outbox.cif.g09.slc.cpg/sg73_3_cif.got.tgz:5598.got - 2010.04.16 15:25:48.
