data_PCOD8296420
_publ_section_title
;
Structure prediction by ZEFSAII (Michael W. Deem and Ramdas Pophale) SiO2 
 PCOD8296420
Probable space group: I B C A 
;
_chemical_formula_sum "Si O2"
_cell_formula_units_Z 80
_cell_length_a 21.245260
_cell_length_b 13.568621
_cell_length_c 11.751282
_cell_angle_alpha 90.000000
_cell_angle_beta 90.000000
_cell_angle_gamma 90.000000
_cell_volume 3387.528912
_symmetry_space_group_name_H-M "I B C A "
_symmetry_group_IT_number 73
_symmetry_cell_setting 'orthorhombic'
loop_
_space_group_symop_operation_xyz
x,y,z
-x,1/2-y,z
x,-y,1/2-z
1/2-x,y,-z
-x,-y,-z
x,1/2+y,-z
-x,y,1/2+z
1/2+x,-y,z
1/2+x,1/2+y,1/2+z
1/2-x,-y,1/2+z
1/2+x,1/2-y,-z
-x,1/2+y,1/2-z
1/2-x,1/2-y,1/2-z
1/2+x,y,1/2-z
1/2-x,1/2+y,z
x,1/2-y,1/2+z
loop_
_atom_site_type_symbol
_atom_site_label
_atom_site_fract_x
_atom_site_fract_y
_atom_site_fract_z
Si Si1 0.619320 0.931186 0.417093
Si Si2 0.684510 0.745791 0.814823
Si Si3 0.509031 0.639174 0.328323
Si Si4 0.913634 0.187290 0.129702
Si Si5 0.616541 0.366959 0.011273
O O1 0.671767 0.868046 0.349764
O O2 0.553699 0.923713 0.348689
O O3 0.613455 0.894877 0.546488
O O4 0.640549 0.045395 0.427952
O O5 0.750000 0.750000 0.750000
O O6 0.633027 0.788351 0.731527
O O7 0.677292 0.814091 0.928610
O O8 0.500000 0.750000 0.375935
O O9 0.523574 0.645165 0.192290
O O10 0.566869 0.589469 0.396936
O O11 0.923600 0.288143 0.061081
#
# Coordination Sequence:
#
# PCOD8296420 Si02
#       5
#    16  16  16  16  16
#     4  11  23  41  64 100 131 176 233 277 341 414
#     4  10  23  44  66  92 127 179 229 288 355 398
#     4  11  20  38  60  97 132 182 209 270 345 420
#     4  10  22  41  64  86 139 170 220 277 350 405
#     4  10  23  41  64  97 133 173 231 277 338 417
#
# _framework density 23.616035
#
# number of rings (size 3 to 8) (size 9 to 14) (size 15 to 20)
#    0.000    1.600    6.000    0.600    2.800    7.200 
#    3.600    6.000    0.000    0.000    0.000    0.000 
#    0.000    0.000    0.000    0.000    0.000    0.000 
#
# Total GULP energy -495702.916338 kJ/mol
# GULP energy per Si atom -12392.572908 kJ/mol
# Density = 2.356228 g / cm^3
# Si number density = 23.616035 Si / 1000 Ang^3
#
#
#
# Elastic Constant Matrix: (Units=GPa)
#
#
# Indices 1 2 3 4 5 6 
#
# 1 91.2709 36.6833 44.1492 0.0000 0.0000 0.0000
# 2 36.6833 86.3515 37.5316 0.0000 0.0000 0.0000
# 3 44.1492 37.5316 124.7167 0.0000 0.0000 0.0000
# 4 0.0000 0.0000 0.0000 28.7919 0.0000 0.0000
# 5 0.0000 0.0000 0.0000 0.0000 -15.6439 0.0000
# 6 0.0000 0.0000 0.0000 0.0000 0.0000 20.9103
#
#
#
# Elastic Compliance Matrix: (Units=1/GPa)
#
#
# Indices 1 2 3 4 5 6 
#
# 1 0.014631 -0.004561 -0.003807 0.000000 0.000000 0.000000
# 2 -0.004561 0.014745 -0.002823 0.000000 0.000000 0.000000
# 3 -0.003807 -0.002823 0.010215 0.000000 0.000000 0.000000
# 4 0.000000 0.000000 0.000000 0.034732 0.000000 0.000000
# 5 0.000000 0.000000 0.000000 0.000000 -0.063923 0.000000
# 6 0.000000 0.000000 0.000000 0.000000 0.000000 0.047823
#
#
# Mechanical properties :
#
#
# Convention : Reuss Voigt Hill
#
# Bulk Modulus (GPa) = 58.10458 59.89637 59.00048
# Shear Modulus (GPa) = 57.90985 19.07666 38.49326
#
# Velocity S-wave (km/s) = 4.95728 2.84524 4.04166
# Velocity P-wave (km/s) = 7.57783 6.01760 6.84233
#
# Compressibility (1/GPa) = 0.01721035
#
# Stress axis : x y z
#
# Youngs Moduli (GPa) = 68.34871 67.81986 97.89328
#
# Poissons Ratio (x) = 0.30932 0.37266
# Poissons Ratio (y) = 0.31173 0.27633
# Poissons Ratio (z) = 0.26019 0.19144
#
# Static dielectric constant tensor:
#      x y z
#    x 3.184400 0.000000 0.000000 
#    y 0.000000 4.156640 0.000000 
#    z 0.000000 0.000000 4.779910 
# 
# 
# High freq. dielectric constant tensor:
#      x y z
#    x 1.891850 0.000000 0.000000 
#    y 0.000000 1.927460 0.000000 
#    z 0.000000 0.000000 1.959710 
# 
# From -- ./inp_files/13411.got.cif
#   From: 2010.03.12/outbox.cif.g09.slc.cpg/sg73_7_cif.got.tgz:13411.got - 2010.04.16 15:25:48.
