data_PCOD8296579
_publ_section_title
;
Structure prediction by ZEFSAII (Michael W. Deem and Ramdas Pophale) SiO2 
 PCOD8296579
Probable space group: I B C A 
;
_chemical_formula_sum "Si O2"
_cell_formula_units_Z 96
_cell_length_a 14.923814
_cell_length_b 20.419027
_cell_length_c 15.243597
_cell_angle_alpha 90.000000
_cell_angle_beta 90.000000
_cell_angle_gamma 90.000000
_cell_volume 4645.177671
_symmetry_space_group_name_H-M "I B C A "
_symmetry_group_IT_number 73
_symmetry_cell_setting 'orthorhombic'
loop_
_space_group_symop_operation_xyz
x,y,z
-x,1/2-y,z
x,-y,1/2-z
1/2-x,y,-z
-x,-y,-z
x,1/2+y,-z
-x,y,1/2+z
1/2+x,-y,z
1/2+x,1/2+y,1/2+z
1/2-x,-y,1/2+z
1/2+x,1/2-y,-z
-x,1/2+y,1/2-z
1/2-x,1/2-y,1/2-z
1/2+x,y,1/2-z
1/2-x,1/2+y,z
x,1/2-y,1/2+z
loop_
_atom_site_type_symbol
_atom_site_label
_atom_site_fract_x
_atom_site_fract_y
_atom_site_fract_z
Si Si1 0.846362 0.403077 0.969670
Si Si2 0.250000 0.764823 0.000000
Si Si3 0.250000 0.527016 0.500000
Si Si4 0.897146 0.192472 0.761625
Si Si5 0.598569 0.839213 0.791970
Si Si6 0.918595 0.296114 0.059541
Si Si7 0.737023 0.132106 0.851282
O O1 0.839097 0.481431 0.987832
O O2 0.866353 0.386374 0.868524
O O3 0.750000 0.372565 0.000000
O O4 0.927529 0.372697 0.030457
O O5 0.159315 0.723737 0.009132
O O6 0.233110 0.806222 0.913612
O O7 0.254988 0.568284 0.410415
O O8 0.878371 0.262383 0.808809
O O9 0.893574 0.210747 0.659858
O O10 0.819941 0.140708 0.784373
O O11 0.990955 0.157698 0.784070
O O12 0.644293 0.868450 0.703404
O O13 0.000000 0.250000 0.033566
#
# Coordination Sequence:
#
# PCOD8296579 Si02
#       7
#    16   8   8  16  16  16  16
#     4  10  23  42  67  93 128 180 225 274 329 400
#     4  11  21  36  60 100 129 175 214 272 344 397
#     4   9  25  48  66  92 127 187 240 268 330 391
#     4  11  23  39  64 109 134 168 216 281 359 414
#     4  11  22  42  66 102 141 166 219 291 351 405
#     4  12  22  39  64  98 142 167 213 278 349 411
#     4  11  22  40  71  90 135 180 224 278 332 410
#
# _framework density 20.666594
#
# number of rings (size 3 to 8) (size 9 to 14) (size 15 to 20)
#    0.500    0.667    4.167    2.500    4.667    0.667 
#    0.000    0.833    3.667    0.000    0.000    0.000 
#    0.000    0.000    0.000    0.000    0.000    0.000 
#
# Total GULP energy -594672.361519 kJ/mol
# GULP energy per Si atom -12389.007532 kJ/mol
# Density = 2.061956 g / cm^3
# Si number density = 20.666594 Si / 1000 Ang^3
#
#
#
# Elastic Constant Matrix: (Units=GPa)
#
#
# Indices 1 2 3 4 5 6 
#
# 1 97.9890 46.4925 34.1220 0.0001 0.0000 0.0000
# 2 46.4925 104.4526 27.5191 -0.0006 -0.0001 -0.0002
# 3 34.1220 27.5191 80.8440 -0.0012 -0.0001 -0.0004
# 4 0.0001 -0.0006 -0.0012 33.7124 -0.0001 -0.0002
# 5 0.0000 -0.0001 -0.0001 -0.0001 30.2505 0.0000
# 6 0.0000 -0.0002 -0.0004 -0.0002 0.0000 33.5480
#
#
#
# Elastic Compliance Matrix: (Units=1/GPa)
#
#
# Indices 1 2 3 4 5 6 
#
# 1 0.014125 -0.005181 -0.004198 0.000000 0.000000 0.000000
# 2 -0.005181 0.012417 -0.002040 0.000000 0.000000 0.000000
# 3 -0.004198 -0.002040 0.014836 0.000001 0.000000 0.000000
# 4 0.000000 0.000000 0.000001 0.029663 0.000000 0.000000
# 5 0.000000 0.000000 0.000000 0.000000 0.033057 0.000000
# 6 0.000000 0.000000 0.000000 0.000000 0.000000 0.029808
#
#
# Mechanical properties :
#
#
# Convention : Reuss Voigt Hill
#
# Bulk Modulus (GPa) = 53.93829 55.50586 54.72208
# Shear Modulus (GPa) = 30.68881 31.17896 30.93389
#
# Velocity S-wave (km/s) = 3.85768 3.88837 3.87306
# Velocity P-wave (km/s) = 6.78220 6.86114 6.82178
#
# Compressibility (1/GPa) = 0.01853971
#
# Stress axis : x y z
#
# Youngs Moduli (GPa) = 70.79399 80.53224 67.40411
#
# Poissons Ratio (x) = 0.41726 0.28298
# Poissons Ratio (y) = 0.36680 0.13750
# Poissons Ratio (z) = 0.29721 0.16428
#
# Static dielectric constant tensor:
#      x y z
#    x 3.797130 0.000000 0.000000 
#    y 0.000000 3.627580 0.000000 
#    z 0.000000 0.000000 3.762940 
# 
# 
# High freq. dielectric constant tensor:
#      x y z
#    x 1.798680 0.000000 0.000000 
#    y 0.000000 1.789040 0.000000 
#    z 0.000000 0.000000 1.822290 
# 
# From -- ./inp_files/17210.got.cif
#   From: 2010.03.12/outbox.cif.g09.slc.cpg/sg73_9_cif.got.tgz:17210.got - 2010.04.16 15:25:48.
