data_PCOD8296888
_publ_section_title
;
Structure prediction by ZEFSAII (Michael W. Deem and Ramdas Pophale) SiO2 
 PCOD8296888
Probable space group: I B C A 
;
_chemical_formula_sum "Si O2"
_cell_formula_units_Z 96
_cell_length_a 25.388297
_cell_length_b 15.106711
_cell_length_c 12.316718
_cell_angle_alpha 90.000000
_cell_angle_beta 90.000000
_cell_angle_gamma 90.000000
_cell_volume 4723.876002
_symmetry_space_group_name_H-M "I B C A "
_symmetry_group_IT_number 73
_symmetry_cell_setting 'orthorhombic'
loop_
_space_group_symop_operation_xyz
x,y,z
-x,1/2-y,z
x,-y,1/2-z
1/2-x,y,-z
-x,-y,-z
x,1/2+y,-z
-x,y,1/2+z
1/2+x,-y,z
1/2+x,1/2+y,1/2+z
1/2-x,-y,1/2+z
1/2+x,1/2-y,-z
-x,1/2+y,1/2-z
1/2-x,1/2-y,1/2-z
1/2+x,y,1/2-z
1/2-x,1/2+y,z
x,1/2-y,1/2+z
loop_
_atom_site_type_symbol
_atom_site_label
_atom_site_fract_x
_atom_site_fract_y
_atom_site_fract_z
Si Si1 0.459597 0.828095 0.752011
Si Si2 0.615281 0.499598 0.075104
Si Si3 0.297209 0.000000 0.250000
Si Si4 0.527529 0.000000 0.750000
Si Si5 0.303665 0.401856 0.241812
Si Si6 0.625344 0.332082 0.563362
Si Si7 0.873500 0.837385 0.922914
O O1 0.500000 0.750000 0.769007
O O2 0.425581 0.835009 0.860671
O O3 0.423081 0.807659 0.649009
O O4 0.490512 0.917367 0.728612
O O5 0.667979 0.484736 0.144246
O O6 0.563488 0.481804 0.145531
O O7 0.615321 0.600050 0.034100
O O8 0.614940 0.432225 0.975652
O O9 0.259913 0.912562 0.238548
O O10 0.330184 0.500000 0.250000
O O11 0.322356 0.356490 0.130719
O O12 0.321923 0.345020 0.346197
O O13 0.635668 0.235020 0.515493
#
# Coordination Sequence:
#
# PCOD8296888 Si02
#       7
#    16  16   8   8  16  16  16
#     4  11  24  41  58  89 128 164 209 257 313 363
#     4  11  22  41  60  92 126 165 212 259 314 362
#     4   9  22  41  68  86 128 165 198 263 318 366
#     4  11  24  35  60  88 122 169 214 255 298 380
#     4   9  20  43  66  89 122 167 201 254 317 368
#     4  11  23  39  66  92 124 164 211 259 311 373
#     4  11  23  39  66  92 124 164 211 259 311 373
#
# _framework density 20.322292999999998
#
# number of rings (size 3 to 8) (size 9 to 14) (size 15 to 20)
#    0.500    1.000    1.667    3.000    2.333   12.667 
#    0.000    5.000    0.000    0.000    0.000    0.000 
#    0.000    0.000    0.000    0.000    0.000    0.000 
#
# Total GULP energy -595344.099407 kJ/mol
# GULP energy per Si atom -12403.002071 kJ/mol
# Density = 2.027604 g / cm^3
# Si number density = 20.322293 Si / 1000 Ang^3
#
#
#
# Elastic Constant Matrix: (Units=GPa)
#
#
# Indices 1 2 3 4 5 6 
#
# 1 116.5910 28.6535 39.2855 0.0000 0.0000 0.0000
# 2 28.6535 86.1054 14.7645 0.0000 0.0000 0.0000
# 3 39.2855 14.7645 93.6076 0.0000 0.0000 0.0000
# 4 0.0000 0.0000 0.0000 40.0781 0.0000 0.0000
# 5 0.0000 0.0000 0.0000 0.0000 11.7082 0.0000
# 6 0.0000 0.0000 0.0000 0.0000 0.0000 29.0288
#
#
#
# Elastic Compliance Matrix: (Units=1/GPa)
#
#
# Indices 1 2 3 4 5 6 
#
# 1 0.010629 -0.002849 -0.004011 0.000000 0.000000 0.000000
# 2 -0.002849 0.012700 -0.000807 0.000000 0.000000 0.000000
# 3 -0.004011 -0.000807 0.012494 0.000000 0.000000 0.000000
# 4 0.000000 0.000000 0.000000 0.024951 0.000000 0.000000
# 5 0.000000 0.000000 0.000000 0.000000 0.085410 0.000000
# 6 0.000000 0.000000 0.000000 0.000000 0.000000 0.034449
#
#
# Mechanical properties :
#
#
# Convention : Reuss Voigt Hill
#
# Bulk Modulus (GPa) = 48.81160 51.30123 50.05641
# Shear Modulus (GPa) = 24.65514 30.40304 27.52909
#
# Velocity S-wave (km/s) = 3.48689 3.87207 3.68452
# Velocity P-wave (km/s) = 6.34682 6.72972 6.54107
#
# Compressibility (1/GPa) = 0.02048694
#
# Stress axis : x y z
#
# Youngs Moduli (GPa) = 94.08376 78.73860 80.04007
#
# Poissons Ratio (x) = 0.22434 0.32107
# Poissons Ratio (y) = 0.26806 0.06463
# Poissons Ratio (z) = 0.37740 0.06358
#
# Static dielectric constant tensor:
#      x y z
#    x 3.646710 0.000000 0.000000 
#    y 0.000000 3.583820 0.000000 
#    z 0.000000 0.000000 3.696980 
# 
# 
# High freq. dielectric constant tensor:
#      x y z
#    x 1.794650 0.000000 0.000000 
#    y 0.000000 1.794060 0.000000 
#    z 0.000000 0.000000 1.805350 
# 
# From -- ./inp_files/14779.got.cif
#   From: 2010.03.12/outbox.cif.g09.slc.cpg/sg73_8_cif.got.tgz:14779.got - 2010.04.16 15:25:48.
