data_PCOD8296210
_publ_section_title
;
Structure prediction by ZEFSAII (Michael W. Deem and Ramdas Pophale) SiO2 
 PCOD8296210
Probable space group: I B C A 
;
_chemical_formula_sum "Si O2"
_cell_formula_units_Z 112
_cell_length_a 10.375136
_cell_length_b 34.046450
_cell_length_c 14.431018
_cell_angle_alpha 90.000000
_cell_angle_beta 90.000000
_cell_angle_gamma 90.000000
_cell_volume 5097.562998
_symmetry_space_group_name_H-M "I B C A "
_symmetry_group_IT_number 73
_symmetry_cell_setting 'orthorhombic'
loop_
_space_group_symop_operation_xyz
x,y,z
-x,1/2-y,z
x,-y,1/2-z
1/2-x,y,-z
-x,-y,-z
x,1/2+y,-z
-x,y,1/2+z
1/2+x,-y,z
1/2+x,1/2+y,1/2+z
1/2-x,-y,1/2+z
1/2+x,1/2-y,-z
-x,1/2+y,1/2-z
1/2-x,1/2-y,1/2-z
1/2+x,y,1/2-z
1/2-x,1/2+y,z
x,1/2-y,1/2+z
loop_
_atom_site_type_symbol
_atom_site_label
_atom_site_fract_x
_atom_site_fract_y
_atom_site_fract_z
Si Si1 0.914102 0.841865 0.339014
Si Si2 0.409121 0.964238 0.472155
Si Si3 0.284639 0.482433 0.846413
Si Si4 0.089075 0.919598 0.151963
Si Si5 0.123371 0.165885 0.318503
Si Si6 0.396480 0.216407 0.507880
Si Si7 0.487134 0.426609 0.351963
O O1 0.775480 0.833128 0.290022
O O2 0.923204 0.817512 0.433285
O O3 0.924204 0.887940 0.365656
O O4 0.031311 0.829906 0.270825
O O5 0.457977 0.937572 0.386695
O O6 0.395470 0.934398 0.558923
O O7 0.500000 0.000000 0.500000
O O8 0.279562 0.983124 0.425444
O O9 0.230734 0.500000 0.750000
O O10 0.200959 0.447146 0.888379
O O11 0.428035 0.465622 0.833492
O O12 0.101532 0.874320 0.123307
O O13 0.102043 0.920528 0.263253
O O14 0.084980 0.200509 0.388169
O O15 0.500000 0.250000 0.489002
O O16 0.250000 0.232659 0.500000
#
# Coordination Sequence:
#
# PCOD8296210 Si02
#       7
#    16  16  16  16  16  16  16
#     4  10  21  42  67 101 130 177 222 273 327 413
#     4  10  23  36  52  82 111 152 213 270 322 385
#     4  11  22  36  56  79 117 160 211 268 339 369
#     4  11  22  40  60  80 123 168 208 279 323 397
#     4  10  22  41  71  96 134 175 228 264 337 402
#     4  10  23  43  70 104 139 174 214 270 333 406
#     4  10  21  40  59  84 117 160 218 262 328 380
#
# _framework density 21.971281999999999
#
# number of rings (size 3 to 8) (size 9 to 14) (size 15 to 20)
#    0.000    1.714    2.857    0.857    4.000    4.000 
#    0.000    2.857    0.000    0.000    0.000    0.000 
#    0.000    0.000    0.000    0.000    0.000    0.000 
#
# Total GULP energy -694052.168782 kJ/mol
# GULP energy per Si atom -12393.788728 kJ/mol
# Density = 2.192127 g / cm^3
# Si number density = 21.971282 Si / 1000 Ang^3
#
#
#
# Elastic Constant Matrix: (Units=GPa)
#
#
# Indices 1 2 3 4 5 6 
#
# 1 97.5582 34.1541 35.6872 -0.0011 0.0000 0.0001
# 2 34.1541 78.3557 29.0534 -0.0020 0.0000 0.0003
# 3 35.6872 29.0534 112.9335 -0.0043 0.0000 0.0008
# 4 -0.0011 -0.0020 -0.0043 30.6522 0.0001 0.0007
# 5 0.0000 0.0000 0.0000 0.0001 26.8644 -0.0006
# 6 0.0001 0.0003 0.0008 0.0007 -0.0006 39.0690
#
#
#
# Elastic Compliance Matrix: (Units=1/GPa)
#
#
# Indices 1 2 3 4 5 6 
#
# 1 0.012906 -0.004547 -0.002909 0.000000 0.000000 0.000000
# 2 -0.004547 0.015710 -0.002605 0.000000 0.000000 0.000000
# 3 -0.002909 -0.002605 0.010444 0.000001 0.000000 0.000000
# 4 0.000000 0.000000 0.000001 0.032624 0.000000 -0.000001
# 5 0.000000 0.000000 0.000000 0.000000 0.037224 0.000001
# 6 0.000000 0.000000 0.000000 -0.000001 0.000001 0.025596
#
#
# Mechanical properties :
#
#
# Convention : Reuss Voigt Hill
#
# Bulk Modulus (GPa) = 52.79987 54.07076 53.43531
# Shear Modulus (GPa) = 31.06785 31.98064 31.52424
#
# Velocity S-wave (km/s) = 3.76443 3.81933 3.79198
# Velocity P-wave (km/s) = 6.55576 6.64175 6.59890
#
# Compressibility (1/GPa) = 0.01893944
#
# Stress axis : x y z
#
# Youngs Moduli (GPa) = 77.48228 63.65315 95.74903
#
# Poissons Ratio (x) = 0.28944 0.27849
# Poissons Ratio (y) = 0.35232 0.24940
# Poissons Ratio (z) = 0.22536 0.16580
#
# Static dielectric constant tensor:
#      x y z
#    x 3.908200 0.000000 0.000000 
#    y 0.000000 3.972990 0.000000 
#    z 0.000000 0.000000 4.084390 
# 
# 
# High freq. dielectric constant tensor:
#      x y z
#    x 1.860430 0.000000 0.000000 
#    y 0.000000 1.851520 0.000000 
#    z 0.000000 0.000000 1.872630 
# 
# From -- ./inp_files/16364.got.cif
#   From: 2010.03.12/outbox.cif.g09.slc.cpg/sg73_9_cif.got.tgz:16364.got - 2010.04.16 15:25:48.
