data_PCOD8296919
_publ_section_title
;
Structure prediction by ZEFSAII (Michael W. Deem and Ramdas Pophale) SiO2 
 PCOD8296919
Probable space group: I B C A 
;
_chemical_formula_sum "Si O2"
_cell_formula_units_Z 96
_cell_length_a 8.496760
_cell_length_b 21.444681
_cell_length_c 25.192098
_cell_angle_alpha 90.000000
_cell_angle_beta 90.000000
_cell_angle_gamma 90.000000
_cell_volume 4590.259929
_symmetry_space_group_name_H-M "I B C A "
_symmetry_group_IT_number 73
_symmetry_cell_setting 'orthorhombic'
loop_
_space_group_symop_operation_xyz
x,y,z
-x,1/2-y,z
x,-y,1/2-z
1/2-x,y,-z
-x,-y,-z
x,1/2+y,-z
-x,y,1/2+z
1/2+x,-y,z
1/2+x,1/2+y,1/2+z
1/2-x,-y,1/2+z
1/2+x,1/2-y,-z
-x,1/2+y,1/2-z
1/2-x,1/2-y,1/2-z
1/2+x,y,1/2-z
1/2-x,1/2+y,z
x,1/2-y,1/2+z
loop_
_atom_site_type_symbol
_atom_site_label
_atom_site_fract_x
_atom_site_fract_y
_atom_site_fract_z
Si Si1 0.959497 0.491275 0.379601
Si Si2 0.876135 0.602382 0.315762
Si Si3 0.417715 0.190467 0.382443
Si Si4 0.466475 0.904266 0.285978
Si Si5 0.339013 0.283374 0.200899
Si Si6 0.799016 0.072282 0.060490
O O1 0.853217 0.550090 0.361269
O O2 0.858865 0.436536 0.405907
O O3 0.033592 0.459963 0.327860
O O4 0.084511 0.516357 0.422723
O O5 0.708813 0.624671 0.291218
O O6 0.959067 0.663278 0.339723
O O7 0.998781 0.570752 0.273527
O O8 0.500000 0.250000 0.410924
O O9 0.267575 0.216076 0.351210
O O10 0.371729 0.140063 0.427130
O O11 0.608619 0.854464 0.288547
O O12 0.500000 0.250000 0.185857
O O13 0.250000 0.250000 0.250000
O O14 0.750000 0.066575 0.000000
#
# Coordination Sequence:
#
# PCOD8296919 Si02
#       6
#    16  16  16  16  16  16
#     4  11  23  41  65  96 127 168 220 270 332 398
#     4  11  24  36  63  95 137 177 211 264 322 402
#     4  11  23  43  65  95 131 173 219 266 329 396
#     4  12  22  37  58  93 133 171 219 259 325 391
#     4  12  23  37  60  89 132 180 217 257 316 394
#     4  11  24  46  71  93 126 170 221 288 334 387
#
# _framework density 20.913847000000001
#
# number of rings (size 3 to 8) (size 9 to 14) (size 15 to 20)
#    0.000    0.667    3.333    6.500    2.333    1.333 
#    0.000    0.833    0.000    0.000    0.000    0.000 
#    0.000    0.000    0.000    0.000    0.000    0.000 
#
# Total GULP energy -594903.535306 kJ/mol
# GULP energy per Si atom -12393.823652 kJ/mol
# Density = 2.086625 g / cm^3
# Si number density = 20.913847 Si / 1000 Ang^3
#
#
#
# Elastic Constant Matrix: (Units=GPa)
#
#
# Indices 1 2 3 4 5 6 
#
# 1 94.1819 53.5890 28.5690 0.0000 0.0000 0.0000
# 2 53.5890 116.6639 48.3843 0.0000 0.0000 0.0000
# 3 28.5690 48.3843 90.2026 0.0000 0.0000 0.0000
# 4 0.0000 0.0000 0.0000 26.6532 0.0000 0.0000
# 5 0.0000 0.0000 0.0000 0.0000 31.0427 0.0000
# 6 0.0000 0.0000 0.0000 0.0000 0.0000 30.6079
#
#
#
# Elastic Compliance Matrix: (Units=1/GPa)
#
#
# Indices 1 2 3 4 5 6 
#
# 1 0.014494 -0.006114 -0.001311 0.000000 0.000000 0.000000
# 2 -0.006114 0.013603 -0.005360 0.000000 0.000000 0.000000
# 3 -0.001311 -0.005360 0.014377 0.000000 0.000000 0.000000
# 4 0.000000 0.000000 0.000000 0.037519 0.000000 0.000000
# 5 0.000000 0.000000 0.000000 0.000000 0.032214 0.000000
# 6 0.000000 0.000000 0.000000 0.000000 0.000000 0.032671
#
#
# Mechanical properties :
#
#
# Convention : Reuss Voigt Hill
#
# Bulk Modulus (GPa) = 59.16011 62.45921 60.80966
# Shear Modulus (GPa) = 28.39563 29.02783 28.71173
#
# Velocity S-wave (km/s) = 3.68875 3.72959 3.70923
# Velocity P-wave (km/s) = 6.81847 6.96249 6.89086
#
# Compressibility (1/GPa) = 0.01690328
#
# Stress axis : x y z
#
# Youngs Moduli (GPa) = 68.99227 73.51211 69.55758
#
# Poissons Ratio (x) = 0.44947 0.09119
# Poissons Ratio (y) = 0.42183 0.37284
# Poissons Ratio (z) = 0.09045 0.39404
#
# Static dielectric constant tensor:
#      x y z
#    x 3.886960 0.000000 0.000000 
#    y 0.000000 3.853260 0.000000 
#    z 0.000000 0.000000 3.453580 
# 
# 
# High freq. dielectric constant tensor:
#      x y z
#    x 1.833160 0.000000 0.000000 
#    y 0.000000 1.830750 0.000000 
#    z 0.000000 0.000000 1.784380 
# 
# From -- ./inp_files/31176.got.cif
#   From: 2010.03.12/outbox.cif.g09.slc.cpg/sg73_16_cif.got.tgz:31176.got - 2010.04.16 15:25:48.
