data_PCOD8296259
_publ_section_title
;
Structure prediction by ZEFSAII (Michael W. Deem and Ramdas Pophale) SiO2 
 PCOD8296259
Probable space group: I B C A 
;
_chemical_formula_sum "Si O2"
_cell_formula_units_Z 48
_cell_length_a 4.998524
_cell_length_b 12.321637
_cell_length_c 30.232892
_cell_angle_alpha 90.000000
_cell_angle_beta 90.000000
_cell_angle_gamma 90.000000
_cell_volume 1862.043766
_symmetry_space_group_name_H-M "I B C A "
_symmetry_group_IT_number 73
_symmetry_cell_setting 'orthorhombic'
loop_
_space_group_symop_operation_xyz
x,y,z
-x,1/2-y,z
x,-y,1/2-z
1/2-x,y,-z
-x,-y,-z
x,1/2+y,-z
-x,y,1/2+z
1/2+x,-y,z
1/2+x,1/2+y,1/2+z
1/2-x,-y,1/2+z
1/2+x,1/2-y,-z
-x,1/2+y,1/2-z
1/2-x,1/2-y,1/2-z
1/2+x,y,1/2-z
1/2-x,1/2+y,z
x,1/2-y,1/2+z
loop_
_atom_site_type_symbol
_atom_site_label
_atom_site_fract_x
_atom_site_fract_y
_atom_site_fract_z
Si Si1 0.983717 0.876632 0.777466
Si Si2 0.382224 0.565558 0.124268
Si Si3 0.000000 0.750000 0.433800
Si Si4 0.250000 0.917118 0.000000
O O1 0.779655 0.912740 0.738253
O O2 0.878570 0.926265 0.822907
O O3 0.000000 0.750000 0.784929
O O4 0.669098 0.522697 0.108356
O O5 0.316448 0.677274 0.098944
O O6 0.196846 0.669408 0.460643
O O7 0.500000 0.000000 0.000000
#
# Coordination Sequence:
#
# PCOD8296259 Si02
#       4
#    16  16   8   8
#     4  10  21  41  67 100 145 200 253 307 369 432
#     4  12  27  45  73 110 149 200 254 306 381 453
#     4  12  28  54  78 114 156 194 240 336 378 462
#     4  12  28  52  84 116 146 198 254 304 394 482
#
# _framework density 25.778127000000001
#
# number of rings (size 3 to 8) (size 9 to 14) (size 15 to 20)
#    0.000    0.667    1.667    5.000    0.000   10.667 
#    0.000    0.000    0.000    0.000    0.000    0.000 
#    0.000    0.000    0.000    0.000    0.000    0.000 
#
# Total GULP energy -297335.980336 kJ/mol
# GULP energy per Si atom -12388.999181 kJ/mol
# Density = 2.571945 g / cm^3
# Si number density = 25.778127 Si / 1000 Ang^3
#
#
#
# Elastic Constant Matrix: (Units=GPa)
#
#
# Indices 1 2 3 4 5 6 
#
# 1 157.0010 40.8202 45.7628 0.0000 0.0000 0.0000
# 2 40.8202 181.8944 75.0267 0.0000 0.0000 0.0000
# 3 45.7628 75.0267 123.6244 0.0000 0.0000 0.0000
# 4 0.0000 0.0000 0.0000 65.5796 0.0000 0.0000
# 5 0.0000 0.0000 0.0000 0.0000 28.6968 0.0000
# 6 0.0000 0.0000 0.0000 0.0000 0.0000 357.7752
#
#
#
# Elastic Compliance Matrix: (Units=1/GPa)
#
#
# Indices 1 2 3 4 5 6 
#
# 1 0.007204 -0.000689 -0.002248 0.000000 0.000000 0.000000
# 2 -0.000689 0.007399 -0.004235 0.000000 0.000000 0.000000
# 3 -0.002248 -0.004235 0.011492 0.000000 0.000000 0.000000
# 4 0.000000 0.000000 0.000000 0.015249 0.000000 0.000000
# 5 0.000000 0.000000 0.000000 0.000000 0.034847 0.000000
# 6 0.000000 0.000000 0.000000 0.000000 0.000000 0.002795
#
#
# Mechanical properties :
#
#
# Convention : Reuss Voigt Hill
#
# Bulk Modulus (GPa) = 85.11495 87.30436 86.20965
# Shear Modulus (GPa) = 51.41459 110.47098 80.94278
#
# Velocity S-wave (km/s) = 4.47083 6.55344 5.60963
# Velocity P-wave (km/s) = 7.72924 9.55011 8.68751
#
# Compressibility (1/GPa) = 0.01174882
#
# Stress axis : x y z
#
# Youngs Moduli (GPa) = 138.81234 135.14589 87.01846
#
# Poissons Ratio (x) = 0.09315 0.19565
# Poissons Ratio (y) = 0.09568 0.36857
# Poissons Ratio (z) = 0.31211 0.57241
#
# Static dielectric constant tensor:
#      x y z
#    x 4.645080 0.000000 0.000000 
#    y 0.000000 5.416670 0.000000 
#    z 0.000000 0.000000 4.811530 
# 
# 
# High freq. dielectric constant tensor:
#      x y z
#    x 2.016760 0.000000 0.000000 
#    y 0.000000 2.076700 0.000000 
#    z 0.000000 0.000000 2.040870 
# 
# From -- ./inp_files/2832.got.cif
#   From: 2010.03.12/outbox.cif.g09.slc.cpg/sg73_2_cif.got.tgz:2832.got - 2010.04.16 15:25:48.
