data_PCOD8296028
_publ_section_title
;
Structure prediction by ZEFSAII (Michael W. Deem and Ramdas Pophale) SiO2 
 PCOD8296028
Probable space group: I B C A 
;
_chemical_formula_sum "Si O2"
_cell_formula_units_Z 104
_cell_length_a 18.362275
_cell_length_b 8.901440
_cell_length_c 27.848726
_cell_angle_alpha 90.000000
_cell_angle_beta 90.000000
_cell_angle_gamma 90.000000
_cell_volume 4551.893457
_symmetry_space_group_name_H-M "I B C A "
_symmetry_group_IT_number 73
_symmetry_cell_setting 'orthorhombic'
loop_
_space_group_symop_operation_xyz
x,y,z
-x,1/2-y,z
x,-y,1/2-z
1/2-x,y,-z
-x,-y,-z
x,1/2+y,-z
-x,y,1/2+z
1/2+x,-y,z
1/2+x,1/2+y,1/2+z
1/2-x,-y,1/2+z
1/2+x,1/2-y,-z
-x,1/2+y,1/2-z
1/2-x,1/2-y,1/2-z
1/2+x,y,1/2-z
1/2-x,1/2+y,z
x,1/2-y,1/2+z
loop_
_atom_site_type_symbol
_atom_site_label
_atom_site_fract_x
_atom_site_fract_y
_atom_site_fract_z
Si Si1 0.241994 0.407636 0.895467
Si Si2 0.391622 0.144480 0.273918
Si Si3 0.195848 0.162099 0.958886
Si Si4 0.000000 0.250000 0.303919
Si Si5 0.843339 0.834394 0.849457
Si Si6 0.963229 0.908928 0.042075
Si Si7 0.500433 0.538959 0.641779
O O1 0.184219 0.292223 0.918783
O O2 0.268847 0.514276 0.937239
O O3 0.202768 0.511456 0.855009
O O4 0.309698 0.307775 0.877640
O O5 0.433144 0.209022 0.228998
O O6 0.339354 0.277128 0.293805
O O7 0.444114 0.104669 0.319087
O O8 0.350621 0.000000 0.250000
O O9 0.117154 0.120365 0.978625
O O10 0.250000 0.222568 0.000000
O O11 0.970526 0.382781 0.337181
O O12 0.928015 0.856300 0.865827
O O13 0.000000 0.750000 0.052598
O O14 0.961810 0.009519 0.090577
O O15 0.000000 0.000000 0.000000
#
# Coordination Sequence:
#
# PCOD8296028 Si02
#       7
#    16  16  16   8  16  16  16
#     4  10  25  42  72  94 134 199 245 277 374 435
#     4  10  21  39  72 111 134 178 231 294 370 443
#     4  11  25  45  71  97 140 191 248 299 364 449
#     4  10  20  40  70 112 134 186 222 288 388 442
#     4  11  22  44  69 100 142 186 239 297 352 438
#     4  12  29  44  68 109 144 185 243 311 369 426
#     4  11  22  42  75 102 149 178 234 309 373 420
#
# _framework density 22.847636000000001
#
# number of rings (size 3 to 8) (size 9 to 14) (size 15 to 20)
#    0.000    1.231    2.308    2.308    8.615    1.231 
#    2.769    0.769    0.000    0.000    0.000    0.000 
#    0.000    0.000    0.000    0.000    0.000    0.000 
#
# Total GULP energy -644332.236199 kJ/mol
# GULP energy per Si atom -12391.004542 kJ/mol
# Density = 2.279563 g / cm^3
# Si number density = 22.847636 Si / 1000 Ang^3
#
#
#
# Elastic Constant Matrix: (Units=GPa)
#
#
# Indices 1 2 3 4 5 6 
#
# 1 103.3630 35.9079 42.5362 0.0000 0.0000 0.0000
# 2 35.9079 130.0274 53.4301 0.0000 0.0000 0.0000
# 3 42.5362 53.4301 122.8658 0.0000 0.0000 0.0000
# 4 0.0000 0.0000 0.0000 42.0454 0.0000 0.0000
# 5 0.0000 0.0000 0.0000 0.0000 28.2465 0.0000
# 6 0.0000 0.0000 0.0000 0.0000 0.0000 26.3829
#
#
#
# Elastic Compliance Matrix: (Units=1/GPa)
#
#
# Indices 1 2 3 4 5 6 
#
# 1 0.011655 -0.001900 -0.003209 0.000000 0.000000 0.000000
# 2 -0.001900 0.009674 -0.003549 0.000000 0.000000 0.000000
# 3 -0.003209 -0.003549 0.010793 0.000000 0.000000 0.000000
# 4 0.000000 0.000000 0.000000 0.023784 0.000000 0.000000
# 5 0.000000 0.000000 0.000000 0.000000 0.035403 0.000000
# 6 0.000000 0.000000 0.000000 0.000000 0.000000 0.037903
#
#
# Mechanical properties :
#
#
# Convention : Reuss Voigt Hill
#
# Bulk Modulus (GPa) = 67.53818 68.88941 68.21379
# Shear Modulus (GPa) = 33.01136 34.29376 33.65256
#
# Velocity S-wave (km/s) = 3.80524 3.87845 3.84202
# Velocity P-wave (km/s) = 6.99506 7.09039 7.04289
#
# Compressibility (1/GPa) = 0.01480644
#
# Stress axis : x y z
#
# Youngs Moduli (GPa) = 85.79856 103.37264 92.65146
#
# Poissons Ratio (x) = 0.19642 0.29729
# Poissons Ratio (y) = 0.16303 0.32881
# Poissons Ratio (z) = 0.27530 0.36686
#
# Static dielectric constant tensor:
#      x y z
#    x 3.708150 0.000000 0.000000 
#    y 0.000000 4.922260 0.000000 
#    z 0.000000 0.000000 4.262510 
# 
# 
# High freq. dielectric constant tensor:
#      x y z
#    x 1.879500 0.000000 0.000000 
#    y 0.000000 1.931940 0.000000 
#    z 0.000000 0.000000 1.899310 
# 
# From -- ./inp_files/32665.got.cif
#   From: 2010.03.12/outbox.cif.g09.slc.cpg/sg73_17_cif.got.tgz:32665.got - 2010.04.16 15:25:48.
