data_PCOD8296350
_publ_section_title
;
Structure prediction by ZEFSAII (Michael W. Deem and Ramdas Pophale) SiO2 
 PCOD8296350
Probable space group: I B C A 
;
_chemical_formula_sum "Si O2"
_cell_formula_units_Z 80
_cell_length_a 22.896474
_cell_length_b 9.274512
_cell_length_c 15.296835
_cell_angle_alpha 90.000000
_cell_angle_beta 90.000000
_cell_angle_gamma 90.000000
_cell_volume 3248.338331
_symmetry_space_group_name_H-M "I B C A "
_symmetry_group_IT_number 73
_symmetry_cell_setting 'orthorhombic'
loop_
_space_group_symop_operation_xyz
x,y,z
-x,1/2-y,z
x,-y,1/2-z
1/2-x,y,-z
-x,-y,-z
x,1/2+y,-z
-x,y,1/2+z
1/2+x,-y,z
1/2+x,1/2+y,1/2+z
1/2-x,-y,1/2+z
1/2+x,1/2-y,-z
-x,1/2+y,1/2-z
1/2-x,1/2-y,1/2-z
1/2+x,y,1/2-z
1/2-x,1/2+y,z
x,1/2-y,1/2+z
loop_
_atom_site_type_symbol
_atom_site_label
_atom_site_fract_x
_atom_site_fract_y
_atom_site_fract_z
Si Si1 0.127181 0.198476 0.953778
Si Si2 0.177710 0.601686 0.872632
Si Si3 0.262169 0.330221 0.102913
Si Si4 0.500000 0.750000 0.207531
Si Si5 0.422413 0.000000 0.750000
Si Si6 0.446627 0.062883 0.444189
O O1 0.162793 0.109014 0.026103
O O2 0.091010 0.331309 0.994532
O O3 0.174102 0.255467 0.883327
O O4 0.087150 0.077921 0.908567
O O5 0.229803 0.487599 0.855889
O O6 0.208682 0.752917 0.845113
O O7 0.117573 0.555296 0.828392
O O8 0.250000 0.338071 0.000000
O O9 0.461840 0.642915 0.270257
O O10 0.463300 0.852664 0.143337
O O11 0.500000 0.000000 0.500000
#
# Coordination Sequence:
#
# PCOD8296350 Si02
#       6
#    16  16  16   8   8  16
#     4  11  21  38  69 106 138 164 224 302 378 420
#     4  11  23  42  64  97 139 184 229 283 352 437
#     4  10  22  38  67 102 132 169 222 297 368 420
#     4  12  28  48  66  98 140 188 244 290 356 424
#     4  12  28  50  66  90 144 196 244 288 330 450
#     4  12  21  40  68 105 134 174 231 309 374 417
#
# _framework density 24.627976
#
# number of rings (size 3 to 8) (size 9 to 14) (size 15 to 20)
#    0.000    0.800    6.000    1.800    2.800    2.400 
#    0.000    0.000    0.000    0.000    0.000    0.000 
#    0.000    0.000    0.000    0.000    0.000    0.000 
#
# Total GULP energy -495538.840494 kJ/mol
# GULP energy per Si atom -12388.471012 kJ/mol
# Density = 2.457192 g / cm^3
# Si number density = 24.627976 Si / 1000 Ang^3
#
#
#
# Elastic Constant Matrix: (Units=GPa)
#
#
# Indices 1 2 3 4 5 6 
#
# 1 113.3044 55.7207 9.8639 0.0000 0.0000 0.0000
# 2 55.7207 148.7953 10.9772 0.0000 0.0000 0.0000
# 3 9.8639 10.9772 17.4380 0.0000 0.0000 0.0000
# 4 0.0000 0.0000 0.0000 32.3090 0.0000 0.0000
# 5 0.0000 0.0000 0.0000 0.0000 28.7364 0.0000
# 6 0.0000 0.0000 0.0000 0.0000 0.0000 38.0231
#
#
#
# Elastic Compliance Matrix: (Units=1/GPa)
#
#
# Indices 1 2 3 4 5 6 
#
# 1 0.011056 -0.003858 -0.003825 0.000000 0.000000 0.000000
# 2 -0.003858 0.008394 -0.003102 0.000000 0.000000 0.000000
# 3 -0.003825 -0.003102 0.061462 0.000000 0.000000 0.000000
# 4 0.000000 0.000000 0.000000 0.030951 0.000000 0.000000
# 5 0.000000 0.000000 0.000000 0.000000 0.034799 0.000000
# 6 0.000000 0.000000 0.000000 0.000000 0.000000 0.026300
#
#
# Mechanical properties :
#
#
# Convention : Reuss Voigt Hill
#
# Bulk Modulus (GPa) = 16.85135 48.07346 32.46241
# Shear Modulus (GPa) = 23.33024 33.34541 28.33783
#
# Velocity S-wave (km/s) = 3.08117 3.68362 3.39578
# Velocity P-wave (km/s) = 4.41762 6.13631 5.34648
#
# Compressibility (1/GPa) = 0.05934243
#
# Stress axis : x y z
#
# Youngs Moduli (GPa) = 90.44763 119.12920 16.27009
#
# Poissons Ratio (x) = 0.45961 0.06224
# Poissons Ratio (y) = 0.34895 0.05047
# Poissons Ratio (z) = 0.34599 0.36952
#
# Static dielectric constant tensor:
#      x y z
#    x 5.094220 0.000000 0.000000 
#    y 0.000000 5.297310 0.000000 
#    z 0.000000 0.000000 3.811020 
# 
# 
# High freq. dielectric constant tensor:
#      x y z
#    x 1.998320 0.000000 0.000000 
#    y 0.000000 2.010450 0.000000 
#    z 0.000000 0.000000 1.919360 
# 
# From -- ./inp_files/27173.got.cif
#   From: 2010.03.12/outbox.cif.g09.slc.cpg/sg73_14_cif.got.tgz:27173.got - 2010.04.16 15:25:48.
