data_PCOD8296296
_publ_section_title
;
Structure prediction by ZEFSAII (Michael W. Deem and Ramdas Pophale) SiO2 
 PCOD8296296
Probable space group: I B C A 
;
_chemical_formula_sum "Si O2"
_cell_formula_units_Z 96
_cell_length_a 13.967880
_cell_length_b 16.002153
_cell_length_c 20.621146
_cell_angle_alpha 90.000000
_cell_angle_beta 90.000000
_cell_angle_gamma 90.000000
_cell_volume 4609.159221
_symmetry_space_group_name_H-M "I B C A "
_symmetry_group_IT_number 73
_symmetry_cell_setting 'orthorhombic'
loop_
_space_group_symop_operation_xyz
x,y,z
-x,1/2-y,z
x,-y,1/2-z
1/2-x,y,-z
-x,-y,-z
x,1/2+y,-z
-x,y,1/2+z
1/2+x,-y,z
1/2+x,1/2+y,1/2+z
1/2-x,-y,1/2+z
1/2+x,1/2-y,-z
-x,1/2+y,1/2-z
1/2-x,1/2-y,1/2-z
1/2+x,y,1/2-z
1/2-x,1/2+y,z
x,1/2-y,1/2+z
loop_
_atom_site_type_symbol
_atom_site_label
_atom_site_fract_x
_atom_site_fract_y
_atom_site_fract_z
Si Si1 0.537204 0.958226 0.933935
Si Si2 0.418753 0.309036 0.109914
Si Si3 0.775139 0.705241 0.814940
Si Si4 0.640316 0.317794 0.008000
Si Si5 0.935456 0.563297 0.811083
Si Si6 0.076340 0.680052 0.868928
O O1 0.452584 0.903446 0.902042
O O2 0.627114 0.897159 0.945630
O O3 0.580204 0.020944 0.880907
O O4 0.500000 0.000000 0.000000
O O5 0.500000 0.250000 0.145762
O O6 0.322969 0.321601 0.151071
O O7 0.402117 0.266201 0.039813
O O8 0.750000 0.750000 0.750000
O O9 0.846971 0.627459 0.802895
O O10 0.820242 0.780807 0.855874
O O11 0.750000 0.299031 0.000000
O O12 0.581225 0.345624 0.944001
O O13 0.938462 0.500000 0.750000
O O14 0.040950 0.606614 0.819821
O O15 0.000000 0.750000 0.856813
#
# Coordination Sequence:
#
# PCOD8296296 Si02
#       6
#    16  16  16  16  16  16
#     4  11  24  42  66  99 140 178 223 287 357 411
#     4  10  24  41  70  98 138 175 230 288 348 413
#     4  11  26  45  71  99 135 186 239 281 340 421
#     4  11  21  39  69  99 132 174 233 287 347 415
#     4  11  27  46  68 101 144 182 231 287 352 411
#     4  10  21  43  71  97 129 181 231 282 340 412
#
# _framework density 20.828094
#
# number of rings (size 3 to 8) (size 9 to 14) (size 15 to 20)
#    0.000    1.333    3.333    1.500    9.333    2.000 
#    3.000    0.000    0.000    0.000    0.000    0.000 
#    0.000    0.000    0.000    0.000    0.000    0.000 
#
# Total GULP energy -594660.660602 kJ/mol
# GULP energy per Si atom -12388.763763 kJ/mol
# Density = 2.078069 g / cm^3
# Si number density = 20.828094 Si / 1000 Ang^3
#
#
#
# Elastic Constant Matrix: (Units=GPa)
#
#
# Indices 1 2 3 4 5 6 
#
# 1 91.0304 37.5001 33.0661 0.0000 0.0000 0.0000
# 2 37.5001 108.9952 50.1012 0.0000 0.0000 0.0000
# 3 33.0661 50.1012 123.0447 0.0000 0.0000 0.0000
# 4 0.0000 0.0000 0.0000 41.7368 0.0000 0.0000
# 5 0.0000 0.0000 0.0000 0.0000 29.8152 0.0000
# 6 0.0000 0.0000 0.0000 0.0000 0.0000 68.7581
#
#
#
# Elastic Compliance Matrix: (Units=1/GPa)
#
#
# Indices 1 2 3 4 5 6 
#
# 1 0.013223 -0.003588 -0.002093 0.000000 0.000000 0.000000
# 2 -0.003588 0.012261 -0.004028 0.000000 0.000000 0.000000
# 3 -0.002093 -0.004028 0.010330 0.000000 0.000000 0.000000
# 4 0.000000 0.000000 0.000000 0.023960 0.000000 0.000000
# 5 0.000000 0.000000 0.000000 0.000000 0.033540 0.000000
# 6 0.000000 0.000000 0.000000 0.000000 0.000000 0.014544
#
#
# Mechanical properties :
#
#
# Convention : Reuss Voigt Hill
#
# Bulk Modulus (GPa) = 60.98778 62.71165 61.84972
# Shear Modulus (GPa) = 37.66767 41.55554 39.61160
#
# Velocity S-wave (km/s) = 4.25726 4.47158 4.36573
# Velocity P-wave (km/s) = 7.31511 7.53887 7.42783
#
# Compressibility (1/GPa) = 0.01639673
#
# Stress axis : x y z
#
# Youngs Moduli (GPa) = 75.62328 81.56176 96.80808
#
# Poissons Ratio (x) = 0.29261 0.20260
# Poissons Ratio (y) = 0.27130 0.38996
# Poissons Ratio (z) = 0.15826 0.32855
#
# Static dielectric constant tensor:
#      x y z
#    x 3.832350 0.000000 0.000000 
#    y 0.000000 3.344520 0.000000 
#    z 0.000000 0.000000 3.961800 
# 
# 
# High freq. dielectric constant tensor:
#      x y z
#    x 1.819360 0.000000 0.000000 
#    y 0.000000 1.820290 0.000000 
#    z 0.000000 0.000000 1.819010 
# 
# From -- ./inp_files/25982.got.cif
#   From: 2010.03.12/outbox.cif.g09.slc.cpg/sg73_13_cif.got.tgz:25982.got - 2010.04.16 15:25:48.
