data_PCOD8296473
_publ_section_title
;
Structure prediction by ZEFSAII (Michael W. Deem and Ramdas Pophale) SiO2 
 PCOD8296473
Probable space group: I B C A 
;
_chemical_formula_sum "Si O2"
_cell_formula_units_Z 112
_cell_length_a 34.582830
_cell_length_b 10.620603
_cell_length_c 14.286938
_cell_angle_alpha 90.000000
_cell_angle_beta 90.000000
_cell_angle_gamma 90.000000
_cell_volume 5247.456716
_symmetry_space_group_name_H-M "I B C A "
_symmetry_group_IT_number 73
_symmetry_cell_setting 'orthorhombic'
loop_
_space_group_symop_operation_xyz
x,y,z
-x,1/2-y,z
x,-y,1/2-z
1/2-x,y,-z
-x,-y,-z
x,1/2+y,-z
-x,y,1/2+z
1/2+x,-y,z
1/2+x,1/2+y,1/2+z
1/2-x,-y,1/2+z
1/2+x,1/2-y,-z
-x,1/2+y,1/2-z
1/2-x,1/2-y,1/2-z
1/2+x,y,1/2-z
1/2-x,1/2+y,z
x,1/2-y,1/2+z
loop_
_atom_site_type_symbol
_atom_site_label
_atom_site_fract_x
_atom_site_fract_y
_atom_site_fract_z
Si Si1 0.827420 0.150518 0.926505
Si Si2 0.705803 0.388481 0.968494
Si Si3 0.780510 0.360801 0.240610
Si Si4 0.472623 0.047510 0.650307
Si Si5 0.057445 0.377062 0.297800
Si Si6 0.087796 0.782715 0.059853
Si Si7 0.457162 0.781931 0.613204
O O1 0.813240 0.151753 0.819466
O O2 0.873585 0.135700 0.928229
O O3 0.809963 0.031067 0.983299
O O4 0.817125 0.284573 0.972564
O O5 0.700003 0.349158 0.860732
O O6 0.750000 0.386251 0.000000
O O7 0.760637 0.500000 0.250000
O O8 0.750000 0.250000 0.250000
O O9 0.517924 0.079387 0.651123
O O10 0.449690 0.165785 0.613610
O O11 0.458345 0.000000 0.750000
O O12 0.458465 0.929818 0.589115
O O13 0.075684 0.500000 0.250000
O O14 0.089654 0.344860 0.377864
O O15 0.049365 0.266613 0.219990
O O16 0.077589 0.771852 0.950657
O O17 0.500000 0.750000 0.579028
#
# Coordination Sequence:
#
# PCOD8296473 Si02
#       7
#    16  16  16  16  16  16  16
#     4  11  27  44  68 104 143 181 219 283 349 411
#     4  11  23  45  75 101 138 174 228 279 334 414
#     4  10  22  42  72 103 129 175 221 271 336 407
#     4  11  22  43  68  88 133 179 230 281 338 394
#     4  11  23  43  66  94 132 180 233 288 333 397
#     4  12  28  41  63 100 141 174 229 277 349 413
#     4  12  23  40  69  96 124 182 230 283 339 396
#
# _framework density 21.343674
#
# number of rings (size 3 to 8) (size 9 to 14) (size 15 to 20)
#    0.000    0.857    5.714    1.714    6.000    4.000 
#    0.000    0.714    0.000    0.000    0.000    0.000 
#    0.000    0.000    0.000    0.000    0.000    0.000 
#
# Total GULP energy -693839.233533 kJ/mol
# GULP energy per Si atom -12389.986313 kJ/mol
# Density = 2.129509 g / cm^3
# Si number density = 21.343674 Si / 1000 Ang^3
#
#
#
# Elastic Constant Matrix: (Units=GPa)
#
#
# Indices 1 2 3 4 5 6 
#
# 1 68.9940 21.8252 35.2716 0.0000 0.0000 0.0000
# 2 21.8252 91.6766 26.6870 0.0000 0.0000 0.0000
# 3 35.2716 26.6870 108.3134 0.0000 0.0000 0.0000
# 4 0.0000 0.0000 0.0000 30.8945 0.0000 0.0000
# 5 0.0000 0.0000 0.0000 0.0000 15.1180 0.0000
# 6 0.0000 0.0000 0.0000 0.0000 0.0000 23.9211
#
#
#
# Elastic Compliance Matrix: (Units=1/GPa)
#
#
# Indices 1 2 3 4 5 6 
#
# 1 0.018024 -0.002782 -0.005184 0.000000 0.000000 0.000000
# 2 -0.002782 0.012180 -0.002095 0.000000 0.000000 0.000000
# 3 -0.005184 -0.002095 0.011437 0.000000 0.000000 0.000000
# 4 0.000000 0.000000 0.000000 0.032368 0.000000 0.000000
# 5 0.000000 0.000000 0.000000 0.000000 0.066146 0.000000
# 6 0.000000 0.000000 0.000000 0.000000 0.000000 0.041804
#
#
# Mechanical properties :
#
#
# Convention : Reuss Voigt Hill
#
# Bulk Modulus (GPa) = 46.47053 48.50575 47.48814
# Shear Modulus (GPa) = 23.89431 26.33340 25.11386
#
# Velocity S-wave (km/s) = 3.34953 3.51633 3.43394
# Velocity P-wave (km/s) = 6.06456 6.26590 6.16605
#
# Compressibility (1/GPa) = 0.02151902
#
# Stress axis : x y z
#
# Youngs Moduli (GPa) = 55.48071 82.10131 87.43677
#
# Poissons Ratio (x) = 0.22840 0.45328
# Poissons Ratio (y) = 0.15434 0.18319
# Poissons Ratio (z) = 0.28762 0.17201
#
# Static dielectric constant tensor:
#      x y z
#    x 3.434840 0.000000 0.000000 
#    y 0.000000 4.000950 0.000000 
#    z 0.000000 0.000000 4.028860 
# 
# 
# High freq. dielectric constant tensor:
#      x y z
#    x 1.800880 0.000000 0.000000 
#    y 0.000000 1.861510 0.000000 
#    z 0.000000 0.000000 1.847180 
# 
# From -- ./inp_files/20048.got.cif
#   From: 2010.03.12/outbox.cif.g09.slc.cpg/sg73_11_cif.got.tgz:20048.got - 2010.04.16 15:25:48.
