data_PCOD8296801
_publ_section_title
;
Structure prediction by ZEFSAII (Michael W. Deem and Ramdas Pophale) SiO2 
 PCOD8296801
Probable space group: I B C A 
;
_chemical_formula_sum "Si O2"
_cell_formula_units_Z 72
_cell_length_a 9.192320
_cell_length_b 25.088919
_cell_length_c 13.349822
_cell_angle_alpha 90.000000
_cell_angle_beta 90.000000
_cell_angle_gamma 90.000000
_cell_volume 3078.807664
_symmetry_space_group_name_H-M "I B C A "
_symmetry_group_IT_number 73
_symmetry_cell_setting 'orthorhombic'
loop_
_space_group_symop_operation_xyz
x,y,z
-x,1/2-y,z
x,-y,1/2-z
1/2-x,y,-z
-x,-y,-z
x,1/2+y,-z
-x,y,1/2+z
1/2+x,-y,z
1/2+x,1/2+y,1/2+z
1/2-x,-y,1/2+z
1/2+x,1/2-y,-z
-x,1/2+y,1/2-z
1/2-x,1/2-y,1/2-z
1/2+x,y,1/2-z
1/2-x,1/2+y,z
x,1/2-y,1/2+z
loop_
_atom_site_type_symbol
_atom_site_label
_atom_site_fract_x
_atom_site_fract_y
_atom_site_fract_z
Si Si1 0.112362 0.368721 0.069615
Si Si2 0.498609 0.000000 0.750000
Si Si3 0.632946 0.443972 0.914727
Si Si4 0.153502 0.112805 0.791507
Si Si5 0.911391 0.699560 0.545430
O O1 0.167144 0.360828 0.183232
O O2 0.021719 0.423000 0.044687
O O3 0.250000 0.369316 0.000000
O O4 0.007573 0.319092 0.048462
O O5 0.396258 0.995986 0.651732
O O6 0.586075 0.946241 0.774755
O O7 0.688503 0.397101 0.840346
O O8 0.750000 0.457331 0.000000
O O9 0.077694 0.153456 0.869321
O O10 0.750000 0.711613 0.500000
O O11 0.000000 0.750000 0.590104
#
# Coordination Sequence:
#
# PCOD8296801 Si02
#       5
#    16   8  16  16  16
#     4  11  25  44  76 110 148 199 257 317 392 464
#     4  10  26  42  74 120 148 212 262 320 410 482
#     4  11  22  48  71 104 159 200 259 330 387 469
#     4  11  24  48  75 111 162 203 260 324 397 472
#     4  12  26  52  78 113 157 208 268 328 388 465
#
# _framework density 23.385674999999999
#
# number of rings (size 3 to 8) (size 9 to 14) (size 15 to 20)
#    0.000    0.889    4.444    1.333    6.222    1.778 
#    4.000    7.778    0.000    1.333    0.000    0.000 
#    0.000    0.000    0.000    0.000    0.000    0.000 
#
# Total GULP energy -445974.673558 kJ/mol
# GULP energy per Si atom -12388.185377 kJ/mol
# Density = 2.333245 g / cm^3
# Si number density = 23.385675 Si / 1000 Ang^3
#
#
#
# Elastic Constant Matrix: (Units=GPa)
#
#
# Indices 1 2 3 4 5 6 
#
# 1 149.5829 45.5427 65.3266 -0.0001 0.0000 0.0000
# 2 45.5427 123.7021 49.9323 -0.0002 0.0001 0.0000
# 3 65.3266 49.9323 137.8904 -0.0011 0.0002 0.0000
# 4 -0.0001 -0.0002 -0.0011 40.6096 0.0001 0.0000
# 5 0.0000 0.0001 0.0002 0.0001 34.2672 -0.0001
# 6 0.0000 0.0000 0.0000 0.0000 -0.0001 23.2368
#
#
#
# Elastic Compliance Matrix: (Units=1/GPa)
#
#
# Indices 1 2 3 4 5 6 
#
# 1 0.008764 -0.001816 -0.003495 0.000000 0.000000 0.000000
# 2 -0.001816 0.009844 -0.002704 0.000000 0.000000 0.000000
# 3 -0.003495 -0.002704 0.009887 0.000000 0.000000 0.000000
# 4 0.000000 0.000000 0.000000 0.024625 0.000000 0.000000
# 5 0.000000 0.000000 0.000000 0.000000 0.029182 0.000000
# 6 0.000000 0.000000 0.000000 0.000000 0.000000 0.043035
#
#
# Mechanical properties :
#
#
# Convention : Reuss Voigt Hill
#
# Bulk Modulus (GPa) = 80.22130 81.41982 80.82056
# Shear Modulus (GPa) = 34.35884 36.31430 35.33657
#
# Velocity S-wave (km/s) = 3.83721 3.94489 3.89142
# Velocity P-wave (km/s) = 7.34917 7.45930 7.40444
#
# Compressibility (1/GPa) = 0.01246552
#
# Stress axis : x y z
#
# Youngs Moduli (GPa) = 114.09845 101.58285 101.14328
#
# Poissons Ratio (x) = 0.18449 0.35345
# Poissons Ratio (y) = 0.20722 0.27352
# Poissons Ratio (z) = 0.39872 0.27471
#
# Static dielectric constant tensor:
#      x y z
#    x 4.495540 0.000000 0.000000 
#    y 0.000000 4.176360 0.000000 
#    z 0.000000 0.000000 4.671080 
# 
# 
# High freq. dielectric constant tensor:
#      x y z
#    x 1.938310 0.000000 0.000000 
#    y 0.000000 1.909600 0.000000 
#    z 0.000000 0.000000 1.935630 
# 
# From -- ./inp_files/15507.got.cif
#   From: 2010.03.12/outbox.cif.g09.slc.cpg/sg73_8_cif.got.tgz:15507.got - 2010.04.16 15:25:48.
