data_PCOD8296643
_publ_section_title
;
Structure prediction by ZEFSAII (Michael W. Deem and Ramdas Pophale) SiO2 
 PCOD8296643
Probable space group: I B C A 
;
_chemical_formula_sum "Si O2"
_cell_formula_units_Z 56
_cell_length_a 15.333788
_cell_length_b 10.895627
_cell_length_c 14.087448
_cell_angle_alpha 90.000000
_cell_angle_beta 90.000000
_cell_angle_gamma 90.000000
_cell_volume 2353.607329
_symmetry_space_group_name_H-M "I B C A "
_symmetry_group_IT_number 73
_symmetry_cell_setting 'orthorhombic'
loop_
_space_group_symop_operation_xyz
x,y,z
-x,1/2-y,z
x,-y,1/2-z
1/2-x,y,-z
-x,-y,-z
x,1/2+y,-z
-x,y,1/2+z
1/2+x,-y,z
1/2+x,1/2+y,1/2+z
1/2-x,-y,1/2+z
1/2+x,1/2-y,-z
-x,1/2+y,1/2-z
1/2-x,1/2-y,1/2-z
1/2+x,y,1/2-z
1/2-x,1/2+y,z
x,1/2-y,1/2+z
loop_
_atom_site_type_symbol
_atom_site_label
_atom_site_fract_x
_atom_site_fract_y
_atom_site_fract_z
Si Si1 0.750000 0.702771 0.000000
Si Si2 0.466282 0.950510 0.153823
Si Si3 0.216483 0.627223 0.301849
Si Si4 0.427778 0.343102 0.511207
O O1 0.740595 0.619150 0.906523
O O2 0.834847 0.785891 0.991771
O O3 0.388582 0.860137 0.187828
O O4 0.540462 0.887982 0.091936
O O5 0.511862 0.000000 0.250000
O O6 0.417386 0.052116 0.089580
O O7 0.242275 0.500000 0.250000
O O8 0.250000 0.750000 0.250000
O O9 0.500000 0.250000 0.552371
#
# Coordination Sequence:
#
# PCOD8296643 Si02
#       4
#     8  16  16  16
#     4  12  24  48  80 106 164 196 264 326 390 474
#     4  10  23  48  74 110 156 199 264 321 391 471
#     4  11  25  48  79 116 153 205 262 320 394 471
#     4  11  24  48  73 111 152 211 257 324 397 458
#
# _framework density 23.793263
#
# number of rings (size 3 to 8) (size 9 to 14) (size 15 to 20)
#    0.000    1.143    2.857    3.429    0.000    5.714 
#    5.143    1.429    0.000    0.000    0.000    0.000 
#    0.000    0.000    0.000    0.000    0.000    0.000 
#
# Total GULP energy -347155.629629 kJ/mol
# GULP energy per Si atom -12398.415344 kJ/mol
# Density = 2.373911 g / cm^3
# Si number density = 23.793263 Si / 1000 Ang^3
#
#
#
# Elastic Constant Matrix: (Units=GPa)
#
#
# Indices 1 2 3 4 5 6 
#
# 1 146.2619 64.0604 59.0796 0.0000 0.0000 0.0000
# 2 64.0604 133.6288 70.9940 0.0000 0.0000 0.0000
# 3 59.0796 70.9940 198.0390 0.0000 0.0000 0.0000
# 4 0.0000 0.0000 0.0000 36.4231 0.0000 0.0000
# 5 0.0000 0.0000 0.0000 0.0000 20.7517 0.0000
# 6 0.0000 0.0000 0.0000 0.0000 0.0000 23.8158
#
#
#
# Elastic Compliance Matrix: (Units=1/GPa)
#
#
# Indices 1 2 3 4 5 6 
#
# 1 0.008957 -0.003551 -0.001399 0.000000 0.000000 0.000000
# 2 -0.003551 0.010651 -0.002759 0.000000 0.000000 0.000000
# 3 -0.001399 -0.002759 0.006456 0.000000 0.000000 0.000000
# 4 0.000000 0.000000 0.000000 0.027455 0.000000 0.000000
# 5 0.000000 0.000000 0.000000 0.000000 0.048189 0.000000
# 6 0.000000 0.000000 0.000000 0.000000 0.000000 0.041989
#
#
# Mechanical properties :
#
#
# Convention : Reuss Voigt Hill
#
# Bulk Modulus (GPa) = 93.92629 96.24420 95.08525
# Shear Modulus (GPa) = 30.73803 35.11784 32.92793
#
# Velocity S-wave (km/s) = 3.59817 3.84599 3.72414
# Velocity P-wave (km/s) = 7.53818 7.76274 7.65128
#
# Compressibility (1/GPa) = 0.01064665
#
# Stress axis : x y z
#
# Youngs Moduli (GPa) = 111.63924 93.88404 154.89284
#
# Poissons Ratio (x) = 0.33335 0.21675
# Poissons Ratio (y) = 0.39639 0.42737
# Poissons Ratio (z) = 0.15622 0.25904
#
# Static dielectric constant tensor:
#      x y z
#    x 4.086470 0.000000 0.000000 
#    y 0.000000 4.407160 0.000000 
#    z 0.000000 0.000000 4.911090 
# 
# 
# High freq. dielectric constant tensor:
#      x y z
#    x 1.938840 0.000000 0.000000 
#    y 0.000000 1.939800 0.000000 
#    z 0.000000 0.000000 1.968640 
# 
# From -- ./inp_files/10211.got.cif
#   From: 2010.03.12/outbox.cif.g09.slc.cpg/sg73_6_cif.got.tgz:10211.got - 2010.04.16 15:25:48.
