data_PCOD8296690
_publ_section_title
;
Structure prediction by ZEFSAII (Michael W. Deem and Ramdas Pophale) SiO2 
 PCOD8296690
Probable space group: I B C A 
;
_chemical_formula_sum "Si O2"
_cell_formula_units_Z 56
_cell_length_a 8.320835
_cell_length_b 9.687320
_cell_length_c 27.253037
_cell_angle_alpha 90.000000
_cell_angle_beta 90.000000
_cell_angle_gamma 90.000000
_cell_volume 2196.774415
_symmetry_space_group_name_H-M "I B C A "
_symmetry_group_IT_number 73
_symmetry_cell_setting 'orthorhombic'
loop_
_space_group_symop_operation_xyz
x,y,z
-x,1/2-y,z
x,-y,1/2-z
1/2-x,y,-z
-x,-y,-z
x,1/2+y,-z
-x,y,1/2+z
1/2+x,-y,z
1/2+x,1/2+y,1/2+z
1/2-x,-y,1/2+z
1/2+x,1/2-y,-z
-x,1/2+y,1/2-z
1/2-x,1/2-y,1/2-z
1/2+x,y,1/2-z
1/2-x,1/2+y,z
x,1/2-y,1/2+z
loop_
_atom_site_type_symbol
_atom_site_label
_atom_site_fract_x
_atom_site_fract_y
_atom_site_fract_z
Si Si1 0.112791 0.616451 0.958788
Si Si2 0.578887 0.898364 0.906436
Si Si3 0.762806 0.000000 0.250000
Si Si4 0.496926 0.101768 0.820280
O O1 0.226774 0.618379 0.909922
O O2 0.998674 0.479912 0.954073
O O3 0.000000 0.750000 0.964015
O O4 0.250000 0.612025 0.000000
O O5 0.500000 0.750000 0.903788
O O6 0.540318 0.981784 0.857904
O O7 0.873797 0.113649 0.223628
O O8 0.670398 0.073533 0.294026
O O9 0.500000 0.250000 0.847819
#
# Coordination Sequence:
#
# PCOD8296690 Si02
#       4
#    16  16   8  16
#     4  12  27  51  78 107 145 193 249 307 370 444
#     4  12  27  46  72 109 149 193 243 303 372 443
#     4  10  24  42  70 104 140 186 242 302 360 430
#     4  11  24  45  71 102 142 189 241 298 363 435
#
# _framework density 25.49192
#
# number of rings (size 3 to 8) (size 9 to 14) (size 15 to 20)
#    0.000    0.571    0.000    6.857    0.000   13.714 
#    0.000    1.429    0.000    0.000    0.000    0.000 
#    0.000    0.000    0.000    0.000    0.000    0.000 
#
# Total GULP energy -347138.200403 kJ/mol
# GULP energy per Si atom -12397.792872 kJ/mol
# Density = 2.543390 g / cm^3
# Si number density = 25.491920 Si / 1000 Ang^3
#
#
#
# Elastic Constant Matrix: (Units=GPa)
#
#
# Indices 1 2 3 4 5 6 
#
# 1 175.2315 68.0795 24.4004 0.0000 0.0000 0.0000
# 2 68.0795 210.7954 41.0742 0.0000 0.0000 0.0000
# 3 24.4004 41.0742 93.4435 0.0000 0.0000 0.0000
# 4 0.0000 0.0000 0.0000 37.4310 0.0000 0.0000
# 5 0.0000 0.0000 0.0000 0.0000 30.5443 0.0000
# 6 0.0000 0.0000 0.0000 0.0000 0.0000 39.0011
#
#
#
# Elastic Compliance Matrix: (Units=1/GPa)
#
#
# Indices 1 2 3 4 5 6 
#
# 1 0.006588 -0.001960 -0.000859 0.000000 0.000000 0.000000
# 2 -0.001960 0.005772 -0.002025 0.000000 0.000000 0.000000
# 3 -0.000859 -0.002025 0.011816 0.000000 0.000000 0.000000
# 4 0.000000 0.000000 0.000000 0.026716 0.000000 0.000000
# 5 0.000000 0.000000 0.000000 0.000000 0.032739 0.000000
# 6 0.000000 0.000000 0.000000 0.000000 0.000000 0.025640
#
#
# Mechanical properties :
#
#
# Convention : Reuss Voigt Hill
#
# Bulk Modulus (GPa) = 69.02499 82.95320 75.98910
# Shear Modulus (GPa) = 40.39154 44.45636 42.42395
#
# Velocity S-wave (km/s) = 3.98488 4.18058 4.08390
# Velocity P-wave (km/s) = 6.95042 7.47761 7.21883
#
# Compressibility (1/GPa) = 0.01448751
#
# Stress axis : x y z
#
# Youngs Moduli (GPa) = 151.79305 173.26019 84.63102
#
# Poissons Ratio (x) = 0.33965 0.07266
# Poissons Ratio (y) = 0.29757 0.17139
# Poissons Ratio (z) = 0.13032 0.35087
#
# Static dielectric constant tensor:
#      x y z
#    x 5.529730 0.000000 0.000000 
#    y 0.000000 4.342100 0.000000 
#    z 0.000000 0.000000 4.967610 
# 
# 
# High freq. dielectric constant tensor:
#      x y z
#    x 2.051600 0.000000 0.000000 
#    y 0.000000 2.009330 0.000000 
#    z 0.000000 0.000000 2.043870 
# 
# From -- ./inp_files/33438.got.cif
#   From: 2010.03.12/outbox.cif.g09.slc.cpg/sg73_17_cif.got.tgz:33438.got - 2010.04.16 15:25:48.
