data_PCOD8296290
_publ_section_title
;
Structure prediction by ZEFSAII (Michael W. Deem and Ramdas Pophale) SiO2 
 PCOD8296290
Probable space group: I B C A 
;
_chemical_formula_sum "Si O2"
_cell_formula_units_Z 120
_cell_length_a 12.599426
_cell_length_b 18.389589
_cell_length_c 23.793091
_cell_angle_alpha 90.000000
_cell_angle_beta 90.000000
_cell_angle_gamma 90.000000
_cell_volume 5512.817922
_symmetry_space_group_name_H-M "I B C A "
_symmetry_group_IT_number 73
_symmetry_cell_setting 'orthorhombic'
loop_
_space_group_symop_operation_xyz
x,y,z
-x,1/2-y,z
x,-y,1/2-z
1/2-x,y,-z
-x,-y,-z
x,1/2+y,-z
-x,y,1/2+z
1/2+x,-y,z
1/2+x,1/2+y,1/2+z
1/2-x,-y,1/2+z
1/2+x,1/2-y,-z
-x,1/2+y,1/2-z
1/2-x,1/2-y,1/2-z
1/2+x,y,1/2-z
1/2-x,1/2+y,z
x,1/2-y,1/2+z
loop_
_atom_site_type_symbol
_atom_site_label
_atom_site_fract_x
_atom_site_fract_y
_atom_site_fract_z
Si Si1 0.161883 0.922413 0.274860
Si Si2 0.009696 0.832111 0.839515
Si Si3 0.245719 0.368935 0.837929
Si Si4 0.040326 0.438587 0.456484
Si Si5 0.410163 0.189137 0.579722
Si Si6 0.250000 0.249515 0.000000
Si Si7 0.265263 0.474487 0.618435
Si Si8 0.128746 0.363785 0.557462
O O1 0.210316 0.872143 0.226638
O O2 0.254183 0.930870 0.322351
O O3 0.056255 0.885286 0.299091
O O4 0.126634 0.000000 0.250000
O O5 0.131695 0.850952 0.839058
O O6 0.000000 0.750000 0.817905
O O7 0.968112 0.840713 0.903116
O O8 0.173786 0.308246 0.868666
O O9 0.230202 0.443590 0.871679
O O10 0.117749 0.471758 0.408923
O O11 0.093604 0.374872 0.493172
O O12 0.000000 0.500000 0.500000
O O13 0.951520 0.394211 0.422426
O O14 0.500000 0.250000 0.590547
O O15 0.348397 0.202298 0.521124
O O16 0.286498 0.201562 0.945954
O O17 0.180655 0.439696 0.576039
#
# Coordination Sequence:
#
# PCOD8296290 Si02
#       8
#    16  16  16  16  16   8  16  16
#     4   9  23  46  72  99 135 181 236 292 357 412
#     4  11  25  41  68 101 134 180 231 283 346 427
#     4  11  25  44  69  99 134 181 231 294 348 418
#     4  12  24  38  63 100 137 179 225 293 351 417
#     4  12  27  42  64 101 138 186 229 284 349 423
#     4  12  24  42  66  90 140 190 224 276 346 422
#     4  10  21  43  68 100 135 180 234 290 347 416
#     4  11  21  41  64  93 133 180 226 276 343 420
#
# _framework density 21.767451999999999
#
# number of rings (size 3 to 8) (size 9 to 14) (size 15 to 20)
#    0.000    1.067    2.667    2.400    5.600    6.933 
#    0.000    0.000    0.000    0.000    0.000    0.000 
#    0.000    0.000    0.000    0.000    0.000    0.000 
#
# Total GULP energy -743973.114833 kJ/mol
# GULP energy per Si atom -12399.551914 kJ/mol
# Density = 2.171791 g / cm^3
# Si number density = 21.767452 Si / 1000 Ang^3
#
#
#
# Elastic Constant Matrix: (Units=GPa)
#
#
# Indices 1 2 3 4 5 6 
#
# 1 157.6354 53.2244 72.0112 0.0000 0.0000 0.0000
# 2 53.2244 84.6818 38.1153 0.0000 0.0000 0.0000
# 3 72.0112 38.1153 124.4320 0.0000 0.0000 0.0000
# 4 0.0000 0.0000 0.0000 21.4989 0.0000 0.0000
# 5 0.0000 0.0000 0.0000 0.0000 60.1774 0.0000
# 6 0.0000 0.0000 0.0000 0.0000 0.0000 34.1371
#
#
#
# Elastic Compliance Matrix: (Units=1/GPa)
#
#
# Indices 1 2 3 4 5 6 
#
# 1 0.009741 -0.004159 -0.004364 0.000000 0.000000 0.000000
# 2 -0.004159 0.015473 -0.002333 0.000000 0.000000 0.000000
# 3 -0.004364 -0.002333 0.011276 0.000000 0.000000 0.000000
# 4 0.000000 0.000000 0.000000 0.046514 0.000000 0.000000
# 5 0.000000 0.000000 0.000000 0.000000 0.016618 0.000000
# 6 0.000000 0.000000 0.000000 0.000000 0.000000 0.029294
#
#
# Mechanical properties :
#
#
# Convention : Reuss Voigt Hill
#
# Bulk Modulus (GPa) = 67.65773 77.05009 72.35391
# Shear Modulus (GPa) = 32.14352 36.72257 34.43304
#
# Velocity S-wave (km/s) = 3.84693 4.11182 3.98157
# Velocity P-wave (km/s) = 7.13311 7.61685 7.37895
#
# Compressibility (1/GPa) = 0.01478028
#
# Stress axis : x y z
#
# Youngs Moduli (GPa) = 102.65627 64.63014 88.68056
#
# Poissons Ratio (x) = 0.26877 0.38697
# Poissons Ratio (y) = 0.42690 0.20688
# Poissons Ratio (z) = 0.44795 0.15077
#
# Static dielectric constant tensor:
#      x y z
#    x 3.930770 0.000000 0.000000 
#    y 0.000000 4.253160 0.000000 
#    z 0.000000 0.000000 4.030530 
# 
# 
# High freq. dielectric constant tensor:
#      x y z
#    x 1.861060 0.000000 0.000000 
#    y 0.000000 1.860730 0.000000 
#    z 0.000000 0.000000 1.854150 
# 
# From -- ./inp_files/29073.got.cif
#   From: 2010.03.12/outbox.cif.g09.slc.cpg/sg73_15_cif.got.tgz:29073.got - 2010.04.16 15:25:48.
