data_PCOD8296431
_publ_section_title
;
Structure prediction by ZEFSAII (Michael W. Deem and Ramdas Pophale) SiO2 
 PCOD8296431
Probable space group: I B C A 
;
_chemical_formula_sum "Si O2"
_cell_formula_units_Z 112
_cell_length_a 17.176447
_cell_length_b 27.585757
_cell_length_c 11.205425
_cell_angle_alpha 90.000000
_cell_angle_beta 90.000000
_cell_angle_gamma 90.000000
_cell_volume 5309.413785
_symmetry_space_group_name_H-M "I B C A "
_symmetry_group_IT_number 73
_symmetry_cell_setting 'orthorhombic'
loop_
_space_group_symop_operation_xyz
x,y,z
-x,1/2-y,z
x,-y,1/2-z
1/2-x,y,-z
-x,-y,-z
x,1/2+y,-z
-x,y,1/2+z
1/2+x,-y,z
1/2+x,1/2+y,1/2+z
1/2-x,-y,1/2+z
1/2+x,1/2-y,-z
-x,1/2+y,1/2-z
1/2-x,1/2-y,1/2-z
1/2+x,y,1/2-z
1/2-x,1/2+y,z
x,1/2-y,1/2+z
loop_
_atom_site_type_symbol
_atom_site_label
_atom_site_fract_x
_atom_site_fract_y
_atom_site_fract_z
Si Si1 0.602889 0.882664 0.562642
Si Si2 0.353260 0.317565 0.146972
Si Si3 0.935075 0.653425 0.369280
Si Si4 0.325993 0.432579 0.346342
Si Si5 0.707326 0.637450 0.276421
Si Si6 0.827966 0.961637 0.570565
Si Si7 0.837813 0.787107 0.046226
O O1 0.650299 0.849034 0.472025
O O2 0.522462 0.856223 0.590414
O O3 0.652220 0.888295 0.682026
O O4 0.599918 0.936674 0.502240
O O5 0.427494 0.332054 0.229537
O O6 0.274737 0.328508 0.220594
O O7 0.362719 0.262178 0.109528
O O8 0.893364 0.602309 0.392862
O O9 0.897127 0.698559 0.440803
O O10 0.243633 0.404756 0.361002
O O11 0.331494 0.441907 0.204629
O O12 0.333019 0.480296 0.426881
O O13 0.653146 0.670856 0.356816
O O14 0.750000 0.945786 0.500000
O O15 0.750000 0.782658 0.000000
#
# Coordination Sequence:
#
# PCOD8296431 Si02
#       7
#    16  16  16  16  16  16  16
#     4  12  24  44  68  96 140 184 220 280 352 411
#     4  11  24  45  66  95 133 180 236 282 330 406
#     4  11  27  44  64  99 143 180 220 285 344 414
#     4  10  22  41  68  99 133 164 225 284 328 408
#     4  11  22  42  71  97 128 177 233 281 336 398
#     4  11  21  40  73  98 123 175 222 278 341 404
#     4  12  24  41  70 101 131 182 231 287 339 395
#
# _framework density 21.094608000000001
#
# number of rings (size 3 to 8) (size 9 to 14) (size 15 to 20)
#    0.000    0.857    7.143    1.714    6.000    1.143 
#    0.000    0.000    6.286    0.000    0.000    0.000 
#    0.000    0.000    0.000    0.000    0.000    0.000 
#
# Total GULP energy -694256.656213 kJ/mol
# GULP energy per Si atom -12397.440290 kJ/mol
# Density = 2.104660 g / cm^3
# Si number density = 21.094608 Si / 1000 Ang^3
#
#
#
# Elastic Constant Matrix: (Units=GPa)
#
#
# Indices 1 2 3 4 5 6 
#
# 1 73.0028 26.6072 20.2932 0.0004 -0.0005 0.0002
# 2 26.6072 147.4280 31.9202 0.0007 -0.0003 0.0005
# 3 20.2932 31.9202 64.3599 0.0022 -0.0019 0.0021
# 4 0.0004 0.0007 0.0022 41.3204 -0.0003 0.0002
# 5 -0.0005 -0.0003 -0.0019 -0.0003 23.1343 -0.0001
# 6 0.0002 0.0005 0.0021 0.0002 -0.0001 17.4466
#
#
#
# Elastic Compliance Matrix: (Units=1/GPa)
#
#
# Indices 1 2 3 4 5 6 
#
# 1 0.015498 -0.001948 -0.003920 0.000000 0.000000 0.000000
# 2 -0.001948 0.007844 -0.003276 0.000000 0.000000 0.000000
# 3 -0.003920 -0.003276 0.018399 -0.000001 0.000001 -0.000002
# 4 0.000000 0.000000 -0.000001 0.024201 0.000000 0.000000
# 5 0.000000 0.000000 0.000001 0.000000 0.043226 0.000000
# 6 0.000000 0.000000 -0.000002 0.000000 0.000000 0.057318
#
#
# Mechanical properties :
#
#
# Convention : Reuss Voigt Hill
#
# Bulk Modulus (GPa) = 42.64177 49.15909 45.90043
# Shear Modulus (GPa) = 25.96173 30.11162 28.03668
#
# Velocity S-wave (km/s) = 3.51198 3.78227 3.64963
# Velocity P-wave (km/s) = 6.05836 6.51374 6.29017
#
# Compressibility (1/GPa) = 0.02345118
#
# Stress axis : x y z
#
# Youngs Moduli (GPa) = 64.52471 127.48808 54.35217
#
# Poissons Ratio (x) = 0.24837 0.21308
# Poissons Ratio (y) = 0.12571 0.17806
# Poissons Ratio (z) = 0.25296 0.41765
#
# Static dielectric constant tensor:
#      x y z
#    x 3.600620 0.000000 0.000000 
#    y 0.000000 4.121250 0.000000 
#    z 0.000000 0.000000 4.048040 
# 
# 
# High freq. dielectric constant tensor:
#      x y z
#    x 1.794560 0.000000 0.000000 
#    y 0.000000 1.837590 0.000000 
#    z 0.000000 0.000000 1.841800 
# 
# From -- ./inp_files/11259.got.cif
#   From: 2010.03.12/outbox.cif.g09.slc.cpg/sg73_6_cif.got.tgz:11259.got - 2010.04.16 15:25:48.
