data_PCOD8296789
_publ_section_title
;
Structure prediction by ZEFSAII (Michael W. Deem and Ramdas Pophale) SiO2 
 PCOD8296789
Probable space group: I B C A 
;
_chemical_formula_sum "Si O2"
_cell_formula_units_Z 88
_cell_length_a 16.889865
_cell_length_b 17.834135
_cell_length_c 14.210540
_cell_angle_alpha 90.000000
_cell_angle_beta 90.000000
_cell_angle_gamma 90.000000
_cell_volume 4280.443900
_symmetry_space_group_name_H-M "I B C A "
_symmetry_group_IT_number 73
_symmetry_cell_setting 'orthorhombic'
loop_
_space_group_symop_operation_xyz
x,y,z
-x,1/2-y,z
x,-y,1/2-z
1/2-x,y,-z
-x,-y,-z
x,1/2+y,-z
-x,y,1/2+z
1/2+x,-y,z
1/2+x,1/2+y,1/2+z
1/2-x,-y,1/2+z
1/2+x,1/2-y,-z
-x,1/2+y,1/2-z
1/2-x,1/2-y,1/2-z
1/2+x,y,1/2-z
1/2-x,1/2+y,z
x,1/2-y,1/2+z
loop_
_atom_site_type_symbol
_atom_site_label
_atom_site_fract_x
_atom_site_fract_y
_atom_site_fract_z
Si Si1 0.300722 0.682372 0.216209
Si Si2 0.307910 0.045039 0.156894
Si Si3 0.464837 0.574643 0.954250
Si Si4 0.750000 0.439284 0.500000
Si Si5 0.917719 0.215157 0.553641
Si Si6 0.381043 0.158190 0.587529
O O1 0.250000 0.750000 0.250000
O O2 0.244135 0.619062 0.172977
O O3 0.355494 0.719600 0.137210
O O4 0.348883 0.654461 0.306753
O O5 0.395452 0.060472 0.119284
O O6 0.322990 0.000000 0.250000
O O7 0.258222 0.992019 0.089293
O O8 0.533576 0.620337 0.902292
O O9 0.500000 0.500000 0.000000
O O10 0.428421 0.626859 0.035414
O O11 0.673072 0.388245 0.515023
O O12 0.888278 0.258832 0.458955
O O13 0.000000 0.250000 0.589930
#
# Coordination Sequence:
#
# PCOD8296789 Si02
#       6
#    16  16  16   8  16  16
#     4  12  26  43  71 105 137 182 237 291 357 422
#     4  12  26  43  69 103 138 185 236 286 351 430
#     4  11  24  45  69  98 141 188 232 290 360 419
#     4  12  22  46  72  96 148 180 232 296 358 414
#     4  10  25  45  70 100 137 183 235 288 359 428
#     4  11  24  45  70  98 141 182 228 297 353 419
#
# _framework density 20.558615
#
# number of rings (size 3 to 8) (size 9 to 14) (size 15 to 20)
#    0.000    0.727    3.636    3.273    0.000    6.545 
#    0.000    0.000    0.000    0.000    0.000    0.000 
#    0.000    0.000    0.000    0.000    0.000    0.000 
#
# Total GULP energy -545645.254097 kJ/mol
# GULP energy per Si atom -12401.028502 kJ/mol
# Density = 2.051182 g / cm^3
# Si number density = 20.558615 Si / 1000 Ang^3
#
#
#
# Elastic Constant Matrix: (Units=GPa)
#
#
# Indices 1 2 3 4 5 6 
#
# 1 133.7299 55.5844 62.9390 0.0000 0.0000 0.0000
# 2 55.5844 140.3384 57.3837 0.0000 0.0000 0.0000
# 3 62.9390 57.3837 121.6570 0.0000 0.0000 0.0000
# 4 0.0000 0.0000 0.0000 37.6299 0.0000 0.0000
# 5 0.0000 0.0000 0.0000 0.0000 159.7061 0.0000
# 6 0.0000 0.0000 0.0000 0.0000 0.0000 43.5217
#
#
#
# Elastic Compliance Matrix: (Units=1/GPa)
#
#
# Indices 1 2 3 4 5 6 
#
# 1 0.010499 -0.002400 -0.004299 0.000000 0.000000 0.000000
# 2 -0.002400 0.009377 -0.003181 0.000000 0.000000 0.000000
# 3 -0.004299 -0.003181 0.011945 0.000000 0.000000 0.000000
# 4 0.000000 0.000000 0.000000 0.026575 0.000000 0.000000
# 5 0.000000 0.000000 0.000000 0.000000 0.006262 0.000000
# 6 0.000000 0.000000 0.000000 0.000000 0.000000 0.022977
#
#
# Mechanical properties :
#
#
# Convention : Reuss Voigt Hill
#
# Bulk Modulus (GPa) = 82.92721 83.05994 82.99357
# Shear Modulus (GPa) = 44.87709 62.82610 53.85159
#
# Velocity S-wave (km/s) = 4.67720 5.53406 5.12358
# Velocity P-wave (km/s) = 8.34223 9.01796 8.68667
#
# Compressibility (1/GPa) = 0.01205877
#
# Stress axis : x y z
#
# Youngs Moduli (GPa) = 95.24771 106.64231 83.71943
#
# Poissons Ratio (x) = 0.25598 0.35994
# Poissons Ratio (y) = 0.22863 0.26633
# Poissons Ratio (z) = 0.40951 0.33925
#
# Static dielectric constant tensor:
#      x y z
#    x 3.964610 0.000000 0.000000 
#    y 0.000000 4.029830 0.000000 
#    z 0.000000 0.000000 3.675440 
# 
# 
# High freq. dielectric constant tensor:
#      x y z
#    x 1.825910 0.000000 0.000000 
#    y 0.000000 1.823490 0.000000 
#    z 0.000000 0.000000 1.802290 
# 
# From -- ./inp_files/17965.got.cif
#   From: 2010.03.12/outbox.cif.g09.slc.cpg/sg73_9_cif.got.tgz:17965.got - 2010.04.16 15:25:48.
