data_PCOD8296262
_publ_section_title
;
Structure prediction by ZEFSAII (Michael W. Deem and Ramdas Pophale) SiO2 
 PCOD8296262
Probable space group: I B C A 
;
_chemical_formula_sum "Si O2"
_cell_formula_units_Z 80
_cell_length_a 26.850631
_cell_length_b 16.795876
_cell_length_c 9.734613
_cell_angle_alpha 90.000000
_cell_angle_beta 90.000000
_cell_angle_gamma 90.000000
_cell_volume 4390.114494
_symmetry_space_group_name_H-M "I B C A "
_symmetry_group_IT_number 73
_symmetry_cell_setting 'orthorhombic'
loop_
_space_group_symop_operation_xyz
x,y,z
-x,1/2-y,z
x,-y,1/2-z
1/2-x,y,-z
-x,-y,-z
x,1/2+y,-z
-x,y,1/2+z
1/2+x,-y,z
1/2+x,1/2+y,1/2+z
1/2-x,-y,1/2+z
1/2+x,1/2-y,-z
-x,1/2+y,1/2-z
1/2-x,1/2-y,1/2-z
1/2+x,y,1/2-z
1/2-x,1/2+y,z
x,1/2-y,1/2+z
loop_
_atom_site_type_symbol
_atom_site_label
_atom_site_fract_x
_atom_site_fract_y
_atom_site_fract_z
Si Si1 0.640322 0.249454 0.764806
Si Si2 0.191285 0.682344 0.006011
Si Si3 0.034315 0.176715 0.761465
Si Si4 0.869154 0.078631 0.673269
Si Si5 0.474181 0.418946 0.461820
O O1 0.670766 0.246752 0.908157
O O2 0.674258 0.202525 0.658386
O O3 0.588129 0.206075 0.787016
O O4 0.630901 0.343273 0.726266
O O5 0.167357 0.598136 0.955733
O O6 0.250000 0.675545 0.000000
O O7 0.000000 0.250000 0.802470
O O8 0.011728 0.130370 0.632737
O O9 0.040150 0.125567 0.898669
O O10 0.924603 0.061753 0.621811
O O11 0.849102 0.000000 0.750000
O O12 0.500000 0.500000 0.500000
#
# Coordination Sequence:
#
# PCOD8296262 Si02
#       5
#    16  16  16  16  16
#     4  10  22  38  66  92 122 159 209 257 304 370
#     4  10  21  41  69  92 119 159 214 261 311 362
#     4  12  22  39  60  92 122 165 205 247 303 372
#     4  10  22  40  61  88 128 164 199 252 318 365
#     4  12  25  38  61  88 129 164 204 247 309 369
#
# _framework density 18.222757999999999
#
# number of rings (size 3 to 8) (size 9 to 14) (size 15 to 20)
#    1.200    0.000    4.000    3.000    2.800    0.000 
#    0.000    1.000    4.400    0.000    0.000    0.000 
#    0.000    0.000    0.000    0.000    0.000    0.000 
#
# Total GULP energy -495807.778191 kJ/mol
# GULP energy per Si atom -12395.194455 kJ/mol
# Density = 1.818128 g / cm^3
# Si number density = 18.222758 Si / 1000 Ang^3
#
#
#
# Elastic Constant Matrix: (Units=GPa)
#
#
# Indices 1 2 3 4 5 6 
#
# 1 131.1301 21.8163 15.2081 0.0000 0.0000 0.0000
# 2 21.8163 80.3059 13.6840 0.0000 0.0000 0.0000
# 3 15.2081 13.6840 51.4841 0.0000 0.0000 0.0000
# 4 0.0000 0.0000 0.0000 35.3282 0.0000 0.0000
# 5 0.0000 0.0000 0.0000 0.0000 30.1048 0.0000
# 6 0.0000 0.0000 0.0000 0.0000 0.0000 14.3043
#
#
#
# Elastic Compliance Matrix: (Units=1/GPa)
#
#
# Indices 1 2 3 4 5 6 
#
# 1 0.008162 -0.001892 -0.001908 0.000000 0.000000 0.000000
# 2 -0.001892 0.013482 -0.003024 0.000000 0.000000 0.000000
# 3 -0.001908 -0.003024 0.020791 0.000000 0.000000 0.000000
# 4 0.000000 0.000000 0.000000 0.028306 0.000000 0.000000
# 5 0.000000 0.000000 0.000000 0.000000 0.033217 0.000000
# 6 0.000000 0.000000 0.000000 0.000000 0.000000 0.069909
#
#
# Mechanical properties :
#
#
# Convention : Reuss Voigt Hill
#
# Bulk Modulus (GPa) = 34.73977 40.48189 37.61083
# Shear Modulus (GPa) = 25.36634 30.09492 27.73063
#
# Velocity S-wave (km/s) = 3.73502 4.06828 3.90520
# Velocity P-wave (km/s) = 6.14051 6.65816 6.40456
#
# Compressibility (1/GPa) = 0.02878545
#
# Stress axis : x y z
#
# Youngs Moduli (GPa) = 122.51712 74.17417 48.09778
#
# Poissons Ratio (x) = 0.14035 0.09178
# Poissons Ratio (y) = 0.23183 0.14547
# Poissons Ratio (z) = 0.23378 0.22433
#
# Static dielectric constant tensor:
#      x y z
#    x 3.380570 0.000000 0.000000 
#    y 0.000000 3.160770 0.000000 
#    z 0.000000 0.000000 3.370220 
# 
# 
# High freq. dielectric constant tensor:
#      x y z
#    x 1.711400 0.000000 0.000000 
#    y 0.000000 1.697780 0.000000 
#    z 0.000000 0.000000 1.706840 
# 
# From -- ./inp_files/8347.got.cif
#   From: 2010.03.12/outbox.cif.g09.slc.cpg/sg73_5_cif.got.tgz:8347.got - 2010.04.16 15:25:48.
