data_PCOD8296072
_publ_section_title
;
Structure prediction by ZEFSAII (Michael W. Deem and Ramdas Pophale) SiO2 
 PCOD8296072
Probable space group: I B C A 
;
_chemical_formula_sum "Si O2"
_cell_formula_units_Z 80
_cell_length_a 15.445156
_cell_length_b 11.270474
_cell_length_c 23.183767
_cell_angle_alpha 90.000000
_cell_angle_beta 90.000000
_cell_angle_gamma 90.000000
_cell_volume 4035.696369
_symmetry_space_group_name_H-M "I B C A "
_symmetry_group_IT_number 73
_symmetry_cell_setting 'orthorhombic'
loop_
_space_group_symop_operation_xyz
x,y,z
-x,1/2-y,z
x,-y,1/2-z
1/2-x,y,-z
-x,-y,-z
x,1/2+y,-z
-x,y,1/2+z
1/2+x,-y,z
1/2+x,1/2+y,1/2+z
1/2-x,-y,1/2+z
1/2+x,1/2-y,-z
-x,1/2+y,1/2-z
1/2-x,1/2-y,1/2-z
1/2+x,y,1/2-z
1/2-x,1/2+y,z
x,1/2-y,1/2+z
loop_
_atom_site_type_symbol
_atom_site_label
_atom_site_fract_x
_atom_site_fract_y
_atom_site_fract_z
Si Si1 0.661579 0.368980 0.241759
Si Si2 0.082616 0.680346 0.905802
Si Si3 0.500000 0.250000 0.516015
Si Si4 0.000000 0.250000 0.293213
Si Si5 0.417918 0.597452 0.387756
Si Si6 0.753630 0.270931 0.348313
O O1 0.626308 0.500000 0.250000
O O2 0.579543 0.281877 0.248368
O O3 0.731060 0.346351 0.291497
O O4 0.702716 0.349435 0.177562
O O5 0.084115 0.544137 0.886681
O O6 0.171396 0.742988 0.887354
O O7 0.000000 0.750000 0.877628
O O8 0.074992 0.692396 0.975443
O O9 0.538136 0.356700 0.553774
O O10 0.024805 0.137972 0.333246
O O11 0.321587 0.652827 0.385309
#
# Coordination Sequence:
#
# PCOD8296072 Si02
#       6
#    16  16   8   8  16  16
#     4  10  21  36  57  85 120 157 198 239 288 351
#     4  10  23  38  63  91 114 157 201 245 296 358
#     4   9  22  39  64  88 114 155 198 243 306 354
#     4   9  22  33  60  86 116 169 190 243 306 340
#     4  10  20  43  58  85 125 150 198 249 300 360
#     4  10  22  38  57  89 120 156 197 242 300 347
#
# _framework density 19.823097000000001
#
# number of rings (size 3 to 8) (size 9 to 14) (size 15 to 20)
#    0.600    1.600    0.000    1.800    4.200    0.800 
#    3.600    4.000    0.000    0.000    0.000    0.000 
#    0.000    0.000    0.000    0.000    0.000    0.000 
#
# Total GULP energy -495846.670449 kJ/mol
# GULP energy per Si atom -12396.166761 kJ/mol
# Density = 1.977798 g / cm^3
# Si number density = 19.823097 Si / 1000 Ang^3
#
#
#
# Elastic Constant Matrix: (Units=GPa)
#
#
# Indices 1 2 3 4 5 6 
#
# 1 137.5139 43.8635 40.5212 0.0000 0.0000 0.0000
# 2 43.8635 126.6143 31.6220 0.0000 0.0000 0.0000
# 3 40.5212 31.6220 67.7042 0.0000 0.0000 0.0000
# 4 0.0000 0.0000 0.0000 18.8790 0.0000 0.0000
# 5 0.0000 0.0000 0.0000 0.0000 44.5939 0.0000
# 6 0.0000 0.0000 0.0000 0.0000 0.0000 23.5380
#
#
#
# Elastic Compliance Matrix: (Units=1/GPa)
#
#
# Indices 1 2 3 4 5 6 
#
# 1 0.009285 -0.002070 -0.004590 0.000000 0.000000 0.000000
# 2 -0.002070 0.009403 -0.003153 0.000000 0.000000 0.000000
# 3 -0.004590 -0.003153 0.018990 0.000000 0.000000 0.000000
# 4 0.000000 0.000000 0.000000 0.052969 0.000000 0.000000
# 5 0.000000 0.000000 0.000000 0.000000 0.022425 0.000000
# 6 0.000000 0.000000 0.000000 0.000000 0.000000 0.042484
#
#
# Mechanical properties :
#
#
# Convention : Reuss Voigt Hill
#
# Bulk Modulus (GPa) = 55.39717 62.64952 59.02335
# Shear Modulus (GPa) = 27.59411 31.79057 29.69234
#
# Velocity S-wave (km/s) = 3.73502 4.00898 3.87443
# Velocity P-wave (km/s) = 6.82693 7.28712 7.06078
#
# Compressibility (1/GPa) = 0.01805146
#
# Stress axis : x y z
#
# Youngs Moduli (GPa) = 107.70166 106.35424 52.65991
#
# Poissons Ratio (x) = 0.22018 0.24172
# Poissons Ratio (y) = 0.22297 0.16601
# Poissons Ratio (z) = 0.49436 0.33529
#
# Static dielectric constant tensor:
#      x y z
#    x 3.658850 0.000000 0.000000 
#    y 0.000000 3.444390 0.000000 
#    z 0.000000 0.000000 3.491840 
# 
# 
# High freq. dielectric constant tensor:
#      x y z
#    x 1.781040 0.000000 0.000000 
#    y 0.000000 1.767190 0.000000 
#    z 0.000000 0.000000 1.763240 
# 
# From -- ./inp_files/10855.got.cif
#   From: 2010.03.12/outbox.cif.g09.slc.cpg/sg73_6_cif.got.tgz:10855.got - 2010.04.16 15:25:48.
