data_PCOD8296557
_publ_section_title
;
Structure prediction by ZEFSAII (Michael W. Deem and Ramdas Pophale) SiO2 
 PCOD8296557
Probable space group: I B C A 
;
_chemical_formula_sum "Si O2"
_cell_formula_units_Z 72
_cell_length_a 5.095039
_cell_length_b 24.121720
_cell_length_c 25.612457
_cell_angle_alpha 90.000000
_cell_angle_beta 90.000000
_cell_angle_gamma 90.000000
_cell_volume 3147.799245
_symmetry_space_group_name_H-M "I B C A "
_symmetry_group_IT_number 73
_symmetry_cell_setting 'orthorhombic'
loop_
_space_group_symop_operation_xyz
x,y,z
-x,1/2-y,z
x,-y,1/2-z
1/2-x,y,-z
-x,-y,-z
x,1/2+y,-z
-x,y,1/2+z
1/2+x,-y,z
1/2+x,1/2+y,1/2+z
1/2-x,-y,1/2+z
1/2+x,1/2-y,-z
-x,1/2+y,1/2-z
1/2-x,1/2-y,1/2-z
1/2+x,y,1/2-z
1/2-x,1/2+y,z
x,1/2-y,1/2+z
loop_
_atom_site_type_symbol
_atom_site_label
_atom_site_fract_x
_atom_site_fract_y
_atom_site_fract_z
Si Si1 0.250000 0.538298 0.000000
Si Si2 0.392869 0.127803 0.916037
Si Si3 0.500000 0.750000 0.286634
Si Si4 0.250000 0.784202 0.500000
Si Si5 0.210671 0.524763 0.692790
Si Si6 0.407334 0.138063 0.651527
O O1 0.309543 0.574953 0.050520
O O2 0.500000 0.500000 0.000000
O O3 0.351156 0.181854 0.950676
O O4 0.693825 0.131853 0.895315
O O5 0.200062 0.126304 0.867266
O O6 0.750000 0.750000 0.250000
O O7 0.568139 0.802044 0.322955
O O8 0.500000 0.750000 0.479480
O O9 0.273990 0.500000 0.750000
O O10 0.479921 0.508859 0.662678
O O11 0.162883 0.590795 0.694408
#
# Coordination Sequence:
#
# PCOD8296557 Si02
#       6
#     8  16   8   8  16  16
#     4  11  24  45  74 104 160 189 230 295 368 440
#     4  11  26  44  69 111 138 188 237 290 355 424
#     4  12  30  48  74  98 144 200 238 314 384 430
#     4  11  24  43  72  98 146 181 226 287 350 420
#     4  10  23  40  67  94 130 176 228 292 352 405
#     4  12  26  45  73 103 146 183 253 292 358 454
#
# _framework density 22.873121000000001
#
# number of rings (size 3 to 8) (size 9 to 14) (size 15 to 20)
#    0.000    0.889    0.000    5.333   10.889    8.889 
#    0.000    0.000    0.000    0.000    0.000    0.000 
#    0.000    0.000    0.000    0.000    0.000    0.000 
#
# Total GULP energy -446013.545312 kJ/mol
# GULP energy per Si atom -12389.265148 kJ/mol
# Density = 2.282106 g / cm^3
# Si number density = 22.873121 Si / 1000 Ang^3
#
#
#
# Elastic Constant Matrix: (Units=GPa)
#
#
# Indices 1 2 3 4 5 6 
#
# 1 158.5015 40.2134 13.3314 0.0000 0.0000 0.0000
# 2 40.2134 167.7134 44.8963 0.0000 0.0000 0.0000
# 3 13.3314 44.8963 77.4384 0.0000 0.0000 0.0000
# 4 0.0000 0.0000 0.0000 -133.8336 0.0000 0.0000
# 5 0.0000 0.0000 0.0000 0.0000 29.0820 0.0000
# 6 0.0000 0.0000 0.0000 0.0000 0.0000 41.1107
#
#
#
# Elastic Compliance Matrix: (Units=1/GPa)
#
#
# Indices 1 2 3 4 5 6 
#
# 1 0.006722 -0.001541 -0.000264 0.000000 0.000000 0.000000
# 2 -0.001541 0.007411 -0.004032 0.000000 0.000000 0.000000
# 3 -0.000264 -0.004032 0.015296 0.000000 0.000000 0.000000
# 4 0.000000 0.000000 0.000000 -0.007472 0.000000 0.000000
# 5 0.000000 0.000000 0.000000 0.000000 0.034386 0.000000
# 6 0.000000 0.000000 0.000000 0.000000 0.000000 0.024325
#
#
# Mechanical properties :
#
#
# Convention : Reuss Voigt Hill
#
# Bulk Modulus (GPa) = 56.31610 66.72615 61.52112
# Shear Modulus (GPa) = 50.88548 7.61932 29.25240
#
# Velocity S-wave (km/s) = 4.72177 1.82712 3.58005
# Velocity P-wave (km/s) = 7.37573 5.80403 6.63657
#
# Compressibility (1/GPa) = 0.01775691
#
# Stress axis : x y z
#
# Youngs Moduli (GPa) = 148.75873 134.92865 65.37561
#
# Poissons Ratio (x) = 0.20796 0.01724
# Poissons Ratio (y) = 0.22927 0.26356
# Poissons Ratio (z) = 0.03923 0.54397
#
# Static dielectric constant tensor:
#      x y z
#    x 4.970930 0.000000 0.000000 
#    y 0.000000 4.288110 0.000000 
#    z 0.000000 0.000000 3.929280 
# 
# 
# High freq. dielectric constant tensor:
#      x y z
#    x 1.938670 0.000000 0.000000 
#    y 0.000000 1.920500 0.000000 
#    z 0.000000 0.000000 1.889730 
# 
# From -- ./inp_files/1721.got.cif
#   From: 2010.03.12/outbox.cif.g09.slc.cpg/sg73_1_cif.got.tgz:1721.got - 2010.04.16 15:25:48.
