data_PCOD8296008
_publ_section_title
;
Structure prediction by ZEFSAII (Michael W. Deem and Ramdas Pophale) SiO2 
 PCOD8296008
Probable space group: I B C A 
;
_chemical_formula_sum "Si O2"
_cell_formula_units_Z 80
_cell_length_a 12.127096
_cell_length_b 23.316487
_cell_length_c 13.552702
_cell_angle_alpha 90.000000
_cell_angle_beta 90.000000
_cell_angle_gamma 90.000000
_cell_volume 3832.179314
_symmetry_space_group_name_H-M "I B C A "
_symmetry_group_IT_number 73
_symmetry_cell_setting 'orthorhombic'
loop_
_space_group_symop_operation_xyz
x,y,z
-x,1/2-y,z
x,-y,1/2-z
1/2-x,y,-z
-x,-y,-z
x,1/2+y,-z
-x,y,1/2+z
1/2+x,-y,z
1/2+x,1/2+y,1/2+z
1/2-x,-y,1/2+z
1/2+x,1/2-y,-z
-x,1/2+y,1/2-z
1/2-x,1/2-y,1/2-z
1/2+x,y,1/2-z
1/2-x,1/2+y,z
x,1/2-y,1/2+z
loop_
_atom_site_type_symbol
_atom_site_label
_atom_site_fract_x
_atom_site_fract_y
_atom_site_fract_z
Si Si1 0.408223 0.702974 0.136578
Si Si2 0.250000 0.236302 0.500000
Si Si3 0.064781 0.852160 0.007370
Si Si4 0.451089 0.500000 0.750000
Si Si5 0.804204 0.948456 0.400468
Si Si6 0.399737 0.103016 0.708043
O O1 0.500000 0.750000 0.171612
O O2 0.382340 0.658728 0.223985
O O3 0.292551 0.728953 0.096954
O O4 0.453962 0.670768 0.040446
O O5 0.148540 0.198293 0.462263
O O6 0.032354 0.882127 0.109318
O O7 0.121784 0.894517 0.929962
O O8 0.374839 0.498592 0.848234
O O9 0.525972 0.444017 0.761717
O O10 0.750000 0.974973 0.500000
O O11 0.717077 0.924483 0.321204
#
# Coordination Sequence:
#
# PCOD8296008 Si02
#       6
#    16   8  16   8  16  16
#     4  10  23  40  64  99 128 167 218 268 329 395
#     4  10  20  40  64  88 134 172 206 264 334 400
#     4  10  20  43  61  90 133 168 207 272 332 387
#     4  12  24  42  68  98 126 170 226 276 324 398
#     4  10  22  43  65  90 133 173 208 273 337 385
#     4  11  23  41  67  93 127 170 221 269 328 400
#
# _framework density 20.87585
#
# number of rings (size 3 to 8) (size 9 to 14) (size 15 to 20)
#    0.000    1.600    5.000    0.600    0.000    8.000 
#    3.600    0.000    0.000    0.000    0.000    0.000 
#    0.000    0.000    0.000    0.000    0.000    0.000 
#
# Total GULP energy -495852.630483 kJ/mol
# GULP energy per Si atom -12396.315762 kJ/mol
# Density = 2.082834 g / cm^3
# Si number density = 20.875850 Si / 1000 Ang^3
#
#
#
# Elastic Constant Matrix: (Units=GPa)
#
#
# Indices 1 2 3 4 5 6 
#
# 1 60.8058 27.5403 41.3788 0.0000 0.0000 0.0000
# 2 27.5403 79.1232 43.3466 0.0010 -0.0001 -0.0005
# 3 41.3788 43.3466 93.3624 0.0011 -0.0001 -0.0004
# 4 0.0000 0.0010 0.0011 37.6961 -0.0001 -0.0005
# 5 0.0000 -0.0001 -0.0001 -0.0001 27.6893 0.0001
# 6 0.0000 -0.0005 -0.0004 -0.0005 0.0001 17.5665
#
#
#
# Elastic Compliance Matrix: (Units=1/GPa)
#
#
# Indices 1 2 3 4 5 6 
#
# 1 0.024219 -0.003419 -0.009146 0.000000 0.000000 0.000000
# 2 -0.003419 0.017432 -0.006578 0.000000 0.000000 0.000000
# 3 -0.009146 -0.006578 0.017819 0.000000 0.000000 0.000000
# 4 0.000000 0.000000 0.000000 0.026528 0.000000 0.000001
# 5 0.000000 0.000000 0.000000 0.000000 0.036115 0.000000
# 6 0.000000 0.000000 0.000000 0.000001 0.000000 0.056927
#
#
# Mechanical properties :
#
#
# Convention : Reuss Voigt Hill
#
# Bulk Modulus (GPa) = 47.20882 50.86921 49.03901
# Shear Modulus (GPa) = 22.28289 24.65876 23.47083
#
# Velocity S-wave (km/s) = 3.27065 3.44060 3.35670
# Velocity P-wave (km/s) = 6.07668 6.34067 6.21008
#
# Compressibility (1/GPa) = 0.02118248
#
# Stress axis : x y z
#
# Youngs Moduli (GPa) = 41.29070 57.36456 56.12029
#
# Poissons Ratio (x) = 0.19613 0.51330
# Poissons Ratio (y) = 0.14117 0.36917
# Poissons Ratio (z) = 0.37766 0.37736
#
# Static dielectric constant tensor:
#      x y z
#    x 3.697930 0.000000 0.000000 
#    y 0.000000 3.799300 0.000000 
#    z 0.000000 0.000000 3.797270 
# 
# 
# High freq. dielectric constant tensor:
#      x y z
#    x 1.812390 0.000000 0.000000 
#    y 0.000000 1.813320 0.000000 
#    z 0.000000 0.000000 1.816690 
# 
# From -- ./inp_files/10870.got.cif
#   From: 2010.03.12/outbox.cif.g09.slc.cpg/sg73_6_cif.got.tgz:10870.got - 2010.04.16 15:25:48.
