data_PCOD8296102
_publ_section_title
;
Structure prediction by ZEFSAII (Michael W. Deem and Ramdas Pophale) SiO2 
 PCOD8296102
Probable space group: I B C A 
;
_chemical_formula_sum "Si O2"
_cell_formula_units_Z 88
_cell_length_a 25.396372
_cell_length_b 35.799370
_cell_length_c 5.090762
_cell_angle_alpha 90.000000
_cell_angle_beta 90.000000
_cell_angle_gamma 90.000000
_cell_volume 4628.389051
_symmetry_space_group_name_H-M "I B C A "
_symmetry_group_IT_number 73
_symmetry_cell_setting 'orthorhombic'
loop_
_space_group_symop_operation_xyz
x,y,z
-x,1/2-y,z
x,-y,1/2-z
1/2-x,y,-z
-x,-y,-z
x,1/2+y,-z
-x,y,1/2+z
1/2+x,-y,z
1/2+x,1/2+y,1/2+z
1/2-x,-y,1/2+z
1/2+x,1/2-y,-z
-x,1/2+y,1/2-z
1/2-x,1/2-y,1/2-z
1/2+x,y,1/2-z
1/2-x,1/2+y,z
x,1/2-y,1/2+z
loop_
_atom_site_type_symbol
_atom_site_label
_atom_site_fract_x
_atom_site_fract_y
_atom_site_fract_z
Si Si1 0.187232 0.727905 0.507031
Si Si2 0.188271 0.644236 0.447497
Si Si3 0.812503 0.023079 0.499469
Si Si4 0.463829 0.000000 0.750000
Si Si5 0.536245 0.419890 0.835645
Si Si6 0.146120 0.104972 0.060110
O O1 0.250000 0.727219 0.500000
O O2 0.165294 0.747851 0.765905
O O3 0.165383 0.685725 0.495641
O O4 0.250000 0.644084 0.500000
O O5 0.165424 0.614568 0.649653
O O6 0.171472 0.633070 0.152360
O O7 0.750000 0.027361 0.500000
O O8 0.836782 0.063789 0.481172
O O9 0.832816 0.000000 0.750000
O O10 0.832829 0.000000 0.250000
O O11 0.433738 0.960619 0.702984
O O12 0.500000 0.000000 0.500000
O O13 0.508437 0.413976 0.555424
O O14 0.582681 0.391558 0.916953
#
# Coordination Sequence:
#
# PCOD8296102 Si02
#       6
#    16  16  16   8  16  16
#     4   9  17  31  52  78 111 148 177 208 257 318
#     4  11  22  36  55  84 118 149 182 219 264 328
#     4  10  21  36  51  70 100 141 188 227 259 309
#     4   8  16  32  52  70  92 124 166 226 288 324
#     4  10  21  38  55  77 105 135 181 241 291 341
#     4  12  23  36  57  79 109 148 187 228 283 333
#
# _framework density 19.013095
#
# number of rings (size 3 to 8) (size 9 to 14) (size 15 to 20)
#    0.000    1.818    0.000    4.909    1.273    4.364 
#    6.545    0.000    0.000    0.000    0.000    0.000 
#    0.000   50.909    0.000    0.000    0.000    0.000 
#
# Total GULP energy -545191.223478 kJ/mol
# GULP energy per Si atom -12390.709625 kJ/mol
# Density = 1.896982 g / cm^3
# Si number density = 19.013095 Si / 1000 Ang^3
#
#
#
# Elastic Constant Matrix: (Units=GPa)
#
#
# Indices 1 2 3 4 5 6 
#
# 1 47.9052 26.0251 12.9410 0.0000 0.0000 0.0000
# 2 26.0251 95.7633 28.8709 0.0000 0.0000 0.0000
# 3 12.9410 28.8709 120.9524 0.0000 0.0000 0.0000
# 4 0.0000 0.0000 0.0000 24.8733 0.0000 0.0000
# 5 0.0000 0.0000 0.0000 0.0000 21.1140 0.0000
# 6 0.0000 0.0000 0.0000 0.0000 0.0000 3.8996
#
#
#
# Elastic Compliance Matrix: (Units=1/GPa)
#
#
# Indices 1 2 3 4 5 6 
#
# 1 0.024630 -0.006356 -0.001118 0.000000 0.000000 0.000000
# 2 -0.006356 0.012893 -0.002397 0.000000 0.000000 0.000000
# 3 -0.001118 -0.002397 0.008960 0.000000 0.000000 0.000000
# 4 0.000000 0.000000 0.000000 0.040204 0.000000 0.000000
# 5 0.000000 0.000000 0.000000 0.000000 0.047362 0.000000
# 6 0.000000 0.000000 0.000000 0.000000 0.000000 0.256437
#
#
# Mechanical properties :
#
#
# Convention : Reuss Voigt Hill
#
# Bulk Modulus (GPa) = 37.39925 44.47721 40.93823
# Shear Modulus (GPa) = 11.92915 23.09629 17.51272
#
# Velocity S-wave (km/s) = 2.50755 3.48912 3.03823
# Velocity P-wave (km/s) = 5.30063 6.29886 5.82118
#
# Compressibility (1/GPa) = 0.02673850
#
# Stress axis : x y z
#
# Youngs Moduli (GPa) = 40.60124 77.56363 111.61261
#
# Poissons Ratio (x) = 0.49303 0.12477
# Poissons Ratio (y) = 0.25808 0.26757
# Poissons Ratio (z) = 0.04539 0.18595
#
# Static dielectric constant tensor:
#      x y z
#    x 3.182360 0.000000 0.000000 
#    y 0.000000 3.708040 0.000000 
#    z 0.000000 0.000000 3.783400 
# 
# 
# High freq. dielectric constant tensor:
#      x y z
#    x 1.704080 0.000000 0.000000 
#    y 0.000000 1.729740 0.000000 
#    z 0.000000 0.000000 1.763710 
# 
# From -- ./inp_files/2260.got.cif
#   From: 2010.03.12/outbox.cif.g09.slc.cpg/sg73_2_cif.got.tgz:2260.got - 2010.04.16 15:25:48.
