data_PCOD8296312
_publ_section_title
;
Structure prediction by ZEFSAII (Michael W. Deem and Ramdas Pophale) SiO2 
 PCOD8296312
Probable space group: I B C A 
;
_chemical_formula_sum "Si O2"
_cell_formula_units_Z 96
_cell_length_a 17.290522
_cell_length_b 12.127693
_cell_length_c 22.502398
_cell_angle_alpha 90.000000
_cell_angle_beta 90.000000
_cell_angle_gamma 90.000000
_cell_volume 4718.621056
_symmetry_space_group_name_H-M "I B C A "
_symmetry_group_IT_number 73
_symmetry_cell_setting 'orthorhombic'
loop_
_space_group_symop_operation_xyz
x,y,z
-x,1/2-y,z
x,-y,1/2-z
1/2-x,y,-z
-x,-y,-z
x,1/2+y,-z
-x,y,1/2+z
1/2+x,-y,z
1/2+x,1/2+y,1/2+z
1/2-x,-y,1/2+z
1/2+x,1/2-y,-z
-x,1/2+y,1/2-z
1/2-x,1/2-y,1/2-z
1/2+x,y,1/2-z
1/2-x,1/2+y,z
x,1/2-y,1/2+z
loop_
_atom_site_type_symbol
_atom_site_label
_atom_site_fract_x
_atom_site_fract_y
_atom_site_fract_z
Si Si1 0.698887 0.927006 0.112602
Si Si2 0.864848 0.883841 0.147189
Si Si3 0.960653 0.000000 0.250000
Si Si4 0.360374 0.168333 0.587388
Si Si5 0.750000 0.705378 0.500000
Si Si6 0.006728 0.954250 0.564978
Si Si7 0.456961 0.136144 0.843799
O O1 0.778839 0.931230 0.148413
O O2 0.636549 0.856416 0.151563
O O3 0.675928 0.053484 0.106780
O O4 0.707041 0.870947 0.048131
O O5 0.908653 0.929900 0.204503
O O6 0.859189 0.750564 0.144479
O O7 0.907360 0.918154 0.085164
O O8 0.016178 0.911193 0.280586
O O9 0.313511 0.217979 0.531746
O O10 0.449677 0.150198 0.570071
O O11 0.000000 0.000000 0.500000
O O12 0.981403 0.054307 0.605251
O O13 0.500000 0.250000 0.855581
#
# Coordination Sequence:
#
# PCOD8296312 Si02
#       7
#    16  16   8  16   8  16  16
#     4  10  23  40  59  98 126 165 210 263 314 390
#     4  10  23  42  64  89 125 165 217 263 324 368
#     4  10  24  46  64  90 120 170 222 276 306 392
#     4  10  22  37  61  89 129 174 199 257 321 380
#     4  10  22  34  62  90 138 166 206 254 320 376
#     4  10  23  36  61  93 127 166 213 253 306 394
#     4  10  24  41  63  91 128 165 212 268 323 371
#
# _framework density 20.344926000000001
#
# number of rings (size 3 to 8) (size 9 to 14) (size 15 to 20)
#    0.000    2.000    0.000    1.000   14.000    8.667 
#    0.000    1.667    0.000    0.000    0.000    0.000 
#    0.000    0.000    0.000    0.000    0.000    0.000 
#
# Total GULP energy -595043.301471 kJ/mol
# GULP energy per Si atom -12396.735447 kJ/mol
# Density = 2.029862 g / cm^3
# Si number density = 20.344926 Si / 1000 Ang^3
#
#
#
# Elastic Constant Matrix: (Units=GPa)
#
#
# Indices 1 2 3 4 5 6 
#
# 1 172.9334 59.6302 58.9032 0.0000 0.0000 0.0000
# 2 59.6302 119.8091 43.5795 0.0000 0.0000 0.0000
# 3 58.9032 43.5795 112.2551 0.0000 0.0000 0.0000
# 4 0.0000 0.0000 0.0000 18.1971 0.0000 0.0000
# 5 0.0000 0.0000 0.0000 0.0000 25.0742 0.0000
# 6 0.0000 0.0000 0.0000 0.0000 0.0000 8.8293
#
#
#
# Elastic Compliance Matrix: (Units=1/GPa)
#
#
# Indices 1 2 3 4 5 6 
#
# 1 0.007759 -0.002772 -0.002995 0.000000 0.000000 0.000000
# 2 -0.002772 0.010710 -0.002703 0.000000 0.000000 0.000000
# 3 -0.002995 -0.002703 0.011529 0.000000 0.000000 0.000000
# 4 0.000000 0.000000 0.000000 0.054954 0.000000 0.000000
# 5 0.000000 0.000000 0.000000 0.000000 0.039882 0.000000
# 6 0.000000 0.000000 0.000000 0.000000 0.000000 0.113259
#
#
# Mechanical properties :
#
#
# Convention : Reuss Voigt Hill
#
# Bulk Modulus (GPa) = 76.58681 81.02483 78.80582
# Shear Modulus (GPa) = 19.27638 26.61242 22.94440
#
# Velocity S-wave (km/s) = 3.08145 3.62064 3.36187
# Velocity P-wave (km/s) = 7.09834 7.57567 7.34088
#
# Compressibility (1/GPa) = 0.01305708
#
# Stress axis : x y z
#
# Youngs Moduli (GPa) = 128.88990 93.37479 86.73660
#
# Poissons Ratio (x) = 0.25885 0.25977
# Poissons Ratio (y) = 0.35730 0.23445
# Poissons Ratio (z) = 0.38602 0.25239
#
# Static dielectric constant tensor:
#      x y z
#    x 4.244120 0.000000 0.000000 
#    y 0.000000 3.787050 0.000000 
#    z 0.000000 0.000000 3.540540 
# 
# 
# High freq. dielectric constant tensor:
#      x y z
#    x 1.812740 0.000000 0.000000 
#    y 0.000000 1.808370 0.000000 
#    z 0.000000 0.000000 1.779320 
# 
# From -- ./inp_files/29815.got.cif
#   From: 2010.03.12/outbox.cif.g09.slc.cpg/sg73_15_cif.got.tgz:29815.got - 2010.04.16 15:25:48.
