data_PCOD8296476
_publ_section_title
;
Structure prediction by ZEFSAII (Michael W. Deem and Ramdas Pophale) SiO2 
 PCOD8296476
Probable space group: I B C A 
;
_chemical_formula_sum "Si O2"
_cell_formula_units_Z 120
_cell_length_a 23.629446
_cell_length_b 14.137331
_cell_length_c 17.145846
_cell_angle_alpha 90.000000
_cell_angle_beta 90.000000
_cell_angle_gamma 90.000000
_cell_volume 5727.695012
_symmetry_space_group_name_H-M "I B C A "
_symmetry_group_IT_number 73
_symmetry_cell_setting 'orthorhombic'
loop_
_space_group_symop_operation_xyz
x,y,z
-x,1/2-y,z
x,-y,1/2-z
1/2-x,y,-z
-x,-y,-z
x,1/2+y,-z
-x,y,1/2+z
1/2+x,-y,z
1/2+x,1/2+y,1/2+z
1/2-x,-y,1/2+z
1/2+x,1/2-y,-z
-x,1/2+y,1/2-z
1/2-x,1/2-y,1/2-z
1/2+x,y,1/2-z
1/2-x,1/2+y,z
x,1/2-y,1/2+z
loop_
_atom_site_type_symbol
_atom_site_label
_atom_site_fract_x
_atom_site_fract_y
_atom_site_fract_z
Si Si1 0.889548 0.955130 0.415800
Si Si2 0.992492 0.644002 0.423037
Si Si3 0.085909 0.243155 0.817238
Si Si4 0.611896 0.346915 0.024226
Si Si5 0.846048 0.000000 0.250000
Si Si6 0.494647 0.387584 0.248111
Si Si7 0.694408 0.304232 0.268668
Si Si8 0.808677 0.299610 0.546873
O O1 0.851406 0.886021 0.469145
O O2 0.954414 0.926437 0.435199
O O3 0.866373 0.058133 0.436498
O O4 0.883624 0.956067 0.321234
O O5 0.938221 0.610256 0.470766
O O6 0.978027 0.652012 0.332219
O O7 0.000000 0.750000 0.455291
O O8 0.093887 0.227627 0.909276
O O9 0.050946 0.340745 0.810403
O O10 0.143421 0.256002 0.768871
O O11 0.055501 0.149973 0.780721
O O12 0.662238 0.299764 0.975086
O O13 0.806282 0.090340 0.270517
O O14 0.492307 0.500000 0.250000
O O15 0.750000 0.250000 0.250000
O O16 0.696446 0.305431 0.361192
O O17 0.750000 0.312497 0.500000
#
# Coordination Sequence:
#
# PCOD8296476 Si02
#       8
#    16  16  16  16   8  16  16  16
#     4  11  24  42  70  96 134 178 229 267 334 410
#     4  12  23  41  65  96 136 177 214 278 339 395
#     4  11  23  41  68  94 129 181 225 270 321 411
#     4  12  25  42  67  97 138 174 220 276 342 400
#     4  10  22  42  74  96 122 180 232 268 318 410
#     4  11  24  40  65  98 132 175 220 270 330 399
#     4  11  23  46  71  96 127 173 225 274 329 395
#     4  11  25  43  67  98 133 172 218 284 338 395
#
# _framework density 20.950837
#
# number of rings (size 3 to 8) (size 9 to 14) (size 15 to 20)
#    0.000    0.800    4.000    4.400    3.733    1.600 
#    3.600    0.000    0.000    0.000    0.000    0.000 
#    0.000    0.000    0.000    0.000    0.000    0.000 
#
# Total GULP energy -743542.979350 kJ/mol
# GULP energy per Si atom -12392.382989 kJ/mol
# Density = 2.090315 g / cm^3
# Si number density = 20.950837 Si / 1000 Ang^3
#
#
#
# Elastic Constant Matrix: (Units=GPa)
#
#
# Indices 1 2 3 4 5 6 
#
# 1 130.6744 29.8578 31.0646 0.0000 0.0000 0.0000
# 2 29.8578 110.3434 -0.7779 0.0000 0.0000 0.0000
# 3 31.0646 -0.7779 79.7096 0.0000 0.0000 0.0000
# 4 0.0000 0.0000 0.0000 24.0254 0.0000 0.0000
# 5 0.0000 0.0000 0.0000 0.0000 20.7436 0.0000
# 6 0.0000 0.0000 0.0000 0.0000 0.0000 28.3014
#
#
#
# Elastic Compliance Matrix: (Units=1/GPa)
#
#
# Indices 1 2 3 4 5 6 
#
# 1 0.009064 -0.002478 -0.003557 0.000000 0.000000 0.000000
# 2 -0.002478 0.009741 0.001061 0.000000 0.000000 0.000000
# 3 -0.003557 0.001061 0.013942 0.000000 0.000000 0.000000
# 4 0.000000 0.000000 0.000000 0.041623 0.000000 0.000000
# 5 0.000000 0.000000 0.000000 0.000000 0.048208 0.000000
# 6 0.000000 0.000000 0.000000 0.000000 0.000000 0.035334
#
#
# Mechanical properties :
#
#
# Convention : Reuss Voigt Hill
#
# Bulk Modulus (GPa) = 43.86108 49.00182 46.43145
# Shear Modulus (GPa) = 28.49678 31.98628 30.24153
#
# Velocity S-wave (km/s) = 3.69205 3.91158 3.80340
# Velocity P-wave (km/s) = 6.25745 6.62120 6.44190
#
# Compressibility (1/GPa) = 0.02279926
#
# Stress axis : x y z
#
# Youngs Moduli (GPa) = 110.32322 102.66358 71.72560
#
# Poissons Ratio (x) = 0.25438 0.25511
# Poissons Ratio (y) = 0.27336 -0.07608
# Poissons Ratio (z) = 0.39239 -0.10890
#
# Static dielectric constant tensor:
#      x y z
#    x -3.444970 0.000000 0.000000 
#    y 0.000000 4.980590 0.000000 
#    z 0.000000 0.000000 3.865440 
# 
# 
# High freq. dielectric constant tensor:
#      x y z
#    x 1.807880 0.000000 0.000000 
#    y 0.000000 1.826690 0.000000 
#    z 0.000000 0.000000 1.829610 
# 
# From -- ./inp_files/23657.got.cif
#   From: 2010.03.12/outbox.cif.g09.slc.cpg/sg73_12_cif.got.tgz:23657.got - 2010.04.16 15:25:48.
