data_PCOD8296704
_publ_section_title
;
Structure prediction by ZEFSAII (Michael W. Deem and Ramdas Pophale) SiO2 
 PCOD8296704
Probable space group: I B C A 
;
_chemical_formula_sum "Si O2"
_cell_formula_units_Z 104
_cell_length_a 27.619152
_cell_length_b 20.084841
_cell_length_c 9.037955
_cell_angle_alpha 90.000000
_cell_angle_beta 90.000000
_cell_angle_gamma 90.000000
_cell_volume 5013.591124
_symmetry_space_group_name_H-M "I B C A "
_symmetry_group_IT_number 73
_symmetry_cell_setting 'orthorhombic'
loop_
_space_group_symop_operation_xyz
x,y,z
-x,1/2-y,z
x,-y,1/2-z
1/2-x,y,-z
-x,-y,-z
x,1/2+y,-z
-x,y,1/2+z
1/2+x,-y,z
1/2+x,1/2+y,1/2+z
1/2-x,-y,1/2+z
1/2+x,1/2-y,-z
-x,1/2+y,1/2-z
1/2-x,1/2-y,1/2-z
1/2+x,y,1/2-z
1/2-x,1/2+y,z
x,1/2-y,1/2+z
loop_
_atom_site_type_symbol
_atom_site_label
_atom_site_fract_x
_atom_site_fract_y
_atom_site_fract_z
Si Si1 0.000000 0.250000 0.417621
Si Si2 0.358092 0.897761 0.680508
Si Si3 0.263924 0.317026 0.332776
Si Si4 0.963698 0.839086 0.836007
Si Si5 0.225148 0.438128 0.157977
Si Si6 0.034009 0.458538 0.105224
Si Si7 0.637516 0.969355 0.482101
O O1 0.963134 0.209472 0.522385
O O2 0.968644 0.299006 0.316436
O O3 0.320965 0.836151 0.665882
O O4 0.413166 0.875582 0.671637
O O5 0.345254 0.929530 0.838010
O O6 0.353564 0.952151 0.549220
O O7 0.250000 0.306730 0.500000
O O8 0.250000 0.250000 0.250000
O O9 0.231620 0.373512 0.257228
O O10 0.008835 0.889488 0.850128
O O11 0.247146 0.500000 0.250000
O O12 0.250000 0.431884 0.000000
O O13 0.168311 0.448889 0.125944
O O14 0.046886 0.500000 0.250000
O O15 0.082817 0.447119 0.013863
O O16 0.000000 0.500000 0.000000
#
# Coordination Sequence:
#
# PCOD8296704 Si02
#       7
#     8  16  16  16  16  16  16
#     4  10  24  44  62  94 134 194 230 270 332 412
#     4  11  23  43  71 102 137 179 228 293 359 424
#     4  12  28  49  71 100 139 184 239 299 360 427
#     4  11  23  43  67  95 140 180 232 281 341 415
#     4  12  23  44  71 101 137 178 230 294 351 425
#     4  12  23  40  68 103 142 174 223 291 352 418
#     4  11  23  40  71 107 135 178 227 285 370 422
#
# _framework density 20.743614000000001
#
# number of rings (size 3 to 8) (size 9 to 14) (size 15 to 20)
#    0.000    0.615    3.077    6.000    0.000    1.231 
#    5.538    0.000    0.000    0.000    0.000    0.000 
#    0.000    0.000    0.000    0.000    0.000    0.000 
#
# Total GULP energy -644939.232894 kJ/mol
# GULP energy per Si atom -12402.677556 kJ/mol
# Density = 2.069640 g / cm^3
# Si number density = 20.743614 Si / 1000 Ang^3
#
#
#
# Elastic Constant Matrix: (Units=GPa)
#
#
# Indices 1 2 3 4 5 6 
#
# 1 108.4576 42.8459 28.2491 0.0000 0.0000 0.0000
# 2 42.8459 146.1787 59.9562 0.0000 0.0000 0.0000
# 3 28.2491 59.9562 137.8680 0.0000 0.0000 0.0000
# 4 0.0000 0.0000 0.0000 35.6486 0.0000 0.0000
# 5 0.0000 0.0000 0.0000 0.0000 34.0794 0.0000
# 6 0.0000 0.0000 0.0000 0.0000 0.0000 29.2141
#
#
#
# Elastic Compliance Matrix: (Units=1/GPa)
#
#
# Indices 1 2 3 4 5 6 
#
# 1 0.010538 -0.002681 -0.000993 0.000000 0.000000 0.000000
# 2 -0.002681 0.009008 -0.003368 0.000000 0.000000 0.000000
# 3 -0.000993 -0.003368 0.008922 0.000000 0.000000 0.000000
# 4 0.000000 0.000000 0.000000 0.028052 0.000000 0.000000
# 5 0.000000 0.000000 0.000000 0.000000 0.029343 0.000000
# 6 0.000000 0.000000 0.000000 0.000000 0.000000 0.034230
#
#
# Mechanical properties :
#
#
# Convention : Reuss Voigt Hill
#
# Bulk Modulus (GPa) = 69.52852 72.73409 71.13131
# Shear Modulus (GPa) = 35.97828 37.21861 36.59844
#
# Velocity S-wave (km/s) = 4.16916 4.24042 4.20494
# Velocity P-wave (km/s) = 7.53437 7.68859 7.61187
#
# Compressibility (1/GPa) = 0.01438259
#
# Stress axis : x y z
#
# Youngs Moduli (GPa) = 94.89314 111.00807 112.08811
#
# Poissons Ratio (x) = 0.29766 0.11132
# Poissons Ratio (y) = 0.25445 0.37753
# Poissons Ratio (z) = 0.09424 0.37389
#
# Static dielectric constant tensor:
#      x y z
#    x 3.664530 0.000000 0.000000 
#    y 0.000000 3.958360 0.000000 
#    z 0.000000 0.000000 3.929170 
# 
# 
# High freq. dielectric constant tensor:
#      x y z
#    x 1.815980 0.000000 0.000000 
#    y 0.000000 1.811480 0.000000 
#    z 0.000000 0.000000 1.834010 
# 
# From -- ./inp_files/7907.got.cif
#   From: 2010.03.12/outbox.cif.g09.slc.cpg/sg73_4_cif.got.tgz:7907.got - 2010.04.16 15:25:48.
