data_PCOD8296582
_publ_section_title
;
Structure prediction by ZEFSAII (Michael W. Deem and Ramdas Pophale) SiO2 
 PCOD8296582
Probable space group: I B C A 
;
_chemical_formula_sum "Si O2"
_cell_formula_units_Z 96
_cell_length_a 14.849778
_cell_length_b 14.420309
_cell_length_c 19.176050
_cell_angle_alpha 90.000000
_cell_angle_beta 90.000000
_cell_angle_gamma 90.000000
_cell_volume 4106.328423
_symmetry_space_group_name_H-M "I B C A "
_symmetry_group_IT_number 73
_symmetry_cell_setting 'orthorhombic'
loop_
_space_group_symop_operation_xyz
x,y,z
-x,1/2-y,z
x,-y,1/2-z
1/2-x,y,-z
-x,-y,-z
x,1/2+y,-z
-x,y,1/2+z
1/2+x,-y,z
1/2+x,1/2+y,1/2+z
1/2-x,-y,1/2+z
1/2+x,1/2-y,-z
-x,1/2+y,1/2-z
1/2-x,1/2-y,1/2-z
1/2+x,y,1/2-z
1/2-x,1/2+y,z
x,1/2-y,1/2+z
loop_
_atom_site_type_symbol
_atom_site_label
_atom_site_fract_x
_atom_site_fract_y
_atom_site_fract_z
Si Si1 0.838018 0.945001 0.334379
Si Si2 0.000000 0.250000 0.272874
Si Si3 0.776404 0.719257 0.925929
Si Si4 0.626634 0.146282 0.620974
Si Si5 0.185838 0.000000 0.250000
Si Si6 0.063939 0.665477 0.971926
Si Si7 0.964378 0.596469 0.326717
O O1 0.827650 0.865401 0.390841
O O2 0.756340 0.922980 0.279899
O O3 0.937577 0.938966 0.300265
O O4 0.822250 0.051285 0.359271
O O5 0.055694 0.321356 0.320616
O O6 0.059888 0.188977 0.218356
O O7 0.691916 0.764591 0.886039
O O8 0.842660 0.804754 0.937361
O O9 0.750000 0.676152 0.000000
O O10 0.578974 0.118527 0.547260
O O11 0.119152 0.028531 0.187182
O O12 0.022216 0.602151 0.910710
O O13 0.000000 0.750000 0.988834
#
# Coordination Sequence:
#
# PCOD8296582 Si02
#       7
#    16   8  16  16   8  16  16
#     4  12  25  45  68 103 141 185 248 298 366 447
#     4  12  22  42  68  96 136 182 238 292 372 430
#     4  10  23  42  67  97 138 177 231 297 363 431
#     4  11  25  42  72 102 139 191 244 304 370 443
#     4  12  26  42  62  98 142 174 240 296 360 442
#     4  11  21  45  67  98 138 184 242 297 367 444
#     4  12  25  43  70  98 142 193 236 307 373 445
#
# _framework density 23.378551000000002
#
# number of rings (size 3 to 8) (size 9 to 14) (size 15 to 20)
#    0.000    0.667    3.333    4.500    0.000    4.000 
#    0.000    5.000    0.000    0.000    0.000    0.000 
#    0.000    0.000    0.000    0.000    0.000    0.000 
#
# Total GULP energy -594639.403000 kJ/mol
# GULP energy per Si atom -12388.320896 kJ/mol
# Density = 2.332534 g / cm^3
# Si number density = 23.378551 Si / 1000 Ang^3
#
#
#
# Elastic Constant Matrix: (Units=GPa)
#
#
# Indices 1 2 3 4 5 6 
#
# 1 132.8364 15.2128 27.3244 0.0000 0.0000 0.0000
# 2 15.2128 72.9704 33.5344 0.0000 0.0000 0.0000
# 3 27.3244 33.5344 115.8506 0.0000 0.0000 0.0000
# 4 0.0000 0.0000 0.0000 6.6310 0.0000 0.0000
# 5 0.0000 0.0000 0.0000 0.0000 26.0039 0.0000
# 6 0.0000 0.0000 0.0000 0.0000 0.0000 30.0414
#
#
#
# Elastic Compliance Matrix: (Units=1/GPa)
#
#
# Indices 1 2 3 4 5 6 
#
# 1 0.007965 -0.000920 -0.001612 0.000000 0.000000 0.000000
# 2 -0.000920 0.015913 -0.004389 0.000000 0.000000 0.000000
# 3 -0.001612 -0.004389 0.010283 0.000000 0.000000 0.000000
# 4 0.000000 0.000000 0.000000 0.150806 0.000000 0.000000
# 5 0.000000 0.000000 0.000000 0.000000 0.038456 0.000000
# 6 0.000000 0.000000 0.000000 0.000000 0.000000 0.033287
#
#
# Mechanical properties :
#
#
# Convention : Reuss Voigt Hill
#
# Bulk Modulus (GPa) = 49.21717 52.64450 50.93083
# Shear Modulus (GPa) = 18.02938 28.90767 23.46853
#
# Velocity S-wave (km/s) = 2.78005 3.52021 3.17179
# Velocity P-wave (km/s) = 5.60383 6.25217 5.93686
#
# Compressibility (1/GPa) = 0.02031811
#
# Stress axis : x y z
#
# Youngs Moduli (GPa) = 125.54859 62.84145 97.25095
#
# Poissons Ratio (x) = 0.05778 0.15681
# Poissons Ratio (y) = 0.11544 0.42687
# Poissons Ratio (z) = 0.20244 0.27583
#
# Static dielectric constant tensor:
#      x y z
#    x 4.622880 0.000000 0.000000 
#    y 0.000000 3.940540 0.000000 
#    z 0.000000 0.000000 4.724310 
# 
# 
# High freq. dielectric constant tensor:
#      x y z
#    x 1.937730 0.000000 0.000000 
#    y 0.000000 1.899700 0.000000 
#    z 0.000000 0.000000 1.941260 
# 
# From -- ./inp_files/17099.got.cif
#   From: 2010.03.12/outbox.cif.g09.slc.cpg/sg73_9_cif.got.tgz:17099.got - 2010.04.16 15:25:48.
