data_PCOD8296273
_publ_section_title
;
Structure prediction by ZEFSAII (Michael W. Deem and Ramdas Pophale) SiO2 
 PCOD8296273
Probable space group: I B C A 
;
_chemical_formula_sum "Si O2"
_cell_formula_units_Z 72
_cell_length_a 10.450318
_cell_length_b 18.216230
_cell_length_c 16.079695
_cell_angle_alpha 90.000000
_cell_angle_beta 90.000000
_cell_angle_gamma 90.000000
_cell_volume 3061.017510
_symmetry_space_group_name_H-M "I B C A "
_symmetry_group_IT_number 73
_symmetry_cell_setting 'orthorhombic'
loop_
_space_group_symop_operation_xyz
x,y,z
-x,1/2-y,z
x,-y,1/2-z
1/2-x,y,-z
-x,-y,-z
x,1/2+y,-z
-x,y,1/2+z
1/2+x,-y,z
1/2+x,1/2+y,1/2+z
1/2-x,-y,1/2+z
1/2+x,1/2-y,-z
-x,1/2+y,1/2-z
1/2-x,1/2-y,1/2-z
1/2+x,y,1/2-z
1/2-x,1/2+y,z
x,1/2-y,1/2+z
loop_
_atom_site_type_symbol
_atom_site_label
_atom_site_fract_x
_atom_site_fract_y
_atom_site_fract_z
Si Si1 0.631149 0.649148 0.945352
Si Si2 0.238387 0.930924 0.595501
Si Si3 0.748544 0.776465 0.843075
Si Si4 0.519697 0.484761 0.652499
Si Si5 0.000000 0.750000 0.937177
O O1 0.663200 0.723866 0.898429
O O2 0.579818 0.592729 0.876725
O O3 0.750000 0.616479 0.000000
O O4 0.524175 0.675558 0.010289
O O5 0.250000 0.909678 0.500000
O O6 0.196651 0.859734 0.649363
O O7 0.124206 0.990770 0.613038
O O8 0.380574 0.955484 0.620386
O O9 0.750000 0.750000 0.750000
O O10 0.890031 0.774836 0.876610
O O11 0.506901 0.500000 0.750000
#
# Coordination Sequence:
#
# PCOD8296273 Si02
#       5
#    16  16  16  16   8
#     4  10  21  42  68  96 133 180 227 277 339 411
#     4  12  26  46  70 100 139 186 230 275 338 415
#     4  11  24  41  67 102 134 172 227 288 341 397
#     4  12  26  44  68 101 140 181 229 285 340 400
#     4  10  22  42  70 100 134 176 226 278 340 408
#
# _framework density 23.52159
#
# number of rings (size 3 to 8) (size 9 to 14) (size 15 to 20)
#    0.000    0.889    0.000    8.000    0.000    8.000 
#    0.000    0.000    0.000    0.000    0.000    0.000 
#    0.000    0.000    0.000    0.000    0.000    0.000 
#
# Total GULP energy -446253.671494 kJ/mol
# GULP energy per Si atom -12395.935319 kJ/mol
# Density = 2.346805 g / cm^3
# Si number density = 23.521590 Si / 1000 Ang^3
#
#
#
# Elastic Constant Matrix: (Units=GPa)
#
#
# Indices 1 2 3 4 5 6 
#
# 1 110.5942 39.7076 77.8473 0.0000 0.0000 0.0000
# 2 39.7076 99.8804 59.5018 0.0000 0.0000 0.0000
# 3 77.8473 59.5018 175.5394 0.0000 0.0000 0.0000
# 4 0.0000 0.0000 0.0000 43.8958 0.0000 0.0000
# 5 0.0000 0.0000 0.0000 0.0000 11.3901 0.0000
# 6 0.0000 0.0000 0.0000 0.0000 0.0000 23.1750
#
#
#
# Elastic Compliance Matrix: (Units=1/GPa)
#
#
# Indices 1 2 3 4 5 6 
#
# 1 0.013542 -0.002263 -0.005238 0.000000 0.000000 0.000000
# 2 -0.002263 0.012923 -0.003377 0.000000 0.000000 0.000000
# 3 -0.005238 -0.003377 0.009165 0.000000 0.000000 0.000000
# 4 0.000000 0.000000 0.000000 0.022781 0.000000 0.000000
# 5 0.000000 0.000000 0.000000 0.000000 0.087796 0.000000
# 6 0.000000 0.000000 0.000000 0.000000 0.000000 0.043150
#
#
# Mechanical properties :
#
#
# Convention : Reuss Voigt Hill
#
# Bulk Modulus (GPa) = 72.08216 82.23637 77.15926
# Shear Modulus (GPa) = 23.17630 29.62268 26.39949
#
# Velocity S-wave (km/s) = 3.14239 3.55263 3.35379
# Velocity P-wave (km/s) = 6.62403 7.20182 6.91896
#
# Compressibility (1/GPa) = 0.01387306
#
# Stress axis : x y z
#
# Youngs Moduli (GPa) = 73.84512 77.37899 109.11613
#
# Poissons Ratio (x) = 0.17510 0.57160
# Poissons Ratio (y) = 0.16710 0.36849
# Poissons Ratio (z) = 0.38683 0.26131
#
# Static dielectric constant tensor:
#      x y z
#    x 4.656180 0.000000 0.000000 
#    y 0.000000 4.318450 0.000000 
#    z 0.000000 0.000000 4.023140 
# 
# 
# High freq. dielectric constant tensor:
#      x y z
#    x 1.952060 0.000000 0.000000 
#    y 0.000000 1.929660 0.000000 
#    z 0.000000 0.000000 1.937400 
# 
# From -- ./inp_files/15952.got.cif
#   From: 2010.03.12/outbox.cif.g09.slc.cpg/sg73_8_cif.got.tgz:15952.got - 2010.04.16 15:25:48.
