data_PCOD8296038
_publ_section_title
;
Structure prediction by ZEFSAII (Michael W. Deem and Ramdas Pophale) SiO2 
 PCOD8296038
Probable space group: I B C A 
;
_chemical_formula_sum "Si O2"
_cell_formula_units_Z 120
_cell_length_a 30.835376
_cell_length_b 20.707486
_cell_length_c 9.170889
_cell_angle_alpha 90.000000
_cell_angle_beta 90.000000
_cell_angle_gamma 90.000000
_cell_volume 5855.824628
_symmetry_space_group_name_H-M "I B C A "
_symmetry_group_IT_number 73
_symmetry_cell_setting 'orthorhombic'
loop_
_space_group_symop_operation_xyz
x,y,z
-x,1/2-y,z
x,-y,1/2-z
1/2-x,y,-z
-x,-y,-z
x,1/2+y,-z
-x,y,1/2+z
1/2+x,-y,z
1/2+x,1/2+y,1/2+z
1/2-x,-y,1/2+z
1/2+x,1/2-y,-z
-x,1/2+y,1/2-z
1/2-x,1/2-y,1/2-z
1/2+x,y,1/2-z
1/2-x,1/2+y,z
x,1/2-y,1/2+z
loop_
_atom_site_type_symbol
_atom_site_label
_atom_site_fract_x
_atom_site_fract_y
_atom_site_fract_z
Si Si1 0.042084 0.520974 0.583537
Si Si2 0.201201 0.404107 0.516528
Si Si3 0.709513 0.833705 0.297363
Si Si4 0.802326 0.687113 0.738893
Si Si5 0.451239 0.674261 0.446569
Si Si6 0.140722 0.144827 0.529124
Si Si7 0.874637 0.499442 0.921987
Si Si8 0.500000 0.250000 0.303520
O O1 0.040297 0.500000 0.750000
O O2 0.042982 0.598181 0.571014
O O3 0.081223 0.480905 0.506158
O O4 0.000000 0.500000 0.500000
O O5 0.250000 0.433502 0.500000
O O6 0.190663 0.386402 0.683428
O O7 0.198488 0.336529 0.428293
O O8 0.165920 0.454509 0.459484
O O9 0.701441 0.762626 0.235607
O O10 0.760771 0.845974 0.318791
O O11 0.684587 0.837960 0.446970
O O12 0.848177 0.663017 0.804375
O O13 0.399837 0.686398 0.469560
O O14 0.466617 0.711475 0.301002
O O15 0.475423 0.698975 0.592713
O O16 0.134050 0.069501 0.514366
O O17 0.883216 0.500000 0.750000
#
# Coordination Sequence:
#
# PCOD8296038 Si02
#       8
#    16  16  16  16  16  16  16   8
#     4  11  24  44  70  98 130 167 214 261 319 378
#     4  10  22  40  62  90 124 170 212 254 322 372
#     4  10  22  37  62  90 126 161 211 258 309 370
#     4  10  20  41  59  89 127 167 202 256 313 375
#     4  10  24  42  67  98 124 168 209 252 324 373
#     4  11  23  38  62  93 123 161 216 251 317 370
#     4  11  24  43  61  90 127 167 214 266 310 375
#     4  10  22  48  66  90 138 160 206 262 310 392
#
# _framework density 20.492415999999999
#
# number of rings (size 3 to 8) (size 9 to 14) (size 15 to 20)
#    0.000    1.600    1.333    2.400    5.600    4.267 
#    0.000    0.000    0.000    0.000    0.000    0.000 
#    0.000    0.000    0.000    0.000    0.000    0.000 
#
# Total GULP energy -743712.160145 kJ/mol
# GULP energy per Si atom -12395.202669 kJ/mol
# Density = 2.044577 g / cm^3
# Si number density = 20.492416 Si / 1000 Ang^3
#
#
#
# Elastic Constant Matrix: (Units=GPa)
#
#
# Indices 1 2 3 4 5 6 
#
# 1 123.2528 48.0686 68.5544 0.0000 0.0000 0.0000
# 2 48.0686 74.3212 35.6119 0.0000 0.0000 0.0000
# 3 68.5544 35.6119 122.3834 0.0000 0.0000 0.0000
# 4 0.0000 0.0000 0.0000 31.5858 0.0000 0.0000
# 5 0.0000 0.0000 0.0000 0.0000 38.5731 0.0000
# 6 0.0000 0.0000 0.0000 0.0000 0.0000 29.7758
#
#
#
# Elastic Compliance Matrix: (Units=1/GPa)
#
#
# Indices 1 2 3 4 5 6 
#
# 1 0.013795 -0.006065 -0.005963 0.000000 0.000000 0.000000
# 2 -0.006065 0.018302 -0.001928 0.000000 0.000000 0.000000
# 3 -0.005963 -0.001928 0.012072 0.000000 0.000000 0.000000
# 4 0.000000 0.000000 0.000000 0.031660 0.000000 0.000000
# 5 0.000000 0.000000 0.000000 0.000000 0.025925 0.000000
# 6 0.000000 0.000000 0.000000 0.000000 0.000000 0.033584
#
#
# Mechanical properties :
#
#
# Convention : Reuss Voigt Hill
#
# Bulk Modulus (GPa) = 61.51107 69.38081 65.44594
# Shear Modulus (GPa) = 29.64378 31.16844 30.40611
#
# Velocity S-wave (km/s) = 3.80751 3.90420 3.85616
# Velocity P-wave (km/s) = 7.02931 7.36573 7.19949
#
# Compressibility (1/GPa) = 0.01625724
#
# Stress axis : x y z
#
# Youngs Moduli (GPa) = 72.48788 54.63944 82.83523
#
# Poissons Ratio (x) = 0.33141 0.49392
# Poissons Ratio (y) = 0.43966 0.15971
# Poissons Ratio (z) = 0.43223 0.10535
#
# Static dielectric constant tensor:
#      x y z
#    x 4.040670 0.000000 0.000000 
#    y 0.000000 3.671830 0.000000 
#    z 0.000000 0.000000 3.182310 
# 
# 
# High freq. dielectric constant tensor:
#      x y z
#    x 1.810660 0.000000 0.000000 
#    y 0.000000 1.793770 0.000000 
#    z 0.000000 0.000000 1.812520 
# 
# From -- ./inp_files/8039.got.cif
#   From: 2010.03.12/outbox.cif.g09.slc.cpg/sg73_5_cif.got.tgz:8039.got - 2010.04.16 15:25:48.
