data_PCOD8296781
_publ_section_title
;
Structure prediction by ZEFSAII (Michael W. Deem and Ramdas Pophale) SiO2 
 PCOD8296781
Probable space group: I B C A 
;
_chemical_formula_sum "Si O2"
_cell_formula_units_Z 64
_cell_length_a 25.517270
_cell_length_b 8.365307
_cell_length_c 11.609765
_cell_angle_alpha 90.000000
_cell_angle_beta 90.000000
_cell_angle_gamma 90.000000
_cell_volume 2478.218084
_symmetry_space_group_name_H-M "I B C A "
_symmetry_group_IT_number 73
_symmetry_cell_setting 'orthorhombic'
loop_
_space_group_symop_operation_xyz
x,y,z
-x,1/2-y,z
x,-y,1/2-z
1/2-x,y,-z
-x,-y,-z
x,1/2+y,-z
-x,y,1/2+z
1/2+x,-y,z
1/2+x,1/2+y,1/2+z
1/2-x,-y,1/2+z
1/2+x,1/2-y,-z
-x,1/2+y,1/2-z
1/2-x,1/2-y,1/2-z
1/2+x,y,1/2-z
1/2-x,1/2+y,z
x,1/2-y,1/2+z
loop_
_atom_site_type_symbol
_atom_site_label
_atom_site_fract_x
_atom_site_fract_y
_atom_site_fract_z
Si Si1 0.555901 0.000000 0.250000
Si Si2 0.685806 0.560090 0.120760
Si Si3 0.250000 0.695448 0.000000
Si Si4 0.416505 0.248720 0.933978
Si Si5 0.958053 0.548276 0.631692
O O1 0.589217 0.876594 0.173059
O O2 0.517500 0.895053 0.335320
O O3 0.681732 0.500000 0.250000
O O4 0.730872 0.694839 0.107019
O O5 0.632630 0.632229 0.068236
O O6 0.700509 0.408984 0.040968
O O7 0.466317 0.371961 0.927857
O O8 0.421631 0.163973 0.057350
O O9 0.926465 0.500000 0.750000
#
# Coordination Sequence:
#
# PCOD8296781 Si02
#       5
#     8  16   8  16  16
#     4  10  26  44  70 104 154 210 250 314 384 430
#     4  11  24  47  79 114 151 193 251 312 383 466
#     4  10  24  50  78 114 152 196 238 314 400 458
#     4  12  24  46  74 110 148 200 263 314 371 459
#     4  10  26  44  72 103 153 203 255 313 378 441
#
# _framework density 25.825005999999998
#
# number of rings (size 3 to 8) (size 9 to 14) (size 15 to 20)
#    0.750    0.500    0.000    4.500    3.500    0.000 
#   11.250    0.000    0.000    0.000    0.000    0.000 
#    0.000    0.000    0.000    0.000    0.000    0.000 
#
# Total GULP energy -396440.049389 kJ/mol
# GULP energy per Si atom -12388.751543 kJ/mol
# Density = 2.576623 g / cm^3
# Si number density = 25.825006 Si / 1000 Ang^3
#
#
#
# Elastic Constant Matrix: (Units=GPa)
#
#
# Indices 1 2 3 4 5 6 
#
# 1 76.0640 36.5009 43.7970 0.0000 0.0000 0.0000
# 2 36.5009 118.1040 69.5941 0.0000 0.0000 0.0000
# 3 43.7970 69.5941 180.5240 0.0000 0.0000 0.0000
# 4 0.0000 0.0000 0.0000 44.3055 0.0000 0.0000
# 5 0.0000 0.0000 0.0000 0.0000 22.6393 0.0000
# 6 0.0000 0.0000 0.0000 0.0000 0.0000 90.0535
#
#
#
# Elastic Compliance Matrix: (Units=1/GPa)
#
#
# Indices 1 2 3 4 5 6 
#
# 1 0.016334 -0.003510 -0.002609 0.000000 0.000000 0.000000
# 2 -0.003510 0.011710 -0.003663 0.000000 0.000000 0.000000
# 3 -0.002609 -0.003663 0.007585 0.000000 0.000000 0.000000
# 4 0.000000 0.000000 0.000000 0.022571 0.000000 0.000000
# 5 0.000000 0.000000 0.000000 0.000000 0.044171 0.000000
# 6 0.000000 0.000000 0.000000 0.000000 0.000000 0.011105
#
#
# Mechanical properties :
#
#
# Convention : Reuss Voigt Hill
#
# Bulk Modulus (GPa) = 62.25330 74.94177 68.59753
# Shear Modulus (GPa) = 36.12849 46.38631 41.25740
#
# Velocity S-wave (km/s) = 3.74434 4.24273 4.00130
# Velocity P-wave (km/s) = 6.54612 7.28582 6.92585
#
# Compressibility (1/GPa) = 0.01606341
#
# Stress axis : x y z
#
# Youngs Moduli (GPa) = 61.22235 85.39414 131.84665
#
# Poissons Ratio (x) = 0.29977 0.34405
# Poissons Ratio (y) = 0.21492 0.48293
# Poissons Ratio (z) = 0.15976 0.31278
#
# Static dielectric constant tensor:
#      x y z
#    x 4.380380 0.000000 0.000000 
#    y 0.000000 5.103360 0.000000 
#    z 0.000000 0.000000 4.756590 
# 
# 
# High freq. dielectric constant tensor:
#      x y z
#    x 2.006340 0.000000 0.000000 
#    y 0.000000 2.061210 0.000000 
#    z 0.000000 0.000000 2.038300 
# 
# From -- ./inp_files/14550.got.cif
#   From: 2010.03.12/outbox.cif.g09.slc.cpg/sg73_8_cif.got.tgz:14550.got - 2010.04.16 15:25:48.
