data_PCOD8296214
_publ_section_title
;
Structure prediction by ZEFSAII (Michael W. Deem and Ramdas Pophale) SiO2 
 PCOD8296214
Probable space group: I B C A 
;
_chemical_formula_sum "Si O2"
_cell_formula_units_Z 104
_cell_length_a 17.355610
_cell_length_b 11.941756
_cell_length_c 23.198250
_cell_angle_alpha 90.000000
_cell_angle_beta 90.000000
_cell_angle_gamma 90.000000
_cell_volume 4807.987170
_symmetry_space_group_name_H-M "I B C A "
_symmetry_group_IT_number 73
_symmetry_cell_setting 'orthorhombic'
loop_
_space_group_symop_operation_xyz
x,y,z
-x,1/2-y,z
x,-y,1/2-z
1/2-x,y,-z
-x,-y,-z
x,1/2+y,-z
-x,y,1/2+z
1/2+x,-y,z
1/2+x,1/2+y,1/2+z
1/2-x,-y,1/2+z
1/2+x,1/2-y,-z
-x,1/2+y,1/2-z
1/2-x,1/2-y,1/2-z
1/2+x,y,1/2-z
1/2-x,1/2+y,z
x,1/2-y,1/2+z
loop_
_atom_site_type_symbol
_atom_site_label
_atom_site_fract_x
_atom_site_fract_y
_atom_site_fract_z
Si Si1 0.664657 0.076803 0.615366
Si Si2 0.513005 0.878338 0.839961
Si Si3 0.077464 0.809181 0.517621
Si Si4 0.594158 0.500000 0.750000
Si Si5 0.612721 0.161819 0.909472
Si Si6 0.539322 0.459919 0.923528
Si Si7 0.165853 0.632085 0.846375
O O1 0.602489 0.087380 0.667704
O O2 0.639349 0.169896 0.567854
O O3 0.745005 0.112115 0.641585
O O4 0.664939 0.950911 0.588927
O O5 0.500000 0.750000 0.829639
O O6 0.460570 0.945654 0.796891
O O7 0.491836 0.915543 0.907114
O O8 0.119313 0.732303 0.468966
O O9 0.054539 0.932846 0.490886
O O10 0.000000 0.750000 0.540455
O O11 0.647061 0.405806 0.780732
O O12 0.523006 0.130424 0.899226
O O13 0.642995 0.237998 0.856325
O O14 0.619506 0.445355 0.890571
#
# Coordination Sequence:
#
# PCOD8296214 Si02
#       7
#    16  16  16   8  16  16  16
#     4  11  23  36  58  95 125 150 196 249 296 347
#     4  10  22  38  59  88 117 151 197 250 296 349
#     4   9  18  36  62  88 123 167 199 228 279 351
#     4  10  24  44  64  80 108 160 208 244 302 370
#     4   9  20  39  61  85 122 168 197 228 283 357
#     4   8  18  37  60  87 119 163 204 226 273 360
#     4  10  21  40  61  86 116 149 197 254 301 343
#
# _framework density 21.630673000000002
#
# number of rings (size 3 to 8) (size 9 to 14) (size 15 to 20)
#    0.000    2.462    0.000    1.846    0.000   16.000 
#    0.000    6.154    0.000    0.000    0.000    0.000 
#    0.000    0.000    0.000    0.000    0.000    0.000 
#
# Total GULP energy -644420.297756 kJ/mol
# GULP energy per Si atom -12392.698034 kJ/mol
# Density = 2.158144 g / cm^3
# Si number density = 21.630673 Si / 1000 Ang^3
#
#
#
# Elastic Constant Matrix: (Units=GPa)
#
#
# Indices 1 2 3 4 5 6 
#
# 1 149.8824 33.5935 52.5843 0.0000 0.0000 0.0000
# 2 33.5935 111.2457 32.6364 0.0000 0.0000 0.0000
# 3 52.5843 32.6364 99.7519 0.0000 0.0000 0.0000
# 4 0.0000 0.0000 0.0000 25.5546 0.0000 0.0000
# 5 0.0000 0.0000 0.0000 0.0000 21.9956 0.0000
# 6 0.0000 0.0000 0.0000 0.0000 0.0000 23.4048
#
#
#
# Elastic Compliance Matrix: (Units=1/GPa)
#
#
# Indices 1 2 3 4 5 6 
#
# 1 0.008369 -0.001364 -0.003965 0.000000 0.000000 0.000000
# 2 -0.001364 0.010166 -0.002607 0.000000 0.000000 0.000000
# 3 -0.003965 -0.002607 0.012968 0.000000 0.000000 0.000000
# 4 0.000000 0.000000 0.000000 0.039132 0.000000 0.000000
# 5 0.000000 0.000000 0.000000 0.000000 0.045464 0.000000
# 6 0.000000 0.000000 0.000000 0.000000 0.000000 0.042726
#
#
# Mechanical properties :
#
#
# Convention : Reuss Voigt Hill
#
# Bulk Modulus (GPa) = 63.97865 66.50090 65.23978
# Shear Modulus (GPa) = 27.79209 30.32871 29.06040
#
# Velocity S-wave (km/s) = 3.58836 3.74855 3.66933
# Velocity P-wave (km/s) = 6.84181 7.03889 6.94105
#
# Compressibility (1/GPa) = 0.01563021
#
# Stress axis : x y z
#
# Youngs Moduli (GPa) = 119.49164 98.36910 77.11169
#
# Poissons Ratio (x) = 0.13416 0.30578
# Poissons Ratio (y) = 0.16297 0.20103
# Poissons Ratio (z) = 0.47383 0.25645
#
# Static dielectric constant tensor:
#      x y z
#    x 3.757490 0.000000 0.000000 
#    y 0.000000 29.871410 0.000000 
#    z 0.000000 0.000000 3.917520 
# 
# 
# High freq. dielectric constant tensor:
#      x y z
#    x 1.836640 0.000000 0.000000 
#    y 0.000000 1.863950 0.000000 
#    z 0.000000 0.000000 1.833480 
# 
# From -- ./inp_files/32422.got.cif
#   From: 2010.03.12/outbox.cif.g09.slc.cpg/sg73_17_cif.got.tgz:32422.got - 2010.04.16 15:25:48.
