data_PCOD8296229
_publ_section_title
;
Structure prediction by ZEFSAII (Michael W. Deem and Ramdas Pophale) SiO2 
 PCOD8296229
Probable space group: I B C A 
;
_chemical_formula_sum "Si O2"
_cell_formula_units_Z 80
_cell_length_a 9.801455
_cell_length_b 21.982374
_cell_length_c 15.532162
_cell_angle_alpha 90.000000
_cell_angle_beta 90.000000
_cell_angle_gamma 90.000000
_cell_volume 3346.547968
_symmetry_space_group_name_H-M "I B C A "
_symmetry_group_IT_number 73
_symmetry_cell_setting 'orthorhombic'
loop_
_space_group_symop_operation_xyz
x,y,z
-x,1/2-y,z
x,-y,1/2-z
1/2-x,y,-z
-x,-y,-z
x,1/2+y,-z
-x,y,1/2+z
1/2+x,-y,z
1/2+x,1/2+y,1/2+z
1/2-x,-y,1/2+z
1/2+x,1/2-y,-z
-x,1/2+y,1/2-z
1/2-x,1/2-y,1/2-z
1/2+x,y,1/2-z
1/2-x,1/2+y,z
x,1/2-y,1/2+z
loop_
_atom_site_type_symbol
_atom_site_label
_atom_site_fract_x
_atom_site_fract_y
_atom_site_fract_z
Si Si1 0.009890 0.921169 0.890987
Si Si2 0.792795 0.324574 0.155285
Si Si3 0.283789 0.117541 0.678124
Si Si4 0.000000 0.250000 0.068094
Si Si5 0.901231 0.500000 0.250000
Si Si6 0.973559 0.639081 0.553791
O O1 0.163239 0.894944 0.888491
O O2 0.914212 0.872941 0.844450
O O3 0.992917 0.983968 0.836041
O O4 0.969787 0.922661 0.993707
O O5 0.743312 0.327500 0.254983
O O6 0.675102 0.344035 0.089084
O O7 0.862391 0.260703 0.126075
O O8 0.424741 0.133964 0.632577
O O9 0.301743 0.055270 0.730239
O O10 0.027529 0.308017 0.008597
#
# Coordination Sequence:
#
# PCOD8296229 Si02
#       6
#    16  16  16   8   8  16
#     4  10  21  40  65  93 129 169 214 266 318 386
#     4  10  22  42  65  90 128 170 210 264 328 389
#     4  11  23  41  66  96 128 167 219 272 324 388
#     4  10  22  40  64  92 124 168 212 260 324 396
#     4  10  22  40  64  94 132 174 212 262 330 390
#     4  11  24  43  66  95 129 170 219 272 326 392
#
# _framework density 23.905231000000001
#
# number of rings (size 3 to 8) (size 9 to 14) (size 15 to 20)
#    0.000    1.600    0.000    6.000    0.000    9.600 
#    0.000   10.000    0.000    0.000    0.000    0.000 
#    0.000    0.000    0.000    0.000    0.000    0.000 
#
# Total GULP energy -495575.178380 kJ/mol
# GULP energy per Si atom -12389.379460 kJ/mol
# Density = 2.385082 g / cm^3
# Si number density = 23.905231 Si / 1000 Ang^3
#
#
#
# Elastic Constant Matrix: (Units=GPa)
#
#
# Indices 1 2 3 4 5 6 
#
# 1 134.3739 25.2124 41.6408 0.0000 0.0000 0.0000
# 2 25.2124 59.0613 38.9689 0.0000 0.0000 0.0000
# 3 41.6408 38.9689 151.6515 0.0000 -0.0001 0.0000
# 4 0.0000 0.0000 0.0000 16.1569 0.0000 0.0000
# 5 0.0000 0.0000 -0.0001 0.0000 42.4522 0.0000
# 6 0.0000 0.0000 0.0000 0.0000 0.0000 20.5336
#
#
#
# Elastic Compliance Matrix: (Units=1/GPa)
#
#
# Indices 1 2 3 4 5 6 
#
# 1 0.008428 -0.002494 -0.001673 0.000000 0.000000 0.000000
# 2 -0.002494 0.021126 -0.004744 0.000000 0.000000 0.000000
# 3 -0.001673 -0.004744 0.008273 0.000000 0.000000 0.000000
# 4 0.000000 0.000000 0.000000 0.061893 0.000000 0.000000
# 5 0.000000 0.000000 0.000000 0.000000 0.023556 0.000000
# 6 0.000000 0.000000 0.000000 0.000000 0.000000 0.048701
#
#
# Mechanical properties :
#
#
# Convention : Reuss Voigt Hill
#
# Bulk Modulus (GPa) = 49.98797 61.85900 55.92349
# Shear Modulus (GPa) = 25.44953 31.77952 28.61452
#
# Velocity S-wave (km/s) = 3.26636 3.65004 3.46352
# Velocity P-wave (km/s) = 5.93142 6.61035 6.28007
#
# Compressibility (1/GPa) = 0.02000481
#
# Stress axis : x y z
#
# Youngs Moduli (GPa) = 118.64621 47.33463 120.88124
#
# Poissons Ratio (x) = 0.11804 0.20229
# Poissons Ratio (y) = 0.29588 0.57345
# Poissons Ratio (z) = 0.19855 0.22455
#
# Static dielectric constant tensor:
#      x y z
#    x 4.243450 0.000000 0.000000 
#    y 0.000000 4.507920 0.000000 
#    z 0.000000 0.000000 4.718300 
# 
# 
# High freq. dielectric constant tensor:
#      x y z
#    x 1.947720 0.000000 0.000000 
#    y 0.000000 1.927720 0.000000 
#    z 0.000000 0.000000 1.964730 
# 
# From -- ./inp_files/16063.got.cif
#   From: 2010.03.12/outbox.cif.g09.slc.cpg/sg73_9_cif.got.tgz:16063.got - 2010.04.16 15:25:48.
