data_PCOD8296766
_publ_section_title
;
Structure prediction by ZEFSAII (Michael W. Deem and Ramdas Pophale) SiO2 
 PCOD8296766
Probable space group: I B C A 
;
_chemical_formula_sum "Si O2"
_cell_formula_units_Z 64
_cell_length_a 20.753573
_cell_length_b 7.298419
_cell_length_c 17.924556
_cell_angle_alpha 90.000000
_cell_angle_beta 90.000000
_cell_angle_gamma 90.000000
_cell_volume 2715.001515
_symmetry_space_group_name_H-M "I B C A "
_symmetry_group_IT_number 73
_symmetry_cell_setting 'orthorhombic'
loop_
_space_group_symop_operation_xyz
x,y,z
-x,1/2-y,z
x,-y,1/2-z
1/2-x,y,-z
-x,-y,-z
x,1/2+y,-z
-x,y,1/2+z
1/2+x,-y,z
1/2+x,1/2+y,1/2+z
1/2-x,-y,1/2+z
1/2+x,1/2-y,-z
-x,1/2+y,1/2-z
1/2-x,1/2-y,1/2-z
1/2+x,y,1/2-z
1/2-x,1/2+y,z
x,1/2-y,1/2+z
loop_
_atom_site_type_symbol
_atom_site_label
_atom_site_fract_x
_atom_site_fract_y
_atom_site_fract_z
Si Si1 0.639712 0.958148 0.666117
Si Si2 0.185577 0.277431 0.451750
Si Si3 0.126305 0.583242 0.910758
Si Si4 0.495752 0.038884 0.833105
O O1 0.687508 0.063603 0.610429
O O2 0.662429 0.000000 0.750000
O O3 0.642930 0.738601 0.651494
O O4 0.567206 0.043498 0.654340
O O5 0.250000 0.285246 0.500000
O O6 0.125790 0.315739 0.508667
O O7 0.179320 0.078849 0.413104
O O8 0.059044 0.476818 0.891987
O O9 0.500000 0.250000 0.847719
O O10 0.470573 0.000000 0.750000
#
# Coordination Sequence:
#
# PCOD8296766 Si02
#       4
#    16  16  16  16
#     4  10  24  47  72 107 143 179 239 294 361 439
#     4  12  26  45  70  97 142 194 248 294 349 415
#     4  11  24  42  70 102 140 187 232 296 363 422
#     4   9  21  40  67 105 142 178 225 293 373 436
#
# _framework density 23.572731999999998
#
# number of rings (size 3 to 8) (size 9 to 14) (size 15 to 20)
#    0.000    1.500    2.500    0.750   10.500    2.000 
#    4.500    2.500    0.000    0.000    0.000    0.000 
#    0.000    0.000    0.000    0.000    0.000    0.000 
#
# Total GULP energy -396538.068765 kJ/mol
# GULP energy per Si atom -12391.814649 kJ/mol
# Density = 2.351908 g / cm^3
# Si number density = 23.572732 Si / 1000 Ang^3
#
#
#
# Elastic Constant Matrix: (Units=GPa)
#
#
# Indices 1 2 3 4 5 6 
#
# 1 117.6235 43.5059 75.1856 0.0000 0.0000 0.0000
# 2 43.5059 102.5459 30.0061 0.0000 0.0000 0.0000
# 3 75.1856 30.0061 133.2626 0.0000 0.0000 0.0000
# 4 0.0000 0.0000 0.0000 43.1790 0.0000 0.0000
# 5 0.0000 0.0000 0.0000 0.0000 18.6507 0.0000
# 6 0.0000 0.0000 0.0000 0.0000 0.0000 24.3838
#
#
#
# Elastic Compliance Matrix: (Units=1/GPa)
#
#
# Indices 1 2 3 4 5 6 
#
# 1 0.014743 -0.004090 -0.007397 0.000000 0.000000 0.000000
# 2 -0.004090 0.011574 -0.000298 0.000000 0.000000 0.000000
# 3 -0.007397 -0.000298 0.011744 0.000000 0.000000 0.000000
# 4 0.000000 0.000000 0.000000 0.023159 0.000000 0.000000
# 5 0.000000 0.000000 0.000000 0.000000 0.053617 0.000000
# 6 0.000000 0.000000 0.000000 0.000000 0.000000 0.041011
#
#
# Mechanical properties :
#
#
# Convention : Reuss Voigt Hill
#
# Bulk Modulus (GPa) = 69.01068 72.31412 70.66240
# Shear Modulus (GPa) = 27.13710 30.89167 29.01438
#
# Velocity S-wave (km/s) = 3.39663 3.62399 3.51215
# Velocity P-wave (km/s) = 6.68745 6.94656 6.81823
#
# Compressibility (1/GPa) = 0.01449051
#
# Stress axis : x y z
#
# Youngs Moduli (GPa) = 67.83075 86.39751 85.14773
#
# Poissons Ratio (x) = 0.35339 0.62981
# Poissons Ratio (y) = 0.27745 0.02541
# Poissons Ratio (z) = 0.50172 0.02578
#
# Static dielectric constant tensor:
#      x y z
#    x 5.113450 0.000000 0.000000 
#    y 0.000000 4.271280 0.000000 
#    z 0.000000 0.000000 4.295610 
# 
# 
# High freq. dielectric constant tensor:
#      x y z
#    x 1.920020 0.000000 0.000000 
#    y 0.000000 1.939730 0.000000 
#    z 0.000000 0.000000 1.924360 
# 
# From -- ./inp_files/6889.got.cif
#   From: 2010.03.12/outbox.cif.g09.slc.cpg/sg73_4_cif.got.tgz:6889.got - 2010.04.16 15:25:48.
