data_PCOD8296630
_publ_section_title
;
Structure prediction by ZEFSAII (Michael W. Deem and Ramdas Pophale) SiO2 
 PCOD8296630
Probable space group: I B C A 
;
_chemical_formula_sum "Si O2"
_cell_formula_units_Z 88
_cell_length_a 25.091830
_cell_length_b 11.993184
_cell_length_c 13.508950
_cell_angle_alpha 90.000000
_cell_angle_beta 90.000000
_cell_angle_gamma 90.000000
_cell_volume 4065.260942
_symmetry_space_group_name_H-M "I B C A "
_symmetry_group_IT_number 73
_symmetry_cell_setting 'orthorhombic'
loop_
_space_group_symop_operation_xyz
x,y,z
-x,1/2-y,z
x,-y,1/2-z
1/2-x,y,-z
-x,-y,-z
x,1/2+y,-z
-x,y,1/2+z
1/2+x,-y,z
1/2+x,1/2+y,1/2+z
1/2-x,-y,1/2+z
1/2+x,1/2-y,-z
-x,1/2+y,1/2-z
1/2-x,1/2-y,1/2-z
1/2+x,y,1/2-z
1/2-x,1/2+y,z
x,1/2-y,1/2+z
loop_
_atom_site_type_symbol
_atom_site_label
_atom_site_fract_x
_atom_site_fract_y
_atom_site_fract_z
Si Si1 0.204299 0.605883 0.688498
Si Si2 0.867816 0.309013 0.477630
Si Si3 0.463138 0.560435 0.576245
Si Si4 0.908081 0.856967 0.177277
Si Si5 0.500000 0.750000 0.211048
Si Si6 0.817840 0.680763 0.819017
O O1 0.185081 0.500000 0.750000
O O2 0.168788 0.610475 0.589599
O O3 0.195932 0.714356 0.753202
O O4 0.267454 0.598657 0.664796
O O5 0.920559 0.372251 0.512034
O O6 0.881288 0.194753 0.420514
O O7 0.834969 0.273913 0.574120
O O8 0.500000 0.500000 0.500000
O O9 0.436586 0.472085 0.650367
O O10 0.500949 0.640734 0.641530
O O11 0.865505 0.885198 0.263860
O O12 0.948048 0.761306 0.219340
#
# Coordination Sequence:
#
# PCOD8296630 Si02
#       6
#    16  16  16  16   8  16
#     4  10  24  42  71 104 136 181 227 284 345 411
#     4  11  24  43  68 100 137 178 232 283 341 417
#     4  12  26  42  70 100 133 187 232 285 349 411
#     4  11  25  43  70  95 138 185 226 290 352 404
#     4  12  24  44  64  96 134 172 232 288 334 418
#     4  10  23  46  66 101 144 172 230 283 343 416
#
# _framework density 21.646826999999998
#
# number of rings (size 3 to 8) (size 9 to 14) (size 15 to 20)
#    0.000    1.091    1.818    3.273    5.091    1.455 
#    0.000    1.818    0.000    0.000    0.000    0.000 
#    0.000    0.000    0.000    0.000    0.000    0.000 
#
# Total GULP energy -545648.523738 kJ/mol
# GULP energy per Si atom -12401.102812 kJ/mol
# Density = 2.159756 g / cm^3
# Si number density = 21.646827 Si / 1000 Ang^3
#
#
#
# Elastic Constant Matrix: (Units=GPa)
#
#
# Indices 1 2 3 4 5 6 
#
# 1 80.4898 12.9604 22.8397 0.0000 0.0000 0.0000
# 2 12.9604 80.8555 23.5351 0.0000 0.0000 0.0000
# 3 22.8397 23.5351 128.5484 0.0000 0.0000 0.0000
# 4 0.0000 0.0000 0.0000 36.6029 0.0000 0.0000
# 5 0.0000 0.0000 0.0000 0.0000 41.1756 0.0000
# 6 0.0000 0.0000 0.0000 0.0000 0.0000 27.2603
#
#
#
# Elastic Compliance Matrix: (Units=1/GPa)
#
#
# Indices 1 2 3 4 5 6 
#
# 1 0.013258 -0.001521 -0.002077 0.000000 0.000000 0.000000
# 2 -0.001521 0.013238 -0.002154 0.000000 0.000000 0.000000
# 3 -0.002077 -0.002154 0.008543 0.000000 0.000000 0.000000
# 4 0.000000 0.000000 0.000000 0.027320 0.000000 0.000000
# 5 0.000000 0.000000 0.000000 0.000000 0.024286 0.000000
# 6 0.000000 0.000000 0.000000 0.000000 0.000000 0.036683
#
#
# Mechanical properties :
#
#
# Convention : Reuss Voigt Hill
#
# Bulk Modulus (GPa) = 42.48744 45.39600 43.94172
# Shear Modulus (GPa) = 35.04417 36.37832 35.71124
#
# Velocity S-wave (km/s) = 4.02793 4.10388 4.06608
# Velocity P-wave (km/s) = 6.42670 6.59337 6.51057
#
# Compressibility (1/GPa) = 0.02353637
#
# Stress axis : x y z
#
# Youngs Moduli (GPa) = 75.42497 75.53826 117.06133
#
# Poissons Ratio (x) = 0.11486 0.24317
# Poissons Ratio (y) = 0.11469 0.25210
# Poissons Ratio (z) = 0.15668 0.16268
#
# Static dielectric constant tensor:
#      x y z
#    x 4.357480 0.000000 0.000000 
#    y 0.000000 3.722530 0.000000 
#    z 0.000000 0.000000 4.169100 
# 
# 
# High freq. dielectric constant tensor:
#      x y z
#    x 1.862130 0.000000 0.000000 
#    y 0.000000 1.839880 0.000000 
#    z 0.000000 0.000000 1.873020 
# 
# From -- ./inp_files/13528.got.cif
#   From: 2010.03.12/outbox.cif.g09.slc.cpg/sg73_7_cif.got.tgz:13528.got - 2010.04.16 15:25:48.
