data_PCOD8296970
_publ_section_title
;
Structure prediction by ZEFSAII (Michael W. Deem and Ramdas Pophale) SiO2 
 PCOD8296970
Probable space group: I B C A 
;
_chemical_formula_sum "Si O2"
_cell_formula_units_Z 112
_cell_length_a 11.468681
_cell_length_b 29.066625
_cell_length_c 14.350299
_cell_angle_alpha 90.000000
_cell_angle_beta 90.000000
_cell_angle_gamma 90.000000
_cell_volume 4783.756119
_symmetry_space_group_name_H-M "I B C A "
_symmetry_group_IT_number 73
_symmetry_cell_setting 'orthorhombic'
loop_
_space_group_symop_operation_xyz
x,y,z
-x,1/2-y,z
x,-y,1/2-z
1/2-x,y,-z
-x,-y,-z
x,1/2+y,-z
-x,y,1/2+z
1/2+x,-y,z
1/2+x,1/2+y,1/2+z
1/2-x,-y,1/2+z
1/2+x,1/2-y,-z
-x,1/2+y,1/2-z
1/2-x,1/2-y,1/2-z
1/2+x,y,1/2-z
1/2-x,1/2+y,z
x,1/2-y,1/2+z
loop_
_atom_site_type_symbol
_atom_site_label
_atom_site_fract_x
_atom_site_fract_y
_atom_site_fract_z
Si Si1 0.572643 0.451415 0.906630
Si Si2 0.624485 0.324814 0.020859
Si Si3 0.200499 0.907721 0.642326
Si Si4 0.525616 0.947810 0.386404
Si Si5 0.040023 0.638662 0.361014
Si Si6 0.206396 0.369625 0.832744
Si Si7 0.512762 0.699584 0.808277
O O1 0.710091 0.441471 0.909354
O O2 0.564774 0.501156 0.857214
O O3 0.509964 0.412412 0.843951
O O4 0.512265 0.449252 0.006263
O O5 0.650432 0.374471 0.062934
O O6 0.558342 0.294124 0.095934
O O7 0.750000 0.300848 0.000000
O O8 0.542660 0.332043 0.930293
O O9 0.262796 0.881381 0.726224
O O10 0.086888 0.935692 0.677244
O O11 0.628036 0.910279 0.375951
O O12 0.175295 0.635657 0.394375
O O13 0.045993 0.662891 0.260387
O O14 0.141456 0.319994 0.832151
O O15 0.500000 0.750000 0.761215
#
# Coordination Sequence:
#
# PCOD8296970 Si02
#       7
#    16  16  16  16  16  16  16
#     4  11  24  43  71 104 142 197 245 292 354 433
#     4  12  23  49  80 101 146 203 237 288 383 454
#     4  12  22  47  72 100 146 200 242 289 361 444
#     4  11  25  44  70 106 147 192 250 297 356 428
#     4  12  25  47  75 108 148 195 241 307 370 434
#     4  12  25  47  72 106 147 185 244 313 361 425
#     4  12  28  51  76 111 144 183 246 312 376 446
#
# _framework density 23.412565000000001
#
# number of rings (size 3 to 8) (size 9 to 14) (size 15 to 20)
#    0.000    0.286    7.143    0.429    2.000    4.000 
#    2.571    0.000    0.000    0.000    0.000    0.000 
#    0.000    0.000    0.000    0.000    0.000    0.000 
#
# Total GULP energy -694180.048928 kJ/mol
# GULP energy per Si atom -12396.072302 kJ/mol
# Density = 2.335928 g / cm^3
# Si number density = 23.412565 Si / 1000 Ang^3
#
#
#
# Elastic Constant Matrix: (Units=GPa)
#
#
# Indices 1 2 3 4 5 6 
#
# 1 191.5987 47.2501 33.9158 0.0003 -0.0001 0.0000
# 2 47.2501 128.4827 3.9661 0.0003 -0.0001 -0.0001
# 3 33.9158 3.9661 78.8023 0.0016 -0.0006 -0.0001
# 4 0.0003 0.0003 0.0016 23.4108 -0.0003 0.0000
# 5 -0.0001 -0.0001 -0.0006 -0.0003 43.9138 0.0001
# 6 0.0000 -0.0001 -0.0001 0.0000 0.0001 20.2671
#
#
#
# Elastic Compliance Matrix: (Units=1/GPa)
#
#
# Indices 1 2 3 4 5 6 
#
# 1 0.006218 -0.002207 -0.002565 0.000000 0.000000 0.000000
# 2 -0.002207 0.008579 0.000518 0.000000 0.000000 0.000000
# 3 -0.002565 0.000518 0.013768 -0.000001 0.000000 0.000000
# 4 0.000000 0.000000 -0.000001 0.042715 0.000000 0.000000
# 5 0.000000 0.000000 0.000000 0.000000 0.022772 0.000000
# 6 0.000000 0.000000 0.000000 0.000000 0.000000 0.049341
#
#
# Mechanical properties :
#
#
# Convention : Reuss Voigt Hill
#
# Bulk Modulus (GPa) = 49.85966 63.23864 56.54915
# Shear Modulus (GPa) = 31.52860 38.43512 34.98186
#
# Velocity S-wave (km/s) = 3.67366 4.05612 3.86962
# Velocity P-wave (km/s) = 6.27190 7.00038 6.64613
#
# Compressibility (1/GPa) = 0.02005629
#
# Stress axis : x y z
#
# Youngs Moduli (GPa) = 160.83289 116.56473 72.63315
#
# Poissons Ratio (x) = 0.25730 0.18630
# Poissons Ratio (y) = 0.35502 -0.03764
# Poissons Ratio (z) = 0.41252 -0.06041
#
# Static dielectric constant tensor:
#      x y z
#    x 4.942280 0.000000 0.000000 
#    y 0.000000 4.208900 0.000000 
#    z 0.000000 0.000000 4.062970 
# 
# 
# High freq. dielectric constant tensor:
#      x y z
#    x 1.947810 0.000000 0.000000 
#    y 0.000000 1.906610 0.000000 
#    z 0.000000 0.000000 1.926690 
# 
# From -- ./inp_files/16343.got.cif
#   From: 2010.03.12/outbox.cif.g09.slc.cpg/sg73_9_cif.got.tgz:16343.got - 2010.04.16 15:25:48.
