data_PCOD8296336
_publ_section_title
;
Structure prediction by ZEFSAII (Michael W. Deem and Ramdas Pophale) SiO2 
 PCOD8296336
Probable space group: I B C A 
;
_chemical_formula_sum "Si O2"
_cell_formula_units_Z 104
_cell_length_a 26.013439
_cell_length_b 20.274374
_cell_length_c 9.421689
_cell_angle_alpha 90.000000
_cell_angle_beta 90.000000
_cell_angle_gamma 90.000000
_cell_volume 4969.057111
_symmetry_space_group_name_H-M "I B C A "
_symmetry_group_IT_number 73
_symmetry_cell_setting 'orthorhombic'
loop_
_space_group_symop_operation_xyz
x,y,z
-x,1/2-y,z
x,-y,1/2-z
1/2-x,y,-z
-x,-y,-z
x,1/2+y,-z
-x,y,1/2+z
1/2+x,-y,z
1/2+x,1/2+y,1/2+z
1/2-x,-y,1/2+z
1/2+x,1/2-y,-z
-x,1/2+y,1/2-z
1/2-x,1/2-y,1/2-z
1/2+x,y,1/2-z
1/2-x,1/2+y,z
x,1/2-y,1/2+z
loop_
_atom_site_type_symbol
_atom_site_label
_atom_site_fract_x
_atom_site_fract_y
_atom_site_fract_z
Si Si1 0.977243 0.320934 0.556512
Si Si2 0.479507 0.900256 0.794059
Si Si3 0.124191 0.891281 0.889424
Si Si4 0.810730 0.315334 0.147257
Si Si5 0.863722 0.570222 0.193914
Si Si6 0.060443 0.500000 0.250000
Si Si7 0.807954 0.815933 0.180817
O O1 0.983869 0.334855 0.390322
O O2 0.916888 0.330769 0.597569
O O3 0.000000 0.250000 0.594687
O O4 0.011293 0.376172 0.634546
O O5 0.425060 0.935273 0.810971
O O6 0.523659 0.951709 0.841074
O O7 0.163019 0.875697 0.760133
O O8 0.095440 0.959563 0.858362
O O9 0.155044 0.906589 0.036310
O O10 0.846614 0.374414 0.196074
O O11 0.823058 0.248788 0.231210
O O12 0.751979 0.334034 0.180263
O O13 0.824467 0.304722 0.981843
O O14 0.841385 0.500000 0.250000
#
# Coordination Sequence:
#
# PCOD8296336 Si02
#       7
#    16  16  16  16  16   8  16
#     4  10  22  38  57  91 123 165 211 267 316 368
#     4  10  22  38  62  82 127 168 213 257 316 375
#     4  10  24  39  63  94 129 172 218 265 324 371
#     4  10  23  43  73  95 129 164 208 262 333 386
#     4  11  24  39  61  98 128 174 217 263 314 384
#     4  10  22  42  62  88 120 180 216 262 312 378
#     4  10  22  46  69 100 125 165 209 265 329 394
#
# _framework density 20.929525000000002
#
# number of rings (size 3 to 8) (size 9 to 14) (size 15 to 20)
#    0.000    1.846    0.769    1.385    6.462    4.923 
#    4.154    0.000    0.000    0.000    0.000    0.000 
#    0.000    0.000    0.000    0.000    0.000    0.000 
#
# Total GULP energy -644674.106592 kJ/mol
# GULP energy per Si atom -12397.578973 kJ/mol
# Density = 2.088189 g / cm^3
# Si number density = 20.929525 Si / 1000 Ang^3
#
#
#
# Elastic Constant Matrix: (Units=GPa)
#
#
# Indices 1 2 3 4 5 6 
#
# 1 57.5507 42.0725 46.2627 0.0000 0.0000 0.0000
# 2 42.0725 110.5863 50.0015 0.0000 0.0000 0.0000
# 3 46.2627 50.0015 148.1561 0.0000 0.0000 0.0000
# 4 0.0000 0.0000 0.0000 36.5901 0.0000 0.0000
# 5 0.0000 0.0000 0.0000 0.0000 31.4137 0.0000
# 6 0.0000 0.0000 0.0000 0.0000 0.0000 28.4157
#
#
#
# Elastic Compliance Matrix: (Units=1/GPa)
#
#
# Indices 1 2 3 4 5 6 
#
# 1 0.028063 -0.007924 -0.006089 0.000000 0.000000 0.000000
# 2 -0.007924 0.012908 -0.001882 0.000000 0.000000 0.000000
# 3 -0.006089 -0.001882 0.009286 0.000000 0.000000 0.000000
# 4 0.000000 0.000000 0.000000 0.027330 0.000000 0.000000
# 5 0.000000 0.000000 0.000000 0.000000 0.031833 0.000000
# 6 0.000000 0.000000 0.000000 0.000000 0.000000 0.035192
#
#
# Mechanical properties :
#
#
# Convention : Reuss Voigt Hill
#
# Bulk Modulus (GPa) = 54.14668 65.88516 60.01592
# Shear Modulus (GPa) = 27.38864 31.14764 29.26814
#
# Velocity S-wave (km/s) = 3.62140 3.86192 3.74359
# Velocity P-wave (km/s) = 6.58887 7.17174 6.88647
#
# Compressibility (1/GPa) = 0.01846835
#
# Stress axis : x y z
#
# Youngs Moduli (GPa) = 35.63417 77.46967 107.68745
#
# Poissons Ratio (x) = 0.61383 0.65568
# Poissons Ratio (y) = 0.28235 0.20270
# Poissons Ratio (z) = 0.21697 0.14582
#
# Static dielectric constant tensor:
#      x y z
#    x 3.645170 0.000000 0.000000 
#    y 0.000000 3.691030 0.000000 
#    z 0.000000 0.000000 3.912640 
# 
# 
# High freq. dielectric constant tensor:
#      x y z
#    x 1.805030 0.000000 0.000000 
#    y 0.000000 1.816910 0.000000 
#    z 0.000000 0.000000 1.831090 
# 
# From -- ./inp_files/7878.got.cif
#   From: 2010.03.12/outbox.cif.g09.slc.cpg/sg73_4_cif.got.tgz:7878.got - 2010.04.16 15:25:48.
