data_PCOD8296286
_publ_section_title
;
Structure prediction by ZEFSAII (Michael W. Deem and Ramdas Pophale) SiO2 
 PCOD8296286
Probable space group: I B C A 
;
_chemical_formula_sum "Si O2"
_cell_formula_units_Z 64
_cell_length_a 12.120526
_cell_length_b 26.132483
_cell_length_c 8.461030
_cell_angle_alpha 90.000000
_cell_angle_beta 90.000000
_cell_angle_gamma 90.000000
_cell_volume 2679.941901
_symmetry_space_group_name_H-M "I B C A "
_symmetry_group_IT_number 73
_symmetry_cell_setting 'orthorhombic'
loop_
_space_group_symop_operation_xyz
x,y,z
-x,1/2-y,z
x,-y,1/2-z
1/2-x,y,-z
-x,-y,-z
x,1/2+y,-z
-x,y,1/2+z
1/2+x,-y,z
1/2+x,1/2+y,1/2+z
1/2-x,-y,1/2+z
1/2+x,1/2-y,-z
-x,1/2+y,1/2-z
1/2-x,1/2-y,1/2-z
1/2+x,y,1/2-z
1/2-x,1/2+y,z
x,1/2-y,1/2+z
loop_
_atom_site_type_symbol
_atom_site_label
_atom_site_fract_x
_atom_site_fract_y
_atom_site_fract_z
Si Si1 0.096733 0.208761 0.243381
Si Si2 0.581061 0.591960 0.754291
Si Si3 0.250000 0.249193 0.500000
Si Si4 0.591783 0.036536 0.562216
Si Si5 0.250000 0.543925 0.500000
O O1 0.050971 0.151687 0.251581
O O2 0.193490 0.213004 0.371579
O O3 0.153423 0.216043 0.073238
O O4 0.000000 0.250000 0.269755
O O5 0.626684 0.574184 0.583512
O O6 0.460448 0.567377 0.790435
O O7 0.671492 0.578934 0.889784
O O8 0.500000 0.000000 0.500000
O O9 0.686779 0.996707 0.614543
#
# Coordination Sequence:
#
# PCOD8296286 Si02
#       5
#    16  16   8  16   8
#     4  11  25  47  74 102 150 181 242 301 352 425
#     4  11  25  42  71 102 133 190 228 281 367 414
#     4  10  25  47  70 102 140 186 241 289 358 416
#     4  10  23  42  64  98 136 175 229 281 344 411
#     4  10  21  43  66  96 144 174 229 289 336 424
#
# _framework density 23.881114
#
# number of rings (size 3 to 8) (size 9 to 14) (size 15 to 20)
#    0.000    1.500    0.000    4.500    7.000    9.000 
#    9.000    0.000    0.000    0.000    0.000    0.000 
#    0.000    0.000    0.000    0.000    0.000    0.000 
#
# Total GULP energy -396483.842854 kJ/mol
# GULP energy per Si atom -12390.120089 kJ/mol
# Density = 2.382676 g / cm^3
# Si number density = 23.881114 Si / 1000 Ang^3
#
#
#
# Elastic Constant Matrix: (Units=GPa)
#
#
# Indices 1 2 3 4 5 6 
#
# 1 69.1139 27.3995 -4.9543 -0.0003 0.0000 0.0000
# 2 27.3995 165.2350 11.0283 -0.0005 -0.0002 0.0001
# 3 -4.9543 11.0283 88.6820 -0.0022 0.0055 0.0002
# 4 -0.0003 -0.0005 -0.0022 21.3210 -0.0005 0.0002
# 5 0.0000 -0.0002 0.0055 -0.0005 43.7136 0.0001
# 6 0.0000 0.0001 0.0002 0.0002 0.0001 39.9506
#
#
#
# Elastic Compliance Matrix: (Units=1/GPa)
#
#
# Indices 1 2 3 4 5 6 
#
# 1 0.015613 -0.002669 0.001204 0.000000 0.000000 0.000000
# 2 -0.002669 0.006559 -0.000965 0.000000 0.000000 0.000000
# 3 0.001204 -0.000965 0.011464 0.000001 -0.000001 0.000000
# 4 0.000000 0.000000 0.000001 0.046902 0.000000 0.000000
# 5 0.000000 0.000000 -0.000001 0.000000 0.022876 0.000000
# 6 0.000000 0.000000 0.000000 0.000000 0.000000 0.025031
#
#
# Mechanical properties :
#
#
# Convention : Reuss Voigt Hill
#
# Bulk Modulus (GPa) = 34.75117 43.33087 39.04102
# Shear Modulus (GPa) = 34.99022 40.30088 37.64555
#
# Velocity S-wave (km/s) = 3.83192 4.11245 3.97466
# Velocity P-wave (km/s) = 5.84479 6.38228 6.11944
#
# Compressibility (1/GPa) = 0.02877601
#
# Stress axis : x y z
#
# Youngs Moduli (GPa) = 64.04735 152.46166 87.23336
#
# Poissons Ratio (x) = 0.40698 -0.10505
# Poissons Ratio (y) = 0.17097 0.08416
# Poissons Ratio (z) = -0.07713 0.14709
#
# Static dielectric constant tensor:
#      x y z
#    x 6.039290 0.000050 0.000080 
#    y 0.000050 4.120910 -0.000030 
#    z 0.000080 -0.000030 3.875550 
# 
# 
# High freq. dielectric constant tensor:
#      x y z
#    x 1.952680 0.000000 0.000000 
#    y 0.000000 1.938420 0.000000 
#    z 0.000000 0.000000 1.956140 
# 
# From -- ./inp_files/4027.got.cif
#   From: 2010.03.12/outbox.cif.g09.slc.cpg/sg73_3_cif.got.tgz:4027.got - 2010.04.16 15:25:48.
