data_PCOD8296132
_publ_section_title
;
Structure prediction by ZEFSAII (Michael W. Deem and Ramdas Pophale) SiO2 
 PCOD8296132
Probable space group: I B C A 
;
_chemical_formula_sum "Si O2"
_cell_formula_units_Z 80
_cell_length_a 13.955346
_cell_length_b 11.984480
_cell_length_c 24.401284
_cell_angle_alpha 90.000000
_cell_angle_beta 90.000000
_cell_angle_gamma 90.000000
_cell_volume 4081.055333
_symmetry_space_group_name_H-M "I B C A "
_symmetry_group_IT_number 73
_symmetry_cell_setting 'orthorhombic'
loop_
_space_group_symop_operation_xyz
x,y,z
-x,1/2-y,z
x,-y,1/2-z
1/2-x,y,-z
-x,-y,-z
x,1/2+y,-z
-x,y,1/2+z
1/2+x,-y,z
1/2+x,1/2+y,1/2+z
1/2-x,-y,1/2+z
1/2+x,1/2-y,-z
-x,1/2+y,1/2-z
1/2-x,1/2-y,1/2-z
1/2+x,y,1/2-z
1/2-x,1/2+y,z
x,1/2-y,1/2+z
loop_
_atom_site_type_symbol
_atom_site_label
_atom_site_fract_x
_atom_site_fract_y
_atom_site_fract_z
Si Si1 0.882615 0.032436 0.372558
Si Si2 0.144238 0.489251 0.490747
Si Si3 0.504401 0.878205 0.064861
Si Si4 0.746560 0.906350 0.707800
Si Si5 0.105067 0.780575 0.715161
O O1 0.853486 0.078695 0.432790
O O2 0.910713 0.135386 0.334995
O O3 0.975168 0.950184 0.381032
O O4 0.793411 0.962962 0.347313
O O5 0.250000 0.536021 0.500000
O O6 0.072622 0.595347 0.483917
O O7 0.109043 0.411626 0.541246
O O8 0.500000 0.750000 0.081431
O O9 0.835743 0.826563 0.693572
O O10 0.659695 0.837087 0.734511
O O11 0.783709 0.000000 0.750000
O O12 0.000000 0.750000 0.737062
#
# Coordination Sequence:
#
# PCOD8296132 Si02
#       5
#    16  16  16  16  16
#     4   9  20  38  55  88 114 148 201 235 286 361
#     4   9  20  38  55  83 116 152 195 240 290 353
#     4   9  20  38  56  82 118 154 189 246 287 343
#     4   9  20  39  58  84 122 145 198 244 290 360
#     4  10  21  37  60  86 114 156 190 243 302 347
#
# _framework density 19.602772999999999
#
# number of rings (size 3 to 8) (size 9 to 14) (size 15 to 20)
#    1.200    1.600    0.000    0.000    0.000    8.000 
#    3.600    4.000    0.000    0.000    0.000    0.000 
#    0.000    0.000    0.000    0.000    0.000    0.000 
#
# Total GULP energy -495626.404335 kJ/mol
# GULP energy per Si atom -12390.660108 kJ/mol
# Density = 1.955816 g / cm^3
# Si number density = 19.602773 Si / 1000 Ang^3
#
#
#
# Elastic Constant Matrix: (Units=GPa)
#
#
# Indices 1 2 3 4 5 6 
#
# 1 120.9279 47.8931 25.5275 0.0000 0.0000 0.0000
# 2 47.8931 115.9910 30.2014 0.0000 0.0000 0.0000
# 3 25.5275 30.2014 71.1521 0.0000 0.0000 0.0000
# 4 0.0000 0.0000 0.0000 19.4932 0.0000 0.0000
# 5 0.0000 0.0000 0.0000 0.0000 18.7539 0.0000
# 6 0.0000 0.0000 0.0000 0.0000 0.0000 24.4506
#
#
#
# Elastic Compliance Matrix: (Units=1/GPa)
#
#
# Indices 1 2 3 4 5 6 
#
# 1 0.010157 -0.003648 -0.002095 0.000000 0.000000 0.000000
# 2 -0.003648 0.011003 -0.003361 0.000000 0.000000 0.000000
# 3 -0.002095 -0.003361 0.016233 0.000000 0.000000 0.000000
# 4 0.000000 0.000000 0.000000 0.051300 0.000000 0.000000
# 5 0.000000 0.000000 0.000000 0.000000 0.053322 0.000000
# 6 0.000000 0.000000 0.000000 0.000000 0.000000 0.040899
#
#
# Mechanical properties :
#
#
# Convention : Reuss Voigt Hill
#
# Bulk Modulus (GPa) = 52.13091 57.25722 54.69407
# Shear Modulus (GPa) = 24.09434 26.16947 25.13191
#
# Velocity S-wave (km/s) = 3.50970 3.65771 3.58447
# Velocity P-wave (km/s) = 6.56318 6.86372 6.71513
#
# Compressibility (1/GPa) = 0.01918248
#
# Stress axis : x y z
#
# Youngs Moduli (GPa) = 98.45878 90.88498 61.60281
#
# Poissons Ratio (x) = 0.33155 0.12908
# Poissons Ratio (y) = 0.35918 0.20708
# Poissons Ratio (z) = 0.20631 0.30551
#
# Static dielectric constant tensor:
#      x y z
#    x 3.449960 0.000000 0.000000 
#    y 0.000000 3.428090 0.000000 
#    z 0.000000 0.000000 3.367650 
# 
# 
# High freq. dielectric constant tensor:
#      x y z
#    x 1.758470 0.000000 0.000000 
#    y 0.000000 1.748810 0.000000 
#    z 0.000000 0.000000 1.751430 
# 
# From -- ./inp_files/33829.got.cif
#   From: 2010.03.12/outbox.cif.g09.slc.cpg/sg73_17_cif.got.tgz:33829.got - 2010.04.16 15:25:48.
