data_PCOD8296562
_publ_section_title
;
Structure prediction by ZEFSAII (Michael W. Deem and Ramdas Pophale) SiO2 
 PCOD8296562
Probable space group: I B C A 
;
_chemical_formula_sum "Si O2"
_cell_formula_units_Z 88
_cell_length_a 19.857638
_cell_length_b 12.947089
_cell_length_c 17.210220
_cell_angle_alpha 90.000000
_cell_angle_beta 90.000000
_cell_angle_gamma 90.000000
_cell_volume 4424.723580
_symmetry_space_group_name_H-M "I B C A "
_symmetry_group_IT_number 73
_symmetry_cell_setting 'orthorhombic'
loop_
_space_group_symop_operation_xyz
x,y,z
-x,1/2-y,z
x,-y,1/2-z
1/2-x,y,-z
-x,-y,-z
x,1/2+y,-z
-x,y,1/2+z
1/2+x,-y,z
1/2+x,1/2+y,1/2+z
1/2-x,-y,1/2+z
1/2+x,1/2-y,-z
-x,1/2+y,1/2-z
1/2-x,1/2-y,1/2-z
1/2+x,y,1/2-z
1/2-x,1/2+y,z
x,1/2-y,1/2+z
loop_
_atom_site_type_symbol
_atom_site_label
_atom_site_fract_x
_atom_site_fract_y
_atom_site_fract_z
Si Si1 0.557782 0.563477 0.085769
Si Si2 0.388008 0.212065 0.716825
Si Si3 0.000000 0.750000 0.327184
Si Si4 0.189110 0.579327 0.820283
Si Si5 0.080834 0.958353 0.093738
Si Si6 0.161316 0.566778 0.174205
O O1 0.548135 0.678055 0.120150
O O2 0.492884 0.500081 0.115503
O O3 0.623813 0.504860 0.113533
O O4 0.572337 0.574341 0.995165
O O5 0.453004 0.185789 0.768955
O O6 0.326615 0.186866 0.775861
O O7 0.395654 0.142730 0.640103
O O8 0.381066 0.329770 0.689481
O O9 0.181656 0.500000 0.750000
O O10 0.136335 0.548320 0.889014
O O11 0.263375 0.589915 0.857591
O O12 0.170077 0.500000 0.250000
#
# Coordination Sequence:
#
# PCOD8296562 Si02
#       6
#    16  16   8  16  16  16
#     4  11  24  40  61  92 127 162 209 260 316 380
#     4  11  21  38  65  93 125 163 212 258 317 373
#     4  12  22  36  66  96 126 160 216 268 312 376
#     4   9  20  39  64  90 125 162 206 257 310 374
#     4  10  23  41  62  87 126 168 204 254 321 372
#     4  11  22  38  63  95 123 161 210 258 308 378
#
# _framework density 19.888248000000001
#
# number of rings (size 3 to 8) (size 9 to 14) (size 15 to 20)
#    0.000    1.455    3.636    1.636    0.000    4.364 
#    0.000    0.000    0.000    0.000    0.000    0.000 
#    0.000    0.000    0.000    0.000    0.000    0.000 
#
# Total GULP energy -545225.556329 kJ/mol
# GULP energy per Si atom -12391.489917 kJ/mol
# Density = 1.984298 g / cm^3
# Si number density = 19.888248 Si / 1000 Ang^3
#
#
#
# Elastic Constant Matrix: (Units=GPa)
#
#
# Indices 1 2 3 4 5 6 
#
# 1 127.2964 28.2757 53.1222 0.0000 0.0000 0.0000
# 2 28.2757 94.5710 37.2277 0.0000 0.0000 0.0000
# 3 53.1222 37.2277 72.6909 0.0000 0.0000 0.0000
# 4 0.0000 0.0000 0.0000 24.7633 0.0000 0.0000
# 5 0.0000 0.0000 0.0000 0.0000 24.9957 0.0000
# 6 0.0000 0.0000 0.0000 0.0000 0.0000 29.9947
#
#
#
# Elastic Compliance Matrix: (Units=1/GPa)
#
#
# Indices 1 2 3 4 5 6 
#
# 1 0.011305 -0.000160 -0.008179 0.000000 0.000000 0.000000
# 2 -0.000160 0.013246 -0.006667 0.000000 0.000000 0.000000
# 3 -0.008179 -0.006667 0.023149 0.000000 0.000000 0.000000
# 4 0.000000 0.000000 0.000000 0.040382 0.000000 0.000000
# 5 0.000000 0.000000 0.000000 0.000000 0.040007 0.000000
# 6 0.000000 0.000000 0.000000 0.000000 0.000000 0.033339
#
#
# Mechanical properties :
#
#
# Convention : Reuss Voigt Hill
#
# Bulk Modulus (GPa) = 56.53925 59.08995 57.81460
# Shear Modulus (GPa) = 25.33744 27.67959 26.50852
#
# Velocity S-wave (km/s) = 3.57317 3.73467 3.65481
# Velocity P-wave (km/s) = 6.74638 6.95504 6.85150
#
# Compressibility (1/GPa) = 0.01768683
#
# Stress axis : x y z
#
# Youngs Moduli (GPa) = 88.45973 75.49231 43.19904
#
# Poissons Ratio (x) = 0.01209 0.35334
# Poissons Ratio (y) = 0.01417 0.28800
# Poissons Ratio (z) = 0.72354 0.50330
#
# Static dielectric constant tensor:
#      x y z
#    x 3.996070 0.000000 0.000000 
#    y 0.000000 3.591260 0.000000 
#    z 0.000000 0.000000 3.505060 
# 
# 
# High freq. dielectric constant tensor:
#      x y z
#    x 1.785660 0.000000 0.000000 
#    y 0.000000 1.774130 0.000000 
#    z 0.000000 0.000000 1.763740 
# 
# From -- ./inp_files/13516.got.cif
#   From: 2010.03.12/outbox.cif.g09.slc.cpg/sg73_7_cif.got.tgz:13516.got - 2010.04.16 15:25:48.
