data_PCOD8296541
_publ_section_title
;
Structure prediction by ZEFSAII (Michael W. Deem and Ramdas Pophale) SiO2 
 PCOD8296541
Probable space group: I B C A 
;
_chemical_formula_sum "Si O2"
_cell_formula_units_Z 96
_cell_length_a 16.734974
_cell_length_b 11.373122
_cell_length_c 23.806728
_cell_angle_alpha 90.000000
_cell_angle_beta 90.000000
_cell_angle_gamma 90.000000
_cell_volume 4531.108376
_symmetry_space_group_name_H-M "I B C A "
_symmetry_group_IT_number 73
_symmetry_cell_setting 'orthorhombic'
loop_
_space_group_symop_operation_xyz
x,y,z
-x,1/2-y,z
x,-y,1/2-z
1/2-x,y,-z
-x,-y,-z
x,1/2+y,-z
-x,y,1/2+z
1/2+x,-y,z
1/2+x,1/2+y,1/2+z
1/2-x,-y,1/2+z
1/2+x,1/2-y,-z
-x,1/2+y,1/2-z
1/2-x,1/2-y,1/2-z
1/2+x,y,1/2-z
1/2-x,1/2+y,z
x,1/2-y,1/2+z
loop_
_atom_site_type_symbol
_atom_site_label
_atom_site_fract_x
_atom_site_fract_y
_atom_site_fract_z
Si Si1 0.260463 0.316221 0.191247
Si Si2 0.546906 0.533624 0.417388
Si Si3 0.607785 0.930531 0.039738
Si Si4 0.852557 0.308685 0.590447
Si Si5 0.581460 0.696785 0.315389
Si Si6 0.826145 0.500000 0.750000
Si Si7 0.750000 0.064272 0.000000
O O1 0.250000 0.250000 0.250000
O O2 0.202187 0.267680 0.142691
O O3 0.353016 0.299932 0.173214
O O4 0.233517 0.451676 0.201220
O O5 0.452868 0.516456 0.427905
O O6 0.587120 0.579253 0.474185
O O7 0.585798 0.412715 0.393657
O O8 0.558684 0.637303 0.373699
O O9 0.599861 0.805127 0.069636
O O10 0.696936 0.984113 0.042194
O O11 0.801242 0.350646 0.538131
O O12 0.500000 0.750000 0.288977
O O13 0.616986 0.602699 0.272165
#
# Coordination Sequence:
#
# PCOD8296541 Si02
#       7
#    16  16  16  16  16   8   8
#     4  10  24  43  71  94 132 179 221 283 336 398
#     4  10  23  43  64  94 138 172 220 279 339 402
#     4  10  23  40  64  96 131 181 217 273 339 401
#     4  11  22  40  65  94 131 174 227 269 338 399
#     4  11  25  43  68 100 132 177 218 286 339 402
#     4  10  22  52  66 100 132 170 238 276 336 416
#     4  10  24  34  64 102 128 174 224 280 320 414
#
# _framework density 21.186869999999999
#
# number of rings (size 3 to 8) (size 9 to 14) (size 15 to 20)
#    0.000    1.667    1.667    1.000    9.333    3.333 
#    6.000    0.000    0.000    0.000    0.000    0.000 
#    0.000    0.000    0.000    0.000    0.000    0.000 
#
# Total GULP energy -595120.663790 kJ/mol
# GULP energy per Si atom -12398.347162 kJ/mol
# Density = 2.113865 g / cm^3
# Si number density = 21.186870 Si / 1000 Ang^3
#
#
#
# Elastic Constant Matrix: (Units=GPa)
#
#
# Indices 1 2 3 4 5 6 
#
# 1 145.3903 52.9917 34.7398 0.0000 0.0000 0.0000
# 2 52.9917 93.2419 35.1857 0.0000 0.0000 0.0000
# 3 34.7398 35.1857 76.6250 0.0000 0.0000 0.0000
# 4 0.0000 0.0000 0.0000 36.2939 0.0000 0.0000
# 5 0.0000 0.0000 0.0000 0.0000 28.9182 0.0000
# 6 0.0000 0.0000 0.0000 0.0000 0.0000 39.4318
#
#
#
# Elastic Compliance Matrix: (Units=1/GPa)
#
#
# Indices 1 2 3 4 5 6 
#
# 1 0.008941 -0.004296 -0.002081 0.000000 0.000000 0.000000
# 2 -0.004296 0.015037 -0.004957 0.000000 0.000000 0.000000
# 3 -0.002081 -0.004957 0.016270 0.000000 0.000000 0.000000
# 4 0.000000 0.000000 0.000000 0.027553 0.000000 0.000000
# 5 0.000000 0.000000 0.000000 0.000000 0.034580 0.000000
# 6 0.000000 0.000000 0.000000 0.000000 0.000000 0.025360
#
#
# Mechanical properties :
#
#
# Convention : Reuss Voigt Hill
#
# Bulk Modulus (GPa) = 56.88285 62.34354 59.61319
# Shear Modulus (GPa) = 31.99584 33.75144 32.87364
#
# Velocity S-wave (km/s) = 3.89031 3.99562 3.94331
# Velocity P-wave (km/s) = 6.86191 7.12573 6.99506
#
# Compressibility (1/GPa) = 0.01757999
#
# Stress axis : x y z
#
# Youngs Moduli (GPa) = 111.84259 66.50231 61.46183
#
# Poissons Ratio (x) = 0.28571 0.12789
# Poissons Ratio (y) = 0.48050 0.30467
# Poissons Ratio (z) = 0.23273 0.32966
#
# Static dielectric constant tensor:
#      x y z
#    x 4.315070 0.000000 0.000000 
#    y 0.000000 3.997430 0.000000 
#    z 0.000000 0.000000 3.733400 
# 
# 
# High freq. dielectric constant tensor:
#      x y z
#    x 1.840500 0.000000 0.000000 
#    y 0.000000 1.827120 0.000000 
#    z 0.000000 0.000000 1.826340 
# 
# From -- ./inp_files/23573.got.cif
#   From: 2010.03.12/outbox.cif.g09.slc.cpg/sg73_12_cif.got.tgz:23573.got - 2010.04.16 15:25:48.
