data_PCOD8296754
_publ_section_title
;
Structure prediction by ZEFSAII (Michael W. Deem and Ramdas Pophale) SiO2 
 PCOD8296754
Probable space group: I B C A 
;
_chemical_formula_sum "Si O2"
_cell_formula_units_Z 120
_cell_length_a 25.020710
_cell_length_b 21.692106
_cell_length_c 10.830178
_cell_angle_alpha 90.000000
_cell_angle_beta 90.000000
_cell_angle_gamma 90.000000
_cell_volume 5878.099617
_symmetry_space_group_name_H-M "I B C A "
_symmetry_group_IT_number 73
_symmetry_cell_setting 'orthorhombic'
loop_
_space_group_symop_operation_xyz
x,y,z
-x,1/2-y,z
x,-y,1/2-z
1/2-x,y,-z
-x,-y,-z
x,1/2+y,-z
-x,y,1/2+z
1/2+x,-y,z
1/2+x,1/2+y,1/2+z
1/2-x,-y,1/2+z
1/2+x,1/2-y,-z
-x,1/2+y,1/2-z
1/2-x,1/2-y,1/2-z
1/2+x,y,1/2-z
1/2-x,1/2+y,z
x,1/2-y,1/2+z
loop_
_atom_site_type_symbol
_atom_site_label
_atom_site_fract_x
_atom_site_fract_y
_atom_site_fract_z
Si Si1 0.437956 0.099291 0.635312
Si Si2 0.984435 0.500000 0.750000
Si Si3 0.392145 0.063228 0.395246
Si Si4 0.193932 0.849872 0.539828
Si Si5 0.389573 0.177044 0.846010
Si Si6 0.975036 0.185993 0.454656
Si Si7 0.114211 0.811274 0.743068
Si Si8 0.715399 0.511415 0.383779
O O1 0.396323 0.067561 0.542851
O O2 0.400750 0.141172 0.720900
O O3 0.475776 0.140440 0.551208
O O4 0.475913 0.052247 0.704329
O O5 0.945925 0.528152 0.853832
O O6 0.384001 0.129250 0.330233
O O7 0.340812 0.022441 0.369451
O O8 0.250000 0.818233 0.500000
O O9 0.161262 0.853223 0.412280
O O10 0.162363 0.810558 0.642892
O O11 0.204359 0.916959 0.595169
O O12 0.380140 0.249816 0.824491
O O13 0.439496 0.163470 0.933059
O O14 0.942592 0.189166 0.326513
O O15 0.000000 0.250000 0.491707
O O16 0.744694 0.500000 0.250000
O O17 0.750000 0.485375 0.500000
#
# Coordination Sequence:
#
# PCOD8296754 Si02
#       8
#    16   8  16  16  16  16  16  16
#     4  12  26  38  62  99 135 175 224 269 326 400
#     4  12  24  42  62  94 142 178 216 264 340 390
#     4  12  24  42  67  96 133 176 218 274 330 405
#     4  10  24  46  72  92 130 174 216 280 354 398
#     4  11  26  41  66  98 133 174 227 281 328 410
#     4  11  22  39  62  91 132 180 218 266 321 397
#     4  11  22  43  66  97 130 172 227 271 334 397
#     4  11  24  47  76 101 131 176 224 283 346 404
#
# _framework density 20.414762
#
# number of rings (size 3 to 8) (size 9 to 14) (size 15 to 20)
#    0.000    0.800    4.667    2.000    7.467    2.667 
#    0.000    0.667    0.000    0.000    0.000    0.000 
#    0.000    0.000    0.000    0.000    0.000    0.000 
#
# Total GULP energy -744011.866713 kJ/mol
# GULP energy per Si atom -12400.197779 kJ/mol
# Density = 2.036830 g / cm^3
# Si number density = 20.414762 Si / 1000 Ang^3
#
#
#
# Elastic Constant Matrix: (Units=GPa)
#
#
# Indices 1 2 3 4 5 6 
#
# 1 87.6812 5.1889 34.9515 0.0000 0.0000 0.0000
# 2 5.1889 53.2523 -7.6841 0.0000 0.0000 0.0000
# 3 34.9515 -7.6841 56.6729 0.0000 0.0000 0.0000
# 4 0.0000 0.0000 0.0000 37.8640 0.0000 0.0000
# 5 0.0000 0.0000 0.0000 0.0000 26.2645 0.0000
# 6 0.0000 0.0000 0.0000 0.0000 0.0000 13.7933
#
#
#
# Elastic Compliance Matrix: (Units=1/GPa)
#
#
# Indices 1 2 3 4 5 6 
#
# 1 0.015567 -0.002960 -0.010002 0.000000 0.000000 0.000000
# 2 -0.002960 0.019716 0.004499 0.000000 0.000000 0.000000
# 3 -0.010002 0.004499 0.024424 0.000000 0.000000 0.000000
# 4 0.000000 0.000000 0.000000 0.026410 0.000000 0.000000
# 5 0.000000 0.000000 0.000000 0.000000 0.038074 0.000000
# 6 0.000000 0.000000 0.000000 0.000000 0.000000 0.072499
#
#
# Mechanical properties :
#
#
# Convention : Reuss Voigt Hill
#
# Bulk Modulus (GPa) = 23.37523 29.16878 26.27200
# Shear Modulus (GPa) = 21.94168 26.59436 24.26802
#
# Velocity S-wave (km/s) = 3.28196 3.61321 3.45156
# Velocity P-wave (km/s) = 5.08298 5.63260 5.36483
#
# Compressibility (1/GPa) = 0.04278033
#
# Stress axis : x y z
#
# Youngs Moduli (GPa) = 64.23789 50.71985 40.94404
#
# Poissons Ratio (x) = 0.15014 0.40952
# Poissons Ratio (y) = 0.19015 -0.18420
# Poissons Ratio (z) = 0.64251 -0.22818
#
# Static dielectric constant tensor:
#      x y z
#    x 4.097160 0.000000 0.000000 
#    y 0.000000 3.641810 0.000000 
#    z 0.000000 0.000000 3.745460 
# 
# 
# High freq. dielectric constant tensor:
#      x y z
#    x 1.796690 0.000000 0.000000 
#    y 0.000000 1.798460 0.000000 
#    z 0.000000 0.000000 1.812780 
# 
# From -- ./inp_files/8056.got.cif
#   From: 2010.03.12/outbox.cif.g09.slc.cpg/sg73_5_cif.got.tgz:8056.got - 2010.04.16 15:25:48.
