data_PCOD8296785
_publ_section_title
;
Structure prediction by ZEFSAII (Michael W. Deem and Ramdas Pophale) SiO2 
 PCOD8296785
Probable space group: I B C A 
;
_chemical_formula_sum "Si O2"
_cell_formula_units_Z 80
_cell_length_a 12.984320
_cell_length_b 22.149159
_cell_length_c 12.780086
_cell_angle_alpha 90.000000
_cell_angle_beta 90.000000
_cell_angle_gamma 90.000000
_cell_volume 3675.447530
_symmetry_space_group_name_H-M "I B C A "
_symmetry_group_IT_number 73
_symmetry_cell_setting 'orthorhombic'
loop_
_space_group_symop_operation_xyz
x,y,z
-x,1/2-y,z
x,-y,1/2-z
1/2-x,y,-z
-x,-y,-z
x,1/2+y,-z
-x,y,1/2+z
1/2+x,-y,z
1/2+x,1/2+y,1/2+z
1/2-x,-y,1/2+z
1/2+x,1/2-y,-z
-x,1/2+y,1/2-z
1/2-x,1/2-y,1/2-z
1/2+x,y,1/2-z
1/2-x,1/2+y,z
x,1/2-y,1/2+z
loop_
_atom_site_type_symbol
_atom_site_label
_atom_site_fract_x
_atom_site_fract_y
_atom_site_fract_z
Si Si1 0.895719 0.606012 0.584988
Si Si2 0.239027 0.186758 0.385752
Si Si3 0.322549 0.436772 0.370855
Si Si4 0.883101 0.569111 0.139833
Si Si5 0.397389 0.717670 0.773508
O O1 0.798559 0.576931 0.645897
O O2 0.869670 0.606117 0.461113
O O3 0.916494 0.673149 0.628433
O O4 0.998909 0.567794 0.602626
O O5 0.250000 0.217216 0.500000
O O6 0.184361 0.122826 0.407941
O O7 0.151385 0.318661 0.174708
O O8 0.172457 0.227766 0.310660
O O9 0.383858 0.423349 0.265203
O O10 0.332623 0.507101 0.400375
O O11 0.500000 0.750000 0.733307
#
# Coordination Sequence:
#
# PCOD8296785 Si02
#       5
#    16  16  16  16  16
#     4  11  23  44  70  96 136 186 228 281 351 419
#     4  11  26  42  69 100 136 173 230 288 339 411
#     4  10  25  42  70  96 141 183 226 286 346 418
#     4  11  23  45  65 106 133 178 234 287 343 411
#     4  11  24  47  67  99 139 181 231 282 352 416
#
# _framework density 21.766055999999999
#
# number of rings (size 3 to 8) (size 9 to 14) (size 15 to 20)
#    0.000    1.200    4.000    0.600    5.600    5.600 
#    0.000    0.000    0.000    0.000    0.000    0.000 
#    0.000    0.000    0.000    0.000    0.000    0.000 
#
# Total GULP energy -496028.806041 kJ/mol
# GULP energy per Si atom -12400.720151 kJ/mol
# Density = 2.171652 g / cm^3
# Si number density = 21.766056 Si / 1000 Ang^3
#
#
#
# Elastic Constant Matrix: (Units=GPa)
#
#
# Indices 1 2 3 4 5 6 
#
# 1 152.8297 37.0042 35.7815 0.0000 0.0000 0.0000
# 2 37.0042 83.6779 5.8374 0.0001 0.0000 0.0000
# 3 35.7815 5.8374 110.0915 0.0001 0.0000 0.0000
# 4 0.0000 0.0001 0.0001 21.3559 0.0000 0.0000
# 5 0.0000 0.0000 0.0000 0.0000 29.4262 0.0000
# 6 0.0000 0.0000 0.0000 0.0000 0.0000 29.5924
#
#
#
# Elastic Compliance Matrix: (Units=1/GPa)
#
#
# Indices 1 2 3 4 5 6 
#
# 1 0.007910 -0.003331 -0.002394 0.000000 0.000000 0.000000
# 2 -0.003331 0.013398 0.000372 0.000000 0.000000 0.000000
# 3 -0.002394 0.000372 0.009842 0.000000 0.000000 0.000000
# 4 0.000000 0.000000 0.000000 0.046825 0.000000 0.000000
# 5 0.000000 0.000000 0.000000 0.000000 0.033983 0.000000
# 6 0.000000 0.000000 0.000000 0.000000 0.000000 0.033792
#
#
# Mechanical properties :
#
#
# Convention : Reuss Voigt Hill
#
# Bulk Modulus (GPa) = 48.91534 55.98282 52.44908
# Shear Modulus (GPa) = 30.62374 33.93996 32.28185
#
# Velocity S-wave (km/s) = 3.75500 3.95309 3.85532
# Velocity P-wave (km/s) = 6.42822 6.82730 6.63076
#
# Compressibility (1/GPa) = 0.02044349
#
# Stress axis : x y z
#
# Youngs Moduli (GPa) = 126.41633 74.63969 101.60717
#
# Poissons Ratio (x) = 0.24863 0.24329
# Poissons Ratio (y) = 0.42111 -0.03783
# Poissons Ratio (z) = 0.30269 -0.02779
#
# Static dielectric constant tensor:
#      x y z
#    x 4.157080 0.000000 0.000000 
#    y 0.000000 3.919420 0.000000 
#    z 0.000000 0.000000 3.925470 
# 
# 
# High freq. dielectric constant tensor:
#      x y z
#    x 1.863070 0.000000 0.000000 
#    y 0.000000 1.853840 0.000000 
#    z 0.000000 0.000000 1.854450 
# 
# From -- ./inp_files/16040.got.cif
#   From: 2010.03.12/outbox.cif.g09.slc.cpg/sg73_9_cif.got.tgz:16040.got - 2010.04.16 15:25:48.
