data_PCOD8296885
_publ_section_title
;
Structure prediction by ZEFSAII (Michael W. Deem and Ramdas Pophale) SiO2 
 PCOD8296885
Probable space group: I B C A 
;
_chemical_formula_sum "Si O2"
_cell_formula_units_Z 112
_cell_length_a 16.671301
_cell_length_b 14.088422
_cell_length_c 22.579301
_cell_angle_alpha 90.000000
_cell_angle_beta 90.000000
_cell_angle_gamma 90.000000
_cell_volume 5303.252895
_symmetry_space_group_name_H-M "I B C A "
_symmetry_group_IT_number 73
_symmetry_cell_setting 'orthorhombic'
loop_
_space_group_symop_operation_xyz
x,y,z
-x,1/2-y,z
x,-y,1/2-z
1/2-x,y,-z
-x,-y,-z
x,1/2+y,-z
-x,y,1/2+z
1/2+x,-y,z
1/2+x,1/2+y,1/2+z
1/2-x,-y,1/2+z
1/2+x,1/2-y,-z
-x,1/2+y,1/2-z
1/2-x,1/2-y,1/2-z
1/2+x,y,1/2-z
1/2-x,1/2+y,z
x,1/2-y,1/2+z
loop_
_atom_site_type_symbol
_atom_site_label
_atom_site_fract_x
_atom_site_fract_y
_atom_site_fract_z
Si Si1 0.642666 0.481333 0.919775
Si Si2 0.105358 0.392583 0.145244
Si Si3 0.439397 0.428705 0.304283
Si Si4 0.196130 0.070332 0.879930
Si Si5 0.893500 0.160742 0.489531
Si Si6 0.422885 0.132392 0.492512
Si Si7 0.701621 0.282396 0.806656
O O1 0.584752 0.488540 0.862964
O O2 0.734064 0.500878 0.902021
O O3 0.640107 0.375118 0.947196
O O4 0.619452 0.548414 0.973295
O O5 0.140087 0.498809 0.158083
O O6 0.079897 0.385343 0.077054
O O7 0.169855 0.310978 0.159708
O O8 0.026021 0.380108 0.185525
O O9 0.443740 0.500000 0.250000
O O10 0.374194 0.347882 0.289947
O O11 0.148271 0.113507 0.934098
O O12 0.233763 0.157001 0.843500
O O13 0.876834 0.272401 0.489091
O O14 0.986669 0.136264 0.485369
O O15 0.750000 0.250000 0.750000
#
# Coordination Sequence:
#
# PCOD8296885 Si02
#       7
#    16  16  16  16  16  16  16
#     4  11  22  44  65 101 142 175 231 283 357 418
#     4  12  25  47  74 102 138 193 239 288 369 433
#     4  11  26  46  77 100 138 188 239 296 344 434
#     4  11  26  42  68 105 141 182 231 297 355 427
#     4  11  22  40  64 104 137 178 231 282 351 422
#     4  11  23  39  73  96 142 186 226 289 350 429
#     4  11  29  48  73 101 145 185 245 300 360 421
#
# _framework density 21.119112999999999
#
# number of rings (size 3 to 8) (size 9 to 14) (size 15 to 20)
#    0.000    0.857    2.857    3.857   10.000    0.000 
#    0.000    0.000    0.000    0.000    0.000    0.000 
#    0.000    0.000    0.000    0.000    0.000    0.000 
#
# Total GULP energy -694423.813404 kJ/mol
# GULP energy per Si atom -12400.425239 kJ/mol
# Density = 2.107104 g / cm^3
# Si number density = 21.119113 Si / 1000 Ang^3
#
#
#
# Elastic Constant Matrix: (Units=GPa)
#
#
# Indices 1 2 3 4 5 6 
#
# 1 100.9214 47.5303 54.5974 0.0000 0.0000 0.0000
# 2 47.5303 103.2304 65.3019 0.0000 0.0000 0.0000
# 3 54.5974 65.3019 129.2735 0.0000 0.0000 0.0000
# 4 0.0000 0.0000 0.0000 32.1645 0.0000 0.0000
# 5 0.0000 0.0000 0.0000 0.0000 26.5377 0.0000
# 6 0.0000 0.0000 0.0000 0.0000 0.0000 28.0539
#
#
#
# Elastic Compliance Matrix: (Units=1/GPa)
#
#
# Indices 1 2 3 4 5 6 
#
# 1 0.013851 -0.003934 -0.003863 0.000000 0.000000 0.000000
# 2 -0.003934 0.015354 -0.006094 0.000000 0.000000 0.000000
# 3 -0.003863 -0.006094 0.012445 0.000000 0.000000 0.000000
# 4 0.000000 0.000000 0.000000 0.031090 0.000000 0.000000
# 5 0.000000 0.000000 0.000000 0.000000 0.037682 0.000000
# 6 0.000000 0.000000 0.000000 0.000000 0.000000 0.035646
#
#
# Mechanical properties :
#
#
# Convention : Reuss Voigt Hill
#
# Bulk Modulus (GPa) = 72.10748 74.25383 73.18065
# Shear Modulus (GPa) = 28.01550 28.41762 28.21656
#
# Velocity S-wave (km/s) = 3.64613 3.67221 3.65919
# Velocity P-wave (km/s) = 7.20715 7.29493 7.25117
#
# Compressibility (1/GPa) = 0.01386819
#
# Stress axis : x y z
#
# Youngs Moduli (GPa) = 72.19632 65.13153 80.35114
#
# Poissons Ratio (x) = 0.25623 0.31037
# Poissons Ratio (y) = 0.28402 0.48968
# Poissons Ratio (z) = 0.27887 0.39693
#
# Static dielectric constant tensor:
#      x y z
#    x 4.157790 0.000000 0.000000 
#    y 0.000000 4.068200 0.000000 
#    z 0.000000 0.000000 3.734900 
# 
# 
# High freq. dielectric constant tensor:
#      x y z
#    x 1.844190 0.000000 0.000000 
#    y 0.000000 1.835740 0.000000 
#    z 0.000000 0.000000 1.823610 
# 
# From -- ./inp_files/29568.got.cif
#   From: 2010.03.12/outbox.cif.g09.slc.cpg/sg73_15_cif.got.tgz:29568.got - 2010.04.16 15:25:48.
