data_PCOD8296156
_publ_section_title
;
Structure prediction by ZEFSAII (Michael W. Deem and Ramdas Pophale) SiO2 
 PCOD8296156
Probable space group: I B C A 
;
_chemical_formula_sum "Si O2"
_cell_formula_units_Z 96
_cell_length_a 21.895969
_cell_length_b 11.719750
_cell_length_c 16.778810
_cell_angle_alpha 90.000000
_cell_angle_beta 90.000000
_cell_angle_gamma 90.000000
_cell_volume 4305.699071
_symmetry_space_group_name_H-M "I B C A "
_symmetry_group_IT_number 73
_symmetry_cell_setting 'orthorhombic'
loop_
_space_group_symop_operation_xyz
x,y,z
-x,1/2-y,z
x,-y,1/2-z
1/2-x,y,-z
-x,-y,-z
x,1/2+y,-z
-x,y,1/2+z
1/2+x,-y,z
1/2+x,1/2+y,1/2+z
1/2-x,-y,1/2+z
1/2+x,1/2-y,-z
-x,1/2+y,1/2-z
1/2-x,1/2-y,1/2-z
1/2+x,y,1/2-z
1/2-x,1/2+y,z
x,1/2-y,1/2+z
loop_
_atom_site_type_symbol
_atom_site_label
_atom_site_fract_x
_atom_site_fract_y
_atom_site_fract_z
Si Si1 0.167526 0.895164 0.055047
Si Si2 0.709437 0.851990 0.623064
Si Si3 0.535422 0.632009 0.329131
Si Si4 0.932302 0.224587 0.484424
Si Si5 0.563057 0.500000 0.750000
Si Si6 0.138635 0.867511 0.370093
Si Si7 0.860432 0.500000 0.750000
O O1 0.217030 0.843142 0.116973
O O2 0.103425 0.827439 0.061537
O O3 0.163776 0.025258 0.082001
O O4 0.187172 0.889058 0.963849
O O5 0.690593 0.724766 0.651093
O O6 0.684185 0.949543 0.682335
O O7 0.500000 0.750000 0.308894
O O8 0.562293 0.624245 0.418738
O O9 0.481239 0.540070 0.321142
O O10 0.594270 0.604352 0.274331
O O11 0.904551 0.195509 0.568355
O O12 0.000000 0.250000 0.510230
O O13 0.605447 0.401624 0.787826
#
# Coordination Sequence:
#
# PCOD8296156 Si02
#       7
#    16  16  16  16   8  16   8
#     4  10  23  43  65  92 123 164 214 262 312 370
#     4  10  24  42  65  95 128 169 211 262 314 371
#     4  10  21  38  60  91 130 168 210 265 320 372
#     4  10  22  40  66  92 120 163 213 259 315 383
#     4  11  24  37  58  92 132 166 204 266 326 373
#     4  11  23  42  65  91 128 167 211 259 315 381
#     4  11  22  39  64  94 132 172 214 256 318 385
#
# _framework density 22.296029000000001
#
# number of rings (size 3 to 8) (size 9 to 14) (size 15 to 20)
#    0.000    1.667    0.000    4.000    0.000   16.000 
#    0.000    2.500    0.000    0.000    0.000    0.000 
#    0.000    0.000    0.000    0.000    0.000    0.000 
#
# Total GULP energy -594640.490532 kJ/mol
# GULP energy per Si atom -12388.343553 kJ/mol
# Density = 2.224528 g / cm^3
# Si number density = 22.296029 Si / 1000 Ang^3
#
#
#
# Elastic Constant Matrix: (Units=GPa)
#
#
# Indices 1 2 3 4 5 6 
#
# 1 133.6644 56.8928 23.1679 0.0000 0.0000 0.0000
# 2 56.8928 110.0824 23.7350 0.0000 0.0000 0.0000
# 3 23.1679 23.7350 66.1868 0.0000 0.0000 0.0000
# 4 0.0000 0.0000 0.0000 77.0645 0.0000 0.0000
# 5 0.0000 0.0000 0.0000 0.0000 12.1724 0.0000
# 6 0.0000 0.0000 0.0000 0.0000 0.0000 14.7595
#
#
#
# Elastic Compliance Matrix: (Units=1/GPa)
#
#
# Indices 1 2 3 4 5 6 
#
# 1 0.009774 -0.004675 -0.001745 0.000000 0.000000 0.000000
# 2 -0.004675 0.012082 -0.002696 0.000000 0.000000 0.000000
# 3 -0.001745 -0.002696 0.016686 0.000000 0.000000 0.000000
# 4 0.000000 0.000000 0.000000 0.012976 0.000000 0.000000
# 5 0.000000 0.000000 0.000000 0.000000 0.082153 0.000000
# 6 0.000000 0.000000 0.000000 0.000000 0.000000 0.067753
#
#
# Mechanical properties :
#
#
# Convention : Reuss Voigt Hill
#
# Bulk Modulus (GPa) = 49.23697 57.50278 53.36987
# Shear Modulus (GPa) = 22.08231 34.54179 28.31205
#
# Velocity S-wave (km/s) = 3.15050 3.94030 3.56733
# Velocity P-wave (km/s) = 5.94688 6.82260 6.39974
#
# Compressibility (1/GPa) = 0.02030994
#
# Stress axis : x y z
#
# Youngs Moduli (GPa) = 102.31517 82.77058 59.92946
#
# Poissons Ratio (x) = 0.38696 0.10456
# Poissons Ratio (y) = 0.47833 0.16157
# Poissons Ratio (z) = 0.17851 0.22316
#
# Static dielectric constant tensor:
#      x y z
#    x 4.477180 0.000000 0.000000 
#    y 0.000000 4.084790 0.000000 
#    z 0.000000 0.000000 3.987550 
# 
# 
# High freq. dielectric constant tensor:
#      x y z
#    x 1.893980 0.000000 0.000000 
#    y 0.000000 1.870430 0.000000 
#    z 0.000000 0.000000 1.878580 
# 
# From -- ./inp_files/23575.got.cif
#   From: 2010.03.12/outbox.cif.g09.slc.cpg/sg73_12_cif.got.tgz:23575.got - 2010.04.16 15:25:48.
