data_PCOD8296221
_publ_section_title
;
Structure prediction by ZEFSAII (Michael W. Deem and Ramdas Pophale) SiO2 
 PCOD8296221
Probable space group: I B C A 
;
_chemical_formula_sum "Si O2"
_cell_formula_units_Z 96
_cell_length_a 12.720577
_cell_length_b 21.632094
_cell_length_c 17.675311
_cell_angle_alpha 90.000000
_cell_angle_beta 90.000000
_cell_angle_gamma 90.000000
_cell_volume 4863.763359
_symmetry_space_group_name_H-M "I B C A "
_symmetry_group_IT_number 73
_symmetry_cell_setting 'orthorhombic'
loop_
_space_group_symop_operation_xyz
x,y,z
-x,1/2-y,z
x,-y,1/2-z
1/2-x,y,-z
-x,-y,-z
x,1/2+y,-z
-x,y,1/2+z
1/2+x,-y,z
1/2+x,1/2+y,1/2+z
1/2-x,-y,1/2+z
1/2+x,1/2-y,-z
-x,1/2+y,1/2-z
1/2-x,1/2-y,1/2-z
1/2+x,y,1/2-z
1/2-x,1/2+y,z
x,1/2-y,1/2+z
loop_
_atom_site_type_symbol
_atom_site_label
_atom_site_fract_x
_atom_site_fract_y
_atom_site_fract_z
Si Si1 0.767341 0.158004 0.743616
Si Si2 0.114759 0.242089 0.666745
Si Si3 0.585378 0.613929 0.868853
Si Si4 0.725654 0.039238 0.918707
Si Si5 0.862542 0.336793 0.526114
Si Si6 0.622500 0.948452 0.809655
O O1 0.817306 0.193927 0.670800
O O2 0.669599 0.193554 0.778686
O O3 0.859516 0.156757 0.806203
O O4 0.721183 0.091178 0.721424
O O5 0.094831 0.216769 0.581089
O O6 0.000000 0.250000 0.702239
O O7 0.663190 0.555357 0.879112
O O8 0.473473 0.593929 0.836035
O O9 0.569207 0.649996 0.949657
O O10 0.652708 0.100556 0.924760
O O11 0.663166 0.984658 0.881356
O O12 0.750000 0.011806 0.000000
O O13 0.750000 0.312476 0.500000
O O14 0.584519 0.000000 0.750000
#
# Coordination Sequence:
#
# PCOD8296221 Si02
#       6
#    16  16  16  16  16  16
#     4  11  23  41  61  92 130 155 213 263 315 377
#     4  11  22  42  65  88 116 167 208 265 314 372
#     4  10  21  40  63  88 124 171 201 253 318 384
#     4   9  20  40  62  85 129 165 204 257 310 376
#     4   9  18  42  64  82 122 168 210 249 317 372
#     4  12  23  37  62 100 128 164 212 260 321 379
#
# _framework density 19.737801999999999
#
# number of rings (size 3 to 8) (size 9 to 14) (size 15 to 20)
#    0.000    2.000    5.000    1.000    2.333    2.667 
#    6.000    0.833    0.000    0.000    0.000    0.000 
#    0.000    0.000    0.000    0.000    0.000    0.000 
#
# Total GULP energy -594772.063552 kJ/mol
# GULP energy per Si atom -12391.084657 kJ/mol
# Density = 1.969288 g / cm^3
# Si number density = 19.737802 Si / 1000 Ang^3
#
#
#
# Elastic Constant Matrix: (Units=GPa)
#
#
# Indices 1 2 3 4 5 6 
#
# 1 89.6166 48.2296 51.8083 0.0000 0.0000 0.0000
# 2 48.2296 77.1711 58.2231 0.0000 0.0000 0.0000
# 3 51.8083 58.2231 111.1702 -0.0001 0.0000 0.0000
# 4 0.0000 0.0000 -0.0001 29.9963 0.0000 0.0000
# 5 0.0000 0.0000 0.0000 0.0000 20.2128 0.0000
# 6 0.0000 0.0000 0.0000 0.0000 0.0000 36.4068
#
#
#
# Elastic Compliance Matrix: (Units=1/GPa)
#
#
# Indices 1 2 3 4 5 6 
#
# 1 0.017877 -0.008079 -0.004100 0.000000 0.000000 0.000000
# 2 -0.008079 0.025075 -0.009367 0.000000 0.000000 0.000000
# 3 -0.004100 -0.009367 0.015812 0.000000 0.000000 0.000000
# 4 0.000000 0.000000 0.000000 0.033337 0.000000 0.000000
# 5 0.000000 0.000000 0.000000 0.000000 0.049474 0.000000
# 6 0.000000 0.000000 0.000000 0.000000 0.000000 0.027467
#
#
# Mechanical properties :
#
#
# Convention : Reuss Voigt Hill
#
# Bulk Modulus (GPa) = 63.81308 66.05334 64.93321
# Shear Modulus (GPa) = 23.00350 25.30297 24.15323
#
# Velocity S-wave (km/s) = 3.41758 3.58432 3.50194
# Velocity P-wave (km/s) = 6.92630 7.11814 7.02288
#
# Compressibility (1/GPa) = 0.01567077
#
# Stress axis : x y z
#
# Youngs Moduli (GPa) = 55.93813 39.88049 63.24441
#
# Poissons Ratio (x) = 0.32221 0.25928
# Poissons Ratio (y) = 0.45195 0.59243
# Poissons Ratio (z) = 0.22933 0.37357
#
# Static dielectric constant tensor:
#      x y z
#    x 3.452200 0.000000 0.000000 
#    y 0.000000 3.524920 0.000000 
#    z 0.000000 0.000000 3.760480 
# 
# 
# High freq. dielectric constant tensor:
#      x y z
#    x 1.758320 0.000000 0.000000 
#    y 0.000000 1.756500 0.000000 
#    z 0.000000 0.000000 1.775860 
# 
# From -- ./inp_files/21345.got.cif
#   From: 2010.03.12/outbox.cif.g09.slc.cpg/sg73_11_cif.got.tgz:21345.got - 2010.04.16 15:25:48.
