data_PCOD8296112
_publ_section_title
;
Structure prediction by ZEFSAII (Michael W. Deem and Ramdas Pophale) SiO2 
 PCOD8296112
Probable space group: I B C A 
;
_chemical_formula_sum "Si O2"
_cell_formula_units_Z 72
_cell_length_a 17.139222
_cell_length_b 10.507266
_cell_length_c 18.652795
_cell_angle_alpha 90.000000
_cell_angle_beta 90.000000
_cell_angle_gamma 90.000000
_cell_volume 3359.114041
_symmetry_space_group_name_H-M "I B C A "
_symmetry_group_IT_number 73
_symmetry_cell_setting 'orthorhombic'
loop_
_space_group_symop_operation_xyz
x,y,z
-x,1/2-y,z
x,-y,1/2-z
1/2-x,y,-z
-x,-y,-z
x,1/2+y,-z
-x,y,1/2+z
1/2+x,-y,z
1/2+x,1/2+y,1/2+z
1/2-x,-y,1/2+z
1/2+x,1/2-y,-z
-x,1/2+y,1/2-z
1/2-x,1/2-y,1/2-z
1/2+x,y,1/2-z
1/2-x,1/2+y,z
x,1/2-y,1/2+z
loop_
_atom_site_type_symbol
_atom_site_label
_atom_site_fract_x
_atom_site_fract_y
_atom_site_fract_z
Si Si1 0.042617 0.436457 0.350312
Si Si2 0.880822 0.432052 0.142513
Si Si3 0.949905 0.628241 0.498114
Si Si4 0.254188 0.500000 0.250000
Si Si5 0.884518 0.333976 0.715927
O O1 0.075103 0.355813 0.418875
O O2 0.090988 0.568549 0.347201
O O3 0.055948 0.349216 0.281650
O O4 0.950963 0.468014 0.351234
O O5 0.803799 0.496512 0.175674
O O6 0.893794 0.308540 0.190877
O O7 0.877526 0.389960 0.058025
O O8 0.000000 0.750000 0.472225
O O9 0.000000 0.500000 0.500000
O O10 0.202072 0.627641 0.256741
#
# Coordination Sequence:
#
# PCOD8296112 Si02
#       5
#    16  16  16   8  16
#     4   9  20  35  58  86 112 146 195 246 295 348
#     4  11  20  36  59  81 114 158 191 239 302 349
#     4  10  21  36  57  89 119 146 189 246 298 349
#     4  10  22  36  56  84 116 156 198 236 286 352
#     4  10  21  38  56  85 118 149 197 248 285 349
#
# _framework density 21.434222999999999
#
# number of rings (size 3 to 8) (size 9 to 14) (size 15 to 20)
#    0.000    2.222    0.000    5.333    0.000    7.111 
#    0.000    4.444    0.000    5.333    0.000    0.000 
#    0.000    0.000    0.000    0.000    0.000    0.000 
#
# Total GULP energy -446008.334334 kJ/mol
# GULP energy per Si atom -12389.120398 kJ/mol
# Density = 2.138544 g / cm^3
# Si number density = 21.434223 Si / 1000 Ang^3
#
#
#
# Elastic Constant Matrix: (Units=GPa)
#
#
# Indices 1 2 3 4 5 6 
#
# 1 90.3898 5.8359 48.6887 0.0000 0.0000 0.0000
# 2 5.8359 71.8079 26.1477 0.0000 0.0000 0.0000
# 3 48.6887 26.1477 147.8436 0.0000 0.0000 0.0000
# 4 0.0000 0.0000 0.0000 31.9451 0.0000 0.0000
# 5 0.0000 0.0000 0.0000 0.0000 12.5403 0.0000
# 6 0.0000 0.0000 0.0000 0.0000 0.0000 6.4608
#
#
#
# Elastic Compliance Matrix: (Units=1/GPa)
#
#
# Indices 1 2 3 4 5 6 
#
# 1 0.013470 0.000556 -0.004534 0.000000 0.000000 0.000000
# 2 0.000556 0.014908 -0.002820 0.000000 0.000000 0.000000
# 3 -0.004534 -0.002820 0.008756 0.000000 0.000000 0.000000
# 4 0.000000 0.000000 0.000000 0.031304 0.000000 0.000000
# 5 0.000000 0.000000 0.000000 0.000000 0.079743 0.000000
# 6 0.000000 0.000000 0.000000 0.000000 0.000000 0.154780
#
#
# Mechanical properties :
#
#
# Convention : Reuss Voigt Hill
#
# Bulk Modulus (GPa) = 42.48497 52.37623 47.43060
# Shear Modulus (GPa) = 15.41302 25.48050 20.44676
#
# Velocity S-wave (km/s) = 2.68448 3.45160 3.09193
# Velocity P-wave (km/s) = 5.42888 6.35402 5.90958
#
# Compressibility (1/GPa) = 0.02353773
#
# Stress axis : x y z
#
# Youngs Moduli (GPa) = 74.24067 67.07984 114.20886
#
# Poissons Ratio (x) = -0.03732 0.51786
# Poissons Ratio (y) = -0.04131 0.32205
# Poissons Ratio (z) = 0.33663 0.18915
#
# Static dielectric constant tensor:
#      x y z
#    x 3.787640 0.000000 0.000000 
#    y 0.000000 4.098410 0.000000 
#    z 0.000000 0.000000 5.059710 
# 
# 
# High freq. dielectric constant tensor:
#      x y z
#    x 1.803880 0.000000 0.000000 
#    y 0.000000 1.848160 0.000000 
#    z 0.000000 0.000000 1.852820 
# 
# From -- ./inp_files/26382.got.cif
#   From: 2010.03.12/outbox.cif.g09.slc.cpg/sg73_14_cif.got.tgz:26382.got - 2010.04.16 15:25:48.
