data_PCOD8296810
_publ_section_title
;
Structure prediction by ZEFSAII (Michael W. Deem and Ramdas Pophale) SiO2 
 PCOD8296810
Probable space group: I B C A 
;
_chemical_formula_sum "Si O2"
_cell_formula_units_Z 120
_cell_length_a 23.586580
_cell_length_b 11.861240
_cell_length_c 21.784488
_cell_angle_alpha 90.000000
_cell_angle_beta 90.000000
_cell_angle_gamma 90.000000
_cell_volume 6094.560947
_symmetry_space_group_name_H-M "I B C A "
_symmetry_group_IT_number 73
_symmetry_cell_setting 'orthorhombic'
loop_
_space_group_symop_operation_xyz
x,y,z
-x,1/2-y,z
x,-y,1/2-z
1/2-x,y,-z
-x,-y,-z
x,1/2+y,-z
-x,y,1/2+z
1/2+x,-y,z
1/2+x,1/2+y,1/2+z
1/2-x,-y,1/2+z
1/2+x,1/2-y,-z
-x,1/2+y,1/2-z
1/2-x,1/2-y,1/2-z
1/2+x,y,1/2-z
1/2-x,1/2+y,z
x,1/2-y,1/2+z
loop_
_atom_site_type_symbol
_atom_site_label
_atom_site_fract_x
_atom_site_fract_y
_atom_site_fract_z
Si Si1 0.996657 0.051948 0.817779
Si Si2 0.696225 0.012819 0.185826
Si Si3 0.377493 0.924243 0.309746
Si Si4 0.100432 0.817191 0.224231
Si Si5 0.750000 0.431753 0.000000
Si Si6 0.052138 0.665925 0.859990
Si Si7 0.668374 0.816581 0.096581
Si Si8 0.704311 0.935419 0.607788
O O1 0.957541 0.164333 0.815055
O O2 0.060036 0.077954 0.840000
O O3 0.997361 0.000000 0.750000
O O4 0.971196 0.960547 0.864242
O O5 0.683563 0.890298 0.156786
O O6 0.731084 0.000000 0.250000
O O7 0.638847 0.076127 0.205940
O O8 0.734011 0.082795 0.138407
O O9 0.364525 0.794367 0.293589
O O10 0.376393 0.000000 0.250000
O O11 0.331703 0.970059 0.357011
O O12 0.083250 0.806592 0.295524
O O13 0.706724 0.354142 0.961035
O O14 0.788633 0.514413 0.959786
O O15 0.100282 0.673045 0.913520
O O16 0.000000 0.750000 0.872258
O O17 0.675689 0.684865 0.108711
#
# Coordination Sequence:
#
# PCOD8296810 Si02
#       8
#    16  16  16  16   8  16  16  16
#     4   9  17  32  52  86 128 168 199 227 293 369
#     4  11  22  36  59  91 127 167 201 243 315 390
#     4  11  22  35  56  94 131 163 198 249 309 378
#     4  11  19  34  55  91 136 171 200 237 298 393
#     4  10  26  46  66  84 108 164 222 280 326 358
#     4  11  19  33  62  94 130 172 201 244 307 386
#     4  11  22  43  65  89 122 162 215 265 317 383
#     4  11  25  41  62  88 115 160 213 268 320 371
#
# _framework density 19.689686999999999
#
# number of rings (size 3 to 8) (size 9 to 14) (size 15 to 20)
#    0.000    1.333    2.667    5.600    3.733    0.533 
#    0.000    0.000    0.000    4.800    0.000    0.000 
#    0.000    0.000    0.000    0.000    0.000    0.000 
#
# Total GULP energy -743586.473861 kJ/mol
# GULP energy per Si atom -12393.107898 kJ/mol
# Density = 1.964487 g / cm^3
# Si number density = 19.689687 Si / 1000 Ang^3
#
#
#
# Elastic Constant Matrix: (Units=GPa)
#
#
# Indices 1 2 3 4 5 6 
#
# 1 102.8937 23.2872 34.8309 0.0000 0.0000 0.0000
# 2 23.2872 103.4100 30.0042 0.0000 0.0000 0.0000
# 3 34.8309 30.0042 72.8136 0.0000 0.0000 0.0000
# 4 0.0000 0.0000 0.0000 18.6687 0.0000 0.0000
# 5 0.0000 0.0000 0.0000 0.0000 24.7821 0.0000
# 6 0.0000 0.0000 0.0000 0.0000 0.0000 31.8688
#
#
#
# Elastic Compliance Matrix: (Units=1/GPa)
#
#
# Indices 1 2 3 4 5 6 
#
# 1 0.011716 -0.001150 -0.005131 0.000000 0.000000 0.000000
# 2 -0.001150 0.011096 -0.004022 0.000000 0.000000 0.000000
# 3 -0.005131 -0.004022 0.017845 0.000000 0.000000 0.000000
# 4 0.000000 0.000000 0.000000 0.053566 0.000000 0.000000
# 5 0.000000 0.000000 0.000000 0.000000 0.040352 0.000000
# 6 0.000000 0.000000 0.000000 0.000000 0.000000 0.031379
#
#
# Mechanical properties :
#
#
# Convention : Reuss Voigt Hill
#
# Bulk Modulus (GPa) = 49.87019 50.59576 50.23297
# Shear Modulus (GPa) = 25.87419 27.79693 26.83556
#
# Velocity S-wave (km/s) = 3.62898 3.76140 3.69579
# Velocity P-wave (km/s) = 6.55305 6.67956 6.61661
#
# Compressibility (1/GPa) = 0.02005206
#
# Stress axis : x y z
#
# Youngs Moduli (GPa) = 85.35528 90.12051 56.03662
#
# Poissons Ratio (x) = 0.10361 0.28750
# Poissons Ratio (y) = 0.09813 0.22541
# Poissons Ratio (z) = 0.43792 0.36251
#
# Static dielectric constant tensor:
#      x y z
#    x 3.988790 0.000000 0.000000 
#    y 0.000000 3.654510 0.000000 
#    z 0.000000 0.000000 3.317320 
# 
# 
# High freq. dielectric constant tensor:
#      x y z
#    x 1.785600 0.000000 0.000000 
#    y 0.000000 1.780330 0.000000 
#    z 0.000000 0.000000 1.714780 
# 
# From -- ./inp_files/27358.got.cif
#   From: 2010.03.12/outbox.cif.g09.slc.cpg/sg73_14_cif.got.tgz:27358.got - 2010.04.16 15:25:48.
