data_PCOD8296404
_publ_section_title
;
Structure prediction by ZEFSAII (Michael W. Deem and Ramdas Pophale) SiO2 
 PCOD8296404
Probable space group: I B C A 
;
_chemical_formula_sum "Si O2"
_cell_formula_units_Z 104
_cell_length_a 22.204345
_cell_length_b 27.056556
_cell_length_c 8.433644
_cell_angle_alpha 90.000000
_cell_angle_beta 90.000000
_cell_angle_gamma 90.000000
_cell_volume 5066.706483
_symmetry_space_group_name_H-M "I B C A "
_symmetry_group_IT_number 73
_symmetry_cell_setting 'orthorhombic'
loop_
_space_group_symop_operation_xyz
x,y,z
-x,1/2-y,z
x,-y,1/2-z
1/2-x,y,-z
-x,-y,-z
x,1/2+y,-z
-x,y,1/2+z
1/2+x,-y,z
1/2+x,1/2+y,1/2+z
1/2-x,-y,1/2+z
1/2+x,1/2-y,-z
-x,1/2+y,1/2-z
1/2-x,1/2-y,1/2-z
1/2+x,y,1/2-z
1/2-x,1/2+y,z
x,1/2-y,1/2+z
loop_
_atom_site_type_symbol
_atom_site_label
_atom_site_fract_x
_atom_site_fract_y
_atom_site_fract_z
Si Si1 0.626991 0.852019 0.623865
Si Si2 0.270494 0.324515 0.662831
Si Si3 0.548597 0.432701 0.490951
Si Si4 0.332168 0.278338 0.141548
Si Si5 0.052077 0.211211 0.185014
Si Si6 0.988778 0.500000 0.250000
Si Si7 0.528191 0.848004 0.887511
O O1 0.682341 0.859794 0.745337
O O2 0.611193 0.901301 0.521398
O O3 0.642204 0.804126 0.517181
O O4 0.565791 0.846314 0.724992
O O5 0.250000 0.351647 0.500000
O O6 0.214476 0.316361 0.779598
O O7 0.299684 0.272916 0.602357
O O8 0.556175 0.475377 0.622241
O O9 0.532227 0.458294 0.324718
O O10 0.489779 0.400752 0.541780
O O11 0.385203 0.263947 0.264396
O O12 0.000000 0.250000 0.150654
O O13 0.034859 0.176996 0.335372
O O14 0.064021 0.182033 0.021992
#
# Coordination Sequence:
#
# PCOD8296404 Si02
#       7
#    16  16  16  16  16   8  16
#     4  12  23  40  64  89 129 168 216 273 309 376
#     4  11  24  42  60  87 122 177 234 272 299 352
#     4  11  21  40  62  97 127 165 194 255 326 416
#     4  11  23  40  61  85 125 177 229 265 306 352
#     4  12  23  35  54  86 130 181 215 256 314 364
#     4  10  22  40  68  90 140 154 192 248 340 434
#     4  12  22  37  56  90 135 161 215 258 309 388
#
# _framework density 20.526154999999999
#
# number of rings (size 3 to 8) (size 9 to 14) (size 15 to 20)
#    0.000    0.615    4.615    4.615    0.000    3.692 
#    0.000    0.769    0.000    0.000    0.000    6.462 
#    0.000    0.000    0.000    0.000    0.000    0.000 
#
# Total GULP energy -644739.214871 kJ/mol
# GULP energy per Si atom -12398.831055 kJ/mol
# Density = 2.047944 g / cm^3
# Si number density = 20.526155 Si / 1000 Ang^3
#
#
#
# Elastic Constant Matrix: (Units=GPa)
#
#
# Indices 1 2 3 4 5 6 
#
# 1 103.4506 26.3397 34.0253 0.0000 0.0000 0.0000
# 2 26.3397 69.0791 35.7227 0.0000 0.0000 0.0000
# 3 34.0253 35.7227 110.3191 0.0000 0.0000 0.0000
# 4 0.0000 0.0000 0.0000 39.9123 0.0000 0.0000
# 5 0.0000 0.0000 0.0000 0.0000 43.0213 0.0000
# 6 0.0000 0.0000 0.0000 0.0000 0.0000 17.3157
#
#
#
# Elastic Compliance Matrix: (Units=1/GPa)
#
#
# Indices 1 2 3 4 5 6 
#
# 1 0.011252 -0.002998 -0.002500 0.000000 0.000000 0.000000
# 2 -0.002998 0.018186 -0.004964 0.000000 0.000000 0.000000
# 3 -0.002500 -0.004964 0.011443 0.000000 0.000000 0.000000
# 4 0.000000 0.000000 0.000000 0.025055 0.000000 0.000000
# 5 0.000000 0.000000 0.000000 0.000000 0.023244 0.000000
# 6 0.000000 0.000000 0.000000 0.000000 0.000000 0.057751
#
#
# Mechanical properties :
#
#
# Convention : Reuss Voigt Hill
#
# Bulk Modulus (GPa) = 50.10563 52.78048 51.44305
# Shear Modulus (GPa) = 28.65203 32.50059 30.57631
#
# Velocity S-wave (km/s) = 3.74020 3.98348 3.86376
# Velocity P-wave (km/s) = 6.56626 6.85033 6.70980
#
# Compressibility (1/GPa) = 0.01995784
#
# Stress axis : x y z
#
# Youngs Moduli (GPa) = 88.87430 54.98614 87.38864
#
# Poissons Ratio (x) = 0.16483 0.21844
# Poissons Ratio (y) = 0.26641 0.43384
# Poissons Ratio (z) = 0.22216 0.27298
#
# Static dielectric constant tensor:
#      x y z
#    x 3.721810 0.000000 0.000000 
#    y 0.000000 3.601050 0.000000 
#    z 0.000000 0.000000 3.985520 
# 
# 
# High freq. dielectric constant tensor:
#      x y z
#    x 1.785310 0.000000 0.000000 
#    y 0.000000 1.761980 0.000000 
#    z 0.000000 0.000000 1.836870 
# 
# From -- ./inp_files/6690.got.cif
#   From: 2010.03.12/outbox.cif.g09.slc.cpg/sg73_4_cif.got.tgz:6690.got - 2010.04.16 15:25:48.
