data_PCOD8296930
_publ_section_title
;
Structure prediction by ZEFSAII (Michael W. Deem and Ramdas Pophale) SiO2 
 PCOD8296930
Probable space group: I B C A 
;
_chemical_formula_sum "Si O2"
_cell_formula_units_Z 72
_cell_length_a 9.230971
_cell_length_b 14.354866
_cell_length_c 22.219043
_cell_angle_alpha 90.000000
_cell_angle_beta 90.000000
_cell_angle_gamma 90.000000
_cell_volume 2944.230985
_symmetry_space_group_name_H-M "I B C A "
_symmetry_group_IT_number 73
_symmetry_cell_setting 'orthorhombic'
loop_
_space_group_symop_operation_xyz
x,y,z
-x,1/2-y,z
x,-y,1/2-z
1/2-x,y,-z
-x,-y,-z
x,1/2+y,-z
-x,y,1/2+z
1/2+x,-y,z
1/2+x,1/2+y,1/2+z
1/2-x,-y,1/2+z
1/2+x,1/2-y,-z
-x,1/2+y,1/2-z
1/2-x,1/2-y,1/2-z
1/2+x,y,1/2-z
1/2-x,1/2+y,z
x,1/2-y,1/2+z
loop_
_atom_site_type_symbol
_atom_site_label
_atom_site_fract_x
_atom_site_fract_y
_atom_site_fract_z
Si Si1 0.000000 0.750000 0.982326
Si Si2 0.516276 0.920213 0.938926
Si Si3 0.536244 0.150074 0.685546
Si Si4 0.676363 0.601167 0.080021
Si Si5 0.273424 0.905623 0.217370
O O1 0.926670 0.833678 0.021135
O O2 0.125919 0.796591 0.941555
O O3 0.585348 0.910312 0.871899
O O4 0.341816 0.916194 0.937836
O O5 0.576633 0.023901 0.956227
O O6 0.500000 0.250000 0.657122
O O7 0.657242 0.169361 0.736586
O O8 0.397880 0.102940 0.716683
O O9 0.654847 0.599590 0.151658
O O10 0.322584 0.000000 0.250000
#
# Coordination Sequence:
#
# PCOD8296930 Si02
#       5
#     8  16  16  16  16
#     4  12  26  48  70  98 142 184 244 302 358 424
#     4  11  25  48  72 103 144 192 242 306 364 431
#     4  11  23  42  67 104 143 186 234 292 362 432
#     4  11  27  45  74 108 140 192 247 297 370 434
#     4  11  23  42  70 103 144 187 235 293 365 435
#
# _framework density 24.454604
#
# number of rings (size 3 to 8) (size 9 to 14) (size 15 to 20)
#    0.000    0.889    3.333    2.667    4.667    3.556 
#    0.000    0.000    0.000    0.000    0.000    0.000 
#    0.000    0.000    0.000    0.000    0.000    0.000 
#
# Total GULP energy -446367.863355 kJ/mol
# GULP energy per Si atom -12399.107315 kJ/mol
# Density = 2.439894 g / cm^3
# Si number density = 24.454604 Si / 1000 Ang^3
#
#
#
# Elastic Constant Matrix: (Units=GPa)
#
#
# Indices 1 2 3 4 5 6 
#
# 1 70.8307 33.4171 63.0425 0.0000 0.0000 0.0000
# 2 33.4171 131.2590 56.2577 0.0000 0.0000 0.0000
# 3 63.0425 56.2577 133.8450 0.0000 0.0000 0.0000
# 4 0.0000 0.0000 0.0000 41.6893 0.0000 0.0000
# 5 0.0000 0.0000 0.0000 0.0000 113.3080 0.0000
# 6 0.0000 0.0000 0.0000 0.0000 0.0000 35.4732
#
#
#
# Elastic Compliance Matrix: (Units=1/GPa)
#
#
# Indices 1 2 3 4 5 6 
#
# 1 0.024575 -0.001580 -0.010911 0.000000 0.000000 0.000000
# 2 -0.001580 0.009394 -0.003204 0.000000 0.000000 0.000000
# 3 -0.010911 -0.003204 0.013957 0.000000 0.000000 0.000000
# 4 0.000000 0.000000 0.000000 0.023987 0.000000 0.000000
# 5 0.000000 0.000000 0.000000 0.000000 0.008825 0.000000
# 6 0.000000 0.000000 0.000000 0.000000 0.000000 0.028190
#
#
# Mechanical properties :
#
#
# Convention : Reuss Voigt Hill
#
# Bulk Modulus (GPa) = 60.47502 71.26325 65.86914
# Shear Modulus (GPa) = 34.28615 50.30861 42.29738
#
# Velocity S-wave (km/s) = 3.74843 4.54058 4.16339
# Velocity P-wave (km/s) = 6.59678 7.52951 7.07853
#
# Compressibility (1/GPa) = 0.01653575
#
# Stress axis : x y z
#
# Youngs Moduli (GPa) = 40.69210 106.44898 71.64697
#
# Poissons Ratio (x) = 0.16820 0.78173
# Poissons Ratio (y) = 0.06430 0.22958
# Poissons Ratio (z) = 0.44399 0.34110
#
# Static dielectric constant tensor:
#      x y z
#    x 4.001650 0.000000 0.000000 
#    y 0.000000 4.509730 0.000000 
#    z 0.000000 0.000000 4.839520 
# 
# 
# High freq. dielectric constant tensor:
#      x y z
#    x 1.951520 0.000000 0.000000 
#    y 0.000000 1.982630 0.000000 
#    z 0.000000 0.000000 2.004580 
# 
# From -- ./inp_files/31071.got.cif
#   From: 2010.03.12/outbox.cif.g09.slc.cpg/sg73_16_cif.got.tgz:31071.got - 2010.04.16 15:25:48.
