data_PCOD8296501
_publ_section_title
;
Structure prediction by ZEFSAII (Michael W. Deem and Ramdas Pophale) SiO2 
 PCOD8296501
Probable space group: I B C A 
;
_chemical_formula_sum "Si O2"
_cell_formula_units_Z 96
_cell_length_a 15.246311
_cell_length_b 21.466913
_cell_length_c 13.429576
_cell_angle_alpha 90.000000
_cell_angle_beta 90.000000
_cell_angle_gamma 90.000000
_cell_volume 4395.382472
_symmetry_space_group_name_H-M "I B C A "
_symmetry_group_IT_number 73
_symmetry_cell_setting 'orthorhombic'
loop_
_space_group_symop_operation_xyz
x,y,z
-x,1/2-y,z
x,-y,1/2-z
1/2-x,y,-z
-x,-y,-z
x,1/2+y,-z
-x,y,1/2+z
1/2+x,-y,z
1/2+x,1/2+y,1/2+z
1/2-x,-y,1/2+z
1/2+x,1/2-y,-z
-x,1/2+y,1/2-z
1/2-x,1/2-y,1/2-z
1/2+x,y,1/2-z
1/2-x,1/2+y,z
x,1/2-y,1/2+z
loop_
_atom_site_type_symbol
_atom_site_label
_atom_site_fract_x
_atom_site_fract_y
_atom_site_fract_z
Si Si1 0.750000 0.925641 0.500000
Si Si2 0.385006 0.853583 0.870512
Si Si3 0.030060 0.618476 0.831253
Si Si4 0.434285 0.390355 0.548301
Si Si5 0.000000 0.250000 0.603228
Si Si6 0.655064 0.228943 0.548121
Si Si7 0.383576 0.984755 0.145892
O O1 0.699539 0.884903 0.419354
O O2 0.683677 0.968797 0.559874
O O3 0.404657 0.884680 0.763458
O O4 0.467980 0.861926 0.943611
O O5 0.360405 0.780015 0.864528
O O6 0.989190 0.688092 0.829475
O O7 0.952014 0.568907 0.825312
O O8 0.085635 0.602291 0.930484
O O9 0.364341 0.340293 0.592825
O O10 0.434638 0.454747 0.606398
O O11 0.087402 0.257886 0.539870
O O12 0.750000 0.233115 0.500000
O O13 0.334320 0.000000 0.250000
#
# Coordination Sequence:
#
# PCOD8296501 Si02
#       7
#     8  16  16  16   8  16  16
#     4  12  28  46  70 108 144 186 238 324 358 432
#     4  12  23  45  76  99 144 190 245 296 374 445
#     4  11  24  42  73 104 133 199 241 286 367 450
#     4  11  24  46  70 100 150 194 241 304 360 456
#     4  10  22  44  68 104 146 182 242 298 372 442
#     4  11  22  43  73 106 143 191 241 308 379 429
#     4  12  26  47  72 104 142 191 249 296 371 446
#
# _framework density 21.841103
#
# number of rings (size 3 to 8) (size 9 to 14) (size 15 to 20)
#    0.000    0.667    7.500    0.500    3.500    1.333 
#    3.000    3.333    0.000    0.000    0.000    0.000 
#    0.000    0.000    0.000    0.000    0.000    0.000 
#
# Total GULP energy -595057.532930 kJ/mol
# GULP energy per Si atom -12397.031936 kJ/mol
# Density = 2.179139 g / cm^3
# Si number density = 21.841103 Si / 1000 Ang^3
#
#
#
# Elastic Constant Matrix: (Units=GPa)
#
#
# Indices 1 2 3 4 5 6 
#
# 1 107.2111 45.4402 25.5676 0.0001 0.0000 0.0000
# 2 45.4402 156.9813 45.1467 0.0001 0.0000 0.0000
# 3 25.5676 45.1467 124.8166 0.0003 0.0000 0.0000
# 4 0.0001 0.0001 0.0003 10.2689 0.0000 0.0000
# 5 0.0000 0.0000 0.0000 0.0000 32.2816 0.0000
# 6 0.0000 0.0000 0.0000 0.0000 0.0000 19.6313
#
#
#
# Elastic Compliance Matrix: (Units=1/GPa)
#
#
# Indices 1 2 3 4 5 6 
#
# 1 0.010792 -0.002777 -0.001206 0.000000 0.000000 0.000000
# 2 -0.002777 0.007824 -0.002261 0.000000 0.000000 0.000000
# 3 -0.001206 -0.002261 0.009077 0.000000 0.000000 0.000000
# 4 0.000000 0.000000 0.000000 0.097381 0.000000 0.000000
# 5 0.000000 0.000000 0.000000 0.000000 0.030977 0.000000
# 6 0.000000 0.000000 0.000000 0.000000 0.000000 0.050939
#
#
# Mechanical properties :
#
#
# Convention : Reuss Voigt Hill
#
# Bulk Modulus (GPa) = 65.77123 69.03533 67.40328
# Shear Modulus (GPa) = 22.26698 30.62667 26.44682
#
# Velocity S-wave (km/s) = 3.19642 3.74872 3.48354
# Velocity P-wave (km/s) = 6.61829 7.10027 6.86351
#
# Compressibility (1/GPa) = 0.01520422
#
# Stress axis : x y z
#
# Youngs Moduli (GPa) = 92.66085 127.80628 110.17175
#
# Poissons Ratio (x) = 0.35492 0.13289
# Poissons Ratio (y) = 0.25732 0.24913
# Poissons Ratio (z) = 0.11177 0.28900
#
# Static dielectric constant tensor:
#      x y z
#    x 3.736280 0.000000 0.000000 
#    y 0.000000 4.484970 0.000000 
#    z 0.000000 0.000000 3.929900 
# 
# 
# High freq. dielectric constant tensor:
#      x y z
#    x 1.839280 0.000000 0.000000 
#    y 0.000000 1.880910 0.000000 
#    z 0.000000 0.000000 1.855980 
# 
# From -- ./inp_files/17127.got.cif
#   From: 2010.03.12/outbox.cif.g09.slc.cpg/sg73_9_cif.got.tgz:17127.got - 2010.04.16 15:25:48.
