data_PCOD8296098
_publ_section_title
;
Structure prediction by ZEFSAII (Michael W. Deem and Ramdas Pophale) SiO2 
 PCOD8296098
Probable space group: I B C A 
;
_chemical_formula_sum "Si O2"
_cell_formula_units_Z 104
_cell_length_a 26.296521
_cell_length_b 8.998700
_cell_length_c 20.142115
_cell_angle_alpha 90.000000
_cell_angle_beta 90.000000
_cell_angle_gamma 90.000000
_cell_volume 4766.319383
_symmetry_space_group_name_H-M "I B C A "
_symmetry_group_IT_number 73
_symmetry_cell_setting 'orthorhombic'
loop_
_space_group_symop_operation_xyz
x,y,z
-x,1/2-y,z
x,-y,1/2-z
1/2-x,y,-z
-x,-y,-z
x,1/2+y,-z
-x,y,1/2+z
1/2+x,-y,z
1/2+x,1/2+y,1/2+z
1/2-x,-y,1/2+z
1/2+x,1/2-y,-z
-x,1/2+y,1/2-z
1/2-x,1/2-y,1/2-z
1/2+x,y,1/2-z
1/2-x,1/2+y,z
x,1/2-y,1/2+z
loop_
_atom_site_type_symbol
_atom_site_label
_atom_site_fract_x
_atom_site_fract_y
_atom_site_fract_z
Si Si1 0.212357 0.631476 0.333229
Si Si2 0.809161 0.807648 0.181250
Si Si3 0.424421 0.765451 0.852255
Si Si4 0.064934 0.998548 0.453216
Si Si5 0.913961 0.000000 0.750000
Si Si6 0.117618 0.791760 0.363918
Si Si7 0.043545 0.463038 0.100339
O O1 0.193701 0.665066 0.259157
O O2 0.207680 0.460183 0.353926
O O3 0.270466 0.680555 0.343532
O O4 0.172248 0.720017 0.378296
O O5 0.865248 0.759669 0.161609
O O6 0.455065 0.609983 0.852132
O O7 0.431619 0.833643 0.925681
O O8 0.446074 0.886945 0.797951
O O9 0.110456 0.898000 0.426671
O O10 0.013417 0.922090 0.423174
O O11 0.072350 0.000516 0.531754
O O12 0.880655 0.892085 0.796992
O O13 0.072205 0.668246 0.359932
#
# Coordination Sequence:
#
# PCOD8296098 Si02
#       7
#    16  16  16  16   8  16  16
#     4  10  21  35  61  91 123 164 205 245 302 381
#     4  10  21  35  61  91 123 164 205 245 302 381
#     4  11  21  39  63  90 132 159 205 259 312 366
#     4  10  24  40  66  91 118 164 222 267 300 358
#     4  10  24  36  58  94 128 168 188 246 322 384
#     4  11  21  39  63  90 132 159 205 259 312 366
#     4  11  22  43  65  91 116 167 228 259 300 356
#
# _framework density 21.819772
#
# number of rings (size 3 to 8) (size 9 to 14) (size 15 to 20)
#    0.000    1.538    3.077    1.846    4.308    3.077 
#    0.000   12.308    0.000    5.538    0.000    0.000 
#    0.000    0.000    0.000    0.000    0.000    0.000 
#
# Total GULP energy -644441.750051 kJ/mol
# GULP energy per Si atom -12393.110578 kJ/mol
# Density = 2.177011 g / cm^3
# Si number density = 21.819772 Si / 1000 Ang^3
#
#
#
# Elastic Constant Matrix: (Units=GPa)
#
#
# Indices 1 2 3 4 5 6 
#
# 1 83.8394 13.4079 17.5146 0.0000 0.0000 0.0000
# 2 13.4079 111.7609 27.0972 0.0000 0.0000 0.0000
# 3 17.5146 27.0972 66.3089 0.0000 0.0000 0.0000
# 4 0.0000 0.0000 0.0000 25.0548 0.0000 0.0000
# 5 0.0000 0.0000 0.0000 0.0000 21.8562 0.0000
# 6 0.0000 0.0000 0.0000 0.0000 0.0000 21.1326
#
#
#
# Elastic Compliance Matrix: (Units=1/GPa)
#
#
# Indices 1 2 3 4 5 6 
#
# 1 0.012686 -0.000788 -0.003029 0.000000 0.000000 0.000000
# 2 -0.000788 0.009981 -0.003871 0.000000 0.000000 0.000000
# 3 -0.003029 -0.003871 0.017463 0.000000 0.000000 0.000000
# 4 0.000000 0.000000 0.000000 0.039913 0.000000 0.000000
# 5 0.000000 0.000000 0.000000 0.000000 0.045754 0.000000
# 6 0.000000 0.000000 0.000000 0.000000 0.000000 0.047320
#
#
# Mechanical properties :
#
#
# Convention : Reuss Voigt Hill
#
# Bulk Modulus (GPa) = 40.39548 41.99430 41.19489
# Shear Modulus (GPa) = 25.41395 27.20134 26.30765
#
# Velocity S-wave (km/s) = 3.41650 3.53461 3.47606
# Velocity P-wave (km/s) = 5.84096 5.99547 5.91872
#
# Compressibility (1/GPa) = 0.02475524
#
# Stress axis : x y z
#
# Youngs Moduli (GPa) = 78.82514 100.19440 57.26479
#
# Poissons Ratio (x) = 0.07891 0.17346
# Poissons Ratio (y) = 0.06208 0.22165
# Poissons Ratio (z) = 0.23877 0.38781
#
# Static dielectric constant tensor:
#      x y z
#    x 3.719230 0.000000 0.000000 
#    y 0.000000 4.321120 0.000000 
#    z 0.000000 0.000000 3.788460 
# 
# 
# High freq. dielectric constant tensor:
#      x y z
#    x 1.839070 0.000000 0.000000 
#    y 0.000000 1.882870 0.000000 
#    z 0.000000 0.000000 1.824880 
# 
# From -- ./inp_files/7339.got.cif
#   From: 2010.03.12/outbox.cif.g09.slc.cpg/sg73_4_cif.got.tgz:7339.got - 2010.04.16 15:25:48.
