data_PCOD8296834
_publ_section_title
;
Structure prediction by ZEFSAII (Michael W. Deem and Ramdas Pophale) SiO2 
 PCOD8296834
Probable space group: I B C A 
;
_chemical_formula_sum "Si O2"
_cell_formula_units_Z 80
_cell_length_a 12.625217
_cell_length_b 15.019735
_cell_length_c 20.010126
_cell_angle_alpha 90.000000
_cell_angle_beta 90.000000
_cell_angle_gamma 90.000000
_cell_volume 3794.468440
_symmetry_space_group_name_H-M "I B C A "
_symmetry_group_IT_number 73
_symmetry_cell_setting 'orthorhombic'
loop_
_space_group_symop_operation_xyz
x,y,z
-x,1/2-y,z
x,-y,1/2-z
1/2-x,y,-z
-x,-y,-z
x,1/2+y,-z
-x,y,1/2+z
1/2+x,-y,z
1/2+x,1/2+y,1/2+z
1/2-x,-y,1/2+z
1/2+x,1/2-y,-z
-x,1/2+y,1/2-z
1/2-x,1/2-y,1/2-z
1/2+x,y,1/2-z
1/2-x,1/2+y,z
x,1/2-y,1/2+z
loop_
_atom_site_type_symbol
_atom_site_label
_atom_site_fract_x
_atom_site_fract_y
_atom_site_fract_z
Si Si1 0.487168 0.026023 0.577544
Si Si2 0.608190 0.361714 0.847869
Si Si3 0.846442 0.157327 0.366479
Si Si4 0.651509 0.328462 0.543395
Si Si5 0.500000 0.250000 0.736675
Si Si6 0.000000 0.250000 0.551507
O O1 0.595611 0.072938 0.600957
O O2 0.386057 0.091737 0.591538
O O3 0.500000 0.000000 0.500000
O O4 0.461612 0.944718 0.627076
O O5 0.733542 0.379079 0.839762
O O6 0.559716 0.325711 0.779020
O O7 0.596542 0.285886 0.904040
O O8 0.171642 0.265273 0.421017
O O9 0.913322 0.198351 0.306402
O O10 0.750000 0.359928 0.500000
O O11 0.549606 0.325737 0.494692
#
# Coordination Sequence:
#
# PCOD8296834 Si02
#       6
#    16  16  16  16   8   8
#     4  12  25  41  67 109 143 167 223 295 348 409
#     4  11  26  42  70  98 138 181 232 284 339 403
#     4  12  24  47  70  98 136 188 230 277 348 415
#     4  12  22  39  70  97 140 179 222 270 353 416
#     4  11  25  52  70  92 135 191 244 278 332 423
#     4  11  19  40  60 100 135 179 212 270 332 421
#
# _framework density 21.083321999999999
#
# number of rings (size 3 to 8) (size 9 to 14) (size 15 to 20)
#    0.000    0.400    8.000    0.600    2.800    0.800 
#    0.000    2.000    0.000    0.000    0.000    0.000 
#    0.000    0.000    0.000    0.000    0.000    0.000 
#
# Total GULP energy -495870.591473 kJ/mol
# GULP energy per Si atom -12396.764787 kJ/mol
# Density = 2.103534 g / cm^3
# Si number density = 21.083322 Si / 1000 Ang^3
#
#
#
# Elastic Constant Matrix: (Units=GPa)
#
#
# Indices 1 2 3 4 5 6 
#
# 1 153.9239 43.6901 48.5080 0.0000 0.0000 0.0000
# 2 43.6901 104.9597 36.9228 0.0000 0.0000 0.0000
# 3 48.5080 36.9228 99.5102 0.0000 0.0000 0.0000
# 4 0.0000 0.0000 0.0000 41.9113 0.0000 0.0000
# 5 0.0000 0.0000 0.0000 0.0000 28.8637 0.0000
# 6 0.0000 0.0000 0.0000 0.0000 0.0000 29.1387
#
#
#
# Elastic Compliance Matrix: (Units=1/GPa)
#
#
# Indices 1 2 3 4 5 6 
#
# 1 0.008127 -0.002288 -0.003113 0.000000 0.000000 0.000000
# 2 -0.002288 0.011602 -0.003190 0.000000 0.000000 0.000000
# 3 -0.003113 -0.003190 0.012750 0.000000 0.000000 0.000000
# 4 0.000000 0.000000 0.000000 0.023860 0.000000 0.000000
# 5 0.000000 0.000000 0.000000 0.000000 0.034646 0.000000
# 6 0.000000 0.000000 0.000000 0.000000 0.000000 0.034319
#
#
# Mechanical properties :
#
#
# Convention : Reuss Voigt Hill
#
# Bulk Modulus (GPa) = 65.36569 68.51507 66.94038
# Shear Modulus (GPa) = 33.87921 35.26758 34.57340
#
# Velocity S-wave (km/s) = 4.01299 4.09439 4.05389
# Velocity P-wave (km/s) = 7.24865 7.41079 7.33017
#
# Compressibility (1/GPa) = 0.01529855
#
# Stress axis : x y z
#
# Youngs Moduli (GPa) = 123.04514 86.19320 78.43105
#
# Poissons Ratio (x) = 0.19720 0.24414
# Poissons Ratio (y) = 0.28152 0.25016
# Poissons Ratio (z) = 0.38301 0.27491
#
# Static dielectric constant tensor:
#      x y z
#    x 3.700380 0.000000 0.000000 
#    y 0.000000 3.858270 0.000000 
#    z 0.000000 0.000000 3.779860 
# 
# 
# High freq. dielectric constant tensor:
#      x y z
#    x 1.835320 0.000000 0.000000 
#    y 0.000000 1.830800 0.000000 
#    z 0.000000 0.000000 1.819770 
# 
# From -- ./inp_files/25329.got.cif
#   From: 2010.03.12/outbox.cif.g09.slc.cpg/sg73_13_cif.got.tgz:25329.got - 2010.04.16 15:25:48.
