data_PCOD8296448
_publ_section_title
;
Structure prediction by ZEFSAII (Michael W. Deem and Ramdas Pophale) SiO2 
 PCOD8296448
Probable space group: I B C A 
;
_chemical_formula_sum "Si O2"
_cell_formula_units_Z 96
_cell_length_a 7.968277
_cell_length_b 25.563691
_cell_length_c 19.606200
_cell_angle_alpha 90.000000
_cell_angle_beta 90.000000
_cell_angle_gamma 90.000000
_cell_volume 3993.754923
_symmetry_space_group_name_H-M "I B C A "
_symmetry_group_IT_number 73
_symmetry_cell_setting 'orthorhombic'
loop_
_space_group_symop_operation_xyz
x,y,z
-x,1/2-y,z
x,-y,1/2-z
1/2-x,y,-z
-x,-y,-z
x,1/2+y,-z
-x,y,1/2+z
1/2+x,-y,z
1/2+x,1/2+y,1/2+z
1/2-x,-y,1/2+z
1/2+x,1/2-y,-z
-x,1/2+y,1/2-z
1/2-x,1/2-y,1/2-z
1/2+x,y,1/2-z
1/2-x,1/2+y,z
x,1/2-y,1/2+z
loop_
_atom_site_type_symbol
_atom_site_label
_atom_site_fract_x
_atom_site_fract_y
_atom_site_fract_z
Si Si1 0.500000 0.250000 0.910896
Si Si2 0.511720 0.135393 0.422350
Si Si3 0.750000 0.564683 0.000000
Si Si4 0.217149 0.118101 0.702315
Si Si5 0.237747 0.922649 0.651755
Si Si6 0.318080 0.271365 0.180070
Si Si7 0.603877 0.475195 0.633352
O O1 0.487133 0.194982 0.951926
O O2 0.324274 0.253653 0.871960
O O3 0.399454 0.101719 0.473132
O O4 0.447671 0.131497 0.342728
O O5 0.702006 0.114285 0.411553
O O6 0.818280 0.526753 0.057920
O O7 0.181044 0.111976 0.783055
O O8 0.342736 0.166131 0.686918
O O9 0.300676 0.064075 0.682455
O O10 0.088064 0.959150 0.626425
O O11 0.386325 0.965948 0.664387
O O12 0.500000 0.250000 0.158616
O O13 0.250000 0.250000 0.250000
#
# Coordination Sequence:
#
# PCOD8296448 Si02
#       7
#     8  16   8  16  16  16  16
#     4  10  22  42  66 100 134 176 230 276 336 396
#     4  10  23  43  70  94 137 175 221 287 331 412
#     4  10  24  50  66  92 126 172 234 280 336 396
#     4  10  23  40  62  98 138 169 216 272 335 406
#     4  12  24  40  65  98 128 172 218 272 348 407
#     4  11  22  35  61  96 137 187 216 267 329 411
#     4  11  25  41  67  92 130 175 219 279 332 402
#
# _framework density 24.037528999999999
#
# number of rings (size 3 to 8) (size 9 to 14) (size 15 to 20)
#    0.000    1.333    0.833    4.500    7.000    4.667 
#    0.000    1.667    3.667    0.000    0.000    0.000 
#    0.000    0.000    0.000    0.000    0.000    0.000 
#
# Total GULP energy -594856.077095 kJ/mol
# GULP energy per Si atom -12392.834939 kJ/mol
# Density = 2.398282 g / cm^3
# Si number density = 24.037529 Si / 1000 Ang^3
#
#
#
# Elastic Constant Matrix: (Units=GPa)
#
#
# Indices 1 2 3 4 5 6 
#
# 1 101.1035 2.3098 0.7737 0.0000 0.0000 0.0000
# 2 2.3098 110.5564 -5.0002 0.0000 0.0000 0.0000
# 3 0.7737 -5.0002 56.6016 0.0003 0.0002 0.0000
# 4 0.0000 0.0000 0.0003 23.0904 0.0001 0.0000
# 5 0.0000 0.0000 0.0002 0.0001 10.9733 0.0000
# 6 0.0000 0.0000 0.0000 0.0000 0.0000 39.0934
#
#
#
# Elastic Compliance Matrix: (Units=1/GPa)
#
#
# Indices 1 2 3 4 5 6 
#
# 1 0.009897 -0.000214 -0.000154 0.000000 0.000000 0.000000
# 2 -0.000214 0.009086 0.000806 0.000000 0.000000 0.000000
# 3 -0.000154 0.000806 0.017741 0.000000 0.000000 0.000000
# 4 0.000000 0.000000 0.000000 0.043308 0.000000 0.000000
# 5 0.000000 0.000000 0.000000 0.000000 0.091131 0.000000
# 6 0.000000 0.000000 0.000000 0.000000 0.000000 0.025580
#
#
# Mechanical properties :
#
#
# Convention : Reuss Voigt Hill
#
# Bulk Modulus (GPa) = 26.59649 29.38090 27.98869
# Shear Modulus (GPa) = 23.99237 32.64330 28.31783
#
# Velocity S-wave (km/s) = 3.16273 3.68912 3.43602
# Velocity P-wave (km/s) = 4.94224 5.51322 5.23552
#
# Compressibility (1/GPa) = 0.03759895
#
# Stress axis : x y z
#
# Youngs Moduli (GPa) = 101.04154 110.05877 56.36783
#
# Poissons Ratio (x) = 0.02352 0.00869
# Poissons Ratio (y) = 0.02160 -0.04541
# Poissons Ratio (z) = 0.01558 -0.08866
#
# Static dielectric constant tensor:
#      x y z
#    x 4.027230 -0.000010 0.000000 
#    y -0.000010 4.004460 0.000000 
#    z 0.000000 0.000000 4.021420 
# 
# 
# High freq. dielectric constant tensor:
#      x y z
#    x 1.961220 0.000000 0.000000 
#    y 0.000000 1.976640 0.000000 
#    z 0.000000 0.000000 1.916840 
# 
# From -- ./inp_files/24916.got.cif
#   From: 2010.03.12/outbox.cif.g09.slc.cpg/sg73_13_cif.got.tgz:24916.got - 2010.04.16 15:25:48.
