data_PCOD8296886
_publ_section_title
;
Structure prediction by ZEFSAII (Michael W. Deem and Ramdas Pophale) SiO2 
 PCOD8296886
Probable space group: I B C A 
;
_chemical_formula_sum "Si O2"
_cell_formula_units_Z 56
_cell_length_a 5.100360
_cell_length_b 23.095846
_cell_length_c 17.792616
_cell_angle_alpha 90.000000
_cell_angle_beta 90.000000
_cell_angle_gamma 90.000000
_cell_volume 2095.919084
_symmetry_space_group_name_H-M "I B C A "
_symmetry_group_IT_number 73
_symmetry_cell_setting 'orthorhombic'
loop_
_space_group_symop_operation_xyz
x,y,z
-x,1/2-y,z
x,-y,1/2-z
1/2-x,y,-z
-x,-y,-z
x,1/2+y,-z
-x,y,1/2+z
1/2+x,-y,z
1/2+x,1/2+y,1/2+z
1/2-x,-y,1/2+z
1/2+x,1/2-y,-z
-x,1/2+y,1/2-z
1/2-x,1/2-y,1/2-z
1/2+x,y,1/2-z
1/2-x,1/2+y,z
x,1/2-y,1/2+z
loop_
_atom_site_type_symbol
_atom_site_label
_atom_site_fract_x
_atom_site_fract_y
_atom_site_fract_z
Si Si1 0.750000 0.400238 0.500000
Si Si2 0.205544 0.208169 0.418914
Si Si3 0.463498 0.658209 0.203169
Si Si4 0.032057 0.537971 0.370576
O O1 0.896443 0.357985 0.438147
O O2 0.966048 0.439177 0.542829
O O3 0.250000 0.239354 0.500000
O O4 0.470545 0.198799 0.369302
O O5 0.000000 0.250000 0.375547
O O6 0.173166 0.673440 0.231274
O O7 0.487991 0.590396 0.186342
O O8 0.316040 0.510331 0.355853
#
# Coordination Sequence:
#
# PCOD8296886 Si02
#       4
#     8  16  16  16
#     4   8  20  40  58 100 132 170 220 288 332 396
#     4   9  21  43  67  99 130 176 228 279 338 402
#     4  11  25  44  66 100 140 175 221 279 337 402
#     4  11  22  40  66  96 133 177 223 272 335 402
#
# _framework density 26.718589000000001
#
# number of rings (size 3 to 8) (size 9 to 14) (size 15 to 20)
#    0.857    1.143    0.000    2.571    0.000    6.857 
#   10.286    0.000    0.000    0.000    0.000    0.000 
#    0.000    0.000    0.000    0.000    0.000    0.000 
#
# Total GULP energy -346876.448090 kJ/mol
# GULP energy per Si atom -12388.444575 kJ/mol
# Density = 2.665778 g / cm^3
# Si number density = 26.718589 Si / 1000 Ang^3
#
#
#
# Elastic Constant Matrix: (Units=GPa)
#
#
# Indices 1 2 3 4 5 6 
#
# 1 60.7357 11.5917 -12.5014 0.0000 0.0000 0.0000
# 2 11.5917 93.1747 7.9623 0.0000 0.0000 0.0000
# 3 -12.5014 7.9623 76.0782 0.0000 0.0000 0.0000
# 4 0.0000 0.0000 0.0000 -17.4746 0.0000 0.0000
# 5 0.0000 0.0000 0.0000 0.0000 20.2261 0.0000
# 6 0.0000 0.0000 0.0000 0.0000 0.0000 41.0536
#
#
#
# Elastic Compliance Matrix: (Units=1/GPa)
#
#
# Indices 1 2 3 4 5 6 
#
# 1 0.017581 -0.002456 0.003146 0.000000 0.000000 0.000000
# 2 -0.002456 0.011173 -0.001573 0.000000 0.000000 0.000000
# 3 0.003146 -0.001573 0.013826 0.000000 0.000000 0.000000
# 4 0.000000 0.000000 0.000000 -0.057226 0.000000 0.000000
# 5 0.000000 0.000000 0.000000 0.000000 0.049441 0.000000
# 6 0.000000 0.000000 0.000000 0.000000 0.000000 0.024358
#
#
# Mechanical properties :
#
#
# Convention : Reuss Voigt Hill
#
# Bulk Modulus (GPa) = 24.50159 27.12152 25.81156
# Shear Modulus (GPa) = 67.09270 23.62340 45.35805
#
# Velocity S-wave (km/s) = 5.01651 2.97670 4.12469
# Velocity P-wave (km/s) = 6.53789 4.68905 5.68908
#
# Compressibility (1/GPa) = 0.04081368
#
# Stress axis : x y z
#
# Youngs Moduli (GPa) = 56.87925 89.50547 72.32772
#
# Poissons Ratio (x) = 0.21983 -0.22755
# Poissons Ratio (y) = 0.13970 0.11376
# Poissons Ratio (z) = -0.17894 0.14078
#
# Static dielectric constant tensor:
#      x y z
#    x 4.246800 0.000000 0.000000 
#    y 0.000000 4.977220 0.000000 
#    z 0.000000 0.000000 4.869460 
# 
# 
# High freq. dielectric constant tensor:
#      x y z
#    x 2.037010 0.000000 0.000000 
#    y 0.000000 2.098740 0.000000 
#    z 0.000000 0.000000 2.070880 
# 
# From -- ./inp_files/1065.got.cif
#   From: 2010.03.12/outbox.cif.g09.slc.cpg/sg73_1_cif.got.tgz:1065.got - 2010.04.16 15:25:48.
