data_PCOD8296393
_publ_section_title
;
Structure prediction by ZEFSAII (Michael W. Deem and Ramdas Pophale) SiO2 
 PCOD8296393
Probable space group: I B C A 
;
_chemical_formula_sum "Si O2"
_cell_formula_units_Z 112
_cell_length_a 17.001555
_cell_length_b 24.722336
_cell_length_c 12.141365
_cell_angle_alpha 90.000000
_cell_angle_beta 90.000000
_cell_angle_gamma 90.000000
_cell_volume 5103.236139
_symmetry_space_group_name_H-M "I B C A "
_symmetry_group_IT_number 73
_symmetry_cell_setting 'orthorhombic'
loop_
_space_group_symop_operation_xyz
x,y,z
-x,1/2-y,z
x,-y,1/2-z
1/2-x,y,-z
-x,-y,-z
x,1/2+y,-z
-x,y,1/2+z
1/2+x,-y,z
1/2+x,1/2+y,1/2+z
1/2-x,-y,1/2+z
1/2+x,1/2-y,-z
-x,1/2+y,1/2-z
1/2-x,1/2-y,1/2-z
1/2+x,y,1/2-z
1/2-x,1/2+y,z
x,1/2-y,1/2+z
loop_
_atom_site_type_symbol
_atom_site_label
_atom_site_fract_x
_atom_site_fract_y
_atom_site_fract_z
Si Si1 0.420965 0.405483 0.478691
Si Si2 0.459268 0.355288 0.828416
Si Si3 0.501217 0.448536 0.175684
Si Si4 0.666542 0.940451 0.242031
Si Si5 0.142235 0.700098 0.089515
Si Si6 0.750000 0.777505 0.500000
Si Si7 0.000000 0.250000 0.280073
Si Si8 0.218552 0.156956 0.704294
O O1 0.501754 0.380310 0.435132
O O2 0.453490 0.453634 0.558253
O O3 0.367675 0.429810 0.381079
O O4 0.375283 0.359230 0.543776
O O5 0.462706 0.393934 0.723503
O O6 0.510248 0.301492 0.800300
O O7 0.367119 0.348991 0.851761
O O8 0.523209 0.500000 0.250000
O O9 0.406456 0.440477 0.171381
O O10 0.734408 0.898495 0.273604
O O11 0.705688 0.000000 0.250000
O O12 0.174827 0.737439 0.991185
O O13 0.071801 0.734307 0.141565
O O14 0.209468 0.690771 0.183168
O O15 0.733929 0.811111 0.389180
#
# Coordination Sequence:
#
# PCOD8296393 Si02
#       8
#    16  16  16  16  16   8   8  16
#     4  11  23  44  76  98 136 189 234 281 363 416
#     4  10  24  40  67 103 135 174 231 288 340 411
#     4  10  22  45  71 103 133 176 234 295 335 412
#     4  10  25  45  71  99 141 180 233 296 347 419
#     4  11  25  43  67  99 138 189 228 282 345 427
#     4  12  28  38  68  96 144 188 218 290 358 418
#     4  10  22  40  66 100 140 172 230 298 328 412
#     4  11  25  46  63 104 140 181 234 285 347 423
#
# _framework density 21.946859
#
# number of rings (size 3 to 8) (size 9 to 14) (size 15 to 20)
#    0.000    1.429    2.857    1.286   12.000    5.714 
#    0.000    0.000    0.000    0.000    0.000    0.000 
#    0.000    0.000    0.000    0.000    0.000    0.000 
#
# Total GULP energy -693856.325901 kJ/mol
# GULP energy per Si atom -12390.291534 kJ/mol
# Density = 2.189691 g / cm^3
# Si number density = 21.946859 Si / 1000 Ang^3
#
#
#
# Elastic Constant Matrix: (Units=GPa)
#
#
# Indices 1 2 3 4 5 6 
#
# 1 77.0647 57.8334 38.3103 0.0000 0.0000 0.0000
# 2 57.8334 154.7613 61.9433 0.0000 0.0000 0.0000
# 3 38.3103 61.9433 108.8471 0.0002 0.0001 0.0000
# 4 0.0000 0.0000 0.0002 31.9612 0.0001 0.0000
# 5 0.0000 0.0000 0.0001 0.0001 18.1620 0.0000
# 6 0.0000 0.0000 0.0000 0.0000 0.0000 39.6770
#
#
#
# Elastic Compliance Matrix: (Units=1/GPa)
#
#
# Indices 1 2 3 4 5 6 
#
# 1 0.018969 -0.005719 -0.003422 0.000000 0.000000 0.000000
# 2 -0.005719 0.010092 -0.003730 0.000000 0.000000 0.000000
# 3 -0.003422 -0.003730 0.012514 0.000000 0.000000 0.000000
# 4 0.000000 0.000000 0.000000 0.031288 0.000000 0.000000
# 5 0.000000 0.000000 0.000000 0.000000 0.055060 0.000000
# 6 0.000000 0.000000 0.000000 0.000000 0.000000 0.025203
#
#
# Mechanical properties :
#
#
# Convention : Reuss Voigt Hill
#
# Bulk Modulus (GPa) = 63.15886 72.98302 68.07094
# Shear Modulus (GPa) = 27.15236 30.13247 28.64241
#
# Velocity S-wave (km/s) = 3.52118 3.70939 3.61651
# Velocity P-wave (km/s) = 6.73589 7.18837 6.96580
#
# Compressibility (1/GPa) = 0.01583309
#
# Stress axis : x y z
#
# Youngs Moduli (GPa) = 52.71754 99.09100 79.90839
#
# Poissons Ratio (x) = 0.56671 0.27343
# Poissons Ratio (y) = 0.30149 0.29807
# Poissons Ratio (z) = 0.18039 0.36963
#
# Static dielectric constant tensor:
#      x y z
#    x 3.844370 0.000000 0.000000 
#    y 0.000000 4.215490 0.000000 
#    z 0.000000 0.000000 4.020270 
# 
# 
# High freq. dielectric constant tensor:
#      x y z
#    x 1.854480 0.000000 0.000000 
#    y 0.000000 1.875430 0.000000 
#    z 0.000000 0.000000 1.865280 
# 
# From -- ./inp_files/12220.got.cif
#   From: 2010.03.12/outbox.cif.g09.slc.cpg/sg73_7_cif.got.tgz:12220.got - 2010.04.16 15:25:48.
