data_PCOD8296701
_publ_section_title
;
Structure prediction by ZEFSAII (Michael W. Deem and Ramdas Pophale) SiO2 
 PCOD8296701
Probable space group: I B C A 
;
_chemical_formula_sum "Si O2"
_cell_formula_units_Z 88
_cell_length_a 18.210803
_cell_length_b 14.213944
_cell_length_c 15.839634
_cell_angle_alpha 90.000000
_cell_angle_beta 90.000000
_cell_angle_gamma 90.000000
_cell_volume 4100.047033
_symmetry_space_group_name_H-M "I B C A "
_symmetry_group_IT_number 73
_symmetry_cell_setting 'orthorhombic'
loop_
_space_group_symop_operation_xyz
x,y,z
-x,1/2-y,z
x,-y,1/2-z
1/2-x,y,-z
-x,-y,-z
x,1/2+y,-z
-x,y,1/2+z
1/2+x,-y,z
1/2+x,1/2+y,1/2+z
1/2-x,-y,1/2+z
1/2+x,1/2-y,-z
-x,1/2+y,1/2-z
1/2-x,1/2-y,1/2-z
1/2+x,y,1/2-z
1/2-x,1/2+y,z
x,1/2-y,1/2+z
loop_
_atom_site_type_symbol
_atom_site_label
_atom_site_fract_x
_atom_site_fract_y
_atom_site_fract_z
Si Si1 0.417342 0.524800 0.502042
Si Si2 0.500000 0.250000 0.756193
Si Si3 0.220598 0.705355 0.667434
Si Si4 0.121454 0.798095 0.893803
Si Si5 0.168211 0.342659 0.472030
Si Si6 0.410548 0.083707 0.686710
O O1 0.500000 0.500000 0.500000
O O2 0.414272 0.616252 0.558699
O O3 0.370303 0.442113 0.546110
O O4 0.395981 0.545390 0.406567
O O5 0.571956 0.223620 0.811665
O O6 0.475124 0.162458 0.696760
O O7 0.250000 0.750000 0.750000
O O8 0.293584 0.670440 0.619517
O O9 0.170603 0.775543 0.610447
O O10 0.169960 0.623804 0.705605
O O11 0.121658 0.706224 0.953237
O O12 0.250000 0.366130 0.500000
O O13 0.430425 0.000000 0.750000
#
# Coordination Sequence:
#
# PCOD8296701 Si02
#       6
#    16   8  16  16  16  16
#     4  12  27  42  71 104 139 188 243 289 357 433
#     4  12  26  48  70 100 156 184 234 310 368 434
#     4  11  24  45  71 104 141 190 238 298 365 422
#     4  11  23  45  70 100 138 188 238 291 360 431
#     4  10  24  43  69  99 139 183 236 293 352 423
#     4  12  27  46  71 106 145 188 240 300 368 429
#
# _framework density 21.463169000000001
#
# number of rings (size 3 to 8) (size 9 to 14) (size 15 to 20)
#    0.000    0.727    3.636    3.273    7.636    0.727 
#    0.000    0.909    0.000    0.000    0.000    0.000 
#    0.000    0.000    0.000    0.000    0.000    0.000 
#
# Total GULP energy -545415.441514 kJ/mol
# GULP energy per Si atom -12395.805489 kJ/mol
# Density = 2.141432 g / cm^3
# Si number density = 21.463169 Si / 1000 Ang^3
#
#
#
# Elastic Constant Matrix: (Units=GPa)
#
#
# Indices 1 2 3 4 5 6 
#
# 1 106.5023 50.0268 10.0396 0.0000 0.0000 0.0000
# 2 50.0268 102.4224 13.1036 0.0000 0.0000 0.0000
# 3 10.0396 13.1036 67.1449 0.0000 0.0000 0.0000
# 4 0.0000 0.0000 0.0000 25.6104 0.0000 0.0000
# 5 0.0000 0.0000 0.0000 0.0000 41.4673 0.0000
# 6 0.0000 0.0000 0.0000 0.0000 0.0000 49.9943
#
#
#
# Elastic Compliance Matrix: (Units=1/GPa)
#
#
# Indices 1 2 3 4 5 6 
#
# 1 0.012215 -0.005879 -0.000679 0.000000 0.000000 0.000000
# 2 -0.005879 0.012843 -0.001627 0.000000 0.000000 0.000000
# 3 -0.000679 -0.001627 0.015312 0.000000 0.000000 0.000000
# 4 0.000000 0.000000 0.000000 0.039047 0.000000 0.000000
# 5 0.000000 0.000000 0.000000 0.000000 0.024115 0.000000
# 6 0.000000 0.000000 0.000000 0.000000 0.000000 0.020002
#
#
# Mechanical properties :
#
#
# Convention : Reuss Voigt Hill
#
# Bulk Modulus (GPa) = 41.66801 46.93440 44.30121
# Shear Modulus (GPa) = 33.80509 36.94104 35.37306
#
# Velocity S-wave (km/s) = 3.97297 4.15316 4.06406
# Velocity P-wave (km/s) = 6.36411 6.70173 6.53510
#
# Compressibility (1/GPa) = 0.02399923
#
# Stress axis : x y z
#
# Youngs Moduli (GPa) = 81.86509 77.86072 65.30705
#
# Poissons Ratio (x) = 0.45778 0.04435
# Poissons Ratio (y) = 0.48132 0.10628
# Poissons Ratio (z) = 0.05559 0.12671
#
# Static dielectric constant tensor:
#      x y z
#    x 3.603420 0.000000 0.000000 
#    y 0.000000 3.816660 0.000000 
#    z 0.000000 0.000000 3.092470 
# 
# 
# High freq. dielectric constant tensor:
#      x y z
#    x 1.860600 0.000000 0.000000 
#    y 0.000000 1.842890 0.000000 
#    z 0.000000 0.000000 1.847720 
# 
# From -- ./inp_files/22463.got.cif
#   From: 2010.03.12/outbox.cif.g09.slc.cpg/sg73_12_cif.got.tgz:22463.got - 2010.04.16 15:25:48.
