data_PCOD8296825
_publ_section_title
;
Structure prediction by ZEFSAII (Michael W. Deem and Ramdas Pophale) SiO2 
 PCOD8296825
Probable space group: I B C A 
;
_chemical_formula_sum "Si O2"
_cell_formula_units_Z 88
_cell_length_a 24.936715
_cell_length_b 8.333555
_cell_length_c 18.223734
_cell_angle_alpha 90.000000
_cell_angle_beta 90.000000
_cell_angle_gamma 90.000000
_cell_volume 3787.101242
_symmetry_space_group_name_H-M "I B C A "
_symmetry_group_IT_number 73
_symmetry_cell_setting 'orthorhombic'
loop_
_space_group_symop_operation_xyz
x,y,z
-x,1/2-y,z
x,-y,1/2-z
1/2-x,y,-z
-x,-y,-z
x,1/2+y,-z
-x,y,1/2+z
1/2+x,-y,z
1/2+x,1/2+y,1/2+z
1/2-x,-y,1/2+z
1/2+x,1/2-y,-z
-x,1/2+y,1/2-z
1/2-x,1/2-y,1/2-z
1/2+x,y,1/2-z
1/2-x,1/2+y,z
x,1/2-y,1/2+z
loop_
_atom_site_type_symbol
_atom_site_label
_atom_site_fract_x
_atom_site_fract_y
_atom_site_fract_z
Si Si1 0.308464 0.087857 0.592657
Si Si2 0.396930 0.167886 0.269724
Si Si3 0.073192 0.422756 0.931652
Si Si4 0.500000 0.250000 0.179655
Si Si5 0.831962 0.000000 0.750000
Si Si6 0.058416 0.275922 0.083932
Si Si7 0.750000 0.160768 0.500000
O O1 0.369423 0.155247 0.588159
O O2 0.296370 0.026749 0.676394
O O3 0.271087 0.235859 0.569077
O O4 0.297738 0.945855 0.534232
O O5 0.454085 0.167897 0.228141
O O6 0.367227 0.337114 0.256601
O O7 0.404913 0.139058 0.356179
O O8 0.365944 0.000000 0.250000
O O9 0.086487 0.609098 0.933862
O O10 0.027633 0.383695 0.872026
O O11 0.051791 0.379987 0.011435
O O12 0.000000 0.250000 0.118418
#
# Coordination Sequence:
#
# PCOD8296825 Si02
#       7
#    16  16  16   8   8  16   8
#     4  11  24  49  77 106 145 186 246 317 382 451
#     4  12  26  42  67 101 149 201 242 289 357 431
#     4  12  25  41  69 100 146 186 242 296 352 440
#     4  12  24  42  66 104 148 202 242 294 352 440
#     4  12  26  50  72 112 148 188 242 318 362 452
#     4  12  24  40  60 100 142 194 241 288 344 425
#     4  10  26  50  78 108 136 192 242 320 406 446
#
# _framework density 23.236768999999999
#
# number of rings (size 3 to 8) (size 9 to 14) (size 15 to 20)
#    0.000    0.364    5.455    2.727    3.818    2.182 
#    3.273    0.000    0.000    0.000    0.000    0.000 
#    0.000    0.000    0.000    0.000    0.000    0.000 
#
# Total GULP energy -545334.994666 kJ/mol
# GULP energy per Si atom -12393.977152 kJ/mol
# Density = 2.318388 g / cm^3
# Si number density = 23.236769 Si / 1000 Ang^3
#
#
#
# Elastic Constant Matrix: (Units=GPa)
#
#
# Indices 1 2 3 4 5 6 
#
# 1 65.0680 16.0375 16.5666 0.0000 0.0000 0.0000
# 2 16.0375 122.2341 39.6104 0.0000 0.0000 0.0000
# 3 16.5666 39.6104 157.8748 0.0000 0.0000 0.0000
# 4 0.0000 0.0000 0.0000 142.6497 0.0000 0.0000
# 5 0.0000 0.0000 0.0000 0.0000 36.6767 0.0000
# 6 0.0000 0.0000 0.0000 0.0000 0.0000 20.5607
#
#
#
# Elastic Compliance Matrix: (Units=1/GPa)
#
#
# Indices 1 2 3 4 5 6 
#
# 1 0.016110 -0.001704 -0.001263 0.000000 0.000000 0.000000
# 2 -0.001704 0.009085 -0.002101 0.000000 0.000000 0.000000
# 3 -0.001263 -0.002101 0.006994 0.000000 0.000000 0.000000
# 4 0.000000 0.000000 0.000000 0.007010 0.000000 0.000000
# 5 0.000000 0.000000 0.000000 0.000000 0.027265 0.000000
# 6 0.000000 0.000000 0.000000 0.000000 0.000000 0.048636
#
#
# Mechanical properties :
#
#
# Convention : Reuss Voigt Hill
#
# Bulk Modulus (GPa) = 45.34473 54.40066 49.87270
# Shear Modulus (GPa) = 37.71075 58.17492 47.94284
#
# Velocity S-wave (km/s) = 4.03288 5.00900 4.54721
# Velocity P-wave (km/s) = 6.42200 7.54425 7.00563
#
# Compressibility (1/GPa) = 0.02205328
#
# Stress axis : x y z
#
# Youngs Moduli (GPa) = 62.07258 110.06698 142.98582
#
# Poissons Ratio (x) = 0.18761 0.18057
# Poissons Ratio (y) = 0.10580 0.30036
# Poissons Ratio (z) = 0.07839 0.23121
#
# Static dielectric constant tensor:
#      x y z
#    x 3.858250 0.000000 0.000000 
#    y 0.000000 4.248900 0.000000 
#    z 0.000000 0.000000 4.457510 
# 
# 
# High freq. dielectric constant tensor:
#      x y z
#    x 1.887680 0.000000 0.000000 
#    y 0.000000 1.926570 0.000000 
#    z 0.000000 0.000000 1.938040 
# 
# From -- ./inp_files/27221.got.cif
#   From: 2010.03.12/outbox.cif.g09.slc.cpg/sg73_14_cif.got.tgz:27221.got - 2010.04.16 15:25:48.
