data_PCOD8296551
_publ_section_title
;
Structure prediction by ZEFSAII (Michael W. Deem and Ramdas Pophale) SiO2 
 PCOD8296551
Probable space group: I B C A 
;
_chemical_formula_sum "Si O2"
_cell_formula_units_Z 80
_cell_length_a 22.667891
_cell_length_b 18.450044
_cell_length_c 8.776425
_cell_angle_alpha 90.000000
_cell_angle_beta 90.000000
_cell_angle_gamma 90.000000
_cell_volume 3670.507939
_symmetry_space_group_name_H-M "I B C A "
_symmetry_group_IT_number 73
_symmetry_cell_setting 'orthorhombic'
loop_
_space_group_symop_operation_xyz
x,y,z
-x,1/2-y,z
x,-y,1/2-z
1/2-x,y,-z
-x,-y,-z
x,1/2+y,-z
-x,y,1/2+z
1/2+x,-y,z
1/2+x,1/2+y,1/2+z
1/2-x,-y,1/2+z
1/2+x,1/2-y,-z
-x,1/2+y,1/2-z
1/2-x,1/2-y,1/2-z
1/2+x,y,1/2-z
1/2-x,1/2+y,z
x,1/2-y,1/2+z
loop_
_atom_site_type_symbol
_atom_site_label
_atom_site_fract_x
_atom_site_fract_y
_atom_site_fract_z
Si Si1 0.975698 0.673717 0.396665
Si Si2 0.389456 0.420744 0.579338
Si Si3 0.876007 0.804772 0.652130
Si Si4 0.909016 0.417276 0.585221
Si Si5 0.315176 0.311628 0.454037
O O1 0.938222 0.637430 0.529685
O O2 0.938599 0.690862 0.241889
O O3 0.000000 0.750000 0.460700
O O4 0.028436 0.617272 0.367923
O O5 0.412926 0.499632 0.528351
O O6 0.373231 0.416065 0.757280
O O7 0.328696 0.395869 0.495810
O O8 0.873268 0.874879 0.544024
O O9 0.865478 0.736036 0.542068
O O10 0.822558 0.803088 0.772874
O O11 0.250000 0.287307 0.500000
#
# Coordination Sequence:
#
# PCOD8296551 Si02
#       5
#    16  16  16  16  16
#     4  11  22  37  61  90 124 166 204 254 315 385
#     4  10  23  40  60  88 125 161 208 254 309 390
#     4  11  24  39  63  92 122 159 213 259 312 388
#     4  11  22  39  60  91 127 163 198 252 318 387
#     4  11  23  43  65  88 120 163 213 272 320 365
#
# _framework density 21.795348000000001
#
# number of rings (size 3 to 8) (size 9 to 14) (size 15 to 20)
#    0.000    1.200    0.000    7.200    0.000    8.000 
#    0.000    5.000    0.000    0.000    0.000    0.000 
#    0.000    0.000    0.000    0.000    0.000    0.000 
#
# Total GULP energy -495688.637776 kJ/mol
# GULP energy per Si atom -12392.215944 kJ/mol
# Density = 2.174574 g / cm^3
# Si number density = 21.795348 Si / 1000 Ang^3
#
#
#
# Elastic Constant Matrix: (Units=GPa)
#
#
# Indices 1 2 3 4 5 6 
#
# 1 76.1093 46.3427 27.5779 0.0000 0.0000 0.0000
# 2 46.3427 171.3632 59.1755 0.0000 0.0000 0.0000
# 3 27.5779 59.1755 119.8274 0.0000 0.0000 0.0000
# 4 0.0000 0.0000 0.0000 39.0183 0.0000 0.0000
# 5 0.0000 0.0000 0.0000 0.0000 21.6542 0.0000
# 6 0.0000 0.0000 0.0000 0.0000 0.0000 22.2677
#
#
#
# Elastic Compliance Matrix: (Units=1/GPa)
#
#
# Indices 1 2 3 4 5 6 
#
# 1 0.016070 -0.003700 -0.001871 0.000000 0.000000 0.000000
# 2 -0.003700 0.007887 -0.003043 0.000000 0.000000 0.000000
# 3 -0.001871 -0.003043 0.010279 0.000000 0.000000 0.000000
# 4 0.000000 0.000000 0.000000 0.025629 0.000000 0.000000
# 5 0.000000 0.000000 0.000000 0.000000 0.046180 0.000000
# 6 0.000000 0.000000 0.000000 0.000000 0.000000 0.044908
#
#
# Mechanical properties :
#
#
# Convention : Reuss Voigt Hill
#
# Bulk Modulus (GPa) = 58.79977 70.38801 64.59389
# Shear Modulus (GPa) = 28.76022 32.20163 30.48092
#
# Velocity S-wave (km/s) = 3.63651 3.84794 3.74372
# Velocity P-wave (km/s) = 6.68349 7.21853 6.95616
#
# Compressibility (1/GPa) = 0.01700687
#
# Stress axis : x y z
#
# Youngs Moduli (GPa) = 62.22870 126.79024 97.28546
#
# Poissons Ratio (x) = 0.46907 0.18206
# Poissons Ratio (y) = 0.23022 0.29609
# Poissons Ratio (z) = 0.11645 0.38588
#
# Static dielectric constant tensor:
#      x y z
#    x 3.749040 0.000000 0.000000 
#    y 0.000000 4.169200 0.000000 
#    z 0.000000 0.000000 4.004910 
# 
# 
# High freq. dielectric constant tensor:
#      x y z
#    x 1.827460 0.000000 0.000000 
#    y 0.000000 1.863460 0.000000 
#    z 0.000000 0.000000 1.871690 
# 
# From -- ./inp_files/7727.got.cif
#   From: 2010.03.12/outbox.cif.g09.slc.cpg/sg73_4_cif.got.tgz:7727.got - 2010.04.16 15:25:48.
