data_PCOD8296108
_publ_section_title
;
Structure prediction by ZEFSAII (Michael W. Deem and Ramdas Pophale) SiO2 
 PCOD8296108
Probable space group: I B C A 
;
_chemical_formula_sum "Si O2"
_cell_formula_units_Z 120
_cell_length_a 24.265189
_cell_length_b 10.412413
_cell_length_c 23.578565
_cell_angle_alpha 90.000000
_cell_angle_beta 90.000000
_cell_angle_gamma 90.000000
_cell_volume 5957.340648
_symmetry_space_group_name_H-M "I B C A "
_symmetry_group_IT_number 73
_symmetry_cell_setting 'orthorhombic'
loop_
_space_group_symop_operation_xyz
x,y,z
-x,1/2-y,z
x,-y,1/2-z
1/2-x,y,-z
-x,-y,-z
x,1/2+y,-z
-x,y,1/2+z
1/2+x,-y,z
1/2+x,1/2+y,1/2+z
1/2-x,-y,1/2+z
1/2+x,1/2-y,-z
-x,1/2+y,1/2-z
1/2-x,1/2-y,1/2-z
1/2+x,y,1/2-z
1/2-x,1/2+y,z
x,1/2-y,1/2+z
loop_
_atom_site_type_symbol
_atom_site_label
_atom_site_fract_x
_atom_site_fract_y
_atom_site_fract_z
Si Si1 0.692298 0.265234 0.017501
Si Si2 0.623313 0.349515 0.910454
Si Si3 0.381378 0.000000 0.250000
Si Si4 0.506670 0.397869 0.950923
Si Si5 0.313565 0.595975 0.381415
Si Si6 0.408225 0.909214 0.134462
Si Si7 0.794472 0.530495 0.605369
Si Si8 0.298569 0.708945 0.792089
O O1 0.662220 0.177612 0.065403
O O2 0.709380 0.402384 0.044237
O O3 0.750000 0.198401 0.000000
O O4 0.651054 0.282069 0.965073
O O5 0.567492 0.421316 0.927348
O O6 0.662439 0.452832 0.880820
O O7 0.608795 0.240382 0.864504
O O8 0.420569 0.963572 0.197372
O O9 0.343390 0.874590 0.258721
O O10 0.500000 0.250000 0.972109
O O11 0.462434 0.431025 0.902565
O O12 0.500000 0.500000 0.000000
O O13 0.247206 0.589004 0.390464
O O14 0.326147 0.664341 0.321081
O O15 0.357466 0.989603 0.110381
O O16 0.775186 0.626753 0.655354
O O17 0.250000 0.750000 0.750000
#
# Coordination Sequence:
#
# PCOD8296108 Si02
#       8
#    16  16   8  16  16  16  16  16
#     4  11  22  33  54  86 129 172 196 245 314 382
#     4  11  24  38  63  90 130 160 208 265 316 386
#     4  10  22  42  68  84 120 170 214 272 322 380
#     4  10  23  43  69  95 127 171 214 271 325 392
#     4  11  24  35  56  94 129 162 210 255 313 385
#     4  10  22  42  66  89 121 166 216 262 324 380
#     4  10  21  36  55  88 125 164 212 254 306 392
#     4  10  21  38  60  86 123 168 213 257 319 374
#
# _framework density 20.143217
#
# number of rings (size 3 to 8) (size 9 to 14) (size 15 to 20)
#    0.000    1.600    1.333    3.200   11.200    0.000 
#    0.000    0.000    8.800    0.000    0.000    0.000 
#    0.000    0.000    0.000    0.000    0.000    0.000 
#
# Total GULP energy -743869.070442 kJ/mol
# GULP energy per Si atom -12397.817841 kJ/mol
# Density = 2.009737 g / cm^3
# Si number density = 20.143217 Si / 1000 Ang^3
#
#
#
# Elastic Constant Matrix: (Units=GPa)
#
#
# Indices 1 2 3 4 5 6 
#
# 1 107.3912 29.7312 48.2685 0.0000 0.0000 0.0000
# 2 29.7312 84.9039 56.7143 0.0000 0.0000 0.0000
# 3 48.2685 56.7143 122.4048 0.0000 0.0000 0.0000
# 4 0.0000 0.0000 0.0000 41.6236 0.0000 0.0000
# 5 0.0000 0.0000 0.0000 0.0000 28.7560 0.0000
# 6 0.0000 0.0000 0.0000 0.0000 0.0000 26.8080
#
#
#
# Elastic Compliance Matrix: (Units=1/GPa)
#
#
# Indices 1 2 3 4 5 6 
#
# 1 0.011438 -0.001437 -0.003844 0.000000 0.000000 0.000000
# 2 -0.001437 0.017238 -0.007420 0.000000 0.000000 0.000000
# 3 -0.003844 -0.007420 0.013124 0.000000 0.000000 0.000000
# 4 0.000000 0.000000 0.000000 0.024025 0.000000 0.000000
# 5 0.000000 0.000000 0.000000 0.000000 0.034775 0.000000
# 6 0.000000 0.000000 0.000000 0.000000 0.000000 0.037302
#
#
# Mechanical properties :
#
#
# Convention : Reuss Voigt Hill
#
# Bulk Modulus (GPa) = 60.99195 64.90312 62.94753
# Shear Modulus (GPa) = 29.62616 31.43658 30.53137
#
# Velocity S-wave (km/s) = 3.83923 3.95480 3.89744
# Velocity P-wave (km/s) = 7.07091 7.29004 7.18131
#
# Compressibility (1/GPa) = 0.01639561
#
# Stress axis : x y z
#
# Youngs Moduli (GPa) = 87.43151 58.01213 76.19897
#
# Poissons Ratio (x) = 0.08338 0.29293
# Poissons Ratio (y) = 0.12566 0.56540
# Poissons Ratio (z) = 0.33611 0.43046
#
# Static dielectric constant tensor:
#      x y z
#    x 3.639060 0.000000 0.000000 
#    y 0.000000 3.798990 0.000000 
#    z 0.000000 0.000000 3.766780 
# 
# 
# High freq. dielectric constant tensor:
#      x y z
#    x 1.764460 0.000000 0.000000 
#    y 0.000000 1.797340 0.000000 
#    z 0.000000 0.000000 1.786780 
# 
# From -- ./inp_files/30527.got.cif
#   From: 2010.03.12/outbox.cif.g09.slc.cpg/sg73_16_cif.got.tgz:30527.got - 2010.04.16 15:25:48.
