data_PCOD8296931
_publ_section_title
;
Structure prediction by ZEFSAII (Michael W. Deem and Ramdas Pophale) SiO2 
 PCOD8296931
Probable space group: I B C A 
;
_chemical_formula_sum "Si O2"
_cell_formula_units_Z 96
_cell_length_a 24.317308
_cell_length_b 8.490245
_cell_length_c 22.009628
_cell_angle_alpha 90.000000
_cell_angle_beta 90.000000
_cell_angle_gamma 90.000000
_cell_volume 4544.105654
_symmetry_space_group_name_H-M "I B C A "
_symmetry_group_IT_number 73
_symmetry_cell_setting 'orthorhombic'
loop_
_space_group_symop_operation_xyz
x,y,z
-x,1/2-y,z
x,-y,1/2-z
1/2-x,y,-z
-x,-y,-z
x,1/2+y,-z
-x,y,1/2+z
1/2+x,-y,z
1/2+x,1/2+y,1/2+z
1/2-x,-y,1/2+z
1/2+x,1/2-y,-z
-x,1/2+y,1/2-z
1/2-x,1/2-y,1/2-z
1/2+x,y,1/2-z
1/2-x,1/2+y,z
x,1/2-y,1/2+z
loop_
_atom_site_type_symbol
_atom_site_label
_atom_site_fract_x
_atom_site_fract_y
_atom_site_fract_z
Si Si1 0.177612 0.452167 0.183518
Si Si2 0.706780 0.585406 0.686339
Si Si3 0.896552 0.958416 0.631650
Si Si4 0.415216 0.895341 0.391023
Si Si5 0.002006 0.064442 0.187620
Si Si6 0.456876 0.381424 0.478423
O O1 0.154079 0.500000 0.250000
O O2 0.230426 0.557978 0.166298
O O3 0.194883 0.270549 0.187866
O O4 0.132549 0.482507 0.130528
O O5 0.695900 0.500000 0.750000
O O6 0.666940 0.504133 0.637666
O O7 0.902845 0.772047 0.638092
O O8 0.917234 0.048007 0.571812
O O9 0.933482 0.022785 0.686872
O O10 0.417833 0.852021 0.462745
O O11 0.472377 0.973234 0.368299
O O12 0.000000 0.250000 0.181883
O O13 0.975392 0.000000 0.250000
O O14 0.500000 0.250000 0.454030
O O15 0.500000 0.500000 0.500000
#
# Coordination Sequence:
#
# PCOD8296931 Si02
#       6
#    16  16  16  16  16  16
#     4  11  23  42  67  94 129 166 212 261 324 383
#     4  11  23  42  67  95 128 167 210 263 321 386
#     4  12  24  40  64  91 127 164 214 258 319 380
#     4  12  24  41  63  92 125 167 210 263 315 383
#     4  12  24  38  58  88 125 160 205 257 317 379
#     4  12  24  43  66  92 128 171 215 260 315 378
#
# _framework density 21.126270000000002
#
# number of rings (size 3 to 8) (size 9 to 14) (size 15 to 20)
#    0.000    0.333    3.333    8.000    2.333    0.000 
#    0.000    0.833    0.000    4.000    0.000    0.000 
#    0.000    0.000    0.000    0.000    0.000    0.000 
#
# Total GULP energy -594750.654302 kJ/mol
# GULP energy per Si atom -12390.638631 kJ/mol
# Density = 2.107819 g / cm^3
# Si number density = 21.126270 Si / 1000 Ang^3
#
#
#
# Elastic Constant Matrix: (Units=GPa)
#
#
# Indices 1 2 3 4 5 6 
#
# 1 91.9635 2.6886 29.1681 0.0000 0.0000 0.0000
# 2 2.6886 130.1655 12.8795 0.0000 0.0000 0.0000
# 3 29.1681 12.8795 87.8831 0.0000 0.0000 0.0000
# 4 0.0000 0.0000 0.0000 26.2499 0.0000 0.0000
# 5 0.0000 0.0000 0.0000 0.0000 29.1136 0.0000
# 6 0.0000 0.0000 0.0000 0.0000 0.0000 34.9610
#
#
#
# Elastic Compliance Matrix: (Units=1/GPa)
#
#
# Indices 1 2 3 4 5 6 
#
# 1 0.012156 0.000150 -0.004057 0.000000 0.000000 0.000000
# 2 0.000150 0.007797 -0.001193 0.000000 0.000000 0.000000
# 3 -0.004057 -0.001193 0.012900 0.000000 0.000000 0.000000
# 4 0.000000 0.000000 0.000000 0.038095 0.000000 0.000000
# 5 0.000000 0.000000 0.000000 0.000000 0.034348 0.000000
# 6 0.000000 0.000000 0.000000 0.000000 0.000000 0.028603
#
#
# Mechanical properties :
#
#
# Convention : Reuss Voigt Hill
#
# Bulk Modulus (GPa) = 44.13917 44.38717 44.26317
# Shear Modulus (GPa) = 32.97066 35.74997 34.36031
#
# Velocity S-wave (km/s) = 3.95479 4.11810 4.03727
# Velocity P-wave (km/s) = 6.46469 6.60816 6.53682
#
# Compressibility (1/GPa) = 0.02265561
#
# Stress axis : x y z
#
# Youngs Moduli (GPa) = 82.26309 128.24741 77.51990
#
# Poissons Ratio (x) = -0.01928 0.31447
# Poissons Ratio (y) = -0.01236 0.09245
# Poissons Ratio (z) = 0.33371 0.15295
#
# Static dielectric constant tensor:
#      x y z
#    x 4.073220 0.000000 0.000000 
#    y 0.000000 3.943250 0.000000 
#    z 0.000000 0.000000 2.682370 
# 
# 
# High freq. dielectric constant tensor:
#      x y z
#    x 1.825450 0.000000 0.000000 
#    y 0.000000 1.854770 0.000000 
#    z 0.000000 0.000000 1.818700 
# 
# From -- ./inp_files/27528.got.cif
#   From: 2010.03.12/outbox.cif.g09.slc.cpg/sg73_14_cif.got.tgz:27528.got - 2010.04.16 15:25:48.
