data_PCOD8296268
_publ_section_title
;
Structure prediction by ZEFSAII (Michael W. Deem and Ramdas Pophale) SiO2 
 PCOD8296268
Probable space group: I B C A 
;
_chemical_formula_sum "Si O2"
_cell_formula_units_Z 120
_cell_length_a 26.554173
_cell_length_b 9.123486
_cell_length_c 24.193473
_cell_angle_alpha 90.000000
_cell_angle_beta 90.000000
_cell_angle_gamma 90.000000
_cell_volume 5861.271065
_symmetry_space_group_name_H-M "I B C A "
_symmetry_group_IT_number 73
_symmetry_cell_setting 'orthorhombic'
loop_
_space_group_symop_operation_xyz
x,y,z
-x,1/2-y,z
x,-y,1/2-z
1/2-x,y,-z
-x,-y,-z
x,1/2+y,-z
-x,y,1/2+z
1/2+x,-y,z
1/2+x,1/2+y,1/2+z
1/2-x,-y,1/2+z
1/2+x,1/2-y,-z
-x,1/2+y,1/2-z
1/2-x,1/2-y,1/2-z
1/2+x,y,1/2-z
1/2-x,1/2+y,z
x,1/2-y,1/2+z
loop_
_atom_site_type_symbol
_atom_site_label
_atom_site_fract_x
_atom_site_fract_y
_atom_site_fract_z
Si Si1 0.431923 0.332474 0.463163
Si Si2 0.689481 0.166968 0.099884
Si Si3 0.000000 0.750000 0.553299
Si Si4 0.028034 0.487293 0.872128
Si Si5 0.043891 0.636770 0.211010
Si Si6 0.383989 0.898020 0.801291
Si Si7 0.866176 0.916297 0.496864
Si Si8 0.727544 0.451357 0.058182
O O1 0.467895 0.359376 0.515404
O O2 0.465625 0.363868 0.407896
O O3 0.410083 0.166995 0.462422
O O4 0.385257 0.440946 0.470338
O O5 0.661728 0.122268 0.156340
O O6 0.715870 0.325036 0.102821
O O7 0.731207 0.045914 0.089238
O O8 0.653140 0.185877 0.046763
O O9 0.039349 0.651593 0.587991
O O10 0.070155 0.494220 0.825215
O O11 0.973098 0.445371 0.846434
O O12 0.053053 0.500000 0.250000
O O13 0.095150 0.732426 0.209918
O O14 0.000000 0.750000 0.230656
O O15 0.365422 0.000000 0.750000
O O16 0.822167 0.952876 0.453718
O O17 0.750000 0.389439 0.000000
#
# Coordination Sequence:
#
# PCOD8296268 Si02
#       8
#    16  16   8  16  16  16  16  16
#     4  12  23  37  55  93 138 177 211 250 302 376
#     4  11  22  41  64  93 127 161 207 271 328 380
#     4  12  22  38  52  92 136 178 202 244 306 372
#     4  11  21  38  61  84 129 173 211 255 312 360
#     4  10  21  42  66  90 119 164 225 276 312 371
#     4  11  23  44  67  88 117 163 216 274 333 381
#     4  11  22  37  63  91 133 173 217 249 301 382
#     4  10  22  38  65  98 127 166 213 258 314 399
#
# _framework density 20.473374
#
# number of rings (size 3 to 8) (size 9 to 14) (size 15 to 20)
#    0.000    1.067    6.000    3.200    1.867    0.000 
#    3.600    2.000    0.000    0.000    0.000    0.000 
#    0.000    0.000    0.000    0.000    0.000    0.000 
#
# Total GULP energy -743463.879923 kJ/mol
# GULP energy per Si atom -12391.064665 kJ/mol
# Density = 2.042678 g / cm^3
# Si number density = 20.473374 Si / 1000 Ang^3
#
#
#
# Elastic Constant Matrix: (Units=GPa)
#
#
# Indices 1 2 3 4 5 6 
#
# 1 87.7936 44.1631 44.6817 0.0000 0.0000 0.0000
# 2 44.1631 93.8083 60.5892 0.0000 0.0000 0.0000
# 3 44.6817 60.5892 114.4301 0.0000 0.0000 0.0000
# 4 0.0000 0.0000 0.0000 37.9364 0.0000 0.0000
# 5 0.0000 0.0000 0.0000 0.0000 27.4027 0.0000
# 6 0.0000 0.0000 0.0000 0.0000 0.0000 29.6061
#
#
#
# Elastic Compliance Matrix: (Units=1/GPa)
#
#
# Indices 1 2 3 4 5 6 
#
# 1 0.015739 -0.005228 -0.003377 0.000000 0.000000 0.000000
# 2 -0.005228 0.017937 -0.007456 0.000000 0.000000 0.000000
# 3 -0.003377 -0.007456 0.014006 0.000000 0.000000 0.000000
# 4 0.000000 0.000000 0.000000 0.026360 0.000000 0.000000
# 5 0.000000 0.000000 0.000000 0.000000 0.036493 0.000000
# 6 0.000000 0.000000 0.000000 0.000000 0.000000 0.033777
#
#
# Mechanical properties :
#
#
# Convention : Reuss Voigt Hill
#
# Bulk Modulus (GPa) = 64.27323 66.10002 65.18663
# Shear Modulus (GPa) = 27.52984 28.76222 28.14603
#
# Velocity S-wave (km/s) = 3.67095 3.75221 3.71180
# Velocity P-wave (km/s) = 7.03061 7.15039 7.09075
#
# Compressibility (1/GPa) = 0.01555858
#
# Stress axis : x y z
#
# Youngs Moduli (GPa) = 63.53527 55.75035 71.40020
#
# Poissons Ratio (x) = 0.29148 0.24115
# Poissons Ratio (y) = 0.33218 0.53236
# Poissons Ratio (z) = 0.21458 0.41567
#
# Static dielectric constant tensor:
#      x y z
#    x 3.710600 0.000000 0.000000 
#    y 0.000000 3.719040 0.000000 
#    z 0.000000 0.000000 3.698820 
# 
# 
# High freq. dielectric constant tensor:
#      x y z
#    x 1.790040 0.000000 0.000000 
#    y 0.000000 1.805780 0.000000 
#    z 0.000000 0.000000 1.774860 
# 
# From -- ./inp_files/30535.got.cif
#   From: 2010.03.12/outbox.cif.g09.slc.cpg/sg73_16_cif.got.tgz:30535.got - 2010.04.16 15:25:48.
