data_PCOD8296371
_publ_section_title
;
Structure prediction by ZEFSAII (Michael W. Deem and Ramdas Pophale) SiO2 
 PCOD8296371
Probable space group: I B C A 
;
_chemical_formula_sum "Si O2"
_cell_formula_units_Z 96
_cell_length_a 8.454218
_cell_length_b 27.409474
_cell_length_c 17.278941
_cell_angle_alpha 90.000000
_cell_angle_beta 90.000000
_cell_angle_gamma 90.000000
_cell_volume 4003.974154
_symmetry_space_group_name_H-M "I B C A "
_symmetry_group_IT_number 73
_symmetry_cell_setting 'orthorhombic'
loop_
_space_group_symop_operation_xyz
x,y,z
-x,1/2-y,z
x,-y,1/2-z
1/2-x,y,-z
-x,-y,-z
x,1/2+y,-z
-x,y,1/2+z
1/2+x,-y,z
1/2+x,1/2+y,1/2+z
1/2-x,-y,1/2+z
1/2+x,1/2-y,-z
-x,1/2+y,1/2-z
1/2-x,1/2-y,1/2-z
1/2+x,y,1/2-z
1/2-x,1/2+y,z
x,1/2-y,1/2+z
loop_
_atom_site_type_symbol
_atom_site_label
_atom_site_fract_x
_atom_site_fract_y
_atom_site_fract_z
Si Si1 0.158938 0.778867 0.595189
Si Si2 0.223096 0.976906 0.833770
Si Si3 0.611168 0.387959 0.725387
Si Si4 0.750000 0.633899 0.500000
Si Si5 0.500000 0.750000 0.120625
Si Si6 0.102886 0.066024 0.115889
Si Si7 0.363476 0.318320 0.757888
O O1 0.148917 0.832854 0.559366
O O2 0.335867 0.757321 0.570110
O O3 0.166843 0.779362 0.689147
O O4 0.000000 0.750000 0.568493
O O5 0.359869 0.935339 0.827512
O O6 0.075979 0.951152 0.873360
O O7 0.178141 0.000000 0.750000
O O8 0.286848 0.018267 0.890979
O O9 0.658324 0.401606 0.812514
O O10 0.431407 0.369420 0.722307
O O11 0.704071 0.337931 0.701323
O O12 0.620096 0.599452 0.540427
O O13 0.523048 0.702905 0.175524
#
# Coordination Sequence:
#
# PCOD8296371 Si02
#       7
#    16  16  16   8   8  16  16
#     4  12  27  47  71 100 141 188 235 287 349 420
#     4  10  22  39  68 102 132 171 222 287 359 405
#     4  11  21  36  67 103 133 167 215 287 354 407
#     4  12  28  48  66  92 140 192 240 276 330 418
#     4  12  24  44  74 108 136 172 230 308 372 410
#     4  11  23  42  65  94 136 181 225 280 338 412
#     4  12  20  39  67 105 136 169 219 288 361 413
#
# _framework density 23.976178000000001
#
# number of rings (size 3 to 8) (size 9 to 14) (size 15 to 20)
#    0.000    0.667    5.833    3.000    3.500    0.667 
#    0.000    0.000    3.667    0.000    0.000    0.000 
#    0.000    0.000    0.000    0.000    0.000    0.000 
#
# Total GULP energy -594918.184777 kJ/mol
# GULP energy per Si atom -12394.128850 kJ/mol
# Density = 2.392161 g / cm^3
# Si number density = 23.976178 Si / 1000 Ang^3
#
#
#
# Elastic Constant Matrix: (Units=GPa)
#
#
# Indices 1 2 3 4 5 6 
#
# 1 110.9245 35.4035 14.6766 0.0002 -0.0001 0.0000
# 2 35.4035 97.4576 16.7764 0.0002 -0.0001 0.0001
# 3 14.6766 16.7764 27.0104 0.0007 -0.0005 0.0002
# 4 0.0002 0.0002 0.0007 38.5440 -0.0001 0.0001
# 5 -0.0001 -0.0001 -0.0005 -0.0001 21.6162 0.0000
# 6 0.0000 0.0001 0.0002 0.0001 0.0000 40.9006
#
#
#
# Elastic Compliance Matrix: (Units=1/GPa)
#
#
# Indices 1 2 3 4 5 6 
#
# 1 0.010525 -0.003179 -0.003745 0.000000 0.000000 0.000000
# 2 -0.003179 0.012449 -0.006005 0.000000 0.000000 0.000000
# 3 -0.003745 -0.006005 0.042787 -0.000001 0.000001 0.000000
# 4 0.000000 0.000000 -0.000001 0.025944 0.000000 0.000000
# 5 0.000000 0.000000 0.000001 0.000000 0.046262 0.000000
# 6 0.000000 0.000000 0.000000 0.000000 0.000000 0.024450
#
#
# Mechanical properties :
#
#
# Convention : Reuss Voigt Hill
#
# Bulk Modulus (GPa) = 25.05978 41.01174 33.03576
# Shear Modulus (GPa) = 24.80452 31.44790 28.12621
#
# Velocity S-wave (km/s) = 3.21993 3.62557 3.42876
# Velocity P-wave (km/s) = 4.92936 5.88801 5.42988
#
# Compressibility (1/GPa) = 0.03990458
#
# Stress axis : x y z
#
# Youngs Moduli (GPa) = 95.01004 80.32523 23.37145
#
# Poissons Ratio (x) = 0.25535 0.08752
# Poissons Ratio (y) = 0.30203 0.14035
# Poissons Ratio (z) = 0.35578 0.48236
#
# Static dielectric constant tensor:
#      x y z
#    x 4.262420 0.000000 0.000000 
#    y 0.000000 4.537700 0.000000 
#    z 0.000000 0.000000 3.956340 
# 
# 
# High freq. dielectric constant tensor:
#      x y z
#    x 1.962040 0.000000 0.000000 
#    y 0.000000 1.969190 0.000000 
#    z 0.000000 0.000000 1.907830 
# 
# From -- ./inp_files/7860.got.cif
#   From: 2010.03.12/outbox.cif.g09.slc.cpg/sg73_4_cif.got.tgz:7860.got - 2010.04.16 15:25:48.
