data_PCOD8296472
_publ_section_title
;
Structure prediction by ZEFSAII (Michael W. Deem and Ramdas Pophale) SiO2 
 PCOD8296472
Probable space group: I B C A 
;
_chemical_formula_sum "Si O2"
_cell_formula_units_Z 88
_cell_length_a 21.963961
_cell_length_b 11.591914
_cell_length_c 13.068630
_cell_angle_alpha 90.000000
_cell_angle_beta 90.000000
_cell_angle_gamma 90.000000
_cell_volume 3327.330007
_symmetry_space_group_name_H-M "I B C A "
_symmetry_group_IT_number 73
_symmetry_cell_setting 'orthorhombic'
loop_
_space_group_symop_operation_xyz
x,y,z
-x,1/2-y,z
x,-y,1/2-z
1/2-x,y,-z
-x,-y,-z
x,1/2+y,-z
-x,y,1/2+z
1/2+x,-y,z
1/2+x,1/2+y,1/2+z
1/2-x,-y,1/2+z
1/2+x,1/2-y,-z
-x,1/2+y,1/2-z
1/2-x,1/2-y,1/2-z
1/2+x,y,1/2-z
1/2-x,1/2+y,z
x,1/2-y,1/2+z
loop_
_atom_site_type_symbol
_atom_site_label
_atom_site_fract_x
_atom_site_fract_y
_atom_site_fract_z
Si Si1 0.500000 0.250000 0.469595
Si Si2 0.974853 0.985811 0.364725
Si Si3 0.158414 0.251243 0.204437
Si Si4 0.914166 0.158527 0.880483
Si Si5 0.260687 0.406041 0.663496
Si Si6 0.646078 0.455990 0.452563
O O1 0.497904 0.141054 0.394317
O O2 0.560749 0.242099 0.542850
O O3 0.916766 0.024927 0.433690
O O4 0.951253 0.000000 0.250000
O O5 0.030211 0.070495 0.382647
O O6 0.100253 0.196945 0.264320
O O7 0.197727 0.301110 0.298264
O O8 0.194825 0.151646 0.140165
O O9 0.139214 0.350388 0.127824
O O10 0.854127 0.096255 0.932032
O O11 0.251320 0.500000 0.750000
O O12 0.293562 0.466511 0.565519
#
# Coordination Sequence:
#
# PCOD8296472 Si02
#       6
#     8  16  16  16  16  16
#     4  10  24  42  66 106 152 190 246 286 368 458
#     4  11  25  42  70 109 148 195 239 295 378 451
#     4  10  22  42  72 100 135 189 239 298 368 430
#     4  11  26  41  71 108 150 186 245 299 369 451
#     4   9  20  43  69  94 130 179 242 294 344 427
#     4  10  22  46  71 102 145 192 238 301 375 432
#
# _framework density 26.447633
#
# number of rings (size 3 to 8) (size 9 to 14) (size 15 to 20)
#    0.000    1.818    0.000    3.818   12.727    0.727 
#    0.000   11.818    0.000    0.000    0.000    0.000 
#    0.000    0.000    0.000    0.000    0.000    0.000 
#
# Total GULP energy -545218.892433 kJ/mol
# GULP energy per Si atom -12391.338464 kJ/mol
# Density = 2.638744 g / cm^3
# Si number density = 26.447633 Si / 1000 Ang^3
#
#
#
# Elastic Constant Matrix: (Units=GPa)
#
#
# Indices 1 2 3 4 5 6 
#
# 1 105.3400 50.1880 24.4332 0.0000 0.0000 0.0000
# 2 50.1880 110.3453 17.0359 0.0000 0.0000 0.0000
# 3 24.4332 17.0359 68.0975 0.0000 0.0000 0.0000
# 4 0.0000 0.0000 0.0000 19.5967 0.0000 0.0000
# 5 0.0000 0.0000 0.0000 0.0000 42.8508 0.0000
# 6 0.0000 0.0000 0.0000 0.0000 0.0000 39.5070
#
#
#
# Elastic Compliance Matrix: (Units=1/GPa)
#
#
# Indices 1 2 3 4 5 6 
#
# 1 0.012778 -0.005309 -0.003257 0.000000 0.000000 0.000000
# 2 -0.005309 0.011632 -0.001005 0.000000 0.000000 0.000000
# 3 -0.003257 -0.001005 0.016105 0.000000 0.000000 0.000000
# 4 0.000000 0.000000 0.000000 0.051029 0.000000 0.000000
# 5 0.000000 0.000000 0.000000 0.000000 0.023337 0.000000
# 6 0.000000 0.000000 0.000000 0.000000 0.000000 0.025312
#
#
# Mechanical properties :
#
#
# Convention : Reuss Voigt Hill
#
# Bulk Modulus (GPa) = 46.78685 51.89966 49.34326
# Shear Modulus (GPa) = 30.03758 33.19931 31.61844
#
# Velocity S-wave (km/s) = 3.37373 3.54684 3.46137
# Velocity P-wave (km/s) = 5.73627 6.03652 5.88831
#
# Compressibility (1/GPa) = 0.02137353
#
# Stress axis : x y z
#
# Youngs Moduli (GPa) = 78.26088 85.96761 62.09362
#
# Poissons Ratio (x) = 0.45639 0.20221
# Poissons Ratio (y) = 0.41548 0.06242
# Poissons Ratio (z) = 0.25486 0.08642
#
# Static dielectric constant tensor:
#      x y z
#    x 4.964100 0.000000 0.000000 
#    y 0.000000 5.131680 0.000000 
#    z 0.000000 0.000000 5.144540 
# 
# 
# High freq. dielectric constant tensor:
#      x y z
#    x 2.060190 0.000000 0.000000 
#    y 0.000000 2.067220 0.000000 
#    z 0.000000 0.000000 2.051300 
# 
# From -- ./inp_files/19272.got.cif
#   From: 2010.03.12/outbox.cif.g09.slc.cpg/sg73_10_cif.got.tgz:19272.got - 2010.04.16 15:25:48.
