data_PCOD8296304
_publ_section_title
;
Structure prediction by ZEFSAII (Michael W. Deem and Ramdas Pophale) SiO2 
 PCOD8296304
Probable space group: I B C A 
;
_chemical_formula_sum "Si O2"
_cell_formula_units_Z 72
_cell_length_a 15.431288
_cell_length_b 9.002430
_cell_length_c 23.656199
_cell_angle_alpha 90.000000
_cell_angle_beta 90.000000
_cell_angle_gamma 90.000000
_cell_volume 3286.297639
_symmetry_space_group_name_H-M "I B C A "
_symmetry_group_IT_number 73
_symmetry_cell_setting 'orthorhombic'
loop_
_space_group_symop_operation_xyz
x,y,z
-x,1/2-y,z
x,-y,1/2-z
1/2-x,y,-z
-x,-y,-z
x,1/2+y,-z
-x,y,1/2+z
1/2+x,-y,z
1/2+x,1/2+y,1/2+z
1/2-x,-y,1/2+z
1/2+x,1/2-y,-z
-x,1/2+y,1/2-z
1/2-x,1/2-y,1/2-z
1/2+x,y,1/2-z
1/2-x,1/2+y,z
x,1/2-y,1/2+z
loop_
_atom_site_type_symbol
_atom_site_label
_atom_site_fract_x
_atom_site_fract_y
_atom_site_fract_z
Si Si1 0.350617 0.171630 0.696490
Si Si2 0.857402 0.107382 0.454959
Si Si3 0.500000 0.750000 0.380650
Si Si4 0.677279 0.239235 0.935870
Si Si5 0.190134 0.855587 0.320427
O O1 0.439239 0.161095 0.662175
O O2 0.290827 0.311634 0.683478
O O3 0.366991 0.173776 0.764157
O O4 0.297514 0.031046 0.673267
O O5 0.875099 0.156137 0.520003
O O6 0.778831 0.213941 0.435145
O O7 0.944027 0.137710 0.419026
O O8 0.832616 0.934089 0.451303
O O9 0.641627 0.276411 0.873143
#
# Coordination Sequence:
#
# PCOD8296304 Si02
#       5
#    16  16   8  16  16
#     4  10  23  43  70 100 133 173 224 276 339 389
#     4  11  25  41  72  98 136 176 228 279 337 390
#     4  12  26  44  62 102 146 166 210 302 340 378
#     4  11  22  44  71  98 126 187 234 265 322 426
#     4  10  21  44  73  96 126 181 230 263 320 429
#
# _framework density 21.909153
#
# number of rings (size 3 to 8) (size 9 to 14) (size 15 to 20)
#    0.000    1.333    2.222    4.000    3.111    0.889 
#    8.000    0.000    0.000    0.000    0.000    0.000 
#    0.000    0.000    0.000    0.000    0.000    0.000 
#
# Total GULP energy -446146.177732 kJ/mol
# GULP energy per Si atom -12392.949381 kJ/mol
# Density = 2.185929 g / cm^3
# Si number density = 21.909153 Si / 1000 Ang^3
#
#
#
# Elastic Constant Matrix: (Units=GPa)
#
#
# Indices 1 2 3 4 5 6 
#
# 1 102.7425 57.3649 67.9835 0.0000 0.0000 0.0000
# 2 57.3649 181.6517 76.6946 0.0000 0.0000 0.0000
# 3 67.9835 76.6946 186.1947 0.0000 0.0000 0.0000
# 4 0.0000 0.0000 0.0000 26.1982 0.0000 0.0000
# 5 0.0000 0.0000 0.0000 0.0000 48.1087 0.0000
# 6 0.0000 0.0000 0.0000 0.0000 0.0000 11.3750
#
#
#
# Elastic Compliance Matrix: (Units=1/GPa)
#
#
# Indices 1 2 3 4 5 6 
#
# 1 0.013855 -0.002711 -0.003942 0.000000 0.000000 0.000000
# 2 -0.002711 0.007194 -0.001974 0.000000 0.000000 0.000000
# 3 -0.003942 -0.001974 0.007623 0.000000 0.000000 0.000000
# 4 0.000000 0.000000 0.000000 0.038171 0.000000 0.000000
# 5 0.000000 0.000000 0.000000 0.000000 0.020786 0.000000
# 6 0.000000 0.000000 0.000000 0.000000 0.000000 0.087912
#
#
# Mechanical properties :
#
#
# Convention : Reuss Voigt Hill
#
# Bulk Modulus (GPa) = 87.57202 97.18608 92.37905
# Shear Modulus (GPa) = 25.43219 35.03944 30.23582
#
# Velocity S-wave (km/s) = 3.41075 4.00347 3.71894
# Velocity P-wave (km/s) = 7.45441 8.11328 7.79081
#
# Compressibility (1/GPa) = 0.01141917
#
# Stress axis : x y z
#
# Youngs Moduli (GPa) = 72.17504 138.99649 131.18194
#
# Poissons Ratio (x) = 0.37682 0.51714
# Poissons Ratio (y) = 0.19567 0.25890
# Poissons Ratio (z) = 0.28452 0.27432
#
# Static dielectric constant tensor:
#      x y z
#    x 3.552270 0.000000 0.000000 
#    y 0.000000 3.910160 0.000000 
#    z 0.000000 0.000000 4.744220 
# 
# 
# High freq. dielectric constant tensor:
#      x y z
#    x 1.818370 0.000000 0.000000 
#    y 0.000000 1.864530 0.000000 
#    z 0.000000 0.000000 1.896390 
# 
# From -- ./inp_files/31062.got.cif
#   From: 2010.03.12/outbox.cif.g09.slc.cpg/sg73_16_cif.got.tgz:31062.got - 2010.04.16 15:25:48.
