data_PCOD8296833
_publ_section_title
;
Structure prediction by ZEFSAII (Michael W. Deem and Ramdas Pophale) SiO2 
 PCOD8296833
Probable space group: I B C A 
;
_chemical_formula_sum "Si O2"
_cell_formula_units_Z 96
_cell_length_a 14.538864
_cell_length_b 22.132738
_cell_length_c 14.437098
_cell_angle_alpha 90.000000
_cell_angle_beta 90.000000
_cell_angle_gamma 90.000000
_cell_volume 4645.639670
_symmetry_space_group_name_H-M "I B C A "
_symmetry_group_IT_number 73
_symmetry_cell_setting 'orthorhombic'
loop_
_space_group_symop_operation_xyz
x,y,z
-x,1/2-y,z
x,-y,1/2-z
1/2-x,y,-z
-x,-y,-z
x,1/2+y,-z
-x,y,1/2+z
1/2+x,-y,z
1/2+x,1/2+y,1/2+z
1/2-x,-y,1/2+z
1/2+x,1/2-y,-z
-x,1/2+y,1/2-z
1/2-x,1/2-y,1/2-z
1/2+x,y,1/2-z
1/2-x,1/2+y,z
x,1/2-y,1/2+z
loop_
_atom_site_type_symbol
_atom_site_label
_atom_site_fract_x
_atom_site_fract_y
_atom_site_fract_z
Si Si1 0.886564 0.114192 0.652669
Si Si2 0.516629 0.606979 0.319003
Si Si3 0.916438 0.487050 0.434120
Si Si4 0.514176 0.179340 0.498420
Si Si5 0.288824 0.070518 0.245315
Si Si6 0.832895 0.890930 0.449454
O O1 0.898503 0.160655 0.566274
O O2 0.787045 0.116467 0.701906
O O3 0.971376 0.129262 0.722605
O O4 0.882800 0.047772 0.610805
O O5 0.445081 0.556605 0.351071
O O6 0.527053 0.660455 0.394411
O O7 0.615989 0.575987 0.310015
O O8 0.838744 0.454747 0.495417
O O9 0.000000 0.500000 0.500000
O O10 0.500000 0.250000 0.493834
O O11 0.426897 0.145641 0.454838
O O12 0.306254 0.097080 0.345427
O O13 0.257731 0.000000 0.250000
O O14 0.750000 0.854189 0.500000
#
# Coordination Sequence:
#
# PCOD8296833 Si02
#       6
#    16  16  16  16  16  16
#     4  12  23  42  67  99 135 174 223 277 341 414
#     4  11  22  41  66  95 133 170 225 277 343 408
#     4  11  19  37  65  95 136 174 204 267 343 416
#     4  11  26  48  67  88 132 186 234 288 334 386
#     4  12  23  37  66 107 139 169 212 276 351 422
#     4  11  22  42  66  97 133 175 222 270 336 416
#
# _framework density 20.664539999999999
#
# number of rings (size 3 to 8) (size 9 to 14) (size 15 to 20)
#    0.000    0.667    5.000    6.500    0.000    1.333 
#    3.000    0.833    0.000    0.000    0.000    0.000 
#    0.000    0.000    0.000    0.000    0.000    0.000 
#
# Total GULP energy -595021.964072 kJ/mol
# GULP energy per Si atom -12396.290918 kJ/mol
# Density = 2.061751 g / cm^3
# Si number density = 20.664540 Si / 1000 Ang^3
#
#
#
# Elastic Constant Matrix: (Units=GPa)
#
#
# Indices 1 2 3 4 5 6 
#
# 1 87.2623 15.9440 23.2497 0.0001 0.0000 0.0000
# 2 15.9440 110.5369 48.3307 0.0003 0.0000 0.0000
# 3 23.2497 48.3307 107.8267 0.0004 0.0001 0.0000
# 4 0.0001 0.0003 0.0004 12.9268 0.0000 0.0000
# 5 0.0000 0.0000 0.0001 0.0000 46.9461 0.0000
# 6 0.0000 0.0000 0.0000 0.0000 0.0000 9.0092
#
#
#
# Elastic Compliance Matrix: (Units=1/GPa)
#
#
# Indices 1 2 3 4 5 6 
#
# 1 0.012209 -0.000759 -0.002292 0.000000 0.000000 0.000000
# 2 -0.000759 0.011299 -0.004901 0.000000 0.000000 0.000000
# 3 -0.002292 -0.004901 0.011965 0.000000 0.000000 0.000000
# 4 0.000000 0.000000 0.000000 0.077358 0.000000 0.000000
# 5 0.000000 0.000000 0.000000 0.000000 0.021301 0.000000
# 6 0.000000 0.000000 0.000000 0.000000 0.000000 0.110997
#
#
# Mechanical properties :
#
#
# Convention : Reuss Voigt Hill
#
# Bulk Modulus (GPa) = 51.10093 53.40831 52.25462
# Shear Modulus (GPa) = 18.68758 28.31653 23.50205
#
# Velocity S-wave (km/s) = 3.01047 3.70577 3.37607
# Velocity P-wave (km/s) = 6.07177 6.64919 6.36703
#
# Compressibility (1/GPa) = 0.01956912
#
# Stress axis : x y z
#
# Youngs Moduli (GPa) = 81.90596 88.50297 83.57591
#
# Poissons Ratio (x) = 0.06715 0.19160
# Poissons Ratio (y) = 0.06214 0.40960
# Poissons Ratio (z) = 0.18777 0.43375
#
# Static dielectric constant tensor:
#      x y z
#    x 3.793760 0.000000 0.000000 
#    y 0.000000 3.403220 0.000000 
#    z 0.000000 0.000000 4.122660 
# 
# 
# High freq. dielectric constant tensor:
#      x y z
#    x 1.819490 0.000000 0.000000 
#    y 0.000000 1.762100 0.000000 
#    z 0.000000 0.000000 1.836870 
# 
# From -- ./inp_files/17002.got.cif
#   From: 2010.03.12/outbox.cif.g09.slc.cpg/sg73_9_cif.got.tgz:17002.got - 2010.04.16 15:25:48.
