data_PCOD8296916
_publ_section_title
;
Structure prediction by ZEFSAII (Michael W. Deem and Ramdas Pophale) SiO2 
 PCOD8296916
Probable space group: I B C A 
;
_chemical_formula_sum "Si O2"
_cell_formula_units_Z 96
_cell_length_a 14.292537
_cell_length_b 13.761830
_cell_length_c 20.856685
_cell_angle_alpha 90.000000
_cell_angle_beta 90.000000
_cell_angle_gamma 90.000000
_cell_volume 4102.331916
_symmetry_space_group_name_H-M "I B C A "
_symmetry_group_IT_number 73
_symmetry_cell_setting 'orthorhombic'
loop_
_space_group_symop_operation_xyz
x,y,z
-x,1/2-y,z
x,-y,1/2-z
1/2-x,y,-z
-x,-y,-z
x,1/2+y,-z
-x,y,1/2+z
1/2+x,-y,z
1/2+x,1/2+y,1/2+z
1/2-x,-y,1/2+z
1/2+x,1/2-y,-z
-x,1/2+y,1/2-z
1/2-x,1/2-y,1/2-z
1/2+x,y,1/2-z
1/2-x,1/2+y,z
x,1/2-y,1/2+z
loop_
_atom_site_type_symbol
_atom_site_label
_atom_site_fract_x
_atom_site_fract_y
_atom_site_fract_z
Si Si1 0.102393 0.266123 0.498445
Si Si2 0.360698 0.737870 0.739225
Si Si3 0.131623 0.893237 0.098549
Si Si4 0.992220 0.399962 0.284394
Si Si5 0.831249 0.853504 0.390350
Si Si6 0.606431 0.513552 0.482018
O O1 0.097804 0.205951 0.433331
O O2 0.175077 0.224010 0.550957
O O3 0.131878 0.373804 0.477415
O O4 0.000000 0.250000 0.530893
O O5 0.250000 0.750000 0.750000
O O6 0.411168 0.842075 0.745573
O O7 0.411900 0.663856 0.789333
O O8 0.386033 0.692730 0.669428
O O9 0.047471 0.926174 0.144909
O O10 0.227048 0.873259 0.137014
O O11 0.161379 0.970558 0.043464
O O12 0.016604 0.500000 0.250000
O O13 0.874724 0.955192 0.415949
O O14 0.500000 0.500000 0.500000
#
# Coordination Sequence:
#
# PCOD8296916 Si02
#       6
#    16  16  16  16  16  16
#     4  11  23  39  72 102 139 187 235 299 376 432
#     4  11  26  50  74 106 143 196 251 306 377 445
#     4  11  25  46  67 104 145 186 240 295 365 446
#     4  11  28  47  76 106 145 192 249 308 375 446
#     4  11  25  45  68 104 148 182 244 307 358 454
#     4  11  23  40  70 108 139 186 241 296 378 434
#
# _framework density 23.401323999999999
#
# number of rings (size 3 to 8) (size 9 to 14) (size 15 to 20)
#    0.000    1.000    5.000    2.000    9.333    3.333 
#    0.000    0.000    0.000    0.000    0.000    0.000 
#    0.000    0.000    0.000    0.000    0.000    0.000 
#
# Total GULP energy -595020.983691 kJ/mol
# GULP energy per Si atom -12396.270494 kJ/mol
# Density = 2.334806 g / cm^3
# Si number density = 23.401324 Si / 1000 Ang^3
#
#
#
# Elastic Constant Matrix: (Units=GPa)
#
#
# Indices 1 2 3 4 5 6 
#
# 1 114.4559 12.6089 5.2122 0.0000 0.0000 0.0000
# 2 12.6089 165.8384 29.4441 0.0000 0.0000 0.0000
# 3 5.2122 29.4441 94.6650 0.0000 0.0000 0.0000
# 4 0.0000 0.0000 0.0000 29.1881 0.0000 0.0000
# 5 0.0000 0.0000 0.0000 0.0000 30.5565 0.0000
# 6 0.0000 0.0000 0.0000 0.0000 0.0000 26.1246
#
#
#
# Elastic Compliance Matrix: (Units=1/GPa)
#
#
# Indices 1 2 3 4 5 6 
#
# 1 0.008818 -0.000618 -0.000293 0.000000 0.000000 0.000000
# 2 -0.000618 0.006426 -0.001965 0.000000 0.000000 0.000000
# 3 -0.000293 -0.001965 0.011191 0.000000 0.000000 0.000000
# 4 0.000000 0.000000 0.000000 0.034261 0.000000 0.000000
# 5 0.000000 0.000000 0.000000 0.000000 0.032726 0.000000
# 6 0.000000 0.000000 0.000000 0.000000 0.000000 0.038278
#
#
# Mechanical properties :
#
#
# Convention : Reuss Voigt Hill
#
# Bulk Modulus (GPa) = 48.34980 52.16554 50.25767
# Shear Modulus (GPa) = 34.63884 39.02010 36.82947
#
# Velocity S-wave (km/s) = 3.85152 4.08785 3.97144
# Velocity P-wave (km/s) = 6.36278 6.67988 6.52326
#
# Compressibility (1/GPa) = 0.02068261
#
# Stress axis : x y z
#
# Youngs Moduli (GPa) = 113.39836 155.62277 89.35935
#
# Poissons Ratio (x) = 0.09624 0.02620
# Poissons Ratio (y) = 0.07013 0.17556
# Poissons Ratio (z) = 0.03325 0.30574
#
# Static dielectric constant tensor:
#      x y z
#    x 4.362490 0.000000 0.000000 
#    y 0.000000 3.748590 0.000000 
#    z 0.000000 0.000000 4.561600 
# 
# 
# High freq. dielectric constant tensor:
#      x y z
#    x 1.935370 0.000000 0.000000 
#    y 0.000000 1.927180 0.000000 
#    z 0.000000 0.000000 1.914450 
# 
# From -- ./inp_files/18612.got.cif
#   From: 2010.03.12/outbox.cif.g09.slc.cpg/sg73_10_cif.got.tgz:18612.got - 2010.04.16 15:25:48.
