data_PCOD8296897
_publ_section_title
;
Structure prediction by ZEFSAII (Michael W. Deem and Ramdas Pophale) SiO2 
 PCOD8296897
Probable space group: I B C A 
;
_chemical_formula_sum "Si O2"
_cell_formula_units_Z 120
_cell_length_a 17.807115
_cell_length_b 17.437260
_cell_length_c 16.407068
_cell_angle_alpha 90.000000
_cell_angle_beta 90.000000
_cell_angle_gamma 90.000000
_cell_volume 5094.514289
_symmetry_space_group_name_H-M "I B C A "
_symmetry_group_IT_number 73
_symmetry_cell_setting 'orthorhombic'
loop_
_space_group_symop_operation_xyz
x,y,z
-x,1/2-y,z
x,-y,1/2-z
1/2-x,y,-z
-x,-y,-z
x,1/2+y,-z
-x,y,1/2+z
1/2+x,-y,z
1/2+x,1/2+y,1/2+z
1/2-x,-y,1/2+z
1/2+x,1/2-y,-z
-x,1/2+y,1/2-z
1/2-x,1/2-y,1/2-z
1/2+x,y,1/2-z
1/2-x,1/2+y,z
x,1/2-y,1/2+z
loop_
_atom_site_type_symbol
_atom_site_label
_atom_site_fract_x
_atom_site_fract_y
_atom_site_fract_z
Si Si1 0.589650 0.168068 0.294646
Si Si2 0.514735 0.072895 0.702507
Si Si3 0.020801 0.337193 0.541087
Si Si4 0.250000 0.281073 0.000000
Si Si5 0.876240 0.568079 0.562650
Si Si6 0.864928 0.897790 0.463911
Si Si7 0.138177 0.835849 0.787264
Si Si8 0.748656 0.663081 0.351685
O O1 0.554470 0.134248 0.209834
O O2 0.528417 0.146458 0.363029
O O3 0.589166 0.259552 0.295381
O O4 0.670342 0.132834 0.320711
O O5 0.545142 0.054632 0.612171
O O6 0.591468 0.099414 0.743261
O O7 0.482569 0.000000 0.750000
O O8 0.099660 0.364437 0.500178
O O9 0.000000 0.250000 0.518462
O O10 0.951671 0.388767 0.513176
O O11 0.318760 0.339103 0.020908
O O12 0.261871 0.230791 0.917870
O O13 0.849510 0.488265 0.521633
O O14 0.801780 0.596263 0.609142
O O15 0.839072 0.871515 0.373602
O O16 0.208562 0.809722 0.731676
#
# Coordination Sequence:
#
# PCOD8296897 Si02
#       8
#    16  16  16   8  16  16  16  16
#     4  12  22  41  71  97 132 180 237 283 343 417
#     4  11  22  42  66  96 131 174 225 282 339 413
#     4  12  22  42  71  99 133 181 230 285 349 413
#     4  12  26  44  72 102 140 180 242 284 348 430
#     4  11  26  43  68  98 144 176 228 287 358 414
#     4  12  24  45  70  98 138 190 221 289 355 418
#     4  11  22  43  71  90 135 185 228 279 355 402
#     4  11  25  43  66 101 137 179 227 295 344 418
#
# _framework density 23.554748
#
# number of rings (size 3 to 8) (size 9 to 14) (size 15 to 20)
#    0.000    0.533    5.333    2.800    0.000    4.800 
#    2.400    0.000    0.000    0.000    0.000    0.000 
#    0.000    0.000    0.000    0.000    0.000    0.000 
#
# Total GULP energy -743442.878128 kJ/mol
# GULP energy per Si atom -12390.714635 kJ/mol
# Density = 2.350114 g / cm^3
# Si number density = 23.554748 Si / 1000 Ang^3
#
#
#
# Elastic Constant Matrix: (Units=GPa)
#
#
# Indices 1 2 3 4 5 6 
#
# 1 98.5725 32.5299 3.2560 0.0000 0.0000 0.0000
# 2 32.5299 114.9931 3.8969 0.0000 0.0000 0.0000
# 3 3.2560 3.8969 38.4276 0.0000 0.0000 0.0000
# 4 0.0000 0.0000 0.0000 18.8350 0.0000 0.0000
# 5 0.0000 0.0000 0.0000 0.0000 35.6333 0.0000
# 6 0.0000 0.0000 0.0000 0.0000 0.0000 32.7646
#
#
#
# Elastic Compliance Matrix: (Units=1/GPa)
#
#
# Indices 1 2 3 4 5 6 
#
# 1 0.011205 -0.003148 -0.000630 0.000000 0.000000 0.000000
# 2 -0.003148 0.009611 -0.000708 0.000000 0.000000 0.000000
# 3 -0.000630 -0.000708 0.026148 0.000000 0.000000 0.000000
# 4 0.000000 0.000000 0.000000 0.053093 0.000000 0.000000
# 5 0.000000 0.000000 0.000000 0.000000 0.028064 0.000000
# 6 0.000000 0.000000 0.000000 0.000000 0.000000 0.030521
#
#
# Mechanical properties :
#
#
# Convention : Reuss Voigt Hill
#
# Bulk Modulus (GPa) = 26.32203 36.81765 31.56984
# Shear Modulus (GPa) = 27.73516 31.60061 29.66788
#
# Velocity S-wave (km/s) = 3.43516 3.66673 3.55283
# Velocity P-wave (km/s) = 5.18969 5.79579 5.50109
#
# Compressibility (1/GPa) = 0.03799099
#
# Stress axis : x y z
#
# Youngs Moduli (GPa) = 89.24921 104.05010 38.24368
#
# Poissons Ratio (x) = 0.32758 0.02410
# Poissons Ratio (y) = 0.28098 0.02707
# Poissons Ratio (z) = 0.05624 0.07365
#
# Static dielectric constant tensor:
#      x y z
#    x 4.262840 0.000000 0.000000 
#    y 0.000000 4.134870 0.000000 
#    z 0.000000 0.000000 4.293060 
# 
# 
# High freq. dielectric constant tensor:
#      x y z
#    x 1.942410 0.000000 0.000000 
#    y 0.000000 1.931120 0.000000 
#    z 0.000000 0.000000 1.917450 
# 
# From -- ./inp_files/22691.got.cif
#   From: 2010.03.12/outbox.cif.g09.slc.cpg/sg73_12_cif.got.tgz:22691.got - 2010.04.16 15:25:48.
