data_PCOD8296873
_publ_section_title
;
Structure prediction by ZEFSAII (Michael W. Deem and Ramdas Pophale) SiO2 
 PCOD8296873
Probable space group: I B C A 
;
_chemical_formula_sum "Si O2"
_cell_formula_units_Z 112
_cell_length_a 14.891064
_cell_length_b 13.967183
_cell_length_c 23.830016
_cell_angle_alpha 90.000000
_cell_angle_beta 90.000000
_cell_angle_gamma 90.000000
_cell_volume 4956.314854
_symmetry_space_group_name_H-M "I B C A "
_symmetry_group_IT_number 73
_symmetry_cell_setting 'orthorhombic'
loop_
_space_group_symop_operation_xyz
x,y,z
-x,1/2-y,z
x,-y,1/2-z
1/2-x,y,-z
-x,-y,-z
x,1/2+y,-z
-x,y,1/2+z
1/2+x,-y,z
1/2+x,1/2+y,1/2+z
1/2-x,-y,1/2+z
1/2+x,1/2-y,-z
-x,1/2+y,1/2-z
1/2-x,1/2-y,1/2-z
1/2+x,y,1/2-z
1/2-x,1/2+y,z
x,1/2-y,1/2+z
loop_
_atom_site_type_symbol
_atom_site_label
_atom_site_fract_x
_atom_site_fract_y
_atom_site_fract_z
Si Si1 0.648923 0.850824 0.167377
Si Si2 0.899720 0.731252 0.214982
Si Si3 0.177084 0.561492 0.197266
Si Si4 0.339168 0.162193 0.029018
Si Si5 0.652925 0.534002 0.086255
Si Si6 0.523883 0.145998 0.429544
Si Si7 0.282197 0.697800 0.381493
O O1 0.598376 0.815730 0.223499
O O2 0.717346 0.936081 0.182513
O O3 0.582708 0.898277 0.121198
O O4 0.698332 0.761433 0.138391
O O5 0.849053 0.831565 0.212990
O O6 0.844099 0.664275 0.171288
O O7 0.000000 0.750000 0.194031
O O8 0.152911 0.500000 0.250000
O O9 0.124889 0.510322 0.146416
O O10 0.350223 0.238912 0.079580
O O11 0.317945 0.054706 0.048307
O O12 0.250000 0.202166 0.000000
O O13 0.424871 0.159506 0.988535
O O14 0.565209 0.583912 0.059734
O O15 0.738551 0.605344 0.088651
O O16 0.500000 0.250000 0.406002
#
# Coordination Sequence:
#
# PCOD8296873 Si02
#       7
#    16  16  16  16  16  16  16
#     4  11  21  45  70  95 140 184 232 281 349 434
#     4  11  24  43  70 106 141 183 228 293 359 429
#     4  11  23  43  67 104 140 179 235 288 351 426
#     4  12  24  48  67 103 140 180 244 293 348 425
#     4  12  24  45  72 102 138 188 235 294 356 421
#     4  12  25  43  72 101 139 189 234 294 356 419
#     4  11  23  47  73  97 141 188 231 288 362 417
#
# _framework density 22.597435000000001
#
# number of rings (size 3 to 8) (size 9 to 14) (size 15 to 20)
#    0.000    0.571    5.714    4.286    2.000    2.286 
#    7.714    0.000    0.000    0.000    0.000    0.000 
#    0.000    0.000    0.000    0.000    0.000    0.000 
#
# Total GULP energy -694324.901323 kJ/mol
# GULP energy per Si atom -12398.658952 kJ/mol
# Density = 2.254600 g / cm^3
# Si number density = 22.597435 Si / 1000 Ang^3
#
#
#
# Elastic Constant Matrix: (Units=GPa)
#
#
# Indices 1 2 3 4 5 6 
#
# 1 94.6292 12.8805 39.5619 0.0000 0.0000 0.0000
# 2 12.8805 62.4674 24.5899 0.0000 0.0000 0.0000
# 3 39.5619 24.5899 119.4455 0.0000 0.0000 0.0000
# 4 0.0000 0.0000 0.0000 21.2389 0.0000 0.0000
# 5 0.0000 0.0000 0.0000 0.0000 34.2194 0.0000
# 6 0.0000 0.0000 0.0000 0.0000 0.0000 2737.6682
#
#
#
# Elastic Compliance Matrix: (Units=1/GPa)
#
#
# Indices 1 2 3 4 5 6 
#
# 1 0.012325 -0.001017 -0.003873 0.000000 0.000000 0.000000
# 2 -0.001017 0.017504 -0.003267 0.000000 0.000000 0.000000
# 3 -0.003873 -0.003267 0.010327 0.000000 0.000000 0.000000
# 4 0.000000 0.000000 0.000000 0.047083 0.000000 0.000000
# 5 0.000000 0.000000 0.000000 0.000000 0.029223 0.000000
# 6 0.000000 0.000000 0.000000 0.000000 0.000000 0.000365
#
#
# Mechanical properties :
#
#
# Convention : Reuss Voigt Hill
#
# Bulk Modulus (GPa) = 41.94021 47.84517 44.89269
# Shear Modulus (GPa) = 35.43867 571.92597 303.68232
#
# Velocity S-wave (km/s) = 3.96442 15.92617 11.60516
# Velocity P-wave (km/s) = 6.28932 18.95809 14.12382
#
# Compressibility (1/GPa) = 0.02384346
#
# Stress axis : x y z
#
# Youngs Moduli (GPa) = 81.13507 57.12998 96.83090
#
# Poissons Ratio (x) = 0.05809 0.37502
# Poissons Ratio (y) = 0.08250 0.31632
# Poissons Ratio (z) = 0.31423 0.18663
#
# Static dielectric constant tensor:
#      x y z
#    x 4.104540 0.000000 0.000000 
#    y 0.000000 4.229020 0.000000 
#    z 0.000000 0.000000 4.293600 
# 
# 
# High freq. dielectric constant tensor:
#      x y z
#    x 1.883230 0.000000 0.000000 
#    y 0.000000 1.881370 0.000000 
#    z 0.000000 0.000000 1.904460 
# 
# From -- ./inp_files/29520.got.cif
#   From: 2010.03.12/outbox.cif.g09.slc.cpg/sg73_15_cif.got.tgz:29520.got - 2010.04.16 15:25:48.
