data_PCOD8296544
_publ_section_title
;
Structure prediction by ZEFSAII (Michael W. Deem and Ramdas Pophale) SiO2 
 PCOD8296544
Probable space group: I B C A 
;
_chemical_formula_sum "Si O2"
_cell_formula_units_Z 120
_cell_length_a 7.677377
_cell_length_b 24.718253
_cell_length_c 31.315960
_cell_angle_alpha 90.000000
_cell_angle_beta 90.000000
_cell_angle_gamma 90.000000
_cell_volume 5942.871914
_symmetry_space_group_name_H-M "I B C A "
_symmetry_group_IT_number 73
_symmetry_cell_setting 'orthorhombic'
loop_
_space_group_symop_operation_xyz
x,y,z
-x,1/2-y,z
x,-y,1/2-z
1/2-x,y,-z
-x,-y,-z
x,1/2+y,-z
-x,y,1/2+z
1/2+x,-y,z
1/2+x,1/2+y,1/2+z
1/2-x,-y,1/2+z
1/2+x,1/2-y,-z
-x,1/2+y,1/2-z
1/2-x,1/2-y,1/2-z
1/2+x,y,1/2-z
1/2-x,1/2+y,z
x,1/2-y,1/2+z
loop_
_atom_site_type_symbol
_atom_site_label
_atom_site_fract_x
_atom_site_fract_y
_atom_site_fract_z
Si Si1 0.025258 0.686638 0.302799
Si Si2 0.709468 0.625900 0.268382
Si Si3 0.250000 0.883244 0.500000
Si Si4 0.109316 0.454442 0.878128
Si Si5 0.731475 0.435865 0.909916
Si Si6 0.092907 0.867349 0.887904
Si Si7 0.428720 0.453514 0.216948
Si Si8 0.568314 0.310477 0.476143
O O1 0.138373 0.674251 0.261019
O O2 0.121418 0.668139 0.345585
O O3 0.000000 0.750000 0.304903
O O4 0.846742 0.652502 0.300157
O O5 0.562318 0.594988 0.295082
O O6 0.769237 0.576386 0.238845
O O7 0.259232 0.921476 0.459108
O O8 0.424020 0.847247 0.500823
O O9 0.150010 0.504389 0.908953
O O10 0.249314 0.409192 0.889652
O O11 0.129133 0.476713 0.829143
O O12 0.915570 0.432286 0.885811
O O13 0.595434 0.395874 0.887011
O O14 0.102293 0.827150 0.927587
O O15 0.496347 0.500000 0.250000
O O16 0.500000 0.250000 0.477451
O O17 0.750000 0.316772 0.500000
#
# Coordination Sequence:
#
# PCOD8296544 Si02
#       8
#    16  16   8  16  16  16  16  16
#     4  11  22  42  63  86 122 165 218 268 327 381
#     4  10  23  38  60  89 121 167 213 268 318 384
#     4  10  24  46  62  98 128 166 220 254 320 394
#     4  12  24  42  61  95 133 169 214 261 323 382
#     4  11  25  40  67  91 129 170 205 261 317 393
#     4  11  24  43  65  97 128 169 213 268 322 388
#     4  11  24  36  62  91 126 168 213 261 321 385
#     4  11  22  43  73  97 129 168 212 269 327 380
#
# _framework density 20.192257000000001
#
# number of rings (size 3 to 8) (size 9 to 14) (size 15 to 20)
#    0.000    1.067    3.333    2.800    7.467    0.533 
#    1.200    0.000    0.000    0.000    0.000    0.000 
#    0.000    0.000    0.000    0.000    0.000    0.000 
#
# Total GULP energy -743995.981977 kJ/mol
# GULP energy per Si atom -12399.933033 kJ/mol
# Density = 2.014630 g / cm^3
# Si number density = 20.192257 Si / 1000 Ang^3
#
#
#
# Elastic Constant Matrix: (Units=GPa)
#
#
# Indices 1 2 3 4 5 6 
#
# 1 93.6025 24.7249 30.6442 0.0000 0.0000 0.0000
# 2 24.7249 111.2538 43.6216 0.0000 0.0001 0.0000
# 3 30.6442 43.6216 68.9096 0.0000 0.0000 0.0000
# 4 0.0000 0.0000 0.0000 80.1965 0.0001 0.0000
# 5 0.0000 0.0001 0.0000 0.0001 -762.2442 0.0000
# 6 0.0000 0.0000 0.0000 0.0000 0.0000 -4.4497
#
#
#
# Elastic Compliance Matrix: (Units=1/GPa)
#
#
# Indices 1 2 3 4 5 6 
#
# 1 0.012557 -0.000800 -0.005078 0.000000 0.000000 0.000000
# 2 -0.000800 0.012007 -0.007245 0.000000 0.000000 0.000000
# 3 -0.005078 -0.007245 0.021356 0.000000 0.000000 0.000000
# 4 0.000000 0.000000 0.000000 0.012469 0.000000 0.000000
# 5 0.000000 0.000000 0.000000 0.000000 -0.001312 0.000000
# 6 0.000000 0.000000 0.000000 0.000000 0.000000 -0.224736
#
#
# Mechanical properties :
#
#
# Convention : Reuss Voigt Hill
#
# Bulk Modulus (GPa) = 50.82613 52.41634 51.62124
# Shear Modulus (GPa) = -37.07713 -125.64780 -81.36246
#
# Velocity S-wave (km/s) = -4.28975 -7.89689 -6.35463
# Velocity P-wave (km/s) = 0.83058 7.55862 5.31239
#
# Compressibility (1/GPa) = 0.01967492
#
# Stress axis : x y z
#
# Youngs Moduli (GPa) = 79.63576 83.28545 46.82461
#
# Poissons Ratio (x) = 0.06660 0.23777
# Poissons Ratio (y) = 0.06368 0.33925
# Poissons Ratio (z) = 0.40439 0.60341
#
# Static dielectric constant tensor:
#      x y z
#    x 3.832760 0.000000 0.000000 
#    y 0.000000 3.642900 0.000000 
#    z 0.000000 0.000000 3.780350 
# 
# 
# High freq. dielectric constant tensor:
#      x y z
#    x 1.802530 0.000000 0.000000 
#    y 0.000000 1.791070 0.000000 
#    z 0.000000 0.000000 1.790590 
# 
# From -- ./inp_files/33669.got.cif
#   From: 2010.03.12/outbox.cif.g09.slc.cpg/sg73_17_cif.got.tgz:33669.got - 2010.04.16 15:25:48.
