data_PCOD8296642
_publ_section_title
;
Structure prediction by ZEFSAII (Michael W. Deem and Ramdas Pophale) SiO2 
 PCOD8296642
Probable space group: I B C A 
;
_chemical_formula_sum "Si O2"
_cell_formula_units_Z 104
_cell_length_a 8.642790
_cell_length_b 26.430629
_cell_length_c 19.865793
_cell_angle_alpha 90.000000
_cell_angle_beta 90.000000
_cell_angle_gamma 90.000000
_cell_volume 4538.030028
_symmetry_space_group_name_H-M "I B C A "
_symmetry_group_IT_number 73
_symmetry_cell_setting 'orthorhombic'
loop_
_space_group_symop_operation_xyz
x,y,z
-x,1/2-y,z
x,-y,1/2-z
1/2-x,y,-z
-x,-y,-z
x,1/2+y,-z
-x,y,1/2+z
1/2+x,-y,z
1/2+x,1/2+y,1/2+z
1/2-x,-y,1/2+z
1/2+x,1/2-y,-z
-x,1/2+y,1/2-z
1/2-x,1/2-y,1/2-z
1/2+x,y,1/2-z
1/2-x,1/2+y,z
x,1/2-y,1/2+z
loop_
_atom_site_type_symbol
_atom_site_label
_atom_site_fract_x
_atom_site_fract_y
_atom_site_fract_z
Si Si1 0.500000 0.250000 0.708360
Si Si2 0.413839 0.344483 0.777697
Si Si3 0.947806 0.438833 0.059222
Si Si4 0.250000 0.525107 0.500000
Si Si5 0.293204 0.184548 0.611317
Si Si6 0.575979 0.648725 0.455310
Si Si7 0.782474 0.879476 0.833254
Si Si8 0.750000 0.260360 0.000000
O O1 0.387242 0.286980 0.751199
O O2 0.401067 0.212700 0.663413
O O3 0.331992 0.349949 0.850431
O O4 0.351291 0.387590 0.724342
O O5 0.596997 0.346773 0.790151
O O6 0.885782 0.425412 0.135053
O O7 0.135524 0.443245 0.050437
O O8 0.865608 0.492108 0.045355
O O9 0.889442 0.396645 0.006418
O O10 0.399020 0.145372 0.568694
O O11 0.210342 0.225104 0.563530
O O12 0.698681 0.648413 0.394449
O O13 0.600041 0.703493 0.489892
#
# Coordination Sequence:
#
# PCOD8296642 Si02
#       8
#     8  16  16   8  16  16  16   8
#     4  12  22  42  60  84 130 186 238 286 310 366
#     4  12  27  40  64  89 133 186 243 268 324 384
#     4  11  24  44  77 105 139 161 213 273 356 419
#     4  10  23  47  74 118 126 162 200 279 353 434
#     4  12  26  41  61  93 134 185 239 281 320 384
#     4  12  23  42  65  98 136 178 223 286 343 395
#     4  12  23  45  63  96 131 180 219 280 324 405
#     4  12  23  37  60  90 142 180 228 291 329 372
#
# _framework density 22.917432000000002
#
# number of rings (size 3 to 8) (size 9 to 14) (size 15 to 20)
#    0.000    0.308    7.692    0.462    6.462    1.231 
#    0.000    0.000    0.000    2.769    0.000    0.000 
#    0.000    0.000    0.000    0.000    0.000    0.000 
#
# Total GULP energy -644268.619282 kJ/mol
# GULP energy per Si atom -12389.781140 kJ/mol
# Density = 2.286527 g / cm^3
# Si number density = 22.917432 Si / 1000 Ang^3
#
#
#
# Elastic Constant Matrix: (Units=GPa)
#
#
# Indices 1 2 3 4 5 6 
#
# 1 117.1518 20.4811 43.2188 0.0000 0.0000 0.0000
# 2 20.4811 51.8355 40.1419 0.0000 0.0000 0.0000
# 3 43.2188 40.1419 110.5276 0.0003 0.0001 0.0000
# 4 0.0000 0.0000 0.0003 24.8179 0.0000 0.0000
# 5 0.0000 0.0000 0.0001 0.0000 51.7480 0.0000
# 6 0.0000 0.0000 0.0000 0.0000 0.0000 32.5379
#
#
#
# Elastic Compliance Matrix: (Units=1/GPa)
#
#
# Indices 1 2 3 4 5 6 
#
# 1 0.010036 -0.001289 -0.003456 0.000000 0.000000 0.000000
# 2 -0.001289 0.027006 -0.009304 0.000000 0.000000 0.000000
# 3 -0.003456 -0.009304 0.013778 0.000000 0.000000 0.000000
# 4 0.000000 0.000000 0.000000 0.040293 0.000000 0.000000
# 5 0.000000 0.000000 0.000000 0.000000 0.019324 0.000000
# 6 0.000000 0.000000 0.000000 0.000000 0.000000 0.030733
#
#
# Mechanical properties :
#
#
# Convention : Reuss Voigt Hill
#
# Bulk Modulus (GPa) = 44.01051 54.13317 49.07184
# Shear Modulus (GPa) = 28.27328 33.53229 30.90279
#
# Velocity S-wave (km/s) = 3.51622 3.82930 3.67610
# Velocity P-wave (km/s) = 5.97752 6.57447 6.28309
#
# Compressibility (1/GPa) = 0.02272185
#
# Stress axis : x y z
#
# Youngs Moduli (GPa) = 99.63782 37.02821 72.57843
#
# Poissons Ratio (x) = 0.04773 0.25085
# Poissons Ratio (y) = 0.12843 0.67529
# Poissons Ratio (z) = 0.34438 0.34452
#
# Static dielectric constant tensor:
#      x y z
#    x 4.585780 0.000000 0.000000 
#    y 0.000000 3.773330 0.000000 
#    z 0.000000 0.000000 4.420550 
# 
# 
# High freq. dielectric constant tensor:
#      x y z
#    x 1.929920 0.000000 0.000000 
#    y 0.000000 1.857600 0.000000 
#    z 0.000000 0.000000 1.908420 
# 
# From -- ./inp_files/7912.got.cif
#   From: 2010.03.12/outbox.cif.g09.slc.cpg/sg73_4_cif.got.tgz:7912.got - 2010.04.16 15:25:48.
