data_PCOD8296140
_publ_section_title
;
Structure prediction by ZEFSAII (Michael W. Deem and Ramdas Pophale) SiO2 
 PCOD8296140
Probable space group: I B C A 
;
_chemical_formula_sum "Si O2"
_cell_formula_units_Z 120
_cell_length_a 11.915294
_cell_length_b 25.735907
_cell_length_c 18.508611
_cell_angle_alpha 90.000000
_cell_angle_beta 90.000000
_cell_angle_gamma 90.000000
_cell_volume 5675.682189
_symmetry_space_group_name_H-M "I B C A "
_symmetry_group_IT_number 73
_symmetry_cell_setting 'orthorhombic'
loop_
_space_group_symop_operation_xyz
x,y,z
-x,1/2-y,z
x,-y,1/2-z
1/2-x,y,-z
-x,-y,-z
x,1/2+y,-z
-x,y,1/2+z
1/2+x,-y,z
1/2+x,1/2+y,1/2+z
1/2-x,-y,1/2+z
1/2+x,1/2-y,-z
-x,1/2+y,1/2-z
1/2-x,1/2-y,1/2-z
1/2+x,y,1/2-z
1/2-x,1/2+y,z
x,1/2-y,1/2+z
loop_
_atom_site_type_symbol
_atom_site_label
_atom_site_fract_x
_atom_site_fract_y
_atom_site_fract_z
Si Si1 0.814834 0.222251 0.076196
Si Si2 0.562334 0.174133 0.412058
Si Si3 0.176221 0.445391 0.064651
Si Si4 0.823283 0.139039 0.863285
Si Si5 0.639169 0.954364 0.856647
Si Si6 0.851105 0.403381 0.202987
Si Si7 0.990963 0.103378 0.471045
Si Si8 0.026014 0.500000 0.750000
O O1 0.842755 0.281650 0.096239
O O2 0.727323 0.197824 0.134771
O O3 0.934419 0.193289 0.079813
O O4 0.750000 0.216673 0.000000
O O5 0.573616 0.135490 0.344120
O O6 0.587018 0.144658 0.487236
O O7 0.227491 0.393604 0.097482
O O8 0.179919 0.486790 0.129691
O O9 0.250000 0.468695 0.000000
O O10 0.056165 0.429635 0.032243
O O11 0.845270 0.120900 0.782391
O O12 0.935318 0.133327 0.910987
O O13 0.728063 0.911493 0.830624
O O14 0.590101 0.936941 0.932797
O O15 0.544553 0.958687 0.795939
O O16 0.899476 0.462066 0.200640
#
# Coordination Sequence:
#
# PCOD8296140 Si02
#       8
#    16  16  16  16  16  16  16   8
#     4  11  23  46  79  98 129 185 235 294 368 425
#     4  11  26  44  72 107 137 173 236 307 352 419
#     4  10  21  37  63  96 136 179 234 285 338 415
#     4  11  21  45  70  98 135 190 237 280 353 428
#     4  12  26  38  65  98 143 191 226 295 350 418
#     4  12  28  43  68 106 150 184 236 296 352 427
#     4  11  22  42  67 101 131 185 238 291 347 417
#     4  12  24  46  64  96 146 202 240 264 350 434
#
# _framework density 21.142831999999999
#
# number of rings (size 3 to 8) (size 9 to 14) (size 15 to 20)
#    0.000    0.800    4.000    3.600    7.467    0.533 
#    0.000    0.000    5.867    0.000    0.000    0.000 
#    0.000    0.000    0.000    0.000    0.000    0.000 
#
# Total GULP energy -743842.899135 kJ/mol
# GULP energy per Si atom -12397.381652 kJ/mol
# Density = 2.109471 g / cm^3
# Si number density = 21.142832 Si / 1000 Ang^3
#
#
#
# Elastic Constant Matrix: (Units=GPa)
#
#
# Indices 1 2 3 4 5 6 
#
# 1 72.6150 37.4467 38.4021 0.0000 0.0000 0.0000
# 2 37.4467 107.1746 43.2611 0.0000 0.0000 0.0000
# 3 38.4021 43.2611 120.9237 0.0000 0.0000 0.0000
# 4 0.0000 0.0000 0.0000 34.0319 0.0000 0.0000
# 5 0.0000 0.0000 0.0000 0.0000 29.8989 0.0000
# 6 0.0000 0.0000 0.0000 0.0000 0.0000 27.3165
#
#
#
# Elastic Compliance Matrix: (Units=1/GPa)
#
#
# Indices 1 2 3 4 5 6 
#
# 1 0.018420 -0.004762 -0.004146 0.000000 0.000000 0.000000
# 2 -0.004762 0.012137 -0.002830 0.000000 0.000000 0.000000
# 3 -0.004146 -0.002830 0.010599 0.000000 0.000000 0.000000
# 4 0.000000 0.000000 0.000000 0.029384 0.000000 0.000000
# 5 0.000000 0.000000 0.000000 0.000000 0.033446 0.000000
# 6 0.000000 0.000000 0.000000 0.000000 0.000000 0.036608
#
#
# Mechanical properties :
#
#
# Convention : Reuss Voigt Hill
#
# Bulk Modulus (GPa) = 56.56293 59.88144 58.22219
# Shear Modulus (GPa) = 29.41840 30.35636 29.88738
#
# Velocity S-wave (km/s) = 3.73421 3.79327 3.76386
# Velocity P-wave (km/s) = 6.73820 6.89703 6.81808
#
# Compressibility (1/GPa) = 0.01767942
#
# Stress axis : x y z
#
# Youngs Moduli (GPa) = 54.28989 82.39480 94.35238
#
# Poissons Ratio (x) = 0.39239 0.39117
# Poissons Ratio (y) = 0.25855 0.26698
# Poissons Ratio (z) = 0.22508 0.23314
#
# Static dielectric constant tensor:
#      x y z
#    x 3.839670 0.000000 0.000000 
#    y 0.000000 3.884460 0.000000 
#    z 0.000000 0.000000 3.867820 
# 
# 
# High freq. dielectric constant tensor:
#      x y z
#    x 1.829300 0.000000 0.000000 
#    y 0.000000 1.827660 0.000000 
#    z 0.000000 0.000000 1.828340 
# 
# From -- ./inp_files/21520.got.cif
#   From: 2010.03.12/outbox.cif.g09.slc.cpg/sg73_11_cif.got.tgz:21520.got - 2010.04.16 15:25:48.
