data_PCOD8296357
_publ_section_title
;
Structure prediction by ZEFSAII (Michael W. Deem and Ramdas Pophale) SiO2 
 PCOD8296357
Probable space group: I B C A 
;
_chemical_formula_sum "Si O2"
_cell_formula_units_Z 104
_cell_length_a 20.590941
_cell_length_b 13.935986
_cell_length_c 18.283977
_cell_angle_alpha 90.000000
_cell_angle_beta 90.000000
_cell_angle_gamma 90.000000
_cell_volume 5246.679818
_symmetry_space_group_name_H-M "I B C A "
_symmetry_group_IT_number 73
_symmetry_cell_setting 'orthorhombic'
loop_
_space_group_symop_operation_xyz
x,y,z
-x,1/2-y,z
x,-y,1/2-z
1/2-x,y,-z
-x,-y,-z
x,1/2+y,-z
-x,y,1/2+z
1/2+x,-y,z
1/2+x,1/2+y,1/2+z
1/2-x,-y,1/2+z
1/2+x,1/2-y,-z
-x,1/2+y,1/2-z
1/2-x,1/2-y,1/2-z
1/2+x,y,1/2-z
1/2-x,1/2+y,z
x,1/2-y,1/2+z
loop_
_atom_site_type_symbol
_atom_site_label
_atom_site_fract_x
_atom_site_fract_y
_atom_site_fract_z
Si Si1 0.934311 0.306435 0.770607
Si Si2 0.933000 0.584568 0.584591
Si Si3 0.500000 0.250000 0.996029
Si Si4 0.289823 0.110944 0.065506
Si Si5 0.083405 0.629378 0.393094
Si Si6 0.266172 0.397552 0.919599
Si Si7 0.299955 0.736932 0.313579
O O1 0.927841 0.391811 0.829332
O O2 0.936181 0.351209 0.690286
O O3 0.873465 0.234013 0.782852
O O4 0.000000 0.250000 0.786089
O O5 0.864684 0.597353 0.542827
O O6 0.950325 0.471012 0.580560
O O7 0.982560 0.657771 0.545795
O O8 0.558956 0.215812 0.944578
O O9 0.285264 0.171484 0.137784
O O10 0.254797 0.010722 0.082569
O O11 0.250000 0.161843 0.000000
O O12 0.160817 0.628517 0.397221
O O13 0.214366 0.357489 0.861205
O O14 0.250000 0.356310 0.000000
O O15 0.250000 0.750000 0.250000
#
# Coordination Sequence:
#
# PCOD8296357 Si02
#       7
#    16  16   8  16  16  16  16
#     4  11  22  42  64  89 125 167 212 252 313 374
#     4  10  23  40  64  89 122 168 207 255 310 379
#     4  12  24  38  62  94 126 158 212 262 304 372
#     4   9  21  39  61  89 122 160 202 253 316 374
#     4  11  23  41  64  90 123 166 208 256 316 371
#     4  10  22  39  63  91 122 159 205 257 313 373
#     4  11  22  36  64  90 120 160 206 258 308 371
#
# _framework density 19.822058999999999
#
# number of rings (size 3 to 8) (size 9 to 14) (size 15 to 20)
#    0.000    1.538    3.077    1.385    6.462    0.615 
#    0.000    0.000    3.385    0.000    0.000    0.000 
#    0.000    0.000    0.000    0.000    0.000    0.000 
#
# Total GULP energy -644702.794340 kJ/mol
# GULP energy per Si atom -12398.130660 kJ/mol
# Density = 1.977694 g / cm^3
# Si number density = 19.822059 Si / 1000 Ang^3
#
#
#
# Elastic Constant Matrix: (Units=GPa)
#
#
# Indices 1 2 3 4 5 6 
#
# 1 102.1412 37.6708 37.4482 0.0000 0.0000 0.0000
# 2 37.6708 88.5899 30.1542 0.0000 0.0000 0.0000
# 3 37.4482 30.1542 104.7878 0.0000 0.0000 0.0000
# 4 0.0000 0.0000 0.0000 29.6039 0.0000 0.0000
# 5 0.0000 0.0000 0.0000 0.0000 35.9075 0.0000
# 6 0.0000 0.0000 0.0000 0.0000 0.0000 31.9588
#
#
#
# Elastic Compliance Matrix: (Units=1/GPa)
#
#
# Indices 1 2 3 4 5 6 
#
# 1 0.012546 -0.004222 -0.003269 0.000000 0.000000 0.000000
# 2 -0.004222 0.013935 -0.002501 0.000000 0.000000 0.000000
# 3 -0.003269 -0.002501 0.011431 0.000000 0.000000 0.000000
# 4 0.000000 0.000000 0.000000 0.033779 0.000000 0.000000
# 5 0.000000 0.000000 0.000000 0.000000 0.027849 0.000000
# 6 0.000000 0.000000 0.000000 0.000000 0.000000 0.031290
#
#
# Mechanical properties :
#
#
# Convention : Reuss Voigt Hill
#
# Bulk Modulus (GPa) = 55.77914 56.22948 56.00431
# Shear Modulus (GPa) = 31.88977 32.17709 32.03343
#
# Velocity S-wave (km/s) = 4.01534 4.03339 4.02437
# Velocity P-wave (km/s) = 7.04970 7.07952 7.06463
#
# Compressibility (1/GPa) = 0.01792785
#
# Stress axis : x y z
#
# Youngs Moduli (GPa) = 79.70692 71.76329 87.48246
#
# Poissons Ratio (x) = 0.30301 0.28594
# Poissons Ratio (y) = 0.33655 0.21879
# Poissons Ratio (z) = 0.26052 0.17948
#
# Static dielectric constant tensor:
#      x y z
#    x 3.625920 0.000000 0.000000 
#    y 0.000000 3.531260 0.000000 
#    z 0.000000 0.000000 3.740570 
# 
# 
# High freq. dielectric constant tensor:
#      x y z
#    x 1.769150 0.000000 0.000000 
#    y 0.000000 1.773030 0.000000 
#    z 0.000000 0.000000 1.783960 
# 
# From -- ./inp_files/23206.got.cif
#   From: 2010.03.12/outbox.cif.g09.slc.cpg/sg73_12_cif.got.tgz:23206.got - 2010.04.16 15:25:48.
