data_PCOD8296410
_publ_section_title
;
Structure prediction by ZEFSAII (Michael W. Deem and Ramdas Pophale) SiO2 
 PCOD8296410
Probable space group: I B C A 
;
_chemical_formula_sum "Si O2"
_cell_formula_units_Z 120
_cell_length_a 26.132698
_cell_length_b 20.074751
_cell_length_c 10.499578
_cell_angle_alpha 90.000000
_cell_angle_beta 90.000000
_cell_angle_gamma 90.000000
_cell_volume 5508.156371
_symmetry_space_group_name_H-M "I B C A "
_symmetry_group_IT_number 73
_symmetry_cell_setting 'orthorhombic'
loop_
_space_group_symop_operation_xyz
x,y,z
-x,1/2-y,z
x,-y,1/2-z
1/2-x,y,-z
-x,-y,-z
x,1/2+y,-z
-x,y,1/2+z
1/2+x,-y,z
1/2+x,1/2+y,1/2+z
1/2-x,-y,1/2+z
1/2+x,1/2-y,-z
-x,1/2+y,1/2-z
1/2-x,1/2-y,1/2-z
1/2+x,y,1/2-z
1/2-x,1/2+y,z
x,1/2-y,1/2+z
loop_
_atom_site_type_symbol
_atom_site_label
_atom_site_fract_x
_atom_site_fract_y
_atom_site_fract_z
Si Si1 0.028043 0.609259 0.955653
Si Si2 0.000000 0.750000 0.010309
Si Si3 0.698144 0.796777 0.562878
Si Si4 0.303258 0.145172 0.956761
Si Si5 0.120123 0.924957 0.297548
Si Si6 0.140754 0.330980 0.287749
Si Si7 0.048881 0.073834 0.761458
Si Si8 0.103691 0.696837 0.626091
O O1 0.083261 0.580649 0.919148
O O2 0.988037 0.576574 0.860256
O O3 0.019632 0.589830 0.104774
O O4 0.025876 0.689567 0.931781
O O5 0.954101 0.715223 0.087399
O O6 0.750000 0.826330 0.500000
O O7 0.707672 0.719314 0.594345
O O8 0.689824 0.836652 0.694898
O O9 0.645788 0.807467 0.485209
O O10 0.344132 0.147654 0.071119
O O11 0.250000 0.112215 0.000000
O O12 0.324142 0.099216 0.843264
O O13 0.099766 0.875888 0.188158
O O14 0.123240 0.000000 0.250000
O O15 0.094702 0.375656 0.238137
O O16 0.122077 0.254277 0.277552
O O17 0.071783 0.000000 0.750000
#
# Coordination Sequence:
#
# PCOD8296410 Si02
#       8
#    16   8  16  16  16  16  16  16
#     4  12  26  44  69 103 136 190 231 295 353 423
#     4  12  24  44  72 106 144 176 242 302 362 430
#     4  10  22  40  72 109 138 178 234 301 362 420
#     4  10  22  42  71  98 135 180 230 293 359 410
#     4  12  26  45  70  99 144 184 239 288 355 434
#     4  11  22  43  68  99 142 181 236 294 351 424
#     4  12  26  45  70  99 147 186 240 282 358 428
#     4  11  24  42  67 105 138 184 235 298 355 421
#
# _framework density 21.785875000000001
#
# number of rings (size 3 to 8) (size 9 to 14) (size 15 to 20)
#    0.000    0.800    4.000    3.200    3.733    4.267 
#    0.000    1.333    0.000    0.000    0.000    0.000 
#    0.000    0.000    0.000    0.000    0.000    0.000 
#
# Total GULP energy -743823.203687 kJ/mol
# GULP energy per Si atom -12397.053395 kJ/mol
# Density = 2.173629 g / cm^3
# Si number density = 21.785875 Si / 1000 Ang^3
#
#
#
# Elastic Constant Matrix: (Units=GPa)
#
#
# Indices 1 2 3 4 5 6 
#
# 1 114.2566 20.1721 37.0356 0.0000 0.0000 0.0000
# 2 20.1721 119.3109 40.9965 0.0000 0.0000 0.0000
# 3 37.0356 40.9965 86.0447 0.0000 0.0000 0.0000
# 4 0.0000 0.0000 0.0000 29.9142 0.0000 0.0000
# 5 0.0000 0.0000 0.0000 0.0000 32.3327 0.0000
# 6 0.0000 0.0000 0.0000 0.0000 0.0000 -31.6769
#
#
#
# Elastic Compliance Matrix: (Units=1/GPa)
#
#
# Indices 1 2 3 4 5 6 
#
# 1 0.010178 -0.000258 -0.004258 0.000000 0.000000 0.000000
# 2 -0.000258 0.010029 -0.004667 0.000000 0.000000 0.000000
# 3 -0.004258 -0.004667 0.015678 0.000000 0.000000 0.000000
# 4 0.000000 0.000000 0.000000 0.033429 0.000000 0.000000
# 5 0.000000 0.000000 0.000000 0.000000 0.030928 0.000000
# 6 0.000000 0.000000 0.000000 0.000000 0.000000 -0.031569
#
#
# Mechanical properties :
#
#
# Convention : Reuss Voigt Hill
#
# Bulk Modulus (GPa) = 57.08101 57.33563 57.20832
# Shear Modulus (GPa) = 53.83316 20.87454 37.35385
#
# Velocity S-wave (km/s) = 4.97632 3.09879 4.14525
# Velocity P-wave (km/s) = 7.69910 6.25925 7.01621
#
# Compressibility (1/GPa) = 0.01751896
#
# Stress axis : x y z
#
# Youngs Moduli (GPa) = 98.25160 99.71298 63.78198
#
# Poissons Ratio (x) = 0.02570 0.27159
# Poissons Ratio (y) = 0.02532 0.29769
# Poissons Ratio (z) = 0.41836 0.46540
#
# Static dielectric constant tensor:
#      x y z
#    x 4.055190 0.000000 0.000000 
#    y 0.000000 3.857970 0.000000 
#    z 0.000000 0.000000 3.852900 
# 
# 
# High freq. dielectric constant tensor:
#      x y z
#    x 1.865670 0.000000 0.000000 
#    y 0.000000 1.837890 0.000000 
#    z 0.000000 0.000000 1.856700 
# 
# From -- ./inp_files/14364.got.cif
#   From: 2010.03.12/outbox.cif.g09.slc.cpg/sg73_8_cif.got.tgz:14364.got - 2010.04.16 15:25:48.
