data_PCOD8296434
_publ_section_title
;
Structure prediction by ZEFSAII (Michael W. Deem and Ramdas Pophale) SiO2 
 PCOD8296434
Probable space group: I B C A 
;
_chemical_formula_sum "Si O2"
_cell_formula_units_Z 120
_cell_length_a 17.463809
_cell_length_b 24.147679
_cell_length_c 12.630820
_cell_angle_alpha 90.000000
_cell_angle_beta 90.000000
_cell_angle_gamma 90.000000
_cell_volume 5326.548835
_symmetry_space_group_name_H-M "I B C A "
_symmetry_group_IT_number 73
_symmetry_cell_setting 'orthorhombic'
loop_
_space_group_symop_operation_xyz
x,y,z
-x,1/2-y,z
x,-y,1/2-z
1/2-x,y,-z
-x,-y,-z
x,1/2+y,-z
-x,y,1/2+z
1/2+x,-y,z
1/2+x,1/2+y,1/2+z
1/2-x,-y,1/2+z
1/2+x,1/2-y,-z
-x,1/2+y,1/2-z
1/2-x,1/2-y,1/2-z
1/2+x,y,1/2-z
1/2-x,1/2+y,z
x,1/2-y,1/2+z
loop_
_atom_site_type_symbol
_atom_site_label
_atom_site_fract_x
_atom_site_fract_y
_atom_site_fract_z
Si Si1 0.169088 0.313897 0.523455
Si Si2 0.412585 0.233940 0.788843
Si Si3 0.613668 0.846824 0.800561
Si Si4 0.250000 0.007099 0.500000
Si Si5 0.648324 0.053800 0.822508
Si Si6 0.362854 0.921382 0.606957
Si Si7 0.059500 0.880302 0.196588
Si Si8 0.019032 0.563721 0.483727
O O1 0.250000 0.283544 0.500000
O O2 0.113570 0.274663 0.590227
O O3 0.124468 0.337479 0.423616
O O4 0.190938 0.367472 0.595707
O O5 0.500000 0.250000 0.790807
O O6 0.365956 0.287135 0.748943
O O7 0.399817 0.180191 0.712458
O O8 0.670658 0.893898 0.752386
O O9 0.529243 0.870555 0.775241
O O10 0.315553 0.973551 0.563672
O O11 0.287138 0.045533 0.411015
O O12 0.638881 0.000000 0.750000
O O13 0.569052 0.068697 0.878767
O O14 0.396742 0.925058 0.726999
O O15 0.436983 0.907900 0.533571
O O16 0.064891 0.906352 0.079418
O O17 0.000000 0.500000 0.500000
#
# Coordination Sequence:
#
# PCOD8296434 Si02
#       8
#    16  16  16   8  16  16  16  16
#     4  11  23  42  69  99 136 191 227 280 365 432
#     4   9  23  43  70 105 136 178 240 297 353 421
#     4  11  22  44  70  96 141 179 228 299 350 415
#     4  12  26  46  64  98 138 192 228 290 358 444
#     4  12  27  45  67  99 139 181 232 292 357 417
#     4  11  22  41  69  97 139 182 235 280 354 421
#     4  10  22  41  69 106 132 180 235 295 347 428
#     4  12  23  40  69  99 135 180 234 289 348 417
#
# _framework density 22.528658
#
# number of rings (size 3 to 8) (size 9 to 14) (size 15 to 20)
#    0.000    1.067    4.667    1.600    0.000    4.267 
#    3.600    0.000    0.000    0.000    0.000    0.000 
#    0.000    0.000    0.000    0.000    0.000    0.000 
#
# Total GULP energy -743416.929303 kJ/mol
# GULP energy per Si atom -12390.282155 kJ/mol
# Density = 2.247738 g / cm^3
# Si number density = 22.528658 Si / 1000 Ang^3
#
#
#
# Elastic Constant Matrix: (Units=GPa)
#
#
# Indices 1 2 3 4 5 6 
#
# 1 58.7291 28.8353 32.7552 0.0000 0.0000 0.0000
# 2 28.8353 131.0312 77.4019 0.0000 0.0000 0.0000
# 3 32.7552 77.4019 133.5113 0.0000 0.0000 0.0000
# 4 0.0000 0.0000 0.0000 40.2173 0.0000 0.0000
# 5 0.0000 0.0000 0.0000 0.0000 30.0291 0.0000
# 6 0.0000 0.0000 0.0000 0.0000 0.0000 13.1334
#
#
#
# Elastic Compliance Matrix: (Units=1/GPa)
#
#
# Indices 1 2 3 4 5 6 
#
# 1 0.020174 -0.002305 -0.003613 0.000000 0.000000 0.000000
# 2 -0.002305 0.011870 -0.006316 0.000000 0.000000 0.000000
# 3 -0.003613 -0.006316 0.012038 0.000000 0.000000 0.000000
# 4 0.000000 0.000000 0.000000 0.024865 0.000000 0.000000
# 5 0.000000 0.000000 0.000000 0.000000 0.033301 0.000000
# 6 0.000000 0.000000 0.000000 0.000000 0.000000 0.076142
#
#
# Mechanical properties :
#
#
# Convention : Reuss Voigt Hill
#
# Bulk Modulus (GPa) = 50.98469 66.80625 58.89547
# Shear Modulus (GPa) = 23.87814 28.96126 26.41970
#
# Velocity S-wave (km/s) = 3.25914 3.58932 3.42821
# Velocity P-wave (km/s) = 6.06983 6.84806 6.47065
#
# Compressibility (1/GPa) = 0.01961373
#
# Stress axis : x y z
#
# Youngs Moduli (GPa) = 49.56798 84.24591 83.07045
#
# Poissons Ratio (x) = 0.19422 0.30013
# Poissons Ratio (y) = 0.11428 0.52467
# Poissons Ratio (z) = 0.17909 0.53209
#
# Static dielectric constant tensor:
#      x y z
#    x 3.261850 0.000000 0.000000 
#    y 0.000000 4.290230 0.000000 
#    z 0.000000 0.000000 4.270260 
# 
# 
# High freq. dielectric constant tensor:
#      x y z
#    x 1.877950 0.000000 0.000000 
#    y 0.000000 1.883760 0.000000 
#    z 0.000000 0.000000 1.895770 
# 
# From -- ./inp_files/12253.got.cif
#   From: 2010.03.12/outbox.cif.g09.slc.cpg/sg73_7_cif.got.tgz:12253.got - 2010.04.16 15:25:48.
