data_PCOD8296168
_publ_section_title
;
Structure prediction by ZEFSAII (Michael W. Deem and Ramdas Pophale) SiO2 
 PCOD8296168
Probable space group: I B C A 
;
_chemical_formula_sum "Si O2"
_cell_formula_units_Z 104
_cell_length_a 20.675908
_cell_length_b 24.730970
_cell_length_c 9.453637
_cell_angle_alpha 90.000000
_cell_angle_beta 90.000000
_cell_angle_gamma 90.000000
_cell_volume 4833.977938
_symmetry_space_group_name_H-M "I B C A "
_symmetry_group_IT_number 73
_symmetry_cell_setting 'orthorhombic'
loop_
_space_group_symop_operation_xyz
x,y,z
-x,1/2-y,z
x,-y,1/2-z
1/2-x,y,-z
-x,-y,-z
x,1/2+y,-z
-x,y,1/2+z
1/2+x,-y,z
1/2+x,1/2+y,1/2+z
1/2-x,-y,1/2+z
1/2+x,1/2-y,-z
-x,1/2+y,1/2-z
1/2-x,1/2-y,1/2-z
1/2+x,y,1/2-z
1/2-x,1/2+y,z
x,1/2-y,1/2+z
loop_
_atom_site_type_symbol
_atom_site_label
_atom_site_fract_x
_atom_site_fract_y
_atom_site_fract_z
Si Si1 0.413397 0.160914 0.622977
Si Si2 0.814779 0.872670 0.086970
Si Si3 0.000000 0.750000 0.507844
Si Si4 0.190069 0.171712 0.600353
Si Si5 0.450995 0.043941 0.629587
Si Si6 0.867707 0.784664 0.886688
Si Si7 0.404370 0.525159 0.901301
O O1 0.476255 0.199433 0.604013
O O2 0.376384 0.152459 0.474508
O O3 0.433614 0.103184 0.686118
O O4 0.363004 0.186069 0.735292
O O5 0.801546 0.859246 0.251163
O O6 0.853630 0.928021 0.068298
O O7 0.750000 0.881711 0.000000
O O8 0.852889 0.822706 0.019536
O O9 0.058842 0.765800 0.406371
O O10 0.250000 0.157246 0.500000
O O11 0.184194 0.236349 0.621393
O O12 0.524122 0.049300 0.573500
O O13 0.447286 0.000000 0.750000
O O14 0.399542 0.025077 0.510438
O O15 0.391162 0.500000 0.750000
#
# Coordination Sequence:
#
# PCOD8296168 Si02
#       7
#    16  16   8  16  16  16  16
#     4  11  22  39  63  93 129 164 207 259 315 378
#     4  12  25  42  65  90 122 166 213 265 317 376
#     4  10  22  36  62  98 132 166 204 258 318 380
#     4  11  24  42  62  88 124 166 209 256 317 382
#     4  10  21  38  65  94 124 161 203 255 313 376
#     4  11  23  39  62  93 128 165 207 255 318 387
#     4  10  22  42  63  89 121 160 206 254 313 369
#
# _framework density 21.514372999999999
#
# number of rings (size 3 to 8) (size 9 to 14) (size 15 to 20)
#    0.000    1.231    0.000    6.462    0.000    8.000 
#    0.000    5.385    0.000    0.000    0.000    0.000 
#    0.000    0.000    0.000    0.000    0.000    0.000 
#
# Total GULP energy -644836.365188 kJ/mol
# GULP energy per Si atom -12400.699331 kJ/mol
# Density = 2.146541 g / cm^3
# Si number density = 21.514373 Si / 1000 Ang^3
#
#
#
# Elastic Constant Matrix: (Units=GPa)
#
#
# Indices 1 2 3 4 5 6 
#
# 1 104.2726 50.1192 44.4680 0.0000 0.0000 0.0000
# 2 50.1192 143.9962 42.1196 0.0000 0.0000 0.0000
# 3 44.4680 42.1196 125.0647 0.0000 0.0000 0.0000
# 4 0.0000 0.0000 0.0000 31.2283 0.0000 0.0000
# 5 0.0000 0.0000 0.0000 0.0000 5.9543 0.0000
# 6 0.0000 0.0000 0.0000 0.0000 0.0000 26.3002
#
#
#
# Elastic Compliance Matrix: (Units=1/GPa)
#
#
# Indices 1 2 3 4 5 6 
#
# 1 0.012667 -0.003429 -0.003349 0.000000 0.000000 0.000000
# 2 -0.003429 0.008632 -0.001688 0.000000 0.000000 0.000000
# 3 -0.003349 -0.001688 0.009755 0.000000 0.000000 0.000000
# 4 0.000000 0.000000 0.000000 0.032022 0.000000 0.000000
# 5 0.000000 0.000000 0.000000 0.000000 0.167945 0.000000
# 6 0.000000 0.000000 0.000000 0.000000 0.000000 0.038022
#
#
# Mechanical properties :
#
#
# Convention : Reuss Voigt Hill
#
# Bulk Modulus (GPa) = 70.81220 71.86079 71.33650
# Shear Modulus (GPa) = 17.20092 28.47169 22.83631
#
# Velocity S-wave (km/s) = 2.83063 3.64178 3.26152
# Velocity P-wave (km/s) = 6.60822 7.15242 6.88570
#
# Compressibility (1/GPa) = 0.01412186
#
# Stress axis : x y z
#
# Youngs Moduli (GPa) = 78.94737 115.84965 102.51149
#
# Poissons Ratio (x) = 0.39727 0.34330
# Poissons Ratio (y) = 0.27073 0.17302
# Poissons Ratio (z) = 0.26438 0.19553
#
# Static dielectric constant tensor:
#      x y z
#    x 3.785350 0.000000 0.000000 
#    y 0.000000 2.207500 0.000000 
#    z 0.000000 0.000000 4.050940 
# 
# 
# High freq. dielectric constant tensor:
#      x y z
#    x 1.835590 0.000000 0.000000 
#    y 0.000000 1.847630 0.000000 
#    z 0.000000 0.000000 1.856890 
# 
# From -- ./inp_files/6560.got.cif
#   From: 2010.03.12/outbox.cif.g09.slc.cpg/sg73_4_cif.got.tgz:6560.got - 2010.04.16 15:25:48.
