data_PCOD8296376
_publ_section_title
;
Structure prediction by ZEFSAII (Michael W. Deem and Ramdas Pophale) SiO2 
 PCOD8296376
Probable space group: I B C A 
;
_chemical_formula_sum "Si O2"
_cell_formula_units_Z 104
_cell_length_a 24.400952
_cell_length_b 8.748956
_cell_length_c 24.247926
_cell_angle_alpha 90.000000
_cell_angle_beta 90.000000
_cell_angle_gamma 90.000000
_cell_volume 5176.516480
_symmetry_space_group_name_H-M "I B C A "
_symmetry_group_IT_number 73
_symmetry_cell_setting 'orthorhombic'
loop_
_space_group_symop_operation_xyz
x,y,z
-x,1/2-y,z
x,-y,1/2-z
1/2-x,y,-z
-x,-y,-z
x,1/2+y,-z
-x,y,1/2+z
1/2+x,-y,z
1/2+x,1/2+y,1/2+z
1/2-x,-y,1/2+z
1/2+x,1/2-y,-z
-x,1/2+y,1/2-z
1/2-x,1/2-y,1/2-z
1/2+x,y,1/2-z
1/2-x,1/2+y,z
x,1/2-y,1/2+z
loop_
_atom_site_type_symbol
_atom_site_label
_atom_site_fract_x
_atom_site_fract_y
_atom_site_fract_z
Si Si1 0.626152 0.594601 0.401820
Si Si2 0.812022 0.573606 0.308796
Si Si3 0.507625 0.072938 0.559517
Si Si4 0.250000 0.197492 0.500000
Si Si5 0.602853 0.050988 0.108827
Si Si6 0.301915 0.562979 0.688939
Si Si7 0.325401 0.445700 0.480413
O O1 0.566213 0.526990 0.415328
O O2 0.620934 0.773065 0.387858
O O3 0.650633 0.501600 0.350605
O O4 0.665336 0.569003 0.454299
O O5 0.823639 0.500000 0.250000
O O6 0.867037 0.539574 0.342946
O O7 0.757305 0.494201 0.333563
O O8 0.802910 0.754486 0.307212
O O9 0.500000 0.250000 0.547702
O O10 0.462710 0.027602 0.606710
O O11 0.500000 0.000000 0.500000
O O12 0.289446 0.299883 0.460770
O O13 0.289075 0.092053 0.536915
O O14 0.618528 0.965013 0.051697
O O15 0.312651 0.500000 0.750000
#
# Coordination Sequence:
#
# PCOD8296376 Si02
#       7
#    16  16  16   8  16  16  16
#     4  11  23  39  62  88 124 164 206 256 306 365
#     4  11  24  42  66  93 125 161 204 252 310 372
#     4  10  22  40  61  90 125 164 211 257 307 365
#     4  10  24  34  48  84 126 158 196 246 302 368
#     4  11  23  39  62  88 124 164 206 256 306 365
#     4  11  24  42  66  93 125 161 204 252 310 372
#     4  11  22  35  54  84 124 159 199 240 308 364
#
# _framework density 20.090731000000002
#
# number of rings (size 3 to 8) (size 9 to 14) (size 15 to 20)
#    0.000    1.231    3.077    3.692    6.462    1.231 
#    0.000    0.769    0.000    0.000    0.000    0.000 
#    0.000    0.000    0.000    0.000    0.000    0.000 
#
# Total GULP energy -644450.235553 kJ/mol
# GULP energy per Si atom -12393.273761 kJ/mol
# Density = 2.004500 g / cm^3
# Si number density = 20.090731 Si / 1000 Ang^3
#
#
#
# Elastic Constant Matrix: (Units=GPa)
#
#
# Indices 1 2 3 4 5 6 
#
# 1 145.1607 50.8590 55.7905 0.0000 0.0000 0.0000
# 2 50.8590 129.8260 38.0448 0.0000 0.0000 0.0000
# 3 55.7905 38.0448 93.6148 0.0000 0.0000 0.0000
# 4 0.0000 0.0000 0.0000 27.6108 0.0000 0.0000
# 5 0.0000 0.0000 0.0000 0.0000 31.5801 0.0000
# 6 0.0000 0.0000 0.0000 0.0000 0.0000 42.0205
#
#
#
# Elastic Compliance Matrix: (Units=1/GPa)
#
#
# Indices 1 2 3 4 5 6 
#
# 1 0.009527 -0.002348 -0.004723 0.000000 0.000000 0.000000
# 2 -0.002348 0.009323 -0.002389 0.000000 0.000000 0.000000
# 3 -0.004723 -0.002389 0.014468 0.000000 0.000000 0.000000
# 4 0.000000 0.000000 0.000000 0.036218 0.000000 0.000000
# 5 0.000000 0.000000 0.000000 0.000000 0.031666 0.000000
# 6 0.000000 0.000000 0.000000 0.000000 0.000000 0.023798
#
#
# Mechanical properties :
#
#
# Convention : Reuss Voigt Hill
#
# Bulk Modulus (GPa) = 69.46360 73.11001 71.28681
# Shear Modulus (GPa) = 33.62042 35.16942 34.39492
#
# Velocity S-wave (km/s) = 4.09519 4.18847 4.14210
# Velocity P-wave (km/s) = 7.55055 7.73692 7.64431
#
# Compressibility (1/GPa) = 0.01439603
#
# Stress axis : x y z
#
# Youngs Moduli (GPa) = 104.96533 107.26581 69.11757
#
# Poissons Ratio (x) = 0.25186 0.32647
# Poissons Ratio (y) = 0.24646 0.16515
# Poissons Ratio (z) = 0.49580 0.25630
#
# Static dielectric constant tensor:
#      x y z
#    x 4.071930 0.000000 0.000000 
#    y 0.000000 3.894200 0.000000 
#    z 0.000000 0.000000 3.471210 
# 
# 
# High freq. dielectric constant tensor:
#      x y z
#    x 1.792720 0.000000 0.000000 
#    y 0.000000 1.800420 0.000000 
#    z 0.000000 0.000000 1.761100 
# 
# From -- ./inp_files/30476.got.cif
#   From: 2010.03.12/outbox.cif.g09.slc.cpg/sg73_16_cif.got.tgz:30476.got - 2010.04.16 15:25:48.
