data_PCOD8296798
_publ_section_title
;
Structure prediction by ZEFSAII (Michael W. Deem and Ramdas Pophale) SiO2 
 PCOD8296798
Probable space group: I B C A 
;
_chemical_formula_sum "Si O2"
_cell_formula_units_Z 48
_cell_length_a 15.673955
_cell_length_b 12.038912
_cell_length_c 11.161864
_cell_angle_alpha 90.000000
_cell_angle_beta 90.000000
_cell_angle_gamma 90.000000
_cell_volume 2106.214325
_symmetry_space_group_name_H-M "I B C A "
_symmetry_group_IT_number 73
_symmetry_cell_setting 'orthorhombic'
loop_
_space_group_symop_operation_xyz
x,y,z
-x,1/2-y,z
x,-y,1/2-z
1/2-x,y,-z
-x,-y,-z
x,1/2+y,-z
-x,y,1/2+z
1/2+x,-y,z
1/2+x,1/2+y,1/2+z
1/2-x,-y,1/2+z
1/2+x,1/2-y,-z
-x,1/2+y,1/2-z
1/2-x,1/2-y,1/2-z
1/2+x,y,1/2-z
1/2-x,1/2+y,z
x,1/2-y,1/2+z
loop_
_atom_site_type_symbol
_atom_site_label
_atom_site_fract_x
_atom_site_fract_y
_atom_site_fract_z
Si Si1 0.590014 0.975839 0.057922
Si Si2 0.327504 0.104107 0.174818
Si Si3 0.639047 0.844111 0.264780
O O1 0.572170 0.889176 0.166440
O O2 0.630873 0.089721 0.109984
O O3 0.656739 0.923085 0.964102
O O4 0.500000 0.000000 0.000000
O O5 0.229395 0.128252 0.202758
O O6 0.379147 0.215068 0.211224
O O7 0.362946 0.000000 0.250000
#
# Coordination Sequence:
#
# PCOD8296798 Si02
#       3
#    16  16  16
#     4  11  25  47  69 104 147 181 228 294 355 420
#     4  11  24  45  76 101 138 183 237 292 344 417
#     4  10  25  48  71 106 136 185 245 283 349 419
#
# _framework density 22.789702999999999
#
# number of rings (size 3 to 8) (size 9 to 14) (size 15 to 20)
#    0.000    1.333    3.333    1.000    9.333    1.333 
#    0.000    0.000    0.000    0.000    0.000    0.000 
#    0.000    0.000    0.000    0.000    0.000    0.000 
#
# Total GULP energy -297567.070683 kJ/mol
# GULP energy per Si atom -12398.627945 kJ/mol
# Density = 2.273783 g / cm^3
# Si number density = 22.789703 Si / 1000 Ang^3
#
#
#
# Elastic Constant Matrix: (Units=GPa)
#
#
# Indices 1 2 3 4 5 6 
#
# 1 89.4811 32.8928 50.6437 0.0000 0.0000 0.0000
# 2 32.8928 236.3842 99.1248 0.0000 0.0000 0.0000
# 3 50.6437 99.1248 161.1840 0.0000 0.0000 0.0000
# 4 0.0000 0.0000 0.0000 34.5611 0.0000 0.0000
# 5 0.0000 0.0000 0.0000 0.0000 40.7293 0.0000
# 6 0.0000 0.0000 0.0000 0.0000 0.0000 25.2261
#
#
#
# Elastic Compliance Matrix: (Units=1/GPa)
#
#
# Indices 1 2 3 4 5 6 
#
# 1 0.013596 -0.000135 -0.004189 0.000000 0.000000 0.000000
# 2 -0.000135 0.005702 -0.003464 0.000000 0.000000 0.000000
# 3 -0.004189 -0.003464 0.009650 0.000000 0.000000 0.000000
# 4 0.000000 0.000000 0.000000 0.028934 0.000000 0.000000
# 5 0.000000 0.000000 0.000000 0.000000 0.024552 0.000000
# 6 0.000000 0.000000 0.000000 0.000000 0.000000 0.039642
#
#
# Mechanical properties :
#
#
# Convention : Reuss Voigt Hill
#
# Bulk Modulus (GPa) = 74.78156 94.70796 84.74476
# Shear Modulus (GPa) = 35.18414 40.39582 37.78998
#
# Velocity S-wave (km/s) = 3.93346 4.21473 4.07652
# Velocity P-wave (km/s) = 7.31536 8.08287 7.70867
#
# Compressibility (1/GPa) = 0.01337228
#
# Stress axis : x y z
#
# Youngs Moduli (GPa) = 73.55148 175.38300 103.62317
#
# Poissons Ratio (x) = 0.02376 0.43403
# Poissons Ratio (y) = 0.00996 0.35894
# Poissons Ratio (z) = 0.30807 0.60751
#
# Static dielectric constant tensor:
#      x y z
#    x 3.763230 0.000000 0.000000 
#    y 0.000000 5.422620 0.000000 
#    z 0.000000 0.000000 4.406940 
# 
# 
# High freq. dielectric constant tensor:
#      x y z
#    x 1.881780 0.000000 0.000000 
#    y 0.000000 1.909930 0.000000 
#    z 0.000000 0.000000 1.913280 
# 
# From -- ./inp_files/4307.got.cif
#   From: 2010.03.12/outbox.cif.g09.slc.cpg/sg73_3_cif.got.tgz:4307.got - 2010.04.16 15:25:48.
