data_PCOD8296447
_publ_section_title
;
Structure prediction by ZEFSAII (Michael W. Deem and Ramdas Pophale) SiO2 
 PCOD8296447
Probable space group: I B C A 
;
_chemical_formula_sum "Si O2"
_cell_formula_units_Z 120
_cell_length_a 8.412272
_cell_length_b 22.832110
_cell_length_c 28.269573
_cell_angle_alpha 90.000000
_cell_angle_beta 90.000000
_cell_angle_gamma 90.000000
_cell_volume 5429.734615
_symmetry_space_group_name_H-M "I B C A "
_symmetry_group_IT_number 73
_symmetry_cell_setting 'orthorhombic'
loop_
_space_group_symop_operation_xyz
x,y,z
-x,1/2-y,z
x,-y,1/2-z
1/2-x,y,-z
-x,-y,-z
x,1/2+y,-z
-x,y,1/2+z
1/2+x,-y,z
1/2+x,1/2+y,1/2+z
1/2-x,-y,1/2+z
1/2+x,1/2-y,-z
-x,1/2+y,1/2-z
1/2-x,1/2-y,1/2-z
1/2+x,y,1/2-z
1/2-x,1/2+y,z
x,1/2-y,1/2+z
loop_
_atom_site_type_symbol
_atom_site_label
_atom_site_fract_x
_atom_site_fract_y
_atom_site_fract_z
Si Si1 0.817619 0.773442 0.449181
Si Si2 0.192500 0.346525 0.445970
Si Si3 0.297714 0.121710 0.781823
Si Si4 0.474126 0.816855 0.797503
Si Si5 0.868500 0.137810 0.893291
Si Si6 0.688379 0.470455 0.352864
Si Si7 0.375176 0.581589 0.124297
Si Si8 0.774324 0.000000 0.250000
O O1 0.750000 0.791696 0.500000
O O2 0.707108 0.720878 0.429444
O O3 0.787293 0.831294 0.416980
O O4 0.000000 0.750000 0.450848
O O5 0.250000 0.351194 0.500000
O O6 0.330860 0.383831 0.422154
O O7 0.014160 0.368344 0.431651
O O8 0.344077 0.165265 0.740720
O O9 0.391384 0.127700 0.831691
O O10 0.115602 0.136917 0.791787
O O11 0.331291 0.054264 0.767235
O O12 0.500000 0.750000 0.784449
O O13 0.417072 0.819243 0.851185
O O14 0.825928 0.075708 0.868299
O O15 0.537411 0.452878 0.383988
O O16 0.734098 0.535854 0.366396
O O17 0.637049 0.472872 0.296719
#
# Coordination Sequence:
#
# PCOD8296447 Si02
#       8
#    16  16  16  16  16  16  16   8
#     4  11  23  43  72 105 138 184 238 293 353 425
#     4  11  23  45  71  99 139 185 234 292 356 423
#     4  11  24  41  68  93 139 176 236 284 355 420
#     4  12  25  44  62  98 139 189 225 286 357 439
#     4  12  24  44  69 103 138 184 235 294 352 422
#     4  11  24  41  68  97 139 172 233 285 351 423
#     4  11  24  43  66 101 132 179 228 289 351 422
#     4  10  22  42  66 100 128 184 234 290 342 420
#
# _framework density 22.100527
#
# number of rings (size 3 to 8) (size 9 to 14) (size 15 to 20)
#    0.000    0.800    2.667    5.600    1.867    2.667 
#    0.000    3.333    0.000    0.000    0.000    0.000 
#    0.000    0.000    0.000    0.000    0.000    0.000 
#
# Total GULP energy -743320.486123 kJ/mol
# GULP energy per Si atom -12388.674769 kJ/mol
# Density = 2.205022 g / cm^3
# Si number density = 22.100527 Si / 1000 Ang^3
#
#
#
# Elastic Constant Matrix: (Units=GPa)
#
#
# Indices 1 2 3 4 5 6 
#
# 1 79.2459 8.0374 44.6507 0.0000 0.0000 0.0000
# 2 8.0374 97.5783 58.9423 0.0000 -0.0002 0.0000
# 3 44.6507 58.9423 113.1088 0.0000 -0.0001 0.0000
# 4 0.0000 0.0000 0.0000 35.4247 -0.0001 0.0000
# 5 0.0000 -0.0002 -0.0001 -0.0001 448.7539 0.0000
# 6 0.0000 0.0000 0.0000 0.0000 0.0000 28.5674
#
#
#
# Elastic Compliance Matrix: (Units=1/GPa)
#
#
# Indices 1 2 3 4 5 6 
#
# 1 0.017197 0.003917 -0.008830 0.000000 0.000000 0.000000
# 2 0.003917 0.015848 -0.009805 0.000000 0.000000 0.000000
# 3 -0.008830 -0.009805 0.017436 0.000000 0.000000 0.000000
# 4 0.000000 0.000000 0.000000 0.028229 0.000000 0.000000
# 5 0.000000 0.000000 0.000000 0.000000 0.002228 0.000000
# 6 0.000000 0.000000 0.000000 0.000000 0.000000 0.035005
#
#
# Mechanical properties :
#
#
# Convention : Reuss Voigt Hill
#
# Bulk Modulus (GPa) = 47.51527 57.02154 52.26840
# Shear Modulus (GPa) = 32.80957 114.43603 73.62280
#
# Velocity S-wave (km/s) = 3.85718 7.20362 5.77798
# Velocity P-wave (km/s) = 6.43299 9.74918 8.25924
#
# Compressibility (1/GPa) = 0.02104587
#
# Stress axis : x y z
#
# Youngs Moduli (GPa) = 58.15021 63.09821 57.35162
#
# Poissons Ratio (x) = -0.24717 0.50641
# Poissons Ratio (y) = -0.22779 0.56234
# Poissons Ratio (z) = 0.51346 0.61868
#
# Static dielectric constant tensor:
#      x y z
#    x 3.876090 0.000000 0.000000 
#    y 0.000000 4.034730 0.000000 
#    z 0.000000 0.000000 4.188650 
# 
# 
# High freq. dielectric constant tensor:
#      x y z
#    x 1.865770 0.000000 0.000000 
#    y 0.000000 1.872660 0.000000 
#    z 0.000000 0.000000 1.872670 
# 
# From -- ./inp_files/31425.got.cif
#   From: 2010.03.12/outbox.cif.g09.slc.cpg/sg73_16_cif.got.tgz:31425.got - 2010.04.16 15:25:48.
