data_PCOD8296491
_publ_section_title
;
Structure prediction by ZEFSAII (Michael W. Deem and Ramdas Pophale) SiO2 
 PCOD8296491
Probable space group: I B C A 
;
_chemical_formula_sum "Si O2"
_cell_formula_units_Z 112
_cell_length_a 33.507587
_cell_length_b 10.654782
_cell_length_c 14.357878
_cell_angle_alpha 90.000000
_cell_angle_beta 90.000000
_cell_angle_gamma 90.000000
_cell_volume 5125.992672
_symmetry_space_group_name_H-M "I B C A "
_symmetry_group_IT_number 73
_symmetry_cell_setting 'orthorhombic'
loop_
_space_group_symop_operation_xyz
x,y,z
-x,1/2-y,z
x,-y,1/2-z
1/2-x,y,-z
-x,-y,-z
x,1/2+y,-z
-x,y,1/2+z
1/2+x,-y,z
1/2+x,1/2+y,1/2+z
1/2-x,-y,1/2+z
1/2+x,1/2-y,-z
-x,1/2+y,1/2-z
1/2-x,1/2-y,1/2-z
1/2+x,y,1/2-z
1/2-x,1/2+y,z
x,1/2-y,1/2+z
loop_
_atom_site_type_symbol
_atom_site_label
_atom_site_fract_x
_atom_site_fract_y
_atom_site_fract_z
Si Si1 0.829343 0.148209 0.928503
Si Si2 0.704678 0.385720 0.967145
Si Si3 0.781696 0.360595 0.241660
Si Si4 0.482900 0.044795 0.598245
Si Si5 0.062144 0.383529 0.303061
Si Si6 0.084948 0.778451 0.045653
Si Si7 0.455071 0.789440 0.637578
O O1 0.815344 0.152010 0.821094
O O2 0.877000 0.133515 0.936094
O O3 0.810811 0.028454 0.982979
O O4 0.818948 0.281691 0.974813
O O5 0.698396 0.348600 0.859453
O O6 0.750000 0.381176 0.000000
O O7 0.761449 0.500000 0.250000
O O8 0.750000 0.250000 0.250000
O O9 0.518275 0.072083 0.668654
O O10 0.455955 0.166307 0.586439
O O11 0.500000 0.000000 0.500000
O O12 0.454576 0.939149 0.643445
O O13 0.083133 0.500000 0.250000
O O14 0.089003 0.349947 0.393562
O O15 0.058670 0.264242 0.235795
O O16 0.078225 0.754087 0.936986
O O17 0.500000 0.750000 0.607943
#
# Coordination Sequence:
#
# PCOD8296491 Si02
#       7
#    16  16  16  16  16  16  16
#     4  11  27  44  70 107 143 184 225 290 362 421
#     4  11  23  45  76 102 138 178 234 280 345 434
#     4  10  22  43  71 104 134 173 225 280 341 419
#     4  12  23  43  68  91 132 183 244 290 338 412
#     4  12  25  42  69  98 129 182 246 289 344 418
#     4  12  27  44  65  99 146 177 229 295 361 413
#     4  12  23  41  68  97 126 183 235 290 344 409
#
# _framework density 21.849428
#
# number of rings (size 3 to 8) (size 9 to 14) (size 15 to 20)
#    0.000    0.571    5.714    1.714    4.000    1.143 
#    5.143    0.714    0.000    0.000    0.000    0.000 
#    0.000    0.000    0.000    0.000    0.000    0.000 
#
# Total GULP energy -694345.508939 kJ/mol
# GULP energy per Si atom -12399.026945 kJ/mol
# Density = 2.179970 g / cm^3
# Si number density = 21.849428 Si / 1000 Ang^3
#
#
#
# Elastic Constant Matrix: (Units=GPa)
#
#
# Indices 1 2 3 4 5 6 
#
# 1 70.2668 11.6951 26.9973 0.0000 0.0000 0.0000
# 2 11.6951 92.3185 35.9062 0.0000 0.0000 0.0000
# 3 26.9973 35.9062 138.3700 0.0000 0.0000 0.0000
# 4 0.0000 0.0000 0.0000 42.9525 0.0000 0.0000
# 5 0.0000 0.0000 0.0000 0.0000 22.2053 0.0000
# 6 0.0000 0.0000 0.0000 0.0000 0.0000 29.3116
#
#
#
# Elastic Compliance Matrix: (Units=1/GPa)
#
#
# Indices 1 2 3 4 5 6 
#
# 1 0.015448 -0.000873 -0.002788 0.000000 0.000000 0.000000
# 2 -0.000873 0.012097 -0.002969 0.000000 0.000000 0.000000
# 3 -0.002788 -0.002969 0.008541 0.000000 0.000000 0.000000
# 4 0.000000 0.000000 0.000000 0.023282 0.000000 0.000000
# 5 0.000000 0.000000 0.000000 0.000000 0.045034 0.000000
# 6 0.000000 0.000000 0.000000 0.000000 0.000000 0.034116
#
#
# Mechanical properties :
#
#
# Convention : Reuss Voigt Hill
#
# Bulk Modulus (GPa) = 43.80593 50.01696 46.91145
# Shear Modulus (GPa) = 31.37034 33.98431 32.67732
#
# Velocity S-wave (km/s) = 3.79324 3.94812 3.87145
# Velocity P-wave (km/s) = 6.26717 6.61248 6.44214
#
# Compressibility (1/GPa) = 0.02282796
#
# Stress axis : x y z
#
# Youngs Moduli (GPa) = 64.73441 82.66272 117.07844
#
# Poissons Ratio (x) = 0.07215 0.32636
# Poissons Ratio (y) = 0.05650 0.34759
# Poissons Ratio (z) = 0.18045 0.24542
#
# Static dielectric constant tensor:
#      x y z
#    x 3.616270 0.000000 0.000000 
#    y 0.000000 4.414300 0.000000 
#    z 0.000000 0.000000 4.280200 
# 
# 
# High freq. dielectric constant tensor:
#      x y z
#    x 1.819110 0.000000 0.000000 
#    y 0.000000 1.878230 0.000000 
#    z 0.000000 0.000000 1.878380 
# 
# From -- ./inp_files/20047.got.cif
#   From: 2010.03.12/outbox.cif.g09.slc.cpg/sg73_11_cif.got.tgz:20047.got - 2010.04.16 15:25:48.
