data_PCOD8296234
_publ_section_title
;
Structure prediction by ZEFSAII (Michael W. Deem and Ramdas Pophale) SiO2 
 PCOD8296234
Probable space group: I B C A 
;
_chemical_formula_sum "Si O2"
_cell_formula_units_Z 112
_cell_length_a 27.854564
_cell_length_b 14.995784
_cell_length_c 12.936681
_cell_angle_alpha 90.000000
_cell_angle_beta 90.000000
_cell_angle_gamma 90.000000
_cell_volume 5403.664916
_symmetry_space_group_name_H-M "I B C A "
_symmetry_group_IT_number 73
_symmetry_cell_setting 'orthorhombic'
loop_
_space_group_symop_operation_xyz
x,y,z
-x,1/2-y,z
x,-y,1/2-z
1/2-x,y,-z
-x,-y,-z
x,1/2+y,-z
-x,y,1/2+z
1/2+x,-y,z
1/2+x,1/2+y,1/2+z
1/2-x,-y,1/2+z
1/2+x,1/2-y,-z
-x,1/2+y,1/2-z
1/2-x,1/2-y,1/2-z
1/2+x,y,1/2-z
1/2-x,1/2+y,z
x,1/2-y,1/2+z
loop_
_atom_site_type_symbol
_atom_site_label
_atom_site_fract_x
_atom_site_fract_y
_atom_site_fract_z
Si Si1 0.463678 0.500000 0.750000
Si Si2 0.399767 0.156408 0.889315
Si Si3 0.651627 0.207167 0.592885
Si Si4 0.686879 0.543937 0.644493
Si Si5 0.250000 0.354398 0.500000
Si Si6 0.390913 0.153887 0.307923
Si Si7 0.463489 0.510034 0.411054
Si Si8 0.368146 0.104241 0.530418
O O1 0.431373 0.578687 0.703067
O O2 0.500994 0.450263 0.674702
O O3 0.353530 0.117477 0.828868
O O4 0.414349 0.249946 0.835751
O O5 0.442935 0.086749 0.877862
O O6 0.386081 0.165720 0.010917
O O7 0.705733 0.200586 0.548106
O O8 0.642334 0.160217 0.704576
O O9 0.643059 0.312110 0.603398
O O10 0.703686 0.500000 0.750000
O O11 0.733912 0.586726 0.596591
O O12 0.666843 0.475843 0.559033
O O13 0.359665 0.125833 0.408714
O O14 0.500000 0.500000 0.500000
O O15 0.422653 0.579171 0.442557
#
# Coordination Sequence:
#
# PCOD8296234 Si02
#       8
#     8  16  16  16   8  16  16  16
#     4  12  26  36  64  98 126 170 228 268 330 390
#     4   9  22  41  63  88 130 173 212 263 332 392
#     4  10  22  43  65  90 131 170 212 271 339 397
#     4  10  21  40  66  91 124 169 215 262 333 394
#     4  10  24  40  62 100 128 162 220 282 322 404
#     4  11  23  42  64  95 127 175 215 272 338 390
#     4  11  22  42  60  93 133 167 220 277 307 393
#     4  10  23  42  65  92 128 174 217 264 335 388
#
# _framework density 20.726673000000002
#
# number of rings (size 3 to 8) (size 9 to 14) (size 15 to 20)
#    0.000    1.714    1.429    1.714   10.000    2.286 
#    0.000   11.429    0.000    0.000    0.000    0.000 
#    0.000    0.000    0.000    0.000    0.000    0.000 
#
# Total GULP energy -693993.214244 kJ/mol
# GULP energy per Si atom -12392.735969 kJ/mol
# Density = 2.067950 g / cm^3
# Si number density = 20.726673 Si / 1000 Ang^3
#
#
#
# Elastic Constant Matrix: (Units=GPa)
#
#
# Indices 1 2 3 4 5 6 
#
# 1 101.9797 43.7948 37.0806 0.0000 0.0000 0.0000
# 2 43.7948 115.2833 31.3573 0.0000 0.0000 0.0000
# 3 37.0806 31.3573 121.2588 0.0000 0.0000 0.0000
# 4 0.0000 0.0000 0.0000 33.0177 0.0000 0.0000
# 5 0.0000 0.0000 0.0000 0.0000 28.3129 0.0000
# 6 0.0000 0.0000 0.0000 0.0000 0.0000 12.5162
#
#
#
# Elastic Compliance Matrix: (Units=1/GPa)
#
#
# Indices 1 2 3 4 5 6 
#
# 1 0.012543 -0.004003 -0.002800 0.000000 0.000000 0.000000
# 2 -0.004003 0.010608 -0.001519 0.000000 0.000000 0.000000
# 3 -0.002800 -0.001519 0.009496 0.000000 0.000000 0.000000
# 4 0.000000 0.000000 0.000000 0.030287 0.000000 0.000000
# 5 0.000000 0.000000 0.000000 0.000000 0.035320 0.000000
# 6 0.000000 0.000000 0.000000 0.000000 0.000000 0.079897
#
#
# Mechanical properties :
#
#
# Convention : Reuss Voigt Hill
#
# Bulk Modulus (GPa) = 62.49252 62.55414 62.52333
# Shear Modulus (GPa) = 24.98368 29.85529 27.41949
#
# Velocity S-wave (km/s) = 3.47564 3.79941 3.64113
# Velocity P-wave (km/s) = 6.80610 7.03516 6.92157
#
# Compressibility (1/GPa) = 0.01600192
#
# Stress axis : x y z
#
# Youngs Moduli (GPa) = 79.72341 94.26580 105.30717
#
# Poissons Ratio (x) = 0.37738 0.29491
# Poissons Ratio (y) = 0.31916 0.15997
# Poissons Ratio (z) = 0.22326 0.14320
#
# Static dielectric constant tensor:
#      x y z
#    x 3.445690 0.000000 0.000000 
#    y 0.000000 3.811300 0.000000 
#    z 0.000000 0.000000 3.819270 
# 
# 
# High freq. dielectric constant tensor:
#      x y z
#    x 1.795960 0.000000 0.000000 
#    y 0.000000 1.814700 0.000000 
#    z 0.000000 0.000000 1.827620 
# 
# From -- ./inp_files/19851.got.cif
#   From: 2010.03.12/outbox.cif.g09.slc.cpg/sg73_10_cif.got.tgz:19851.got - 2010.04.16 15:25:48.
