data_PCOD8296332
_publ_section_title
;
Structure prediction by ZEFSAII (Michael W. Deem and Ramdas Pophale) SiO2 
 PCOD8296332
Probable space group: I B C A 
;
_chemical_formula_sum "Si O2"
_cell_formula_units_Z 88
_cell_length_a 19.148141
_cell_length_b 24.843964
_cell_length_c 9.464625
_cell_angle_alpha 90.000000
_cell_angle_beta 90.000000
_cell_angle_gamma 90.000000
_cell_volume 4502.470950
_symmetry_space_group_name_H-M "I B C A "
_symmetry_group_IT_number 73
_symmetry_cell_setting 'orthorhombic'
loop_
_space_group_symop_operation_xyz
x,y,z
-x,1/2-y,z
x,-y,1/2-z
1/2-x,y,-z
-x,-y,-z
x,1/2+y,-z
-x,y,1/2+z
1/2+x,-y,z
1/2+x,1/2+y,1/2+z
1/2-x,-y,1/2+z
1/2+x,1/2-y,-z
-x,1/2+y,1/2-z
1/2-x,1/2-y,1/2-z
1/2+x,y,1/2-z
1/2-x,1/2+y,z
x,1/2-y,1/2+z
loop_
_atom_site_type_symbol
_atom_site_label
_atom_site_fract_x
_atom_site_fract_y
_atom_site_fract_z
Si Si1 0.879147 0.690075 0.869370
Si Si2 0.569731 0.720410 0.424516
Si Si3 0.699658 0.033748 0.118999
Si Si4 0.457822 0.950246 0.832703
Si Si5 0.510298 0.881418 0.074831
Si Si6 0.750000 0.135691 0.000000
O O1 0.880008 0.708927 0.707195
O O2 0.933410 0.641322 0.891067
O O3 0.802582 0.671486 0.910789
O O4 0.893755 0.740947 0.965775
O O5 0.500000 0.750000 0.366273
O O6 0.556348 0.664997 0.505953
O O7 0.615979 0.027951 0.106012
O O8 0.712974 0.098255 0.119663
O O9 0.727157 0.000000 0.250000
O O10 0.750000 0.007738 0.000000
O O11 0.451920 0.901332 0.718631
O O12 0.494928 0.000000 0.750000
O O13 0.504217 0.931073 0.964813
#
# Coordination Sequence:
#
# PCOD8296332 Si02
#       6
#    16  16  16  16  16   8
#     4  11  22  39  60  89 120 166 210 259 319 373
#     4  10  22  37  63  89 121 165 207 258 318 389
#     4   9  20  42  63  87 121 175 213 252 307 382
#     4  11  22  38  62  96 128 160 205 262 321 381
#     4  11  20  39  62  92 128 158 203 262 327 374
#     4  10  22  40  62  84 128 164 206 272 308 370
#
# _framework density 19.544823000000001
#
# number of rings (size 3 to 8) (size 9 to 14) (size 15 to 20)
#    0.545    1.091    3.636    2.182    2.545    0.727 
#    6.545    1.818    0.000    0.000    0.000    0.000 
#    0.000    0.000    0.000    0.000    0.000    0.000 
#
# Total GULP energy -545267.766773 kJ/mol
# GULP energy per Si atom -12392.449245 kJ/mol
# Density = 1.950034 g / cm^3
# Si number density = 19.544823 Si / 1000 Ang^3
#
#
#
# Elastic Constant Matrix: (Units=GPa)
#
#
# Indices 1 2 3 4 5 6 
#
# 1 52.5957 5.2577 24.4251 0.0000 0.0000 0.0000
# 2 5.2577 52.8863 14.2919 0.0000 0.0000 0.0000
# 3 24.4251 14.2919 101.8396 0.0000 0.0000 0.0000
# 4 0.0000 0.0000 0.0000 3.1491 0.0000 0.0000
# 5 0.0000 0.0000 0.0000 0.0000 27.3273 0.0000
# 6 0.0000 0.0000 0.0000 0.0000 0.0000 10.7400
#
#
#
# Elastic Compliance Matrix: (Units=1/GPa)
#
#
# Indices 1 2 3 4 5 6 
#
# 1 0.021426 -0.000771 -0.005031 0.000000 0.000000 0.000000
# 2 -0.000771 0.019682 -0.002577 0.000000 0.000000 0.000000
# 3 -0.005031 -0.002577 0.011388 0.000000 0.000000 0.000000
# 4 0.000000 0.000000 0.000000 0.317548 0.000000 0.000000
# 5 0.000000 0.000000 0.000000 0.000000 0.036593 0.000000
# 6 0.000000 0.000000 0.000000 0.000000 0.000000 0.093110
#
#
# Mechanical properties :
#
#
# Convention : Reuss Voigt Hill
#
# Bulk Modulus (GPa) = 27.98120 32.80791 30.39456
# Shear Modulus (GPa) = 9.46222 19.13308 14.29765
#
# Velocity S-wave (km/s) = 2.20268 3.13219 2.70762
# Velocity P-wave (km/s) = 4.56252 5.46838 5.03586
#
# Compressibility (1/GPa) = 0.03573828
#
# Stress axis : x y z
#
# Youngs Moduli (GPa) = 46.67181 50.80898 87.81479
#
# Poissons Ratio (x) = 0.03915 0.44177
# Poissons Ratio (y) = 0.03597 0.22632
# Poissons Ratio (z) = 0.23479 0.13095
#
# Static dielectric constant tensor:
#      x y z
#    x 3.279460 0.000000 0.000000 
#    y 0.000000 3.741510 0.000000 
#    z 0.000000 0.000000 3.303830 
# 
# 
# High freq. dielectric constant tensor:
#      x y z
#    x 1.731520 0.000000 0.000000 
#    y 0.000000 1.772980 0.000000 
#    z 0.000000 0.000000 1.766610 
# 
# From -- ./inp_files/6265.got.cif
#   From: 2010.03.12/outbox.cif.g09.slc.cpg/sg73_4_cif.got.tgz:6265.got - 2010.04.16 15:25:48.
