data_PCOD8296861
_publ_section_title
;
Structure prediction by ZEFSAII (Michael W. Deem and Ramdas Pophale) SiO2 
 PCOD8296861
Probable space group: I B C A 
;
_chemical_formula_sum "Si O2"
_cell_formula_units_Z 120
_cell_length_a 21.501550
_cell_length_b 18.850909
_cell_length_c 13.463301
_cell_angle_alpha 90.000000
_cell_angle_beta 90.000000
_cell_angle_gamma 90.000000
_cell_volume 5456.995816
_symmetry_space_group_name_H-M "I B C A "
_symmetry_group_IT_number 73
_symmetry_cell_setting 'orthorhombic'
loop_
_space_group_symop_operation_xyz
x,y,z
-x,1/2-y,z
x,-y,1/2-z
1/2-x,y,-z
-x,-y,-z
x,1/2+y,-z
-x,y,1/2+z
1/2+x,-y,z
1/2+x,1/2+y,1/2+z
1/2-x,-y,1/2+z
1/2+x,1/2-y,-z
-x,1/2+y,1/2-z
1/2-x,1/2-y,1/2-z
1/2+x,y,1/2-z
1/2-x,1/2+y,z
x,1/2-y,1/2+z
loop_
_atom_site_type_symbol
_atom_site_label
_atom_site_fract_x
_atom_site_fract_y
_atom_site_fract_z
Si Si1 0.250000 0.040205 0.000000
Si Si2 0.656238 0.160646 0.497864
Si Si3 0.398629 0.254116 0.662849
Si Si4 0.000160 0.351172 0.786405
Si Si5 0.938891 0.053249 0.917051
Si Si6 0.689284 0.446997 0.665840
Si Si7 0.468737 0.395892 0.426800
Si Si8 0.797080 0.690451 0.282737
O O1 0.309085 0.088761 0.035056
O O2 0.264090 0.988546 0.906983
O O3 0.652830 0.225907 0.577395
O O4 0.582085 0.150776 0.484161
O O5 0.698192 0.180290 0.401574
O O6 0.455395 0.199170 0.643202
O O7 0.428872 0.327903 0.700728
O O8 0.365088 0.216086 0.753739
O O9 0.011178 0.429165 0.830296
O O10 0.016319 0.351168 0.670896
O O11 0.869802 0.083684 0.895936
O O12 0.932250 0.969220 0.913223
O O13 0.966121 0.087619 0.017996
O O14 0.663565 0.500000 0.750000
O O15 0.721876 0.381528 0.723608
O O16 0.750000 0.750000 0.250000
#
# Coordination Sequence:
#
# PCOD8296861 Si02
#       8
#     8  16  16  16  16  16  16  16
#     4  12  26  44  78 102 136 186 242 300 358 424
#     4  12  23  47  68 101 144 185 234 299 362 418
#     4  11  25  40  68 101 140 185 232 283 351 437
#     4  11  22  43  64 104 141 178 229 284 357 429
#     4  11  21  41  71 101 127 178 232 280 361 426
#     4  12  24  48  74 101 139 187 239 296 364 435
#     4  11  22  40  72 100 134 180 224 293 356 423
#     4  12  26  48  72  99 139 193 237 291 358 424
#
# _framework density 21.990120999999998
#
# number of rings (size 3 to 8) (size 9 to 14) (size 15 to 20)
#    0.000    0.533    6.667    2.000    0.000    2.133 
#    2.400    0.000    0.000    0.000    0.000    0.000 
#    0.000    0.000    0.000    0.000    0.000    0.000 
#
# Total GULP energy -743378.152900 kJ/mol
# GULP energy per Si atom -12389.635882 kJ/mol
# Density = 2.194007 g / cm^3
# Si number density = 21.990121 Si / 1000 Ang^3
#
#
#
# Elastic Constant Matrix: (Units=GPa)
#
#
# Indices 1 2 3 4 5 6 
#
# 1 68.6181 25.7280 37.5304 0.0000 0.0000 0.0000
# 2 25.7280 80.2965 43.3437 0.0000 0.0000 0.0000
# 3 37.5304 43.3437 114.4113 0.0000 0.0000 0.0000
# 4 0.0000 0.0000 0.0000 36.8502 0.0000 0.0000
# 5 0.0000 0.0000 0.0000 0.0000 33.0552 0.0000
# 6 0.0000 0.0000 0.0000 0.0000 0.0000 46.3346
#
#
#
# Elastic Compliance Matrix: (Units=1/GPa)
#
#
# Indices 1 2 3 4 5 6 
#
# 1 0.018439 -0.003323 -0.004790 0.000000 0.000000 0.000000
# 2 -0.003323 0.016254 -0.005068 0.000000 0.000000 0.000000
# 3 -0.004790 -0.005068 0.012231 0.000000 0.000000 0.000000
# 4 0.000000 0.000000 0.000000 0.027137 0.000000 0.000000
# 5 0.000000 0.000000 0.000000 0.000000 0.030252 0.000000
# 6 0.000000 0.000000 0.000000 0.000000 0.000000 0.021582
#
#
# Mechanical properties :
#
#
# Convention : Reuss Voigt Hill
#
# Bulk Modulus (GPa) = 48.62836 52.94779 50.78807
# Shear Modulus (GPa) = 31.42463 33.69626 32.56045
#
# Velocity S-wave (km/s) = 3.78436 3.91875 3.85214
# Velocity P-wave (km/s) = 6.42315 6.67875 6.55220
#
# Compressibility (1/GPa) = 0.02056413
#
# Stress axis : x y z
#
# Youngs Moduli (GPa) = 54.23302 61.52339 81.75621
#
# Poissons Ratio (x) = 0.20441 0.39160
# Poissons Ratio (y) = 0.18019 0.41432
# Poissons Ratio (z) = 0.25977 0.31179
#
# Static dielectric constant tensor:
#      x y z
#    x 4.355140 0.000000 0.000000 
#    y 0.000000 4.148570 0.000000 
#    z 0.000000 0.000000 4.014550 
# 
# 
# High freq. dielectric constant tensor:
#      x y z
#    x 1.859370 0.000000 0.000000 
#    y 0.000000 1.871340 0.000000 
#    z 0.000000 0.000000 1.859520 
# 
# From -- ./inp_files/13828.got.cif
#   From: 2010.03.12/outbox.cif.g09.slc.cpg/sg73_7_cif.got.tgz:13828.got - 2010.04.16 15:25:48.
