data_PCOD8296859
_publ_section_title
;
Structure prediction by ZEFSAII (Michael W. Deem and Ramdas Pophale) SiO2 
 PCOD8296859
Probable space group: I B C A 
;
_chemical_formula_sum "Si O2"
_cell_formula_units_Z 112
_cell_length_a 30.619662
_cell_length_b 14.281665
_cell_length_c 11.741351
_cell_angle_alpha 90.000000
_cell_angle_beta 90.000000
_cell_angle_gamma 90.000000
_cell_volume 5134.489917
_symmetry_space_group_name_H-M "I B C A "
_symmetry_group_IT_number 73
_symmetry_cell_setting 'orthorhombic'
loop_
_space_group_symop_operation_xyz
x,y,z
-x,1/2-y,z
x,-y,1/2-z
1/2-x,y,-z
-x,-y,-z
x,1/2+y,-z
-x,y,1/2+z
1/2+x,-y,z
1/2+x,1/2+y,1/2+z
1/2-x,-y,1/2+z
1/2+x,1/2-y,-z
-x,1/2+y,1/2-z
1/2-x,1/2-y,1/2-z
1/2+x,y,1/2-z
1/2-x,1/2+y,z
x,1/2-y,1/2+z
loop_
_atom_site_type_symbol
_atom_site_label
_atom_site_fract_x
_atom_site_fract_y
_atom_site_fract_z
Si Si1 0.950678 0.752270 0.185801
Si Si2 0.295090 0.245435 0.685292
Si Si3 0.408858 0.106368 0.530800
Si Si4 0.667061 0.607149 0.468865
Si Si5 0.676846 0.048136 0.131734
Si Si6 0.373913 0.747927 0.140562
Si Si7 0.918104 0.049500 0.367206
O O1 0.944322 0.673120 0.089180
O O2 0.918904 0.732146 0.291469
O O3 0.942568 0.851723 0.125274
O O4 0.000000 0.750000 0.231695
O O5 0.250000 0.250000 0.750000
O O6 0.297214 0.324802 0.587557
O O7 0.297370 0.145603 0.622452
O O8 0.334997 0.262741 0.770502
O O9 0.375122 0.067790 0.625119
O O10 0.379454 0.160481 0.436991
O O11 0.433243 0.019222 0.469965
O O12 0.692032 0.521161 0.529994
O O13 0.636937 0.658789 0.563011
O O14 0.634055 0.567071 0.373904
O O15 0.688461 0.000000 0.250000
O O16 0.930130 0.000000 0.250000
#
# Coordination Sequence:
#
# PCOD8296859 Si02
#       7
#    16  16  16  16  16  16  16
#     4  12  25  42  67 102 141 181 231 295 353 411
#     4  12  25  44  71 104 140 180 227 293 352 420
#     4  11  22  41  71  96 132 190 229 280 355 417
#     4  11  22  42  75  98 134 190 227 280 354 419
#     4  11  21  42  71 102 135 178 234 283 344 422
#     4  12  20  46  69  94 143 179 231 280 357 417
#     4  11  21  41  69  98 134 179 236 280 342 426
#
# _framework density 21.813267
#
# number of rings (size 3 to 8) (size 9 to 14) (size 15 to 20)
#    0.000    0.571    8.571    0.000    0.000    1.714 
#    0.000    8.571    0.000    0.000    0.000    0.000 
#    0.000    0.000    0.000    0.000    0.000    0.000 
#
# Total GULP energy -694488.683748 kJ/mol
# GULP energy per Si atom -12401.583638 kJ/mol
# Density = 2.176362 g / cm^3
# Si number density = 21.813267 Si / 1000 Ang^3
#
#
#
# Elastic Constant Matrix: (Units=GPa)
#
#
# Indices 1 2 3 4 5 6 
#
# 1 113.8521 39.6204 51.7190 0.0000 0.0000 0.0000
# 2 39.6204 120.8838 45.8237 0.0000 0.0000 0.0000
# 3 51.7190 45.8237 83.2843 0.0000 0.0000 0.0000
# 4 0.0000 0.0000 0.0000 45.1396 0.0000 0.0000
# 5 0.0000 0.0000 0.0000 0.0000 23.8769 0.0000
# 6 0.0000 0.0000 0.0000 0.0000 0.0000 13.2729
#
#
#
# Elastic Compliance Matrix: (Units=1/GPa)
#
#
# Indices 1 2 3 4 5 6 
#
# 1 0.012433 -0.001451 -0.006922 0.000000 0.000000 0.000000
# 2 -0.001451 0.010622 -0.004943 0.000000 0.000000 0.000000
# 3 -0.006922 -0.004943 0.019026 0.000000 0.000000 0.000000
# 4 0.000000 0.000000 0.000000 0.022153 0.000000 0.000000
# 5 0.000000 0.000000 0.000000 0.000000 0.041882 0.000000
# 6 0.000000 0.000000 0.000000 0.000000 0.000000 0.075342
#
#
# Mechanical properties :
#
#
# Convention : Reuss Voigt Hill
#
# Bulk Modulus (GPa) = 64.73643 65.81627 65.27635
# Shear Modulus (GPa) = 23.44787 28.51502 25.98144
#
# Velocity S-wave (km/s) = 3.28218 3.61949 3.45495
# Velocity P-wave (km/s) = 6.64120 6.90693 6.77537
#
# Compressibility (1/GPa) = 0.01544725
#
# Stress axis : x y z
#
# Youngs Moduli (GPa) = 80.43222 94.14628 52.56056
#
# Poissons Ratio (x) = 0.13659 0.36385
# Poissons Ratio (y) = 0.11669 0.25982
# Poissons Ratio (z) = 0.55679 0.46539
#
# Static dielectric constant tensor:
#      x y z
#    x 3.534690 0.000000 0.000000 
#    y 0.000000 4.399780 0.000000 
#    z 0.000000 0.000000 4.069510 
# 
# 
# High freq. dielectric constant tensor:
#      x y z
#    x 1.815160 0.000000 0.000000 
#    y 0.000000 1.882070 0.000000 
#    z 0.000000 0.000000 1.863690 
# 
# From -- ./inp_files/14802.got.cif
#   From: 2010.03.12/outbox.cif.g09.slc.cpg/sg73_8_cif.got.tgz:14802.got - 2010.04.16 15:25:48.
