data_PCOD8296330
_publ_section_title
;
Structure prediction by ZEFSAII (Michael W. Deem and Ramdas Pophale) SiO2 
 PCOD8296330
Probable space group: I B C A 
;
_chemical_formula_sum "Si O2"
_cell_formula_units_Z 120
_cell_length_a 15.919170
_cell_length_b 11.660802
_cell_length_c 29.326755
_cell_angle_alpha 90.000000
_cell_angle_beta 90.000000
_cell_angle_gamma 90.000000
_cell_volume 5443.934017
_symmetry_space_group_name_H-M "I B C A "
_symmetry_group_IT_number 73
_symmetry_cell_setting 'orthorhombic'
loop_
_space_group_symop_operation_xyz
x,y,z
-x,1/2-y,z
x,-y,1/2-z
1/2-x,y,-z
-x,-y,-z
x,1/2+y,-z
-x,y,1/2+z
1/2+x,-y,z
1/2+x,1/2+y,1/2+z
1/2-x,-y,1/2+z
1/2+x,1/2-y,-z
-x,1/2+y,1/2-z
1/2-x,1/2-y,1/2-z
1/2+x,y,1/2-z
1/2-x,1/2+y,z
x,1/2-y,1/2+z
loop_
_atom_site_type_symbol
_atom_site_label
_atom_site_fract_x
_atom_site_fract_y
_atom_site_fract_z
Si Si1 0.120458 0.449868 0.797974
Si Si2 0.514860 0.126940 0.351825
Si Si3 0.886963 0.097445 0.562189
Si Si4 0.258550 0.272387 0.048693
Si Si5 0.769805 0.453869 0.380357
Si Si6 0.500000 0.250000 0.179331
Si Si7 0.901062 0.566047 0.624077
Si Si8 0.067828 0.847935 0.532943
O O1 0.152482 0.500000 0.750000
O O2 0.082963 0.559985 0.822804
O O3 0.199639 0.414854 0.829861
O O4 0.054163 0.343886 0.791767
O O5 0.500000 0.250000 0.328007
O O6 0.548100 0.154768 0.402807
O O7 0.430487 0.050675 0.351266
O O8 0.811595 0.176953 0.546808
O O9 0.849276 0.986096 0.587394
O O10 0.928925 0.073643 0.512710
O O11 0.232398 0.346137 0.092790
O O12 0.349027 0.214231 0.052531
O O13 0.250000 0.340597 0.000000
O O14 0.700659 0.556425 0.377510
O O15 0.431016 0.181233 0.149767
O O16 0.950116 0.565630 0.575073
O O17 0.000000 0.750000 0.525222
#
# Coordination Sequence:
#
# PCOD8296330 Si02
#       8
#    16  16  16  16  16   8  16  16
#     4  10  24  44  72  99 129 169 211 273 331 396
#     4  10  22  41  62  92 127 163 213 267 333 386
#     4  10  22  38  56  87 126 170 215 269 320 383
#     4  10  22  37  59  88 127 174 215 267 323 389
#     4  11  23  39  63  92 132 167 219 265 333 394
#     4  10  22  46  72 102 128 168 224 266 332 398
#     4  11  22  38  67  93 128 177 212 273 326 390
#     4  11  22  36  58  88 128 171 227 267 315 388
#
# _framework density 22.042883
#
# number of rings (size 3 to 8) (size 9 to 14) (size 15 to 20)
#    0.000    1.600    2.000    2.000    6.533    1.600 
#    0.000    3.333    0.000    0.000    0.000    0.000 
#    0.000    0.000    0.000    0.000    0.000    0.000 
#
# Total GULP energy -743502.558872 kJ/mol
# GULP energy per Si atom -12391.709315 kJ/mol
# Density = 2.199271 g / cm^3
# Si number density = 22.042883 Si / 1000 Ang^3
#
#
#
# Elastic Constant Matrix: (Units=GPa)
#
#
# Indices 1 2 3 4 5 6 
#
# 1 45.0404 -0.8663 8.9792 0.0000 0.0000 0.0000
# 2 -0.8663 80.1228 22.7113 0.0000 0.0000 0.0000
# 3 8.9792 22.7113 125.8219 0.0000 0.0000 0.0000
# 4 0.0000 0.0000 0.0000 24.6785 0.0000 0.0000
# 5 0.0000 0.0000 0.0000 0.0000 35.1307 0.0000
# 6 0.0000 0.0000 0.0000 0.0000 0.0000 25.0180
#
#
#
# Elastic Compliance Matrix: (Units=1/GPa)
#
#
# Indices 1 2 3 4 5 6 
#
# 1 0.022564 0.000738 -0.001744 0.000000 0.000000 0.000000
# 2 0.000738 0.013178 -0.002431 0.000000 0.000000 0.000000
# 3 -0.001744 -0.002431 0.008511 0.000000 0.000000 0.000000
# 4 0.000000 0.000000 0.000000 0.040521 0.000000 0.000000
# 5 0.000000 0.000000 0.000000 0.000000 0.028465 0.000000
# 6 0.000000 0.000000 0.000000 0.000000 0.000000 0.039971
#
#
# Mechanical properties :
#
#
# Convention : Reuss Voigt Hill
#
# Bulk Modulus (GPa) = 26.75247 34.73706 30.74477
# Shear Modulus (GPa) = 28.97813 31.64283 30.31048
#
# Velocity S-wave (km/s) = 3.62971 3.79293 3.71221
# Velocity P-wave (km/s) = 5.45246 5.91395 5.68789
#
# Compressibility (1/GPa) = 0.03737972
#
# Stress axis : x y z
#
# Youngs Moduli (GPa) = 44.31825 75.88405 117.49451
#
# Poissons Ratio (x) = -0.05602 0.20485
# Poissons Ratio (y) = -0.03271 0.28567
# Poissons Ratio (z) = 0.07727 0.18450
#
# Static dielectric constant tensor:
#      x y z
#    x 4.160370 0.000000 0.000000 
#    y 0.000000 3.746800 0.000000 
#    z 0.000000 0.000000 4.021640 
# 
# 
# High freq. dielectric constant tensor:
#      x y z
#    x 1.866720 0.000000 0.000000 
#    y 0.000000 1.859840 0.000000 
#    z 0.000000 0.000000 1.852420 
# 
# From -- ./inp_files/32448.got.cif
#   From: 2010.03.12/outbox.cif.g09.slc.cpg/sg73_17_cif.got.tgz:32448.got - 2010.04.16 15:25:48.
