data_PCOD8296354
_publ_section_title
;
Structure prediction by ZEFSAII (Michael W. Deem and Ramdas Pophale) SiO2 
 PCOD8296354
Probable space group: I B C A 
;
_chemical_formula_sum "Si O2"
_cell_formula_units_Z 104
_cell_length_a 26.652649
_cell_length_b 22.251107
_cell_length_c 7.786423
_cell_angle_alpha 90.000000
_cell_angle_beta 90.000000
_cell_angle_gamma 90.000000
_cell_volume 4617.745516
_symmetry_space_group_name_H-M "I B C A "
_symmetry_group_IT_number 73
_symmetry_cell_setting 'orthorhombic'
loop_
_space_group_symop_operation_xyz
x,y,z
-x,1/2-y,z
x,-y,1/2-z
1/2-x,y,-z
-x,-y,-z
x,1/2+y,-z
-x,y,1/2+z
1/2+x,-y,z
1/2+x,1/2+y,1/2+z
1/2-x,-y,1/2+z
1/2+x,1/2-y,-z
-x,1/2+y,1/2-z
1/2-x,1/2-y,1/2-z
1/2+x,y,1/2-z
1/2-x,1/2+y,z
x,1/2-y,1/2+z
loop_
_atom_site_type_symbol
_atom_site_label
_atom_site_fract_x
_atom_site_fract_y
_atom_site_fract_z
Si Si1 0.045482 0.212623 0.673616
Si Si2 0.124842 0.000000 0.750000
Si Si3 0.063334 0.065163 0.236789
Si Si4 0.619507 0.238822 0.090252
Si Si5 0.646943 0.652955 0.620767
Si Si6 0.304634 0.032869 0.930897
Si Si7 0.541031 0.417185 0.379931
O O1 0.062895 0.248170 0.842081
O O2 0.101033 0.206562 0.583105
O O3 0.027100 0.145722 0.710525
O O4 0.000000 0.250000 0.587383
O O5 0.156971 0.988771 0.578628
O O6 0.087985 0.944019 0.778030
O O7 0.096102 0.112886 0.129561
O O8 0.054599 0.093194 0.422820
O O9 0.011737 0.047541 0.136983
O O10 0.091589 0.000000 0.250000
O O11 0.653066 0.194135 0.207006
O O12 0.647638 0.301679 0.042400
O O13 0.691882 0.605076 0.601520
O O14 0.314538 0.000000 0.750000
O O15 0.250000 0.016715 0.000000
#
# Coordination Sequence:
#
# PCOD8296354 Si02
#       7
#    16   8  16  16  16  16  16
#     4  11  22  34  55  85 132 183 240 287 330 401
#     4  12  26  48  74 104 146 194 236 306 368 448
#     4  12  25  40  60  96 145 190 245 297 351 426
#     4  10  22  39  59  95 128 186 238 283 356 418
#     4  11  23  45  70  98 147 189 239 306 362 432
#     4  12  27  52  82 114 144 181 240 308 389 458
#     4  12  25  39  61  98 136 191 243 287 354 421
#
# _framework density 22.521811
#
# number of rings (size 3 to 8) (size 9 to 14) (size 15 to 20)
#    0.000    0.615    3.077    6.000    6.462    0.000 
#    0.000    0.769    0.000    0.000    0.000    0.000 
#    0.000    0.000    0.000    0.000    0.000    0.000 
#
# Total GULP energy -644299.790927 kJ/mol
# GULP energy per Si atom -12390.380595 kJ/mol
# Density = 2.247055 g / cm^3
# Si number density = 22.521811 Si / 1000 Ang^3
#
#
#
# Elastic Constant Matrix: (Units=GPa)
#
#
# Indices 1 2 3 4 5 6 
#
# 1 85.6459 26.1756 36.5386 0.0000 0.0000 0.0000
# 2 26.1756 150.1115 37.0462 0.0000 0.0000 0.0000
# 3 36.5386 37.0462 91.5322 0.0000 0.0000 0.0000
# 4 0.0000 0.0000 0.0000 41.3496 0.0000 0.0000
# 5 0.0000 0.0000 0.0000 0.0000 27.4201 0.0000
# 6 0.0000 0.0000 0.0000 0.0000 0.0000 22.7835
#
#
#
# Elastic Compliance Matrix: (Units=1/GPa)
#
#
# Indices 1 2 3 4 5 6 
#
# 1 0.014265 -0.001202 -0.005208 0.000000 0.000000 0.000000
# 2 -0.001202 0.007502 -0.002557 0.000000 0.000000 0.000000
# 3 -0.005208 -0.002557 0.014039 0.000000 0.000000 0.000000
# 4 0.000000 0.000000 0.000000 0.024184 0.000000 0.000000
# 5 0.000000 0.000000 0.000000 0.000000 0.036470 0.000000
# 6 0.000000 0.000000 0.000000 0.000000 0.000000 0.043891
#
#
# Mechanical properties :
#
#
# Convention : Reuss Voigt Hill
#
# Bulk Modulus (GPa) = 55.95047 58.53448 57.24247
# Shear Modulus (GPa) = 30.44281 33.47926 31.96103
#
# Velocity S-wave (km/s) = 3.68054 3.85973 3.77120
# Velocity P-wave (km/s) = 6.55428 6.77569 6.66590
#
# Compressibility (1/GPa) = 0.01787295
#
# Stress axis : x y z
#
# Youngs Moduli (GPa) = 70.10048 133.29294 71.23130
#
# Poissons Ratio (x) = 0.16025 0.37097
# Poissons Ratio (y) = 0.08428 0.18210
# Poissons Ratio (z) = 0.36508 0.34076
#
# Static dielectric constant tensor:
#      x y z
#    x 3.673510 0.000000 0.000000 
#    y 0.000000 4.184260 0.000000 
#    z 0.000000 0.000000 4.210730 
# 
# 
# High freq. dielectric constant tensor:
#      x y z
#    x 1.845930 0.000000 0.000000 
#    y 0.000000 1.901380 0.000000 
#    z 0.000000 0.000000 1.901510 
# 
# From -- ./inp_files/8001.got.cif
#   From: 2010.03.12/outbox.cif.g09.slc.cpg/sg73_5_cif.got.tgz:8001.got - 2010.04.16 15:25:48.
