data_PCOD8296415
_publ_section_title
;
Structure prediction by ZEFSAII (Michael W. Deem and Ramdas Pophale) SiO2 
 PCOD8296415
Probable space group: I B C A 
;
_chemical_formula_sum "Si O2"
_cell_formula_units_Z 96
_cell_length_a 21.364858
_cell_length_b 8.623621
_cell_length_c 22.430880
_cell_angle_alpha 90.000000
_cell_angle_beta 90.000000
_cell_angle_gamma 90.000000
_cell_volume 4132.720020
_symmetry_space_group_name_H-M "I B C A "
_symmetry_group_IT_number 73
_symmetry_cell_setting 'orthorhombic'
loop_
_space_group_symop_operation_xyz
x,y,z
-x,1/2-y,z
x,-y,1/2-z
1/2-x,y,-z
-x,-y,-z
x,1/2+y,-z
-x,y,1/2+z
1/2+x,-y,z
1/2+x,1/2+y,1/2+z
1/2-x,-y,1/2+z
1/2+x,1/2-y,-z
-x,1/2+y,1/2-z
1/2-x,1/2-y,1/2-z
1/2+x,y,1/2-z
1/2-x,1/2+y,z
x,1/2-y,1/2+z
loop_
_atom_site_type_symbol
_atom_site_label
_atom_site_fract_x
_atom_site_fract_y
_atom_site_fract_z
Si Si1 0.531687 0.584258 0.194150
Si Si2 0.503611 0.429949 0.076973
Si Si3 0.122334 0.897170 0.955923
Si Si4 0.133976 0.540329 0.927502
Si Si5 0.710050 0.923291 0.189833
Si Si6 0.668727 0.083893 0.828571
O O1 0.500000 0.750000 0.178270
O O2 0.498368 0.500000 0.250000
O O3 0.533535 0.459379 0.141524
O O4 0.605022 0.610172 0.208534
O O5 0.500000 0.250000 0.058004
O O6 0.550465 0.531693 0.033614
O O7 0.434719 0.488293 0.088862
O O8 0.124433 0.715112 0.948438
O O9 0.155207 0.963196 0.897275
O O10 0.160433 0.943874 0.015630
O O11 0.177617 0.508161 0.870253
O O12 0.706523 0.740354 0.183814
O O13 0.679566 0.000000 0.250000
O O14 0.784963 0.949966 0.193247
#
# Coordination Sequence:
#
# PCOD8296415 Si02
#       6
#    16  16  16  16  16  16
#     4  11  23  41  64  95 132 172 223 280 337 399
#     4  11  22  37  61  93 129 171 214 271 340 402
#     4  10  22  41  62  92 129 168 219 276 333 394
#     4  11  23  40  64  93 129 173 217 272 331 402
#     4  11  24  42  66  92 127 172 218 268 329 398
#     4  10  24  43  65  93 129 172 220 276 332 398
#
# _framework density 23.229253
#
# number of rings (size 3 to 8) (size 9 to 14) (size 15 to 20)
#    0.000    1.333    0.000    6.500    0.000    8.667 
#    0.000    3.333    0.000    0.000    0.000    0.000 
#    0.000    0.000    0.000    0.000    0.000    0.000 
#
# Total GULP energy -594683.280512 kJ/mol
# GULP energy per Si atom -12389.235011 kJ/mol
# Density = 2.317638 g / cm^3
# Si number density = 23.229253 Si / 1000 Ang^3
#
#
#
# Elastic Constant Matrix: (Units=GPa)
#
#
# Indices 1 2 3 4 5 6 
#
# 1 101.9664 39.1052 15.2686 0.0000 0.0000 0.0000
# 2 39.1052 97.9912 36.2265 0.0000 0.0000 0.0000
# 3 15.2686 36.2265 88.1403 0.0000 0.0000 0.0000
# 4 0.0000 0.0000 0.0000 44.7567 0.0000 0.0000
# 5 0.0000 0.0000 0.0000 0.0000 9.9343 0.0000
# 6 0.0000 0.0000 0.0000 0.0000 0.0000 33.5807
#
#
#
# Elastic Compliance Matrix: (Units=1/GPa)
#
#
# Indices 1 2 3 4 5 6 
#
# 1 0.011581 -0.004575 -0.000126 0.000000 0.000000 0.000000
# 2 -0.004575 0.013841 -0.004896 0.000000 0.000000 0.000000
# 3 -0.000126 -0.004896 0.013380 0.000000 0.000000 0.000000
# 4 0.000000 0.000000 0.000000 0.022343 0.000000 0.000000
# 5 0.000000 0.000000 0.000000 0.000000 0.100662 0.000000
# 6 0.000000 0.000000 0.000000 0.000000 0.000000 0.029779
#
#
# Mechanical properties :
#
#
# Convention : Reuss Voigt Hill
#
# Bulk Modulus (GPa) = 51.00148 52.14430 51.57289
# Shear Modulus (GPa) = 23.00816 30.82083 26.91450
#
# Velocity S-wave (km/s) = 3.15061 3.64649 3.40758
# Velocity P-wave (km/s) = 5.93620 6.34237 6.14264
#
# Compressibility (1/GPa) = 0.01960727
#
# Stress axis : x y z
#
# Youngs Moduli (GPa) = 86.35196 72.25031 74.74005
#
# Poissons Ratio (x) = 0.33054 0.00940
# Poissons Ratio (y) = 0.39505 0.36594
# Poissons Ratio (z) = 0.01086 0.35375
#
# Static dielectric constant tensor:
#      x y z
#    x 4.167160 0.000000 0.000000 
#    y 0.000000 4.377030 0.000000 
#    z 0.000000 0.000000 4.771490 
# 
# 
# High freq. dielectric constant tensor:
#      x y z
#    x 1.909680 0.000000 0.000000 
#    y 0.000000 1.912140 0.000000 
#    z 0.000000 0.000000 1.945220 
# 
# From -- ./inp_files/30282.got.cif
#   From: 2010.03.12/outbox.cif.g09.slc.cpg/sg73_16_cif.got.tgz:30282.got - 2010.04.16 15:25:48.
