data_PCOD8296342
_publ_section_title
;
Structure prediction by ZEFSAII (Michael W. Deem and Ramdas Pophale) SiO2 
 PCOD8296342
Probable space group: I B C A 
;
_chemical_formula_sum "Si O2"
_cell_formula_units_Z 120
_cell_length_a 22.438817
_cell_length_b 8.688315
_cell_length_c 28.917019
_cell_angle_alpha 90.000000
_cell_angle_beta 90.000000
_cell_angle_gamma 90.000000
_cell_volume 5637.532196
_symmetry_space_group_name_H-M "I B C A "
_symmetry_group_IT_number 73
_symmetry_cell_setting 'orthorhombic'
loop_
_space_group_symop_operation_xyz
x,y,z
-x,1/2-y,z
x,-y,1/2-z
1/2-x,y,-z
-x,-y,-z
x,1/2+y,-z
-x,y,1/2+z
1/2+x,-y,z
1/2+x,1/2+y,1/2+z
1/2-x,-y,1/2+z
1/2+x,1/2-y,-z
-x,1/2+y,1/2-z
1/2-x,1/2-y,1/2-z
1/2+x,y,1/2-z
1/2-x,1/2+y,z
x,1/2-y,1/2+z
loop_
_atom_site_type_symbol
_atom_site_label
_atom_site_fract_x
_atom_site_fract_y
_atom_site_fract_z
Si Si1 0.825786 0.134011 0.949567
Si Si2 0.564574 0.072437 0.704738
Si Si3 0.750000 0.384621 0.000000
Si Si4 0.966913 0.588390 0.041388
Si Si5 0.695169 0.988746 0.697869
Si Si6 0.018637 0.926394 0.364053
Si Si7 0.287800 0.195723 0.654367
Si Si8 0.603938 0.079702 0.202065
O O1 0.895451 0.116946 0.964338
O O2 0.815097 0.154534 0.895192
O O3 0.787613 0.985613 0.963996
O O4 0.799389 0.284198 0.974040
O O5 0.624886 0.973150 0.702944
O O6 0.570400 0.256146 0.705485
O O7 0.530596 0.000000 0.750000
O O8 0.530893 0.035995 0.657886
O O9 0.000000 0.750000 0.050308
O O10 0.975327 0.470030 0.082917
O O11 0.000000 0.500000 0.000000
O O12 0.709860 0.125482 0.663074
O O13 0.722751 0.000000 0.750000
O O14 0.720091 0.848029 0.667238
O O15 0.000000 0.750000 0.358816
O O16 0.079743 0.966350 0.337736
O O17 0.326886 0.106179 0.692448
O O18 0.595115 0.000000 0.250000
#
# Coordination Sequence:
#
# PCOD8296342 Si02
#       8
#    16  16   8  16  16  16  16  16
#     4  11  23  47  69 105 135 179 230 284 356 417
#     4  10  22  41  61  92 130 174 224 275 338 404
#     4  10  24  44  74  98 138 176 226 292 350 422
#     4  12  26  47  73 102 141 178 227 287 350 420
#     4  10  22  38  60  94 133 177 223 276 337 406
#     4  12  25  42  64  95 127 172 225 274 339 408
#     4  11  22  39  64  92 134 172 227 272 344 409
#     4  11  22  39  64  90 129 174 215 277 332 405
#
# _framework density 21.285910000000001
#
# number of rings (size 3 to 8) (size 9 to 14) (size 15 to 20)
#    0.000    1.067    1.333    5.200    1.867    3.200 
#    7.200    0.000    0.000    0.000    0.000    0.000 
#    0.000    0.000    0.000    0.000    0.000    0.000 
#
# Total GULP energy -743642.036070 kJ/mol
# GULP energy per Si atom -12394.033934 kJ/mol
# Density = 2.123746 g / cm^3
# Si number density = 21.285910 Si / 1000 Ang^3
#
#
#
# Elastic Constant Matrix: (Units=GPa)
#
#
# Indices 1 2 3 4 5 6 
#
# 1 80.9019 26.5493 30.5230 0.0000 0.0000 0.0000
# 2 26.5493 98.1334 35.2433 0.0000 0.0000 0.0000
# 3 30.5230 35.2433 123.0980 0.0000 0.0000 0.0000
# 4 0.0000 0.0000 0.0000 38.7010 0.0000 0.0000
# 5 0.0000 0.0000 0.0000 0.0000 27.0627 0.0000
# 6 0.0000 0.0000 0.0000 0.0000 0.0000 72.7815
#
#
#
# Elastic Compliance Matrix: (Units=1/GPa)
#
#
# Indices 1 2 3 4 5 6 
#
# 1 0.014341 -0.002901 -0.002725 0.000000 0.000000 0.000000
# 2 -0.002901 0.011945 -0.002701 0.000000 0.000000 0.000000
# 3 -0.002725 -0.002701 0.009573 0.000000 0.000000 0.000000
# 4 0.000000 0.000000 0.000000 0.025839 0.000000 0.000000
# 5 0.000000 0.000000 0.000000 0.000000 0.036951 0.000000
# 6 0.000000 0.000000 0.000000 0.000000 0.000000 0.013740
#
#
# Mechanical properties :
#
#
# Convention : Reuss Voigt Hill
#
# Bulk Modulus (GPa) = 52.07108 54.08494 53.07801
# Shear Modulus (GPa) = 36.91568 41.69689 39.30628
#
# Velocity S-wave (km/s) = 4.16898 4.43074 4.30186
# Velocity P-wave (km/s) = 6.90577 7.18605 7.04730
#
# Compressibility (1/GPa) = 0.01920452
#
# Stress axis : x y z
#
# Youngs Moduli (GPa) = 69.73063 83.71746 104.46542
#
# Poissons Ratio (x) = 0.24287 0.28470
# Poissons Ratio (y) = 0.20229 0.28211
# Poissons Ratio (z) = 0.19004 0.22608
#
# Static dielectric constant tensor:
#      x y z
#    x 4.175310 0.000000 0.000000 
#    y 0.000000 4.050810 0.000000 
#    z 0.000000 0.000000 3.830920 
# 
# 
# High freq. dielectric constant tensor:
#      x y z
#    x 1.846980 0.000000 0.000000 
#    y 0.000000 1.844450 0.000000 
#    z 0.000000 0.000000 1.841550 
# 
# From -- ./inp_files/32894.got.cif
#   From: 2010.03.12/outbox.cif.g09.slc.cpg/sg73_17_cif.got.tgz:32894.got - 2010.04.16 15:25:48.
