data_PCOD8296152
_publ_section_title
;
Structure prediction by ZEFSAII (Michael W. Deem and Ramdas Pophale) SiO2 
 PCOD8296152
Probable space group: I B C A 
;
_chemical_formula_sum "Si O2"
_cell_formula_units_Z 112
_cell_length_a 16.197493
_cell_length_b 14.378962
_cell_length_c 24.060804
_cell_angle_alpha 90.000000
_cell_angle_beta 90.000000
_cell_angle_gamma 90.000000
_cell_volume 5603.836715
_symmetry_space_group_name_H-M "I B C A "
_symmetry_group_IT_number 73
_symmetry_cell_setting 'orthorhombic'
loop_
_space_group_symop_operation_xyz
x,y,z
-x,1/2-y,z
x,-y,1/2-z
1/2-x,y,-z
-x,-y,-z
x,1/2+y,-z
-x,y,1/2+z
1/2+x,-y,z
1/2+x,1/2+y,1/2+z
1/2-x,-y,1/2+z
1/2+x,1/2-y,-z
-x,1/2+y,1/2-z
1/2-x,1/2-y,1/2-z
1/2+x,y,1/2-z
1/2-x,1/2+y,z
x,1/2-y,1/2+z
loop_
_atom_site_type_symbol
_atom_site_label
_atom_site_fract_x
_atom_site_fract_y
_atom_site_fract_z
Si Si1 0.773376 0.627900 0.616046
Si Si2 0.765430 0.794411 0.308678
Si Si3 0.530454 0.480921 0.895390
Si Si4 0.426178 0.686449 0.636238
Si Si5 0.944728 0.837542 0.072725
Si Si6 0.867935 0.829630 0.954554
Si Si7 0.175342 0.520485 0.684523
O O1 0.738958 0.716611 0.646001
O O2 0.872383 0.633137 0.615452
O O3 0.728298 0.639708 0.555369
O O4 0.743834 0.538318 0.650811
O O5 0.750000 0.750000 0.250000
O O6 0.859648 0.829272 0.314786
O O7 0.698983 0.872539 0.323045
O O8 0.452612 0.418522 0.877894
O O9 0.503777 0.572868 0.929273
O O10 0.583456 0.421722 0.937786
O O11 0.584254 0.505293 0.840509
O O12 0.500000 0.750000 0.661010
O O13 0.393089 0.738205 0.580665
O O14 0.000000 0.750000 0.092588
O O15 0.895460 0.809031 0.017176
O O16 0.176090 0.500000 0.750000
#
# Coordination Sequence:
#
# PCOD8296152 Si02
#       7
#    16  16  16  16  16  16  16
#     4  10  22  40  59  86 119 156 199 238 286 361
#     4  11  21  38  61  81 111 156 195 236 292 346
#     4  10  21  38  58  86 119 150 195 248 289 346
#     4   9  19  38  61  86 111 148 197 243 287 350
#     4  12  22  36  57  91 126 151 189 247 300 336
#     4   9  20  38  64  84 114 160 196 232 295 358
#     4  11  22  40  61  81 114 163 201 239 295 350
#
# _framework density 19.986307
#
# number of rings (size 3 to 8) (size 9 to 14) (size 15 to 20)
#    0.000    1.714    1.429    4.714    0.000    0.000 
#    2.571    0.714    0.000    5.143    0.000    0.000 
#    0.000    0.000    0.000    0.000    0.000    0.000 
#
# Total GULP energy -693908.250954 kJ/mol
# GULP energy per Si atom -12391.218767 kJ/mol
# Density = 1.994082 g / cm^3
# Si number density = 19.986307 Si / 1000 Ang^3
#
#
#
# Elastic Constant Matrix: (Units=GPa)
#
#
# Indices 1 2 3 4 5 6 
#
# 1 88.4662 27.9254 23.2142 0.0000 0.0000 0.0000
# 2 27.9254 121.3168 15.5336 0.0000 0.0000 0.0000
# 3 23.2142 15.5336 73.4916 0.0000 0.0000 0.0000
# 4 0.0000 0.0000 0.0000 12.8676 0.0000 0.0000
# 5 0.0000 0.0000 0.0000 0.0000 -51.7285 0.0000
# 6 0.0000 0.0000 0.0000 0.0000 0.0000 22.4744
#
#
#
# Elastic Compliance Matrix: (Units=1/GPa)
#
#
# Indices 1 2 3 4 5 6 
#
# 1 0.013047 -0.002544 -0.003584 0.000000 0.000000 0.000000
# 2 -0.002544 0.008968 -0.001092 0.000000 0.000000 0.000000
# 3 -0.003584 -0.001092 0.014970 0.000000 0.000000 0.000000
# 4 0.000000 0.000000 0.000000 0.077715 0.000000 0.000000
# 5 0.000000 0.000000 0.000000 0.000000 -0.019332 0.000000
# 6 0.000000 0.000000 0.000000 0.000000 0.000000 0.044495
#
#
# Mechanical properties :
#
#
# Convention : Reuss Voigt Hill
#
# Bulk Modulus (GPa) = 44.35432 46.29119 45.32275
# Shear Modulus (GPa) = 30.89883 11.16279 21.03081
#
# Velocity S-wave (km/s) = 3.93619 2.36587 3.24738
# Velocity P-wave (km/s) = 6.54970 5.53849 6.06521
#
# Compressibility (1/GPa) = 0.02254572
#
# Stress axis : x y z
#
# Youngs Moduli (GPa) = 76.64436 111.50278 66.80149
#
# Poissons Ratio (x) = 0.28371 0.23938
# Poissons Ratio (y) = 0.19502 0.07294
# Poissons Ratio (z) = 0.27466 0.12175
#
# Static dielectric constant tensor:
#      x y z
#    x 3.965880 0.000000 0.000000 
#    y 0.000000 3.702800 0.000000 
#    z 0.000000 0.000000 3.459340 
# 
# 
# High freq. dielectric constant tensor:
#      x y z
#    x 1.790050 0.000000 0.000000 
#    y 0.000000 1.788570 0.000000 
#    z 0.000000 0.000000 1.760700 
# 
# From -- ./inp_files/32180.got.cif
#   From: 2010.03.12/outbox.cif.g09.slc.cpg/sg73_17_cif.got.tgz:32180.got - 2010.04.16 15:25:48.
