data_PCOD8296212
_publ_section_title
;
Structure prediction by ZEFSAII (Michael W. Deem and Ramdas Pophale) SiO2 
 PCOD8296212
Probable space group: I B C A 
;
_chemical_formula_sum "Si O2"
_cell_formula_units_Z 88
_cell_length_a 12.775883
_cell_length_b 12.009834
_cell_length_c 27.342995
_cell_angle_alpha 90.000000
_cell_angle_beta 90.000000
_cell_angle_gamma 90.000000
_cell_volume 4195.406180
_symmetry_space_group_name_H-M "I B C A "
_symmetry_group_IT_number 73
_symmetry_cell_setting 'orthorhombic'
loop_
_space_group_symop_operation_xyz
x,y,z
-x,1/2-y,z
x,-y,1/2-z
1/2-x,y,-z
-x,-y,-z
x,1/2+y,-z
-x,y,1/2+z
1/2+x,-y,z
1/2+x,1/2+y,1/2+z
1/2-x,-y,1/2+z
1/2+x,1/2-y,-z
-x,1/2+y,1/2-z
1/2-x,1/2-y,1/2-z
1/2+x,y,1/2-z
1/2-x,1/2+y,z
x,1/2-y,1/2+z
loop_
_atom_site_type_symbol
_atom_site_label
_atom_site_fract_x
_atom_site_fract_y
_atom_site_fract_z
Si Si1 0.500000 0.750000 0.021258
Si Si2 0.245012 0.590288 0.285022
Si Si3 0.277327 0.697118 0.054106
Si Si4 0.422552 0.339062 0.071682
Si Si5 0.393070 0.197272 0.787778
Si Si6 0.155406 0.035554 0.129712
O O1 0.531207 0.647749 0.983911
O O2 0.400515 0.729619 0.055989
O O3 0.184141 0.500000 0.250000
O O4 0.351298 0.620027 0.255798
O O5 0.184322 0.701322 0.297965
O O6 0.269615 0.538187 0.337036
O O7 0.197967 0.795540 0.069284
O O8 0.266035 0.596208 0.092090
O O9 0.250000 0.653280 0.000000
O O10 0.500000 0.250000 0.099132
O O11 0.425607 0.456333 0.100143
O O12 0.500000 0.250000 0.769780
O O13 0.407637 0.124917 0.837239
#
# Coordination Sequence:
#
# PCOD8296212 Si02
#       6
#     8  16  16  16  16  16
#     4   8  20  40  60  82 126 162 206 264 312 374
#     4   9  21  41  61  88 127 157 199 253 317 380
#     4  10  21  40  60  89 123 168 209 263 316 374
#     4   9  21  40  57  87 123 160 208 257 316 371
#     4  10  22  40  63  93 123 161 203 259 315 381
#     4  11  22  37  63  93 120 164 210 257 319 377
#
# _framework density 20.975324000000001
#
# number of rings (size 3 to 8) (size 9 to 14) (size 15 to 20)
#    0.545    1.818    0.000    1.091    1.273    7.273 
#    3.273    0.000    0.000    0.000    0.000    0.000 
#    0.000    0.000    0.000    0.000    0.000    0.000 
#
# Total GULP energy -545193.160404 kJ/mol
# GULP energy per Si atom -12390.753646 kJ/mol
# Density = 2.092758 g / cm^3
# Si number density = 20.975324 Si / 1000 Ang^3
#
#
#
# Elastic Constant Matrix: (Units=GPa)
#
#
# Indices 1 2 3 4 5 6 
#
# 1 119.1871 36.7729 32.5214 0.0000 0.0000 0.0000
# 2 36.7729 110.8716 49.4967 0.0000 0.0000 0.0000
# 3 32.5214 49.4967 103.3915 0.0000 0.0000 0.0000
# 4 0.0000 0.0000 0.0000 30.5722 0.0000 0.0000
# 5 0.0000 0.0000 0.0000 0.0000 558.2949 0.0000
# 6 0.0000 0.0000 0.0000 0.0000 0.0000 21.6686
#
#
#
# Elastic Compliance Matrix: (Units=1/GPa)
#
#
# Indices 1 2 3 4 5 6 
#
# 1 0.009634 -0.002343 -0.001909 0.000000 0.000000 0.000000
# 2 -0.002343 0.012041 -0.005027 0.000000 0.000000 0.000000
# 3 -0.001909 -0.005027 0.012679 0.000000 0.000000 0.000000
# 4 0.000000 0.000000 0.000000 0.032709 0.000000 0.000000
# 5 0.000000 0.000000 0.000000 0.000000 0.001791 0.000000
# 6 0.000000 0.000000 0.000000 0.000000 0.000000 0.046150
#
#
# Mechanical properties :
#
#
# Convention : Reuss Voigt Hill
#
# Bulk Modulus (GPa) = 63.30836 63.44805 63.37820
# Shear Modulus (GPa) = 36.01587 136.41776 86.21682
#
# Velocity S-wave (km/s) = 4.14824 8.07332 6.41819
# Velocity P-wave (km/s) = 7.29326 10.82678 9.23068
#
# Compressibility (1/GPa) = 0.01579570
#
# Stress axis : x y z
#
# Youngs Moduli (GPa) = 103.80016 83.04957 78.87037
#
# Poissons Ratio (x) = 0.19461 0.15053
# Poissons Ratio (y) = 0.24323 0.39651
# Poissons Ratio (z) = 0.19810 0.41752
#
# Static dielectric constant tensor:
#      x y z
#    x 3.648830 0.000000 0.000000 
#    y 0.000000 3.809450 0.000000 
#    z 0.000000 0.000000 3.831990 
# 
# 
# High freq. dielectric constant tensor:
#      x y z
#    x 1.800090 0.000000 0.000000 
#    y 0.000000 1.817560 0.000000 
#    z 0.000000 0.000000 1.825340 
# 
# From -- ./inp_files/33898.got.cif
#   From: 2010.03.12/outbox.cif.g09.slc.cpg/sg73_17_cif.got.tgz:33898.got - 2010.04.16 15:25:48.
