data_PCOD8296924
_publ_section_title
;
Structure prediction by ZEFSAII (Michael W. Deem and Ramdas Pophale) SiO2 
 PCOD8296924
Probable space group: I B C A 
;
_chemical_formula_sum "Si O2"
_cell_formula_units_Z 72
_cell_length_a 13.939143
_cell_length_b 24.603803
_cell_length_c 9.465530
_cell_angle_alpha 90.000000
_cell_angle_beta 90.000000
_cell_angle_gamma 90.000000
_cell_volume 3246.259629
_symmetry_space_group_name_H-M "I B C A "
_symmetry_group_IT_number 73
_symmetry_cell_setting 'orthorhombic'
loop_
_space_group_symop_operation_xyz
x,y,z
-x,1/2-y,z
x,-y,1/2-z
1/2-x,y,-z
-x,-y,-z
x,1/2+y,-z
-x,y,1/2+z
1/2+x,-y,z
1/2+x,1/2+y,1/2+z
1/2-x,-y,1/2+z
1/2+x,1/2-y,-z
-x,1/2+y,1/2-z
1/2-x,1/2-y,1/2-z
1/2+x,y,1/2-z
1/2-x,1/2+y,z
x,1/2-y,1/2+z
loop_
_atom_site_type_symbol
_atom_site_label
_atom_site_fract_x
_atom_site_fract_y
_atom_site_fract_z
Si Si1 0.411086 0.716592 0.449524
Si Si2 0.723672 0.358647 0.732545
Si Si3 0.250000 0.794423 0.500000
Si Si4 0.565778 0.061948 0.205437
Si Si5 0.416543 0.888646 0.095383
O O1 0.500000 0.750000 0.381588
O O2 0.346201 0.686599 0.333981
O O3 0.342509 0.757670 0.535390
O O4 0.455929 0.671316 0.554914
O O5 0.657717 0.409568 0.777409
O O6 0.803516 0.381107 0.625144
O O7 0.774914 0.332475 0.867276
O O8 0.469145 0.089102 0.266428
O O9 0.568352 0.000000 0.250000
O O10 0.568541 0.069746 0.035784
#
# Coordination Sequence:
#
# PCOD8296924 Si02
#       5
#    16  16   8  16  16
#     4  11  23  41  69  98 137 185 221 282 348 411
#     4  11  26  44  66 101 144 175 237 288 343 416
#     4  12  24  42  66 104 136 188 230 272 346 432
#     4  11  25  47  72  99 132 182 234 289 360 408
#     4  11  25  47  69 101 142 175 231 298 337 424
#
# _framework density 22.179371
#
# number of rings (size 3 to 8) (size 9 to 14) (size 15 to 20)
#    0.000    0.889    2.222    4.667    9.333    1.778 
#    4.000    0.000    0.000    0.000    0.000    0.000 
#    0.000    0.000    0.000    0.000    0.000    0.000 
#
# Total GULP energy -446370.794212 kJ/mol
# GULP energy per Si atom -12399.188728 kJ/mol
# Density = 2.212889 g / cm^3
# Si number density = 22.179371 Si / 1000 Ang^3
#
#
#
# Elastic Constant Matrix: (Units=GPa)
#
#
# Indices 1 2 3 4 5 6 
#
# 1 132.6319 78.4778 47.4740 0.0000 0.0000 -0.0001
# 2 78.4778 126.2677 54.0246 -0.0006 -0.0001 -0.0001
# 3 47.4740 54.0246 111.8706 0.0002 -0.0002 0.0003
# 4 0.0000 -0.0006 0.0002 12.4490 -0.0001 0.0001
# 5 0.0000 -0.0001 -0.0002 -0.0001 34.0098 0.0000
# 6 -0.0001 -0.0001 0.0003 0.0001 0.0000 26.6518
#
#
#
# Elastic Compliance Matrix: (Units=1/GPa)
#
#
# Indices 1 2 3 4 5 6 
#
# 1 0.012243 -0.006789 -0.001917 0.000000 0.000000 0.000000
# 2 -0.006789 0.013747 -0.003758 0.000001 0.000000 0.000000
# 3 -0.001917 -0.003758 0.011567 0.000000 0.000000 0.000000
# 4 0.000000 0.000001 0.000000 0.080328 0.000000 0.000000
# 5 0.000000 0.000000 0.000000 0.000000 0.029403 0.000000
# 6 0.000000 0.000000 0.000000 0.000000 0.000000 0.037521
#
#
# Mechanical properties :
#
#
# Convention : Reuss Voigt Hill
#
# Bulk Modulus (GPa) = 79.17860 81.19146 80.18503
# Shear Modulus (GPa) = 23.37044 27.34170 25.35607
#
# Velocity S-wave (km/s) = 3.24960 3.51487 3.38483
# Velocity P-wave (km/s) = 7.06092 7.29100 7.17688
#
# Compressibility (1/GPa) = 0.01262967
#
# Stress axis : x y z
#
# Youngs Moduli (GPa) = 81.68061 72.74359 86.45277
#
# Poissons Ratio (x) = 0.49386 0.16572
# Poissons Ratio (y) = 0.55453 0.32486
# Poissons Ratio (z) = 0.15657 0.27335
#
# Static dielectric constant tensor:
#      x y z
#    x 4.042210 0.000000 0.000000 
#    y 0.000000 4.175390 0.000000 
#    z 0.000000 0.000000 3.872630 
# 
# 
# High freq. dielectric constant tensor:
#      x y z
#    x 1.879230 0.000000 0.000000 
#    y 0.000000 1.873860 0.000000 
#    z 0.000000 0.000000 1.863730 
# 
# From -- ./inp_files/4838.got.cif
#   From: 2010.03.12/outbox.cif.g09.slc.cpg/sg73_3_cif.got.tgz:4838.got - 2010.04.16 15:25:48.
