data_PCOD8296835
_publ_section_title
;
Structure prediction by ZEFSAII (Michael W. Deem and Ramdas Pophale) SiO2 
 PCOD8296835
Probable space group: I B C A 
;
_chemical_formula_sum "Si O2"
_cell_formula_units_Z 112
_cell_length_a 15.907630
_cell_length_b 22.128411
_cell_length_c 14.945347
_cell_angle_alpha 90.000000
_cell_angle_beta 90.000000
_cell_angle_gamma 90.000000
_cell_volume 5260.920186
_symmetry_space_group_name_H-M "I B C A "
_symmetry_group_IT_number 73
_symmetry_cell_setting 'orthorhombic'
loop_
_space_group_symop_operation_xyz
x,y,z
-x,1/2-y,z
x,-y,1/2-z
1/2-x,y,-z
-x,-y,-z
x,1/2+y,-z
-x,y,1/2+z
1/2+x,-y,z
1/2+x,1/2+y,1/2+z
1/2-x,-y,1/2+z
1/2+x,1/2-y,-z
-x,1/2+y,1/2-z
1/2-x,1/2-y,1/2-z
1/2+x,y,1/2-z
1/2-x,1/2+y,z
x,1/2-y,1/2+z
loop_
_atom_site_type_symbol
_atom_site_label
_atom_site_fract_x
_atom_site_fract_y
_atom_site_fract_z
Si Si1 0.027080 0.684695 0.744536
Si Si2 0.506806 0.397568 0.407565
Si Si3 0.725029 0.568257 0.397550
Si Si4 0.057927 0.128376 0.913510
Si Si5 0.819967 0.894544 0.727907
Si Si6 0.303589 0.567392 0.589712
Si Si7 0.540416 0.019106 0.157371
O O1 0.126294 0.668528 0.729695
O O2 0.000000 0.750000 0.782405
O O3 0.991894 0.635135 0.812325
O O4 0.980101 0.679729 0.649617
O O5 0.462341 0.355458 0.482781
O O6 0.602682 0.411583 0.433758
O O7 0.449527 0.458217 0.400910
O O8 0.750000 0.567750 0.500000
O O9 0.655027 0.620514 0.389237
O O10 0.799205 0.588004 0.330294
O O11 0.692974 0.501084 0.372575
O O12 0.015150 0.063722 0.899838
O O13 0.736353 0.888941 0.666797
O O14 0.871096 0.949686 0.681862
O O15 0.250000 0.573530 0.500000
O O16 0.493814 0.000000 0.250000
#
# Coordination Sequence:
#
# PCOD8296835 Si02
#       7
#    16  16  16  16  16  16  16
#     4  11  26  46  66  87 117 174 234 274 321 377
#     4  12  23  40  66  94 132 172 216 261 326 398
#     4  11  23  34  58  98 136 166 199 250 329 399
#     4  11  23  39  65  92 134 168 214 264 321 399
#     4  11  23  38  62  90 134 163 209 270 325 380
#     4  11  23  35  59  99 135 164 199 251 333 403
#     4  11  20  35  61  92 130 168 199 246 327 393
#
# _framework density 21.289051000000001
#
# number of rings (size 3 to 8) (size 9 to 14) (size 15 to 20)
#    0.000    0.857    4.286    5.143    4.000    0.571 
#    0.000    2.857    0.000    1.714    0.000    0.000 
#    0.000    0.000    0.000    0.000    0.000    0.000 
#
# Total GULP energy -694214.895133 kJ/mol
# GULP energy per Si atom -12396.694556 kJ/mol
# Density = 2.124060 g / cm^3
# Si number density = 21.289051 Si / 1000 Ang^3
#
#
#
# Elastic Constant Matrix: (Units=GPa)
#
#
# Indices 1 2 3 4 5 6 
#
# 1 102.4097 20.2180 17.1103 0.0000 0.0000 0.0000
# 2 20.2180 68.6749 -0.7668 -0.0001 0.0000 0.0000
# 3 17.1103 -0.7668 88.7017 -0.0001 0.0000 0.0000
# 4 0.0000 -0.0001 -0.0001 15.4857 0.0000 0.0000
# 5 0.0000 0.0000 0.0000 0.0000 39.7823 0.0000
# 6 0.0000 0.0000 0.0000 0.0000 0.0000 16.6968
#
#
#
# Elastic Compliance Matrix: (Units=1/GPa)
#
#
# Indices 1 2 3 4 5 6 
#
# 1 0.010745 -0.003187 -0.002100 0.000000 0.000000 0.000000
# 2 -0.003187 0.015508 0.000749 0.000000 0.000000 0.000000
# 3 -0.002100 0.000749 0.011685 0.000000 0.000000 0.000000
# 4 0.000000 0.000000 0.000000 0.064576 0.000000 0.000000
# 5 0.000000 0.000000 0.000000 0.000000 0.025137 0.000000
# 6 0.000000 0.000000 0.000000 0.000000 0.000000 0.059892
#
#
# Mechanical properties :
#
#
# Convention : Reuss Voigt Hill
#
# Bulk Modulus (GPa) = 34.64800 36.98994 35.81897
# Shear Modulus (GPa) = 24.24373 29.27461 26.75917
#
# Velocity S-wave (km/s) = 3.37826 3.71226 3.54919
# Velocity P-wave (km/s) = 5.61491 5.98225 5.80149
#
# Compressibility (1/GPa) = 0.02886170
#
# Stress axis : x y z
#
# Youngs Moduli (GPa) = 93.06896 64.48328 85.57737
#
# Poissons Ratio (x) = 0.20549 0.17973
# Poissons Ratio (y) = 0.29658 -0.06408
# Poissons Ratio (z) = 0.19546 -0.04828
#
# Static dielectric constant tensor:
#      x y z
#    x 3.936730 0.000000 0.000000 
#    y 0.000000 3.374760 0.000000 
#    z 0.000000 0.000000 4.032980 
# 
# 
# High freq. dielectric constant tensor:
#      x y z
#    x 1.838780 0.000000 0.000000 
#    y 0.000000 1.775270 0.000000 
#    z 0.000000 0.000000 1.858030 
# 
# From -- ./inp_files/17274.got.cif
#   From: 2010.03.12/outbox.cif.g09.slc.cpg/sg73_9_cif.got.tgz:17274.got - 2010.04.16 15:25:48.
