data_PCOD8296457
_publ_section_title
;
Structure prediction by ZEFSAII (Michael W. Deem and Ramdas Pophale) SiO2 
 PCOD8296457
Probable space group: I B C A 
;
_chemical_formula_sum "Si O2"
_cell_formula_units_Z 120
_cell_length_a 11.439107
_cell_length_b 27.501349
_cell_length_c 17.924590
_cell_angle_alpha 90.000000
_cell_angle_beta 90.000000
_cell_angle_gamma 90.000000
_cell_volume 5638.912432
_symmetry_space_group_name_H-M "I B C A "
_symmetry_group_IT_number 73
_symmetry_cell_setting 'orthorhombic'
loop_
_space_group_symop_operation_xyz
x,y,z
-x,1/2-y,z
x,-y,1/2-z
1/2-x,y,-z
-x,-y,-z
x,1/2+y,-z
-x,y,1/2+z
1/2+x,-y,z
1/2+x,1/2+y,1/2+z
1/2-x,-y,1/2+z
1/2+x,1/2-y,-z
-x,1/2+y,1/2-z
1/2-x,1/2-y,1/2-z
1/2+x,y,1/2-z
1/2-x,1/2+y,z
x,1/2-y,1/2+z
loop_
_atom_site_type_symbol
_atom_site_label
_atom_site_fract_x
_atom_site_fract_y
_atom_site_fract_z
Si Si1 0.961656 0.196652 0.363568
Si Si2 0.106108 0.624827 0.722904
Si Si3 0.043392 0.467838 0.686657
Si Si4 0.910254 0.563815 0.954329
Si Si5 0.161912 0.547212 0.607135
Si Si6 0.500000 0.750000 0.614980
Si Si7 0.889775 0.172709 0.011257
Si Si8 0.217372 0.793160 0.304961
O O1 0.819109 0.197991 0.367628
O O2 0.000000 0.250000 0.337491
O O3 0.995901 0.158644 0.298611
O O4 0.029118 0.181958 0.438862
O O5 0.070781 0.585439 0.784650
O O6 0.152726 0.598853 0.648790
O O7 0.209523 0.657464 0.756718
O O8 0.972736 0.500000 0.750000
O O9 0.153064 0.503217 0.666851
O O10 0.988916 0.462851 0.605685
O O11 0.783639 0.545822 0.932530
O O12 0.934793 0.546170 0.039759
O O13 0.926070 0.621906 0.951528
O O14 0.416403 0.715794 0.567384
O O15 0.410379 0.783307 0.661104
O O16 0.750000 0.173258 0.000000
O O17 0.250000 0.750000 0.250000
#
# Coordination Sequence:
#
# PCOD8296457 Si02
#       8
#    16  16  16  16  16   8  16  16
#     4  12  23  43  68 101 141 188 242 296 352 431
#     4  11  23  44  63 100 140 185 227 290 368 425
#     4  10  24  42  66  98 135 171 234 295 357 439
#     4  11  21  42  71  95 131 181 231 287 365 429
#     4  10  22  42  67  97 129 179 235 286 359 435
#     4  12  28  42  68 102 140 192 240 292 360 422
#     4  12  24  44  73 101 140 189 240 298 358 438
#     4  12  26  42  67  99 146 188 240 295 356 435
#
# _framework density 21.280698999999998
#
# number of rings (size 3 to 8) (size 9 to 14) (size 15 to 20)
#    0.000    0.800    4.667    2.800    3.733    1.600 
#    2.400    1.333    0.000    0.000    0.000    0.000 
#    0.000    0.000    0.000    0.000    0.000    0.000 
#
# Total GULP energy -743377.951828 kJ/mol
# GULP energy per Si atom -12389.632530 kJ/mol
# Density = 2.123226 g / cm^3
# Si number density = 21.280699 Si / 1000 Ang^3
#
#
#
# Elastic Constant Matrix: (Units=GPa)
#
#
# Indices 1 2 3 4 5 6 
#
# 1 104.1617 32.1781 43.4773 0.0000 0.0000 0.0000
# 2 32.1781 144.7686 57.4432 -0.0001 0.0000 0.0000
# 3 43.4773 57.4432 121.3963 -0.0019 0.0001 0.0000
# 4 0.0000 -0.0001 -0.0019 111.4634 0.0002 0.0000
# 5 0.0000 0.0000 0.0001 0.0002 32.9244 0.0000
# 6 0.0000 0.0000 0.0000 0.0000 0.0000 21.9367
#
#
#
# Elastic Compliance Matrix: (Units=1/GPa)
#
#
# Indices 1 2 3 4 5 6 
#
# 1 0.011436 -0.001129 -0.003562 0.000000 0.000000 0.000000
# 2 -0.001129 0.008616 -0.003673 0.000000 0.000000 0.000000
# 3 -0.003562 -0.003673 0.011251 0.000000 0.000000 0.000000
# 4 0.000000 0.000000 0.000000 0.008972 0.000000 0.000000
# 5 0.000000 0.000000 0.000000 0.000000 0.030373 0.000000
# 6 0.000000 0.000000 0.000000 0.000000 0.000000 0.045586
#
#
# Mechanical properties :
#
#
# Convention : Reuss Voigt Hill
#
# Bulk Modulus (GPa) = 68.60296 70.72488 69.66392
# Shear Modulus (GPa) = 36.28003 49.08009 42.68006
#
# Velocity S-wave (km/s) = 4.13344 4.80763 4.48322
# Velocity P-wave (km/s) = 7.42210 8.00775 7.72048
#
# Compressibility (1/GPa) = 0.01457663
#
# Stress axis : x y z
#
# Youngs Moduli (GPa) = 87.44528 116.06696 88.88194
#
# Poissons Ratio (x) = 0.13100 0.31656
# Poissons Ratio (y) = 0.09869 0.32643
# Poissons Ratio (z) = 0.31144 0.42627
#
# Static dielectric constant tensor:
#      x y z
#    x 4.055060 0.000000 -0.000030 
#    y 0.000000 4.133440 0.000010 
#    z -0.000030 0.000010 -2.364470 
# 
# 
# High freq. dielectric constant tensor:
#      x y z
#    x 1.808630 0.000000 0.000000 
#    y 0.000000 1.854250 0.000000 
#    z 0.000000 0.000000 1.853770 
# 
# From -- ./inp_files/21500.got.cif
#   From: 2010.03.12/outbox.cif.g09.slc.cpg/sg73_11_cif.got.tgz:21500.got - 2010.04.16 15:25:48.
