data_PCOD8296329
_publ_section_title
;
Structure prediction by ZEFSAII (Michael W. Deem and Ramdas Pophale) SiO2 
 PCOD8296329
Probable space group: I B C A 
;
_chemical_formula_sum "Si O2"
_cell_formula_units_Z 72
_cell_length_a 29.310911
_cell_length_b 13.269151
_cell_length_c 7.434028
_cell_angle_alpha 90.000000
_cell_angle_beta 90.000000
_cell_angle_gamma 90.000000
_cell_volume 2891.323230
_symmetry_space_group_name_H-M "I B C A "
_symmetry_group_IT_number 73
_symmetry_cell_setting 'orthorhombic'
loop_
_space_group_symop_operation_xyz
x,y,z
-x,1/2-y,z
x,-y,1/2-z
1/2-x,y,-z
-x,-y,-z
x,1/2+y,-z
-x,y,1/2+z
1/2+x,-y,z
1/2+x,1/2+y,1/2+z
1/2-x,-y,1/2+z
1/2+x,1/2-y,-z
-x,1/2+y,1/2-z
1/2-x,1/2-y,1/2-z
1/2+x,y,1/2-z
1/2-x,1/2+y,z
x,1/2-y,1/2+z
loop_
_atom_site_type_symbol
_atom_site_label
_atom_site_fract_x
_atom_site_fract_y
_atom_site_fract_z
Si Si1 0.401938 0.391390 0.378031
Si Si2 0.750000 0.760376 0.500000
Si Si3 0.952117 0.048940 0.061944
Si Si4 0.550105 0.273071 0.190856
Si Si5 0.199866 0.115192 0.253638
O O1 0.413973 0.510899 0.412441
O O2 0.430714 0.340074 0.217474
O O3 0.417062 0.335217 0.560611
O O4 0.349217 0.376095 0.338353
O O5 0.793852 0.833718 0.548429
O O6 0.736639 0.682597 0.653661
O O7 0.952675 0.168853 0.110814
O O8 0.938630 0.000000 0.250000
O O9 0.000000 0.000000 0.000000
O O10 0.500000 0.250000 0.113798
O O11 0.215918 0.000000 0.250000
#
# Coordination Sequence:
#
# PCOD8296329 Si02
#       5
#    16   8  16  16  16
#     4  11  24  39  62  98 133 178 238 294 351 422
#     4  10  24  48  78 108 140 178 234 294 390 476
#     4  10  22  37  56  86 127 181 237 288 336 403
#     4  11  22  39  62  90 135 193 249 296 347 408
#     4  11  24  46  74 109 142 182 229 302 381 459
#
# _framework density 24.902094000000002
#
# number of rings (size 3 to 8) (size 9 to 14) (size 15 to 20)
#    0.000    1.333    2.222    2.667    3.111    4.444 
#    0.000   10.000    0.000    0.000    0.000    0.000 
#    0.000    0.000    0.000    0.000    0.000    0.000 
#
# Total GULP energy -446018.944439 kJ/mol
# GULP energy per Si atom -12389.415123 kJ/mol
# Density = 2.484542 g / cm^3
# Si number density = 24.902094 Si / 1000 Ang^3
#
#
#
# Elastic Constant Matrix: (Units=GPa)
#
#
# Indices 1 2 3 4 5 6 
#
# 1 143.7630 69.7683 41.5029 0.0000 0.0000 0.0000
# 2 69.7683 217.6433 44.0659 0.0000 0.0000 0.0000
# 3 41.5029 44.0659 70.5573 0.0000 0.0000 0.0000
# 4 0.0000 0.0000 0.0000 46.9470 0.0000 0.0000
# 5 0.0000 0.0000 0.0000 0.0000 156.2081 0.0000
# 6 0.0000 0.0000 0.0000 0.0000 0.0000 39.5378
#
#
#
# Elastic Compliance Matrix: (Units=1/GPa)
#
#
# Indices 1 2 3 4 5 6 
#
# 1 0.009154 -0.002111 -0.004066 0.000000 0.000000 0.000000
# 2 -0.002111 0.005747 -0.002347 0.000000 0.000000 0.000000
# 3 -0.004066 -0.002347 0.018031 0.000000 0.000000 0.000000
# 4 0.000000 0.000000 0.000000 0.021301 0.000000 0.000000
# 5 0.000000 0.000000 0.000000 0.000000 0.006402 0.000000
# 6 0.000000 0.000000 0.000000 0.000000 0.000000 0.025292
#
#
# Mechanical properties :
#
#
# Convention : Reuss Voigt Hill
#
# Bulk Modulus (GPa) = 62.96273 82.51532 72.73903
# Shear Modulus (GPa) = 46.18105 66.98034 56.58070
#
# Velocity S-wave (km/s) = 4.31107 5.19190 4.77185
# Velocity P-wave (km/s) = 7.07951 8.31559 7.72232
#
# Compressibility (1/GPa) = 0.01588241
#
# Stress axis : x y z
#
# Youngs Moduli (GPa) = 109.23755 174.01309 55.46147
#
# Poissons Ratio (x) = 0.36739 0.22552
# Poissons Ratio (y) = 0.23063 0.13018
# Poissons Ratio (z) = 0.44418 0.40843
#
# Static dielectric constant tensor:
#      x y z
#    x 3.962510 0.000000 0.000000 
#    y 0.000000 5.831670 0.000000 
#    z 0.000000 0.000000 5.471510 
# 
# 
# High freq. dielectric constant tensor:
#      x y z
#    x 1.945500 0.000000 0.000000 
#    y 0.000000 2.040610 0.000000 
#    z 0.000000 0.000000 2.032980 
# 
# From -- ./inp_files/7610.got.cif
#   From: 2010.03.12/outbox.cif.g09.slc.cpg/sg73_4_cif.got.tgz:7610.got - 2010.04.16 15:25:48.
