data_PCOD8296615
_publ_section_title
;
Structure prediction by ZEFSAII (Michael W. Deem and Ramdas Pophale) SiO2 
 PCOD8296615
Probable space group: I B C A 
;
_chemical_formula_sum "Si O2"
_cell_formula_units_Z 64
_cell_length_a 8.730608
_cell_length_b 20.507418
_cell_length_c 16.254490
_cell_angle_alpha 90.000000
_cell_angle_beta 90.000000
_cell_angle_gamma 90.000000
_cell_volume 2910.240099
_symmetry_space_group_name_H-M "I B C A "
_symmetry_group_IT_number 73
_symmetry_cell_setting 'orthorhombic'
loop_
_space_group_symop_operation_xyz
x,y,z
-x,1/2-y,z
x,-y,1/2-z
1/2-x,y,-z
-x,-y,-z
x,1/2+y,-z
-x,y,1/2+z
1/2+x,-y,z
1/2+x,1/2+y,1/2+z
1/2-x,-y,1/2+z
1/2+x,1/2-y,-z
-x,1/2+y,1/2-z
1/2-x,1/2-y,1/2-z
1/2+x,y,1/2-z
1/2-x,1/2+y,z
x,1/2-y,1/2+z
loop_
_atom_site_type_symbol
_atom_site_label
_atom_site_fract_x
_atom_site_fract_y
_atom_site_fract_z
Si Si1 0.468074 0.325373 0.659902
Si Si2 0.976132 0.536571 0.864956
Si Si3 0.277050 0.904858 0.752790
Si Si4 0.920676 0.914610 0.027555
O O1 0.500000 0.250000 0.672855
O O2 0.613820 0.365560 0.687857
O O3 0.317707 0.348135 0.708076
O O4 0.437247 0.341631 0.563224
O O5 0.830968 0.549019 0.807535
O O6 0.972395 0.461801 0.896340
O O7 0.130385 0.550248 0.812642
O O8 0.970518 0.580368 0.947768
O O9 0.750000 0.933233 0.000000
#
# Coordination Sequence:
#
# PCOD8296615 Si02
#       4
#    16  16  16  16
#     4  11  24  43  65  95 134 178 226 270 327 397
#     4  10  24  43  69  97 134 166 218 278 344 396
#     4  10  23  44  68  98 128 176 222 276 334 401
#     4  11  24  44  66 100 138 171 218 282 336 404
#
# _framework density 21.991313000000002
#
# number of rings (size 3 to 8) (size 9 to 14) (size 15 to 20)
#    0.000    1.500    2.500    0.750    7.000    6.000 
#    4.500    1.250    0.000    0.000    0.000    0.000 
#    0.000    0.000    0.000    0.000    0.000    0.000 
#
# Total GULP energy -396715.413116 kJ/mol
# GULP energy per Si atom -12397.356660 kJ/mol
# Density = 2.194126 g / cm^3
# Si number density = 21.991313 Si / 1000 Ang^3
#
#
#
# Elastic Constant Matrix: (Units=GPa)
#
#
# Indices 1 2 3 4 5 6 
#
# 1 130.3461 62.7434 61.0013 0.0000 0.0000 0.0000
# 2 62.7434 81.2914 69.8629 0.0000 0.0000 0.0000
# 3 61.0013 69.8629 153.5602 -0.0001 0.0000 0.0000
# 4 0.0000 0.0000 -0.0001 44.0036 0.0000 0.0000
# 5 0.0000 0.0000 0.0000 0.0000 55.7198 0.0000
# 6 0.0000 0.0000 0.0000 0.0000 0.0000 0.3442
#
#
#
# Elastic Compliance Matrix: (Units=1/GPa)
#
#
# Indices 1 2 3 4 5 6 
#
# 1 0.012288 -0.008685 -0.000930 0.000000 0.000000 0.000000
# 2 -0.008685 0.026337 -0.008532 0.000000 0.000000 0.000001
# 3 -0.000930 -0.008532 0.010763 0.000000 0.000000 -0.000001
# 4 0.000000 0.000000 0.000000 0.022725 0.000000 0.000000
# 5 0.000000 0.000000 0.000000 0.000000 0.017947 0.000001
# 6 0.000000 0.000001 -0.000001 0.000000 0.000001 2.905114
#
#
# Mechanical properties :
#
#
# Convention : Reuss Voigt Hill
#
# Bulk Modulus (GPa) = 76.36981 83.60145 79.98563
# Shear Modulus (GPa) = 1.64699 31.45287 16.54993
#
# Velocity S-wave (km/s) = 0.86635 3.78596 2.74627
# Velocity P-wave (km/s) = 5.98359 7.56369 6.81956
#
# Compressibility (1/GPa) = 0.01309418
#
# Stress axis : x y z
#
# Youngs Moduli (GPa) = 81.38290 37.96897 92.90743
#
# Poissons Ratio (x) = 0.32975 0.08641
# Poissons Ratio (y) = 0.70678 0.79272
# Poissons Ratio (z) = 0.07569 0.32396
#
# Static dielectric constant tensor:
#      x y z
#    x 4.148660 0.000000 0.000000 
#    y 0.000000 4.927740 0.000000 
#    z 0.000000 0.000000 4.319830 
# 
# 
# High freq. dielectric constant tensor:
#      x y z
#    x 1.881090 0.000000 0.000000 
#    y 0.000000 1.839280 0.000000 
#    z 0.000000 0.000000 1.888300 
# 
# From -- ./inp_files/5950.got.cif
#   From: 2010.03.12/outbox.cif.g09.slc.cpg/sg73_3_cif.got.tgz:5950.got - 2010.04.16 15:25:48.
