data_PCOD8296969
_publ_section_title
;
Structure prediction by ZEFSAII (Michael W. Deem and Ramdas Pophale) SiO2 
 PCOD8296969
Probable space group: I B C A 
;
_chemical_formula_sum "Si O2"
_cell_formula_units_Z 64
_cell_length_a 17.350497
_cell_length_b 5.308310
_cell_length_c 30.154893
_cell_angle_alpha 90.000000
_cell_angle_beta 90.000000
_cell_angle_gamma 90.000000
_cell_volume 2777.320429
_symmetry_space_group_name_H-M "I B C A "
_symmetry_group_IT_number 73
_symmetry_cell_setting 'orthorhombic'
loop_
_space_group_symop_operation_xyz
x,y,z
-x,1/2-y,z
x,-y,1/2-z
1/2-x,y,-z
-x,-y,-z
x,1/2+y,-z
-x,y,1/2+z
1/2+x,-y,z
1/2+x,1/2+y,1/2+z
1/2-x,-y,1/2+z
1/2+x,1/2-y,-z
-x,1/2+y,1/2-z
1/2-x,1/2-y,1/2-z
1/2+x,y,1/2-z
1/2-x,1/2+y,z
x,1/2-y,1/2+z
loop_
_atom_site_type_symbol
_atom_site_label
_atom_site_fract_x
_atom_site_fract_y
_atom_site_fract_z
Si Si1 0.200946 0.730398 0.807417
Si Si2 0.592125 0.000000 0.750000
Si Si3 0.500000 0.250000 0.175570
Si Si4 0.917134 0.126776 0.622235
Si Si5 0.910170 0.705858 0.478888
O O1 0.236710 0.453549 0.806956
O O2 0.146991 0.764128 0.763641
O O3 0.150438 0.769390 0.851825
O O4 0.538643 0.045020 0.707552
O O5 0.430724 0.352186 0.144229
O O6 0.892877 0.120452 0.571123
O O7 0.000000 0.250000 0.628227
O O8 0.873776 0.479819 0.509013
O O9 0.000000 0.750000 0.488763
#
# Coordination Sequence:
#
# PCOD8296969 Si02
#       5
#    16   8   8  16  16
#     4  12  27  46  67  97 136 181 227 280 341 404
#     4  12  24  44  66  96 134 184 236 290 344 402
#     4  12  24  42  68 102 134 176 238 294 342 400
#     4  11  24  43  69  98 134 176 224 280 338 405
#     4   9  20  35  63  99 133 164 209 273 336 398
#
# _framework density 23.043793000000001
#
# number of rings (size 3 to 8) (size 9 to 14) (size 15 to 20)
#    0.000    1.000    2.500    3.750    8.750    2.000 
#    0.000    0.000    0.000    4.500    0.000    0.000 
#    0.000    0.000    0.000    0.000    0.000    0.000 
#
# Total GULP energy -396563.126260 kJ/mol
# GULP energy per Si atom -12392.597696 kJ/mol
# Density = 2.299134 g / cm^3
# Si number density = 23.043793 Si / 1000 Ang^3
#
#
#
# Elastic Constant Matrix: (Units=GPa)
#
#
# Indices 1 2 3 4 5 6 
#
# 1 61.3578 15.1776 29.3478 0.0000 0.0000 0.0000
# 2 15.1776 113.1874 51.9919 0.0000 0.0000 0.0000
# 3 29.3478 51.9919 169.4645 0.0000 0.0000 0.0000
# 4 0.0000 0.0000 0.0000 40.1831 0.0000 0.0000
# 5 0.0000 0.0000 0.0000 0.0000 12.8979 0.0000
# 6 0.0000 0.0000 0.0000 0.0000 0.0000 22.8604
#
#
#
# Elastic Compliance Matrix: (Units=1/GPa)
#
#
# Indices 1 2 3 4 5 6 
#
# 1 0.017894 -0.001136 -0.002750 0.000000 0.000000 0.000000
# 2 -0.001136 0.010356 -0.002981 0.000000 0.000000 0.000000
# 3 -0.002750 -0.002981 0.007292 0.000000 0.000000 0.000000
# 4 0.000000 0.000000 0.000000 0.024886 0.000000 0.000000
# 5 0.000000 0.000000 0.000000 0.000000 0.077532 0.000000
# 6 0.000000 0.000000 0.000000 0.000000 0.000000 0.043744
#
#
# Mechanical properties :
#
#
# Convention : Reuss Voigt Hill
#
# Bulk Modulus (GPa) = 45.85420 59.67161 52.76290
# Shear Modulus (GPa) = 24.66603 31.68778 28.17691
#
# Velocity S-wave (km/s) = 3.27524 3.71227 3.50058
# Velocity P-wave (km/s) = 5.85191 6.65776 6.26780
#
# Compressibility (1/GPa) = 0.02180826
#
# Stress axis : x y z
#
# Youngs Moduli (GPa) = 55.88340 96.55897 137.14229
#
# Poissons Ratio (x) = 0.10970 0.37719
# Poissons Ratio (y) = 0.06349 0.40876
# Poissons Ratio (z) = 0.15370 0.28780
#
# Static dielectric constant tensor:
#      x y z
#    x 4.081250 0.000000 0.000000 
#    y 0.000000 4.479190 0.000000 
#    z 0.000000 0.000000 4.198410 
# 
# 
# High freq. dielectric constant tensor:
#      x y z
#    x 1.878720 0.000000 0.000000 
#    y 0.000000 1.917990 0.000000 
#    z 0.000000 0.000000 1.914320 
# 
# From -- ./inp_files/1162.got.cif
#   From: 2010.03.12/outbox.cif.g09.slc.cpg/sg73_1_cif.got.tgz:1162.got - 2010.04.16 15:25:48.
