data_PCOD8296227
_publ_section_title
;
Structure prediction by ZEFSAII (Michael W. Deem and Ramdas Pophale) SiO2 
 PCOD8296227
Probable space group: I B C A 
;
_chemical_formula_sum "Si O2"
_cell_formula_units_Z 96
_cell_length_a 17.481253
_cell_length_b 11.049149
_cell_length_c 24.724125
_cell_angle_alpha 90.000000
_cell_angle_beta 90.000000
_cell_angle_gamma 90.000000
_cell_volume 4775.538152
_symmetry_space_group_name_H-M "I B C A "
_symmetry_group_IT_number 73
_symmetry_cell_setting 'orthorhombic'
loop_
_space_group_symop_operation_xyz
x,y,z
-x,1/2-y,z
x,-y,1/2-z
1/2-x,y,-z
-x,-y,-z
x,1/2+y,-z
-x,y,1/2+z
1/2+x,-y,z
1/2+x,1/2+y,1/2+z
1/2-x,-y,1/2+z
1/2+x,1/2-y,-z
-x,1/2+y,1/2-z
1/2-x,1/2-y,1/2-z
1/2+x,y,1/2-z
1/2-x,1/2+y,z
x,1/2-y,1/2+z
loop_
_atom_site_type_symbol
_atom_site_label
_atom_site_fract_x
_atom_site_fract_y
_atom_site_fract_z
Si Si1 0.610571 0.578369 0.458421
Si Si2 0.926150 0.332814 0.073991
Si Si3 0.183315 0.873400 0.898456
Si Si4 0.979129 0.555832 0.128105
Si Si5 0.622148 0.542225 0.309811
Si Si6 0.658410 0.263936 0.621525
O O1 0.591966 0.588016 0.521120
O O2 0.666562 0.462592 0.449230
O O3 0.531753 0.567068 0.425229
O O4 0.653723 0.697416 0.436448
O O5 0.851793 0.256821 0.088926
O O6 0.938802 0.425002 0.123676
O O7 0.000000 0.250000 0.063454
O O8 0.271979 0.857307 0.883213
O O9 0.142909 0.927985 0.846278
O O10 0.918775 0.662983 0.132647
O O11 0.031122 0.563582 0.182164
O O12 0.643664 0.500000 0.250000
O O13 0.667371 0.663305 0.330212
#
# Coordination Sequence:
#
# PCOD8296227 Si02
#       6
#    16  16  16  16  16  16
#     4  10  22  38  61  88 125 171 212 253 304 381
#     4  12  21  38  63  92 126 170 212 267 310 371
#     4  10  24  41  57  95 129 164 208 262 318 385
#     4  10  21  40  64  89 120 166 212 264 312 379
#     4  10  22  45  68  91 119 161 216 275 322 381
#     4  10  22  42  62  90 133 165 206 257 326 385
#
# _framework density 20.102446
#
# number of rings (size 3 to 8) (size 9 to 14) (size 15 to 20)
#    0.000    2.000    3.333    3.500    7.000    1.333 
#    6.000    0.833    0.000    0.000    0.000    0.000 
#    0.000    0.000    0.000    0.000    0.000    0.000 
#
# Total GULP energy -595057.387613 kJ/mol
# GULP energy per Si atom -12397.028909 kJ/mol
# Density = 2.005669 g / cm^3
# Si number density = 20.102446 Si / 1000 Ang^3
#
#
#
# Elastic Constant Matrix: (Units=GPa)
#
#
# Indices 1 2 3 4 5 6 
#
# 1 98.3717 28.6653 8.4640 0.0000 0.0000 0.0000
# 2 28.6653 95.4424 20.0586 0.0000 0.0000 0.0000
# 3 8.4640 20.0586 62.7064 0.0000 0.0000 0.0000
# 4 0.0000 0.0000 0.0000 20.7141 0.0000 0.0000
# 5 0.0000 0.0000 0.0000 0.0000 14.2619 0.0000
# 6 0.0000 0.0000 0.0000 0.0000 0.0000 33.7492
#
#
#
# Elastic Compliance Matrix: (Units=1/GPa)
#
#
# Indices 1 2 3 4 5 6 
#
# 1 0.011153 -0.003252 -0.000465 0.000000 0.000000 0.000000
# 2 -0.003252 0.012181 -0.003457 0.000000 0.000000 0.000000
# 3 -0.000465 -0.003457 0.017116 0.000000 0.000000 0.000000
# 4 0.000000 0.000000 0.000000 0.048276 0.000000 0.000000
# 5 0.000000 0.000000 0.000000 0.000000 0.070117 0.000000
# 6 0.000000 0.000000 0.000000 0.000000 0.000000 0.029630
#
#
# Mechanical properties :
#
#
# Convention : Reuss Voigt Hill
#
# Bulk Modulus (GPa) = 38.31294 41.21069 39.76182
# Shear Modulus (GPa) = 23.63808 27.03390 25.33599
#
# Velocity S-wave (km/s) = 3.43283 3.67114 3.55398
# Velocity P-wave (km/s) = 5.90023 6.20601 6.05505
#
# Compressibility (1/GPa) = 0.02610084
#
# Stress axis : x y z
#
# Youngs Moduli (GPa) = 89.66058 82.09592 58.42446
#
# Poissons Ratio (x) = 0.26698 0.02718
# Poissons Ratio (y) = 0.29158 0.20200
# Poissons Ratio (z) = 0.04171 0.28385
#
# Static dielectric constant tensor:
#      x y z
#    x 3.676530 0.000000 0.000000 
#    y 0.000000 3.872950 0.000000 
#    z 0.000000 0.000000 3.342720 
# 
# 
# High freq. dielectric constant tensor:
#      x y z
#    x 1.783060 0.000000 0.000000 
#    y 0.000000 1.803410 0.000000 
#    z 0.000000 0.000000 1.745880 
# 
# From -- ./inp_files/32358.got.cif
#   From: 2010.03.12/outbox.cif.g09.slc.cpg/sg73_17_cif.got.tgz:32358.got - 2010.04.16 15:25:48.
