data_PCOD8296432
_publ_section_title
;
Structure prediction by ZEFSAII (Michael W. Deem and Ramdas Pophale) SiO2 
 PCOD8296432
Probable space group: I B C A 
;
_chemical_formula_sum "Si O2"
_cell_formula_units_Z 112
_cell_length_a 27.723189
_cell_length_b 14.372840
_cell_length_c 13.252369
_cell_angle_alpha 90.000000
_cell_angle_beta 90.000000
_cell_angle_gamma 90.000000
_cell_volume 5280.551671
_symmetry_space_group_name_H-M "I B C A "
_symmetry_group_IT_number 73
_symmetry_cell_setting 'orthorhombic'
loop_
_space_group_symop_operation_xyz
x,y,z
-x,1/2-y,z
x,-y,1/2-z
1/2-x,y,-z
-x,-y,-z
x,1/2+y,-z
-x,y,1/2+z
1/2+x,-y,z
1/2+x,1/2+y,1/2+z
1/2-x,-y,1/2+z
1/2+x,1/2-y,-z
-x,1/2+y,1/2-z
1/2-x,1/2-y,1/2-z
1/2+x,y,1/2-z
1/2-x,1/2+y,z
x,1/2-y,1/2+z
loop_
_atom_site_type_symbol
_atom_site_label
_atom_site_fract_x
_atom_site_fract_y
_atom_site_fract_z
Si Si1 0.446952 0.964117 0.987558
Si Si2 0.865274 0.270972 0.200574
Si Si3 0.687544 0.930777 0.935741
Si Si4 0.122440 0.568497 0.337177
Si Si5 0.401398 0.157010 0.000092
Si Si6 0.049905 0.212372 0.352609
Si Si7 0.714725 0.920013 0.164490
O O1 0.451512 0.889495 0.899596
O O2 0.415618 0.054930 0.957972
O O3 0.423101 0.918069 0.087521
O O4 0.500000 0.000000 0.000000
O O5 0.856661 0.161437 0.214246
O O6 0.888401 0.276993 0.090895
O O7 0.906000 0.302383 0.277728
O O8 0.816186 0.332398 0.207153
O O9 0.730433 0.891718 0.864417
O O10 0.669593 0.028701 0.892427
O O11 0.645626 0.853226 0.927903
O O12 0.696315 0.952922 0.054540
O O13 0.103422 0.500000 0.250000
O O14 0.442537 0.206960 0.064357
O O15 0.000000 0.250000 0.300490
O O16 0.712260 0.000000 0.250000
#
# Coordination Sequence:
#
# PCOD8296432 Si02
#       7
#    16  16  16  16  16  16  16
#     4  11  23  41  66  91 130 180 221 280 333 392
#     4  11  25  40  67  97 133 174 218 277 336 406
#     4   9  21  43  67  92 137 171 220 281 330 399
#     4  11  23  43  67  95 133 177 225 274 338 399
#     4  10  22  44  64  91 133 176 222 273 332 403
#     4  12  25  41  63  97 133 173 226 275 337 401
#     4  10  22  41  69 102 133 172 223 278 340 408
#
# _framework density 21.209904000000002
#
# number of rings (size 3 to 8) (size 9 to 14) (size 15 to 20)
#    0.000    1.429    2.857    2.143    6.000    1.714 
#    0.000   12.143    0.000    0.000    0.000    0.000 
#    0.000    0.000    0.000    0.000    0.000    0.000 
#
# Total GULP energy -693787.391712 kJ/mol
# GULP energy per Si atom -12389.060566 kJ/mol
# Density = 2.116163 g / cm^3
# Si number density = 21.209904 Si / 1000 Ang^3
#
#
#
# Elastic Constant Matrix: (Units=GPa)
#
#
# Indices 1 2 3 4 5 6 
#
# 1 138.1144 54.9472 33.9789 0.0000 0.0000 0.0000
# 2 54.9472 121.8172 36.3104 0.0000 0.0000 0.0000
# 3 33.9789 36.3104 57.1448 0.0000 0.0000 0.0000
# 4 0.0000 0.0000 0.0000 32.2038 0.0000 0.0000
# 5 0.0000 0.0000 0.0000 0.0000 36.2261 0.0000
# 6 0.0000 0.0000 0.0000 0.0000 0.0000 28.9881
#
#
#
# Elastic Compliance Matrix: (Units=1/GPa)
#
#
# Indices 1 2 3 4 5 6 
#
# 1 0.009377 -0.003168 -0.003563 0.000000 0.000000 0.000000
# 2 -0.003168 0.011197 -0.005231 0.000000 0.000000 0.000000
# 3 -0.003563 -0.005231 0.022942 0.000000 0.000000 0.000000
# 4 0.000000 0.000000 0.000000 0.031052 0.000000 0.000000
# 5 0.000000 0.000000 0.000000 0.000000 0.027604 0.000000
# 6 0.000000 0.000000 0.000000 0.000000 0.000000 0.034497
#
#
# Mechanical properties :
#
#
# Convention : Reuss Voigt Hill
#
# Bulk Modulus (GPa) = 51.04001 63.06103 57.05052
# Shear Modulus (GPa) = 29.91784 32.27294 31.09539
#
# Velocity S-wave (km/s) = 3.75982 3.90500 3.83309
# Velocity P-wave (km/s) = 6.55475 7.08014 6.82251
#
# Compressibility (1/GPa) = 0.01959247
#
# Stress axis : x y z
#
# Youngs Moduli (GPa) = 106.64214 89.30866 43.58824
#
# Poissons Ratio (x) = 0.28290 0.15530
# Poissons Ratio (y) = 0.33781 0.22802
# Poissons Ratio (z) = 0.37996 0.46720
#
# Static dielectric constant tensor:
#      x y z
#    x 4.093880 0.000000 0.000000 
#    y 0.000000 4.545740 0.000000 
#    z 0.000000 0.000000 4.373660 
# 
# 
# High freq. dielectric constant tensor:
#      x y z
#    x 1.842020 0.000000 0.000000 
#    y 0.000000 1.829110 0.000000 
#    z 0.000000 0.000000 1.834470 
# 
# From -- ./inp_files/19836.got.cif
#   From: 2010.03.12/outbox.cif.g09.slc.cpg/sg73_10_cif.got.tgz:19836.got - 2010.04.16 15:25:48.
