data_PCOD8296240
_publ_section_title
;
Structure prediction by ZEFSAII (Michael W. Deem and Ramdas Pophale) SiO2 
 PCOD8296240
Probable space group: I B C A 
;
_chemical_formula_sum "Si O2"
_cell_formula_units_Z 112
_cell_length_a 14.898206
_cell_length_b 29.272341
_cell_length_c 11.366234
_cell_angle_alpha 90.000000
_cell_angle_beta 90.000000
_cell_angle_gamma 90.000000
_cell_volume 4956.875642
_symmetry_space_group_name_H-M "I B C A "
_symmetry_group_IT_number 73
_symmetry_cell_setting 'orthorhombic'
loop_
_space_group_symop_operation_xyz
x,y,z
-x,1/2-y,z
x,-y,1/2-z
1/2-x,y,-z
-x,-y,-z
x,1/2+y,-z
-x,y,1/2+z
1/2+x,-y,z
1/2+x,1/2+y,1/2+z
1/2-x,-y,1/2+z
1/2+x,1/2-y,-z
-x,1/2+y,1/2-z
1/2-x,1/2-y,1/2-z
1/2+x,y,1/2-z
1/2-x,1/2+y,z
x,1/2-y,1/2+z
loop_
_atom_site_type_symbol
_atom_site_label
_atom_site_fract_x
_atom_site_fract_y
_atom_site_fract_z
Si Si1 0.351355 0.934611 0.759060
Si Si2 0.310249 0.072174 0.101671
Si Si3 0.403279 0.837919 0.350457
Si Si4 0.101642 0.168031 0.283337
Si Si5 0.096071 0.996541 0.443748
Si Si6 0.404098 0.728483 0.051594
Si Si7 0.720439 0.790934 0.668460
O O1 0.246773 0.938228 0.719872
O O2 0.385646 0.883649 0.744338
O O3 0.411265 0.962080 0.665564
O O4 0.365222 0.955354 0.891030
O O5 0.389611 0.107949 0.128140
O O6 0.250000 0.096052 0.000000
O O7 0.342738 0.023633 0.048850
O O8 0.509171 0.828015 0.352957
O O9 0.365836 0.805789 0.453691
O O10 0.350747 0.824570 0.232340
O O11 0.091978 0.201693 0.173724
O O12 0.188217 0.181435 0.363628
O O13 0.000000 0.000000 0.500000
O O14 0.500000 0.750000 0.019215
O O15 0.331722 0.769988 0.056383
O O16 0.750000 0.750000 0.750000
#
# Coordination Sequence:
#
# PCOD8296240 Si02
#       7
#    16  16  16  16  16  16  16
#     4  10  21  41  69 101 140 177 222 294 341 409
#     4  10  21  41  69 101 133 181 230 270 350 418
#     4  12  24  42  68  96 132 184 225 280 338 409
#     4  11  23  44  67  99 134 174 234 277 338 409
#     4  10  21  40  68 105 137 176 228 277 349 429
#     4  11  24  40  62  96 133 179 231 282 338 401
#     4  10  24  41  63  95 136 172 228 283 334 397
#
# _framework density 22.594878999999999
#
# number of rings (size 3 to 8) (size 9 to 14) (size 15 to 20)
#    0.000    1.429    2.857    2.571    6.000    0.000 
#    0.000   15.714    0.000    1.714    0.000    0.000 
#    0.000    0.000    0.000    0.000    0.000    0.000 
#
# Total GULP energy -694070.745879 kJ/mol
# GULP energy per Si atom -12394.120462 kJ/mol
# Density = 2.254345 g / cm^3
# Si number density = 22.594879 Si / 1000 Ang^3
#
#
#
# Elastic Constant Matrix: (Units=GPa)
#
#
# Indices 1 2 3 4 5 6 
#
# 1 169.3350 43.7307 44.1670 -0.0002 -0.0003 -0.0001
# 2 43.7307 96.4859 26.6889 -0.0002 -0.0004 -0.0003
# 3 44.1670 26.6889 68.8054 -0.0070 0.0004 0.0016
# 4 -0.0002 -0.0002 -0.0070 33.2423 0.0001 0.0000
# 5 -0.0003 -0.0004 0.0004 0.0001 30.8711 -0.0004
# 6 -0.0001 -0.0003 0.0016 0.0000 -0.0004 39.6496
#
#
#
# Elastic Compliance Matrix: (Units=1/GPa)
#
#
# Indices 1 2 3 4 5 6 
#
# 1 0.007532 -0.002326 -0.003933 -0.000001 0.000000 0.000000
# 2 -0.002326 0.012328 -0.003289 -0.000001 0.000000 0.000000
# 3 -0.003933 -0.003289 0.018334 0.000004 0.000000 -0.000001
# 4 -0.000001 -0.000001 0.000004 0.030082 0.000000 0.000000
# 5 0.000000 0.000000 0.000000 0.000000 0.032393 0.000000
# 6 0.000000 0.000000 -0.000001 0.000000 0.000000 0.025221
#
#
# Mechanical properties :
#
#
# Convention : Reuss Voigt Hill
#
# Bulk Modulus (GPa) = 52.35876 62.64439 57.50158
# Shear Modulus (GPa) = 33.03582 35.42191 34.22886
#
# Velocity S-wave (km/s) = 3.82788 3.96371 3.89639
# Velocity P-wave (km/s) = 6.53912 6.98092 6.76363
#
# Compressibility (1/GPa) = 0.01909900
#
# Stress axis : x y z
#
# Youngs Moduli (GPa) = 132.76975 81.11524 54.54386
#
# Poissons Ratio (x) = 0.18867 0.21450
# Poissons Ratio (y) = 0.30881 0.17939
# Poissons Ratio (z) = 0.52213 0.26678
#
# Static dielectric constant tensor:
#      x y z
#    x 4.762950 0.000000 0.000010 
#    y 0.000000 4.266730 0.000000 
#    z 0.000010 0.000000 3.990500 
# 
# 
# High freq. dielectric constant tensor:
#      x y z
#    x 1.899720 0.000000 0.000000 
#    y 0.000000 1.895070 0.000000 
#    z 0.000000 0.000000 1.872280 
# 
# From -- ./inp_files/11268.got.cif
#   From: 2010.03.12/outbox.cif.g09.slc.cpg/sg73_6_cif.got.tgz:11268.got - 2010.04.16 15:25:48.
