data_PCOD8296437
_publ_section_title
;
Structure prediction by ZEFSAII (Michael W. Deem and Ramdas Pophale) SiO2 
 PCOD8296437
Probable space group: I B C A 
;
_chemical_formula_sum "Si O2"
_cell_formula_units_Z 112
_cell_length_a 33.225220
_cell_length_b 10.015659
_cell_length_c 14.247146
_cell_angle_alpha 90.000000
_cell_angle_beta 90.000000
_cell_angle_gamma 90.000000
_cell_volume 4741.058018
_symmetry_space_group_name_H-M "I B C A "
_symmetry_group_IT_number 73
_symmetry_cell_setting 'orthorhombic'
loop_
_space_group_symop_operation_xyz
x,y,z
-x,1/2-y,z
x,-y,1/2-z
1/2-x,y,-z
-x,-y,-z
x,1/2+y,-z
-x,y,1/2+z
1/2+x,-y,z
1/2+x,1/2+y,1/2+z
1/2-x,-y,1/2+z
1/2+x,1/2-y,-z
-x,1/2+y,1/2-z
1/2-x,1/2-y,1/2-z
1/2+x,y,1/2-z
1/2-x,1/2+y,z
x,1/2-y,1/2+z
loop_
_atom_site_type_symbol
_atom_site_label
_atom_site_fract_x
_atom_site_fract_y
_atom_site_fract_z
Si Si1 0.328180 0.773985 0.402631
Si Si2 0.522250 0.964256 0.596163
Si Si3 0.795960 0.549656 0.971398
Si Si4 0.533843 0.141970 0.187606
Si Si5 0.581391 0.816587 0.937748
Si Si6 0.420807 0.268893 0.356973
Si Si7 0.337928 0.858847 0.208108
O O1 0.320462 0.628696 0.447480
O O2 0.375051 0.803715 0.394469
O O3 0.316336 0.772784 0.291474
O O4 0.307485 0.892927 0.463607
O O5 0.487015 0.995921 0.672755
O O6 0.560056 0.060908 0.614020
O O7 0.500000 0.000000 0.500000
O O8 0.539953 0.819399 0.614978
O O9 0.804554 0.624891 0.873418
O O10 0.750000 0.562187 0.000000
O O11 0.500000 0.250000 0.211964
O O12 0.555759 0.183520 0.088795
O O13 0.567824 0.138297 0.269052
O O14 0.585283 0.851599 0.047851
O O15 0.378732 0.198174 0.336286
O O16 0.350437 0.000000 0.250000
#
# Coordination Sequence:
#
# PCOD8296437 Si02
#       7
#    16  16  16  16  16  16  16
#     4  11  23  45  74 103 140 184 236 282 348 431
#     4  11  24  41  61  88 131 182 228 296 359 395
#     4  11  24  44  73 108 141 179 226 285 356 429
#     4  10  24  38  60  96 124 169 237 285 331 404
#     4  11  23  41  63  95 128 173 238 284 342 418
#     4  12  23  42  67  88 133 180 231 289 346 424
#     4  10  22  41  70  99 129 189 233 270 350 435
#
# _framework density 23.623418999999998
#
# number of rings (size 3 to 8) (size 9 to 14) (size 15 to 20)
#    0.000    1.143    4.286    2.143    4.000    0.571 
#    0.000    2.143    0.000    0.000    0.000    0.000 
#    0.000    0.000    0.000    0.000    0.000    0.000 
#
# Total GULP energy -693982.909395 kJ/mol
# GULP energy per Si atom -12392.551953 kJ/mol
# Density = 2.356965 g / cm^3
# Si number density = 23.623419 Si / 1000 Ang^3
#
#
#
# Elastic Constant Matrix: (Units=GPa)
#
#
# Indices 1 2 3 4 5 6 
#
# 1 126.6751 13.4939 24.5224 0.0000 0.0000 0.0000
# 2 13.4939 38.4635 6.1409 0.0000 0.0000 0.0000
# 3 24.5224 6.1409 122.3273 0.0000 0.0000 0.0000
# 4 0.0000 0.0000 0.0000 31.8495 0.0000 0.0000
# 5 0.0000 0.0000 0.0000 0.0000 40.3720 0.0000
# 6 0.0000 0.0000 0.0000 0.0000 0.0000 25.3089
#
#
#
# Elastic Compliance Matrix: (Units=1/GPa)
#
#
# Indices 1 2 3 4 5 6 
#
# 1 0.008488 -0.002728 -0.001565 0.000000 0.000000 0.000000
# 2 -0.002728 0.027085 -0.000813 0.000000 0.000000 0.000000
# 3 -0.001565 -0.000813 0.008529 0.000000 0.000000 0.000000
# 4 0.000000 0.000000 0.000000 0.031398 0.000000 0.000000
# 5 0.000000 0.000000 0.000000 0.000000 0.024770 0.000000
# 6 0.000000 0.000000 0.000000 0.000000 0.000000 0.039512
#
#
# Mechanical properties :
#
#
# Convention : Reuss Voigt Hill
#
# Bulk Modulus (GPa) = 29.50565 41.75334 35.62949
# Shear Modulus (GPa) = 31.00020 35.72667 33.36343
#
# Velocity S-wave (km/s) = 3.62645 3.89310 3.76214
# Velocity P-wave (km/s) = 5.48197 6.15802 5.82980
#
# Compressibility (1/GPa) = 0.03389182
#
# Stress axis : x y z
#
# Youngs Moduli (GPa) = 117.81802 36.92017 117.24384
#
# Poissons Ratio (x) = 0.10071 0.18343
# Poissons Ratio (y) = 0.32139 0.09530
# Poissons Ratio (z) = 0.18433 0.03001
#
# Static dielectric constant tensor:
#      x y z
#    x 4.120120 0.000000 0.000000 
#    y 0.000000 4.257970 0.000000 
#    z 0.000000 0.000000 4.774220 
# 
# 
# High freq. dielectric constant tensor:
#      x y z
#    x 1.925520 0.000000 0.000000 
#    y 0.000000 1.918810 0.000000 
#    z 0.000000 0.000000 1.965500 
# 
# From -- ./inp_files/20027.got.cif
#   From: 2010.03.12/outbox.cif.g09.slc.cpg/sg73_11_cif.got.tgz:20027.got - 2010.04.16 15:25:48.
