data_PCOD8296961
_publ_section_title
;
Structure prediction by ZEFSAII (Michael W. Deem and Ramdas Pophale) SiO2 
 PCOD8296961
Probable space group: I B C A 
;
_chemical_formula_sum "Si O2"
_cell_formula_units_Z 96
_cell_length_a 14.683134
_cell_length_b 21.176120
_cell_length_c 14.837416
_cell_angle_alpha 90.000000
_cell_angle_beta 90.000000
_cell_angle_gamma 90.000000
_cell_volume 4613.424576
_symmetry_space_group_name_H-M "I B C A "
_symmetry_group_IT_number 73
_symmetry_cell_setting 'orthorhombic'
loop_
_space_group_symop_operation_xyz
x,y,z
-x,1/2-y,z
x,-y,1/2-z
1/2-x,y,-z
-x,-y,-z
x,1/2+y,-z
-x,y,1/2+z
1/2+x,-y,z
1/2+x,1/2+y,1/2+z
1/2-x,-y,1/2+z
1/2+x,1/2-y,-z
-x,1/2+y,1/2-z
1/2-x,1/2-y,1/2-z
1/2+x,y,1/2-z
1/2-x,1/2+y,z
x,1/2-y,1/2+z
loop_
_atom_site_type_symbol
_atom_site_label
_atom_site_fract_x
_atom_site_fract_y
_atom_site_fract_z
Si Si1 0.987038 0.818726 0.009517
Si Si2 0.236473 0.325547 0.244420
Si Si3 0.180142 0.615927 0.073086
Si Si4 0.423367 0.626861 0.322103
Si Si5 0.527092 0.984128 0.897746
Si Si6 0.053852 0.619316 0.336504
O O1 0.880062 0.830464 0.024532
O O2 0.000000 0.750000 0.968140
O O3 0.040792 0.824575 0.103052
O O4 0.028624 0.867272 0.939161
O O5 0.250000 0.250000 0.250000
O O6 0.234409 0.353134 0.344806
O O7 0.317271 0.360283 0.191323
O O8 0.146561 0.345688 0.190182
O O9 0.114974 0.560675 0.107602
O O10 0.250000 0.587942 0.000000
O O11 0.442640 0.554405 0.353076
O O12 0.475477 0.643653 0.229921
O O13 0.555560 0.043073 0.835314
O O14 0.500000 0.000000 0.000000
#
# Coordination Sequence:
#
# PCOD8296961 Si02
#       6
#    16  16  16  16  16  16
#     4  11  24  44  72 100 141 186 231 289 357 427
#     4  12  28  45  71 109 144 183 241 293 359 440
#     4  11  24  46  70 101 137 184 230 295 356 413
#     4  11  25  46  72 102 143 188 234 295 360 421
#     4  11  23  49  71 102 143 181 243 295 357 428
#     4  12  25  47  74 102 140 191 231 299 359 417
#
# _framework density 20.808837
#
# number of rings (size 3 to 8) (size 9 to 14) (size 15 to 20)
#    0.000    0.667    6.667    2.500    4.667    2.000 
#    3.000    0.000    0.000    0.000    0.000    0.000 
#    0.000    0.000    0.000    0.000    0.000    0.000 
#
# Total GULP energy -595228.001224 kJ/mol
# GULP energy per Si atom -12400.583359 kJ/mol
# Density = 2.076147 g / cm^3
# Si number density = 20.808837 Si / 1000 Ang^3
#
#
#
# Elastic Constant Matrix: (Units=GPa)
#
#
# Indices 1 2 3 4 5 6 
#
# 1 88.7406 25.2367 27.5181 -0.0001 -0.0003 -0.0002
# 2 25.2367 127.3372 24.3871 -0.0025 -0.0001 0.0003
# 3 27.5181 24.3871 96.7669 -0.0068 0.0003 0.0011
# 4 -0.0001 -0.0025 -0.0068 30.1773 0.0003 0.0009
# 5 -0.0003 -0.0001 0.0003 0.0003 39.8995 -0.0001
# 6 -0.0002 0.0003 0.0011 0.0009 -0.0001 31.4380
#
#
#
# Elastic Compliance Matrix: (Units=1/GPa)
#
#
# Indices 1 2 3 4 5 6 
#
# 1 0.012796 -0.001932 -0.003152 -0.000001 0.000000 0.000000
# 2 -0.001932 0.008543 -0.001604 0.000000 0.000000 0.000000
# 3 -0.003152 -0.001604 0.011635 0.000002 0.000000 0.000000
# 4 -0.000001 0.000000 0.000002 0.033137 0.000000 -0.000001
# 5 0.000000 0.000000 0.000000 0.000000 0.025063 0.000000
# 6 0.000000 0.000000 0.000000 -0.000001 0.000000 0.031809
#
#
# Mechanical properties :
#
#
# Convention : Reuss Voigt Hill
#
# Bulk Modulus (GPa) = 51.02534 51.90316 51.46425
# Shear Modulus (GPa) = 34.99181 36.01649 35.50415
#
# Velocity S-wave (km/s) = 4.10516 4.16483 4.13511
# Velocity P-wave (km/s) = 6.85886 6.93720 6.89815
#
# Compressibility (1/GPa) = 0.01959810
#
# Stress axis : x y z
#
# Youngs Moduli (GPa) = 78.15131 117.05166 85.95110
#
# Poissons Ratio (x) = 0.22618 0.27090
# Poissons Ratio (y) = 0.15101 0.13783
# Poissons Ratio (z) = 0.24632 0.18770
#
# Static dielectric constant tensor:
#      x y z
#    x 4.071080 -0.000020 -0.000010 
#    y -0.000020 3.952640 0.000000 
#    z -0.000010 0.000000 3.951830 
# 
# 
# High freq. dielectric constant tensor:
#      x y z
#    x 1.809300 0.000000 0.000000 
#    y 0.000000 1.819900 0.000000 
#    z 0.000000 0.000000 1.835120 
# 
# From -- ./inp_files/17030.got.cif
#   From: 2010.03.12/outbox.cif.g09.slc.cpg/sg73_9_cif.got.tgz:17030.got - 2010.04.16 15:25:48.
