data_PCOD8296045
_publ_section_title
;
Structure prediction by ZEFSAII (Michael W. Deem and Ramdas Pophale) SiO2 
 PCOD8296045
Probable space group: I B C A 
;
_chemical_formula_sum "Si O2"
_cell_formula_units_Z 120
_cell_length_a 9.628523
_cell_length_b 27.883278
_cell_length_c 20.542545
_cell_angle_alpha 90.000000
_cell_angle_beta 90.000000
_cell_angle_gamma 90.000000
_cell_volume 5515.155322
_symmetry_space_group_name_H-M "I B C A "
_symmetry_group_IT_number 73
_symmetry_cell_setting 'orthorhombic'
loop_
_space_group_symop_operation_xyz
x,y,z
-x,1/2-y,z
x,-y,1/2-z
1/2-x,y,-z
-x,-y,-z
x,1/2+y,-z
-x,y,1/2+z
1/2+x,-y,z
1/2+x,1/2+y,1/2+z
1/2-x,-y,1/2+z
1/2+x,1/2-y,-z
-x,1/2+y,1/2-z
1/2-x,1/2-y,1/2-z
1/2+x,y,1/2-z
1/2-x,1/2+y,z
x,1/2-y,1/2+z
loop_
_atom_site_type_symbol
_atom_site_label
_atom_site_fract_x
_atom_site_fract_y
_atom_site_fract_z
Si Si1 0.250000 0.047286 0.000000
Si Si2 0.537644 0.608109 0.416764
Si Si3 0.291391 0.672155 0.250626
Si Si4 0.151986 0.473581 0.899004
Si Si5 0.422303 0.023372 0.314499
Si Si6 0.346616 0.255265 0.666880
Si Si7 0.049126 0.387117 0.261713
Si Si8 0.897291 0.287864 0.968769
O O1 0.162639 0.080968 0.952289
O O2 0.346845 0.013396 0.955709
O O3 0.396015 0.577712 0.429815
O O4 0.558086 0.604813 0.339019
O O5 0.527223 0.662762 0.444341
O O6 0.259209 0.709974 0.308027
O O7 0.232741 0.695352 0.184089
O O8 0.203543 0.624441 0.264612
O O9 0.451693 0.658255 0.246509
O O10 0.302941 0.466352 0.867162
O O11 0.039275 0.489718 0.845562
O O12 0.500192 0.070080 0.285284
O O13 0.352951 0.000000 0.250000
O O14 0.500000 0.250000 0.699018
O O15 0.356434 0.252993 0.590133
O O16 0.000000 0.250000 0.008561
O O17 0.750000 0.301970 0.000000
#
# Coordination Sequence:
#
# PCOD8296045 Si02
#       8
#     8  16  16  16  16  16  16  16
#     4  12  26  48  72 102 136 198 250 292 346 422
#     4  12  24  46  75  95 141 190 237 287 359 421
#     4  11  22  39  64  98 131 173 220 273 344 424
#     4  12  26  47  70 104 142 190 240 299 345 430
#     4  12  26  41  68 102 145 179 229 293 361 419
#     4  10  20  41  66  92 132 176 220 277 343 413
#     4  12  24  40  66 103 136 177 224 282 354 420
#     4  11  24  48  71  99 135 185 238 293 353 418
#
# _framework density 21.758227000000002
#
# number of rings (size 3 to 8) (size 9 to 14) (size 15 to 20)
#    0.000    0.533    6.000    2.400    3.733    0.000 
#    3.600    0.000    0.000    0.000    0.000    0.000 
#    0.000    0.000    0.000    0.000    0.000    0.000 
#
# Total GULP energy -743381.796938 kJ/mol
# GULP energy per Si atom -12389.696616 kJ/mol
# Density = 2.170870 g / cm^3
# Si number density = 21.758227 Si / 1000 Ang^3
#
#
#
# Elastic Constant Matrix: (Units=GPa)
#
#
# Indices 1 2 3 4 5 6 
#
# 1 84.2930 36.1030 39.6584 0.0000 0.0000 0.0000
# 2 36.1030 132.0492 30.6052 0.0000 0.0000 0.0000
# 3 39.6584 30.6052 57.9598 -0.0001 -0.0002 0.0000
# 4 0.0000 0.0000 -0.0001 25.4683 -0.0001 0.0000
# 5 0.0000 0.0000 -0.0002 -0.0001 27.5202 0.0000
# 6 0.0000 0.0000 0.0000 0.0000 0.0000 41.0241
#
#
#
# Elastic Compliance Matrix: (Units=1/GPa)
#
#
# Indices 1 2 3 4 5 6 
#
# 1 0.018125 -0.002371 -0.011150 0.000000 0.000000 0.000000
# 2 -0.002371 0.008939 -0.003098 0.000000 0.000000 0.000000
# 3 -0.011150 -0.003098 0.026518 0.000000 0.000000 0.000000
# 4 0.000000 0.000000 0.000000 0.039264 0.000000 0.000000
# 5 0.000000 0.000000 0.000000 0.000000 0.036337 0.000000
# 6 0.000000 0.000000 0.000000 0.000000 0.000000 0.024376
#
#
# Mechanical properties :
#
#
# Convention : Reuss Voigt Hill
#
# Bulk Modulus (GPa) = 49.15246 54.11501 51.63374
# Shear Modulus (GPa) = 25.82939 29.99823 27.91381
#
# Velocity S-wave (km/s) = 3.44918 3.71712 3.58566
# Velocity P-wave (km/s) = 6.20498 6.58390 6.39725
#
# Compressibility (1/GPa) = 0.02034486
#
# Stress axis : x y z
#
# Youngs Moduli (GPa) = 55.17345 111.86655 37.71014
#
# Poissons Ratio (x) = 0.26526 0.42045
# Poissons Ratio (y) = 0.13083 0.11682
# Poissons Ratio (z) = 0.61516 0.34654
#
# Static dielectric constant tensor:
#      x y z
#    x 4.062390 0.000000 0.000000 
#    y 0.000000 4.391370 0.000000 
#    z 0.000000 0.000000 3.819000 
# 
# 
# High freq. dielectric constant tensor:
#      x y z
#    x 1.849030 0.000000 0.000000 
#    y 0.000000 1.877070 0.000000 
#    z 0.000000 0.000000 1.837490 
# 
# From -- ./inp_files/28605.got.cif
#   From: 2010.03.12/outbox.cif.g09.slc.cpg/sg73_15_cif.got.tgz:28605.got - 2010.04.16 15:25:48.
