data_PCOD8296307
_publ_section_title
;
Structure prediction by ZEFSAII (Michael W. Deem and Ramdas Pophale) SiO2 
 PCOD8296307
Probable space group: I B C A 
;
_chemical_formula_sum "Si O2"
_cell_formula_units_Z 96
_cell_length_a 26.916687
_cell_length_b 8.438645
_cell_length_c 18.147269
_cell_angle_alpha 90.000000
_cell_angle_beta 90.000000
_cell_angle_gamma 90.000000
_cell_volume 4121.977326
_symmetry_space_group_name_H-M "I B C A "
_symmetry_group_IT_number 73
_symmetry_cell_setting 'orthorhombic'
loop_
_space_group_symop_operation_xyz
x,y,z
-x,1/2-y,z
x,-y,1/2-z
1/2-x,y,-z
-x,-y,-z
x,1/2+y,-z
-x,y,1/2+z
1/2+x,-y,z
1/2+x,1/2+y,1/2+z
1/2-x,-y,1/2+z
1/2+x,1/2-y,-z
-x,1/2+y,1/2-z
1/2-x,1/2-y,1/2-z
1/2+x,y,1/2-z
1/2-x,1/2+y,z
x,1/2-y,1/2+z
loop_
_atom_site_type_symbol
_atom_site_label
_atom_site_fract_x
_atom_site_fract_y
_atom_site_fract_z
Si Si1 0.108610 0.434122 0.080399
Si Si2 0.202547 0.097516 0.140842
Si Si3 0.782281 0.584737 0.930389
Si Si4 0.942927 0.255672 0.452074
Si Si5 0.393333 0.910814 0.825526
Si Si6 0.349762 0.831084 0.230961
O O1 0.164137 0.496976 0.060867
O O2 0.072123 0.583167 0.077836
O O3 0.112710 0.348732 0.160749
O O4 0.089473 0.301335 0.023288
O O5 0.208713 0.227072 0.075887
O O6 0.194334 0.202816 0.215151
O O7 0.251702 0.986905 0.140111
O O8 0.152840 0.992493 0.132536
O O9 0.750000 0.541784 0.000000
O O10 0.936141 0.387490 0.386691
O O11 0.000000 0.250000 0.475542
O O12 0.379208 0.731551 0.801706
O O13 0.410483 0.000000 0.750000
O O14 0.325761 0.000000 0.250000
#
# Coordination Sequence:
#
# PCOD8296307 Si02
#       6
#    16  16  16  16  16  16
#     4  11  27  45  74 103 154 181 237 307 359 420
#     4  10  24  39  66 103 138 187 238 284 340 430
#     4  11  24  40  68 106 146 193 241 283 360 432
#     4  12  27  49  76 110 138 189 242 306 368 427
#     4  10  23  47  74 101 150 188 240 292 360 425
#     4  10  21  47  73 100 143 198 231 291 361 419
#
# _framework density 23.289794000000001
#
# number of rings (size 3 to 8) (size 9 to 14) (size 15 to 20)
#    0.000    1.333    1.667    2.000   16.333    0.000 
#    3.000   26.667    0.000    0.000    0.000    0.000 
#    0.000    0.000    0.000    0.000    0.000    0.000 
#
# Total GULP energy -594691.884593 kJ/mol
# GULP energy per Si atom -12389.414262 kJ/mol
# Density = 2.323679 g / cm^3
# Si number density = 23.289794 Si / 1000 Ang^3
#
#
#
# Elastic Constant Matrix: (Units=GPa)
#
#
# Indices 1 2 3 4 5 6 
#
# 1 121.0683 29.6652 38.7905 0.0000 0.0000 0.0000
# 2 29.6652 108.5354 28.8472 0.0000 0.0000 0.0000
# 3 38.7905 28.8472 89.0874 0.0000 0.0000 0.0000
# 4 0.0000 0.0000 0.0000 36.6148 0.0000 0.0000
# 5 0.0000 0.0000 0.0000 0.0000 25.3004 0.0000
# 6 0.0000 0.0000 0.0000 0.0000 0.0000 31.4298
#
#
#
# Elastic Compliance Matrix: (Units=1/GPa)
#
#
# Indices 1 2 3 4 5 6 
#
# 1 0.009879 -0.001703 -0.003750 0.000000 0.000000 0.000000
# 2 -0.001703 0.010375 -0.002618 0.000000 0.000000 0.000000
# 3 -0.003750 -0.002618 0.013705 0.000000 0.000000 0.000000
# 4 0.000000 0.000000 0.000000 0.027311 0.000000 0.000000
# 5 0.000000 0.000000 0.000000 0.000000 0.039525 0.000000
# 6 0.000000 0.000000 0.000000 0.000000 0.000000 0.031817
#
#
# Mechanical properties :
#
#
# Convention : Reuss Voigt Hill
#
# Bulk Modulus (GPa) = 56.12638 57.03297 56.57968
# Shear Modulus (GPa) = 32.32206 33.42822 32.87514
#
# Velocity S-wave (km/s) = 3.72939 3.79267 3.76116
# Velocity P-wave (km/s) = 6.53421 6.61216 6.57330
#
# Compressibility (1/GPa) = 0.01781693
#
# Stress axis : x y z
#
# Youngs Moduli (GPa) = 101.22874 96.38617 72.96433
#
# Poissons Ratio (x) = 0.16419 0.27360
# Poissons Ratio (y) = 0.17243 0.19100
# Poissons Ratio (z) = 0.37959 0.25232
#
# Static dielectric constant tensor:
#      x y z
#    x 3.943730 0.000000 0.000000 
#    y 0.000000 4.373910 0.000000 
#    z 0.000000 0.000000 4.237280 
# 
# 
# High freq. dielectric constant tensor:
#      x y z
#    x 1.883580 0.000000 0.000000 
#    y 0.000000 1.940360 0.000000 
#    z 0.000000 0.000000 1.925430 
# 
# From -- ./inp_files/27508.got.cif
#   From: 2010.03.12/outbox.cif.g09.slc.cpg/sg73_14_cif.got.tgz:27508.got - 2010.04.16 15:25:48.
