data_PCOD8296682
_publ_section_title
;
Structure prediction by ZEFSAII (Michael W. Deem and Ramdas Pophale) SiO2 
 PCOD8296682
Probable space group: I B C A 
;
_chemical_formula_sum "Si O2"
_cell_formula_units_Z 104
_cell_length_a 24.473794
_cell_length_b 9.689046
_cell_length_c 20.952868
_cell_angle_alpha 90.000000
_cell_angle_beta 90.000000
_cell_angle_gamma 90.000000
_cell_volume 4968.505730
_symmetry_space_group_name_H-M "I B C A "
_symmetry_group_IT_number 73
_symmetry_cell_setting 'orthorhombic'
loop_
_space_group_symop_operation_xyz
x,y,z
-x,1/2-y,z
x,-y,1/2-z
1/2-x,y,-z
-x,-y,-z
x,1/2+y,-z
-x,y,1/2+z
1/2+x,-y,z
1/2+x,1/2+y,1/2+z
1/2-x,-y,1/2+z
1/2+x,1/2-y,-z
-x,1/2+y,1/2-z
1/2-x,1/2-y,1/2-z
1/2+x,y,1/2-z
1/2-x,1/2+y,z
x,1/2-y,1/2+z
loop_
_atom_site_type_symbol
_atom_site_label
_atom_site_fract_x
_atom_site_fract_y
_atom_site_fract_z
Si Si1 0.500000 0.250000 0.892402
Si Si2 0.275176 0.187192 0.812216
Si Si3 0.135845 0.500000 0.750000
Si Si4 0.910775 0.766993 0.492542
Si Si5 0.163260 0.510255 0.983683
Si Si6 0.734495 0.543322 0.104612
Si Si7 0.500000 0.750000 0.908573
Si Si8 0.967762 0.987691 0.681583
O O1 0.449868 0.308732 0.934125
O O2 0.528788 0.363821 0.849894
O O3 0.250000 0.250000 0.750000
O O4 0.280404 0.305300 0.867165
O O5 0.331060 0.119220 0.786844
O O6 0.235223 0.067280 0.838226
O O7 0.095433 0.559821 0.694786
O O8 0.861537 0.663014 0.472893
O O9 0.886781 0.906863 0.520988
O O10 0.947996 0.707142 0.549017
O O11 0.189178 0.500341 0.053875
O O12 0.206128 0.466992 0.928964
O O13 0.504636 0.618737 0.864526
O O14 0.998945 0.000000 0.750000
#
# Coordination Sequence:
#
# PCOD8296682 Si02
#       8
#     8  16   8  16  16  16   8  16
#     4  11  23  42  64  98 125 173 218 274 322 395
#     4  12  23  44  65  95 130 176 218 272 319 389
#     4  10  26  40  68  92 122 186 212 256 340 378
#     4  11  24  39  69  93 134 169 218 265 335 387
#     4  11  24  42  64 101 128 178 209 273 330 391
#     4  11  25  41  68  96 138 166 224 267 326 393
#     4  11  23  44  64 102 127 173 218 278 322 399
#     4  10  24  42  67  89 132 166 220 269 324 389
#
# _framework density 20.931847999999999
#
# number of rings (size 3 to 8) (size 9 to 14) (size 15 to 20)
#    0.462    0.615    1.538    4.154    6.462    6.154 
#    0.000    0.000    0.000    0.000    0.000    0.000 
#    0.000    0.000    0.000    0.000    0.000    0.000 
#
# Total GULP energy -644460.542776 kJ/mol
# GULP energy per Si atom -12393.471976 kJ/mol
# Density = 2.088421 g / cm^3
# Si number density = 20.931848 Si / 1000 Ang^3
#
#
#
# Elastic Constant Matrix: (Units=GPa)
#
#
# Indices 1 2 3 4 5 6 
#
# 1 86.8839 18.6196 43.1495 0.0000 0.0000 0.0000
# 2 18.6196 90.6195 33.1219 0.0000 0.0000 0.0000
# 3 43.1495 33.1219 119.9909 0.0000 0.0000 0.0000
# 4 0.0000 0.0000 0.0000 50.0782 0.0000 0.0000
# 5 0.0000 0.0000 0.0000 0.0000 37.2780 0.0000
# 6 0.0000 0.0000 0.0000 0.0000 0.0000 -31.0401
#
#
#
# Elastic Compliance Matrix: (Units=1/GPa)
#
#
# Indices 1 2 3 4 5 6 
#
# 1 0.014121 -0.001163 -0.004757 0.000000 0.000000 0.000000
# 2 -0.001163 0.012369 -0.002996 0.000000 0.000000 0.000000
# 3 -0.004757 -0.002996 0.010872 0.000000 0.000000 0.000000
# 4 0.000000 0.000000 0.000000 0.019969 0.000000 0.000000
# 5 0.000000 0.000000 0.000000 0.000000 0.026826 0.000000
# 6 0.000000 0.000000 0.000000 0.000000 0.000000 -0.032216
#
#
# Mechanical properties :
#
#
# Convention : Reuss Voigt Hill
#
# Bulk Modulus (GPa) = 51.20319 54.14178 52.67249
# Shear Modulus (GPa) = 65.54590 24.77011 45.15801
#
# Velocity S-wave (km/s) = 5.60196 3.44375 4.64980
# Velocity P-wave (km/s) = 8.14601 6.46022 7.35160
#
# Compressibility (1/GPa) = 0.01953003
#
# Stress axis : x y z
#
# Youngs Moduli (GPa) = 70.81473 80.84598 91.98162
#
# Poissons Ratio (x) = 0.09400 0.43757
# Poissons Ratio (y) = 0.08234 0.27560
# Poissons Ratio (z) = 0.33688 0.24223
#
# Static dielectric constant tensor:
#      x y z
#    x 9.259760 0.000000 0.000000 
#    y 0.000000 3.842200 0.000000 
#    z 0.000000 0.000000 4.067580 
# 
# 
# High freq. dielectric constant tensor:
#      x y z
#    x 1.815960 0.000000 0.000000 
#    y 0.000000 1.818810 0.000000 
#    z 0.000000 0.000000 1.840840 
# 
# From -- ./inp_files/27627.got.cif
#   From: 2010.03.12/outbox.cif.g09.slc.cpg/sg73_14_cif.got.tgz:27627.got - 2010.04.16 15:25:48.
