data_PCOD8296120
_publ_section_title
;
Structure prediction by ZEFSAII (Michael W. Deem and Ramdas Pophale) SiO2 
 PCOD8296120
Probable space group: I B C A 
;
_chemical_formula_sum "Si O2"
_cell_formula_units_Z 120
_cell_length_a 21.489838
_cell_length_b 18.031345
_cell_length_c 13.453373
_cell_angle_alpha 90.000000
_cell_angle_beta 90.000000
_cell_angle_gamma 90.000000
_cell_volume 5213.056692
_symmetry_space_group_name_H-M "I B C A "
_symmetry_group_IT_number 73
_symmetry_cell_setting 'orthorhombic'
loop_
_space_group_symop_operation_xyz
x,y,z
-x,1/2-y,z
x,-y,1/2-z
1/2-x,y,-z
-x,-y,-z
x,1/2+y,-z
-x,y,1/2+z
1/2+x,-y,z
1/2+x,1/2+y,1/2+z
1/2-x,-y,1/2+z
1/2+x,1/2-y,-z
-x,1/2+y,1/2-z
1/2-x,1/2-y,1/2-z
1/2+x,y,1/2-z
1/2-x,1/2+y,z
x,1/2-y,1/2+z
loop_
_atom_site_type_symbol
_atom_site_label
_atom_site_fract_x
_atom_site_fract_y
_atom_site_fract_z
Si Si1 0.362489 0.714255 0.397543
Si Si2 0.617115 0.136191 0.685854
Si Si3 0.038227 0.644730 0.875296
Si Si4 0.089565 0.198214 0.603363
Si Si5 0.979801 0.869193 0.652208
Si Si6 0.688806 0.500000 0.250000
Si Si7 0.601801 0.498824 0.868607
Si Si8 0.280148 0.081176 0.603928
O O1 0.342576 0.797559 0.365541
O O2 0.359414 0.700648 0.516577
O O3 0.434773 0.701983 0.363703
O O4 0.315150 0.654122 0.350203
O O5 0.613838 0.151847 0.803738
O O6 0.552300 0.139412 0.622121
O O7 0.647732 0.054387 0.678795
O O8 0.078496 0.718228 0.860108
O O9 0.014336 0.615599 0.769610
O O10 0.081119 0.579049 0.918275
O O11 0.975662 0.662225 0.939686
O O12 0.949154 0.940194 0.598626
O O13 0.729788 0.553874 0.182410
O O14 0.610564 0.500000 0.750000
O O15 0.668570 0.517498 0.915950
O O16 0.250000 0.102488 0.500000
#
# Coordination Sequence:
#
# PCOD8296120 Si02
#       8
#    16  16  16  16  16   8  16  16
#     4  11  23  43  68  94 128 178 213 270 332 390
#     4  11  24  41  66 101 133 168 214 272 337 392
#     4   9  18  33  59  98 132 163 204 254 319 402
#     4  10  21  36  61  95 140 168 205 264 326 399
#     4   9  19  36  62  99 135 161 206 258 327 413
#     4  12  28  46  68  96 130 174 224 280 320 380
#     4   9  18  37  68  93 126 177 208 263 334 385
#     4  11  25  48  66  90 129 174 234 275 314 377
#
# _framework density 23.019124999999999
#
# number of rings (size 3 to 8) (size 9 to 14) (size 15 to 20)
#    0.000    1.867    2.000    1.200    8.400    1.600 
#    0.000    3.333    0.000    0.000    0.000    0.000 
#    0.000    0.000    0.000    0.000    0.000    0.000 
#
# Total GULP energy -743749.606765 kJ/mol
# GULP energy per Si atom -12395.826779 kJ/mol
# Density = 2.296673 g / cm^3
# Si number density = 23.019125 Si / 1000 Ang^3
#
#
#
# Elastic Constant Matrix: (Units=GPa)
#
#
# Indices 1 2 3 4 5 6 
#
# 1 94.2580 61.7150 20.2817 0.0000 0.0000 0.0000
# 2 61.7150 139.7853 0.7517 0.0000 0.0000 0.0000
# 3 20.2817 0.7517 40.5028 0.0000 0.0000 0.0000
# 4 0.0000 0.0000 0.0000 18.5356 0.0000 0.0000
# 5 0.0000 0.0000 0.0000 0.0000 18.2651 0.0000
# 6 0.0000 0.0000 0.0000 0.0000 0.0000 32.1711
#
#
#
# Elastic Compliance Matrix: (Units=1/GPa)
#
#
# Indices 1 2 3 4 5 6 
#
# 1 0.017488 -0.007674 -0.008614 0.000000 0.000000 0.000000
# 2 -0.007674 0.010522 0.003648 0.000000 0.000000 0.000000
# 3 -0.008614 0.003648 0.028936 0.000000 0.000000 0.000000
# 4 0.000000 0.000000 0.000000 0.053950 0.000000 0.000000
# 5 0.000000 0.000000 0.000000 0.000000 0.054749 0.000000
# 6 0.000000 0.000000 0.000000 0.000000 0.000000 0.031084
#
#
# Mechanical properties :
#
#
# Convention : Reuss Voigt Hill
#
# Bulk Modulus (GPa) = 31.58236 48.89365 40.23800
# Shear Modulus (GPa) = 21.49932 26.58088 24.04010
#
# Velocity S-wave (km/s) = 3.05942 3.40182 3.23515
# Velocity P-wave (km/s) = 5.12151 6.05940 5.61009
#
# Compressibility (1/GPa) = 0.03166325
#
# Stress axis : x y z
#
# Youngs Moduli (GPa) = 57.18363 95.03496 34.55953
#
# Poissons Ratio (x) = 0.72934 0.29771
# Poissons Ratio (y) = 0.43885 -0.12606
# Poissons Ratio (z) = 0.49260 -0.34665
#
# Static dielectric constant tensor:
#      x y z
#    x 4.085540 0.000000 0.000000 
#    y 0.000000 4.170580 0.000000 
#    z 0.000000 0.000000 3.854160 
# 
# 
# High freq. dielectric constant tensor:
#      x y z
#    x 1.888380 0.000000 0.000000 
#    y 0.000000 1.914380 0.000000 
#    z 0.000000 0.000000 1.892210 
# 
# From -- ./inp_files/19541.got.cif
#   From: 2010.03.12/outbox.cif.g09.slc.cpg/sg73_10_cif.got.tgz:19541.got - 2010.04.16 15:25:48.
