data_PCOD8296166
_publ_section_title
;
Structure prediction by ZEFSAII (Michael W. Deem and Ramdas Pophale) SiO2 
 PCOD8296166
Probable space group: I B C A 
;
_chemical_formula_sum "Si O2"
_cell_formula_units_Z 88
_cell_length_a 15.083400
_cell_length_b 30.650972
_cell_length_c 8.854569
_cell_angle_alpha 90.000000
_cell_angle_beta 90.000000
_cell_angle_gamma 90.000000
_cell_volume 4093.652053
_symmetry_space_group_name_H-M "I B C A "
_symmetry_group_IT_number 73
_symmetry_cell_setting 'orthorhombic'
loop_
_space_group_symop_operation_xyz
x,y,z
-x,1/2-y,z
x,-y,1/2-z
1/2-x,y,-z
-x,-y,-z
x,1/2+y,-z
-x,y,1/2+z
1/2+x,-y,z
1/2+x,1/2+y,1/2+z
1/2-x,-y,1/2+z
1/2+x,1/2-y,-z
-x,1/2+y,1/2-z
1/2-x,1/2-y,1/2-z
1/2+x,y,1/2-z
1/2-x,1/2+y,z
x,1/2-y,1/2+z
loop_
_atom_site_type_symbol
_atom_site_label
_atom_site_fract_x
_atom_site_fract_y
_atom_site_fract_z
Si Si1 0.920374 0.121421 0.788613
Si Si2 0.346129 0.296559 0.696127
Si Si3 0.359081 0.791750 0.655750
Si Si4 0.905922 0.116884 0.139478
Si Si5 0.241992 0.438513 0.777478
Si Si6 0.750000 0.491841 0.000000
O O1 0.919598 0.170531 0.725473
O O2 0.834021 0.095271 0.729907
O O3 0.006740 0.096936 0.720375
O O4 0.927686 0.125915 0.966729
O O5 0.388641 0.255517 0.783763
O O6 0.372656 0.293208 0.522474
O O7 0.240687 0.299222 0.712444
O O8 0.383932 0.339465 0.771468
O O9 0.823332 0.084183 0.138130
O O10 0.289916 0.459660 0.627929
O O11 0.195433 0.474302 0.891190
#
# Coordination Sequence:
#
# PCOD8296166 Si02
#       6
#    16  16  16  16  16   8
#     4  12  25  42  67 100 135 177 221 271 326 389
#     4  10  21  38  64  97 134 179 223 271 321 380
#     4  10  21  38  64  97 134 179 223 271 321 380
#     4  12  25  42  67 100 135 177 221 271 326 389
#     4  11  24  48  73  98 134 170 218 270 331 404
#     4  10  24  46  78  98 126 176 212 268 346 394
#
# _framework density 21.496696
#
# number of rings (size 3 to 8) (size 9 to 14) (size 15 to 20)
#    0.000    1.091    3.636    2.182    5.091    2.182 
#    0.000    9.091    0.000    0.000    0.000    0.000 
#    0.000    0.000    0.000    0.000    0.000    0.000 
#
# Total GULP energy -545121.994256 kJ/mol
# GULP energy per Si atom -12389.136233 kJ/mol
# Density = 2.144777 g / cm^3
# Si number density = 21.496696 Si / 1000 Ang^3
#
#
#
# Elastic Constant Matrix: (Units=GPa)
#
#
# Indices 1 2 3 4 5 6 
#
# 1 84.2254 23.3077 37.0517 -0.0003 0.0010 0.0000
# 2 23.3077 85.6791 42.9600 0.0036 -0.0009 -0.0002
# 3 37.0517 42.9600 134.1014 0.0009 -0.0018 0.0025
# 4 -0.0003 0.0036 0.0009 41.0927 0.0013 0.0008
# 5 0.0010 -0.0009 -0.0018 0.0013 30.8545 -0.0013
# 6 0.0000 -0.0002 0.0025 0.0008 -0.0013 2.9893
#
#
#
# Elastic Compliance Matrix: (Units=1/GPa)
#
#
# Indices 1 2 3 4 5 6 
#
# 1 0.013856 -0.002204 -0.003122 0.000000 -0.000001 0.000003
# 2 -0.002204 0.014255 -0.003958 -0.000001 0.000000 0.000004
# 3 -0.003122 -0.003958 0.009588 0.000000 0.000001 -0.000008
# 4 0.000000 -0.000001 0.000000 0.024335 -0.000001 -0.000007
# 5 -0.000001 0.000000 0.000001 -0.000001 0.032410 0.000015
# 6 0.000003 0.000004 -0.000008 -0.000007 0.000015 0.334526
#
#
# Mechanical properties :
#
#
# Convention : Reuss Voigt Hill
#
# Bulk Modulus (GPa) = 52.27058 56.73828 54.50443
# Shear Modulus (GPa) = 11.01525 28.36640 19.69083
#
# Velocity S-wave (km/s) = 2.26612 3.63653 3.02982
# Velocity P-wave (km/s) = 5.58708 6.63956 6.13593
#
# Compressibility (1/GPa) = 0.01913122
#
# Stress axis : x y z
#
# Youngs Moduli (GPa) = 72.16905 70.14849 104.30029
#
# Poissons Ratio (x) = 0.15459 0.32567
# Poissons Ratio (y) = 0.15904 0.41281
# Poissons Ratio (z) = 0.22535 0.27764
#
# Static dielectric constant tensor:
#      x y z
#    x 3.739480 0.000000 0.000010 
#    y 0.000000 4.110930 -0.000020 
#    z 0.000010 -0.000020 4.119130 
# 
# 
# High freq. dielectric constant tensor:
#      x y z
#    x 1.813340 0.000000 0.000000 
#    y 0.000000 1.852780 0.000000 
#    z 0.000000 0.000000 1.870310 
# 
# From -- ./inp_files/5739.got.cif
#   From: 2010.03.12/outbox.cif.g09.slc.cpg/sg73_3_cif.got.tgz:5739.got - 2010.04.16 15:25:48.
