data_PCOD8296123
_publ_section_title
;
Structure prediction by ZEFSAII (Michael W. Deem and Ramdas Pophale) SiO2 
 PCOD8296123
Probable space group: I B C A 
;
_chemical_formula_sum "Si O2"
_cell_formula_units_Z 80
_cell_length_a 14.507378
_cell_length_b 17.970569
_cell_length_c 14.606908
_cell_angle_alpha 90.000000
_cell_angle_beta 90.000000
_cell_angle_gamma 90.000000
_cell_volume 3808.106181
_symmetry_space_group_name_H-M "I B C A "
_symmetry_group_IT_number 73
_symmetry_cell_setting 'orthorhombic'
loop_
_space_group_symop_operation_xyz
x,y,z
-x,1/2-y,z
x,-y,1/2-z
1/2-x,y,-z
-x,-y,-z
x,1/2+y,-z
-x,y,1/2+z
1/2+x,-y,z
1/2+x,1/2+y,1/2+z
1/2-x,-y,1/2+z
1/2+x,1/2-y,-z
-x,1/2+y,1/2-z
1/2-x,1/2-y,1/2-z
1/2+x,y,1/2-z
1/2-x,1/2+y,z
x,1/2-y,1/2+z
loop_
_atom_site_type_symbol
_atom_site_label
_atom_site_fract_x
_atom_site_fract_y
_atom_site_fract_z
Si Si1 0.238720 0.663407 0.764251
Si Si2 0.561273 0.081834 0.227580
Si Si3 0.117533 0.079867 0.651079
Si Si4 0.986086 0.585473 0.022519
Si Si5 0.323069 0.077417 0.075161
O O1 0.250000 0.750000 0.750000
O O2 0.130947 0.642580 0.767883
O O3 0.289946 0.621473 0.680910
O O4 0.280408 0.640321 0.861211
O O5 0.459640 0.089630 0.270307
O O6 0.562214 0.096407 0.119494
O O7 0.601289 0.000000 0.250000
O O8 0.077841 0.118762 0.558260
O O9 0.141697 0.992858 0.635571
O O10 0.090138 0.617994 0.025303
O O11 0.000000 0.500000 0.000000
O O12 0.250000 0.049025 0.000000
#
# Coordination Sequence:
#
# PCOD8296123 Si02
#       5
#    16  16  16  16  16
#     4  12  28  44  65  97 143 189 220 268 341 422
#     4  12  21  42  72  98 132 172 226 288 339 387
#     4  11  23  44  71 102 132 169 231 286 341 396
#     4  10  21  36  68 103 127 162 220 290 343 385
#     4  11  22  43  71 105 133 172 231 291 340 398
#
# _framework density 21.007819000000001
#
# number of rings (size 3 to 8) (size 9 to 14) (size 15 to 20)
#    0.000    0.800    6.000    3.000    8.400    0.800 
#    3.600    0.000    0.000    0.000    0.000    0.000 
#    0.000    0.000    0.000    0.000    0.000    0.000 
#
# Total GULP energy -495930.589120 kJ/mol
# GULP energy per Si atom -12398.264728 kJ/mol
# Density = 2.096000 g / cm^3
# Si number density = 21.007819 Si / 1000 Ang^3
#
#
#
# Elastic Constant Matrix: (Units=GPa)
#
#
# Indices 1 2 3 4 5 6 
#
# 1 110.3569 35.0465 32.1814 0.0000 0.0000 0.0000
# 2 35.0465 85.9421 17.3405 0.0000 0.0000 0.0000
# 3 32.1814 17.3405 121.2576 0.0000 0.0000 0.0000
# 4 0.0000 0.0000 0.0000 13.1607 0.0000 0.0000
# 5 0.0000 0.0000 0.0000 0.0000 56.1160 0.0000
# 6 0.0000 0.0000 0.0000 0.0000 0.0000 10.2002
#
#
#
# Elastic Compliance Matrix: (Units=1/GPa)
#
#
# Indices 1 2 3 4 5 6 
#
# 1 0.011024 -0.004021 -0.002351 0.000000 0.000000 0.000000
# 2 -0.004021 0.013448 -0.000856 0.000000 0.000000 0.000000
# 3 -0.002351 -0.000856 0.008993 0.000000 0.000000 0.000000
# 4 0.000000 0.000000 0.000000 0.075984 0.000000 0.000000
# 5 0.000000 0.000000 0.000000 0.000000 0.017820 0.000000
# 6 0.000000 0.000000 0.000000 0.000000 0.000000 0.098038
#
#
# Mechanical properties :
#
#
# Convention : Reuss Voigt Hill
#
# Bulk Modulus (GPa) = 52.60459 54.07706 53.34083
# Shear Modulus (GPa) = 20.31701 31.42793 25.87247
#
# Velocity S-wave (km/s) = 3.11322 3.87203 3.51317
# Velocity P-wave (km/s) = 6.16585 6.76664 6.47322
#
# Compressibility (1/GPa) = 0.01900975
#
# Stress axis : x y z
#
# Youngs Moduli (GPa) = 90.71093 74.35899 111.19540
#
# Poissons Ratio (x) = 0.29901 0.26139
# Poissons Ratio (y) = 0.36477 0.09518
# Poissons Ratio (z) = 0.21323 0.06365
#
# Static dielectric constant tensor:
#      x y z
#    x 4.407320 0.000000 0.000000 
#    y 0.000000 3.244350 0.000000 
#    z 0.000000 0.000000 4.489060 
# 
# 
# High freq. dielectric constant tensor:
#      x y z
#    x 1.845150 0.000000 0.000000 
#    y 0.000000 1.760050 0.000000 
#    z 0.000000 0.000000 1.843280 
# 
# From -- ./inp_files/16849.got.cif
#   From: 2010.03.12/outbox.cif.g09.slc.cpg/sg73_9_cif.got.tgz:16849.got - 2010.04.16 15:25:48.
