data_PCOD8296556
_publ_section_title
;
Structure prediction by ZEFSAII (Michael W. Deem and Ramdas Pophale) SiO2 
 PCOD8296556
Probable space group: I B C A 
;
_chemical_formula_sum "Si O2"
_cell_formula_units_Z 120
_cell_length_a 16.184233
_cell_length_b 11.958025
_cell_length_c 26.884698
_cell_angle_alpha 90.000000
_cell_angle_beta 90.000000
_cell_angle_gamma 90.000000
_cell_volume 5203.034931
_symmetry_space_group_name_H-M "I B C A "
_symmetry_group_IT_number 73
_symmetry_cell_setting 'orthorhombic'
loop_
_space_group_symop_operation_xyz
x,y,z
-x,1/2-y,z
x,-y,1/2-z
1/2-x,y,-z
-x,-y,-z
x,1/2+y,-z
-x,y,1/2+z
1/2+x,-y,z
1/2+x,1/2+y,1/2+z
1/2-x,-y,1/2+z
1/2+x,1/2-y,-z
-x,1/2+y,1/2-z
1/2-x,1/2-y,1/2-z
1/2+x,y,1/2-z
1/2-x,1/2+y,z
x,1/2-y,1/2+z
loop_
_atom_site_type_symbol
_atom_site_label
_atom_site_fract_x
_atom_site_fract_y
_atom_site_fract_z
Si Si1 0.375674 0.170543 0.248665
Si Si2 0.062279 0.020729 0.562507
Si Si3 0.000000 0.250000 0.178393
Si Si4 0.579446 0.329832 0.137193
Si Si5 0.703190 0.398317 0.721273
Si Si6 0.881227 0.747748 0.405637
Si Si7 0.377489 0.478864 0.460870
Si Si8 0.704367 0.651006 0.889305
O O1 0.454362 0.160053 0.285844
O O2 0.403274 0.135943 0.193784
O O3 0.341238 0.295368 0.247012
O O4 0.301680 0.095642 0.269441
O O5 0.060687 0.155045 0.570917
O O6 0.970843 0.982098 0.547783
O O7 0.077749 0.951158 0.612260
O O8 0.131543 0.987942 0.520843
O O9 0.928158 0.303106 0.142891
O O10 0.500000 0.250000 0.132700
O O11 0.652204 0.264498 0.108878
O O12 0.660877 0.500000 0.750000
O O13 0.684591 0.409713 0.662852
O O14 0.860280 0.648358 0.443783
O O15 0.799135 0.813485 0.390506
O O16 0.316003 0.565494 0.433818
#
# Coordination Sequence:
#
# PCOD8296556 Si02
#       8
#    16  16   8  16  16  16  16  16
#     4  10  23  41  66 100 139 187 235 292 357 430
#     4  11  26  47  76 105 139 190 243 301 372 433
#     4  12  22  44  68 102 142 186 234 296 356 434
#     4  11  23  45  72 103 146 186 243 300 358 438
#     4  10  23  40  66  97 139 186 231 294 359 425
#     4  12  27  47  72 105 144 190 237 302 364 434
#     4  11  26  48  75 101 144 185 242 303 366 440
#     4  11  26  44  70 107 142 190 240 295 366 432
#
# _framework density 23.063462000000001
#
# number of rings (size 3 to 8) (size 9 to 14) (size 15 to 20)
#    0.000    1.067    4.667    0.000    7.467    0.533 
#    0.000    0.667    0.000    0.000    0.000    0.000 
#    0.000    0.000    0.000    0.000    0.000    0.000 
#
# Total GULP energy -743794.024058 kJ/mol
# GULP energy per Si atom -12396.567068 kJ/mol
# Density = 2.301097 g / cm^3
# Si number density = 23.063462 Si / 1000 Ang^3
#
#
#
# Elastic Constant Matrix: (Units=GPa)
#
#
# Indices 1 2 3 4 5 6 
#
# 1 87.0543 11.4178 23.9514 0.0000 0.0000 0.0000
# 2 11.4178 99.6960 51.2236 0.0000 0.0000 0.0000
# 3 23.9514 51.2236 108.4856 0.0000 0.0000 0.0000
# 4 0.0000 0.0000 0.0000 31.2814 0.0000 0.0000
# 5 0.0000 0.0000 0.0000 0.0000 28.8427 0.0000
# 6 0.0000 0.0000 0.0000 0.0000 0.0000 16.4763
#
#
#
# Elastic Compliance Matrix: (Units=1/GPa)
#
#
# Indices 1 2 3 4 5 6 
#
# 1 0.012230 -0.000018 -0.002692 0.000000 0.000000 0.000000
# 2 -0.000018 0.013243 -0.006249 0.000000 0.000000 0.000000
# 3 -0.002692 -0.006249 0.012763 0.000000 0.000000 0.000000
# 4 0.000000 0.000000 0.000000 0.031968 0.000000 0.000000
# 5 0.000000 0.000000 0.000000 0.000000 0.034671 0.000000
# 6 0.000000 0.000000 0.000000 0.000000 0.000000 0.060693
#
#
# Mechanical properties :
#
#
# Convention : Reuss Voigt Hill
#
# Bulk Modulus (GPa) = 49.21536 52.04683 50.63109
# Shear Modulus (GPa) = 26.28008 29.22962 27.75485
#
# Velocity S-wave (km/s) = 3.37926 3.56386 3.47279
# Velocity P-wave (km/s) = 6.05073 6.28892 6.17097
#
# Compressibility (1/GPa) = 0.02031886
#
# Stress axis : x y z
#
# Youngs Moduli (GPa) = 81.76612 75.50961 78.35266
#
# Poissons Ratio (x) = 0.00133 0.21091
# Poissons Ratio (y) = 0.00144 0.48964
# Poissons Ratio (z) = 0.22010 0.47188
#
# Static dielectric constant tensor:
#      x y z
#    x 4.273650 0.000000 0.000000 
#    y 0.000000 3.926810 0.000000 
#    z 0.000000 0.000000 4.296480 
# 
# 
# High freq. dielectric constant tensor:
#      x y z
#    x 1.917260 0.000000 0.000000 
#    y 0.000000 1.898750 0.000000 
#    z 0.000000 0.000000 1.918680 
# 
# From -- ./inp_files/32461.got.cif
#   From: 2010.03.12/outbox.cif.g09.slc.cpg/sg73_17_cif.got.tgz:32461.got - 2010.04.16 15:25:48.
