data_PCOD8296007
_publ_section_title
;
Structure prediction by ZEFSAII (Michael W. Deem and Ramdas Pophale) SiO2 
 PCOD8296007
Probable space group: I B C A 
;
_chemical_formula_sum "Si O2"
_cell_formula_units_Z 96
_cell_length_a 11.584117
_cell_length_b 23.535787
_cell_length_c 16.850919
_cell_angle_alpha 90.000000
_cell_angle_beta 90.000000
_cell_angle_gamma 90.000000
_cell_volume 4594.256636
_symmetry_space_group_name_H-M "I B C A "
_symmetry_group_IT_number 73
_symmetry_cell_setting 'orthorhombic'
loop_
_space_group_symop_operation_xyz
x,y,z
-x,1/2-y,z
x,-y,1/2-z
1/2-x,y,-z
-x,-y,-z
x,1/2+y,-z
-x,y,1/2+z
1/2+x,-y,z
1/2+x,1/2+y,1/2+z
1/2-x,-y,1/2+z
1/2+x,1/2-y,-z
-x,1/2+y,1/2-z
1/2-x,1/2-y,1/2-z
1/2+x,y,1/2-z
1/2-x,1/2+y,z
x,1/2-y,1/2+z
loop_
_atom_site_type_symbol
_atom_site_label
_atom_site_fract_x
_atom_site_fract_y
_atom_site_fract_z
Si Si1 0.868421 0.919852 0.315754
Si Si2 0.900908 0.887011 0.886762
Si Si3 0.970692 0.625940 0.562682
Si Si4 0.817341 0.543041 0.639464
Si Si5 0.217813 0.333707 0.908322
Si Si6 0.228784 0.794476 0.593122
O O1 0.831547 0.929354 0.225937
O O2 0.806746 0.865633 0.352415
O O3 0.006371 0.907863 0.321413
O O4 0.827624 0.975335 0.364006
O O5 0.805361 0.936964 0.897250
O O6 0.832481 0.828957 0.862506
O O7 0.970613 0.872848 0.967264
O O8 0.923760 0.564139 0.586281
O O9 0.891688 0.673350 0.605386
O O10 0.095314 0.635985 0.599684
O O11 0.218238 0.269379 0.874855
O O12 0.250000 0.334501 0.000000
O O13 0.250000 0.795411 0.500000
#
# Coordination Sequence:
#
# PCOD8296007 Si02
#       6
#    16  16  16  16  16  16
#     4  11  25  39  59  91 118 166 205 253 312 370
#     4  10  21  42  62  88 123 157 208 252 316 363
#     4  10  20  40  63  89 118 161 200 252 304 369
#     4  10  25  41  61  81 125 169 201 254 311 370
#     4  11  21  36  61  97 120 149 205 252 300 369
#     4   8  18  36  63  87 121 157 190 246 310 362
#
# _framework density 20.895654
#
# number of rings (size 3 to 8) (size 9 to 14) (size 15 to 20)
#    0.000    2.000    1.667    2.000    4.667    4.000 
#    0.000    3.333    7.333    0.000    0.000    0.000 
#    0.000    0.000    0.000    0.000    0.000    0.000 
#
# Total GULP energy -595071.583824 kJ/mol
# GULP energy per Si atom -12397.324663 kJ/mol
# Density = 2.084809 g / cm^3
# Si number density = 20.895654 Si / 1000 Ang^3
#
#
#
# Elastic Constant Matrix: (Units=GPa)
#
#
# Indices 1 2 3 4 5 6 
#
# 1 115.1475 25.0312 1.5640 0.0000 0.0000 0.0000
# 2 25.0312 93.0614 14.7520 0.0000 0.0000 0.0000
# 3 1.5640 14.7520 24.2001 0.0001 0.0000 0.0000
# 4 0.0000 0.0000 0.0001 14.2654 0.0000 0.0000
# 5 0.0000 0.0000 0.0000 0.0000 22.4685 0.0000
# 6 0.0000 0.0000 0.0000 0.0000 0.0000 23.1988
#
#
#
# Elastic Compliance Matrix: (Units=1/GPa)
#
#
# Indices 1 2 3 4 5 6 
#
# 1 0.009246 -0.002648 0.001017 0.000000 0.000000 0.000000
# 2 -0.002648 0.012653 -0.007542 0.000000 0.000000 0.000000
# 3 0.001017 -0.007542 0.045854 0.000000 0.000000 0.000000
# 4 0.000000 0.000000 0.000000 0.070100 0.000000 0.000000
# 5 0.000000 0.000000 0.000000 0.000000 0.044507 0.000000
# 6 0.000000 0.000000 0.000000 0.000000 0.000000 0.043106
#
#
# Mechanical properties :
#
#
# Convention : Reuss Voigt Hill
#
# Bulk Modulus (GPa) = 20.24025 35.01150 27.62587
# Shear Modulus (GPa) = 19.20992 24.72399 21.96695
#
# Velocity S-wave (km/s) = 3.03533 3.44352 3.24585
# Velocity P-wave (km/s) = 4.68953 5.70983 5.22465
#
# Compressibility (1/GPa) = 0.04940651
#
# Stress axis : x y z
#
# Youngs Moduli (GPa) = 108.15039 79.02969 21.80834
#
# Poissons Ratio (x) = 0.20929 -0.02217
# Poissons Ratio (y) = 0.28641 0.16448
# Poissons Ratio (z) = -0.10996 0.59606
#
# Static dielectric constant tensor:
#      x y z
#    x 3.826990 0.000000 0.000000 
#    y 0.000000 4.001040 0.000000 
#    z 0.000000 0.000000 3.534010 
# 
# 
# High freq. dielectric constant tensor:
#      x y z
#    x 1.826010 0.000000 0.000000 
#    y 0.000000 1.823210 0.000000 
#    z 0.000000 0.000000 1.792290 
# 
# From -- ./inp_files/12016.got.cif
#   From: 2010.03.12/outbox.cif.g09.slc.cpg/sg73_7_cif.got.tgz:12016.got - 2010.04.16 15:25:48.
