data_PCOD8296628
_publ_section_title
;
Structure prediction by ZEFSAII (Michael W. Deem and Ramdas Pophale) SiO2 
 PCOD8296628
Probable space group: I B C A 
;
_chemical_formula_sum "Si O2"
_cell_formula_units_Z 96
_cell_length_a 13.983408
_cell_length_b 13.589488
_cell_length_c 24.230911
_cell_angle_alpha 90.000000
_cell_angle_beta 90.000000
_cell_angle_gamma 90.000000
_cell_volume 4604.535932
_symmetry_space_group_name_H-M "I B C A "
_symmetry_group_IT_number 73
_symmetry_cell_setting 'orthorhombic'
loop_
_space_group_symop_operation_xyz
x,y,z
-x,1/2-y,z
x,-y,1/2-z
1/2-x,y,-z
-x,-y,-z
x,1/2+y,-z
-x,y,1/2+z
1/2+x,-y,z
1/2+x,1/2+y,1/2+z
1/2-x,-y,1/2+z
1/2+x,1/2-y,-z
-x,1/2+y,1/2-z
1/2-x,1/2-y,1/2-z
1/2+x,y,1/2-z
1/2-x,1/2+y,z
x,1/2-y,1/2+z
loop_
_atom_site_type_symbol
_atom_site_label
_atom_site_fract_x
_atom_site_fract_y
_atom_site_fract_z
Si Si1 0.928618 0.055703 0.039208
Si Si2 0.329594 0.620785 0.112689
Si Si3 0.000000 0.750000 0.158214
Si Si4 0.478256 0.032349 0.638467
Si Si5 0.310858 0.681967 0.788964
Si Si6 0.584061 0.500000 0.250000
Si Si7 0.750000 0.450362 0.000000
Si Si8 0.500000 0.250000 0.923030
O O1 0.948445 0.172112 0.036594
O O2 0.942444 0.019904 0.101443
O O3 0.823531 0.029788 0.022071
O O4 0.000000 0.000000 0.000000
O O5 0.372552 0.512497 0.127257
O O6 0.247990 0.649459 0.156410
O O7 0.417915 0.698500 0.114711
O O8 0.287059 0.618263 0.050278
O O9 0.017471 0.850703 0.123784
O O10 0.094607 0.741273 0.194884
O O11 0.510689 0.006427 0.699688
O O12 0.250000 0.750000 0.750000
O O13 0.343563 0.591241 0.751243
#
# Coordination Sequence:
#
# PCOD8296628 Si02
#       8
#    16  16   8  16  16   8   8   8
#     4  11  23  46  66 102 137 182 227 290 349 409
#     4  11  26  44  72 105 142 184 232 287 347 425
#     4  10  24  46  64 104 134 182 226 294 340 414
#     4  10  23  45  71  95 145 181 227 290 354 405
#     4  11  27  42  73 105 135 183 237 283 349 417
#     4  10  24  44  66 100 142 182 222 298 342 404
#     4  12  22  46  72 102 140 184 234 280 352 410
#     4  10  24  46  70 102 140 184 226 292 346 414
#
# _framework density 20.849007
#
# number of rings (size 3 to 8) (size 9 to 14) (size 15 to 20)
#    0.000    1.333    3.333    2.000   11.667    2.667 
#    3.000    0.000    0.000    0.000    0.000    0.000 
#    0.000    0.000    0.000    0.000    0.000    0.000 
#
# Total GULP energy -594950.238409 kJ/mol
# GULP energy per Si atom -12394.796634 kJ/mol
# Density = 2.080155 g / cm^3
# Si number density = 20.849007 Si / 1000 Ang^3
#
#
#
# Elastic Constant Matrix: (Units=GPa)
#
#
# Indices 1 2 3 4 5 6 
#
# 1 137.6106 49.9365 43.2404 0.0000 0.0000 0.0000
# 2 49.9365 141.8028 44.7719 0.0000 0.0000 0.0000
# 3 43.2404 44.7719 115.1245 0.0000 0.0000 0.0000
# 4 0.0000 0.0000 0.0000 30.6748 0.0000 0.0000
# 5 0.0000 0.0000 0.0000 0.0000 27.5443 0.0000
# 6 0.0000 0.0000 0.0000 0.0000 0.0000 39.7508
#
#
#
# Elastic Compliance Matrix: (Units=1/GPa)
#
#
# Indices 1 2 3 4 5 6 
#
# 1 0.008885 -0.002366 -0.002417 0.000000 0.000000 0.000000
# 2 -0.002366 0.008669 -0.002483 0.000000 0.000000 0.000000
# 3 -0.002417 -0.002483 0.010560 0.000000 0.000000 0.000000
# 4 0.000000 0.000000 0.000000 0.032600 0.000000 0.000000
# 5 0.000000 0.000000 0.000000 0.000000 0.036305 0.000000
# 6 0.000000 0.000000 0.000000 0.000000 0.000000 0.025157
#
#
# Mechanical properties :
#
#
# Convention : Reuss Voigt Hill
#
# Bulk Modulus (GPa) = 73.62517 74.49283 74.05900
# Shear Modulus (GPa) = 35.40217 36.69992 36.05105
#
# Velocity S-wave (km/s) = 4.12518 4.20011 4.16282
# Velocity P-wave (km/s) = 7.62100 7.70250 7.66186
#
# Compressibility (1/GPa) = 0.01358231
#
# Stress axis : x y z
#
# Youngs Moduli (GPa) = 112.55106 115.35287 94.69981
#
# Poissons Ratio (x) = 0.27289 0.22890
# Poissons Ratio (y) = 0.26626 0.23513
# Poissons Ratio (z) = 0.27205 0.28640
#
# Static dielectric constant tensor:
#      x y z
#    x 3.844300 0.000000 0.000000 
#    y 0.000000 3.972710 0.000000 
#    z 0.000000 0.000000 3.732340 
# 
# 
# High freq. dielectric constant tensor:
#      x y z
#    x 1.831220 0.000000 0.000000 
#    y 0.000000 1.824250 0.000000 
#    z 0.000000 0.000000 1.811980 
# 
# From -- ./inp_files/17131.got.cif
#   From: 2010.03.12/outbox.cif.g09.slc.cpg/sg73_9_cif.got.tgz:17131.got - 2010.04.16 15:25:48.
