data_PCOD8296275
_publ_section_title
;
Structure prediction by ZEFSAII (Michael W. Deem and Ramdas Pophale) SiO2 
 PCOD8296275
Probable space group: I B C A 
;
_chemical_formula_sum "Si O2"
_cell_formula_units_Z 104
_cell_length_a 14.154165
_cell_length_b 18.029375
_cell_length_c 19.449798
_cell_angle_alpha 90.000000
_cell_angle_beta 90.000000
_cell_angle_gamma 90.000000
_cell_volume 4963.408512
_symmetry_space_group_name_H-M "I B C A "
_symmetry_group_IT_number 73
_symmetry_cell_setting 'orthorhombic'
loop_
_space_group_symop_operation_xyz
x,y,z
-x,1/2-y,z
x,-y,1/2-z
1/2-x,y,-z
-x,-y,-z
x,1/2+y,-z
-x,y,1/2+z
1/2+x,-y,z
1/2+x,1/2+y,1/2+z
1/2-x,-y,1/2+z
1/2+x,1/2-y,-z
-x,1/2+y,1/2-z
1/2-x,1/2-y,1/2-z
1/2+x,y,1/2-z
1/2-x,1/2+y,z
x,1/2-y,1/2+z
loop_
_atom_site_type_symbol
_atom_site_label
_atom_site_fract_x
_atom_site_fract_y
_atom_site_fract_z
Si Si1 0.086176 0.658441 0.291688
Si Si2 0.662896 0.470487 0.044989
Si Si3 0.750000 0.742853 0.000000
Si Si4 0.580084 0.338590 0.979641
Si Si5 0.287476 0.432213 0.700297
Si Si6 0.122608 0.178949 0.179176
Si Si7 0.878786 0.866531 0.439560
O O1 0.121645 0.612650 0.226618
O O2 0.143836 0.735117 0.303657
O O3 0.099088 0.611373 0.361460
O O4 0.974779 0.665581 0.280715
O O5 0.689216 0.460643 0.124544
O O6 0.638529 0.554858 0.023998
O O7 0.750000 0.442416 0.000000
O O8 0.578116 0.418511 0.017510
O O9 0.656550 0.789426 0.976001
O O10 0.712941 0.686862 0.059374
O O11 0.619259 0.335848 0.902276
O O12 0.467168 0.319534 0.974658
O O13 0.262866 0.500000 0.750000
O O14 0.200405 0.376166 0.708076
#
# Coordination Sequence:
#
# PCOD8296275 Si02
#       7
#    16  16   8  16  16  16  16
#     4  10  22  42  66  94 128 171 217 264 329 391
#     4  12  23  43  65  94 136 175 219 272 329 393
#     4  12  20  36  66  96 132 158 222 270 316 402
#     4  11  22  41  67  95 126 180 218 263 333 398
#     4  12  24  41  66  99 132 170 221 275 330 391
#     4  10  21  42  69  91 128 173 216 263 329 397
#     4  11  23  39  65  98 132 172 217 272 327 391
#
# _framework density 20.953341999999999
#
# number of rings (size 3 to 8) (size 9 to 14) (size 15 to 20)
#    0.000    0.923    6.154    1.385    0.000    0.615 
#    0.000    1.538    6.769    0.000    0.000    0.000 
#    0.000    0.000    0.000    0.000    0.000    0.000 
#
# Total GULP energy -644216.240197 kJ/mol
# GULP energy per Si atom -12388.773850 kJ/mol
# Density = 2.090565 g / cm^3
# Si number density = 20.953342 Si / 1000 Ang^3
#
#
#
# Elastic Constant Matrix: (Units=GPa)
#
#
# Indices 1 2 3 4 5 6 
#
# 1 111.5054 45.7821 38.8666 0.0000 0.0000 0.0000
# 2 45.7821 103.9583 20.7365 0.0000 0.0000 0.0000
# 3 38.8666 20.7365 73.2085 0.0000 0.0000 0.0000
# 4 0.0000 0.0000 0.0000 24.6753 0.0000 0.0000
# 5 0.0000 0.0000 0.0000 0.0000 27.5281 0.0000
# 6 0.0000 0.0000 0.0000 0.0000 0.0000 29.4609
#
#
#
# Elastic Compliance Matrix: (Units=1/GPa)
#
#
# Indices 1 2 3 4 5 6 
#
# 1 0.012732 -0.004514 -0.005481 0.000000 0.000000 0.000000
# 2 -0.004514 0.011795 -0.000945 0.000000 0.000000 0.000000
# 3 -0.005481 -0.000945 0.016837 0.000000 0.000000 0.000000
# 4 0.000000 0.000000 0.000000 0.040526 0.000000 0.000000
# 5 0.000000 0.000000 0.000000 0.000000 0.036327 0.000000
# 6 0.000000 0.000000 0.000000 0.000000 0.000000 0.033943
#
#
# Mechanical properties :
#
#
# Convention : Reuss Voigt Hill
#
# Bulk Modulus (GPa) = 51.31965 55.49361 53.40663
# Shear Modulus (GPa) = 27.69556 28.55200 28.12378
#
# Velocity S-wave (km/s) = 3.63956 3.69541 3.66759
# Velocity P-wave (km/s) = 6.49672 6.68954 6.59384
#
# Compressibility (1/GPa) = 0.01948571
#
# Stress axis : x y z
#
# Youngs Moduli (GPa) = 78.54327 84.77831 59.39293
#
# Poissons Ratio (x) = 0.38266 0.32552
# Poissons Ratio (y) = 0.35452 0.05611
# Poissons Ratio (z) = 0.43048 0.08009
#
# Static dielectric constant tensor:
#      x y z
#    x 3.873190 0.000000 0.000000 
#    y 0.000000 3.955640 0.000000 
#    z 0.000000 0.000000 3.500710 
# 
# 
# High freq. dielectric constant tensor:
#      x y z
#    x 1.821710 0.000000 0.000000 
#    y 0.000000 1.841380 0.000000 
#    z 0.000000 0.000000 1.789280 
# 
# From -- ./inp_files/26135.got.cif
#   From: 2010.03.12/outbox.cif.g09.slc.cpg/sg73_14_cif.got.tgz:26135.got - 2010.04.16 15:25:48.
