data_PCOD8296480
_publ_section_title
;
Structure prediction by ZEFSAII (Michael W. Deem and Ramdas Pophale) SiO2 
 PCOD8296480
Probable space group: I B C A 
;
_chemical_formula_sum "Si O2"
_cell_formula_units_Z 96
_cell_length_a 22.448261
_cell_length_b 16.097956
_cell_length_c 13.774951
_cell_angle_alpha 90.000000
_cell_angle_beta 90.000000
_cell_angle_gamma 90.000000
_cell_volume 4977.869441
_symmetry_space_group_name_H-M "I B C A "
_symmetry_group_IT_number 73
_symmetry_cell_setting 'orthorhombic'
loop_
_space_group_symop_operation_xyz
x,y,z
-x,1/2-y,z
x,-y,1/2-z
1/2-x,y,-z
-x,-y,-z
x,1/2+y,-z
-x,y,1/2+z
1/2+x,-y,z
1/2+x,1/2+y,1/2+z
1/2-x,-y,1/2+z
1/2+x,1/2-y,-z
-x,1/2+y,1/2-z
1/2-x,1/2-y,1/2-z
1/2+x,y,1/2-z
1/2-x,1/2+y,z
x,1/2-y,1/2+z
loop_
_atom_site_type_symbol
_atom_site_label
_atom_site_fract_x
_atom_site_fract_y
_atom_site_fract_z
Si Si1 0.396524 0.044516 0.347785
Si Si2 0.211962 0.145867 0.588803
Si Si3 0.845487 0.811685 0.894262
Si Si4 0.936531 0.208366 0.232996
Si Si5 0.122288 0.121997 0.904834
Si Si6 0.745076 0.592393 0.290631
O O1 0.343802 0.085201 0.407774
O O2 0.443070 0.118403 0.322484
O O3 0.370786 0.000000 0.250000
O O4 0.418168 0.963635 0.407520
O O5 0.250000 0.109173 0.500000
O O6 0.195979 0.239838 0.562041
O O7 0.241675 0.150605 0.695201
O O8 0.892985 0.772096 0.820539
O O9 0.805906 0.883083 0.844937
O O10 0.880014 0.849620 0.985002
O O11 0.909552 0.191712 0.339296
O O12 0.000000 0.250000 0.243305
O O13 0.189073 0.105137 0.863397
O O14 0.751513 0.500000 0.250000
#
# Coordination Sequence:
#
# PCOD8296480 Si02
#       6
#    16  16  16  16  16  16
#     4   9  17  38  59  84 114 161 199 233 300 363
#     4  11  20  32  56  87 122 162 192 234 292 360
#     4  11  25  36  60  92 125 156 204 250 301 364
#     4  10  22  43  64  85 115 157 211 263 298 350
#     4  11  20  40  63  89 120 165 198 240 312 374
#     4  12  21  37  57  90 130 162 191 243 300 375
#
# _framework density 19.285357999999999
#
# number of rings (size 3 to 8) (size 9 to 14) (size 15 to 20)
#    0.000    1.333    6.667    2.000    4.667    0.667 
#    0.000    3.333    0.000    0.000    0.000    0.000 
#    0.000    0.000    0.000    0.000    0.000    0.000 
#
# Total GULP energy -594636.921770 kJ/mol
# GULP energy per Si atom -12388.269204 kJ/mol
# Density = 1.924146 g / cm^3
# Si number density = 19.285358 Si / 1000 Ang^3
#
#
#
# Elastic Constant Matrix: (Units=GPa)
#
#
# Indices 1 2 3 4 5 6 
#
# 1 91.8067 50.8153 34.2992 0.0000 0.0000 0.0000
# 2 50.8153 113.5239 32.2555 0.0000 0.0000 0.0000
# 3 34.2992 32.2555 70.4755 0.0000 0.0000 0.0000
# 4 0.0000 0.0000 0.0000 20.8430 0.0000 0.0000
# 5 0.0000 0.0000 0.0000 0.0000 13.2836 0.0000
# 6 0.0000 0.0000 0.0000 0.0000 0.0000 21.5363
#
#
#
# Elastic Compliance Matrix: (Units=1/GPa)
#
#
# Indices 1 2 3 4 5 6 
#
# 1 0.015968 -0.005678 -0.005173 0.000000 0.000000 0.000000
# 2 -0.005678 0.012144 -0.002795 0.000000 0.000000 0.000000
# 3 -0.005173 -0.002795 0.017986 0.000000 0.000000 0.000000
# 4 0.000000 0.000000 0.000000 0.047978 0.000000 0.000000
# 5 0.000000 0.000000 0.000000 0.000000 0.075281 0.000000
# 6 0.000000 0.000000 0.000000 0.000000 0.000000 0.046433
#
#
# Mechanical properties :
#
#
# Convention : Reuss Voigt Hill
#
# Bulk Modulus (GPa) = 53.17083 56.72735 54.94909
# Shear Modulus (GPa) = 20.05218 21.69498 20.87358
#
# Velocity S-wave (km/s) = 3.22803 3.35766 3.29348
# Velocity P-wave (km/s) = 6.44391 6.67161 6.55875
#
# Compressibility (1/GPa) = 0.01880730
#
# Stress axis : x y z
#
# Youngs Moduli (GPa) = 62.62705 82.34310 55.59891
#
# Poissons Ratio (x) = 0.46752 0.28759
# Poissons Ratio (y) = 0.35558 0.15540
# Poissons Ratio (z) = 0.32394 0.23015
#
# Static dielectric constant tensor:
#      x y z
#    x 3.146670 0.000000 0.000000 
#    y 0.000000 4.081770 0.000000 
#    z 0.000000 0.000000 3.600320 
# 
# 
# High freq. dielectric constant tensor:
#      x y z
#    x 1.706370 0.000000 0.000000 
#    y 0.000000 1.771860 0.000000 
#    z 0.000000 0.000000 1.749870 
# 
# From -- ./inp_files/18614.got.cif
#   From: 2010.03.12/outbox.cif.g09.slc.cpg/sg73_10_cif.got.tgz:18614.got - 2010.04.16 15:25:48.
