data_PCOD8296127
_publ_section_title
;
Structure prediction by ZEFSAII (Michael W. Deem and Ramdas Pophale) SiO2 
 PCOD8296127
Probable space group: I B C A 
;
_chemical_formula_sum "Si O2"
_cell_formula_units_Z 112
_cell_length_a 24.059442
_cell_length_b 15.126128
_cell_length_c 13.403601
_cell_angle_alpha 90.000000
_cell_angle_beta 90.000000
_cell_angle_gamma 90.000000
_cell_volume 4877.921569
_symmetry_space_group_name_H-M "I B C A "
_symmetry_group_IT_number 73
_symmetry_cell_setting 'orthorhombic'
loop_
_space_group_symop_operation_xyz
x,y,z
-x,1/2-y,z
x,-y,1/2-z
1/2-x,y,-z
-x,-y,-z
x,1/2+y,-z
-x,y,1/2+z
1/2+x,-y,z
1/2+x,1/2+y,1/2+z
1/2-x,-y,1/2+z
1/2+x,1/2-y,-z
-x,1/2+y,1/2-z
1/2-x,1/2-y,1/2-z
1/2+x,y,1/2-z
1/2-x,1/2+y,z
x,1/2-y,1/2+z
loop_
_atom_site_type_symbol
_atom_site_label
_atom_site_fract_x
_atom_site_fract_y
_atom_site_fract_z
Si Si1 0.219108 0.834630 0.647336
Si Si2 0.548911 0.688117 0.869065
Si Si3 0.075897 0.000877 0.132847
Si Si4 0.225970 0.650958 0.366648
Si Si5 0.199751 0.511773 0.866419
Si Si6 0.855178 0.744767 0.500888
Si Si7 0.951105 0.688576 0.365161
O O1 0.231073 0.730005 0.653106
O O2 0.197174 0.867085 0.757005
O O3 0.272748 0.891764 0.613088
O O4 0.174279 0.838836 0.557050
O O5 0.500000 0.750000 0.913614
O O6 0.539787 0.585112 0.898215
O O7 0.553190 0.703551 0.751915
O O8 0.607880 0.712059 0.913721
O O9 0.085681 0.000000 0.250000
O O10 0.138121 0.005030 0.083541
O O11 0.038339 0.086250 0.104810
O O12 0.258117 0.563986 0.405350
O O13 0.185130 0.679887 0.455635
O O14 0.191989 0.500000 0.750000
O O15 0.891303 0.712479 0.408299
O O16 0.000000 0.750000 0.410182
#
# Coordination Sequence:
#
# PCOD8296127 Si02
#       7
#    16  16  16  16  16  16  16
#     4  10  21  37  57  85 122 159 196 238 285 346
#     4  10  22  41  63  86 114 152 201 253 302 353
#     4   9  18  37  65  89 114 155 201 246 299 355
#     4  10  21  37  57  85 122 159 196 238 285 346
#     4   9  18  35  60  89 121 159 199 238 288 353
#     4  12  22  36  58  88 124 162 194 238 298 350
#     4  10  22  41  63  86 114 152 201 253 302 353
#
# _framework density 22.960599999999999
#
# number of rings (size 3 to 8) (size 9 to 14) (size 15 to 20)
#    0.000    2.000    0.000    3.429    0.000    5.714 
#    0.000    8.571    0.000    5.143    0.000    0.000 
#    0.000    0.000    0.000    0.000    0.000    0.000 
#
# Total GULP energy -693898.780668 kJ/mol
# GULP energy per Si atom -12391.049655 kJ/mol
# Density = 2.290834 g / cm^3
# Si number density = 22.960600 Si / 1000 Ang^3
#
#
#
# Elastic Constant Matrix: (Units=GPa)
#
#
# Indices 1 2 3 4 5 6 
#
# 1 113.5362 59.7973 38.5178 0.0000 0.0000 0.0000
# 2 59.7973 153.9973 21.6327 0.0000 0.0000 0.0000
# 3 38.5178 21.6327 80.3938 0.0000 0.0000 0.0000
# 4 0.0000 0.0000 0.0000 0.1283 0.0000 0.0000
# 5 0.0000 0.0000 0.0000 0.0000 32.7159 0.0000
# 6 0.0000 0.0000 0.0000 0.0000 0.0000 34.4132
#
#
#
# Elastic Compliance Matrix: (Units=1/GPa)
#
#
# Indices 1 2 3 4 5 6 
#
# 1 0.012724 -0.004245 -0.004954 0.000000 0.000000 0.000000
# 2 -0.004245 0.008165 -0.000163 0.000000 0.000000 0.000000
# 3 -0.004954 -0.000163 0.014856 0.000000 0.000000 0.000000
# 4 0.000000 0.000000 0.000000 7.796185 0.000000 0.000000
# 5 0.000000 0.000000 0.000000 0.000000 0.030566 0.000000
# 6 0.000000 0.000000 0.000000 0.000000 0.000000 0.029059
#
#
# Mechanical properties :
#
#
# Convention : Reuss Voigt Hill
#
# Bulk Modulus (GPa) = 58.75154 65.31366 62.03260
# Shear Modulus (GPa) = 0.63164 28.65011 14.64087
#
# Velocity S-wave (km/s) = 0.52506 3.53625 2.52792
# Velocity P-wave (km/s) = 5.10011 6.72169 5.96625
#
# Compressibility (1/GPa) = 0.01702083
#
# Stress axis : x y z
#
# Youngs Moduli (GPa) = 78.59062 122.47630 67.31167
#
# Poissons Ratio (x) = 0.51990 0.33347
# Poissons Ratio (y) = 0.33361 0.01099
# Poissons Ratio (z) = 0.38935 0.01999
#
# Static dielectric constant tensor:
#      x y z
#    x 3.998380 0.000000 0.000000 
#    y 0.000000 4.552660 0.000000 
#    z 0.000000 0.000000 4.234030 
# 
# 
# High freq. dielectric constant tensor:
#      x y z
#    x 1.878770 0.000000 0.000000 
#    y 0.000000 1.907270 0.000000 
#    z 0.000000 0.000000 1.916630 
# 
# From -- ./inp_files/17256.got.cif
#   From: 2010.03.12/outbox.cif.g09.slc.cpg/sg73_9_cif.got.tgz:17256.got - 2010.04.16 15:25:48.
