data_PCOD8296065
_publ_section_title
;
Structure prediction by ZEFSAII (Michael W. Deem and Ramdas Pophale) SiO2 
 PCOD8296065
Probable space group: I B C A 
;
_chemical_formula_sum "Si O2"
_cell_formula_units_Z 80
_cell_length_a 18.420558
_cell_length_b 24.361820
_cell_length_c 8.728069
_cell_angle_alpha 90.000000
_cell_angle_beta 90.000000
_cell_angle_gamma 90.000000
_cell_volume 3916.793566
_symmetry_space_group_name_H-M "I B C A "
_symmetry_group_IT_number 73
_symmetry_cell_setting 'orthorhombic'
loop_
_space_group_symop_operation_xyz
x,y,z
-x,1/2-y,z
x,-y,1/2-z
1/2-x,y,-z
-x,-y,-z
x,1/2+y,-z
-x,y,1/2+z
1/2+x,-y,z
1/2+x,1/2+y,1/2+z
1/2-x,-y,1/2+z
1/2+x,1/2-y,-z
-x,1/2+y,1/2-z
1/2-x,1/2-y,1/2-z
1/2+x,y,1/2-z
1/2-x,1/2+y,z
x,1/2-y,1/2+z
loop_
_atom_site_type_symbol
_atom_site_label
_atom_site_fract_x
_atom_site_fract_y
_atom_site_fract_z
Si Si1 0.188704 0.322291 0.717935
Si Si2 0.750000 0.235173 0.000000
Si Si3 0.568542 0.064462 0.748288
Si Si4 0.169567 0.000000 0.250000
Si Si5 0.077364 0.907415 0.399671
Si Si6 0.274268 0.910016 0.155753
O O1 0.194049 0.298405 0.891114
O O2 0.197307 0.272865 0.600879
O O3 0.114202 0.353716 0.676437
O O4 0.253529 0.368379 0.705144
O O5 0.575587 0.092779 0.583131
O O6 0.504403 0.093988 0.838904
O O7 0.641952 0.074636 0.842176
O O8 0.551905 0.000000 0.750000
O O9 0.118647 0.036651 0.143057
O O10 0.223244 0.036471 0.351386
O O11 0.250000 0.878810 0.000000
#
# Coordination Sequence:
#
# PCOD8296065 Si02
#       6
#    16   8  16   8  16  16
#     4  10  22  40  68  96 122 165 214 280 323 389
#     4  10  20  42  70  94 122 156 224 278 344 370
#     4  12  24  39  62  92 140 180 207 254 312 390
#     4  10  22  36  58  88 134 162 226 252 308 392
#     4  11  25  40  61  95 132 176 217 259 322 391
#     4  11  22  37  62  95 129 170 214 260 320 382
#
# _framework density 20.424871
#
# number of rings (size 3 to 8) (size 9 to 14) (size 15 to 20)
#    0.000    1.200    3.000    3.000    5.600    1.600 
#    0.000    0.000    0.000   20.400    0.000    0.000 
#    0.000    0.000    0.000    0.000    0.000    0.000 
#
# Total GULP energy -495714.137565 kJ/mol
# GULP energy per Si atom -12392.853439 kJ/mol
# Density = 2.037838 g / cm^3
# Si number density = 20.424871 Si / 1000 Ang^3
#
#
#
# Elastic Constant Matrix: (Units=GPa)
#
#
# Indices 1 2 3 4 5 6 
#
# 1 149.4428 30.8616 51.4472 0.0000 0.0000 0.0000
# 2 30.8616 80.1435 35.1637 0.0000 0.0000 0.0000
# 3 51.4472 35.1637 124.8864 0.0000 0.0000 0.0000
# 4 0.0000 0.0000 0.0000 33.3609 0.0000 0.0000
# 5 0.0000 0.0000 0.0000 0.0000 27.0081 0.0000
# 6 0.0000 0.0000 0.0000 0.0000 0.0000 -2.7377
#
#
#
# Elastic Compliance Matrix: (Units=1/GPa)
#
#
# Indices 1 2 3 4 5 6 
#
# 1 0.008037 -0.001874 -0.002783 0.000000 0.000000 0.000000
# 2 -0.001874 0.014673 -0.003360 0.000000 0.000000 0.000000
# 3 -0.002783 -0.003360 0.010100 0.000000 0.000000 0.000000
# 4 0.000000 0.000000 0.000000 0.029975 0.000000 0.000000
# 5 0.000000 0.000000 0.000000 0.000000 0.037026 0.000000
# 6 0.000000 0.000000 0.000000 0.000000 0.000000 -0.365270
#
#
# Mechanical properties :
#
#
# Convention : Reuss Voigt Hill
#
# Bulk Modulus (GPa) = 59.60624 65.49086 62.54855
# Shear Modulus (GPa) = -20.50573 27.32628 3.41027
#
# Velocity S-wave (km/s) = -3.17197 3.66169 1.29356
# Velocity P-wave (km/s) = 3.97886 7.07186 5.73770
#
# Compressibility (1/GPa) = 0.01677677
#
# Stress axis : x y z
#
# Youngs Moduli (GPa) = 124.43129 68.15166 99.01235
#
# Poissons Ratio (x) = 0.12769 0.27557
# Poissons Ratio (y) = 0.23313 0.33264
# Poissons Ratio (z) = 0.34631 0.22896
#
# Static dielectric constant tensor:
#      x y z
#    x 3.600340 0.000000 0.000000 
#    y 0.000000 3.867300 0.000000 
#    z 0.000000 0.000000 4.218130 
# 
# 
# High freq. dielectric constant tensor:
#      x y z
#    x 1.786640 0.000000 0.000000 
#    y 0.000000 1.801340 0.000000 
#    z 0.000000 0.000000 1.808130 
# 
# From -- ./inp_files/5607.got.cif
#   From: 2010.03.12/outbox.cif.g09.slc.cpg/sg73_3_cif.got.tgz:5607.got - 2010.04.16 15:25:48.
