data_PCOD8296776
_publ_section_title
;
Structure prediction by ZEFSAII (Michael W. Deem and Ramdas Pophale) SiO2 
 PCOD8296776
Probable space group: I B C A 
;
_chemical_formula_sum "Si O2"
_cell_formula_units_Z 64
_cell_length_a 8.982890
_cell_length_b 24.999196
_cell_length_c 12.364231
_cell_angle_alpha 90.000000
_cell_angle_beta 90.000000
_cell_angle_gamma 90.000000
_cell_volume 2776.573878
_symmetry_space_group_name_H-M "I B C A "
_symmetry_group_IT_number 73
_symmetry_cell_setting 'orthorhombic'
loop_
_space_group_symop_operation_xyz
x,y,z
-x,1/2-y,z
x,-y,1/2-z
1/2-x,y,-z
-x,-y,-z
x,1/2+y,-z
-x,y,1/2+z
1/2+x,-y,z
1/2+x,1/2+y,1/2+z
1/2-x,-y,1/2+z
1/2+x,1/2-y,-z
-x,1/2+y,1/2-z
1/2-x,1/2-y,1/2-z
1/2+x,y,1/2-z
1/2-x,1/2+y,z
x,1/2-y,1/2+z
loop_
_atom_site_type_symbol
_atom_site_label
_atom_site_fract_x
_atom_site_fract_y
_atom_site_fract_z
Si Si1 0.526195 0.842304 0.122906
Si Si2 0.971749 0.959753 0.900288
Si Si3 0.500000 0.750000 0.477995
Si Si4 0.216535 0.500000 0.250000
Si Si5 0.709747 0.303446 0.688798
O O1 0.542933 0.898498 0.058863
O O2 0.617944 0.843908 0.234726
O O3 0.352799 0.833922 0.146610
O O4 0.589684 0.792580 0.052619
O O5 0.816999 0.971869 0.840400
O O6 0.107842 0.959825 0.814806
O O7 0.000000 0.000000 0.000000
O O8 0.390057 0.712733 0.412101
O O9 0.750000 0.250000 0.750000
#
# Coordination Sequence:
#
# PCOD8296776 Si02
#       5
#    16  16   8   8  16
#     4  12  26  43  72 102 141 186 230 297 351 427
#     4  11  25  48  72 105 140 190 243 299 363 424
#     4  12  24  40  70 100 138 182 228 280 352 428
#     4  10  24  48  74  98 142 184 246 302 354 428
#     4  12  23  46  65 101 143 180 233 281 356 425
#
# _framework density 23.049989
#
# number of rings (size 3 to 8) (size 9 to 14) (size 15 to 20)
#    0.000    0.500    5.000    3.000    0.000    8.000 
#    9.000    0.000    0.000    0.000    0.000    0.000 
#    0.000    0.000    0.000    0.000    0.000    0.000 
#
# Total GULP energy -396769.222721 kJ/mol
# GULP energy per Si atom -12399.038210 kJ/mol
# Density = 2.299753 g / cm^3
# Si number density = 23.049989 Si / 1000 Ang^3
#
#
#
# Elastic Constant Matrix: (Units=GPa)
#
#
# Indices 1 2 3 4 5 6 
#
# 1 92.9306 1.2318 19.4858 -0.0002 0.0002 0.0000
# 2 1.2318 159.8451 41.0054 -0.0002 0.0002 0.0000
# 3 19.4858 41.0054 107.4263 -0.0014 0.0010 0.0001
# 4 -0.0002 -0.0002 -0.0014 35.1101 0.0004 0.0000
# 5 0.0002 0.0002 0.0010 0.0004 24.1318 -0.0001
# 6 0.0000 0.0000 0.0001 0.0000 -0.0001 20.2089
#
#
#
# Elastic Compliance Matrix: (Units=1/GPa)
#
#
# Indices 1 2 3 4 5 6 
#
# 1 0.011220 0.000483 -0.002219 0.000000 0.000000 0.000000
# 2 0.000483 0.006956 -0.002743 0.000000 0.000000 0.000000
# 3 -0.002219 -0.002743 0.010758 0.000000 0.000000 0.000000
# 4 0.000000 0.000000 0.000000 0.028482 0.000000 0.000000
# 5 0.000000 0.000000 0.000000 0.000000 0.041439 0.000000
# 6 0.000000 0.000000 0.000000 0.000000 0.000000 0.049483
#
#
# Mechanical properties :
#
#
# Convention : Reuss Voigt Hill
#
# Bulk Modulus (GPa) = 50.06184 53.73868 51.90026
# Shear Modulus (GPa) = 30.49622 35.78877 33.14249
#
# Velocity S-wave (km/s) = 3.64132 3.94465 3.79602
# Velocity P-wave (km/s) = 6.28052 6.64166 6.46361
#
# Compressibility (1/GPa) = 0.01997530
#
# Stress axis : x y z
#
# Youngs Moduli (GPa) = 89.12907 143.76219 92.95239
#
# Poissons Ratio (x) = -0.06942 0.20630
# Poissons Ratio (y) = -0.04304 0.25494
# Poissons Ratio (z) = 0.19782 0.39430
#
# Static dielectric constant tensor:
#      x y z
#    x 4.094430 0.000000 0.000000 
#    y 0.000000 4.017030 0.000000 
#    z 0.000000 0.000000 4.451680 
# 
# 
# High freq. dielectric constant tensor:
#      x y z
#    x 1.924800 0.000000 0.000000 
#    y 0.000000 1.904120 0.000000 
#    z 0.000000 0.000000 1.917190 
# 
# From -- ./inp_files/4753.got.cif
#   From: 2010.03.12/outbox.cif.g09.slc.cpg/sg73_3_cif.got.tgz:4753.got - 2010.04.16 15:25:48.
