data_PCOD8296567
_publ_section_title
;
Structure prediction by ZEFSAII (Michael W. Deem and Ramdas Pophale) SiO2 
 PCOD8296567
Probable space group: I B C A 
;
_chemical_formula_sum "Si O2"
_cell_formula_units_Z 112
_cell_length_a 26.681255
_cell_length_b 14.199031
_cell_length_c 13.887054
_cell_angle_alpha 90.000000
_cell_angle_beta 90.000000
_cell_angle_gamma 90.000000
_cell_volume 5261.082174
_symmetry_space_group_name_H-M "I B C A "
_symmetry_group_IT_number 73
_symmetry_cell_setting 'orthorhombic'
loop_
_space_group_symop_operation_xyz
x,y,z
-x,1/2-y,z
x,-y,1/2-z
1/2-x,y,-z
-x,-y,-z
x,1/2+y,-z
-x,y,1/2+z
1/2+x,-y,z
1/2+x,1/2+y,1/2+z
1/2-x,-y,1/2+z
1/2+x,1/2-y,-z
-x,1/2+y,1/2-z
1/2-x,1/2-y,1/2-z
1/2+x,y,1/2-z
1/2-x,1/2+y,z
x,1/2-y,1/2+z
loop_
_atom_site_type_symbol
_atom_site_label
_atom_site_fract_x
_atom_site_fract_y
_atom_site_fract_z
Si Si1 0.494895 0.638254 0.757030
Si Si2 0.188763 0.249842 0.830266
Si Si3 0.032287 0.007018 0.096518
Si Si4 0.117474 0.407287 0.303580
Si Si5 0.707148 0.182697 0.369130
Si Si6 0.138689 0.458376 0.513481
Si Si7 0.308617 0.645563 0.510992
O O1 0.500000 0.750000 0.762428
O O2 0.514246 0.599211 0.654863
O O3 0.525783 0.589136 0.842971
O O4 0.437792 0.608179 0.765245
O O5 0.150994 0.181394 0.774783
O O6 0.232644 0.189679 0.886780
O O7 0.205537 0.322905 0.747116
O O8 0.165697 0.314778 0.913282
O O9 0.091234 0.018201 0.079197
O O10 0.000000 0.000000 0.000000
O O11 0.138952 0.500000 0.250000
O O12 0.119248 0.403303 0.419994
O O13 0.680468 0.095322 0.421941
O O14 0.681415 0.279455 0.404681
O O15 0.162922 0.550163 0.465441
O O16 0.250000 0.623466 0.500000
#
# Coordination Sequence:
#
# PCOD8296567 Si02
#       7
#    16  16  16  16  16  16  16
#     4  11  26  45  70  94 135 176 221 290 350 401
#     4  10  23  42  67  94 144 175 222 281 327 409
#     4  11  24  48  64 101 135 168 233 289 334 418
#     4  12  23  44  70  99 128 180 229 276 346 412
#     4  10  23  44  62 103 138 177 227 278 331 402
#     4  12  25  40  74  97 135 183 224 279 345 412
#     4  10  23  41  65  99 138 176 222 275 331 400
#
# _framework density 21.288395000000001
#
# number of rings (size 3 to 8) (size 9 to 14) (size 15 to 20)
#    0.000    1.143    4.286    0.857    6.000    2.286 
#    0.000    0.000    0.000    0.000    0.000    0.000 
#    0.000    0.000    0.000    0.000    0.000    0.000 
#
# Total GULP energy -694184.528969 kJ/mol
# GULP energy per Si atom -12396.152303 kJ/mol
# Density = 2.123994 g / cm^3
# Si number density = 21.288395 Si / 1000 Ang^3
#
#
#
# Elastic Constant Matrix: (Units=GPa)
#
#
# Indices 1 2 3 4 5 6 
#
# 1 75.6583 16.8995 16.9326 0.0000 0.0000 0.0000
# 2 16.8995 103.5083 25.3195 0.0000 0.0000 0.0000
# 3 16.9326 25.3195 108.3722 0.0000 0.0000 0.0000
# 4 0.0000 0.0000 0.0000 35.0408 0.0000 0.0000
# 5 0.0000 0.0000 0.0000 0.0000 32.1090 0.0000
# 6 0.0000 0.0000 0.0000 0.0000 0.0000 31.8271
#
#
#
# Elastic Compliance Matrix: (Units=1/GPa)
#
#
# Indices 1 2 3 4 5 6 
#
# 1 0.014026 -0.001860 -0.001757 0.000000 0.000000 0.000000
# 2 -0.001860 0.010493 -0.002161 0.000000 0.000000 0.000000
# 3 -0.001757 -0.002161 0.010007 0.000000 0.000000 0.000000
# 4 0.000000 0.000000 0.000000 0.028538 0.000000 0.000000
# 5 0.000000 0.000000 0.000000 0.000000 0.031144 0.000000
# 6 0.000000 0.000000 0.000000 0.000000 0.000000 0.031420
#
#
# Mechanical properties :
#
#
# Convention : Reuss Voigt Hill
#
# Bulk Modulus (GPa) = 43.53487 45.09355 44.31421
# Shear Modulus (GPa) = 34.52062 35.02118 34.77090
#
# Velocity S-wave (km/s) = 4.03124 4.06036 4.04583
# Velocity P-wave (km/s) = 6.49325 6.57345 6.53347
#
# Compressibility (1/GPa) = 0.02297009
#
# Stress axis : x y z
#
# Youngs Moduli (GPa) = 71.29597 95.29818 99.93163
#
# Poissons Ratio (x) = 0.17728 0.17557
# Poissons Ratio (y) = 0.13263 0.21595
# Poissons Ratio (z) = 0.12526 0.20594
#
# Static dielectric constant tensor:
#      x y z
#    x 3.819770 0.000000 0.000000 
#    y 0.000000 4.846530 0.000000 
#    z 0.000000 0.000000 3.983960 
# 
# 
# High freq. dielectric constant tensor:
#      x y z
#    x 1.829540 0.000000 0.000000 
#    y 0.000000 1.826070 0.000000 
#    z 0.000000 0.000000 1.854020 
# 
# From -- ./inp_files/19824.got.cif
#   From: 2010.03.12/outbox.cif.g09.slc.cpg/sg73_10_cif.got.tgz:19824.got - 2010.04.16 15:25:48.
