data_PCOD8296851
_publ_section_title
;
Structure prediction by ZEFSAII (Michael W. Deem and Ramdas Pophale) SiO2 
 PCOD8296851
Probable space group: I B C A 
;
_chemical_formula_sum "Si O2"
_cell_formula_units_Z 104
_cell_length_a 13.893419
_cell_length_b 20.074493
_cell_length_c 18.363129
_cell_angle_alpha 90.000000
_cell_angle_beta 90.000000
_cell_angle_gamma 90.000000
_cell_volume 5121.538056
_symmetry_space_group_name_H-M "I B C A "
_symmetry_group_IT_number 73
_symmetry_cell_setting 'orthorhombic'
loop_
_space_group_symop_operation_xyz
x,y,z
-x,1/2-y,z
x,-y,1/2-z
1/2-x,y,-z
-x,-y,-z
x,1/2+y,-z
-x,y,1/2+z
1/2+x,-y,z
1/2+x,1/2+y,1/2+z
1/2-x,-y,1/2+z
1/2+x,1/2-y,-z
-x,1/2+y,1/2-z
1/2-x,1/2-y,1/2-z
1/2+x,y,1/2-z
1/2-x,1/2+y,z
x,1/2-y,1/2+z
loop_
_atom_site_type_symbol
_atom_site_label
_atom_site_fract_x
_atom_site_fract_y
_atom_site_fract_z
Si Si1 0.250000 0.229071 0.500000
Si Si2 0.894604 0.075694 0.776850
Si Si3 0.653319 0.522674 0.028811
Si Si4 0.718741 0.132167 0.866166
Si Si5 0.508133 0.671259 0.167331
Si Si6 0.935275 0.688044 0.485197
Si Si7 0.008310 0.077456 0.423729
O O1 0.240489 0.183613 0.427444
O O2 0.170029 0.284177 0.511271
O O3 0.799619 0.114371 0.805992
O O4 0.974590 0.068391 0.839087
O O5 0.945661 0.123785 0.719172
O O6 0.870127 0.000000 0.750000
O O7 0.685658 0.564204 0.097588
O O8 0.571069 0.473544 0.050679
O O9 0.750000 0.485296 0.000000
O O10 0.610683 0.569991 0.965127
O O11 0.622967 0.159571 0.826813
O O12 0.500000 0.750000 0.185191
O O13 0.462905 0.648787 0.089130
O O14 0.000000 0.750000 0.482719
O O15 0.962112 0.648233 0.557862
#
# Coordination Sequence:
#
# PCOD8296851 Si02
#       7
#     8  16  16  16  16  16  16
#     4  12  22  42  78 106 130 172 244 298 354 422
#     4  12  28  45  67 101 145 194 238 282 355 449
#     4  11  21  38  72  96 129 169 228 291 346 391
#     4  12  22  45  72  98 136 186 230 288 361 416
#     4  11  25  48  70  97 148 183 226 301 359 414
#     4  11  22  43  72 102 133 173 227 296 353 405
#     4  11  24  42  68 101 131 177 233 292 338 414
#
# _framework density 20.3064
#
# number of rings (size 3 to 8) (size 9 to 14) (size 15 to 20)
#    0.000    0.615    6.923    1.846    3.231    4.308 
#    2.769    0.000    0.000    0.000    0.000    0.000 
#    0.000    0.000    0.000    0.000    0.000    0.000 
#
# Total GULP energy -644277.305437 kJ/mol
# GULP energy per Si atom -12389.948181 kJ/mol
# Density = 2.026018 g / cm^3
# Si number density = 20.306400 Si / 1000 Ang^3
#
#
#
# Elastic Constant Matrix: (Units=GPa)
#
#
# Indices 1 2 3 4 5 6 
#
# 1 153.7899 43.2272 58.3371 0.0000 0.0000 0.0000
# 2 43.2272 96.2094 44.4150 0.0000 0.0000 0.0000
# 3 58.3371 44.4150 104.0413 0.0000 0.0000 0.0000
# 4 0.0000 0.0000 0.0000 41.1604 0.0000 0.0000
# 5 0.0000 0.0000 0.0000 0.0000 39.3271 0.0000
# 6 0.0000 0.0000 0.0000 0.0000 0.0000 33.1280
#
#
#
# Elastic Compliance Matrix: (Units=1/GPa)
#
#
# Indices 1 2 3 4 5 6 
#
# 1 0.008567 -0.002032 -0.003936 0.000000 0.000000 0.000000
# 2 -0.002032 0.013427 -0.004593 0.000000 0.000000 0.000000
# 3 -0.003936 -0.004593 0.013779 0.000000 0.000000 0.000000
# 4 0.000000 0.000000 0.000000 0.024295 0.000000 0.000000
# 5 0.000000 0.000000 0.000000 0.000000 0.025428 0.000000
# 6 0.000000 0.000000 0.000000 0.000000 0.000000 0.030186
#
#
# Mechanical properties :
#
#
# Convention : Reuss Voigt Hill
#
# Bulk Modulus (GPa) = 68.25159 71.77767 70.01463
# Shear Modulus (GPa) = 35.28912 36.59384 35.94148
#
# Velocity S-wave (km/s) = 4.17325 4.24970 4.21165
# Velocity P-wave (km/s) = 7.54356 7.71388 7.62920
#
# Compressibility (1/GPa) = 0.01465167
#
# Stress axis : x y z
#
# Youngs Moduli (GPa) = 116.73347 74.47585 72.57375
#
# Poissons Ratio (x) = 0.15133 0.28564
# Poissons Ratio (y) = 0.23720 0.33331
# Poissons Ratio (z) = 0.45945 0.34205
#
# Static dielectric constant tensor:
#      x y z
#    x 4.062920 0.000000 0.000000 
#    y 0.000000 3.768830 0.000000 
#    z 0.000000 0.000000 3.620580 
# 
# 
# High freq. dielectric constant tensor:
#      x y z
#    x 1.817670 0.000000 0.000000 
#    y 0.000000 1.798430 0.000000 
#    z 0.000000 0.000000 1.782190 
# 
# From -- ./inp_files/22067.got.cif
#   From: 2010.03.12/outbox.cif.g09.slc.cpg/sg73_12_cif.got.tgz:22067.got - 2010.04.16 15:25:48.
