data_PCOD8296442
_publ_section_title
;
Structure prediction by ZEFSAII (Michael W. Deem and Ramdas Pophale) SiO2 
 PCOD8296442
Probable space group: I B C A 
;
_chemical_formula_sum "Si O2"
_cell_formula_units_Z 88
_cell_length_a 11.944450
_cell_length_b 25.303165
_cell_length_c 13.304039
_cell_angle_alpha 90.000000
_cell_angle_beta 90.000000
_cell_angle_gamma 90.000000
_cell_volume 4020.911493
_symmetry_space_group_name_H-M "I B C A "
_symmetry_group_IT_number 73
_symmetry_cell_setting 'orthorhombic'
loop_
_space_group_symop_operation_xyz
x,y,z
-x,1/2-y,z
x,-y,1/2-z
1/2-x,y,-z
-x,-y,-z
x,1/2+y,-z
-x,y,1/2+z
1/2+x,-y,z
1/2+x,1/2+y,1/2+z
1/2-x,-y,1/2+z
1/2+x,1/2-y,-z
-x,1/2+y,1/2-z
1/2-x,1/2-y,1/2-z
1/2+x,y,1/2-z
1/2-x,1/2+y,z
x,1/2-y,1/2+z
loop_
_atom_site_type_symbol
_atom_site_label
_atom_site_fract_x
_atom_site_fract_y
_atom_site_fract_z
Si Si1 0.761395 0.923983 0.767165
Si Si2 0.500000 0.750000 0.130460
Si Si3 0.983922 0.418044 0.126779
Si Si4 0.617035 0.167067 0.507802
Si Si5 0.892221 0.664325 0.735650
Si Si6 0.183408 0.509170 0.400175
O O1 0.875994 0.941122 0.818775
O O2 0.735240 0.860350 0.767500
O O3 0.759107 0.946112 0.654488
O O4 0.668128 0.955994 0.833470
O O5 0.581427 0.784146 0.061543
O O6 0.587775 0.716861 0.198964
O O7 0.946915 0.384869 0.029653
O O8 0.039932 0.382985 0.213502
O O9 0.060539 0.465321 0.084285
O O10 0.750000 0.159176 0.500000
O O11 0.574263 0.177397 0.621240
O O12 0.250000 0.494131 0.500000
#
# Coordination Sequence:
#
# PCOD8296442 Si02
#       6
#    16   8  16  16  16  16
#     4  10  22  42  62  93 135 170 216 267 323 386
#     4  10  24  44  62 102 130 168 222 272 336 390
#     4  10  23  42  64  95 133 173 218 268 324 384
#     4  11  22  42  69  96 129 173 219 267 336 393
#     4  10  22  42  65  93 131 167 218 271 325 390
#     4  10  24  40  64  98 130 173 223 263 318 386
#
# _framework density 21.885584000000001
#
# number of rings (size 3 to 8) (size 9 to 14) (size 15 to 20)
#    0.000    1.818    1.818    0.545    5.091    7.273 
#    3.273    1.818    0.000    0.000    0.000    0.000 
#    0.000    0.000    0.000    0.000    0.000    0.000 
#
# Total GULP energy -545267.627637 kJ/mol
# GULP energy per Si atom -12392.446083 kJ/mol
# Density = 2.183577 g / cm^3
# Si number density = 21.885584 Si / 1000 Ang^3
#
#
#
# Elastic Constant Matrix: (Units=GPa)
#
#
# Indices 1 2 3 4 5 6 
#
# 1 89.6567 14.6867 9.4608 -0.0003 0.0000 0.0001
# 2 14.6867 45.4662 -6.4460 -0.0002 0.0000 0.0002
# 3 9.4608 -6.4460 102.7729 0.0004 -0.0003 0.0010
# 4 -0.0003 -0.0002 0.0004 23.2475 -0.0001 0.0004
# 5 0.0000 0.0000 -0.0003 -0.0001 27.6856 -0.0003
# 6 0.0001 0.0002 0.0010 0.0004 -0.0003 15.0940
#
#
#
# Elastic Compliance Matrix: (Units=1/GPa)
#
#
# Indices 1 2 3 4 5 6 
#
# 1 0.011961 -0.004056 -0.001355 0.000000 0.000000 0.000000
# 2 -0.004056 0.023567 0.001852 0.000000 0.000000 0.000000
# 3 -0.001355 0.001852 0.009971 0.000000 0.000000 -0.000001
# 4 0.000000 0.000000 0.000000 0.043015 0.000000 -0.000001
# 5 0.000000 0.000000 0.000000 0.000000 0.036120 0.000001
# 6 0.000000 0.000000 -0.000001 -0.000001 0.000001 0.066251
#
#
# Mechanical properties :
#
#
# Convention : Reuss Voigt Hill
#
# Bulk Modulus (GPa) = 26.05558 30.36653 28.21105
# Shear Modulus (GPa) = 23.71930 27.88504 25.80217
#
# Velocity S-wave (km/s) = 3.29566 3.57337 3.43732
# Velocity P-wave (km/s) = 5.13936 5.56152 5.35460
#
# Compressibility (1/GPa) = 0.03837950
#
# Stress axis : x y z
#
# Youngs Moduli (GPa) = 83.60446 42.43219 100.28984
#
# Poissons Ratio (x) = 0.17210 0.13594
# Poissons Ratio (y) = 0.33909 -0.18569
# Poissons Ratio (z) = 0.11332 -0.07856
#
# Static dielectric constant tensor:
#      x y z
#    x 3.990880 0.000000 0.000000 
#    y 0.000000 4.001990 0.000000 
#    z 0.000000 0.000000 4.201430 
# 
# 
# High freq. dielectric constant tensor:
#      x y z
#    x 1.847280 0.000000 0.000000 
#    y 0.000000 1.860340 0.000000 
#    z 0.000000 0.000000 1.877440 
# 
# From -- ./inp_files/9866.got.cif
#   From: 2010.03.12/outbox.cif.g09.slc.cpg/sg73_5_cif.got.tgz:9866.got - 2010.04.16 15:25:48.
