data_PCOD8296546
_publ_section_title
;
Structure prediction by ZEFSAII (Michael W. Deem and Ramdas Pophale) SiO2 
 PCOD8296546
Probable space group: I B C A 
;
_chemical_formula_sum "Si O2"
_cell_formula_units_Z 120
_cell_length_a 25.851914
_cell_length_b 9.987208
_cell_length_c 23.331150
_cell_angle_alpha 90.000000
_cell_angle_beta 90.000000
_cell_angle_gamma 90.000000
_cell_volume 6023.833276
_symmetry_space_group_name_H-M "I B C A "
_symmetry_group_IT_number 73
_symmetry_cell_setting 'orthorhombic'
loop_
_space_group_symop_operation_xyz
x,y,z
-x,1/2-y,z
x,-y,1/2-z
1/2-x,y,-z
-x,-y,-z
x,1/2+y,-z
-x,y,1/2+z
1/2+x,-y,z
1/2+x,1/2+y,1/2+z
1/2-x,-y,1/2+z
1/2+x,1/2-y,-z
-x,1/2+y,1/2-z
1/2-x,1/2-y,1/2-z
1/2+x,y,1/2-z
1/2-x,1/2+y,z
x,1/2-y,1/2+z
loop_
_atom_site_type_symbol
_atom_site_label
_atom_site_fract_x
_atom_site_fract_y
_atom_site_fract_z
Si Si1 0.389883 0.773023 0.932968
Si Si2 0.707094 0.861548 0.370563
Si Si3 0.878043 0.500000 0.750000
Si Si4 0.474210 0.497877 0.436404
Si Si5 0.799111 0.345371 0.132675
Si Si6 0.895544 0.768323 0.935351
Si Si7 0.311277 0.737231 0.252979
Si Si8 0.422678 0.004786 0.126086
O O1 0.334586 0.838803 0.920091
O O2 0.435989 0.878778 0.926103
O O3 0.396181 0.642914 0.893063
O O4 0.388470 0.727874 0.997534
O O5 0.756273 0.766840 0.377817
O O6 0.676332 0.845458 0.310293
O O7 0.729131 0.011965 0.373894
O O8 0.839798 0.377157 0.757830
O O9 0.914094 0.483264 0.693986
O O10 0.500000 0.500000 0.500000
O O11 0.446288 0.357249 0.423057
O O12 0.516784 0.513925 0.387141
O O13 0.844222 0.338618 0.086884
O O14 0.827751 0.335578 0.194459
O O15 0.899584 0.619992 0.909398
O O16 0.250000 0.750000 0.250000
#
# Coordination Sequence:
#
# PCOD8296546 Si02
#       8
#    16  16   8  16  16  16  16  16
#     4  12  24  43  69 103 133 177 233 288 335 413
#     4  11  25  43  67  99 137 180 226 282 350 414
#     4  12  24  46  62 108 140 186 224 286 352 418
#     4  12  24  46  70 100 134 178 244 283 336 405
#     4  11  25  43  67  99 137 180 226 282 350 414
#     4  12  24  43  69 103 133 177 233 288 335 413
#     4  10  23  38  69  91 130 175 237 274 331 404
#     4  12  26  42  71  97 142 180 227 286 350 402
#
# _framework density 19.920869
#
# number of rings (size 3 to 8) (size 9 to 14) (size 15 to 20)
#    0.000    0.533    6.667    1.200    9.333    0.533 
#    0.000    5.333    0.000    0.000    0.000    0.000 
#    0.000    0.000    0.000    0.000    0.000    0.000 
#
# Total GULP energy -743959.185292 kJ/mol
# GULP energy per Si atom -12399.319755 kJ/mol
# Density = 1.987553 g / cm^3
# Si number density = 19.920869 Si / 1000 Ang^3
#
#
#
# Elastic Constant Matrix: (Units=GPa)
#
#
# Indices 1 2 3 4 5 6 
#
# 1 93.8945 25.8049 31.0947 0.0000 0.0000 0.0000
# 2 25.8049 117.1672 1.6683 0.0000 0.0000 0.0000
# 3 31.0947 1.6683 70.3167 0.0000 0.0000 0.0000
# 4 0.0000 0.0000 0.0000 30.1819 0.0000 0.0000
# 5 0.0000 0.0000 0.0000 0.0000 31.4116 0.0000
# 6 0.0000 0.0000 0.0000 0.0000 0.0000 42.0964
#
#
#
# Elastic Compliance Matrix: (Units=1/GPa)
#
#
# Indices 1 2 3 4 5 6 
#
# 1 0.013373 -0.002862 -0.005846 0.000000 0.000000 0.000000
# 2 -0.002862 0.009150 0.001048 0.000000 0.000000 0.000000
# 3 -0.005846 0.001048 0.016781 0.000000 0.000000 0.000000
# 4 0.000000 0.000000 0.000000 0.033132 0.000000 0.000000
# 5 0.000000 0.000000 0.000000 0.000000 0.031835 0.000000
# 6 0.000000 0.000000 0.000000 0.000000 0.000000 0.023755
#
#
# Mechanical properties :
#
#
# Convention : Reuss Voigt Hill
#
# Bulk Modulus (GPa) = 41.69068 44.27935 42.98501
# Shear Modulus (GPa) = 33.03804 35.59202 34.31503
#
# Velocity S-wave (km/s) = 4.07684 4.23149 4.15488
# Velocity P-wave (km/s) = 6.56768 6.79337 6.68148
#
# Compressibility (1/GPa) = 0.02398618
#
# Stress axis : x y z
#
# Youngs Moduli (GPa) = 74.77929 109.28716 59.58950
#
# Poissons Ratio (x) = 0.31278 0.34834
# Poissons Ratio (y) = 0.21402 -0.06248
# Poissons Ratio (z) = 0.43713 -0.11459
#
# Static dielectric constant tensor:
#      x y z
#    x 3.636910 0.000000 0.000000 
#    y 0.000000 3.834150 0.000000 
#    z 0.000000 0.000000 4.035390 
# 
# 
# High freq. dielectric constant tensor:
#      x y z
#    x 1.772170 0.000000 0.000000 
#    y 0.000000 1.796820 0.000000 
#    z 0.000000 0.000000 1.780740 
# 
# From -- ./inp_files/8055.got.cif
#   From: 2010.03.12/outbox.cif.g09.slc.cpg/sg73_5_cif.got.tgz:8055.got - 2010.04.16 15:25:48.
