data_PCOD8296093
_publ_section_title
;
Structure prediction by ZEFSAII (Michael W. Deem and Ramdas Pophale) SiO2 
 PCOD8296093
Probable space group: I B C A 
;
_chemical_formula_sum "Si O2"
_cell_formula_units_Z 80
_cell_length_a 29.058097
_cell_length_b 29.490123
_cell_length_c 5.210980
_cell_angle_alpha 90.000000
_cell_angle_beta 90.000000
_cell_angle_gamma 90.000000
_cell_volume 4465.428701
_symmetry_space_group_name_H-M "I B C A "
_symmetry_group_IT_number 73
_symmetry_cell_setting 'orthorhombic'
loop_
_space_group_symop_operation_xyz
x,y,z
-x,1/2-y,z
x,-y,1/2-z
1/2-x,y,-z
-x,-y,-z
x,1/2+y,-z
-x,y,1/2+z
1/2+x,-y,z
1/2+x,1/2+y,1/2+z
1/2-x,-y,1/2+z
1/2+x,1/2-y,-z
-x,1/2+y,1/2-z
1/2-x,1/2-y,1/2-z
1/2+x,y,1/2-z
1/2-x,1/2+y,z
x,1/2-y,1/2+z
loop_
_atom_site_type_symbol
_atom_site_label
_atom_site_fract_x
_atom_site_fract_y
_atom_site_fract_z
Si Si1 0.875489 0.096809 0.645061
Si Si2 0.163807 0.130225 0.653755
Si Si3 0.472924 0.053262 0.759962
Si Si4 0.199637 0.545739 0.111831
Si Si5 0.802979 0.271858 0.545018
O O1 0.870654 0.130660 0.399772
O O2 0.926044 0.077178 0.663093
O O3 0.837843 0.056171 0.611771
O O4 0.866351 0.124859 0.900689
O O5 0.199670 0.088231 0.688699
O O6 0.192503 0.176086 0.628161
O O7 0.490471 0.067919 0.478686
O O8 0.463970 0.000000 0.750000
O O9 0.183376 0.500000 0.250000
O O10 0.250000 0.538706 0.000000
O O11 0.750000 0.259229 0.500000
O O12 0.826013 0.240960 0.770801
#
# Coordination Sequence:
#
# PCOD8296093 Si02
#       5
#    16  16  16  16  16
#     4  10  23  36  56  79 114 150 192 234 284 329
#     4  10  23  36  56  79 114 150 192 234 284 329
#     4  10  21  35  57  81 110 147 193 242 291 340
#     4  10  26  34  54  78 114 164 199 228 262 324
#     4  10  21  35  57  81 110 147 193 242 291 340
#
# _framework density 17.915413999999998
#
# number of rings (size 3 to 8) (size 9 to 14) (size 15 to 20)
#    1.200    0.800    0.000    2.400    8.400    1.600 
#    0.000    0.000    0.000    0.000    0.000    0.000 
#    0.000   56.000    0.000    0.000    0.000    0.000 
#
# Total GULP energy -495646.497555 kJ/mol
# GULP energy per Si atom -12391.162439 kJ/mol
# Density = 1.787464 g / cm^3
# Si number density = 17.915414 Si / 1000 Ang^3
#
#
#
# Elastic Constant Matrix: (Units=GPa)
#
#
# Indices 1 2 3 4 5 6 
#
# 1 49.0666 5.9135 20.0718 0.0000 0.0000 0.0000
# 2 5.9135 86.5045 35.5936 0.0000 0.0000 0.0000
# 3 20.0718 35.5936 149.6452 0.0000 0.0000 0.0000
# 4 0.0000 0.0000 0.0000 25.1172 0.0000 0.0000
# 5 0.0000 0.0000 0.0000 0.0000 19.8222 0.0000
# 6 0.0000 0.0000 0.0000 0.0000 0.0000 11.5492
#
#
#
# Elastic Compliance Matrix: (Units=1/GPa)
#
#
# Indices 1 2 3 4 5 6 
#
# 1 0.021571 -0.000315 -0.002818 0.000000 0.000000 0.000000
# 2 -0.000315 0.012819 -0.003007 0.000000 0.000000 0.000000
# 3 -0.002818 -0.003007 0.007776 0.000000 0.000000 0.000000
# 4 0.000000 0.000000 0.000000 0.039813 0.000000 0.000000
# 5 0.000000 0.000000 0.000000 0.000000 0.050448 0.000000
# 6 0.000000 0.000000 0.000000 0.000000 0.000000 0.086586
#
#
# Mechanical properties :
#
#
# Convention : Reuss Voigt Hill
#
# Bulk Modulus (GPa) = 33.46098 45.37491 39.41794
# Shear Modulus (GPa) = 20.72486 26.20688 23.46587
#
# Velocity S-wave (km/s) = 3.40489 3.82882 3.62306
# Velocity P-wave (km/s) = 5.84598 6.70289 6.28905
#
# Compressibility (1/GPa) = 0.02988556
#
# Stress axis : x y z
#
# Youngs Moduli (GPa) = 46.35774 78.01046 128.60621
#
# Poissons Ratio (x) = 0.02457 0.36247
# Poissons Ratio (y) = 0.01460 0.38669
# Poissons Ratio (z) = 0.13066 0.23456
#
# Static dielectric constant tensor:
#      x y z
#    x 2.947510 0.000000 0.000000 
#    y 0.000000 3.132500 0.000000 
#    z 0.000000 0.000000 3.853010 
# 
# 
# High freq. dielectric constant tensor:
#      x y z
#    x 1.657800 0.000000 0.000000 
#    y 0.000000 1.671130 0.000000 
#    z 0.000000 0.000000 1.720170 
# 
# From -- ./inp_files/2662.got.cif
#   From: 2010.03.12/outbox.cif.g09.slc.cpg/sg73_2_cif.got.tgz:2662.got - 2010.04.16 15:25:48.
