data_PCOD8296405
_publ_section_title
;
Structure prediction by ZEFSAII (Michael W. Deem and Ramdas Pophale) SiO2 
 PCOD8296405
Probable space group: I B C A 
;
_chemical_formula_sum "Si O2"
_cell_formula_units_Z 96
_cell_length_a 9.752538
_cell_length_b 19.914460
_cell_length_c 23.643997
_cell_angle_alpha 90.000000
_cell_angle_beta 90.000000
_cell_angle_gamma 90.000000
_cell_volume 4592.055003
_symmetry_space_group_name_H-M "I B C A "
_symmetry_group_IT_number 73
_symmetry_cell_setting 'orthorhombic'
loop_
_space_group_symop_operation_xyz
x,y,z
-x,1/2-y,z
x,-y,1/2-z
1/2-x,y,-z
-x,-y,-z
x,1/2+y,-z
-x,y,1/2+z
1/2+x,-y,z
1/2+x,1/2+y,1/2+z
1/2-x,-y,1/2+z
1/2+x,1/2-y,-z
-x,1/2+y,1/2-z
1/2-x,1/2-y,1/2-z
1/2+x,y,1/2-z
1/2-x,1/2+y,z
x,1/2-y,1/2+z
loop_
_atom_site_type_symbol
_atom_site_label
_atom_site_fract_x
_atom_site_fract_y
_atom_site_fract_z
Si Si1 0.500000 0.250000 0.302561
Si Si2 0.160835 0.501909 0.388344
Si Si3 0.190032 0.660588 0.377721
Si Si4 0.250000 0.849810 0.000000
Si Si5 0.654726 0.566639 0.278242
Si Si6 0.089134 0.532862 0.546990
Si Si7 0.615444 0.150382 0.218860
O O1 0.570948 0.303134 0.343606
O O2 0.610796 0.212971 0.262368
O O3 0.151944 0.581721 0.377352
O O4 0.220457 0.458308 0.337078
O O5 0.268591 0.493429 0.440166
O O6 0.010562 0.469238 0.398644
O O7 0.199407 0.689709 0.443081
O O8 0.333125 0.672578 0.343801
O O9 0.376144 0.892824 0.974510
O O10 0.589791 0.500000 0.250000
O O11 0.537142 0.621618 0.286086
O O12 0.777369 0.595682 0.241125
O O13 0.000000 0.500000 0.500000
#
# Coordination Sequence:
#
# PCOD8296405 Si02
#       7
#     8  16  16   8  16  16  16
#     4  12  26  46  68  90 128 186 238 272 328 380
#     4  11  23  36  62  99 133 164 206 268 341 396
#     4  11  23  43  68  91 131 175 226 274 325 398
#     4  10  22  40  68  94 132 174 212 272 340 378
#     4  12  24  37  64 100 134 163 207 269 346 404
#     4  11  19  36  60  93 129 170 203 252 327 413
#     4  12  25  43  65  97 131 179 218 278 328 401
#
# _framework density 20.905671000000002
#
# number of rings (size 3 to 8) (size 9 to 14) (size 15 to 20)
#    0.000    0.667    6.667    3.000    4.667    0.000 
#    0.000    0.833    3.667    1.000    0.000    0.000 
#    0.000    0.000    0.000    0.000    0.000    0.000 
#
# Total GULP energy -594729.279242 kJ/mol
# GULP energy per Si atom -12390.193318 kJ/mol
# Density = 2.085809 g / cm^3
# Si number density = 20.905671 Si / 1000 Ang^3
#
#
#
# Elastic Constant Matrix: (Units=GPa)
#
#
# Indices 1 2 3 4 5 6 
#
# 1 96.9213 32.2800 33.7339 0.0000 0.0000 0.0000
# 2 32.2800 48.8145 42.2817 0.0000 0.0000 0.0000
# 3 33.7339 42.2817 151.2255 0.0000 0.0000 0.0000
# 4 0.0000 0.0000 0.0000 31.8534 0.0000 0.0000
# 5 0.0000 0.0000 0.0000 0.0000 44.0591 0.0000
# 6 0.0000 0.0000 0.0000 0.0000 0.0000 16.5469
#
#
#
# Elastic Compliance Matrix: (Units=1/GPa)
#
#
# Indices 1 2 3 4 5 6 
#
# 1 0.013283 -0.008204 -0.000669 0.000000 0.000000 0.000000
# 2 -0.008204 0.032099 -0.007145 0.000000 0.000000 0.000000
# 3 -0.000669 -0.007145 0.008760 0.000000 0.000000 0.000000
# 4 0.000000 0.000000 0.000000 0.031394 0.000000 0.000000
# 5 0.000000 0.000000 0.000000 0.000000 0.022697 0.000000
# 6 0.000000 0.000000 0.000000 0.000000 0.000000 0.060434
#
#
# Mechanical properties :
#
#
# Convention : Reuss Voigt Hill
#
# Bulk Modulus (GPa) = 45.23674 57.06137 51.14906
# Shear Modulus (GPa) = 24.03019 31.06958 27.54988
#
# Velocity S-wave (km/s) = 3.39404 3.85928 3.63412
# Velocity P-wave (km/s) = 6.08645 6.87115 6.49067
#
# Compressibility (1/GPa) = 0.02210593
#
# Stress axis : x y z
#
# Youngs Moduli (GPa) = 75.28436 31.15318 114.16125
#
# Poissons Ratio (x) = 0.25558 0.07640
# Poissons Ratio (y) = 0.61764 0.81565
# Poissons Ratio (z) = 0.05038 0.22258
#
# Static dielectric constant tensor:
#      x y z
#    x 3.712390 0.000000 0.000000 
#    y 0.000000 3.470740 0.000000 
#    z 0.000000 0.000000 4.611390 
# 
# 
# High freq. dielectric constant tensor:
#      x y z
#    x 1.819070 0.000000 0.000000 
#    y 0.000000 1.779530 0.000000 
#    z 0.000000 0.000000 1.847290 
# 
# From -- ./inp_files/31216.got.cif
#   From: 2010.03.12/outbox.cif.g09.slc.cpg/sg73_16_cif.got.tgz:31216.got - 2010.04.16 15:25:48.
