data_PCOD8296680
_publ_section_title
;
Structure prediction by ZEFSAII (Michael W. Deem and Ramdas Pophale) SiO2 
 PCOD8296680
Probable space group: I B C A 
;
_chemical_formula_sum "Si O2"
_cell_formula_units_Z 88
_cell_length_a 14.020087
_cell_length_b 23.678038
_cell_length_c 12.312770
_cell_angle_alpha 90.000000
_cell_angle_beta 90.000000
_cell_angle_gamma 90.000000
_cell_volume 4087.447512
_symmetry_space_group_name_H-M "I B C A "
_symmetry_group_IT_number 73
_symmetry_cell_setting 'orthorhombic'
loop_
_space_group_symop_operation_xyz
x,y,z
-x,1/2-y,z
x,-y,1/2-z
1/2-x,y,-z
-x,-y,-z
x,1/2+y,-z
-x,y,1/2+z
1/2+x,-y,z
1/2+x,1/2+y,1/2+z
1/2-x,-y,1/2+z
1/2+x,1/2-y,-z
-x,1/2+y,1/2-z
1/2-x,1/2-y,1/2-z
1/2+x,y,1/2-z
1/2-x,1/2+y,z
x,1/2-y,1/2+z
loop_
_atom_site_type_symbol
_atom_site_label
_atom_site_fract_x
_atom_site_fract_y
_atom_site_fract_z
Si Si1 0.830098 0.855355 0.796338
Si Si2 0.159011 0.563898 0.264495
Si Si3 0.958112 0.060105 0.799230
Si Si4 0.637213 0.106481 0.995301
Si Si5 0.250000 0.199690 0.000000
Si Si6 0.100837 0.719248 0.606056
O O1 0.738095 0.889331 0.754324
O O2 0.922018 0.895241 0.790446
O O3 0.853857 0.802399 0.718983
O O4 0.813178 0.838131 0.919687
O O5 0.200397 0.500000 0.250000
O O6 0.111196 0.576416 0.382247
O O7 0.070947 0.570424 0.180195
O O8 0.937485 0.000000 0.750000
O O9 0.899263 0.064909 0.910552
O O10 0.750000 0.114055 0.000000
O O11 0.590069 0.168377 0.017677
O O12 0.176409 0.235530 0.932051
O O13 0.000000 0.750000 0.625420
#
# Coordination Sequence:
#
# PCOD8296680 Si02
#       6
#    16  16  16  16   8  16
#     4  11  25  43  67  99 139 173 230 289 340 418
#     4  11  24  43  72 101 142 182 230 286 352 426
#     4  10  24  42  67 104 136 177 233 282 347 422
#     4  11  22  45  72  93 141 190 224 283 357 412
#     4  12  26  42  66 102 130 176 232 296 342 402
#     4  11  25  46  69  98 135 188 235 284 355 412
#
# _framework density 21.529329000000001
#
# number of rings (size 3 to 8) (size 9 to 14) (size 15 to 20)
#    0.000    1.091    4.545    1.091    7.636    5.091 
#    0.000    0.000    0.000    0.000    0.000    0.000 
#    0.000    0.000    0.000    0.000    0.000    0.000 
#
# Total GULP energy -545442.875662 kJ/mol
# GULP energy per Si atom -12396.428992 kJ/mol
# Density = 2.148033 g / cm^3
# Si number density = 21.529329 Si / 1000 Ang^3
#
#
#
# Elastic Constant Matrix: (Units=GPa)
#
#
# Indices 1 2 3 4 5 6 
#
# 1 127.2830 51.6314 23.3542 0.0000 0.0001 0.0000
# 2 51.6314 104.9832 48.4897 0.0002 0.0008 0.0000
# 3 23.3542 48.4897 82.6414 0.0003 0.0016 0.0000
# 4 0.0000 0.0002 0.0003 30.4016 0.0006 0.0000
# 5 0.0001 0.0008 0.0016 0.0006 71.7571 -0.0002
# 6 0.0000 0.0000 0.0000 0.0000 -0.0002 50.5779
#
#
#
# Elastic Compliance Matrix: (Units=1/GPa)
#
#
# Indices 1 2 3 4 5 6 
#
# 1 0.009815 -0.004864 0.000080 0.000000 0.000000 0.000000
# 2 -0.004864 0.015477 -0.007707 0.000000 0.000000 0.000000
# 3 0.000080 -0.007707 0.016600 0.000000 0.000000 0.000000
# 4 0.000000 0.000000 0.000000 0.032893 0.000000 0.000000
# 5 0.000000 0.000000 0.000000 0.000000 0.013936 0.000000
# 6 0.000000 0.000000 0.000000 0.000000 0.000000 0.019771
#
#
# Mechanical properties :
#
#
# Convention : Reuss Voigt Hill
#
# Bulk Modulus (GPa) = 59.13358 62.42868 60.78113
# Shear Modulus (GPa) = 35.94293 43.30948 39.62620
#
# Velocity S-wave (km/s) = 4.09037 4.49001 4.29484
# Velocity P-wave (km/s) = 7.05934 7.47932 7.27236
#
# Compressibility (1/GPa) = 0.01691086
#
# Stress axis : x y z
#
# Youngs Moduli (GPa) = 101.88635 64.61183 60.24252
#
# Poissons Ratio (x) = 0.31428 -0.00484
# Poissons Ratio (y) = 0.49559 0.46426
# Poissons Ratio (z) = -0.00819 0.49793
#
# Static dielectric constant tensor:
#      x y z
#    x 4.654520 0.000000 0.000000 
#    y 0.000000 4.062710 0.000000 
#    z 0.000000 0.000000 3.435970 
# 
# 
# High freq. dielectric constant tensor:
#      x y z
#    x 1.859190 0.000000 0.000000 
#    y 0.000000 1.854120 0.000000 
#    z 0.000000 0.000000 1.835390 
# 
# From -- ./inp_files/10987.got.cif
#   From: 2010.03.12/outbox.cif.g09.slc.cpg/sg73_6_cif.got.tgz:10987.got - 2010.04.16 15:25:48.
