data_PCOD8296054
_publ_section_title
;
Structure prediction by ZEFSAII (Michael W. Deem and Ramdas Pophale) SiO2 
 PCOD8296054
Probable space group: I B C A 
;
_chemical_formula_sum "Si O2"
_cell_formula_units_Z 80
_cell_length_a 24.901839
_cell_length_b 17.851567
_cell_length_c 8.859489
_cell_angle_alpha 90.000000
_cell_angle_beta 90.000000
_cell_angle_gamma 90.000000
_cell_volume 3938.369309
_symmetry_space_group_name_H-M "I B C A "
_symmetry_group_IT_number 73
_symmetry_cell_setting 'orthorhombic'
loop_
_space_group_symop_operation_xyz
x,y,z
-x,1/2-y,z
x,-y,1/2-z
1/2-x,y,-z
-x,-y,-z
x,1/2+y,-z
-x,y,1/2+z
1/2+x,-y,z
1/2+x,1/2+y,1/2+z
1/2-x,-y,1/2+z
1/2+x,1/2-y,-z
-x,1/2+y,1/2-z
1/2-x,1/2-y,1/2-z
1/2+x,y,1/2-z
1/2-x,1/2+y,z
x,1/2-y,1/2+z
loop_
_atom_site_type_symbol
_atom_site_label
_atom_site_fract_x
_atom_site_fract_y
_atom_site_fract_z
Si Si1 0.750000 0.260997 0.000000
Si Si2 0.500000 0.750000 0.771263
Si Si3 0.152475 0.157809 0.570667
Si Si4 0.831289 0.375543 0.900489
Si Si5 0.196897 0.023619 0.424714
Si Si6 0.424978 0.289504 0.476703
O O1 0.705311 0.210254 0.919301
O O2 0.781552 0.317221 0.887082
O O3 0.460982 0.700079 0.874151
O O4 0.536984 0.695974 0.667452
O O5 0.145152 0.117580 0.732437
O O6 0.099681 0.205571 0.530891
O O7 0.154945 0.092221 0.442977
O O8 0.876727 0.348170 0.018079
O O9 0.814301 0.454576 0.965590
O O10 0.250000 0.059321 0.500000
O O11 0.202512 0.000000 0.250000
#
# Coordination Sequence:
#
# PCOD8296054 Si02
#       6
#     8   8  16  16  16  16
#     4  10  22  32  64  88 130 152 210 246 298 368
#     4  10  20  42  64  98 120 154 204 272 316 368
#     4  11  22  39  60  93 126 166 204 250 306 368
#     4  11  22  39  60  93 126 166 204 250 306 368
#     4  12  26  40  60  85 130 175 207 245 298 370
#     4  10  22  38  70  94 124 154 208 260 320 360
#
# _framework density 20.312974000000001
#
# number of rings (size 3 to 8) (size 9 to 14) (size 15 to 20)
#    0.000    1.200    4.000    2.400    2.800    1.600 
#    0.000    0.000    0.000    7.200    0.000    0.000 
#    0.000    0.000    0.000    0.000    0.000    0.000 
#
# Total GULP energy -495718.655804 kJ/mol
# GULP energy per Si atom -12392.966395 kJ/mol
# Density = 2.026674 g / cm^3
# Si number density = 20.312974 Si / 1000 Ang^3
#
#
#
# Elastic Constant Matrix: (Units=GPa)
#
#
# Indices 1 2 3 4 5 6 
#
# 1 85.6259 23.9840 31.3508 0.0000 0.0000 0.0000
# 2 23.9840 92.5624 25.3892 0.0000 0.0000 0.0000
# 3 31.3508 25.3892 113.0764 0.0000 0.0000 0.0000
# 4 0.0000 0.0000 0.0000 16.6297 0.0000 0.0000
# 5 0.0000 0.0000 0.0000 0.0000 27.4481 0.0000
# 6 0.0000 0.0000 0.0000 0.0000 0.0000 11.0661
#
#
#
# Elastic Compliance Matrix: (Units=1/GPa)
#
#
# Indices 1 2 3 4 5 6 
#
# 1 0.013582 -0.002649 -0.003171 0.000000 0.000000 0.000000
# 2 -0.002649 0.012029 -0.001966 0.000000 0.000000 0.000000
# 3 -0.003171 -0.001966 0.010164 0.000000 0.000000 0.000000
# 4 0.000000 0.000000 0.000000 0.060133 0.000000 0.000000
# 5 0.000000 0.000000 0.000000 0.000000 0.036432 0.000000
# 6 0.000000 0.000000 0.000000 0.000000 0.000000 0.090366
#
#
# Mechanical properties :
#
#
# Convention : Reuss Voigt Hill
#
# Bulk Modulus (GPa) = 49.49964 50.30143 49.90053
# Shear Modulus (GPa) = 20.40700 25.06484 22.73592
#
# Velocity S-wave (km/s) = 3.17303 3.51655 3.34919
# Velocity P-wave (km/s) = 6.15187 6.42690 6.29089
#
# Compressibility (1/GPa) = 0.02020217
#
# Stress axis : x y z
#
# Youngs Moduli (GPa) = 73.62827 83.12962 98.38472
#
# Poissons Ratio (x) = 0.22025 0.31195
# Poissons Ratio (y) = 0.19508 0.19346
# Poissons Ratio (z) = 0.23345 0.16347
#
# Static dielectric constant tensor:
#      x y z
#    x 3.837710 0.000000 0.000000 
#    y 0.000000 3.472350 0.000000 
#    z 0.000000 0.000000 3.692310 
# 
# 
# High freq. dielectric constant tensor:
#      x y z
#    x 1.789300 0.000000 0.000000 
#    y 0.000000 1.770040 0.000000 
#    z 0.000000 0.000000 1.802130 
# 
# From -- ./inp_files/5609.got.cif
#   From: 2010.03.12/outbox.cif.g09.slc.cpg/sg73_3_cif.got.tgz:5609.got - 2010.04.16 15:25:48.
