data_PCOD8296892
_publ_section_title
;
Structure prediction by ZEFSAII (Michael W. Deem and Ramdas Pophale) SiO2 
 PCOD8296892
Probable space group: I B C A 
;
_chemical_formula_sum "Si O2"
_cell_formula_units_Z 96
_cell_length_a 13.124780
_cell_length_b 14.315113
_cell_length_c 23.093401
_cell_angle_alpha 90.000000
_cell_angle_beta 90.000000
_cell_angle_gamma 90.000000
_cell_volume 4338.850735
_symmetry_space_group_name_H-M "I B C A "
_symmetry_group_IT_number 73
_symmetry_cell_setting 'orthorhombic'
loop_
_space_group_symop_operation_xyz
x,y,z
-x,1/2-y,z
x,-y,1/2-z
1/2-x,y,-z
-x,-y,-z
x,1/2+y,-z
-x,y,1/2+z
1/2+x,-y,z
1/2+x,1/2+y,1/2+z
1/2-x,-y,1/2+z
1/2+x,1/2-y,-z
-x,1/2+y,1/2-z
1/2-x,1/2-y,1/2-z
1/2+x,y,1/2-z
1/2-x,1/2+y,z
x,1/2-y,1/2+z
loop_
_atom_site_type_symbol
_atom_site_label
_atom_site_fract_x
_atom_site_fract_y
_atom_site_fract_z
Si Si1 0.502860 0.486874 0.813996
Si Si2 0.523443 0.142493 0.523644
Si Si3 0.119726 0.382651 0.880942
Si Si4 0.777410 0.505305 0.684857
Si Si5 0.072589 0.162646 0.099285
Si Si6 0.802890 0.821921 0.110316
O O1 0.545862 0.500000 0.750000
O O2 0.520686 0.588976 0.842826
O O3 0.386480 0.453921 0.814790
O O4 0.570717 0.408893 0.846766
O O5 0.500000 0.250000 0.514898
O O6 0.421171 0.099616 0.553345
O O7 0.536711 0.104180 0.458137
O O8 0.627032 0.129305 0.561117
O O9 0.211093 0.451492 0.863226
O O10 0.147864 0.275655 0.869529
O O11 0.731155 0.500000 0.750000
O O12 0.794232 0.612253 0.666468
O O13 0.188131 0.197466 0.087386
O O14 0.000000 0.250000 0.113413
#
# Coordination Sequence:
#
# PCOD8296892 Si02
#       6
#    16  16  16  16  16  16
#     4  11  24  44  64  95 137 170 224 282 326 401
#     4   9  21  41  67  94 130 171 219 274 328 403
#     4  11  22  42  68  96 131 177 228 269 337 401
#     4  11  24  43  63  96 138 172 225 284 329 402
#     4  11  23  43  67  98 137 173 221 277 341 392
#     4  11  22  41  67  96 131 180 219 273 336 397
#
# _framework density 22.125675000000001
#
# number of rings (size 3 to 8) (size 9 to 14) (size 15 to 20)
#    0.000    1.333    3.333    2.000    0.000    1.333 
#    6.000    2.500    0.000    0.000    0.000    0.000 
#    0.000    0.000    0.000    0.000    0.000    0.000 
#
# Total GULP energy -594791.442354 kJ/mol
# GULP energy per Si atom -12391.488382 kJ/mol
# Density = 2.207532 g / cm^3
# Si number density = 22.125675 Si / 1000 Ang^3
#
#
#
# Elastic Constant Matrix: (Units=GPa)
#
#
# Indices 1 2 3 4 5 6 
#
# 1 128.3138 27.5015 38.5946 0.0000 0.0000 0.0000
# 2 27.5015 103.1510 61.7217 0.0000 0.0000 0.0000
# 3 38.5946 61.7217 158.5114 0.0000 0.0000 0.0000
# 4 0.0000 0.0000 0.0000 31.3244 0.0000 0.0000
# 5 0.0000 0.0000 0.0000 0.0000 19.5216 0.0000
# 6 0.0000 0.0000 0.0000 0.0000 0.0000 33.9827
#
#
#
# Elastic Compliance Matrix: (Units=1/GPa)
#
#
# Indices 1 2 3 4 5 6 
#
# 1 0.008551 -0.001348 -0.001557 0.000000 0.000000 0.000000
# 2 -0.001348 0.012852 -0.004676 0.000000 0.000000 0.000000
# 3 -0.001557 -0.004676 0.008509 0.000000 0.000000 0.000000
# 4 0.000000 0.000000 0.000000 0.031924 0.000000 0.000000
# 5 0.000000 0.000000 0.000000 0.000000 0.051225 0.000000
# 6 0.000000 0.000000 0.000000 0.000000 0.000000 0.029427
#
#
# Mechanical properties :
#
#
# Convention : Reuss Voigt Hill
#
# Bulk Modulus (GPa) = 67.80200 71.73464 69.76832
# Shear Modulus (GPa) = 30.75675 34.44296 32.59985
#
# Velocity S-wave (km/s) = 3.73244 3.94978 3.84265
# Velocity P-wave (km/s) = 7.02035 7.30019 7.16164
#
# Compressibility (1/GPa) = 0.01474883
#
# Stress axis : x y z
#
# Youngs Moduli (GPa) = 116.95016 77.80918 117.52817
#
# Poissons Ratio (x) = 0.10489 0.18299
# Poissons Ratio (y) = 0.15766 0.54957
# Poissons Ratio (z) = 0.18209 0.36384
#
# Static dielectric constant tensor:
#      x y z
#    x 4.355570 0.000000 0.000000 
#    y 0.000000 3.772140 0.000000 
#    z 0.000000 0.000000 4.180170 
# 
# 
# High freq. dielectric constant tensor:
#      x y z
#    x 1.897300 0.000000 0.000000 
#    y 0.000000 1.853110 0.000000 
#    z 0.000000 0.000000 1.866430 
# 
# From -- ./inp_files/18662.got.cif
#   From: 2010.03.12/outbox.cif.g09.slc.cpg/sg73_10_cif.got.tgz:18662.got - 2010.04.16 15:25:48.
