data_PCOD8296372
_publ_section_title
;
Structure prediction by ZEFSAII (Michael W. Deem and Ramdas Pophale) SiO2 
 PCOD8296372
Probable space group: I B C A 
;
_chemical_formula_sum "Si O2"
_cell_formula_units_Z 88
_cell_length_a 10.546209
_cell_length_b 15.044939
_cell_length_c 25.052826
_cell_angle_alpha 90.000000
_cell_angle_beta 90.000000
_cell_angle_gamma 90.000000
_cell_volume 3975.058524
_symmetry_space_group_name_H-M "I B C A "
_symmetry_group_IT_number 73
_symmetry_cell_setting 'orthorhombic'
loop_
_space_group_symop_operation_xyz
x,y,z
-x,1/2-y,z
x,-y,1/2-z
1/2-x,y,-z
-x,-y,-z
x,1/2+y,-z
-x,y,1/2+z
1/2+x,-y,z
1/2+x,1/2+y,1/2+z
1/2-x,-y,1/2+z
1/2+x,1/2-y,-z
-x,1/2+y,1/2-z
1/2-x,1/2-y,1/2-z
1/2+x,y,1/2-z
1/2-x,1/2+y,z
x,1/2-y,1/2+z
loop_
_atom_site_type_symbol
_atom_site_label
_atom_site_fract_x
_atom_site_fract_y
_atom_site_fract_z
Si Si1 0.058195 0.595034 0.625285
Si Si2 0.233340 0.330904 0.191085
Si Si3 0.500000 0.250000 0.543084
Si Si4 0.000000 0.250000 0.633815
Si Si5 0.825676 0.361516 0.805309
Si Si6 0.250000 0.832354 0.500000
Si Si7 0.354760 0.409276 0.399290
O O1 0.201104 0.606731 0.647197
O O2 0.025363 0.664997 0.579839
O O3 0.058673 0.497251 0.598928
O O4 0.961502 0.602043 0.675237
O O5 0.210509 0.388978 0.244792
O O6 0.327320 0.246156 0.196564
O O7 0.098141 0.297570 0.172475
O O8 0.625908 0.230230 0.508111
O O9 0.055837 0.323822 0.594843
O O10 0.720403 0.402712 0.843936
O O11 0.261704 0.899715 0.550163
#
# Coordination Sequence:
#
# PCOD8296372 Si02
#       7
#    16  16   8   8  16   8  16
#     4  12  24  45  73 104 144 190 229 303 356 441
#     4  10  22  39  75  95 143 190 229 280 360 425
#     4  12  25  49  80 104 148 186 252 308 374 438
#     4  10  23  45  64 106 138 184 234 296 344 430
#     4  10  22  44  63 104 138 185 235 285 345 434
#     4  12  26  50  72 106 138 198 250 312 370 438
#     4  11  26  45  70 100 145 179 243 298 358 423
#
# _framework density 22.13804
#
# number of rings (size 3 to 8) (size 9 to 14) (size 15 to 20)
#    0.000    1.091    3.636    1.636   10.182    2.182 
#    0.000    0.000    0.000    0.000    0.000    0.000 
#    0.000    0.000    0.000    0.000    0.000    0.000 
#
# Total GULP energy -545570.700173 kJ/mol
# GULP energy per Si atom -12399.334095 kJ/mol
# Density = 2.208765 g / cm^3
# Si number density = 22.138040 Si / 1000 Ang^3
#
#
#
# Elastic Constant Matrix: (Units=GPa)
#
#
# Indices 1 2 3 4 5 6 
#
# 1 132.9034 42.9369 45.4306 0.0000 0.0000 0.0000
# 2 42.9369 110.3977 46.3804 0.0000 0.0000 0.0000
# 3 45.4306 46.3804 107.5849 0.0000 0.0000 0.0000
# 4 0.0000 0.0000 0.0000 8.8919 0.0000 0.0000
# 5 0.0000 0.0000 0.0000 0.0000 41.0202 0.0000
# 6 0.0000 0.0000 0.0000 0.0000 0.0000 27.1017
#
#
#
# Elastic Compliance Matrix: (Units=1/GPa)
#
#
# Indices 1 2 3 4 5 6 
#
# 1 0.009286 -0.002399 -0.002887 0.000000 0.000000 0.000000
# 2 -0.002399 0.011681 -0.004023 0.000000 0.000000 0.000000
# 3 -0.002887 -0.004023 0.012249 0.000000 0.000000 0.000000
# 4 0.000000 0.000000 0.000000 0.112462 0.000000 0.000000
# 5 0.000000 0.000000 0.000000 0.000000 0.024378 0.000000
# 6 0.000000 0.000000 0.000000 0.000000 0.000000 0.036898
#
#
# Mechanical properties :
#
#
# Convention : Reuss Voigt Hill
#
# Bulk Modulus (GPa) = 68.50172 68.93131 68.71651
# Shear Modulus (GPa) = 21.69779 29.81197 25.75488
#
# Velocity S-wave (km/s) = 3.13407 3.67364 3.41453
# Velocity P-wave (km/s) = 6.64129 7.01419 6.83028
#
# Compressibility (1/GPa) = 0.01459817
#
# Stress axis : x y z
#
# Youngs Moduli (GPa) = 107.68733 85.60778 81.64262
#
# Poissons Ratio (x) = 0.20534 0.23572
# Poissons Ratio (y) = 0.25830 0.32844
# Poissons Ratio (z) = 0.31092 0.34439
#
# Static dielectric constant tensor:
#      x y z
#    x 4.120110 0.000000 0.000000 
#    y 0.000000 3.898900 0.000000 
#    z 0.000000 0.000000 4.028310 
# 
# 
# High freq. dielectric constant tensor:
#      x y z
#    x 1.876510 0.000000 0.000000 
#    y 0.000000 1.859600 0.000000 
#    z 0.000000 0.000000 1.872820 
# 
# From -- ./inp_files/11008.got.cif
#   From: 2010.03.12/outbox.cif.g09.slc.cpg/sg73_6_cif.got.tgz:11008.got - 2010.04.16 15:25:48.
