data_PCOD8297077
_publ_section_title
;
Structure prediction by ZEFSAII (Michael W. Deem and Ramdas Pophale) SiO2 
 PCOD8297077
Probable space group: I B C A 
;
_chemical_formula_sum "Si O2"
_cell_formula_units_Z 72
_cell_length_a 4.955097
_cell_length_b 21.739775
_cell_length_c 28.134943
_cell_angle_alpha 90.000000
_cell_angle_beta 90.000000
_cell_angle_gamma 90.000000
_cell_volume 3030.771852
_symmetry_space_group_name_H-M "I B C A "
_symmetry_group_IT_number 73
_symmetry_cell_setting 'orthorhombic'
loop_
_space_group_symop_operation_xyz
x,y,z
-x,1/2-y,z
x,-y,1/2-z
1/2-x,y,-z
-x,-y,-z
x,1/2+y,-z
-x,y,1/2+z
1/2+x,-y,z
1/2+x,1/2+y,1/2+z
1/2-x,-y,1/2+z
1/2+x,1/2-y,-z
-x,1/2+y,1/2-z
1/2-x,1/2-y,1/2-z
1/2+x,y,1/2-z
1/2-x,1/2+y,z
x,1/2-y,1/2+z
loop_
_atom_site_type_symbol
_atom_site_label
_atom_site_fract_x
_atom_site_fract_y
_atom_site_fract_z
Si Si1 0.388147 0.623775 0.948751
Si Si2 0.578692 0.628558 0.718656
Si Si3 0.750000 0.045436 0.000000
Si Si4 0.214208 0.041800 0.132773
Si Si5 0.000000 0.250000 0.663559
Si Si6 0.000000 0.250000 0.400028
O O1 0.193949 0.588815 0.911361
O O2 0.418446 0.693744 0.933233
O O3 0.250000 0.621186 0.000000
O O4 0.682883 0.590375 0.954838
O O5 0.271335 0.621160 0.735676
O O6 0.657076 0.576458 0.681592
O O7 0.615251 0.695396 0.695777
O O8 0.500000 0.000000 0.000000
O O9 0.514686 0.015357 0.129839
O O10 0.750770 0.272968 0.631664
#
# Coordination Sequence:
#
# PCOD8297077 Si02
#       6
#    16  16   8  16   8   8
#     4  12  30  51  78 115 155 211 267 323 389 457
#     4  12  26  49  83 115 151 199 253 317 390 465
#     4  12  26  46  76 108 150 200 260 312 374 460
#     4  12  29  49  78 113 159 201 255 318 385 464
#     4  12  26  52  78 116 152 206 256 324 392 470
#     4  12  30  48  82 108 164 202 260 332 398 450
#
# _framework density 23.756323999999999
#
# number of rings (size 3 to 8) (size 9 to 14) (size 15 to 20)
#    0.000    0.000    3.333    4.667   10.889    2.667 
#    0.000    0.000    0.000    0.000    0.000    0.000 
#    0.000    0.000    0.000    0.000    0.000    0.000 
#
# Total GULP energy -446395.031388 kJ/mol
# GULP energy per Si atom -12399.861983 kJ/mol
# Density = 2.370225 g / cm^3
# Si number density = 23.756324 Si / 1000 Ang^3
#
#
#
# Elastic Constant Matrix: (Units=GPa)
#
#
# Indices 1 2 3 4 5 6 
#
# 1 109.9032 34.5350 32.0779 0.0000 0.0000 0.0000
# 2 34.5350 160.5147 69.2621 0.0000 0.0000 0.0000
# 3 32.0779 69.2621 131.7368 0.0000 0.0000 0.0000
# 4 0.0000 0.0000 0.0000 0.1444 0.0000 0.0000
# 5 0.0000 0.0000 0.0000 0.0000 33.9129 0.0000
# 6 0.0000 0.0000 0.0000 0.0000 0.0000 37.3896
#
#
#
# Elastic Compliance Matrix: (Units=1/GPa)
#
#
# Indices 1 2 3 4 5 6 
#
# 1 0.010043 -0.001430 -0.001694 0.000000 0.000000 0.000000
# 2 -0.001430 0.008262 -0.003995 0.000000 0.000000 0.000000
# 3 -0.001694 -0.003995 0.010104 0.000000 0.000000 0.000000
# 4 0.000000 0.000000 0.000000 6.926193 0.000000 0.000000
# 5 0.000000 0.000000 0.000000 0.000000 0.029487 0.000000
# 6 0.000000 0.000000 0.000000 0.000000 0.000000 0.026745
#
#
# Mechanical properties :
#
#
# Convention : Reuss Voigt Hill
#
# Bulk Modulus (GPa) = 70.57039 74.87830 72.72435
# Shear Modulus (GPa) = 0.71126 32.04134 16.37630
#
# Velocity S-wave (km/s) = 0.54777 3.67652 2.62839
# Velocity P-wave (km/s) = 5.49277 7.04344 6.31588
#
# Compressibility (1/GPa) = 0.01417025
#
# Stress axis : x y z
#
# Youngs Moduli (GPa) = 99.57633 121.04123 98.97120
#
# Poissons Ratio (x) = 0.17308 0.16762
# Poissons Ratio (y) = 0.14238 0.39544
# Poissons Ratio (z) = 0.16864 0.48362
#
# Static dielectric constant tensor:
#      x y z
#    x 4.747760 0.000000 0.000000 
#    y 0.000000 4.548130 0.000000 
#    z 0.000000 0.000000 4.541310 
# 
# 
# High freq. dielectric constant tensor:
#      x y z
#    x 1.955270 0.000000 0.000000 
#    y 0.000000 1.956710 0.000000 
#    z 0.000000 0.000000 1.949180 
# 
# From -- ./inp_files/30873.got.cif
#   From: 2010.03.12/outbox.cif.g09.slc.cpg/sg73_16_cif.got.tgz:30873.got - 2010.04.16 15:25:48.
