data_PCOD8297141
_publ_section_title
;
Structure prediction by ZEFSAII (Michael W. Deem and Ramdas Pophale) SiO2 
 PCOD8297141
Probable space group: I M M A
;
_chemical_formula_sum "Si O2"
_cell_formula_units_Z 84
_cell_length_a 23.559123
_cell_length_b 10.765478
_cell_length_c 20.725154
_cell_angle_alpha 90.000000
_cell_angle_beta 90.000000
_cell_angle_gamma 90.000000
_cell_volume 5256.421750
_symmetry_space_group_name_H-M "I M M A"
_symmetry_group_IT_number 74
_symmetry_cell_setting 'orthorhombic'
loop_
_space_group_symop_operation_xyz
x,y,z
-x,1/2-y,z
x,-y,-z
-x,1/2+y,-z
-x,-y,-z
x,1/2+y,-z
-x,y,z
x,1/2-y,z
1/2+x,1/2+y,1/2+z
1/2-x,-y,1/2+z
1/2+x,1/2-y,1/2-z
1/2-x,y,1/2-z
1/2-x,1/2-y,1/2-z
1/2+x,y,1/2-z
1/2-x,1/2+y,1/2+z
1/2+x,-y,1/2+z
loop_
_atom_site_type_symbol
_atom_site_label
_atom_site_fract_x
_atom_site_fract_y
_atom_site_fract_z
Si Si1 0.500000 0.750000 0.366800
Si Si2 0.116226 0.999796 0.258329
Si Si3 0.114617 0.750000 0.055167
Si Si4 0.432689 0.750000 0.719952
Si Si5 0.169866 0.521220 0.123228
Si Si6 0.873303 0.750000 0.907884
Si Si7 0.000000 0.382560 0.741477
Si Si8 0.779415 0.609988 0.318725
O O1 0.554345 0.750000 0.411267
O O2 0.500000 0.871876 0.320343
O O3 0.103877 0.143471 0.252443
O O4 0.136720 0.945755 0.189453
O O5 0.162623 0.969439 0.313222
O O6 0.056746 0.946367 0.282128
O O7 0.148343 0.623259 0.071859
O O8 0.101881 0.750000 0.979308
O O9 0.500000 0.750000 0.736126
O O10 0.425975 0.750000 0.642250
O O11 0.162563 0.377404 0.102165
O O12 0.237395 0.541522 0.131470
O O13 0.000000 0.250000 0.707298
O O14 0.793085 0.750000 0.342435
O O15 0.750000 0.615238 0.250000
#
# Coordination Sequence:
#
# PCOD8297141 Si02
#       8
#     4  16   8   8  16   8   8  16
#     4  10  22  28  48  68  92 124 170 220 242 260
#     4  10  18  29  46  68  91 123 160 191 241 295
#     4  12  20  36  49  69  90 130 176 213 245 268
#     4  10  20  33  43  60  98 138 163 194 234 284
#     4  10  19  35  48  67  93 121 161 209 248 284
#     4  10  24  33  48  65  93 129 171 210 243 279
#     4  10  16  27  42  66  93 120 150 201 232 275
#     4   9  17  28  50  71  87 113 154 202 246 293
#
# _framework density 15.980454
#
# number of rings (size 3 to 8) (size 9 to 14) (size 15 to 20)
#    0.286    1.714    3.810    1.143    2.000    0.762 
#    0.000    4.762    0.000    0.000    0.000    0.000 
#    0.000    0.000    0.000    5.143    0.000    0.095 
#
# Total GULP energy -520382.690592 kJ/mol
# GULP energy per Si atom -12390.064062 kJ/mol
# Density = 1.594408 g / cm^3
# Si number density = 15.980454 Si / 1000 Ang^3
#
#
#
# Elastic Constant Matrix: (Units=GPa)
#
#
# Indices 1 2 3 4 5 6 
#
# 1 131.3504 46.7700 25.1917 0.0000 0.0000 0.0000
# 2 46.7700 114.1465 14.5894 0.0000 0.0000 0.0000
# 3 25.1917 14.5894 20.5616 0.0000 0.0000 0.0000
# 4 0.0000 0.0000 0.0000 15.8563 0.0000 0.0000
# 5 0.0000 0.0000 0.0000 0.0000 13.3755 0.0000
# 6 0.0000 0.0000 0.0000 0.0000 0.0000 28.9494
#
#
#
# Elastic Compliance Matrix: (Units=1/GPa)
#
#
# Indices 1 2 3 4 5 6 
#
# 1 0.010818 -0.003012 -0.011117 0.000000 0.000000 0.000000
# 2 -0.003012 0.010473 -0.003741 0.000000 0.000000 0.000000
# 3 -0.011117 -0.003741 0.064909 0.000000 0.000000 0.000000
# 4 0.000000 0.000000 0.000000 0.063066 0.000000 0.000000
# 5 0.000000 0.000000 0.000000 0.000000 0.074764 0.000000
# 6 0.000000 0.000000 0.000000 0.000000 0.000000 0.034543
#
#
# Mechanical properties :
#
#
# Convention : Reuss Voigt Hill
#
# Bulk Modulus (GPa) = 19.81750 48.79563 34.30657
# Shear Modulus (GPa) = 16.07036 23.60341 19.83688
#
# Velocity S-wave (km/s) = 3.17460 3.84737 3.52706
# Velocity P-wave (km/s) = 5.08581 7.09487 6.17263
#
# Compressibility (1/GPa) = 0.05046045
#
# Stress axis : x y z
#
# Youngs Moduli (GPa) = 92.44174 95.48563 15.40613
#
# Poissons Ratio (x) = 0.28756 0.17127
# Poissons Ratio (y) = 0.27839 0.05764
# Poissons Ratio (z) = 1.02766 0.35724
#
# Static dielectric constant tensor:
#      x y z
#    x 3.109230 0.000000 0.000000 
#    y 0.000000 3.112980 0.000000 
#    z 0.000000 0.000000 2.613520 
# 
# 
# High freq. dielectric constant tensor:
#      x y z
#    x 1.615570 0.000000 0.000000 
#    y 0.000000 1.630310 0.000000 
#    z 0.000000 0.000000 1.551710 
# 
# From -- ./inp_files/53857.got.cif
#   From: 2010.03.12/outbox.cif.g09.slc.cpg/sg74_27_cif.got.tgz:53857.got - 2010.04.16 15:46:19.
