data_PCOD8297819
_publ_section_title
;
Structure prediction by ZEFSAII (Michael W. Deem and Ramdas Pophale) SiO2 
 PCOD8297819
Probable space group: I M M A
;
_chemical_formula_sum "Si O2"
_cell_formula_units_Z 112
_cell_length_a 15.396661
_cell_length_b 24.253370
_cell_length_c 16.512159
_cell_angle_alpha 90.000000
_cell_angle_beta 90.000000
_cell_angle_gamma 90.000000
_cell_volume 6165.985539
_symmetry_space_group_name_H-M "I M M A"
_symmetry_group_IT_number 74
_symmetry_cell_setting 'orthorhombic'
loop_
_space_group_symop_operation_xyz
x,y,z
-x,1/2-y,z
x,-y,-z
-x,1/2+y,-z
-x,-y,-z
x,1/2+y,-z
-x,y,z
x,1/2-y,z
1/2+x,1/2+y,1/2+z
1/2-x,-y,1/2+z
1/2+x,1/2-y,1/2-z
1/2-x,y,1/2-z
1/2-x,1/2-y,1/2-z
1/2+x,y,1/2-z
1/2-x,1/2+y,1/2+z
1/2+x,-y,1/2+z
loop_
_atom_site_type_symbol
_atom_site_label
_atom_site_fract_x
_atom_site_fract_y
_atom_site_fract_z
Si Si1 0.334428 0.689183 0.803745
Si Si2 0.845978 0.978208 0.281249
Si Si3 0.764711 0.548621 0.441896
Si Si4 0.096301 0.581404 0.136796
Si Si5 0.778000 0.865966 0.928938
Si Si6 0.597661 0.591074 0.707158
Si Si7 0.900244 0.689159 0.047254
O O1 0.378100 0.750000 0.813733
O O2 0.250000 0.695132 0.750000
O O3 0.302307 0.666230 0.889829
O O4 0.399810 0.646263 0.761817
O O5 0.750000 0.982261 0.250000
O O6 0.886943 0.038851 0.266942
O O7 0.839981 0.955754 0.373412
O O8 0.899668 0.931374 0.232527
O O9 0.787057 0.500000 0.500000
O O10 0.666751 0.542161 0.406493
O O11 0.767737 0.603211 0.496161
O O12 0.119078 0.645466 0.119256
O O13 0.000000 0.567199 0.103568
O O14 0.829900 0.905899 0.864977
O O15 0.847585 0.823405 0.965358
O O16 0.500000 0.586201 0.670687
O O17 0.875326 0.750000 0.079766
O O18 0.000000 0.686605 0.020836
#
# Coordination Sequence:
#
# PCOD8297819 Si02
#       7
#    16  16  16  16  16  16  16
#     4   9  18  32  49  70  99 135 170 199 233 286
#     4  10  19  33  49  68  97 130 163 199 241 291
#     4  10  19  30  49  72  97 126 156 198 248 294
#     4   9  18  31  49  72  97 128 161 195 238 287
#     4  10  18  31  50  73 100 130 164 200 244 290
#     4  11  21  32  50  75 101 130 164 202 244 292
#     4   9  17  29  47  75 107 132 157 195 245 295
#
# _framework density 18.164168
#
# number of rings (size 3 to 8) (size 9 to 14) (size 15 to 20)
#    0.000    2.286    0.000    5.143    0.000    1.714 
#    0.000    0.000    0.000   19.286    0.000    0.000 
#    0.000    0.000    0.000    0.000    0.000    0.000 
#
# Total GULP energy -693802.721620 kJ/mol
# GULP energy per Si atom -12389.334315 kJ/mol
# Density = 1.812283 g / cm^3
# Si number density = 18.164168 Si / 1000 Ang^3
#
#
#
# Elastic Constant Matrix: (Units=GPa)
#
#
# Indices 1 2 3 4 5 6 
#
# 1 27.4656 13.0011 14.2461 -0.0001 0.0000 0.0000
# 2 13.0011 96.5579 48.7355 -0.0003 -0.0001 -0.0001
# 3 14.2461 48.7355 105.8172 -0.0004 -0.0002 -0.0002
# 4 -0.0001 -0.0003 -0.0004 21.3067 -0.0001 -0.0001
# 5 0.0000 -0.0001 -0.0002 -0.0001 5.1112 0.0000
# 6 0.0000 -0.0001 -0.0002 -0.0001 0.0000 18.0906
#
#
#
# Elastic Compliance Matrix: (Units=1/GPa)
#
#
# Indices 1 2 3 4 5 6 
#
# 1 0.040019 -0.003477 -0.003786 0.000000 0.000000 0.000000
# 2 -0.003477 0.013795 -0.005885 0.000000 0.000000 0.000000
# 3 -0.003786 -0.005885 0.012671 0.000000 0.000000 0.000000
# 4 0.000000 0.000000 0.000000 0.046934 0.000001 0.000000
# 5 0.000000 0.000000 0.000000 0.000001 0.195647 0.000000
# 6 0.000000 0.000000 0.000000 0.000000 0.000000 0.055277
#
#
# Mechanical properties :
#
#
# Convention : Reuss Voigt Hill
#
# Bulk Modulus (GPa) = 24.88371 42.42290 33.65330
# Shear Modulus (GPa) = 12.37512 19.15892 15.76702
#
# Velocity S-wave (km/s) = 2.61299 3.25124 2.94943
# Velocity P-wave (km/s) = 4.77836 6.12373 5.49239
#
# Compressibility (1/GPa) = 0.04018694
#
# Stress axis : x y z
#
# Youngs Moduli (GPa) = 24.98805 72.48880 78.92298
#
# Poissons Ratio (x) = 0.25208 0.29881
# Poissons Ratio (y) = 0.08689 0.46449
# Poissons Ratio (z) = 0.09461 0.42663
#
# Static dielectric constant tensor:
#      x y z
#    x 3.239860 0.000000 0.000000 
#    y 0.000000 4.063110 0.000000 
#    z 0.000000 0.000000 3.635000 
# 
# 
# High freq. dielectric constant tensor:
#      x y z
#    x 1.677440 0.000000 0.000000 
#    y 0.000000 1.705530 0.000000 
#    z 0.000000 0.000000 1.689530 
# 
# From -- ./inp_files/32887.got.cif
#   From: 2010.03.12/outbox.cif.g09.slc.cpg/sg74_17_cif.got.tgz:32887.got - 2010.04.16 15:46:19.
