data_PCOD8297628
_publ_section_title
;
Structure prediction by ZEFSAII (Michael W. Deem and Ramdas Pophale) SiO2 
 PCOD8297628
Probable space group: I M M A
;
_chemical_formula_sum "Si O2"
_cell_formula_units_Z 64
_cell_length_a 10.479723
_cell_length_b 36.276558
_cell_length_c 8.450245
_cell_angle_alpha 90.000000
_cell_angle_beta 90.000000
_cell_angle_gamma 90.000000
_cell_volume 3212.515101
_symmetry_space_group_name_H-M "I M M A"
_symmetry_group_IT_number 74
_symmetry_cell_setting 'orthorhombic'
loop_
_space_group_symop_operation_xyz
x,y,z
-x,1/2-y,z
x,-y,-z
-x,1/2+y,-z
-x,-y,-z
x,1/2+y,-z
-x,y,z
x,1/2-y,z
1/2+x,1/2+y,1/2+z
1/2-x,-y,1/2+z
1/2+x,1/2-y,1/2-z
1/2-x,y,1/2-z
1/2-x,1/2-y,1/2-z
1/2+x,y,1/2-z
1/2-x,1/2+y,1/2+z
1/2+x,-y,1/2+z
loop_
_atom_site_type_symbol
_atom_site_label
_atom_site_fract_x
_atom_site_fract_y
_atom_site_fract_z
Si Si1 0.500000 0.578086 0.398076
Si Si2 0.737727 0.666003 0.935711
Si Si3 0.000000 0.335940 0.890100
Si Si4 0.000000 0.706672 0.433412
Si Si5 0.266769 0.087237 0.939242
Si Si6 0.500000 0.040880 0.934271
O O1 0.500000 0.620957 0.337162
O O2 0.627689 0.573705 0.505066
O O3 0.500000 0.548032 0.255565
O O4 0.750000 0.663927 0.750000
O O5 0.629555 0.695742 0.975778
O O6 0.690048 0.626800 0.000110
O O7 0.875024 0.675382 0.010410
O O8 0.000000 0.311539 0.736360
O O9 0.000000 0.750000 0.413157
O O10 0.250000 0.087962 0.750000
O O11 0.372064 0.059104 0.003061
O O12 0.500000 0.000000 0.000000
#
# Coordination Sequence:
#
# PCOD8297628 Si02
#       6
#     8  16   8   8  16   8
#     4   8  16  33  57  77 100 138 189 234 273 324
#     4  11  22  39  63  91 119 147 190 252 306 340
#     4  10  21  40  66  89 111 152 201 242 284 347
#     4  12  25  40  60  86 118 160 201 232 280 359
#     4   9  17  34  59  81 105 144 193 235 279 342
#     4  10  18  29  50  80 112 146 183 228 280 332
#
# _framework density 19.922086
#
# number of rings (size 3 to 8) (size 9 to 14) (size 15 to 20)
#    0.000    2.000    0.000    6.750    0.000    2.500 
#    0.000    5.625    0.000    0.000    0.000    0.000 
#    0.000    0.000    0.000    0.000    0.000    0.000 
#
# Total GULP energy -396565.801661 kJ/mol
# GULP energy per Si atom -12392.681302 kJ/mol
# Density = 1.987674 g / cm^3
# Si number density = 19.922086 Si / 1000 Ang^3
#
#
#
# Elastic Constant Matrix: (Units=GPa)
#
#
# Indices 1 2 3 4 5 6 
#
# 1 182.9325 70.0877 26.1416 -0.0045 -0.0321 0.0021
# 2 70.0877 131.2623 37.0610 -0.0168 -0.0506 0.0063
# 3 26.1416 37.0610 69.0065 -0.0268 -0.0360 0.0103
# 4 -0.0045 -0.0168 -0.0268 8.6310 -0.0347 0.0006
# 5 -0.0321 -0.0506 -0.0360 -0.0347 -24.4508 -0.0346
# 6 0.0021 0.0063 0.0103 0.0006 -0.0346 10.9384
#
#
#
# Elastic Compliance Matrix: (Units=1/GPa)
#
#
# Indices 1 2 3 4 5 6 
#
# 1 0.006905 -0.003475 -0.000749 -0.000005 -0.000001 0.000001
# 2 -0.003475 0.010729 -0.004446 0.000005 -0.000011 -0.000001
# 3 -0.000749 -0.004446 0.017163 0.000044 -0.000015 -0.000014
# 4 -0.000005 0.000005 0.000044 0.115861 -0.000164 -0.000007
# 5 -0.000001 -0.000011 -0.000015 -0.000164 -0.040898 -0.000129
# 6 0.000001 -0.000001 -0.000014 -0.000007 -0.000129 0.091420
#
#
# Mechanical properties :
#
#
# Convention : Reuss Voigt Hill
#
# Bulk Modulus (GPa) = 57.28582 72.19802 64.74192
# Shear Modulus (GPa) = 22.28759 15.68446 18.98602
#
# Velocity S-wave (km/s) = 3.34838 2.80891 3.09044
# Velocity P-wave (km/s) = 6.61561 6.84389 6.73072
#
# Compressibility (1/GPa) = 0.01745633
#
# Stress axis : x y z
#
# Youngs Moduli (GPa) = 144.81969 93.20298 58.26515
#
# Poissons Ratio (x) = 0.32392 0.04366
# Poissons Ratio (y) = 0.50331 0.25903
# Poissons Ratio (z) = 0.10852 0.41436
#
# Static dielectric constant tensor:
#      x y z
#    x 4.564460 0.000000 0.000000 
#    y 0.000000 3.366180 -0.000010 
#    z 0.000000 -0.000010 3.307120 
# 
# 
# High freq. dielectric constant tensor:
#      x y z
#    x 1.817330 0.000000 0.000000 
#    y 0.000000 1.751050 0.000000 
#    z 0.000000 0.000000 1.748630 
# 
# From -- ./inp_files/7406.got.cif
#   From: 2010.03.12/outbox.cif.g09.slc.cpg/sg74_4_cif.got.tgz:7406.got - 2010.04.16 15:46:19.
