data_PCOD8297736
_publ_section_title
;
Structure prediction by ZEFSAII (Michael W. Deem and Ramdas Pophale) SiO2 
 PCOD8297736
Probable space group: I M M A
;
_chemical_formula_sum "Si O2"
_cell_formula_units_Z 80
_cell_length_a 10.258751
_cell_length_b 18.461459
_cell_length_c 24.437121
_cell_angle_alpha 90.000000
_cell_angle_beta 90.000000
_cell_angle_gamma 90.000000
_cell_volume 4628.183270
_symmetry_space_group_name_H-M "I M M A"
_symmetry_group_IT_number 74
_symmetry_cell_setting 'orthorhombic'
loop_
_space_group_symop_operation_xyz
x,y,z
-x,1/2-y,z
x,-y,-z
-x,1/2+y,-z
-x,-y,-z
x,1/2+y,-z
-x,y,z
x,1/2-y,z
1/2+x,1/2+y,1/2+z
1/2-x,-y,1/2+z
1/2+x,1/2-y,1/2-z
1/2-x,y,1/2-z
1/2-x,1/2-y,1/2-z
1/2+x,y,1/2-z
1/2-x,1/2+y,1/2+z
1/2+x,-y,1/2+z
loop_
_atom_site_type_symbol
_atom_site_label
_atom_site_fract_x
_atom_site_fract_y
_atom_site_fract_z
Si Si1 0.238409 0.836191 0.120271
Si Si2 0.645141 0.663320 0.707837
Si Si3 0.500000 0.164720 0.818356
Si Si4 0.654141 0.829344 0.588354
Si Si5 0.500000 0.335372 0.695932
Si Si6 0.845673 0.418044 0.986680
O O1 0.230361 0.750000 0.106496
O O2 0.373619 0.859361 0.147879
O O3 0.225151 0.884090 0.065756
O O4 0.127153 0.860263 0.162800
O O5 0.500000 0.635623 0.723534
O O6 0.645727 0.750000 0.707522
O O7 0.750000 0.630995 0.750000
O O8 0.686521 0.635489 0.647493
O O9 0.500000 0.250000 0.811113
O O10 0.500000 0.130039 0.757092
O O11 0.500000 0.822861 0.582836
O O12 0.718285 0.750000 0.583622
O O13 0.710438 0.876875 0.539534
O O14 0.500000 0.250000 0.701841
O O15 0.000000 0.408734 0.978361
O O16 0.807066 0.500000 0.000000
#
# Coordination Sequence:
#
# PCOD8297736 Si02
#       6
#    16  16   8  16   8  16
#     4  10  18  30  50  75 101 129 162 200 245 293
#     4   8  13  22  39  63  87 110 137 174 222 268
#     4   9  18  30  47  74 106 130 155 198 246 295
#     4   8  14  25  43  66  89 115 148 188 231 275
#     4   9  16  28  49  76 100 126 161 200 242 289
#     4  10  19  30  46  70  94 125 164 206 238 274
#
# _framework density 17.285399999999999
#
# number of rings (size 3 to 8) (size 9 to 14) (size 15 to 20)
#    0.000    3.000    1.000    2.400    0.000    3.200 
#    0.000    0.500    2.200    2.400    0.000    0.000 
#    0.000    0.000    0.000    0.000    0.000    0.000 
#
# Total GULP energy -495697.892264 kJ/mol
# GULP energy per Si atom -12392.447307 kJ/mol
# Density = 1.724606 g / cm^3
# Si number density = 17.285400 Si / 1000 Ang^3
#
#
#
# Elastic Constant Matrix: (Units=GPa)
#
#
# Indices 1 2 3 4 5 6 
#
# 1 105.6579 27.3295 79.9293 0.0000 0.0000 0.0000
# 2 27.3295 52.9305 55.5873 0.0000 0.0000 0.0000
# 3 79.9293 55.5873 191.3909 0.0000 0.0000 0.0000
# 4 0.0000 0.0000 0.0000 4.0745 0.0000 0.0000
# 5 0.0000 0.0000 0.0000 0.0000 5.5410 0.0000
# 6 0.0000 0.0000 0.0000 0.0000 0.0000 9.0212
#
#
#
# Elastic Compliance Matrix: (Units=1/GPa)
#
#
# Indices 1 2 3 4 5 6 
#
# 1 0.013924 -0.001558 -0.005363 0.000000 0.000000 0.000000
# 2 -0.001558 0.027359 -0.007296 0.000000 0.000000 0.000000
# 3 -0.005363 -0.007296 0.009583 0.000000 0.000000 0.000000
# 4 0.000000 0.000000 0.000000 0.245430 0.000000 0.000000
# 5 0.000000 0.000000 0.000000 0.000000 0.180472 0.000000
# 6 0.000000 0.000000 0.000000 0.000000 0.000000 0.110850
#
#
# Mechanical properties :
#
#
# Convention : Reuss Voigt Hill
#
# Bulk Modulus (GPa) = 44.57388 75.07462 59.82425
# Shear Modulus (GPa) = 8.01889 16.20289 12.11089
#
# Velocity S-wave (km/s) = 2.15620 3.06498 2.64984
# Velocity P-wave (km/s) = 5.66056 7.48680 6.63679
#
# Compressibility (1/GPa) = 0.02243466
#
# Stress axis : x y z
#
# Youngs Moduli (GPa) = 71.81722 36.55147 104.34704
#
# Poissons Ratio (x) = 0.05693 0.55958
# Poissons Ratio (y) = 0.11186 0.76127
# Poissons Ratio (z) = 0.38513 0.26666
#
# Static dielectric constant tensor:
#      x y z
#    x 3.113670 0.000000 0.000000 
#    y 0.000000 2.886290 0.000000 
#    z 0.000000 0.000000 3.565870 
# 
# 
# High freq. dielectric constant tensor:
#      x y z
#    x 1.638250 0.000000 0.000000 
#    y 0.000000 1.619980 0.000000 
#    z 0.000000 0.000000 1.687250 
# 
# From -- ./inp_files/58770.got.cif
#   From: 2010.03.12/outbox.cif.g09.slc.cpg/sg74_30_cif.got.tgz:58770.got - 2010.04.16 15:46:19.
