data_PCOD8297323
_publ_section_title
;
Structure prediction by ZEFSAII (Michael W. Deem and Ramdas Pophale) SiO2 
 PCOD8297323
Probable space group: I M M A
;
_chemical_formula_sum "Si O2"
_cell_formula_units_Z 80
_cell_length_a 18.149339
_cell_length_b 17.671510
_cell_length_c 14.766908
_cell_angle_alpha 90.000000
_cell_angle_beta 90.000000
_cell_angle_gamma 90.000000
_cell_volume 4736.134667
_symmetry_space_group_name_H-M "I M M A"
_symmetry_group_IT_number 74
_symmetry_cell_setting 'orthorhombic'
loop_
_space_group_symop_operation_xyz
x,y,z
-x,1/2-y,z
x,-y,-z
-x,1/2+y,-z
-x,-y,-z
x,1/2+y,-z
-x,y,z
x,1/2-y,z
1/2+x,1/2+y,1/2+z
1/2-x,-y,1/2+z
1/2+x,1/2-y,1/2-z
1/2-x,y,1/2-z
1/2-x,1/2-y,1/2-z
1/2+x,y,1/2-z
1/2-x,1/2+y,1/2+z
1/2+x,-y,1/2+z
loop_
_atom_site_type_symbol
_atom_site_label
_atom_site_fract_x
_atom_site_fract_y
_atom_site_fract_z
Si Si1 0.917945 0.512535 0.244119
Si Si2 0.216662 0.663753 0.974538
Si Si3 0.794551 0.899825 0.165925
Si Si4 0.285302 0.054583 0.159358
Si Si5 0.419017 0.430845 0.438454
O O1 0.878811 0.587497 0.200944
O O2 0.869138 0.474542 0.324733
O O3 0.925758 0.450945 0.166060
O O4 0.000000 0.533787 0.280752
O O5 0.231873 0.750000 0.947900
O O6 0.279430 0.613230 0.924210
O O7 0.135282 0.640032 0.943484
O O8 0.217339 0.656460 0.083048
O O9 0.750000 0.865013 0.250000
O O10 0.765514 0.982560 0.136625
O O11 0.250000 0.092430 0.250000
O O12 0.387814 0.500000 0.500000
O O13 0.500000 0.407874 0.476063
#
# Coordination Sequence:
#
# PCOD8297323 Si02
#       5
#    16  16  16  16  16
#     4   9  16  29  54  76  93 123 167 213 251 285
#     4  12  21  30  47  72 106 139 163 193 247 308
#     4   9  18  33  53  71  94 124 170 219 251 286
#     4   9  17  32  50  72  97 127 169 205 242 293
#     4  10  17  29  49  71 100 130 162 200 242 296
#
# _framework density 16.891411999999999
#
# number of rings (size 3 to 8) (size 9 to 14) (size 15 to 20)
#    0.000    2.600    6.000    0.600    0.000    1.200 
#    0.000    0.000    0.000   10.200    0.000    0.000 
#    0.000    0.000    0.000    0.000    0.000    0.000 
#
# Total GULP energy -495628.706453 kJ/mol
# GULP energy per Si atom -12390.717661 kJ/mol
# Density = 1.685297 g / cm^3
# Si number density = 16.891412 Si / 1000 Ang^3
#
#
#
# Elastic Constant Matrix: (Units=GPa)
#
#
# Indices 1 2 3 4 5 6 
#
# 1 115.3647 14.6172 28.4352 0.0000 0.0000 0.0000
# 2 14.6172 46.1187 8.3003 0.0000 0.0000 0.0000
# 3 28.4352 8.3003 51.0323 0.0000 0.0000 0.0000
# 4 0.0000 0.0000 0.0000 16.8983 0.0000 0.0000
# 5 0.0000 0.0000 0.0000 0.0000 22.3689 0.0000
# 6 0.0000 0.0000 0.0000 0.0000 0.0000 12.2951
#
#
#
# Elastic Compliance Matrix: (Units=1/GPa)
#
#
# Indices 1 2 3 4 5 6 
#
# 1 0.010279 -0.002294 -0.005354 0.000000 0.000000 0.000000
# 2 -0.002294 0.022849 -0.002438 0.000000 0.000000 0.000000
# 3 -0.005354 -0.002438 0.022975 0.000000 0.000000 0.000000
# 4 0.000000 0.000000 0.000000 0.059178 0.000000 0.000000
# 5 0.000000 0.000000 0.000000 0.000000 0.044705 0.000000
# 6 0.000000 0.000000 0.000000 0.000000 0.000000 0.081333
#
#
# Mechanical properties :
#
#
# Convention : Reuss Voigt Hill
#
# Bulk Modulus (GPa) = 27.83162 35.02457 31.42810
# Shear Modulus (GPa) = 18.28367 21.05665 19.67016
#
# Velocity S-wave (km/s) = 3.29359 3.53454 3.41619
# Velocity P-wave (km/s) = 5.56563 6.11861 5.84866
#
# Compressibility (1/GPa) = 0.03593036
#
# Stress axis : x y z
#
# Youngs Moduli (GPa) = 97.29025 43.76537 43.52505
#
# Poissons Ratio (x) = 0.10040 0.23304
# Poissons Ratio (y) = 0.22320 0.10612
# Poissons Ratio (z) = 0.52090 0.10670
#
# Static dielectric constant tensor:
#      x y z
#    x 3.511610 0.000000 0.000000 
#    y 0.000000 2.670280 0.000000 
#    z 0.000000 0.000000 3.181490 
# 
# 
# High freq. dielectric constant tensor:
#      x y z
#    x 1.648450 0.000000 0.000000 
#    y 0.000000 1.600090 0.000000 
#    z 0.000000 0.000000 1.646460 
# 
# From -- ./inp_files/33969.got.cif
#   From: 2010.03.12/outbox.cif.g09.slc.cpg/sg74_17_cif.got.tgz:33969.got - 2010.04.16 15:46:19.
