data_PCOD8297184
_publ_section_title
;
Structure prediction by ZEFSAII (Michael W. Deem and Ramdas Pophale) SiO2 
 PCOD8297184
Probable space group: I M M A
;
_chemical_formula_sum "Si O2"
_cell_formula_units_Z 80
_cell_length_a 9.460713
_cell_length_b 30.154128
_cell_length_c 19.195793
_cell_angle_alpha 90.000000
_cell_angle_beta 90.000000
_cell_angle_gamma 90.000000
_cell_volume 5476.167204
_symmetry_space_group_name_H-M "I M M A"
_symmetry_group_IT_number 74
_symmetry_cell_setting 'orthorhombic'
loop_
_space_group_symop_operation_xyz
x,y,z
-x,1/2-y,z
x,-y,-z
-x,1/2+y,-z
-x,-y,-z
x,1/2+y,-z
-x,y,z
x,1/2-y,z
1/2+x,1/2+y,1/2+z
1/2-x,-y,1/2+z
1/2+x,1/2-y,1/2-z
1/2-x,y,1/2-z
1/2-x,1/2-y,1/2-z
1/2+x,y,1/2-z
1/2-x,1/2+y,1/2+z
1/2+x,-y,1/2+z
loop_
_atom_site_type_symbol
_atom_site_label
_atom_site_fract_x
_atom_site_fract_y
_atom_site_fract_z
Si Si1 0.500000 0.960088 0.445846
Si Si2 0.500000 0.471720 0.858897
Si Si3 0.829249 0.250000 0.824375
Si Si4 0.290946 0.916137 0.050418
Si Si5 0.500000 0.044674 0.044853
Si Si6 0.842060 0.330147 0.628063
Si Si7 0.500000 0.055310 0.705437
Si Si8 0.750000 0.612944 0.250000
O O1 0.369668 0.928356 0.459837
O O2 0.500000 0.975437 0.364180
O O3 0.500000 0.000000 0.500000
O O4 0.636798 0.445440 0.887908
O O5 0.500000 0.524758 0.877100
O O6 0.500000 0.473349 0.775620
O O7 0.750000 0.250000 0.750000
O O8 0.778100 0.292443 0.868744
O O9 0.000000 0.250000 0.815312
O O10 0.306365 0.863886 0.065426
O O11 0.363218 0.926472 0.975587
O O12 0.500000 0.000000 0.000000
O O13 0.844900 0.356942 0.700223
O O14 0.000000 0.310077 0.617706
O O15 0.357761 0.084729 0.702534
#
# Coordination Sequence:
#
# PCOD8297184 Si02
#       8
#     8   8   8  16   8  16   8   8
#     4  12  22  28  40  68  95 118 150 194 237 268
#     4  10  16  32  46  65  82 113 152 192 231 266
#     4  12  28  36  46  66  92 120 152 199 244 279
#     4  10  18  31  48  63  86 114 150 191 233 278
#     4   8  16  30  48  61  84 109 144 191 230 276
#     4  12  21  36  50  64  84 116 159 199 241 274
#     4  12  20  30  44  66  87 121 152 198 228 272
#     4  12  20  29  48  64  84 112 158 196 230 263
#
# _framework density 14.608758
#
# number of rings (size 3 to 8) (size 9 to 14) (size 15 to 20)
#    0.000    1.200    8.000    2.700    2.800    0.000 
#    0.000    0.000    0.000    0.000    0.000    0.000 
#    0.000    0.000    0.000    0.000    0.000    6.000 
#
# Total GULP energy -495716.769565 kJ/mol
# GULP energy per Si atom -12392.919239 kJ/mol
# Density = 1.457551 g / cm^3
# Si number density = 14.608758 Si / 1000 Ang^3
#
#
#
# Elastic Constant Matrix: (Units=GPa)
#
#
# Indices 1 2 3 4 5 6 
#
# 1 132.5548 39.3408 21.5437 0.0000 0.0000 0.0000
# 2 39.3408 85.0721 39.1388 0.0000 0.0000 0.0000
# 3 21.5437 39.1388 55.5407 0.0003 0.0000 0.0000
# 4 0.0000 0.0000 0.0003 23.2482 0.0000 0.0000
# 5 0.0000 0.0000 0.0000 0.0000 11.4271 0.0000
# 6 0.0000 0.0000 0.0000 0.0000 0.0000 26.6830
#
#
#
# Elastic Compliance Matrix: (Units=1/GPa)
#
#
# Indices 1 2 3 4 5 6 
#
# 1 0.008768 -0.003685 -0.000805 0.000000 0.000000 0.000000
# 2 -0.003685 0.018942 -0.011919 0.000000 0.000000 0.000000
# 3 -0.000805 -0.011919 0.026716 0.000000 0.000000 0.000000
# 4 0.000000 0.000000 0.000000 0.043014 0.000000 0.000000
# 5 0.000000 0.000000 0.000000 0.000000 0.087511 0.000000
# 6 0.000000 0.000000 0.000000 0.000000 0.000000 0.037477
#
#
# Mechanical properties :
#
#
# Convention : Reuss Voigt Hill
#
# Bulk Modulus (GPa) = 46.27492 52.57935 49.42713
# Shear Modulus (GPa) = 19.05131 23.81461 21.43296
#
# Velocity S-wave (km/s) = 3.61515 4.04190 3.83447
# Velocity P-wave (km/s) = 7.01218 7.60608 7.31516
#
# Compressibility (1/GPa) = 0.02160998
#
# Stress axis : x y z
#
# Youngs Moduli (GPa) = 114.04592 52.79198 37.43052
#
# Poissons Ratio (x) = 0.19452 0.03012
# Poissons Ratio (y) = 0.42022 0.44614
# Poissons Ratio (z) = 0.09176 0.62923
#
# Static dielectric constant tensor:
#      x y z
#    x 3.018370 0.000000 0.000000 
#    y 0.000000 2.948770 0.000000 
#    z 0.000000 0.000000 2.946480 
# 
# 
# High freq. dielectric constant tensor:
#      x y z
#    x 1.582980 0.000000 0.000000 
#    y 0.000000 1.531890 0.000000 
#    z 0.000000 0.000000 1.515750 
# 
# From -- ./inp_files/49460.got.cif
#   From: 2010.03.12/outbox.cif.g09.slc.cpg/sg74_25_cif.got.tgz:49460.got - 2010.04.16 15:46:19.
