data_PCOD8297405
_publ_section_title
;
Structure prediction by ZEFSAII (Michael W. Deem and Ramdas Pophale) SiO2 
 PCOD8297405
Probable space group: I M M A
;
_chemical_formula_sum "Si O2"
_cell_formula_units_Z 96
_cell_length_a 11.441514
_cell_length_b 18.536900
_cell_length_c 30.556268
_cell_angle_alpha 90.000000
_cell_angle_beta 90.000000
_cell_angle_gamma 90.000000
_cell_volume 6480.685018
_symmetry_space_group_name_H-M "I M M A"
_symmetry_group_IT_number 74
_symmetry_cell_setting 'orthorhombic'
loop_
_space_group_symop_operation_xyz
x,y,z
-x,1/2-y,z
x,-y,-z
-x,1/2+y,-z
-x,-y,-z
x,1/2+y,-z
-x,y,z
x,1/2-y,z
1/2+x,1/2+y,1/2+z
1/2-x,-y,1/2+z
1/2+x,1/2-y,1/2-z
1/2-x,y,1/2-z
1/2-x,1/2-y,1/2-z
1/2+x,y,1/2-z
1/2-x,1/2+y,1/2+z
1/2+x,-y,1/2+z
loop_
_atom_site_type_symbol
_atom_site_label
_atom_site_fract_x
_atom_site_fract_y
_atom_site_fract_z
Si Si1 0.636105 0.074393 0.411296
Si Si2 0.500000 0.334726 0.064517
Si Si3 0.864641 0.170104 0.004402
Si Si4 0.129435 0.166399 0.270490
Si Si5 0.304087 0.833065 0.868092
Si Si6 0.246620 0.450345 0.542899
Si Si7 0.500000 0.575255 0.022881
O O1 0.500000 0.060329 0.404110
O O2 0.663014 0.128678 0.450986
O O3 0.690065 0.115166 0.369228
O O4 0.698261 0.996675 0.417694
O O5 0.500000 0.250000 0.060192
O O6 0.613281 0.359342 0.091981
O O7 0.500000 0.365322 0.015505
O O8 0.805403 0.250000 0.005547
O O9 0.819277 0.122874 0.963835
O O10 0.000000 0.179957 0.997322
O O11 0.130973 0.250000 0.257354
O O12 0.250000 0.131208 0.250000
O O13 0.130664 0.155598 0.322515
O O14 0.000000 0.135334 0.254879
O O15 0.265566 0.750000 0.873467
O O16 0.251698 0.500000 0.500000
O O17 0.115215 0.422286 0.553248
O O18 0.500000 0.500000 0.000000
#
# Coordination Sequence:
#
# PCOD8297405 Si02
#       7
#    16   8  16  16  16  16   8
#     4  10  19  28  39  55  76 101 130 169 212 246
#     4  10  18  28  42  58  78 100 128 170 214 244
#     4   9  16  26  39  53  71  98 130 164 202 243
#     4   9  17  30  45  61  81 107 135 164 202 249
#     4  10  18  28  42  59  79 101 129 166 208 248
#     4   9  17  28  38  51  72  97 129 164 204 246
#     4  10  18  26  38  54  70  96 130 162 202 246
#
# _framework density 14.813249000000001
#
# number of rings (size 3 to 8) (size 9 to 14) (size 15 to 20)
#    0.000    2.500    0.833    4.000    0.000    5.667 
#    0.000    1.667    0.000    0.000    0.000    0.000 
#    0.000    0.000    0.000    0.000    0.000    0.833 
#
# Total GULP energy -594633.454593 kJ/mol
# GULP energy per Si atom -12388.196971 kJ/mol
# Density = 1.477953 g / cm^3
# Si number density = 14.813249 Si / 1000 Ang^3
#
#
#
# Elastic Constant Matrix: (Units=GPa)
#
#
# Indices 1 2 3 4 5 6 
#
# 1 99.5030 29.7254 35.3937 0.0000 0.0000 0.0000
# 2 29.7254 49.3536 9.3710 0.0000 0.0000 0.0000
# 3 35.3937 9.3710 18.1830 0.0000 0.0000 0.0000
# 4 0.0000 0.0000 0.0000 10.3114 0.0000 0.0000
# 5 0.0000 0.0000 0.0000 0.0000 15.5938 0.0000
# 6 0.0000 0.0000 0.0000 0.0000 0.0000 20.3536
#
#
#
# Elastic Compliance Matrix: (Units=1/GPa)
#
#
# Indices 1 2 3 4 5 6 
#
# 1 0.036172 -0.009330 -0.065602 0.000000 0.000000 0.000000
# 2 -0.009330 0.024866 0.005346 0.000000 0.000000 0.000000
# 3 -0.065602 0.005346 0.179937 0.000000 0.000000 0.000000
# 4 0.000000 0.000000 0.000000 0.096980 0.000000 0.000000
# 5 0.000000 0.000000 0.000000 0.000000 0.064128 0.000000
# 6 0.000000 0.000000 0.000000 0.000000 0.000000 0.049131
#
#
# Mechanical properties :
#
#
# Convention : Reuss Voigt Hill
#
# Bulk Modulus (GPa) = 9.82278 35.11330 22.46804
# Shear Modulus (GPa) = 8.00870 15.42172 11.71521
#
# Velocity S-wave (km/s) = 2.32770 3.23007 2.81527
# Velocity P-wave (km/s) = 3.72421 6.13731 5.07623
#
# Compressibility (1/GPa) = 0.10180415
#
# Stress axis : x y z
#
# Youngs Moduli (GPa) = 27.64564 40.21497 5.55750
#
# Poissons Ratio (x) = 0.37521 0.36458
# Poissons Ratio (y) = 0.25794 -0.02971
# Poissons Ratio (z) = 1.81360 -0.21500
#
# Static dielectric constant tensor:
#      x y z
#    x 3.961380 0.000000 0.000000 
#    y 0.000000 2.779930 0.000000 
#    z 0.000000 0.000000 2.459950 
# 
# 
# High freq. dielectric constant tensor:
#      x y z
#    x 1.594030 0.000000 0.000000 
#    y 0.000000 1.535350 0.000000 
#    z 0.000000 0.000000 1.506190 
# 
# From -- ./inp_files/66138.got.cif
#   From: 2010.03.12/outbox.cif.g09.slc.cpg/sg74_34_cif.got.tgz:66138.got - 2010.04.16 15:46:19.
