data_PCOD8297627
_publ_section_title
;
Structure prediction by ZEFSAII (Michael W. Deem and Ramdas Pophale) SiO2 
 PCOD8297627
Probable space group: I M M A
;
_chemical_formula_sum "Si O2"
_cell_formula_units_Z 112
_cell_length_a 14.001253
_cell_length_b 24.673937
_cell_length_c 17.374184
_cell_angle_alpha 90.000000
_cell_angle_beta 90.000000
_cell_angle_gamma 90.000000
_cell_volume 6002.190448
_symmetry_space_group_name_H-M "I M M A"
_symmetry_group_IT_number 74
_symmetry_cell_setting 'orthorhombic'
loop_
_space_group_symop_operation_xyz
x,y,z
-x,1/2-y,z
x,-y,-z
-x,1/2+y,-z
-x,-y,-z
x,1/2+y,-z
-x,y,z
x,1/2-y,z
1/2+x,1/2+y,1/2+z
1/2-x,-y,1/2+z
1/2+x,1/2-y,1/2-z
1/2-x,y,1/2-z
1/2-x,1/2-y,1/2-z
1/2+x,y,1/2-z
1/2-x,1/2+y,1/2+z
1/2+x,-y,1/2+z
loop_
_atom_site_type_symbol
_atom_site_label
_atom_site_fract_x
_atom_site_fract_y
_atom_site_fract_z
Si Si1 0.500000 0.185848 0.890443
Si Si2 0.830824 0.878731 0.460664
Si Si3 0.891201 0.987946 0.395512
Si Si4 0.192711 0.131646 0.824908
Si Si5 0.000000 0.186120 0.787014
Si Si6 0.890039 0.403743 0.217622
Si Si7 0.104689 0.470141 0.773237
Si Si8 0.793718 0.899921 0.627658
O O1 0.500000 0.250000 0.897304
O O2 0.588774 0.161884 0.934619
O O3 0.500000 0.167251 0.801680
O O4 0.859990 0.942857 0.458037
O O5 0.742481 0.861617 0.406941
O O6 0.809220 0.865635 0.550013
O O7 0.891873 0.953903 0.316429
O O8 0.000000 0.009469 0.412089
O O9 0.815548 0.036984 0.390968
O O10 0.250000 0.154179 0.750000
O O11 0.092827 0.162739 0.829155
O O12 0.179997 0.066621 0.817852
O O13 0.000000 0.250000 0.795624
O O14 0.870971 0.467460 0.219523
O O15 0.863222 0.380591 0.302370
O O16 0.815721 0.385505 0.152065
O O17 0.000000 0.388473 0.197604
O O18 0.000000 0.457658 0.807210
#
# Coordination Sequence:
#
# PCOD8297627 Si02
#       8
#     8  16  16  16   8  16  16  16
#     4  11  24  40  57  81 110 137 178 234 281 316
#     4  12  23  34  55  82 112 140 179 227 275 325
#     4  10  18  29  50  79 112 148 182 224 260 307
#     4  12  21  34  55  78 103 145 184 224 269 319
#     4  11  24  42  58  77 103 139 189 232 270 322
#     4   9  19  35  53  76 111 152 183 216 256 314
#     4   9  16  29  49  70 105 148 188 215 248 302
#     4  10  21  33  51  83 114 144 183 217 267 319
#
# _framework density 18.659855
#
# number of rings (size 3 to 8) (size 9 to 14) (size 15 to 20)
#    0.000    1.571    4.286    2.571    4.000    1.429 
#    1.286    0.000    0.000    2.571    0.000    2.000 
#    0.000    0.000    0.000    0.000    0.000    0.000 
#
# Total GULP energy -694042.619776 kJ/mol
# GULP energy per Si atom -12393.618210 kJ/mol
# Density = 1.861738 g / cm^3
# Si number density = 18.659855 Si / 1000 Ang^3
#
#
#
# Elastic Constant Matrix: (Units=GPa)
#
#
# Indices 1 2 3 4 5 6 
#
# 1 142.7507 21.9497 62.2068 0.0000 0.0000 0.0000
# 2 21.9497 23.4616 22.5554 0.0000 0.0000 0.0000
# 3 62.2068 22.5554 120.3053 0.0001 0.0000 0.0000
# 4 0.0000 0.0000 0.0001 12.4332 0.0000 0.0000
# 5 0.0000 0.0000 0.0000 0.0000 27.8235 0.0000
# 6 0.0000 0.0000 0.0000 0.0000 0.0000 8.0198
#
#
#
# Elastic Compliance Matrix: (Units=1/GPa)
#
#
# Indices 1 2 3 4 5 6 
#
# 1 0.009516 -0.005090 -0.003966 0.000000 0.000000 0.000000
# 2 -0.005090 0.054717 -0.007627 0.000000 0.000000 0.000000
# 3 -0.003966 -0.007627 0.011793 0.000000 0.000000 0.000000
# 4 0.000000 0.000000 0.000000 0.080430 0.000000 0.000000
# 5 0.000000 0.000000 0.000000 0.000000 0.035941 0.000000
# 6 0.000000 0.000000 0.000000 0.000000 0.000000 0.124692
#
#
# Mechanical properties :
#
#
# Convention : Reuss Voigt Hill
#
# Bulk Modulus (GPa) = 23.44101 55.54903 39.49502
# Shear Modulus (GPa) = 13.71086 21.64236 17.67661
#
# Velocity S-wave (km/s) = 2.71362 3.40933 3.08117
# Velocity P-wave (km/s) = 4.73369 6.73290 5.81978
#
# Compressibility (1/GPa) = 0.04266028
#
# Stress axis : x y z
#
# Youngs Moduli (GPa) = 105.08314 18.27586 84.79624
#
# Poissons Ratio (x) = 0.09302 0.33633
# Poissons Ratio (y) = 0.53486 0.64672
# Poissons Ratio (z) = 0.41680 0.13939
#
# Static dielectric constant tensor:
#      x y z
#    x 3.514460 0.000000 0.000000 
#    y 0.000000 2.950130 0.000000 
#    z 0.000000 0.000000 3.441730 
# 
# 
# High freq. dielectric constant tensor:
#      x y z
#    x 1.739830 0.000000 0.000000 
#    y 0.000000 1.668910 0.000000 
#    z 0.000000 0.000000 1.712310 
# 
# From -- ./inp_files/32993.got.cif
#   From: 2010.03.12/outbox.cif.g09.slc.cpg/sg74_17_cif.got.tgz:32993.got - 2010.04.16 15:46:19.
