data_PCOD8297697
_publ_section_title
;
Structure prediction by ZEFSAII (Michael W. Deem and Ramdas Pophale) SiO2 
 PCOD8297697
Probable space group: I M M A
;
_chemical_formula_sum "Si O2"
_cell_formula_units_Z 56
_cell_length_a 8.884962
_cell_length_b 17.747673
_cell_length_c 18.467279
_cell_angle_alpha 90.000000
_cell_angle_beta 90.000000
_cell_angle_gamma 90.000000
_cell_volume 2912.057214
_symmetry_space_group_name_H-M "I M M A"
_symmetry_group_IT_number 74
_symmetry_cell_setting 'orthorhombic'
loop_
_space_group_symop_operation_xyz
x,y,z
-x,1/2-y,z
x,-y,-z
-x,1/2+y,-z
-x,-y,-z
x,1/2+y,-z
-x,y,z
x,1/2-y,z
1/2+x,1/2+y,1/2+z
1/2-x,-y,1/2+z
1/2+x,1/2-y,1/2-z
1/2-x,y,1/2-z
1/2-x,1/2-y,1/2-z
1/2+x,y,1/2-z
1/2-x,1/2+y,1/2+z
1/2+x,-y,1/2+z
loop_
_atom_site_type_symbol
_atom_site_label
_atom_site_fract_x
_atom_site_fract_y
_atom_site_fract_z
Si Si1 0.678417 0.750000 0.669683
Si Si2 0.829480 0.393451 0.324811
Si Si3 0.329536 0.466666 0.927683
Si Si4 0.677922 0.836022 0.173059
O O1 0.500000 0.750000 0.669297
O O2 0.750000 0.750000 0.750000
O O3 0.742104 0.673949 0.632257
O O4 0.750000 0.411965 0.250000
O O5 0.822426 0.469057 0.368867
O O6 0.000000 0.367303 0.310449
O O7 0.500000 0.445858 0.949949
O O8 0.258216 0.391212 0.890857
O O9 0.246798 0.500000 0.000000
O O10 0.500000 0.847668 0.181384
O O11 0.718929 0.750000 0.151920
O O12 0.750000 0.857880 0.250000
#
# Coordination Sequence:
#
# PCOD8297697 Si02
#       4
#     8  16  16  16
#     4  10  18  30  48  70  98 124 159 202 241 288
#     4  10  18  30  50  73  98 129 167 206 248 291
#     4   9  18  32  48  73 105 131 165 209 249 298
#     4   9  17  31  53  78 101 130 168 211 256 297
#
# _framework density 19.230391999999998
#
# number of rings (size 3 to 8) (size 9 to 14) (size 15 to 20)
#    0.000    2.571    0.000    4.714    0.000    0.000 
#    2.571    1.429    0.000    7.714    0.000    0.000 
#    0.000    0.000    0.000    0.000    0.000    0.000 
#
# Total GULP energy -346897.827329 kJ/mol
# GULP energy per Si atom -12389.208119 kJ/mol
# Density = 1.918662 g / cm^3
# Si number density = 19.230392 Si / 1000 Ang^3
#
#
#
# Elastic Constant Matrix: (Units=GPa)
#
#
# Indices 1 2 3 4 5 6 
#
# 1 86.2646 32.7788 24.4462 0.0000 0.0000 0.0000
# 2 32.7788 128.4724 65.5486 0.0000 0.0000 0.0000
# 3 24.4462 65.5486 108.4475 0.0000 0.0000 0.0000
# 4 0.0000 0.0000 0.0000 -11.6061 0.0000 0.0000
# 5 0.0000 0.0000 0.0000 0.0000 16.7344 0.0000
# 6 0.0000 0.0000 0.0000 0.0000 0.0000 -65.2503
#
#
#
# Elastic Compliance Matrix: (Units=1/GPa)
#
#
# Indices 1 2 3 4 5 6 
#
# 1 0.012969 -0.002628 -0.001335 0.000000 0.000000 0.000000
# 2 -0.002628 0.011787 -0.006532 0.000000 0.000000 0.000000
# 3 -0.001335 -0.006532 0.013470 0.000000 0.000000 0.000000
# 4 0.000000 0.000000 0.000000 -0.086161 0.000000 0.000000
# 5 0.000000 0.000000 0.000000 0.000000 0.059757 0.000000
# 6 0.000000 0.000000 0.000000 0.000000 0.000000 -0.015326
#
#
# Mechanical properties :
#
#
# Convention : Reuss Voigt Hill
#
# Bulk Modulus (GPa) = 58.01708 63.19242 60.60475
# Shear Modulus (GPa) = 215.22378 1.33632 108.28005
#
# Velocity S-wave (km/s) = 10.59063 0.83451 7.51192
# Velocity P-wave (km/s) = 13.40834 5.81898 10.33548
#
# Compressibility (1/GPa) = 0.01723630
#
# Stress axis : x y z
#
# Youngs Moduli (GPa) = 77.10634 84.83957 74.23814
#
# Poissons Ratio (x) = 0.22293 0.09912
# Poissons Ratio (y) = 0.20261 0.48492
# Poissons Ratio (z) = 0.10295 0.55417
#
# Static dielectric constant tensor:
#      x y z
#    x 3.431470 0.000000 0.000000 
#    y 0.000000 4.205220 0.000000 
#    z 0.000000 0.000000 3.413900 
# 
# 
# High freq. dielectric constant tensor:
#      x y z
#    x 1.718360 0.000000 0.000000 
#    y 0.000000 1.774200 0.000000 
#    z 0.000000 0.000000 1.719860 
# 
# From -- ./inp_files/28535.got.cif
#   From: 2010.03.12/outbox.cif.g09.slc.cpg/sg74_15_cif.got.tgz:28535.got - 2010.04.16 15:46:19.
