data_PCOD8297353
_publ_section_title
;
Structure prediction by ZEFSAII (Michael W. Deem and Ramdas Pophale) SiO2 
 PCOD8297353
Probable space group: I M M A
;
_chemical_formula_sum "Si O2"
_cell_formula_units_Z 128
_cell_length_a 16.903726
_cell_length_b 18.499995
_cell_length_c 22.008998
_cell_angle_alpha 90.000000
_cell_angle_beta 90.000000
_cell_angle_gamma 90.000000
_cell_volume 6882.628467
_symmetry_space_group_name_H-M "I M M A"
_symmetry_group_IT_number 74
_symmetry_cell_setting 'orthorhombic'
loop_
_space_group_symop_operation_xyz
x,y,z
-x,1/2-y,z
x,-y,-z
-x,1/2+y,-z
-x,-y,-z
x,1/2+y,-z
-x,y,z
x,1/2-y,z
1/2+x,1/2+y,1/2+z
1/2-x,-y,1/2+z
1/2+x,1/2-y,1/2-z
1/2-x,y,1/2-z
1/2-x,1/2-y,1/2-z
1/2+x,y,1/2-z
1/2-x,1/2+y,1/2+z
1/2+x,-y,1/2+z
loop_
_atom_site_type_symbol
_atom_site_label
_atom_site_fract_x
_atom_site_fract_y
_atom_site_fract_z
Si Si1 0.252514 0.615451 0.568348
Si Si2 0.805595 0.327901 0.553110
Si Si3 0.911536 0.335369 0.019759
Si Si4 0.590934 0.535466 0.786597
Si Si5 0.818871 0.475455 0.607293
Si Si6 0.810273 0.565548 0.201493
Si Si7 0.689908 0.169105 0.195144
Si Si8 0.635967 0.828941 0.389617
O O1 0.213562 0.667216 0.518085
O O2 0.347958 0.616809 0.557345
O O3 0.211294 0.536498 0.559637
O O4 0.235823 0.645547 0.634810
O O5 0.850992 0.250000 0.562836
O O6 0.849187 0.401129 0.575381
O O7 0.727553 0.324523 0.593377
O O8 0.890052 0.250000 0.024867
O O9 0.000000 0.350603 0.045161
O O10 0.910431 0.359019 0.948563
O O11 0.500000 0.528656 0.769679
O O12 0.606685 0.499720 0.852379
O O13 0.640839 0.497217 0.733965
O O14 0.614662 0.619263 0.790942
O O15 0.741240 0.469983 0.648875
O O16 0.750000 0.603352 0.250000
O O17 0.871877 0.621734 0.170748
O O18 0.657305 0.250000 0.187912
O O19 0.750000 0.162390 0.250000
O O20 0.602666 0.750000 0.372095
#
# Coordination Sequence:
#
# PCOD8297353 Si02
#       8
#    16  16  16  16  16  16  16  16
#     4  10  17  30  52  76  98 127 169 207 242 289
#     4   9  16  28  50  76  97 123 162 204 244 287
#     4   9  17  29  46  72 108 141 163 193 245 305
#     4  10  20  34  51  71  98 131 164 202 250 299
#     4   9  18  32  51  73  99 129 162 206 251 290
#     4   9  17  31  49  69  96 132 171 208 245 285
#     4  10  20  35  55  76  99 128 163 205 248 291
#     4   8  15  27  45  71 100 130 165 204 242 280
#
# _framework density 18.597546000000001
#
# number of rings (size 3 to 8) (size 9 to 14) (size 15 to 20)
#    0.000    2.750    0.000    4.125    0.000    1.000 
#    0.000    4.375    0.000   17.625    0.000    0.000 
#    0.000    0.000    0.000    0.000    0.000    0.000 
#
# Total GULP energy -792932.704851 kJ/mol
# GULP energy per Si atom -12389.573513 kJ/mol
# Density = 1.855522 g / cm^3
# Si number density = 18.597546 Si / 1000 Ang^3
#
#
#
# Elastic Constant Matrix: (Units=GPa)
#
#
# Indices 1 2 3 4 5 6 
#
# 1 51.9436 22.6097 21.4255 0.0000 0.0000 0.0000
# 2 22.6097 128.1334 49.6032 0.0000 0.0000 0.0000
# 3 21.4255 49.6032 81.4825 0.0000 0.0000 0.0000
# 4 0.0000 0.0000 0.0000 24.2923 0.0000 0.0000
# 5 0.0000 0.0000 0.0000 0.0000 16.0361 0.0000
# 6 0.0000 0.0000 0.0000 0.0000 0.0000 8.6563
#
#
#
# Elastic Compliance Matrix: (Units=1/GPa)
#
#
# Indices 1 2 3 4 5 6 
#
# 1 0.022038 -0.002153 -0.004484 0.000000 0.000000 0.000000
# 2 -0.002153 0.010421 -0.005778 0.000000 0.000000 0.000000
# 3 -0.004484 -0.005778 0.016969 0.000000 0.000000 0.000000
# 4 0.000000 0.000000 0.000000 0.041165 0.000000 0.000000
# 5 0.000000 0.000000 0.000000 0.000000 0.062359 0.000000
# 6 0.000000 0.000000 0.000000 0.000000 0.000000 0.115523
#
#
# Mechanical properties :
#
#
# Convention : Reuss Voigt Hill
#
# Bulk Modulus (GPa) = 40.65295 49.87070 45.26183
# Shear Modulus (GPa) = 16.58343 20.99166 18.78755
#
# Velocity S-wave (km/s) = 2.98937 3.36331 3.18184
# Velocity P-wave (km/s) = 5.81566 6.47738 6.15542
#
# Compressibility (1/GPa) = 0.02459846
#
# Stress axis : x y z
#
# Youngs Moduli (GPa) = 45.37530 95.96068 58.93101
#
# Poissons Ratio (x) = 0.20658 0.26427
# Poissons Ratio (y) = 0.09768 0.34049
# Poissons Ratio (z) = 0.20348 0.55444
#
# Static dielectric constant tensor:
#      x y z
#    x 2.990740 0.000000 0.000000 
#    y 0.000000 3.940110 0.000000 
#    z 0.000000 0.000000 3.492450 
# 
# 
# High freq. dielectric constant tensor:
#      x y z
#    x 1.671830 0.000000 0.000000 
#    y 0.000000 1.726610 0.000000 
#    z 0.000000 0.000000 1.723660 
# 
# From -- ./inp_files/61157.got.cif
#   From: 2010.03.12/outbox.cif.g09.slc.cpg/sg74_31_cif.got.tgz:61157.got - 2010.04.16 15:46:19.
