data_PCOD8297773
_publ_section_title
;
Structure prediction by ZEFSAII (Michael W. Deem and Ramdas Pophale) SiO2 
 PCOD8297773
Probable space group: I M M A
;
_chemical_formula_sum "Si O2"
_cell_formula_units_Z 64
_cell_length_a 20.677939
_cell_length_b 8.497316
_cell_length_c 18.207111
_cell_angle_alpha 90.000000
_cell_angle_beta 90.000000
_cell_angle_gamma 90.000000
_cell_volume 3199.116523
_symmetry_space_group_name_H-M "I M M A"
_symmetry_group_IT_number 74
_symmetry_cell_setting 'orthorhombic'
loop_
_space_group_symop_operation_xyz
x,y,z
-x,1/2-y,z
x,-y,-z
-x,1/2+y,-z
-x,-y,-z
x,1/2+y,-z
-x,y,z
x,1/2-y,z
1/2+x,1/2+y,1/2+z
1/2-x,-y,1/2+z
1/2+x,1/2-y,1/2-z
1/2-x,y,1/2-z
1/2-x,1/2-y,1/2-z
1/2+x,y,1/2-z
1/2-x,1/2+y,1/2+z
1/2+x,-y,1/2+z
loop_
_atom_site_type_symbol
_atom_site_label
_atom_site_fract_x
_atom_site_fract_y
_atom_site_fract_z
Si Si1 0.257126 0.435821 0.077813
Si Si2 0.000000 0.933411 0.844221
Si Si3 0.869487 0.565669 0.147123
Si Si4 0.000000 0.432987 0.684804
Si Si5 0.867165 0.934951 0.691144
O O1 0.248550 0.250000 0.075681
O O2 0.189282 0.515444 0.096099
O O3 0.309635 0.487250 0.137976
O O4 0.281772 0.500000 0.000000
O O5 0.000000 0.750000 0.823759
O O6 0.933786 0.979519 0.885868
O O7 0.000000 0.040664 0.771765
O O8 0.880126 0.750000 0.141780
O O9 0.855640 0.518298 0.231118
O O10 0.934775 0.512578 0.653057
O O11 0.000000 0.250000 0.665124
O O12 0.867870 0.750000 0.705353
#
# Coordination Sequence:
#
# PCOD8297773 Si02
#       5
#    16   8  16   8  16
#     4  11  24  40  57  79 110 148 187 228 275 326
#     4  10  18  32  55  82 113 144 179 224 273 322
#     4  11  21  35  58  86 114 144 182 226 273 325
#     4  10  18  30  53  84 113 140 178 226 275 324
#     4  10  20  36  58  83 112 145 183 226 274 326
#
# _framework density 20.005523
#
# number of rings (size 3 to 8) (size 9 to 14) (size 15 to 20)
#    0.000    1.500    0.000    9.750    0.000    7.000 
#    0.000    1.250    0.000    0.000    0.000    0.000 
#    0.000    0.000    0.000    0.000    0.000    0.000 
#
# Total GULP energy -396824.826446 kJ/mol
# GULP energy per Si atom -12400.775826 kJ/mol
# Density = 1.995999 g / cm^3
# Si number density = 20.005523 Si / 1000 Ang^3
#
#
#
# Elastic Constant Matrix: (Units=GPa)
#
#
# Indices 1 2 3 4 5 6 
#
# 1 111.4308 20.7375 8.6661 0.0000 0.0000 0.0000
# 2 20.7375 82.5945 11.7528 0.0000 0.0000 0.0000
# 3 8.6661 11.7528 40.8244 0.0000 0.0000 0.0000
# 4 0.0000 0.0000 0.0000 26.8263 0.0000 0.0000
# 5 0.0000 0.0000 0.0000 0.0000 10.1527 0.0000
# 6 0.0000 0.0000 0.0000 0.0000 0.0000 30.3861
#
#
#
# Elastic Compliance Matrix: (Units=1/GPa)
#
#
# Indices 1 2 3 4 5 6 
#
# 1 0.009489 -0.002185 -0.001385 0.000000 0.000000 0.000000
# 2 -0.002185 0.013128 -0.003315 0.000000 0.000000 0.000000
# 3 -0.001385 -0.003315 0.025744 0.000000 0.000000 0.000000
# 4 0.000000 0.000000 0.000000 0.037277 0.000000 0.000000
# 5 0.000000 0.000000 0.000000 0.000000 0.098496 0.000000
# 6 0.000000 0.000000 0.000000 0.000000 0.000000 0.032910
#
#
# Mechanical properties :
#
#
# Convention : Reuss Voigt Hill
#
# Bulk Modulus (GPa) = 28.91141 35.24028 32.07585
# Shear Modulus (GPa) = 20.63186 26.38589 23.50888
#
# Velocity S-wave (km/s) = 3.21488 3.63565 3.43172
# Velocity P-wave (km/s) = 5.31636 5.93948 5.63654
#
# Compressibility (1/GPa) = 0.03458842
#
# Stress axis : x y z
#
# Youngs Moduli (GPa) = 105.38977 76.17431 38.84447
#
# Poissons Ratio (x) = 0.16646 0.05380
# Poissons Ratio (y) = 0.23030 0.12879
# Poissons Ratio (z) = 0.14598 0.25255
#
# Static dielectric constant tensor:
#      x y z
#    x 4.370590 0.000000 0.000000 
#    y 0.000000 3.679160 0.000000 
#    z 0.000000 0.000000 3.025700 
# 
# 
# High freq. dielectric constant tensor:
#      x y z
#    x 1.806570 0.000000 0.000000 
#    y 0.000000 1.797550 0.000000 
#    z 0.000000 0.000000 1.735890 
# 
# From -- ./inp_files/39139.got.cif
#   From: 2010.03.12/outbox.cif.g09.slc.cpg/sg74_20_cif.got.tgz:39139.got - 2010.04.16 15:46:19.
