data_PCOD8297730
_publ_section_title
;
Structure prediction by ZEFSAII (Michael W. Deem and Ramdas Pophale) SiO2 
 PCOD8297730
Probable space group: I M M A
;
_chemical_formula_sum "Si O2"
_cell_formula_units_Z 104
_cell_length_a 24.528998
_cell_length_b 8.892488
_cell_length_c 25.209257
_cell_angle_alpha 90.000000
_cell_angle_beta 90.000000
_cell_angle_gamma 90.000000
_cell_volume 5498.739445
_symmetry_space_group_name_H-M "I M M A"
_symmetry_group_IT_number 74
_symmetry_cell_setting 'orthorhombic'
loop_
_space_group_symop_operation_xyz
x,y,z
-x,1/2-y,z
x,-y,-z
-x,1/2+y,-z
-x,-y,-z
x,1/2+y,-z
-x,y,z
x,1/2-y,z
1/2+x,1/2+y,1/2+z
1/2-x,-y,1/2+z
1/2+x,1/2-y,1/2-z
1/2-x,y,1/2-z
1/2-x,1/2-y,1/2-z
1/2+x,y,1/2-z
1/2-x,1/2+y,1/2+z
1/2+x,-y,1/2+z
loop_
_atom_site_type_symbol
_atom_site_label
_atom_site_fract_x
_atom_site_fract_y
_atom_site_fract_z
Si Si1 0.397230 0.582152 0.447061
Si Si2 0.563043 0.927267 0.735795
Si Si3 0.500000 0.572780 0.558286
Si Si4 0.937534 0.426834 0.554404
Si Si5 0.150969 0.078669 0.839279
Si Si6 0.236061 0.917376 0.310963
Si Si7 0.116685 0.929365 0.335900
O O1 0.376228 0.500000 0.500000
O O2 0.416195 0.750000 0.463397
O O3 0.445457 0.492648 0.416079
O O4 0.351594 0.584462 0.402823
O O5 0.500000 0.965168 0.721181
O O6 0.571951 0.750000 0.739320
O O7 0.602884 0.990532 0.690280
O O8 0.576397 0.998962 0.792801
O O9 0.500000 0.750000 0.560555
O O10 0.500000 0.500000 0.500000
O O11 0.914700 0.500000 0.500000
O O12 0.933105 0.250000 0.547290
O O13 0.902131 0.479713 0.605220
O O14 0.000000 0.477415 0.564025
O O15 0.150757 0.250000 0.816139
O O16 0.210216 0.998942 0.833628
O O17 0.232558 0.750000 0.335282
O O18 0.250000 0.912090 0.250000
O O19 0.177987 0.994251 0.324868
O O20 0.113946 0.750000 0.329081
#
# Coordination Sequence:
#
# PCOD8297730 Si02
#       7
#    16  16   8  16  16  16  16
#     4  10  20  34  52  74 101 134 175 216 262 314
#     4  11  24  37  51  79 115 144 172 217 277 325
#     4  10  18  30  50  72  98 130 168 210 257 308
#     4   9  18  32  52  80 112 147 184 221 266 319
#     4  10  21  37  57  79 103 139 183 221 260 320
#     4   9  16  32  58  82 103 134 180 228 268 308
#     4  10  19  35  60  83 107 142 186 227 265 322
#
# _framework density 18.913425
#
# number of rings (size 3 to 8) (size 9 to 14) (size 15 to 20)
#    0.000    2.154    1.538    3.000    1.077    3.692 
#    0.000    3.846    0.000    0.000    0.000    0.000 
#    0.000    0.000    0.000    0.000    0.000    0.000 
#
# Total GULP energy -644218.753204 kJ/mol
# GULP energy per Si atom -12388.822177 kJ/mol
# Density = 1.887038 g / cm^3
# Si number density = 18.913425 Si / 1000 Ang^3
#
#
#
# Elastic Constant Matrix: (Units=GPa)
#
#
# Indices 1 2 3 4 5 6 
#
# 1 130.3016 33.9667 50.2829 0.0000 0.0000 0.0000
# 2 33.9667 77.2623 32.1021 0.0000 0.0000 0.0000
# 3 50.2829 32.1021 110.8457 0.0000 0.0000 0.0000
# 4 0.0000 0.0000 0.0000 26.3978 0.0000 0.0000
# 5 0.0000 0.0000 0.0000 0.0000 32.1633 0.0000
# 6 0.0000 0.0000 0.0000 0.0000 0.0000 2.8051
#
#
#
# Elastic Compliance Matrix: (Units=1/GPa)
#
#
# Indices 1 2 3 4 5 6 
#
# 1 0.009809 -0.002800 -0.003638 0.000000 0.000000 0.000000
# 2 -0.002800 0.015513 -0.003222 0.000000 0.000000 0.000000
# 3 -0.003638 -0.003222 0.011605 0.000000 0.000000 0.000000
# 4 0.000000 0.000000 0.000000 0.037882 0.000000 0.000000
# 5 0.000000 0.000000 0.000000 0.000000 0.031091 0.000000
# 6 0.000000 0.000000 0.000000 0.000000 0.000000 0.356494
#
#
# Mechanical properties :
#
#
# Convention : Reuss Voigt Hill
#
# Bulk Modulus (GPa) = 56.80395 61.23476 59.01936
# Shear Modulus (GPa) = 10.25464 25.74377 17.99921
#
# Velocity S-wave (km/s) = 2.33102 3.69336 3.08825
# Velocity P-wave (km/s) = 6.11095 7.11579 6.63243
#
# Compressibility (1/GPa) = 0.01760441
#
# Stress axis : x y z
#
# Youngs Moduli (GPa) = 101.95181 64.46238 86.16758
#
# Poissons Ratio (x) = 0.18052 0.31352
# Poissons Ratio (y) = 0.28550 0.27766
# Poissons Ratio (z) = 0.37095 0.20772
#
# Static dielectric constant tensor:
#      x y z
#    x 4.069280 0.000000 0.000000 
#    y 0.000000 3.366090 0.000000 
#    z 0.000000 0.000000 1.443590 
# 
# 
# High freq. dielectric constant tensor:
#      x y z
#    x 1.734950 0.000000 0.000000 
#    y 0.000000 1.713290 0.000000 
#    z 0.000000 0.000000 1.735670 
# 
# From -- ./inp_files/68656.got.cif
#   From: 2010.03.12/outbox.cif.g09.slc.cpg/sg74_35_cif.got.tgz:68656.got - 2010.04.16 15:46:19.
