data_PCOD8297780
_publ_section_title
;
Structure prediction by ZEFSAII (Michael W. Deem and Ramdas Pophale) SiO2 
 PCOD8297780
Probable space group: I M M A
;
_chemical_formula_sum "Si O2"
_cell_formula_units_Z 112
_cell_length_a 22.479518
_cell_length_b 13.898070
_cell_length_c 16.887188
_cell_angle_alpha 90.000000
_cell_angle_beta 90.000000
_cell_angle_gamma 90.000000
_cell_volume 5275.927609
_symmetry_space_group_name_H-M "I M M A"
_symmetry_group_IT_number 74
_symmetry_cell_setting 'orthorhombic'
loop_
_space_group_symop_operation_xyz
x,y,z
-x,1/2-y,z
x,-y,-z
-x,1/2+y,-z
-x,-y,-z
x,1/2+y,-z
-x,y,z
x,1/2-y,z
1/2+x,1/2+y,1/2+z
1/2-x,-y,1/2+z
1/2+x,1/2-y,1/2-z
1/2-x,y,1/2-z
1/2-x,1/2-y,1/2-z
1/2+x,y,1/2-z
1/2-x,1/2+y,1/2+z
1/2+x,-y,1/2+z
loop_
_atom_site_type_symbol
_atom_site_label
_atom_site_fract_x
_atom_site_fract_y
_atom_site_fract_z
Si Si1 0.348238 0.023481 0.409184
Si Si2 0.620987 0.560712 0.846096
Si Si3 0.234531 0.856615 0.100590
Si Si4 0.565901 0.642819 0.994067
Si Si5 0.862157 0.354591 0.650657
Si Si6 0.068854 0.641034 0.805853
Si Si7 0.736872 0.638258 0.924501
O O1 0.407856 0.059742 0.366725
O O2 0.302111 0.110483 0.393453
O O3 0.363839 0.000000 0.500000
O O4 0.318237 0.927508 0.370886
O O5 0.578255 0.569321 0.922443
O O6 0.614137 0.452310 0.808452
O O7 0.603001 0.634096 0.777706
O O8 0.688285 0.578099 0.875650
O O9 0.206294 0.750000 0.093553
O O10 0.290644 0.855187 0.159402
O O11 0.262164 0.891155 0.016826
O O12 0.500000 0.621610 0.029174
O O13 0.568535 0.750000 0.957288
O O14 0.616904 0.636092 0.059717
O O15 0.885229 0.250000 0.684809
O O16 0.077694 0.750000 0.838287
O O17 0.000000 0.618197 0.791602
O O18 0.723548 0.750000 0.911443
#
# Coordination Sequence:
#
# PCOD8297780 Si02
#       7
#    16  16  16  16  16  16  16
#     4  10  21  39  66  92 117 152 195 251 317 380
#     4  12  21  34  58  85 127 171 210 245 302 365
#     4   9  17  33  57  88 122 155 198 254 308 354
#     4  10  20  32  50  80 118 167 222 260 291 344
#     4  10  20  34  53  80 121 169 217 264 300 338
#     4  11  26  46  65  90 126 163 202 254 313 374
#     4  10  18  30  55  91 124 155 194 248 303 360
#
# _framework density 21.228494999999999
#
# number of rings (size 3 to 8) (size 9 to 14) (size 15 to 20)
#    0.000    1.714    2.857    2.571    0.000    4.286 
#    0.000    2.143    0.000    3.000    0.000    0.000 
#    0.000    0.000    0.000    0.000    0.000    0.000 
#
# Total GULP energy -693938.116187 kJ/mol
# GULP energy per Si atom -12391.752075 kJ/mol
# Density = 2.118018 g / cm^3
# Si number density = 21.228495 Si / 1000 Ang^3
#
#
#
# Elastic Constant Matrix: (Units=GPa)
#
#
# Indices 1 2 3 4 5 6 
#
# 1 77.9947 34.2930 28.3080 0.0000 0.0000 0.0000
# 2 34.2930 125.2361 4.9646 0.0000 0.0000 0.0000
# 3 28.3080 4.9646 37.4463 0.0000 0.0000 0.0000
# 4 0.0000 0.0000 0.0000 25.7002 0.0000 0.0000
# 5 0.0000 0.0000 0.0000 0.0000 22.4467 0.0000
# 6 0.0000 0.0000 0.0000 0.0000 0.0000 32.9042
#
#
#
# Elastic Compliance Matrix: (Units=1/GPa)
#
#
# Indices 1 2 3 4 5 6 
#
# 1 0.020363 -0.004992 -0.014732 0.000000 0.000000 0.000000
# 2 -0.004992 0.009251 0.002547 0.000000 0.000000 0.000000
# 3 -0.014732 0.002547 0.037504 0.000000 0.000000 0.000000
# 4 0.000000 0.000000 0.000000 0.038910 0.000000 0.000000
# 5 0.000000 0.000000 0.000000 0.000000 0.044550 0.000000
# 6 0.000000 0.000000 0.000000 0.000000 0.000000 0.030391
#
#
# Mechanical properties :
#
#
# Convention : Reuss Voigt Hill
#
# Bulk Modulus (GPa) = 30.52062 41.75649 36.13856
# Shear Modulus (GPa) = 22.09999 27.75100 24.92550
#
# Velocity S-wave (km/s) = 3.23004 3.61952 3.43031
# Velocity P-wave (km/s) = 5.32158 6.09759 5.72275
#
# Compressibility (1/GPa) = 0.03276473
#
# Stress axis : x y z
#
# Youngs Moduli (GPa) = 49.10816 108.09783 26.66380
#
# Poissons Ratio (x) = 0.53962 0.39281
# Poissons Ratio (y) = 0.24515 -0.06792
# Poissons Ratio (z) = 0.72346 -0.27536
#
# Static dielectric constant tensor:
#      x y z
#    x 3.684740 0.000000 0.000000 
#    y 0.000000 4.225720 0.000000 
#    z 0.000000 0.000000 3.283610 
# 
# 
# High freq. dielectric constant tensor:
#      x y z
#    x 1.814320 0.000000 0.000000 
#    y 0.000000 1.858040 0.000000 
#    z 0.000000 0.000000 1.778830 
# 
# From -- ./inp_files/36512.got.cif
#   From: 2010.03.12/outbox.cif.g09.slc.cpg/sg74_19_cif.got.tgz:36512.got - 2010.04.16 15:46:19.
