data_PCOD8297859
_publ_section_title
;
Structure prediction by ZEFSAII (Michael W. Deem and Ramdas Pophale) SiO2 
 PCOD8297859
Probable space group: I M M A
;
_chemical_formula_sum "Si O2"
_cell_formula_units_Z 72
_cell_length_a 9.864231
_cell_length_b 23.518338
_cell_length_c 17.236006
_cell_angle_alpha 90.000000
_cell_angle_beta 90.000000
_cell_angle_gamma 90.000000
_cell_volume 3998.586526
_symmetry_space_group_name_H-M "I M M A"
_symmetry_group_IT_number 74
_symmetry_cell_setting 'orthorhombic'
loop_
_space_group_symop_operation_xyz
x,y,z
-x,1/2-y,z
x,-y,-z
-x,1/2+y,-z
-x,-y,-z
x,1/2+y,-z
-x,y,z
x,1/2-y,z
1/2+x,1/2+y,1/2+z
1/2-x,-y,1/2+z
1/2+x,1/2-y,1/2-z
1/2-x,y,1/2-z
1/2-x,1/2-y,1/2-z
1/2+x,y,1/2-z
1/2-x,1/2+y,1/2+z
1/2+x,-y,1/2+z
loop_
_atom_site_type_symbol
_atom_site_label
_atom_site_fract_x
_atom_site_fract_y
_atom_site_fract_z
Si Si1 0.345130 0.428311 0.878819
Si Si2 0.840141 0.872594 0.533266
Si Si3 0.250000 0.345578 0.750000
Si Si4 0.159848 0.750000 0.491288
Si Si5 0.354809 0.250000 0.649515
Si Si6 0.337867 0.950014 0.824494
O O1 0.500000 0.440368 0.898486
O O2 0.334602 0.384585 0.808415
O O3 0.282945 0.489117 0.854906
O O4 0.274885 0.403185 0.957032
O O5 0.793825 0.806450 0.537813
O O6 0.795568 0.903715 0.611336
O O7 0.000000 0.875046 0.523454
O O8 0.353290 0.306038 0.702880
O O9 0.228234 0.750000 0.407444
O O10 0.000000 0.750000 0.475035
O O11 0.500000 0.250000 0.605394
O O12 0.500000 0.949762 0.806707
O O13 0.250000 0.933027 0.750000
#
# Coordination Sequence:
#
# PCOD8297859 Si02
#       6
#    16  16   8   8   8  16
#     4  10  18  31  53  78 104 138 178 214 249 304
#     4   9  18  33  55  79 101 135 181 221 254 303
#     4  11  20  32  50  74 110 147 174 200 250 315
#     4  10  19  35  57  76 100 138 184 220 255 306
#     4  11  23  33  48  79 114 142 170 210 259 308
#     4  10  20  35  56  80 106 134 173 222 269 311
#
# _framework density 18.006361999999999
#
# number of rings (size 3 to 8) (size 9 to 14) (size 15 to 20)
#    0.000    2.000    3.333    1.333    0.000    4.444 
#    0.000    1.667    0.000    1.333    0.000    0.000 
#    0.000    0.000    0.000    0.000    0.000    0.000 
#
# Total GULP energy -446221.777688 kJ/mol
# GULP energy per Si atom -12395.049380 kJ/mol
# Density = 1.796538 g / cm^3
# Si number density = 18.006362 Si / 1000 Ang^3
#
#
#
# Elastic Constant Matrix: (Units=GPa)
#
#
# Indices 1 2 3 4 5 6 
#
# 1 38.5399 24.6933 25.3613 0.0000 0.0000 0.0000
# 2 24.6933 153.7847 88.3838 0.0000 0.0000 0.0000
# 3 25.3613 88.3838 135.2904 -0.0001 0.0000 0.0000
# 4 0.0000 0.0000 -0.0001 27.5159 0.0000 0.0000
# 5 0.0000 0.0000 0.0000 0.0000 26.0499 0.0000
# 6 0.0000 0.0000 0.0000 0.0000 0.0000 27.3296
#
#
#
# Elastic Compliance Matrix: (Units=1/GPa)
#
#
# Indices 1 2 3 4 5 6 
#
# 1 0.030213 -0.002556 -0.003994 0.000000 0.000000 0.000000
# 2 -0.002556 0.010628 -0.006464 0.000000 0.000000 0.000000
# 3 -0.003994 -0.006464 0.012363 0.000000 0.000000 0.000000
# 4 0.000000 0.000000 0.000000 0.036343 0.000000 0.000000
# 5 0.000000 0.000000 0.000000 0.000000 0.038388 0.000000
# 6 0.000000 0.000000 0.000000 0.000000 0.000000 0.036590
#
#
# Mechanical properties :
#
#
# Convention : Reuss Voigt Hill
#
# Bulk Modulus (GPa) = 36.79674 67.16577 51.98126
# Shear Modulus (GPa) = 25.04864 28.79084 26.91974
#
# Velocity S-wave (km/s) = 3.73379 4.00300 3.87073
# Velocity P-wave (km/s) = 6.25044 7.66469 6.99341
#
# Compressibility (1/GPa) = 0.02717632
#
# Stress axis : x y z
#
# Youngs Moduli (GPa) = 33.09838 94.09058 80.88581
#
# Poissons Ratio (x) = 0.24049 0.32305
# Poissons Ratio (y) = 0.08460 0.52285
# Poissons Ratio (z) = 0.13219 0.60821
#
# Static dielectric constant tensor:
#      x y z
#    x 2.866170 0.000000 0.000000 
#    y 0.000000 3.703780 0.000000 
#    z 0.000000 0.000000 3.342490 
# 
# 
# High freq. dielectric constant tensor:
#      x y z
#    x 1.650490 0.000000 0.000000 
#    y 0.000000 1.714710 0.000000 
#    z 0.000000 0.000000 1.689200 
# 
# From -- ./inp_files/29220.got.cif
#   From: 2010.03.12/outbox.cif.g09.slc.cpg/sg74_15_cif.got.tgz:29220.got - 2010.04.16 15:46:19.
