data_PCOD8297384
_publ_section_title
;
Structure prediction by ZEFSAII (Michael W. Deem and Ramdas Pophale) SiO2 
 PCOD8297384
Probable space group: I M M A
;
_chemical_formula_sum "Si O2"
_cell_formula_units_Z 72
_cell_length_a 19.691829
_cell_length_b 17.435338
_cell_length_c 11.653312
_cell_angle_alpha 90.000000
_cell_angle_beta 90.000000
_cell_angle_gamma 90.000000
_cell_volume 4000.974662
_symmetry_space_group_name_H-M "I M M A"
_symmetry_group_IT_number 74
_symmetry_cell_setting 'orthorhombic'
loop_
_space_group_symop_operation_xyz
x,y,z
-x,1/2-y,z
x,-y,-z
-x,1/2+y,-z
-x,-y,-z
x,1/2+y,-z
-x,y,z
x,1/2-y,z
1/2+x,1/2+y,1/2+z
1/2-x,-y,1/2+z
1/2+x,1/2-y,1/2-z
1/2-x,y,1/2-z
1/2-x,1/2-y,1/2-z
1/2+x,y,1/2-z
1/2-x,1/2+y,1/2+z
1/2+x,-y,1/2+z
loop_
_atom_site_type_symbol
_atom_site_label
_atom_site_fract_x
_atom_site_fract_y
_atom_site_fract_z
Si Si1 0.764322 0.666014 0.881975
Si Si2 0.000000 0.834303 0.995681
Si Si3 0.500000 0.462229 0.684631
Si Si4 0.102102 0.095439 0.165037
Si Si5 0.500000 0.582765 0.054408
Si Si6 0.615595 0.159482 0.084274
O O1 0.787738 0.750000 0.931674
O O2 0.750000 0.680685 0.750000
O O3 0.821162 0.598703 0.886423
O O4 0.694561 0.639349 0.944854
O O5 0.000000 0.750000 0.049964
O O6 0.935267 0.843987 0.914960
O O7 0.000000 0.892491 0.099374
O O8 0.567968 0.511585 0.658224
O O9 0.500000 0.425518 0.809662
O O10 0.094588 0.121078 0.296314
O O11 0.500000 0.500000 0.000000
O O12 0.432140 0.627608 0.016364
O O13 0.605488 0.250000 0.095236
#
# Coordination Sequence:
#
# PCOD8297384 Si02
#       6
#    16   8   8  16   8  16
#     4   8  15  28  51  85 113 131 166 226 283 328
#     4  11  22  35  54  78 105 144 186 221 271 323
#     4  11  24  36  53  76 115 150 184 223 273 328
#     4  10  17  34  58  82 110 134 174 235 287 320
#     4  12  21  37  50  74 112 152 182 224 265 325
#     4  10  19  32  58  86 106 139 185 227 276 328
#
# _framework density 17.995615999999998
#
# number of rings (size 3 to 8) (size 9 to 14) (size 15 to 20)
#    0.000    2.000    2.222    5.667    0.000    0.889 
#    0.000    2.222    0.000    0.000    0.000    4.667 
#    0.000    0.000    0.000    0.000    0.000    0.000 
#
# Total GULP energy -446052.612162 kJ/mol
# GULP energy per Si atom -12390.350338 kJ/mol
# Density = 1.795466 g / cm^3
# Si number density = 17.995616 Si / 1000 Ang^3
#
#
#
# Elastic Constant Matrix: (Units=GPa)
#
#
# Indices 1 2 3 4 5 6 
#
# 1 147.8919 54.9556 44.0094 0.0000 0.0000 0.0000
# 2 54.9556 108.1717 39.8603 0.0000 0.0000 0.0000
# 3 44.0094 39.8603 67.4669 0.0000 0.0000 0.0000
# 4 0.0000 0.0000 0.0000 9.0203 0.0000 0.0000
# 5 0.0000 0.0000 0.0000 0.0000 -0.5234 0.0000
# 6 0.0000 0.0000 0.0000 0.0000 0.0000 17.0444
#
#
#
# Elastic Compliance Matrix: (Units=1/GPa)
#
#
# Indices 1 2 3 4 5 6 
#
# 1 0.009151 -0.003131 -0.004119 0.000000 0.000000 0.000000
# 2 -0.003131 0.012889 -0.005572 0.000000 0.000000 0.000000
# 3 -0.004119 -0.005572 0.020801 0.000000 0.000000 0.000000
# 4 0.000000 0.000000 0.000000 0.110861 0.000000 0.000000
# 5 0.000000 0.000000 0.000000 0.000000 -1.910468 0.000000
# 6 0.000000 0.000000 0.000000 0.000000 0.000000 0.058670
#
#
# Mechanical properties :
#
#
# Convention : Reuss Voigt Hill
#
# Bulk Modulus (GPa) = 58.15511 66.79791 62.47651
# Shear Modulus (GPa) = -2.99991 17.42193 7.21101
#
# Velocity S-wave (km/s) = -1.29253 3.11484 2.00394
# Velocity P-wave (km/s) = 5.49171 7.08067 6.33620
#
# Compressibility (1/GPa) = 0.01719539
#
# Stress axis : x y z
#
# Youngs Moduli (GPa) = 109.27703 77.58764 48.07370
#
# Poissons Ratio (x) = 0.24294 0.19804
# Poissons Ratio (y) = 0.34216 0.26788
# Poissons Ratio (z) = 0.45016 0.43234
#
# Static dielectric constant tensor:
#      x y z
#    x 4.156280 0.000000 0.000000 
#    y 0.000000 3.010470 0.000000 
#    z 0.000000 0.000000 5.911710 
# 
# 
# High freq. dielectric constant tensor:
#      x y z
#    x 1.709360 0.000000 0.000000 
#    y 0.000000 1.689260 0.000000 
#    z 0.000000 0.000000 1.663290 
# 
# From -- ./inp_files/23565.got.cif
#   From: 2010.03.12/outbox.cif.g09.slc.cpg/sg74_12_cif.got.tgz:23565.got - 2010.04.16 15:46:19.
