data_PCOD8297747
_publ_section_title
;
Structure prediction by ZEFSAII (Michael W. Deem and Ramdas Pophale) SiO2 
 PCOD8297747
Probable space group: I M M A
;
_chemical_formula_sum "Si O2"
_cell_formula_units_Z 120
_cell_length_a 23.328209
_cell_length_b 19.960546
_cell_length_c 13.940443
_cell_angle_alpha 90.000000
_cell_angle_beta 90.000000
_cell_angle_gamma 90.000000
_cell_volume 6491.280697
_symmetry_space_group_name_H-M "I M M A"
_symmetry_group_IT_number 74
_symmetry_cell_setting 'orthorhombic'
loop_
_space_group_symop_operation_xyz
x,y,z
-x,1/2-y,z
x,-y,-z
-x,1/2+y,-z
-x,-y,-z
x,1/2+y,-z
-x,y,z
x,1/2-y,z
1/2+x,1/2+y,1/2+z
1/2-x,-y,1/2+z
1/2+x,1/2-y,1/2-z
1/2-x,y,1/2-z
1/2-x,1/2-y,1/2-z
1/2+x,y,1/2-z
1/2-x,1/2+y,1/2+z
1/2+x,-y,1/2+z
loop_
_atom_site_type_symbol
_atom_site_label
_atom_site_fract_x
_atom_site_fract_y
_atom_site_fract_z
Si Si1 0.065653 0.531773 0.291507
Si Si2 0.633187 0.071686 0.963097
Si Si3 0.750000 0.091953 0.250000
Si Si4 0.240545 0.931512 0.964392
Si Si5 0.141996 0.329020 0.011992
Si Si6 0.435121 0.615727 0.871446
Si Si7 0.639602 0.676617 0.725144
Si Si8 0.567019 0.440967 0.572545
O O1 0.109739 0.578122 0.353592
O O2 0.074006 0.455016 0.319449
O O3 0.082149 0.536890 0.180151
O O4 0.000000 0.555061 0.310199
O O5 0.701305 0.078847 0.974332
O O6 0.601595 0.125064 0.031388
O O7 0.611307 0.000000 0.000000
O O8 0.750021 0.052510 0.149024
O O9 0.691523 0.131710 0.240662
O O10 0.204485 0.864613 0.986424
O O11 0.209840 0.000000 0.000000
O O12 0.146951 0.250000 0.981255
O O13 0.099671 0.370514 0.943687
O O14 0.116527 0.337477 0.118354
O O15 0.500000 0.629832 0.899604
O O16 0.414257 0.670552 0.795515
O O17 0.665890 0.750000 0.729539
O O18 0.587174 0.500000 0.500000
O O19 0.500000 0.426814 0.558656
#
# Coordination Sequence:
#
# PCOD8297747 Si02
#       8
#    16  16   8  16  16  16  16  16
#     4   9  18  32  55  81 109 144 178 223 279 335
#     4   9  17  32  51  79 110 139 181 220 272 332
#     4  10  19  36  56  76 107 138 184 224 268 330
#     4  10  20  36  56  85 110 144 185 232 275 320
#     4  10  22  38  55  78 110 147 187 228 278 335
#     4  10  18  30  50  80 114 140 170 222 275 327
#     4  10  20  33  51  74 104 144 181 218 268 333
#     4  10  20  36  58  85 113 142 183 234 286 333
#
# _framework density 18.486336000000001
#
# number of rings (size 3 to 8) (size 9 to 14) (size 15 to 20)
#    0.000    2.267    1.333    1.800    0.000    5.333 
#    0.000    1.333    0.000    2.400    0.000    1.867 
#    0.000    0.000    0.000    0.000    0.000    0.000 
#
# Total GULP energy -743543.091063 kJ/mol
# GULP energy per Si atom -12392.384851 kJ/mol
# Density = 1.844426 g / cm^3
# Si number density = 18.486336 Si / 1000 Ang^3
#
#
#
# Elastic Constant Matrix: (Units=GPa)
#
#
# Indices 1 2 3 4 5 6 
#
# 1 70.7415 23.8684 41.5072 0.0000 0.0000 0.0000
# 2 23.8684 69.0562 36.2872 0.0000 0.0000 0.0000
# 3 41.5072 36.2872 122.2003 0.0000 0.0000 0.0000
# 4 0.0000 0.0000 0.0000 23.1843 0.0000 0.0000
# 5 0.0000 0.0000 0.0000 0.0000 31.0105 0.0000
# 6 0.0000 0.0000 0.0000 0.0000 0.0000 47.3016
#
#
#
# Elastic Compliance Matrix: (Units=1/GPa)
#
#
# Indices 1 2 3 4 5 6 
#
# 1 0.018397 -0.003644 -0.005167 0.000000 0.000000 0.000000
# 2 -0.003644 0.017880 -0.004072 0.000000 0.000000 0.000000
# 3 -0.005167 -0.004072 0.011147 0.000000 0.000000 0.000000
# 4 0.000000 0.000000 0.000000 0.043133 0.000000 0.000000
# 5 0.000000 0.000000 0.000000 0.000000 0.032247 0.000000
# 6 0.000000 0.000000 0.000000 0.000000 0.000000 0.021141
#
#
# Mechanical properties :
#
#
# Convention : Reuss Voigt Hill
#
# Bulk Modulus (GPa) = 46.16861 51.70263 48.93562
# Shear Modulus (GPa) = 28.25983 30.98828 29.62405
#
# Velocity S-wave (km/s) = 3.91408 4.09868 4.00745
# Velocity P-wave (km/s) = 6.74206 7.10124 6.92398
#
# Compressibility (1/GPa) = 0.02165974
#
# Stress axis : x y z
#
# Youngs Moduli (GPa) = 54.35681 55.92854 89.70703
#
# Poissons Ratio (x) = 0.20378 0.46350
# Poissons Ratio (y) = 0.19806 0.36527
# Poissons Ratio (z) = 0.28085 0.22773
#
# Static dielectric constant tensor:
#      x y z
#    x 3.400350 0.000000 0.000000 
#    y 0.000000 3.225700 0.000000 
#    z 0.000000 0.000000 3.563120 
# 
# 
# High freq. dielectric constant tensor:
#      x y z
#    x 1.723450 0.000000 0.000000 
#    y 0.000000 1.681390 0.000000 
#    z 0.000000 0.000000 1.718990 
# 
# From -- ./inp_files/25461.got.cif
#   From: 2010.03.12/outbox.cif.g09.slc.cpg/sg74_13_cif.got.tgz:25461.got - 2010.04.16 15:46:19.
