data_PCOD8297273
_publ_section_title
;
Structure prediction by ZEFSAII (Michael W. Deem and Ramdas Pophale) SiO2 
 PCOD8297273
Probable space group: I M M A
;
_chemical_formula_sum "Si O2"
_cell_formula_units_Z 128
_cell_length_a 17.373264
_cell_length_b 25.592928
_cell_length_c 18.552731
_cell_angle_alpha 90.000000
_cell_angle_beta 90.000000
_cell_angle_gamma 90.000000
_cell_volume 8249.150778
_symmetry_space_group_name_H-M "I M M A"
_symmetry_group_IT_number 74
_symmetry_cell_setting 'orthorhombic'
loop_
_space_group_symop_operation_xyz
x,y,z
-x,1/2-y,z
x,-y,-z
-x,1/2+y,-z
-x,-y,-z
x,1/2+y,-z
-x,y,z
x,1/2-y,z
1/2+x,1/2+y,1/2+z
1/2-x,-y,1/2+z
1/2+x,1/2-y,1/2-z
1/2-x,y,1/2-z
1/2-x,1/2-y,1/2-z
1/2+x,y,1/2-z
1/2-x,1/2+y,1/2+z
1/2+x,-y,1/2+z
loop_
_atom_site_type_symbol
_atom_site_label
_atom_site_fract_x
_atom_site_fract_y
_atom_site_fract_z
Si Si1 0.087411 0.190594 0.540672
Si Si2 0.299066 0.469584 0.431249
Si Si3 0.091013 0.988767 0.804298
Si Si4 0.910723 0.307846 0.709396
Si Si5 0.647907 0.033424 0.906607
Si Si6 0.160990 0.588394 0.263099
Si Si7 0.415316 0.061457 0.157742
Si Si8 0.325218 0.103569 0.036674
O O1 0.093741 0.250000 0.513768
O O2 0.105106 0.187029 0.624739
O O3 0.154555 0.158939 0.498770
O O4 0.000000 0.169678 0.524804
O O5 0.333661 0.500000 0.500000
O O6 0.366954 0.464450 0.373604
O O7 0.228529 0.502452 0.397882
O O8 0.265681 0.411690 0.454735
O O9 0.115463 0.048552 0.788921
O O10 0.000000 0.986973 0.817201
O O11 0.116439 0.952155 0.737296
O O12 0.884272 0.250000 0.735501
O O13 0.864582 0.352088 0.753679
O O14 0.000000 0.315857 0.726039
O O15 0.643279 0.079030 0.847356
O O16 0.580871 0.992188 0.888833
O O17 0.637845 0.057833 0.985967
O O18 0.250000 0.581156 0.250000
O O19 0.500000 0.085634 0.163188
O O20 0.362178 0.103221 0.116575
#
# Coordination Sequence:
#
# PCOD8297273 Si02
#       8
#    16  16  16  16  16  16  16  16
#     4   9  17  28  43  64  93 126 155 187 225 266
#     4   9  18  31  46  62  83 116 153 187 232 271
#     4  10  20  32  44  65  91 115 151 189 228 279
#     4   9  18  31  44  62  90 124 162 196 228 269
#     4   9  17  27  38  61  87 116 148 184 217 261
#     4  11  18  28  48  62  88 124 155 190 229 266
#     4   9  18  26  38  62  89 116 145 177 216 268
#     4  10  17  27  44  62  89 117 150 184 221 271
#
# _framework density 15.516748
#
# number of rings (size 3 to 8) (size 9 to 14) (size 15 to 20)
#    0.000    2.500    2.500    2.625    0.000    2.500 
#    0.000    0.000    0.000    0.000    0.000    1.750 
#    0.000    1.500    0.000    0.000    0.000    1.250 
#
# Total GULP energy -793028.575448 kJ/mol
# GULP energy per Si atom -12391.071491 kJ/mol
# Density = 1.548143 g / cm^3
# Si number density = 15.516748 Si / 1000 Ang^3
#
#
#
# Elastic Constant Matrix: (Units=GPa)
#
#
# Indices 1 2 3 4 5 6 
#
# 1 53.0413 14.0113 24.2007 0.0001 0.0000 0.0000
# 2 14.0113 42.4108 2.1520 0.0005 0.0000 0.0001
# 3 24.2007 2.1520 60.2957 0.0003 -0.0001 0.0001
# 4 0.0001 0.0005 0.0003 16.8678 0.0000 0.0001
# 5 0.0000 0.0000 -0.0001 0.0000 15.7130 0.0000
# 6 0.0000 0.0001 0.0001 0.0001 0.0000 20.9313
#
#
#
# Elastic Compliance Matrix: (Units=1/GPa)
#
#
# Indices 1 2 3 4 5 6 
#
# 1 0.025481 -0.007914 -0.009945 0.000000 0.000000 0.000000
# 2 -0.007914 0.026079 0.002245 -0.000001 0.000000 0.000000
# 3 -0.009945 0.002245 0.020496 0.000000 0.000000 0.000000
# 4 0.000000 -0.000001 0.000000 0.059285 0.000000 0.000000
# 5 0.000000 0.000000 0.000000 0.000000 0.063642 0.000000
# 6 0.000000 0.000000 0.000000 0.000000 0.000000 0.047775
#
#
# Mechanical properties :
#
#
# Convention : Reuss Voigt Hill
#
# Bulk Modulus (GPa) = 24.49127 26.27509 25.38318
# Shear Modulus (GPa) = 17.38556 18.39466 17.89011
#
# Velocity S-wave (km/s) = 3.35093 3.44680 3.39920
# Velocity P-wave (km/s) = 5.54884 5.72806 5.63917
#
# Compressibility (1/GPa) = 0.04083088
#
# Stress axis : x y z
#
# Youngs Moduli (GPa) = 39.24471 38.34448 48.78919
#
# Poissons Ratio (x) = 0.30344 0.48520
# Poissons Ratio (y) = 0.31057 -0.10956
# Poissons Ratio (z) = 0.39028 -0.08610
#
# Static dielectric constant tensor:
#      x y z
#    x 2.799300 0.000000 0.000000 
#    y 0.000000 2.855670 0.000000 
#    z 0.000000 0.000000 2.892290 
# 
# 
# High freq. dielectric constant tensor:
#      x y z
#    x 1.577460 0.000000 0.000000 
#    y 0.000000 1.567690 0.000000 
#    z 0.000000 0.000000 1.581290 
# 
# From -- ./inp_files/53469.got.cif
#   From: 2010.03.12/outbox.cif.g09.slc.cpg/sg74_27_cif.got.tgz:53469.got - 2010.04.16 15:46:19.
