data_PCOD8297288
_publ_section_title
;
Structure prediction by ZEFSAII (Michael W. Deem and Ramdas Pophale) SiO2 
 PCOD8297288
Probable space group: I M M A
;
_chemical_formula_sum "Si O2"
_cell_formula_units_Z 56
_cell_length_a 19.974043
_cell_length_b 13.508831
_cell_length_c 11.019184
_cell_angle_alpha 90.000000
_cell_angle_beta 90.000000
_cell_angle_gamma 90.000000
_cell_volume 2973.262025
_symmetry_space_group_name_H-M "I M M A"
_symmetry_group_IT_number 74
_symmetry_cell_setting 'orthorhombic'
loop_
_space_group_symop_operation_xyz
x,y,z
-x,1/2-y,z
x,-y,-z
-x,1/2+y,-z
-x,-y,-z
x,1/2+y,-z
-x,y,z
x,1/2-y,z
1/2+x,1/2+y,1/2+z
1/2-x,-y,1/2+z
1/2+x,1/2-y,1/2-z
1/2-x,y,1/2-z
1/2-x,1/2-y,1/2-z
1/2+x,y,1/2-z
1/2-x,1/2+y,1/2+z
1/2+x,-y,1/2+z
loop_
_atom_site_type_symbol
_atom_site_label
_atom_site_fract_x
_atom_site_fract_y
_atom_site_fract_z
Si Si1 0.889298 0.489016 0.793545
Si Si2 0.213002 0.000000 0.000000
Si Si3 0.000000 0.862618 0.792665
Si Si4 0.000000 0.138006 0.918974
Si Si5 0.300030 0.640304 0.138666
O O1 0.830385 0.527718 0.881407
O O2 0.933492 0.413346 0.871193
O O3 0.861116 0.431759 0.676026
O O4 0.933326 0.581521 0.745247
O O5 0.260061 0.094879 0.975219
O O6 0.000000 0.750000 0.744885
O O7 0.000000 0.869142 0.937169
O O8 0.000000 0.250000 0.872858
O O9 0.326660 0.750000 0.103199
O O10 0.250000 0.649982 0.250000
#
# Coordination Sequence:
#
# PCOD8297288 Si02
#       5
#    16   8   8   8  16
#     4  10  17  32  48  74 104 129 164 204 246 295
#     4  10  18  31  48  73 104 132 160 206 242 288
#     4  10  19  29  48  73 101 132 157 199 260 302
#     4  10  17  27  50  75  97 129 161 206 256 295
#     4   9  19  32  50  72  98 136 171 201 239 289
#
# _framework density 18.834534000000001
#
# number of rings (size 3 to 8) (size 9 to 14) (size 15 to 20)
#    0.000    2.286    2.857    1.714    0.000    2.286 
#    0.000    1.429    0.000    8.571    0.000    2.000 
#    0.000    0.000    0.000    0.000    0.000    0.000 
#
# Total GULP energy -347163.195437 kJ/mol
# GULP energy per Si atom -12398.685551 kJ/mol
# Density = 1.879167 g / cm^3
# Si number density = 18.834534 Si / 1000 Ang^3
#
#
#
# Elastic Constant Matrix: (Units=GPa)
#
#
# Indices 1 2 3 4 5 6 
#
# 1 103.9713 75.4543 35.5976 0.0000 0.0000 0.0000
# 2 75.4543 176.5225 36.7513 0.0000 0.0000 0.0000
# 3 35.5976 36.7513 36.2374 0.0000 0.0000 0.0000
# 4 0.0000 0.0000 0.0000 21.6221 0.0000 0.0000
# 5 0.0000 0.0000 0.0000 0.0000 12.5557 0.0000
# 6 0.0000 0.0000 0.0000 0.0000 0.0000 22.9113
#
#
#
# Elastic Compliance Matrix: (Units=1/GPa)
#
#
# Indices 1 2 3 4 5 6 
#
# 1 0.017277 -0.004882 -0.012020 0.000000 0.000000 0.000000
# 2 -0.004882 0.008561 -0.003886 0.000000 0.000000 0.000000
# 3 -0.012020 -0.003886 0.043345 0.000000 0.000000 0.000000
# 4 0.000000 0.000000 0.000000 0.046249 0.000000 0.000000
# 5 0.000000 0.000000 0.000000 0.000000 0.079645 0.000000
# 6 0.000000 0.000000 0.000000 0.000000 0.000000 0.043647
#
#
# Mechanical properties :
#
#
# Convention : Reuss Voigt Hill
#
# Bulk Modulus (GPa) = 36.22490 68.03753 52.13122
# Shear Modulus (GPa) = 17.27101 22.67968 19.97534
#
# Velocity S-wave (km/s) = 3.03146 3.47386 3.26017
# Velocity P-wave (km/s) = 5.61498 7.23135 6.47381
#
# Compressibility (1/GPa) = 0.02760532
#
# Stress axis : x y z
#
# Youngs Moduli (GPa) = 57.88143 116.80768 23.07071
#
# Poissons Ratio (x) = 0.57030 0.27731
# Poissons Ratio (y) = 0.28260 0.08966
# Poissons Ratio (z) = 0.69574 0.45395
#
# Static dielectric constant tensor:
#      x y z
#    x 3.593340 0.000000 0.000000 
#    y 0.000000 3.827460 0.000000 
#    z 0.000000 0.000000 3.035530 
# 
# 
# High freq. dielectric constant tensor:
#      x y z
#    x 1.733650 0.000000 0.000000 
#    y 0.000000 1.736340 0.000000 
#    z 0.000000 0.000000 1.682360 
# 
# From -- ./inp_files/33722.got.cif
#   From: 2010.03.12/outbox.cif.g09.slc.cpg/sg74_17_cif.got.tgz:33722.got - 2010.04.16 15:46:19.
