data_PCOD8297740
_publ_section_title
;
Structure prediction by ZEFSAII (Michael W. Deem and Ramdas Pophale) SiO2 
 PCOD8297740
Probable space group: I M M A
;
_chemical_formula_sum "Si O2"
_cell_formula_units_Z 80
_cell_length_a 17.980250
_cell_length_b 19.076695
_cell_length_c 13.356452
_cell_angle_alpha 90.000000
_cell_angle_beta 90.000000
_cell_angle_gamma 90.000000
_cell_volume 4581.313060
_symmetry_space_group_name_H-M "I M M A"
_symmetry_group_IT_number 74
_symmetry_cell_setting 'orthorhombic'
loop_
_space_group_symop_operation_xyz
x,y,z
-x,1/2-y,z
x,-y,-z
-x,1/2+y,-z
-x,-y,-z
x,1/2+y,-z
-x,y,z
x,1/2-y,z
1/2+x,1/2+y,1/2+z
1/2-x,-y,1/2+z
1/2+x,1/2-y,1/2-z
1/2-x,y,1/2-z
1/2-x,1/2-y,1/2-z
1/2+x,y,1/2-z
1/2-x,1/2+y,1/2+z
1/2+x,-y,1/2+z
loop_
_atom_site_type_symbol
_atom_site_label
_atom_site_fract_x
_atom_site_fract_y
_atom_site_fract_z
Si Si1 0.356496 0.671076 0.150785
Si Si2 0.579004 0.970767 0.108736
Si Si3 0.228426 0.960349 0.642921
Si Si4 0.415236 0.669599 0.372447
Si Si5 0.222777 0.897531 0.057245
O O1 0.380072 0.750000 0.118755
O O2 0.403639 0.611835 0.094176
O O3 0.373290 0.659775 0.267454
O O4 0.269888 0.658892 0.122441
O O5 0.500000 0.979706 0.166799
O O6 0.643791 0.014521 0.161407
O O7 0.569909 0.000000 0.000000
O O8 0.250000 0.927242 0.750000
O O9 0.240380 0.904125 0.553884
O O10 0.277197 0.028218 0.614326
O O11 0.500000 0.639509 0.369914
O O12 0.418517 0.750000 0.405109
O O13 0.363029 0.627930 0.451464
#
# Coordination Sequence:
#
# PCOD8297740 Si02
#       5
#    16  16  16  16  16
#     4  10  18  30  50  76 103 130 167 205 248 309
#     4  10  18  32  50  73 103 135 163 199 260 307
#     4  10  19  33  51  74 101 134 176 212 245 303
#     4  10  20  32  49  76 105 132 161 203 261 313
#     4  10  18  33  50  73 100 137 167 207 258 300
#
# _framework density 17.462243000000001
#
# number of rings (size 3 to 8) (size 9 to 14) (size 15 to 20)
#    0.000    2.000    4.000    4.200    0.000    2.800 
#    0.000    3.000    0.000    2.400    0.000    0.000 
#    0.000    0.000    0.000    0.000    0.000    0.000 
#
# Total GULP energy -495548.676226 kJ/mol
# GULP energy per Si atom -12388.716906 kJ/mol
# Density = 1.742250 g / cm^3
# Si number density = 17.462243 Si / 1000 Ang^3
#
#
#
# Elastic Constant Matrix: (Units=GPa)
#
#
# Indices 1 2 3 4 5 6 
#
# 1 160.0125 40.9474 40.0817 0.0000 0.0000 0.0000
# 2 40.9474 66.9847 25.4024 0.0000 0.0000 0.0000
# 3 40.0817 25.4024 71.3239 0.0000 0.0000 0.0000
# 4 0.0000 0.0000 0.0000 18.2119 0.0000 0.0000
# 5 0.0000 0.0000 0.0000 0.0000 11.6297 0.0000
# 6 0.0000 0.0000 0.0000 0.0000 0.0000 18.9356
#
#
#
# Elastic Compliance Matrix: (Units=1/GPa)
#
#
# Indices 1 2 3 4 5 6 
#
# 1 0.007987 -0.003677 -0.003179 0.000000 0.000000 0.000000
# 2 -0.003677 0.018953 -0.004684 0.000000 0.000000 0.000000
# 3 -0.003179 -0.004684 0.017475 0.000000 0.000000 0.000000
# 4 0.000000 0.000000 0.000000 0.054909 0.000000 0.000000
# 5 0.000000 0.000000 0.000000 0.000000 0.085987 0.000000
# 6 0.000000 0.000000 0.000000 0.000000 0.000000 0.052811
#
#
# Mechanical properties :
#
#
# Convention : Reuss Voigt Hill
#
# Bulk Modulus (GPa) = 46.86992 56.79821 51.83407
# Shear Modulus (GPa) = 18.63508 22.54809 20.59159
#
# Velocity S-wave (km/s) = 3.27029 3.59729 3.43768
# Velocity P-wave (km/s) = 6.41551 7.06052 6.74573
#
# Compressibility (1/GPa) = 0.02133565
#
# Stress axis : x y z
#
# Youngs Moduli (GPa) = 125.20915 52.76325 57.22432
#
# Poissons Ratio (x) = 0.19400 0.18190
# Poissons Ratio (y) = 0.46036 0.26803
# Poissons Ratio (z) = 0.39801 0.24714
#
# Static dielectric constant tensor:
#      x y z
#    x 4.724100 0.000000 0.000000 
#    y 0.000000 3.217650 0.000000 
#    z 0.000000 0.000000 3.006830 
# 
# 
# High freq. dielectric constant tensor:
#      x y z
#    x 1.687770 0.000000 0.000000 
#    y 0.000000 1.653900 0.000000 
#    z 0.000000 0.000000 1.640370 
# 
# From -- ./inp_files/33972.got.cif
#   From: 2010.03.12/outbox.cif.g09.slc.cpg/sg74_17_cif.got.tgz:33972.got - 2010.04.16 15:46:19.
