data_PCOD8297652
_publ_section_title
;
Structure prediction by ZEFSAII (Michael W. Deem and Ramdas Pophale) SiO2 
 PCOD8297652
Probable space group: I M M A
;
_chemical_formula_sum "Si O2"
_cell_formula_units_Z 80
_cell_length_a 28.282060
_cell_length_b 11.587042
_cell_length_c 14.738711
_cell_angle_alpha 90.000000
_cell_angle_beta 90.000000
_cell_angle_gamma 90.000000
_cell_volume 4829.955435
_symmetry_space_group_name_H-M "I M M A"
_symmetry_group_IT_number 74
_symmetry_cell_setting 'orthorhombic'
loop_
_space_group_symop_operation_xyz
x,y,z
-x,1/2-y,z
x,-y,-z
-x,1/2+y,-z
-x,-y,-z
x,1/2+y,-z
-x,y,z
x,1/2-y,z
1/2+x,1/2+y,1/2+z
1/2-x,-y,1/2+z
1/2+x,1/2-y,1/2-z
1/2-x,y,1/2-z
1/2-x,1/2-y,1/2-z
1/2+x,y,1/2-z
1/2-x,1/2+y,1/2+z
1/2+x,-y,1/2+z
loop_
_atom_site_type_symbol
_atom_site_label
_atom_site_fract_x
_atom_site_fract_y
_atom_site_fract_z
Si Si1 0.181229 0.000000 0.500000
Si Si2 0.099872 0.382183 0.151371
Si Si3 0.750000 0.454153 0.250000
Si Si4 0.262725 0.122802 0.589381
Si Si5 0.000000 0.614313 0.932343
Si Si6 0.841363 0.500000 0.000000
Si Si7 0.346761 0.621038 0.827010
O O1 0.214790 0.104915 0.531962
O O2 0.148909 0.039896 0.415597
O O3 0.116031 0.250000 0.135816
O O4 0.114385 0.420660 0.253336
O O5 0.044295 0.397249 0.134739
O O6 0.125950 0.466731 0.083191
O O7 0.730807 0.532309 0.330741
O O8 0.706037 0.378629 0.215739
O O9 0.262021 0.250000 0.630947
O O10 0.307942 0.108644 0.524020
O O11 0.000000 0.750000 0.974889
O O12 0.000000 0.500000 0.000000
O O13 0.358480 0.750000 0.858404
#
# Coordination Sequence:
#
# PCOD8297652 Si02
#       7
#     8  16   8  16   8   8  16
#     4   9  20  32  48  66  94 134 174 216 253 294
#     4  10  20  33  53  76 100 133 168 208 253 308
#     4  10  18  30  44  68  96 134 168 204 250 298
#     4  10  19  29  42  65  99 135 170 208 248 292
#     4  10  20  36  58  81 110 138 172 213 264 317
#     4  11  18  31  46  69 102 133 168 203 241 304
#     4  10  19  33  51  71  98 130 172 213 251 302
#
# _framework density 16.563300000000002
#
# number of rings (size 3 to 8) (size 9 to 14) (size 15 to 20)
#    0.000    2.000    3.000    1.800    0.000    0.000 
#    0.000    0.000    0.000    0.600    0.000    0.000 
#    0.000    0.000    0.000    0.000    0.000    0.000 
#
# Total GULP energy -495739.980577 kJ/mol
# GULP energy per Si atom -12393.499514 kJ/mol
# Density = 1.652560 g / cm^3
# Si number density = 16.563300 Si / 1000 Ang^3
#
#
#
# Elastic Constant Matrix: (Units=GPa)
#
#
# Indices 1 2 3 4 5 6 
#
# 1 83.3231 30.3424 50.0240 0.0000 0.0000 0.0000
# 2 30.3424 77.4960 40.9338 0.0000 0.0000 0.0000
# 3 50.0240 40.9338 115.6361 0.0000 0.0000 0.0000
# 4 0.0000 0.0000 0.0000 8.9693 0.0000 0.0000
# 5 0.0000 0.0000 0.0000 0.0000 26.5336 0.0000
# 6 0.0000 0.0000 0.0000 0.0000 0.0000 7.0972
#
#
#
# Elastic Compliance Matrix: (Units=1/GPa)
#
#
# Indices 1 2 3 4 5 6 
#
# 1 0.016906 -0.003390 -0.006114 0.000000 0.000000 0.000000
# 2 -0.003390 0.016551 -0.004392 0.000000 0.000000 0.000000
# 3 -0.006114 -0.004392 0.012847 0.000000 0.000000 0.000000
# 4 0.000000 0.000000 0.000000 0.111491 0.000000 0.000000
# 5 0.000000 0.000000 0.000000 0.000000 0.037688 0.000000
# 6 0.000000 0.000000 0.000000 0.000000 0.000000 0.140900
#
#
# Mechanical properties :
#
#
# Convention : Reuss Voigt Hill
#
# Bulk Modulus (GPa) = 54.01672 57.67284 55.84478
# Shear Modulus (GPa) = 13.50080 18.86368 16.18224
#
# Velocity S-wave (km/s) = 2.85810 3.37840 3.12908
# Velocity P-wave (km/s) = 6.60112 7.07908 6.84427
#
# Compressibility (1/GPa) = 0.01851279
#
# Stress axis : x y z
#
# Youngs Moduli (GPa) = 59.14912 60.41799 77.83677
#
# Poissons Ratio (x) = 0.20483 0.47586
# Poissons Ratio (y) = 0.20053 0.34189
# Poissons Ratio (z) = 0.36161 0.26538
#
# Static dielectric constant tensor:
#      x y z
#    x 2.989860 0.000000 0.000000 
#    y 0.000000 3.102550 0.000000 
#    z 0.000000 0.000000 3.198340 
# 
# 
# High freq. dielectric constant tensor:
#      x y z
#    x 1.612660 0.000000 0.000000 
#    y 0.000000 1.633660 0.000000 
#    z 0.000000 0.000000 1.637390 
# 
# From -- ./inp_files/37185.got.cif
#   From: 2010.03.12/outbox.cif.g09.slc.cpg/sg74_19_cif.got.tgz:37185.got - 2010.04.16 15:46:19.
