data_PCOD8297961
_publ_section_title
;
Structure prediction by ZEFSAII (Michael W. Deem and Ramdas Pophale) SiO2 
 PCOD8297961
Probable space group: I M M A
;
_chemical_formula_sum "Si O2"
_cell_formula_units_Z 88
_cell_length_a 8.791809
_cell_length_b 18.913571
_cell_length_c 25.030824
_cell_angle_alpha 90.000000
_cell_angle_beta 90.000000
_cell_angle_gamma 90.000000
_cell_volume 4162.238147
_symmetry_space_group_name_H-M "I M M A"
_symmetry_group_IT_number 74
_symmetry_cell_setting 'orthorhombic'
loop_
_space_group_symop_operation_xyz
x,y,z
-x,1/2-y,z
x,-y,-z
-x,1/2+y,-z
-x,-y,-z
x,1/2+y,-z
-x,y,z
x,1/2-y,z
1/2+x,1/2+y,1/2+z
1/2-x,-y,1/2+z
1/2+x,1/2-y,1/2-z
1/2-x,y,1/2-z
1/2-x,1/2-y,1/2-z
1/2+x,y,1/2-z
1/2-x,1/2+y,1/2+z
1/2+x,-y,1/2+z
loop_
_atom_site_type_symbol
_atom_site_label
_atom_site_fract_x
_atom_site_fract_y
_atom_site_fract_z
Si Si1 0.825066 0.551400 0.597081
Si Si2 0.680765 0.329227 0.017047
Si Si3 0.325557 0.891873 0.091952
Si Si4 0.181251 0.250000 0.308865
Si Si5 0.178794 0.890726 0.807371
Si Si6 0.821404 0.169160 0.805020
O O1 0.755940 0.610530 0.556937
O O2 0.810623 0.473229 0.572582
O O3 0.724367 0.548395 0.651263
O O4 0.000000 0.568902 0.611307
O O5 0.500000 0.334611 0.017091
O O6 0.734069 0.250000 0.034157
O O7 0.738978 0.344850 0.956925
O O8 0.500000 0.872747 0.104495
O O9 0.231120 0.877705 0.145245
O O10 0.250000 0.250000 0.250000
O O11 0.246596 0.179117 0.335476
O O12 0.000000 0.250000 0.309752
O O13 0.250000 0.907729 0.750000
O O14 0.000000 0.881714 0.800296
O O15 0.769072 0.250000 0.814501
O O16 0.750000 0.139652 0.750000
O O17 0.000000 0.162468 0.799272
#
# Coordination Sequence:
#
# PCOD8297961 Si02
#       6
#    16  16  16   8  16  16
#     4  10  21  36  56  85 118 155 196 242 292 345
#     4   9  18  34  59  88 114 148 195 243 291 345
#     4  10  20  36  59  86 119 155 194 239 290 349
#     4  10  18  32  54  78 106 142 184 232 283 336
#     4  11  22  37  56  81 113 151 194 240 289 345
#     4  10  21  37  59  88 120 154 194 238 288 347
#
# _framework density 21.142469999999999
#
# number of rings (size 3 to 8) (size 9 to 14) (size 15 to 20)
#    0.000    2.000    0.000    5.182    1.273    5.455 
#    0.000    0.909    0.000    3.273    0.000    0.000 
#    0.000    0.000    0.000    0.000    0.000    0.000 
#
# Total GULP energy -545522.452644 kJ/mol
# GULP energy per Si atom -12398.237560 kJ/mol
# Density = 2.109435 g / cm^3
# Si number density = 21.142470 Si / 1000 Ang^3
#
#
#
# Elastic Constant Matrix: (Units=GPa)
#
#
# Indices 1 2 3 4 5 6 
#
# 1 96.3332 22.3882 30.2272 0.0000 0.0000 0.0000
# 2 22.3882 94.1973 44.9437 0.0000 0.0000 0.0000
# 3 30.2272 44.9437 120.2853 0.0000 0.0000 0.0000
# 4 0.0000 0.0000 0.0000 35.4059 0.0000 0.0000
# 5 0.0000 0.0000 0.0000 0.0000 26.7819 0.0000
# 6 0.0000 0.0000 0.0000 0.0000 0.0000 23.1315
#
#
#
# Elastic Compliance Matrix: (Units=1/GPa)
#
#
# Indices 1 2 3 4 5 6 
#
# 1 0.011475 -0.001645 -0.002269 0.000000 0.000000 0.000000
# 2 -0.001645 0.013155 -0.004502 0.000000 0.000000 0.000000
# 3 -0.002269 -0.004502 0.010566 0.000000 0.000000 0.000000
# 4 0.000000 0.000000 0.000000 0.028244 0.000000 0.000000
# 5 0.000000 0.000000 0.000000 0.000000 0.037339 0.000000
# 6 0.000000 0.000000 0.000000 0.000000 0.000000 0.043231
#
#
# Mechanical properties :
#
#
# Convention : Reuss Voigt Hill
#
# Bulk Modulus (GPa) = 54.45341 56.21489 55.33415
# Shear Modulus (GPa) = 29.94694 31.28098 30.61396
#
# Velocity S-wave (km/s) = 3.76764 3.85064 3.80937
# Velocity P-wave (km/s) = 6.68866 6.81295 6.75109
#
# Compressibility (1/GPa) = 0.01836432
#
# Stress axis : x y z
#
# Youngs Moduli (GPa) = 87.14717 76.01741 94.64415
#
# Poissons Ratio (x) = 0.12502 0.21476
# Poissons Ratio (y) = 0.14333 0.42608
# Poissons Ratio (z) = 0.19774 0.34223
#
# Static dielectric constant tensor:
#      x y z
#    x 3.510640 0.000000 0.000000 
#    y 0.000000 4.222980 0.000000 
#    z 0.000000 0.000000 3.758670 
# 
# 
# High freq. dielectric constant tensor:
#      x y z
#    x 1.798480 0.000000 0.000000 
#    y 0.000000 1.832600 0.000000 
#    z 0.000000 0.000000 1.831890 
# 
# From -- ./inp_files/56965.got.cif
#   From: 2010.03.12/outbox.cif.g09.slc.cpg/sg74_29_cif.got.tgz:56965.got - 2010.04.16 15:46:19.
