data_PCOD8297865
_publ_section_title
;
Structure prediction by ZEFSAII (Michael W. Deem and Ramdas Pophale) SiO2 
 PCOD8297865
Probable space group: I M M A
;
_chemical_formula_sum "Si O2"
_cell_formula_units_Z 88
_cell_length_a 16.711153
_cell_length_b 19.650347
_cell_length_c 14.165961
_cell_angle_alpha 90.000000
_cell_angle_beta 90.000000
_cell_angle_gamma 90.000000
_cell_volume 4651.817639
_symmetry_space_group_name_H-M "I M M A"
_symmetry_group_IT_number 74
_symmetry_cell_setting 'orthorhombic'
loop_
_space_group_symop_operation_xyz
x,y,z
-x,1/2-y,z
x,-y,-z
-x,1/2+y,-z
-x,-y,-z
x,1/2+y,-z
-x,y,z
x,1/2-y,z
1/2+x,1/2+y,1/2+z
1/2-x,-y,1/2+z
1/2+x,1/2-y,1/2-z
1/2-x,y,1/2-z
1/2-x,1/2-y,1/2-z
1/2+x,y,1/2-z
1/2-x,1/2+y,1/2+z
1/2+x,-y,1/2+z
loop_
_atom_site_type_symbol
_atom_site_label
_atom_site_fract_x
_atom_site_fract_y
_atom_site_fract_z
Si Si1 0.329707 0.887459 0.310756
Si Si2 0.589828 0.250000 0.721656
Si Si3 0.092710 0.476657 0.662529
Si Si4 0.317912 0.612886 0.828799
Si Si5 0.214164 0.605553 0.459162
Si Si6 0.144747 0.750000 0.428742
Si Si7 0.408607 0.250000 0.136441
O O1 0.250000 0.881540 0.250000
O O2 0.368157 0.814418 0.324323
O O3 0.392776 0.937084 0.260682
O O4 0.299147 0.916388 0.412163
O O5 0.500000 0.250000 0.686005
O O6 0.590177 0.250000 0.835696
O O7 0.116565 0.554164 0.683004
O O8 0.142132 0.443277 0.576026
O O9 0.000000 0.472284 0.634207
O O10 0.250000 0.607811 0.750000
O O11 0.363094 0.684603 0.822349
O O12 0.275199 0.601670 0.929227
O O13 0.198862 0.682929 0.426324
O O14 0.090213 0.750000 0.522560
O O15 0.500000 0.250000 0.172038
#
# Coordination Sequence:
#
# PCOD8297865 Si02
#       7
#    16   8  16  16  16   8   8
#     4  10  19  33  52  79 116 151 177 210 263 332
#     4  12  19  28  52  81 118 150 174 210 262 328
#     4  11  22  35  56  87 116 140 175 226 282 332
#     4  11  23  40  60  80 105 145 191 231 274 321
#     4  10  21  35  57  81 112 152 182 223 268 324
#     4  10  18  31  53  85 117 143 176 212 270 328
#     4  10  22  38  58  83 110 136 176 238 290 320
#
# _framework density 18.917337
#
# number of rings (size 3 to 8) (size 9 to 14) (size 15 to 20)
#    0.000    1.455    3.636    4.636    0.000    4.364 
#    0.000    0.000    0.000    6.545    0.000    0.000 
#    0.000    0.000    0.000    0.000    0.000    0.000 
#
# Total GULP energy -545559.259637 kJ/mol
# GULP energy per Si atom -12399.074083 kJ/mol
# Density = 1.887428 g / cm^3
# Si number density = 18.917337 Si / 1000 Ang^3
#
#
#
# Elastic Constant Matrix: (Units=GPa)
#
#
# Indices 1 2 3 4 5 6 
#
# 1 89.8539 34.1507 55.9250 0.0000 0.0000 0.0000
# 2 34.1507 126.7599 33.6076 0.0000 0.0000 0.0000
# 3 55.9250 33.6076 106.1662 0.0000 0.0000 0.0000
# 4 0.0000 0.0000 0.0000 104.0754 0.0000 0.0000
# 5 0.0000 0.0000 0.0000 0.0000 14.7242 0.0000
# 6 0.0000 0.0000 0.0000 0.0000 0.0000 24.5467
#
#
#
# Elastic Compliance Matrix: (Units=1/GPa)
#
#
# Indices 1 2 3 4 5 6 
#
# 1 0.017222 -0.002439 -0.008300 0.000000 0.000000 0.000000
# 2 -0.002439 0.008957 -0.001551 0.000000 0.000000 0.000000
# 3 -0.008300 -0.001551 0.014282 0.000000 0.000000 0.000000
# 4 0.000000 0.000000 0.000000 0.009608 0.000000 0.000000
# 5 0.000000 0.000000 0.000000 0.000000 0.067915 0.000000
# 6 0.000000 0.000000 0.000000 0.000000 0.000000 0.040739
#
#
# Mechanical properties :
#
#
# Convention : Reuss Voigt Hill
#
# Bulk Modulus (GPa) = 62.96423 63.34962 63.15693
# Shear Modulus (GPa) = 26.51148 41.94236 34.22692
#
# Velocity S-wave (km/s) = 3.74764 4.71376 4.25819
# Velocity P-wave (km/s) = 7.21682 7.94898 7.59173
#
# Compressibility (1/GPa) = 0.01588203
#
# Stress axis : x y z
#
# Youngs Moduli (GPa) = 58.06483 111.64209 70.01756
#
# Poissons Ratio (x) = 0.27233 0.58114
# Poissons Ratio (y) = 0.14164 0.10856
# Poissons Ratio (z) = 0.48193 0.17310
#
# Static dielectric constant tensor:
#      x y z
#    x 3.369290 0.000000 0.000000 
#    y 0.000000 3.705550 0.000000 
#    z 0.000000 0.000000 3.683050 
# 
# 
# High freq. dielectric constant tensor:
#      x y z
#    x 1.717840 0.000000 0.000000 
#    y 0.000000 1.754410 0.000000 
#    z 0.000000 0.000000 1.716940 
# 
# From -- ./inp_files/32238.got.cif
#   From: 2010.03.12/outbox.cif.g09.slc.cpg/sg74_17_cif.got.tgz:32238.got - 2010.04.16 15:46:19.
