data_PCOD8297397
_publ_section_title
;
Structure prediction by ZEFSAII (Michael W. Deem and Ramdas Pophale) SiO2 
 PCOD8297397
Probable space group: I M M A
;
_chemical_formula_sum "Si O2"
_cell_formula_units_Z 88
_cell_length_a 34.384848
_cell_length_b 8.966480
_cell_length_c 23.017739
_cell_angle_alpha 90.000000
_cell_angle_beta 90.000000
_cell_angle_gamma 90.000000
_cell_volume 7096.623323
_symmetry_space_group_name_H-M "I M M A"
_symmetry_group_IT_number 74
_symmetry_cell_setting 'orthorhombic'
loop_
_space_group_symop_operation_xyz
x,y,z
-x,1/2-y,z
x,-y,-z
-x,1/2+y,-z
-x,-y,-z
x,1/2+y,-z
-x,y,z
x,1/2-y,z
1/2+x,1/2+y,1/2+z
1/2-x,-y,1/2+z
1/2+x,1/2-y,1/2-z
1/2-x,y,1/2-z
1/2-x,1/2-y,1/2-z
1/2+x,y,1/2-z
1/2-x,1/2+y,1/2+z
1/2+x,-y,1/2+z
loop_
_atom_site_type_symbol
_atom_site_label
_atom_site_fract_x
_atom_site_fract_y
_atom_site_fract_z
Si Si1 0.500000 0.429550 0.436111
Si Si2 0.154181 0.424273 0.870648
Si Si3 0.731251 0.580983 0.839782
Si Si4 0.423096 0.427903 0.562661
Si Si5 0.229894 0.425742 0.938444
Si Si6 0.189027 0.082428 0.229892
O O1 0.500000 0.250000 0.436566
O O2 0.500000 0.500000 0.500000
O O3 0.460875 0.495679 0.406692
O O4 0.158400 0.250000 0.865268
O O5 0.113080 0.471760 0.897176
O O6 0.188725 0.483722 0.912433
O O7 0.157113 0.487058 0.805026
O O8 0.722697 0.750000 0.860151
O O9 0.734792 0.474952 0.895909
O O10 0.771029 0.575234 0.804693
O O11 0.696934 0.524479 0.795994
O O12 0.415521 0.500000 0.500000
O O13 0.428603 0.250000 0.556422
O O14 0.230596 0.250000 0.946128
O O15 0.236810 0.500000 0.000000
O O16 0.173160 0.250000 0.232979
#
# Coordination Sequence:
#
# PCOD8297397 Si02
#       6
#     8  16  16  16  16  16
#     4  10  18  28  40  52  64  82 108 136 165 202
#     4   9  18  27  36  51  69  86 107 136 171 205
#     4   8  14  25  37  49  64  84 108 134 163 198
#     4  10  18  28  39  51  67  87 109 136 169 205
#     4  10  18  26  35  49  67  88 111 138 170 203
#     4   8  14  24  38  51  64  83 107 133 164 198
#
# _framework density 12.400264
#
# number of rings (size 3 to 8) (size 9 to 14) (size 15 to 20)
#    0.000    2.909    0.000    4.636    0.000    2.909 
#    0.000    3.636    0.000    0.000    0.000    0.000 
#    0.000    0.000    0.000    0.000    0.000    0.000 
#
# Total GULP energy -545189.199826 kJ/mol
# GULP energy per Si atom -12390.663632 kJ/mol
# Density = 1.237204 g / cm^3
# Si number density = 12.400264 Si / 1000 Ang^3
#
#
#
# Elastic Constant Matrix: (Units=GPa)
#
#
# Indices 1 2 3 4 5 6 
#
# 1 60.3555 29.7697 46.9282 0.0000 0.0000 0.0000
# 2 29.7697 52.6655 36.1017 0.0000 0.0000 0.0000
# 3 46.9282 36.1017 80.8735 0.0000 0.0000 0.0000
# 4 0.0000 0.0000 0.0000 21.5120 0.0000 0.0000
# 5 0.0000 0.0000 0.0000 0.0000 16.2312 0.0000
# 6 0.0000 0.0000 0.0000 0.0000 0.0000 16.3404
#
#
#
# Elastic Compliance Matrix: (Units=1/GPa)
#
#
# Indices 1 2 3 4 5 6 
#
# 1 0.032263 -0.007786 -0.015245 0.000000 0.000000 0.000000
# 2 -0.007786 0.029239 -0.008534 0.000000 0.000000 0.000000
# 3 -0.015245 -0.008534 0.025021 0.000000 0.000000 0.000000
# 4 0.000000 0.000000 0.000000 0.046486 0.000000 0.000000
# 5 0.000000 0.000000 0.000000 0.000000 0.061610 0.000000
# 6 0.000000 0.000000 0.000000 0.000000 0.000000 0.061198
#
#
# Mechanical properties :
#
#
# Convention : Reuss Voigt Hill
#
# Bulk Modulus (GPa) = 42.75075 46.61042 44.68058
# Shear Modulus (GPa) = 15.30249 16.22304 15.76277
#
# Velocity S-wave (km/s) = 3.51671 3.62094 3.56921
# Velocity P-wave (km/s) = 7.14424 7.42640 7.28669
#
# Compressibility (1/GPa) = 0.02339140
#
# Stress axis : x y z
#
# Youngs Moduli (GPa) = 30.99568 34.20067 39.96678
#
# Poissons Ratio (x) = 0.26630 0.60930
# Poissons Ratio (y) = 0.24134 0.34108
# Poissons Ratio (z) = 0.47253 0.29187
#
# Static dielectric constant tensor:
#      x y z
#    x 2.702770 0.000000 0.000000 
#    y 0.000000 2.621180 0.000000 
#    z 0.000000 0.000000 2.639300 
# 
# 
# High freq. dielectric constant tensor:
#      x y z
#    x 1.434050 0.000000 0.000000 
#    y 0.000000 1.480330 0.000000 
#    z 0.000000 0.000000 1.447820 
# 
# From -- ./inp_files/57772.got.cif
#   From: 2010.03.12/outbox.cif.g09.slc.cpg/sg74_29_cif.got.tgz:57772.got - 2010.04.16 15:46:19.
