data_PCOD8297649
_publ_section_title
;
Structure prediction by ZEFSAII (Michael W. Deem and Ramdas Pophale) SiO2 
 PCOD8297649
Probable space group: I M M A
;
_chemical_formula_sum "Si O2"
_cell_formula_units_Z 112
_cell_length_a 28.476803
_cell_length_b 13.730727
_cell_length_c 16.765304
_cell_angle_alpha 90.000000
_cell_angle_beta 90.000000
_cell_angle_gamma 90.000000
_cell_volume 6555.354705
_symmetry_space_group_name_H-M "I M M A"
_symmetry_group_IT_number 74
_symmetry_cell_setting 'orthorhombic'
loop_
_space_group_symop_operation_xyz
x,y,z
-x,1/2-y,z
x,-y,-z
-x,1/2+y,-z
-x,-y,-z
x,1/2+y,-z
-x,y,z
x,1/2-y,z
1/2+x,1/2+y,1/2+z
1/2-x,-y,1/2+z
1/2+x,1/2-y,1/2-z
1/2-x,y,1/2-z
1/2-x,1/2-y,1/2-z
1/2+x,y,1/2-z
1/2-x,1/2+y,1/2+z
1/2+x,-y,1/2+z
loop_
_atom_site_type_symbol
_atom_site_label
_atom_site_fract_x
_atom_site_fract_y
_atom_site_fract_z
Si Si1 0.322320 0.138579 0.417239
Si Si2 0.948729 0.550370 0.125900
Si Si3 0.804156 0.355419 0.254771
Si Si4 0.642849 0.363162 0.690360
Si Si5 0.775286 0.134031 0.928762
Si Si6 0.072605 0.139404 0.041573
Si Si7 0.707051 0.449328 0.811779
O O1 0.309791 0.250000 0.400191
O O2 0.320721 0.092435 0.328807
O O3 0.283513 0.097375 0.479772
O O4 0.371634 0.126470 0.460633
O O5 0.906289 0.578374 0.184655
O O6 0.947974 0.434898 0.106480
O O7 0.000000 0.571962 0.165051
O O8 0.945575 0.614032 0.045810
O O9 0.829493 0.250000 0.273270
O O10 0.750000 0.331756 0.250000
O O11 0.813131 0.439505 0.320880
O O12 0.631407 0.250000 0.679386
O O13 0.679334 0.399805 0.622517
O O14 0.665606 0.380700 0.777804
O O15 0.771308 0.250000 0.923882
O O16 0.726509 0.088971 0.896327
O O17 0.058007 0.250000 0.064161
O O18 0.750000 0.448488 0.750000
#
# Coordination Sequence:
#
# PCOD8297649 Si02
#       7
#    16  16  16  16  16  16  16
#     4   9  16  28  47  64  80 110 151 194 229 264
#     4  11  22  31  42  61  82 113 154 187 222 269
#     4   9  17  29  41  57  85 116 148 179 215 268
#     4  10  18  30  44  60  84 109 135 180 231 273
#     4   9  16  28  46  67  83 103 143 191 233 268
#     4  10  19  32  45  59  80 108 147 195 236 263
#     4   9  17  28  42  64  84 107 141 178 225 270
#
# _framework density 17.085270000000001
#
# number of rings (size 3 to 8) (size 9 to 14) (size 15 to 20)
#    0.000    2.429    1.429    2.571    0.000    3.714 
#    0.000    0.000    0.000    0.000    0.000    1.000 
#    0.000    0.000    0.000    0.000    0.000   47.143 
#
# Total GULP energy -693815.669970 kJ/mol
# GULP energy per Si atom -12389.565535 kJ/mol
# Density = 1.704638 g / cm^3
# Si number density = 17.085270 Si / 1000 Ang^3
#
#
#
# Elastic Constant Matrix: (Units=GPa)
#
#
# Indices 1 2 3 4 5 6 
#
# 1 85.6796 26.0240 32.1073 0.0000 0.0000 0.0000
# 2 26.0240 75.3769 6.3387 0.0000 0.0000 0.0000
# 3 32.1073 6.3387 27.6926 0.0000 0.0000 0.0000
# 4 0.0000 0.0000 0.0000 13.6498 0.0000 0.0000
# 5 0.0000 0.0000 0.0000 0.0000 20.4491 0.0000
# 6 0.0000 0.0000 0.0000 0.0000 0.0000 12.0264
#
#
#
# Elastic Compliance Matrix: (Units=1/GPa)
#
#
# Indices 1 2 3 4 5 6 
#
# 1 0.022864 -0.005776 -0.025187 0.000000 0.000000 0.000000
# 2 -0.005776 0.014986 0.003266 0.000000 0.000000 0.000000
# 3 -0.025187 0.003266 0.064566 0.000000 0.000000 0.000000
# 4 0.000000 0.000000 0.000000 0.073261 0.000000 0.000000
# 5 0.000000 0.000000 0.000000 0.000000 0.048902 0.000000
# 6 0.000000 0.000000 0.000000 0.000000 0.000000 0.083150
#
#
# Mechanical properties :
#
#
# Convention : Reuss Voigt Hill
#
# Bulk Modulus (GPa) = 21.26637 35.29879 28.28258
# Shear Modulus (GPa) = 13.19968 17.51034 15.35501
#
# Velocity S-wave (km/s) = 2.78254 3.20485 3.00113
# Velocity P-wave (km/s) = 4.77468 5.86515 5.34778
#
# Compressibility (1/GPa) = 0.04702260
#
# Stress axis : x y z
#
# Youngs Moduli (GPa) = 43.73626 66.72851 15.48814
#
# Poissons Ratio (x) = 0.38541 0.39010
# Poissons Ratio (y) = 0.25261 -0.05059
# Poissons Ratio (z) = 1.10160 -0.21796
#
# Static dielectric constant tensor:
#      x y z
#    x 3.118690 0.000000 0.000000 
#    y 0.000000 3.554260 0.000000 
#    z 0.000000 0.000000 2.965620 
# 
# 
# High freq. dielectric constant tensor:
#      x y z
#    x 1.622160 0.000000 0.000000 
#    y 0.000000 1.689660 0.000000 
#    z 0.000000 0.000000 1.599630 
# 
# From -- ./inp_files/37975.got.cif
#   From: 2010.03.12/outbox.cif.g09.slc.cpg/sg74_19_cif.got.tgz:37975.got - 2010.04.16 15:46:19.
