data_PCOD8297136
_publ_section_title
;
Structure prediction by ZEFSAII (Michael W. Deem and Ramdas Pophale) SiO2 
 PCOD8297136
Probable space group: I M M A
;
_chemical_formula_sum "Si O2"
_cell_formula_units_Z 128
_cell_length_a 18.846904
_cell_length_b 22.487074
_cell_length_c 19.305620
_cell_angle_alpha 90.000000
_cell_angle_beta 90.000000
_cell_angle_gamma 90.000000
_cell_volume 8181.948113
_symmetry_space_group_name_H-M "I M M A"
_symmetry_group_IT_number 74
_symmetry_cell_setting 'orthorhombic'
loop_
_space_group_symop_operation_xyz
x,y,z
-x,1/2-y,z
x,-y,-z
-x,1/2+y,-z
-x,-y,-z
x,1/2+y,-z
-x,y,z
x,1/2-y,z
1/2+x,1/2+y,1/2+z
1/2-x,-y,1/2+z
1/2+x,1/2-y,1/2-z
1/2-x,y,1/2-z
1/2-x,1/2-y,1/2-z
1/2+x,y,1/2-z
1/2-x,1/2+y,1/2+z
1/2+x,-y,1/2+z
loop_
_atom_site_type_symbol
_atom_site_label
_atom_site_fract_x
_atom_site_fract_y
_atom_site_fract_z
Si Si1 0.682970 0.085126 0.048224
Si Si2 0.081756 0.387016 0.335280
Si Si3 0.079021 0.068038 0.977510
Si Si4 0.582608 0.519715 0.214243
Si Si5 0.831758 0.101469 0.101210
Si Si6 0.671441 0.819647 0.729300
Si Si7 0.683168 0.952118 0.099453
Si Si8 0.166094 0.466166 0.851728
O O1 0.615169 0.112013 0.087775
O O2 0.753489 0.118352 0.074325
O O3 0.691411 0.016423 0.066022
O O4 0.675466 0.093687 0.965001
O O5 0.093242 0.449180 0.295245
O O6 0.118014 0.335269 0.291056
O O7 0.000000 0.371480 0.344854
O O8 0.123387 0.073161 0.907203
O O9 0.000000 0.092169 0.964421
O O10 0.114141 0.107968 0.037331
O O11 0.077930 0.000000 0.000000
O O12 0.500000 0.535896 0.224159
O O13 0.612809 0.553204 0.146377
O O14 0.628764 0.543393 0.278131
O O15 0.854503 0.148000 0.159750
O O16 0.835647 0.035742 0.132192
O O17 0.670005 0.750000 0.715352
O O18 0.750000 0.842077 0.750000
O O19 0.753246 0.941289 0.146710
#
# Coordination Sequence:
#
# PCOD8297136 Si02
#       8
#    16  16  16  16  16  16  16  16
#     4   9  16  29  44  60  81 108 147 188 221 266
#     4  10  20  32  46  62  82 116 153 189 231 269
#     4   9  17  26  40  65  88 109 141 179 219 265
#     4  10  19  27  39  62  91 120 149 182 220 262
#     4  10  17  29  47  60  82 113 148 187 226 270
#     4  11  22  34  49  66  85 114 154 200 241 269
#     4   9  17  26  42  62  82 112 149 181 219 263
#     4  10  16  26  44  63  86 118 147 181 217 267
#
# _framework density 15.644195
#
# number of rings (size 3 to 8) (size 9 to 14) (size 15 to 20)
#    0.000    2.250    3.750    0.750    0.000    1.750 
#    0.000    2.500    0.000    0.000    0.000    0.000 
#    0.000    0.000    0.000    3.375    0.000    6.125 
#
# Total GULP energy -793453.250801 kJ/mol
# GULP energy per Si atom -12397.707044 kJ/mol
# Density = 1.560859 g / cm^3
# Si number density = 15.644195 Si / 1000 Ang^3
#
#
#
# Elastic Constant Matrix: (Units=GPa)
#
#
# Indices 1 2 3 4 5 6 
#
# 1 114.6808 19.0671 50.0721 0.0000 0.0000 0.0000
# 2 19.0671 26.3980 25.6149 0.0000 0.0000 0.0000
# 3 50.0721 25.6149 107.6019 0.0000 0.0000 0.0000
# 4 0.0000 0.0000 0.0000 12.4336 0.0000 0.0000
# 5 0.0000 0.0000 0.0000 0.0000 29.0731 0.0000
# 6 0.0000 0.0000 0.0000 0.0000 0.0000 10.8577
#
#
#
# Elastic Compliance Matrix: (Units=1/GPa)
#
#
# Indices 1 2 3 4 5 6 
#
# 1 0.011253 -0.003962 -0.004293 0.000000 0.000000 0.000000
# 2 -0.003962 0.050655 -0.010215 0.000000 0.000000 0.000000
# 3 -0.004293 -0.010215 0.013723 0.000000 0.000000 0.000000
# 4 0.000000 0.000000 0.000000 0.080427 0.000000 0.000000
# 5 0.000000 0.000000 0.000000 0.000000 0.034396 0.000000
# 6 0.000000 0.000000 0.000000 0.000000 0.000000 0.092100
#
#
# Mechanical properties :
#
#
# Convention : Reuss Voigt Hill
#
# Bulk Modulus (GPa) = 25.84587 48.68764 37.26676
# Shear Modulus (GPa) = 15.04243 20.73465 17.88854
#
# Velocity S-wave (km/s) = 3.10423 3.64454 3.38518
# Velocity P-wave (km/s) = 5.42266 6.99283 6.25719
#
# Compressibility (1/GPa) = 0.03869091
#
# Stress axis : x y z
#
# Youngs Moduli (GPa) = 88.86347 19.74125 72.86946
#
# Poissons Ratio (x) = 0.07821 0.31286
# Poissons Ratio (y) = 0.35208 0.74436
# Poissons Ratio (z) = 0.38153 0.20166
#
# Static dielectric constant tensor:
#      x y z
#    x 3.145940 0.000000 0.000000 
#    y 0.000000 2.373560 0.000000 
#    z 0.000000 0.000000 3.106470 
# 
# 
# High freq. dielectric constant tensor:
#      x y z
#    x 1.614090 0.000000 0.000000 
#    y 0.000000 1.518230 0.000000 
#    z 0.000000 0.000000 1.609980 
# 
# From -- ./inp_files/44623.got.cif
#   From: 2010.03.12/outbox.cif.g09.slc.cpg/sg74_23_cif.got.tgz:44623.got - 2010.04.16 15:46:19.
