data_PCOD8297264
_publ_section_title
;
Structure prediction by ZEFSAII (Michael W. Deem and Ramdas Pophale) SiO2 
 PCOD8297264
Probable space group: I M M A
;
_chemical_formula_sum "Si O2"
_cell_formula_units_Z 96
_cell_length_a 9.170362
_cell_length_b 28.200320
_cell_length_c 26.136469
_cell_angle_alpha 90.000000
_cell_angle_beta 90.000000
_cell_angle_gamma 90.000000
_cell_volume 6759.077574
_symmetry_space_group_name_H-M "I M M A"
_symmetry_group_IT_number 74
_symmetry_cell_setting 'orthorhombic'
loop_
_space_group_symop_operation_xyz
x,y,z
-x,1/2-y,z
x,-y,-z
-x,1/2+y,-z
-x,-y,-z
x,1/2+y,-z
-x,y,z
x,1/2-y,z
1/2+x,1/2+y,1/2+z
1/2-x,-y,1/2+z
1/2+x,1/2-y,1/2-z
1/2-x,y,1/2-z
1/2-x,1/2-y,1/2-z
1/2+x,y,1/2-z
1/2-x,1/2+y,1/2+z
1/2+x,-y,1/2+z
loop_
_atom_site_type_symbol
_atom_site_label
_atom_site_fract_x
_atom_site_fract_y
_atom_site_fract_z
Si Si1 0.171810 0.110923 0.199106
Si Si2 0.170099 0.891491 0.999486
Si Si3 0.668713 0.450076 0.398573
Si Si4 0.168407 0.803662 0.533988
Si Si5 0.664857 0.029548 0.948137
Si Si6 0.167562 0.803931 0.652224
O O1 0.250000 0.091829 0.250000
O O2 0.213791 0.074722 0.154120
O O3 0.228809 0.163381 0.186196
O O4 0.000000 0.113763 0.207806
O O5 0.233306 0.838360 0.000201
O O6 0.247329 0.921649 0.044199
O O7 0.000000 0.890016 0.011568
O O8 0.205036 0.913934 0.944284
O O9 0.500000 0.464369 0.399856
O O10 0.761035 0.498337 0.403617
O O11 0.197179 0.750000 0.515351
O O12 0.212767 0.808719 0.593138
O O13 0.000000 0.817464 0.526587
O O14 0.500000 0.041448 0.932004
O O15 0.671185 0.000000 0.000000
O O16 0.190145 0.750000 0.670557
O O17 0.000000 0.819513 0.659905
#
# Coordination Sequence:
#
# PCOD8297264 Si02
#       6
#    16  16  16  16  16  16
#     4  11  22  34  46  61  78 102 134 170 213 255
#     4  10  17  27  43  62  83 105 130 163 201 241
#     4   9  18  31  43  58  80 102 127 164 206 245
#     4   9  17  28  42  60  82 107 135 168 205 244
#     4   9  17  27  42  63  81 101 128 157 196 242
#     4   9  18  32  47  60  75  99 132 172 216 255
#
# _framework density 14.203122
#
# number of rings (size 3 to 8) (size 9 to 14) (size 15 to 20)
#    0.000    2.500    1.667    2.500    0.000    5.000 
#    0.000    1.667    0.000    0.000    0.000    0.000 
#    0.000    0.000    0.000    0.000    0.000    0.833 
#
# Total GULP energy -595245.870660 kJ/mol
# GULP energy per Si atom -12400.955639 kJ/mol
# Density = 1.417080 g / cm^3
# Si number density = 14.203122 Si / 1000 Ang^3
#
#
#
# Elastic Constant Matrix: (Units=GPa)
#
#
# Indices 1 2 3 4 5 6 
#
# 1 86.1133 54.9089 35.6879 0.0000 0.0000 0.0000
# 2 54.9089 84.8682 43.4033 0.0000 0.0000 0.0000
# 3 35.6879 43.4033 46.2822 0.0000 0.0000 0.0000
# 4 0.0000 0.0000 0.0000 19.0257 0.0000 0.0000
# 5 0.0000 0.0000 0.0000 0.0000 19.1686 0.0000
# 6 0.0000 0.0000 0.0000 0.0000 0.0000 29.4493
#
#
#
# Elastic Compliance Matrix: (Units=1/GPa)
#
#
# Indices 1 2 3 4 5 6 
#
# 1 0.020753 -0.010075 -0.006554 0.000000 0.000000 0.000000
# 2 -0.010075 0.027534 -0.018052 0.000000 0.000000 0.000000
# 3 -0.006554 -0.018052 0.043590 0.000000 0.000000 0.000000
# 4 0.000000 0.000000 0.000000 0.052561 0.000000 0.000000
# 5 0.000000 0.000000 0.000000 0.000000 0.052169 0.000000
# 6 0.000000 0.000000 0.000000 0.000000 0.000000 0.033957
#
#
# Mechanical properties :
#
#
# Convention : Reuss Voigt Hill
#
# Bulk Modulus (GPa) = 44.41756 53.91822 49.16789
# Shear Modulus (GPa) = 16.26388 19.07963 17.67175
#
# Velocity S-wave (km/s) = 3.38759 3.66914 3.53117
# Velocity P-wave (km/s) = 6.82950 7.48296 7.16368
#
# Compressibility (1/GPa) = 0.02251362
#
# Stress axis : x y z
#
# Youngs Moduli (GPa) = 48.18559 36.31908 22.94123
#
# Poissons Ratio (x) = 0.36592 0.15036
# Poissons Ratio (y) = 0.48548 0.41414
# Poissons Ratio (z) = 0.31581 0.65564
#
# Static dielectric constant tensor:
#      x y z
#    x 2.833780 0.000000 0.000000 
#    y 0.000000 2.752140 0.000000 
#    z 0.000000 0.000000 2.480000 
# 
# 
# High freq. dielectric constant tensor:
#      x y z
#    x 1.555010 0.000000 0.000000 
#    y 0.000000 1.533470 0.000000 
#    z 0.000000 0.000000 1.490770 
# 
# From -- ./inp_files/49033.got.cif
#   From: 2010.03.12/outbox.cif.g09.slc.cpg/sg74_25_cif.got.tgz:49033.got - 2010.04.16 15:46:19.
