data_PCOD8297333
_publ_section_title
;
Structure prediction by ZEFSAII (Michael W. Deem and Ramdas Pophale) SiO2 
 PCOD8297333
Probable space group: I M M A
;
_chemical_formula_sum "Si O2"
_cell_formula_units_Z 64
_cell_length_a 15.229130
_cell_length_b 24.838772
_cell_length_c 8.760573
_cell_angle_alpha 90.000000
_cell_angle_beta 90.000000
_cell_angle_gamma 90.000000
_cell_volume 3313.887248
_symmetry_space_group_name_H-M "I M M A"
_symmetry_group_IT_number 74
_symmetry_cell_setting 'orthorhombic'
loop_
_space_group_symop_operation_xyz
x,y,z
-x,1/2-y,z
x,-y,-z
-x,1/2+y,-z
-x,-y,-z
x,1/2+y,-z
-x,y,z
x,1/2-y,z
1/2+x,1/2+y,1/2+z
1/2-x,-y,1/2+z
1/2+x,1/2-y,1/2-z
1/2-x,y,1/2-z
1/2-x,1/2-y,1/2-z
1/2+x,y,1/2-z
1/2-x,1/2+y,1/2+z
1/2+x,-y,1/2+z
loop_
_atom_site_type_symbol
_atom_site_label
_atom_site_fract_x
_atom_site_fract_y
_atom_site_fract_z
Si Si1 0.500000 0.437695 0.180447
Si Si2 0.396830 0.250000 0.151377
Si Si3 0.654411 0.750000 0.184360
Si Si4 0.000000 0.441273 0.683184
Si Si5 0.157582 0.364249 0.320134
Si Si6 0.153887 0.866067 0.316092
O O1 0.500000 0.498126 0.247429
O O2 0.414016 0.406744 0.240946
O O3 0.500000 0.439591 0.998492
O O4 0.500000 0.250000 0.112885
O O5 0.159171 0.250000 0.502463
O O6 0.369906 0.304476 0.240898
O O7 0.750000 0.750000 0.250000
O O8 0.613084 0.692538 0.236758
O O9 0.087222 0.411329 0.744671
O O10 0.250000 0.381520 0.250000
O O11 0.161241 0.366494 0.501990
O O12 0.250000 0.877784 0.250000
#
# Coordination Sequence:
#
# PCOD8297333 Si02
#       6
#     8   8   8   8  16  16
#     4   9  18  33  48  74  97 127 170 206 236 289
#     4  10  17  29  52  76  98 130 169 200 240 300
#     4   8  16  27  46  75 100 121 157 202 239 281
#     4   9  18  31  52  70  97 129 168 206 238 283
#     4  10  19  32  52  75  99 129 161 204 247 288
#     4   9  18  32  50  74  99 127 163 201 244 293
#
# _framework density 19.312666
#
# number of rings (size 3 to 8) (size 9 to 14) (size 15 to 20)
#    0.000    2.750    1.250    0.375    5.250    1.000 
#    0.000    1.250    0.000    1.500    0.000    0.000 
#    0.000    0.000    0.000    0.000    0.000    0.000 
#
# Total GULP energy -396437.957093 kJ/mol
# GULP energy per Si atom -12388.686159 kJ/mol
# Density = 1.926871 g / cm^3
# Si number density = 19.312666 Si / 1000 Ang^3
#
#
#
# Elastic Constant Matrix: (Units=GPa)
#
#
# Indices 1 2 3 4 5 6 
#
# 1 159.3993 99.1823 23.5603 0.0000 0.0000 0.0000
# 2 99.1823 209.8489 14.4679 0.0000 0.0000 0.0000
# 3 23.5603 14.4679 13.4355 -0.0009 -0.0003 0.0004
# 4 0.0000 0.0000 -0.0009 10.5157 -0.0001 0.0001
# 5 0.0000 0.0000 -0.0003 -0.0001 25.8673 0.0000
# 6 0.0000 0.0000 0.0004 0.0001 0.0000 29.4810
#
#
#
# Elastic Compliance Matrix: (Units=1/GPa)
#
#
# Indices 1 2 3 4 5 6 
#
# 1 0.011106 -0.004220 -0.014932 -0.000001 0.000000 0.000000
# 2 -0.004220 0.006751 0.000130 0.000000 0.000000 0.000000
# 3 -0.014932 0.000130 0.100474 0.000009 0.000001 -0.000001
# 4 -0.000001 0.000000 0.000009 0.095096 0.000000 0.000000
# 5 0.000000 0.000000 0.000001 0.000000 0.038659 0.000000
# 6 0.000000 0.000000 -0.000001 0.000000 0.000000 0.033920
#
#
# Mechanical properties :
#
#
# Convention : Reuss Voigt Hill
#
# Bulk Modulus (GPa) = 12.45516 73.01164 42.73340
# Shear Modulus (GPa) = 14.25272 29.53769 21.89521
#
# Velocity S-wave (km/s) = 2.71956 3.91506 3.37073
# Velocity P-wave (km/s) = 4.04037 7.63702 6.10936
#
# Compressibility (1/GPa) = 0.08028802
#
# Stress axis : x y z
#
# Youngs Moduli (GPa) = 90.03994 148.13146 9.95287
#
# Poissons Ratio (x) = 0.62508 0.14861
# Poissons Ratio (y) = 0.37994 -0.00130
# Poissons Ratio (z) = 1.34445 -0.01928
#
# Static dielectric constant tensor:
#      x y z
#    x 3.600010 0.000000 0.000000 
#    y 0.000000 4.212600 0.000000 
#    z 0.000000 0.000000 2.943810 
# 
# 
# High freq. dielectric constant tensor:
#      x y z
#    x 1.753340 0.000000 0.000000 
#    y 0.000000 1.769840 0.000000 
#    z 0.000000 0.000000 1.690130 
# 
# From -- ./inp_files/8909.got.cif
#   From: 2010.03.12/outbox.cif.g09.slc.cpg/sg74_5_cif.got.tgz:8909.got - 2010.04.16 15:46:19.
