data_PCOD8297848
_publ_section_title
;
Structure prediction by ZEFSAII (Michael W. Deem and Ramdas Pophale) SiO2 
 PCOD8297848
Probable space group: I M M A
;
_chemical_formula_sum "Si O2"
_cell_formula_units_Z 88
_cell_length_a 21.932800
_cell_length_b 9.120553
_cell_length_c 24.742398
_cell_angle_alpha 90.000000
_cell_angle_beta 90.000000
_cell_angle_gamma 90.000000
_cell_volume 4949.451106
_symmetry_space_group_name_H-M "I M M A"
_symmetry_group_IT_number 74
_symmetry_cell_setting 'orthorhombic'
loop_
_space_group_symop_operation_xyz
x,y,z
-x,1/2-y,z
x,-y,-z
-x,1/2+y,-z
-x,-y,-z
x,1/2+y,-z
-x,y,z
x,1/2-y,z
1/2+x,1/2+y,1/2+z
1/2-x,-y,1/2+z
1/2+x,1/2-y,1/2-z
1/2-x,y,1/2-z
1/2-x,1/2-y,1/2-z
1/2+x,y,1/2-z
1/2-x,1/2+y,1/2+z
1/2+x,-y,1/2+z
loop_
_atom_site_type_symbol
_atom_site_label
_atom_site_fract_x
_atom_site_fract_y
_atom_site_fract_z
Si Si1 0.067072 0.923253 0.235258
Si Si2 0.380696 0.077284 0.624419
Si Si3 0.500000 0.078701 0.557042
Si Si4 0.855722 0.579494 0.554248
Si Si5 0.927737 0.917407 0.354774
Si Si6 0.714691 0.921419 0.554569
O O1 0.059128 0.750000 0.232290
O O2 0.110951 0.974009 0.186709
O O3 0.093275 0.965621 0.294309
O O4 0.000000 0.994039 0.227186
O O5 0.367575 0.250000 0.619706
O O6 0.440527 0.032453 0.590768
O O7 0.322664 0.987516 0.604167
O O8 0.500000 0.250000 0.545694
O O9 0.500000 0.000000 0.500000
O O10 0.878119 0.500000 0.500000
O O11 0.867595 0.750000 0.545900
O O12 0.894921 0.524831 0.604247
O O13 0.785233 0.544628 0.565969
O O14 0.908177 0.750000 0.366689
O O15 0.000000 0.934605 0.360401
O O16 0.701484 0.750000 0.548481
O O17 0.692396 0.000000 0.500000
#
# Coordination Sequence:
#
# PCOD8297848 Si02
#       6
#    16  16   8  16  16  16
#     4   8  14  29  52  76 103 135 171 209 250 297
#     4  10  18  31  52  75 100 135 174 212 255 300
#     4  10  20  30  44  70 102 132 167 212 257 298
#     4  10  21  37  56  76 102 135 169 208 254 306
#     4   9  18  33  56  83 107 132 165 207 252 301
#     4  10  21  36  52  72  99 134 174 214 257 304
#
# _framework density 17.77975
#
# number of rings (size 3 to 8) (size 9 to 14) (size 15 to 20)
#    0.000    2.545    0.909    2.727    0.000    5.091 
#    0.000    1.818    0.000    6.545    0.000    0.000 
#    0.000    0.000    0.000    0.000    0.000    0.000 
#
# Total GULP energy -545565.635190 kJ/mol
# GULP energy per Si atom -12399.218982 kJ/mol
# Density = 1.773928 g / cm^3
# Si number density = 17.779750 Si / 1000 Ang^3
#
#
#
# Elastic Constant Matrix: (Units=GPa)
#
#
# Indices 1 2 3 4 5 6 
#
# 1 56.8593 37.0272 59.8359 0.0000 0.0000 0.0000
# 2 37.0272 65.6658 56.7220 0.0000 0.0000 0.0000
# 3 59.8359 56.7220 162.6454 0.0000 0.0000 0.0000
# 4 0.0000 0.0000 0.0000 29.0104 0.0000 0.0000
# 5 0.0000 0.0000 0.0000 0.0000 20.9825 0.0000
# 6 0.0000 0.0000 0.0000 0.0000 0.0000 29.6488
#
#
#
# Elastic Compliance Matrix: (Units=1/GPa)
#
#
# Indices 1 2 3 4 5 6 
#
# 1 0.034299 -0.012080 -0.008406 0.000000 0.000000 0.000000
# 2 -0.012080 0.026048 -0.004640 0.000000 0.000000 0.000000
# 3 -0.008406 -0.004640 0.010859 0.000000 0.000000 0.000000
# 4 0.000000 0.000000 0.000000 0.034470 0.000000 0.000000
# 5 0.000000 0.000000 0.000000 0.000000 0.047659 0.000000
# 6 0.000000 0.000000 0.000000 0.000000 0.000000 0.033728
#
#
# Mechanical properties :
#
#
# Convention : Reuss Voigt Hill
#
# Bulk Modulus (GPa) = 47.72034 65.81562 56.76798
# Shear Modulus (GPa) = 20.46661 24.70070 22.58366
#
# Velocity S-wave (km/s) = 3.39650 3.73132 3.56784
# Velocity P-wave (km/s) = 6.50227 7.46065 6.99788
#
# Compressibility (1/GPa) = 0.02095542
#
# Stress axis : x y z
#
# Youngs Moduli (GPa) = 29.15501 38.39033 92.08955
#
# Poissons Ratio (x) = 0.46374 0.77408
# Poissons Ratio (y) = 0.35218 0.42732
# Poissons Ratio (z) = 0.24507 0.17814
#
# Static dielectric constant tensor:
#      x y z
#    x 3.177090 0.000000 0.000000 
#    y 0.000000 3.093790 0.000000 
#    z 0.000000 0.000000 3.547190 
# 
# 
# High freq. dielectric constant tensor:
#      x y z
#    x 1.674840 0.000000 0.000000 
#    y 0.000000 1.670000 0.000000 
#    z 0.000000 0.000000 1.698640 
# 
# From -- ./inp_files/48759.got.cif
#   From: 2010.03.12/outbox.cif.g09.slc.cpg/sg74_25_cif.got.tgz:48759.got - 2010.04.16 15:46:19.
