data_PCOD8297386
_publ_section_title
;
Structure prediction by ZEFSAII (Michael W. Deem and Ramdas Pophale) SiO2 
 PCOD8297386
Probable space group: I M M A
;
_chemical_formula_sum "Si O2"
_cell_formula_units_Z 56
_cell_length_a 17.891079
_cell_length_b 16.538290
_cell_length_c 9.864647
_cell_angle_alpha 90.000000
_cell_angle_beta 90.000000
_cell_angle_gamma 90.000000
_cell_volume 2918.829221
_symmetry_space_group_name_H-M "I M M A"
_symmetry_group_IT_number 74
_symmetry_cell_setting 'orthorhombic'
loop_
_space_group_symop_operation_xyz
x,y,z
-x,1/2-y,z
x,-y,-z
-x,1/2+y,-z
-x,-y,-z
x,1/2+y,-z
-x,y,z
x,1/2-y,z
1/2+x,1/2+y,1/2+z
1/2-x,-y,1/2+z
1/2+x,1/2-y,1/2-z
1/2-x,y,1/2-z
1/2-x,1/2-y,1/2-z
1/2+x,y,1/2-z
1/2-x,1/2+y,1/2+z
1/2+x,-y,1/2+z
loop_
_atom_site_type_symbol
_atom_site_label
_atom_site_fract_x
_atom_site_fract_y
_atom_site_fract_z
Si Si1 0.750000 0.102748 0.750000
Si Si2 0.148073 0.029915 0.357043
Si Si3 0.083148 0.577018 0.905833
Si Si4 0.267099 0.339791 0.459303
O O1 0.740503 0.159399 0.620704
O O2 0.820893 0.045811 0.726460
O O3 0.083596 0.061158 0.257111
O O4 0.214018 0.095405 0.384590
O O5 0.113625 0.000000 0.500000
O O6 0.145992 0.643962 0.929459
O O7 0.000000 0.609061 0.942083
O O8 0.102472 0.500000 0.000000
O O9 0.246181 0.250000 0.407299
#
# Coordination Sequence:
#
# PCOD8297386 Si02
#       4
#     8  16  16  16
#     4  10  17  36  57  80 108 144 184 224 267 332
#     4  10  19  35  59  80 109 141 187 231 268 322
#     4  11  21  36  56  80 112 151 187 221 271 333
#     4  11  21  34  57  87 113 142 181 233 283 321
#
# _framework density 19.185775
#
# number of rings (size 3 to 8) (size 9 to 14) (size 15 to 20)
#    0.000    1.429    5.714    1.286    0.000    3.429 
#    0.000    0.000    0.000    0.000    0.000    0.000 
#    0.000    0.000    0.000    0.000    0.000    0.000 
#
# Total GULP energy -346965.301607 kJ/mol
# GULP energy per Si atom -12391.617915 kJ/mol
# Density = 1.914211 g / cm^3
# Si number density = 19.185775 Si / 1000 Ang^3
#
#
#
# Elastic Constant Matrix: (Units=GPa)
#
#
# Indices 1 2 3 4 5 6 
#
# 1 65.6880 21.3332 31.5886 0.0000 0.0000 0.0000
# 2 21.3332 87.2618 19.8303 0.0000 0.0000 0.0000
# 3 31.5886 19.8303 109.3156 0.0000 0.0000 0.0000
# 4 0.0000 0.0000 0.0000 11.6590 0.0000 0.0000
# 5 0.0000 0.0000 0.0000 0.0000 20.0694 0.0000
# 6 0.0000 0.0000 0.0000 0.0000 0.0000 14.9006
#
#
#
# Elastic Compliance Matrix: (Units=1/GPa)
#
#
# Indices 1 2 3 4 5 6 
#
# 1 0.018639 -0.003476 -0.004756 0.000000 0.000000 0.000000
# 2 -0.003476 0.012601 -0.001281 0.000000 0.000000 0.000000
# 3 -0.004756 -0.001281 0.010754 0.000000 0.000000 0.000000
# 4 0.000000 0.000000 0.000000 0.085771 0.000000 0.000000
# 5 0.000000 0.000000 0.000000 0.000000 0.049827 0.000000
# 6 0.000000 0.000000 0.000000 0.000000 0.000000 0.067111
#
#
# Mechanical properties :
#
#
# Convention : Reuss Voigt Hill
#
# Bulk Modulus (GPa) = 43.53791 45.30775 44.42283
# Shear Modulus (GPa) = 18.42397 21.96004 20.19200
#
# Velocity S-wave (km/s) = 3.10222 3.38686 3.24766
# Velocity P-wave (km/s) = 5.96438 6.24188 6.10470
#
# Compressibility (1/GPa) = 0.02296849
#
# Stress axis : x y z
#
# Youngs Moduli (GPa) = 53.65012 79.36022 92.98459
#
# Poissons Ratio (x) = 0.27586 0.44219
# Poissons Ratio (y) = 0.18649 0.11915
# Poissons Ratio (z) = 0.25514 0.10169
#
# Static dielectric constant tensor:
#      x y z
#    x 3.128960 0.000000 0.000000 
#    y 0.000000 3.259760 0.000000 
#    z 0.000000 0.000000 3.926400 
# 
# 
# High freq. dielectric constant tensor:
#      x y z
#    x 1.715040 0.000000 0.000000 
#    y 0.000000 1.721800 0.000000 
#    z 0.000000 0.000000 1.775590 
# 
# From -- ./inp_files/9985.got.cif
#   From: 2010.03.12/outbox.cif.g09.slc.cpg/sg74_5_cif.got.tgz:9985.got - 2010.04.16 15:46:19.
