data_PCOD8297355
_publ_section_title
;
Structure prediction by ZEFSAII (Michael W. Deem and Ramdas Pophale) SiO2 
 PCOD8297355
Probable space group: I M M A
;
_chemical_formula_sum "Si O2"
_cell_formula_units_Z 112
_cell_length_a 30.909056
_cell_length_b 13.419176
_cell_length_c 13.829351
_cell_angle_alpha 90.000000
_cell_angle_beta 90.000000
_cell_angle_gamma 90.000000
_cell_volume 5736.056095
_symmetry_space_group_name_H-M "I M M A"
_symmetry_group_IT_number 74
_symmetry_cell_setting 'orthorhombic'
loop_
_space_group_symop_operation_xyz
x,y,z
-x,1/2-y,z
x,-y,-z
-x,1/2+y,-z
-x,-y,-z
x,1/2+y,-z
-x,y,z
x,1/2-y,z
1/2+x,1/2+y,1/2+z
1/2-x,-y,1/2+z
1/2+x,1/2-y,1/2-z
1/2-x,y,1/2-z
1/2-x,1/2-y,1/2-z
1/2+x,y,1/2-z
1/2-x,1/2+y,1/2+z
1/2+x,-y,1/2+z
loop_
_atom_site_type_symbol
_atom_site_label
_atom_site_fract_x
_atom_site_fract_y
_atom_site_fract_z
Si Si1 0.580083 0.136968 0.411057
Si Si2 0.049112 0.633790 0.698254
Si Si3 0.871260 0.868093 0.229473
Si Si4 0.701607 0.865842 0.765627
Si Si5 0.545837 0.134758 0.616643
Si Si6 0.130547 0.980380 0.612945
Si Si7 0.664678 0.477391 0.399322
O O1 0.598160 0.250000 0.410882
O O2 0.554785 0.113503 0.312295
O O3 0.548790 0.119181 0.501638
O O4 0.617167 0.057321 0.428683
O O5 0.055753 0.750000 0.675447
O O6 0.085603 0.576209 0.636200
O O7 0.000000 0.601218 0.668823
O O8 0.863921 0.750000 0.228583
O O9 0.915397 0.908740 0.180495
O O10 0.870393 0.910154 0.338077
O O11 0.833924 0.922194 0.166137
O O12 0.701755 0.750000 0.792853
O O13 0.750000 0.908447 0.750000
O O14 0.672610 0.920843 0.847066
O O15 0.682274 0.883133 0.659498
O O16 0.500000 0.087060 0.650061
O O17 0.545881 0.250000 0.641734
O O18 0.135803 0.000000 0.500000
O O19 0.690122 0.500000 0.500000
#
# Coordination Sequence:
#
# PCOD8297355 Si02
#       7
#    16  16  16  16  16  16  16
#     4  10  17  30  53  83 117 152 192 238 291 352
#     4  10  20  35  58  89 123 159 205 262 312 354
#     4  10  21  36  51  76 112 154 200 238 282 340
#     4  10  22  42  68  94 118 146 187 243 302 363
#     4   9  17  29  47  75 114 156 194 232 279 340
#     4  11  24  41  63  86 116 157 203 252 306 356
#     4  11  20  33  56  88 118 152 185 226 288 353
#
# _framework density 19.52561
#
# number of rings (size 3 to 8) (size 9 to 14) (size 15 to 20)
#    0.000    1.857    4.286    1.286    0.000    4.857 
#    0.000    0.714    0.000    8.571    0.000    0.000 
#    0.000    0.000    0.000    0.000    0.000    0.000 
#
# Total GULP energy -693741.135947 kJ/mol
# GULP energy per Si atom -12388.234570 kJ/mol
# Density = 1.948117 g / cm^3
# Si number density = 19.525610 Si / 1000 Ang^3
#
#
#
# Elastic Constant Matrix: (Units=GPa)
#
#
# Indices 1 2 3 4 5 6 
#
# 1 93.0779 26.0560 39.9461 0.0000 0.0000 0.0000
# 2 26.0560 85.8531 32.4795 0.0000 0.0000 0.0000
# 3 39.9461 32.4795 148.7196 0.0000 0.0000 0.0000
# 4 0.0000 0.0000 0.0000 19.9752 0.0000 0.0000
# 5 0.0000 0.0000 0.0000 0.0000 -3.6197 0.0000
# 6 0.0000 0.0000 0.0000 0.0000 0.0000 19.8087
#
#
#
# Elastic Compliance Matrix: (Units=1/GPa)
#
#
# Indices 1 2 3 4 5 6 
#
# 1 0.012733 -0.002802 -0.002808 0.000000 0.000000 0.000000
# 2 -0.002802 0.013313 -0.002155 0.000000 0.000000 0.000000
# 3 -0.002808 -0.002155 0.007949 0.000000 0.000000 0.000000
# 4 0.000000 0.000000 0.000000 0.050062 0.000000 0.000000
# 5 0.000000 0.000000 0.000000 0.000000 -0.276269 0.000000
# 6 0.000000 0.000000 0.000000 0.000000 0.000000 0.050483
#
#
# Mechanical properties :
#
#
# Convention : Reuss Voigt Hill
#
# Bulk Modulus (GPa) = 54.15580 58.29043 56.22311
# Shear Modulus (GPa) = -41.65195 22.51077 -9.57059
#
# Velocity S-wave (km/s) = -4.62366 3.39910 -2.21635
# Velocity P-wave (km/s) = 0.84165 6.73226 4.72308
#
# Compressibility (1/GPa) = 0.01846524
#
# Stress axis : x y z
#
# Youngs Moduli (GPa) = 78.53428 75.11184 125.80237
#
# Poissons Ratio (x) = 0.21047 0.35328
# Poissons Ratio (y) = 0.22006 0.27110
# Poissons Ratio (z) = 0.22054 0.16186
#
# Static dielectric constant tensor:
#      x y z
#    x 3.688700 0.000000 0.000000 
#    y 0.000000 3.596910 0.000000 
#    z 0.000000 0.000000 3.445180 
# 
# 
# High freq. dielectric constant tensor:
#      x y z
#    x 1.741730 0.000000 0.000000 
#    y 0.000000 1.771810 0.000000 
#    z 0.000000 0.000000 1.742800 
# 
# From -- ./inp_files/37918.got.cif
#   From: 2010.03.12/outbox.cif.g09.slc.cpg/sg74_19_cif.got.tgz:37918.got - 2010.04.16 15:46:19.
