data_PCOD8297893
_publ_section_title
;
Structure prediction by ZEFSAII (Michael W. Deem and Ramdas Pophale) SiO2 
 PCOD8297893
Probable space group: I M M A
;
_chemical_formula_sum "Si O2"
_cell_formula_units_Z 112
_cell_length_a 17.609738
_cell_length_b 17.284340
_cell_length_c 21.507910
_cell_angle_alpha 90.000000
_cell_angle_beta 90.000000
_cell_angle_gamma 90.000000
_cell_volume 6546.420614
_symmetry_space_group_name_H-M "I M M A"
_symmetry_group_IT_number 74
_symmetry_cell_setting 'orthorhombic'
loop_
_space_group_symop_operation_xyz
x,y,z
-x,1/2-y,z
x,-y,-z
-x,1/2+y,-z
-x,-y,-z
x,1/2+y,-z
-x,y,z
x,1/2-y,z
1/2+x,1/2+y,1/2+z
1/2-x,-y,1/2+z
1/2+x,1/2-y,1/2-z
1/2-x,y,1/2-z
1/2-x,1/2-y,1/2-z
1/2+x,y,1/2-z
1/2-x,1/2+y,1/2+z
1/2+x,-y,1/2+z
loop_
_atom_site_type_symbol
_atom_site_label
_atom_site_fract_x
_atom_site_fract_y
_atom_site_fract_z
Si Si1 0.315992 0.964049 0.564714
Si Si2 0.705249 0.661585 0.310716
Si Si3 0.208200 0.837509 0.523296
Si Si4 0.589836 0.469689 0.671216
Si Si5 0.413672 0.665458 0.870815
Si Si6 0.808113 0.082479 0.601150
Si Si7 0.088085 0.509856 0.691019
O O1 0.285287 0.877343 0.550518
O O2 0.346525 0.000000 0.500000
O O3 0.382246 0.971184 0.616768
O O4 0.244773 0.008556 0.592907
O O5 0.679804 0.750000 0.301414
O O6 0.750000 0.629896 0.250000
O O7 0.630480 0.613786 0.330619
O O8 0.765073 0.653620 0.366309
O O9 0.231209 0.750000 0.505312
O O10 0.139922 0.838485 0.570654
O O11 0.170410 0.884740 0.466222
O O12 0.500000 0.458115 0.663742
O O13 0.614414 0.502945 0.737926
O O14 0.500000 0.652772 0.893817
O O15 0.405343 0.750000 0.838105
O O16 0.389572 0.598079 0.823922
O O17 0.877083 0.053333 0.643880
O O18 0.000000 0.493208 0.685067
#
# Coordination Sequence:
#
# PCOD8297893 Si02
#       7
#    16  16  16  16  16  16  16
#     4   9  19  34  54  76 100 133 175 220 271 317
#     4  10  19  32  52  75 103 139 172 211 262 312
#     4  10  19  32  51  75 105 139 180 224 266 313
#     4  10  21  36  55  79 105 137 177 223 270 320
#     4   9  18  32  49  72 105 142 176 213 262 316
#     4  10  18  32  50  75 104 136 175 217 258 315
#     4  10  19  32  51  75 106 142 177 217 266 319
#
# _framework density 17.108587
#
# number of rings (size 3 to 8) (size 9 to 14) (size 15 to 20)
#    0.000    2.286    2.857    0.429    0.000    1.143 
#    0.000    2.143    0.000    4.286    0.000    0.000 
#    0.000    0.000    0.000    0.000    0.000    0.000 
#
# Total GULP energy -693927.795165 kJ/mol
# GULP energy per Si atom -12391.567771 kJ/mol
# Density = 1.706965 g / cm^3
# Si number density = 17.108587 Si / 1000 Ang^3
#
#
#
# Elastic Constant Matrix: (Units=GPa)
#
#
# Indices 1 2 3 4 5 6 
#
# 1 62.1531 41.3747 37.1006 0.0000 0.0000 0.0000
# 2 41.3747 102.8959 41.7452 0.0000 0.0000 0.0000
# 3 37.1006 41.7452 94.7510 0.0000 0.0000 0.0000
# 4 0.0000 0.0000 0.0000 20.9843 0.0000 0.0000
# 5 0.0000 0.0000 0.0000 0.0000 22.8908 0.0000
# 6 0.0000 0.0000 0.0000 0.0000 0.0000 16.2694
#
#
#
# Elastic Compliance Matrix: (Units=1/GPa)
#
#
# Indices 1 2 3 4 5 6 
#
# 1 0.024868 -0.007366 -0.006492 0.000000 0.000000 0.000000
# 2 -0.007366 0.014015 -0.003291 0.000000 0.000000 0.000000
# 3 -0.006492 -0.003291 0.014546 0.000000 0.000000 0.000000
# 4 0.000000 0.000000 0.000000 0.047655 0.000000 0.000000
# 5 0.000000 0.000000 0.000000 0.000000 0.043686 0.000000
# 6 0.000000 0.000000 0.000000 0.000000 0.000000 0.061465
#
#
# Mechanical properties :
#
#
# Convention : Reuss Voigt Hill
#
# Bulk Modulus (GPa) = 52.26821 55.58235 53.92528
# Shear Modulus (GPa) = 20.25040 21.33420 20.79230
#
# Velocity S-wave (km/s) = 3.44414 3.53510 3.48992
# Velocity P-wave (km/s) = 6.81420 7.01578 6.91572
#
# Compressibility (1/GPa) = 0.01913209
#
# Stress axis : x y z
#
# Youngs Moduli (GPa) = 40.21276 71.35039 68.74802
#
# Poissons Ratio (x) = 0.52553 0.44632
# Poissons Ratio (y) = 0.29619 0.22624
# Poissons Ratio (z) = 0.26107 0.23480
#
# Static dielectric constant tensor:
#      x y z
#    x 3.035760 0.000000 0.000000 
#    y 0.000000 3.410220 0.000000 
#    z 0.000000 0.000000 3.470140 
# 
# 
# High freq. dielectric constant tensor:
#      x y z
#    x 1.642740 0.000000 0.000000 
#    y 0.000000 1.658920 0.000000 
#    z 0.000000 0.000000 1.666020 
# 
# From -- ./inp_files/53219.got.cif
#   From: 2010.03.12/outbox.cif.g09.slc.cpg/sg74_27_cif.got.tgz:53219.got - 2010.04.16 15:46:19.
