data_PCOD8297014
_publ_section_title
;
Structure prediction by ZEFSAII (Michael W. Deem and Ramdas Pophale) SiO2 
 PCOD8297014
Probable space group: I B C A 
;
_chemical_formula_sum "Si O2"
_cell_formula_units_Z 88
_cell_length_a 24.427651
_cell_length_b 12.649155
_cell_length_c 12.346057
_cell_angle_alpha 90.000000
_cell_angle_beta 90.000000
_cell_angle_gamma 90.000000
_cell_volume 3814.797582
_symmetry_space_group_name_H-M "I B C A "
_symmetry_group_IT_number 73
_symmetry_cell_setting 'orthorhombic'
loop_
_space_group_symop_operation_xyz
x,y,z
-x,1/2-y,z
x,-y,1/2-z
1/2-x,y,-z
-x,-y,-z
x,1/2+y,-z
-x,y,1/2+z
1/2+x,-y,z
1/2+x,1/2+y,1/2+z
1/2-x,-y,1/2+z
1/2+x,1/2-y,-z
-x,1/2+y,1/2-z
1/2-x,1/2-y,1/2-z
1/2+x,y,1/2-z
1/2-x,1/2+y,z
x,1/2-y,1/2+z
loop_
_atom_site_type_symbol
_atom_site_label
_atom_site_fract_x
_atom_site_fract_y
_atom_site_fract_z
Si Si1 0.847716 0.226393 0.318420
Si Si2 0.676141 0.508093 0.419991
Si Si3 0.079755 0.373956 0.141195
Si Si4 0.212714 0.567128 0.652299
Si Si5 0.547688 0.171236 0.092499
Si Si6 0.509310 0.000000 0.250000
O O1 0.876909 0.204023 0.201681
O O2 0.799029 0.311633 0.317328
O O3 0.893655 0.278735 0.390826
O O4 0.820117 0.129361 0.383014
O O5 0.614649 0.477241 0.388963
O O6 0.721249 0.440377 0.354147
O O7 0.685420 0.484868 0.546274
O O8 0.029225 0.403439 0.216338
O O9 0.047414 0.333593 0.036833
O O10 0.188246 0.500000 0.750000
O O11 0.500000 0.250000 0.131643
O O12 0.544501 0.055722 0.153366
#
# Coordination Sequence:
#
# PCOD8297014 Si02
#       6
#    16  16  16  16  16   8
#     4  12  26  47  75 106 150 197 245 310 377 442
#     4  11  25  49  72 105 150 194 242 313 380 442
#     4  12  24  47  74 104 150 192 251 303 372 446
#     4  11  27  45  74 112 143 193 257 304 377 455
#     4  12  27  46  73 109 142 197 246 303 372 438
#     4  12  26  48  72 104 146 194 244 312 370 442
#
# _framework density 23.068066000000002
#
# number of rings (size 3 to 8) (size 9 to 14) (size 15 to 20)
#    0.000    0.364    5.455    1.636    6.364    5.818 
#    0.000    0.000    0.000    0.000    0.000    0.000 
#    0.000    0.000    0.000    0.000    0.000    0.000 
#
# Total GULP energy -545217.073823 kJ/mol
# GULP energy per Si atom -12391.297132 kJ/mol
# Density = 2.301556 g / cm^3
# Si number density = 23.068066 Si / 1000 Ang^3
#
#
#
# Elastic Constant Matrix: (Units=GPa)
#
#
# Indices 1 2 3 4 5 6 
#
# 1 83.0150 42.2861 13.1246 0.0000 0.0000 0.0000
# 2 42.2861 136.4070 50.7290 0.0000 0.0000 0.0000
# 3 13.1246 50.7290 143.6436 0.0000 0.0000 0.0000
# 4 0.0000 0.0000 0.0000 28.9849 0.0000 0.0000
# 5 0.0000 0.0000 0.0000 0.0000 18.1117 0.0000
# 6 0.0000 0.0000 0.0000 0.0000 0.0000 10.5615
#
#
#
# Elastic Compliance Matrix: (Units=1/GPa)
#
#
# Indices 1 2 3 4 5 6 
#
# 1 0.014316 -0.004549 0.000298 0.000000 0.000000 0.000000
# 2 -0.004549 0.009885 -0.003075 0.000000 0.000000 0.000000
# 3 0.000298 -0.003075 0.008020 0.000000 0.000000 0.000000
# 4 0.000000 0.000000 0.000000 0.034501 0.000000 0.000000
# 5 0.000000 0.000000 0.000000 0.000000 0.055213 0.000000
# 6 0.000000 0.000000 0.000000 0.000000 0.000000 0.094684
#
#
# Mechanical properties :
#
#
# Convention : Reuss Voigt Hill
#
# Bulk Modulus (GPa) = 56.91599 63.92722 60.42160
# Shear Modulus (GPa) = 21.08576 28.66000 24.87288
#
# Velocity S-wave (km/s) = 3.02663 3.52861 3.28722
# Velocity P-wave (km/s) = 6.07788 6.66138 6.37631
#
# Compressibility (1/GPa) = 0.01756975
#
# Stress axis : x y z
#
# Youngs Moduli (GPa) = 69.85209 101.16485 124.68099
#
# Poissons Ratio (x) = 0.46019 -0.03721
# Poissons Ratio (y) = 0.31775 0.38343
# Poissons Ratio (z) = -0.02085 0.31111
#
# Static dielectric constant tensor:
#      x y z
#    x 4.231850 0.000000 0.000000 
#    y 0.000000 4.522830 0.000000 
#    z 0.000000 0.000000 4.367950 
# 
# 
# High freq. dielectric constant tensor:
#      x y z
#    x 1.921860 0.000000 0.000000 
#    y 0.000000 1.904210 0.000000 
#    z 0.000000 0.000000 1.923930 
# 
# From -- ./inp_files/19256.got.cif
#   From: 2010.03.12/outbox.cif.g09.slc.cpg/sg73_10_cif.got.tgz:19256.got - 2010.04.16 15:25:48.
