data_PCOD8297902
_publ_section_title
;
Structure prediction by ZEFSAII (Michael W. Deem and Ramdas Pophale) SiO2 
 PCOD8297902
Probable space group: I M M A
;
_chemical_formula_sum "Si O2"
_cell_formula_units_Z 88
_cell_length_a 8.697139
_cell_length_b 19.778799
_cell_length_c 30.502449
_cell_angle_alpha 90.000000
_cell_angle_beta 90.000000
_cell_angle_gamma 90.000000
_cell_volume 5246.999681
_symmetry_space_group_name_H-M "I M M A"
_symmetry_group_IT_number 74
_symmetry_cell_setting 'orthorhombic'
loop_
_space_group_symop_operation_xyz
x,y,z
-x,1/2-y,z
x,-y,-z
-x,1/2+y,-z
-x,-y,-z
x,1/2+y,-z
-x,y,z
x,1/2-y,z
1/2+x,1/2+y,1/2+z
1/2-x,-y,1/2+z
1/2+x,1/2-y,1/2-z
1/2-x,y,1/2-z
1/2-x,1/2-y,1/2-z
1/2+x,y,1/2-z
1/2-x,1/2+y,1/2+z
1/2+x,-y,1/2+z
loop_
_atom_site_type_symbol
_atom_site_label
_atom_site_fract_x
_atom_site_fract_y
_atom_site_fract_z
Si Si1 0.171462 0.175482 0.931725
Si Si2 0.681403 0.611372 0.202281
Si Si3 0.318479 0.462014 0.456268
Si Si4 0.322600 0.951547 0.375405
Si Si5 0.183817 0.250000 0.798500
Si Si6 0.678080 0.174465 0.021820
O O1 0.184179 0.250000 0.910348
O O2 0.202959 0.123154 0.893917
O O3 0.000000 0.163954 0.951896
O O4 0.294232 0.166397 0.970160
O O5 0.500000 0.618183 0.206436
O O6 0.750000 0.595562 0.250000
O O7 0.726857 0.548747 0.170021
O O8 0.751886 0.680284 0.180907
O O9 0.252184 0.500000 0.500000
O O10 0.500000 0.469602 0.457014
O O11 0.255392 0.496510 0.411649
O O12 0.271548 0.383593 0.453081
O O13 0.500000 0.967556 0.364911
O O14 0.250000 0.250000 0.750000
O O15 0.000000 0.250000 0.800105
O O16 0.500000 0.163842 0.031792
O O17 0.731167 0.250000 0.037045
#
# Coordination Sequence:
#
# PCOD8297902 Si02
#       6
#    16  16  16  16   8  16
#     4   9  17  30  47  66  91 128 168 203 243 290
#     4  11  22  36  51  70  95 125 164 206 253 298
#     4  10  19  34  52  72  98 131 168 203 243 295
#     4  10  20  33  50  72  96 126 165 207 250 295
#     4  10  18  32  52  70  92 124 164 208 256 294
#     4  10  20  32  47  69  98 131 166 207 249 287
#
# _framework density 16.77149
#
# number of rings (size 3 to 8) (size 9 to 14) (size 15 to 20)
#    0.000    2.000    1.818    4.091    1.273    2.909 
#    0.000    0.000    0.000    0.000    0.000    0.000 
#    0.000    0.727    0.000    2.364    0.000    3.455 
#
# Total GULP energy -545319.733046 kJ/mol
# GULP energy per Si atom -12393.630296 kJ/mol
# Density = 1.673332 g / cm^3
# Si number density = 16.771490 Si / 1000 Ang^3
#
#
#
# Elastic Constant Matrix: (Units=GPa)
#
#
# Indices 1 2 3 4 5 6 
#
# 1 67.3416 23.0138 29.3881 0.0000 0.0000 0.0000
# 2 23.0138 83.9105 43.4809 0.0000 0.0000 0.0000
# 3 29.3881 43.4809 83.5552 0.0000 0.0000 0.0000
# 4 0.0000 0.0000 0.0000 28.2002 0.0000 0.0000
# 5 0.0000 0.0000 0.0000 0.0000 21.6866 0.0000
# 6 0.0000 0.0000 0.0000 0.0000 0.0000 23.3430
#
#
#
# Elastic Compliance Matrix: (Units=1/GPa)
#
#
# Indices 1 2 3 4 5 6 
#
# 1 0.017847 -0.002248 -0.005107 0.000000 0.000000 0.000000
# 2 -0.002248 0.016601 -0.007848 0.000000 0.000000 0.000000
# 3 -0.005107 -0.007848 0.017848 0.000000 0.000000 0.000000
# 4 0.000000 0.000000 0.000000 0.035461 0.000000 0.000000
# 5 0.000000 0.000000 0.000000 0.000000 0.046111 0.000000
# 6 0.000000 0.000000 0.000000 0.000000 0.000000 0.042839
#
#
# Mechanical properties :
#
#
# Convention : Reuss Voigt Hill
#
# Bulk Modulus (GPa) = 45.68492 47.39700 46.54096
# Shear Modulus (GPa) = 23.31972 23.90759 23.61365
#
# Velocity S-wave (km/s) = 3.73290 3.77966 3.75636
# Velocity P-wave (km/s) = 6.77334 6.88256 6.82817
#
# Compressibility (1/GPa) = 0.02188906
#
# Stress axis : x y z
#
# Youngs Moduli (GPa) = 56.03258 60.23794 56.02746
#
# Poissons Ratio (x) = 0.13544 0.28613
# Poissons Ratio (y) = 0.12598 0.43971
# Poissons Ratio (z) = 0.28616 0.47275
#
# Static dielectric constant tensor:
#      x y z
#    x 3.089300 0.000000 0.000000 
#    y 0.000000 3.274990 0.000000 
#    z 0.000000 0.000000 3.016930 
# 
# 
# High freq. dielectric constant tensor:
#      x y z
#    x 1.643780 0.000000 0.000000 
#    y 0.000000 1.626330 0.000000 
#    z 0.000000 0.000000 1.621850 
# 
# From -- ./inp_files/70248.got.cif
#   From: 2010.03.12/outbox.cif.g09.slc.cpg/sg74_36_cif.got.tgz:70248.got - 2010.04.16 15:46:19.
