data_PCOD8297577
_publ_section_title
;
Structure prediction by ZEFSAII (Michael W. Deem and Ramdas Pophale) SiO2 
 PCOD8297577
Probable space group: I M M A
;
_chemical_formula_sum "Si O2"
_cell_formula_units_Z 120
_cell_length_a 26.685646
_cell_length_b 9.030923
_cell_length_c 27.291836
_cell_angle_alpha 90.000000
_cell_angle_beta 90.000000
_cell_angle_gamma 90.000000
_cell_volume 6577.223697
_symmetry_space_group_name_H-M "I M M A"
_symmetry_group_IT_number 74
_symmetry_cell_setting 'orthorhombic'
loop_
_space_group_symop_operation_xyz
x,y,z
-x,1/2-y,z
x,-y,-z
-x,1/2+y,-z
-x,-y,-z
x,1/2+y,-z
-x,y,z
x,1/2-y,z
1/2+x,1/2+y,1/2+z
1/2-x,-y,1/2+z
1/2+x,1/2-y,1/2-z
1/2-x,y,1/2-z
1/2-x,1/2-y,1/2-z
1/2+x,y,1/2-z
1/2-x,1/2+y,1/2+z
1/2+x,-y,1/2+z
loop_
_atom_site_type_symbol
_atom_site_label
_atom_site_fract_x
_atom_site_fract_y
_atom_site_fract_z
Si Si1 0.390641 0.425286 0.446731
Si Si2 0.500000 0.919464 0.550378
Si Si3 0.200928 0.577935 0.100693
Si Si4 0.738781 0.917203 0.193988
Si Si5 0.350087 0.080601 0.148441
Si Si6 0.294692 0.575583 0.949426
Si Si7 0.942936 0.911965 0.543883
Si Si8 0.445275 0.576272 0.144808
O O1 0.384668 0.500000 0.500000
O O2 0.380351 0.250000 0.451600
O O3 0.446648 0.456719 0.423369
O O4 0.351741 0.497866 0.409071
O O5 0.500000 0.750000 0.536080
O O6 0.500000 0.000000 0.500000
O O7 0.197556 0.750000 0.085620
O O8 0.212999 0.560490 0.158721
O O9 0.243641 0.501241 0.068209
O O10 0.718225 0.750000 0.187185
O O11 0.750000 0.950834 0.250000
O O12 0.697519 0.035090 0.179458
O O13 0.361296 0.250000 0.157897
O O14 0.339067 0.048061 0.090570
O O15 0.397759 0.994265 0.172103
O O16 0.284499 0.750000 0.956312
O O17 0.311923 0.500000 0.000000
O O18 0.917036 0.750000 0.552534
O O19 0.000000 0.882566 0.528473
O O20 0.915282 0.000000 0.500000
O O21 0.940444 0.012429 0.590996
O O22 0.500000 0.533379 0.167551
O O23 0.439091 0.750000 0.143116
#
# Coordination Sequence:
#
# PCOD8297577 Si02
#       8
#    16   8  16  16  16  16  16  16
#     4  10  18  29  45  68 101 139 178 214 247 286
#     4   8  16  28  42  62  92 134 178 214 244 276
#     4  10  19  31  49  74 101 129 163 202 250 301
#     4   9  19  37  59  80 101 126 158 203 254 307
#     4  10  21  35  52  76 103 130 163 205 250 300
#     4  10  20  33  48  68  97 133 169 204 246 293
#     4   9  16  26  40  58  83 117 158 202 242 279
#     4  10  20  33  49  69  94 126 163 201 243 290
#
# _framework density 18.244779000000001
#
# number of rings (size 3 to 8) (size 9 to 14) (size 15 to 20)
#    0.000    2.400    0.000    2.800    0.000    5.867 
#    0.000    1.333    0.000    0.000    1.733    0.000 
#    0.000    0.000    0.000    0.000    0.000    0.000 
#
# Total GULP energy -743434.228606 kJ/mol
# GULP energy per Si atom -12390.570477 kJ/mol
# Density = 1.820325 g / cm^3
# Si number density = 18.244779 Si / 1000 Ang^3
#
#
#
# Elastic Constant Matrix: (Units=GPa)
#
#
# Indices 1 2 3 4 5 6 
#
# 1 129.9437 69.5778 26.6498 0.0000 0.0000 0.0000
# 2 69.5778 102.7890 31.6256 0.0000 0.0000 0.0000
# 3 26.6498 31.6256 66.6686 0.0000 0.0000 0.0000
# 4 0.0000 0.0000 0.0000 18.2948 0.0000 0.0000
# 5 0.0000 0.0000 0.0000 0.0000 10.8796 0.0000
# 6 0.0000 0.0000 0.0000 0.0000 0.0000 29.3289
#
#
#
# Elastic Compliance Matrix: (Units=1/GPa)
#
#
# Indices 1 2 3 4 5 6 
#
# 1 0.012141 -0.007874 -0.001118 0.000000 0.000000 0.000000
# 2 -0.007874 0.016498 -0.004679 0.000000 0.000000 0.000000
# 3 -0.001118 -0.004679 0.017666 0.000000 0.000000 0.000000
# 4 0.000000 0.000000 0.000000 0.054660 0.000000 0.000000
# 5 0.000000 0.000000 0.000000 0.000000 0.091915 0.000000
# 6 0.000000 0.000000 0.000000 0.000000 0.000000 0.034096
#
#
# Mechanical properties :
#
#
# Convention : Reuss Voigt Hill
#
# Bulk Modulus (GPa) = 52.73287 61.67862 57.20574
# Shear Modulus (GPa) = 19.18355 23.13721 21.16038
#
# Velocity S-wave (km/s) = 3.24613 3.56498 3.40929
# Velocity P-wave (km/s) = 6.55862 7.12917 6.84984
#
# Compressibility (1/GPa) = 0.01896351
#
# Stress axis : x y z
#
# Youngs Moduli (GPa) = 82.36381 60.61194 56.60645
#
# Poissons Ratio (x) = 0.47729 0.06328
# Poissons Ratio (y) = 0.64857 0.26484
# Poissons Ratio (z) = 0.09207 0.28358
#
# Static dielectric constant tensor:
#      x y z
#    x 4.019140 0.000000 0.000000 
#    y 0.000000 3.570400 0.000000 
#    z 0.000000 0.000000 2.956980 
# 
# 
# High freq. dielectric constant tensor:
#      x y z
#    x 1.719150 0.000000 0.000000 
#    y 0.000000 1.726950 0.000000 
#    z 0.000000 0.000000 1.650750 
# 
# From -- ./inp_files/69037.got.cif
#   From: 2010.03.12/outbox.cif.g09.slc.cpg/sg74_35_cif.got.tgz:69037.got - 2010.04.16 15:46:19.
