data_PCOD8297374
_publ_section_title
;
Structure prediction by ZEFSAII (Michael W. Deem and Ramdas Pophale) SiO2 
 PCOD8297374
Probable space group: I M M A
;
_chemical_formula_sum "Si O2"
_cell_formula_units_Z 96
_cell_length_a 17.922204
_cell_length_b 16.724891
_cell_length_c 18.774548
_cell_angle_alpha 90.000000
_cell_angle_beta 90.000000
_cell_angle_gamma 90.000000
_cell_volume 5627.612719
_symmetry_space_group_name_H-M "I M M A"
_symmetry_group_IT_number 74
_symmetry_cell_setting 'orthorhombic'
loop_
_space_group_symop_operation_xyz
x,y,z
-x,1/2-y,z
x,-y,-z
-x,1/2+y,-z
-x,-y,-z
x,1/2+y,-z
-x,y,z
x,1/2-y,z
1/2+x,1/2+y,1/2+z
1/2-x,-y,1/2+z
1/2+x,1/2-y,1/2-z
1/2-x,y,1/2-z
1/2-x,1/2-y,1/2-z
1/2+x,y,1/2-z
1/2-x,1/2+y,1/2+z
1/2+x,-y,1/2+z
loop_
_atom_site_type_symbol
_atom_site_label
_atom_site_fract_x
_atom_site_fract_y
_atom_site_fract_z
Si Si1 0.084161 0.750000 0.788972
Si Si2 0.803858 0.383131 0.184059
Si Si3 0.188449 0.577468 0.408246
Si Si4 0.682953 0.605969 0.929003
Si Si5 0.916091 0.750000 0.620590
Si Si6 0.813618 0.063474 0.807007
Si Si7 0.086680 0.343585 0.709371
O O1 0.124563 0.827605 0.819394
O O2 0.087337 0.750000 0.704700
O O3 0.000000 0.750000 0.817725
O O4 0.750000 0.360474 0.250000
O O5 0.759670 0.370954 0.110250
O O6 0.837696 0.471318 0.192647
O O7 0.191060 0.613778 0.486561
O O8 0.162189 0.484661 0.406438
O O9 0.274446 0.587304 0.381557
O O10 0.129335 0.624431 0.360110
O O11 0.619851 0.668143 0.906839
O O12 0.000000 0.750000 0.591640
O O13 0.750000 0.078410 0.750000
O O14 0.884219 0.116721 0.783413
O O15 0.101017 0.250000 0.715763
O O16 0.000000 0.364440 0.700562
#
# Coordination Sequence:
#
# PCOD8297374 Si02
#       7
#     8  16  16  16   8  16  16
#     4  11  22  32  48  76 108 138 172 211 249 299
#     4  10  17  33  54  74 100 135 177 216 251 293
#     4   9  20  36  55  78 102 131 175 215 256 302
#     4  10  20  36  54  76 105 138 170 215 258 295
#     4  11  23  33  47  77 111 142 173 201 246 313
#     4   8  17  33  54  76  96 128 173 218 251 297
#     4  10  21  35  52  76 108 137 165 207 260 312
#
# _framework density 17.058741999999999
#
# number of rings (size 3 to 8) (size 9 to 14) (size 15 to 20)
#    0.000    2.333    1.667    1.750    1.167    5.000 
#    0.000    1.667    0.000    1.000    0.000    4.667 
#    0.000    0.000    0.000    0.000    0.000    0.000 
#
# Total GULP energy -595047.812958 kJ/mol
# GULP energy per Si atom -12396.829437 kJ/mol
# Density = 1.701992 g / cm^3
# Si number density = 17.058742 Si / 1000 Ang^3
#
#
#
# Elastic Constant Matrix: (Units=GPa)
#
#
# Indices 1 2 3 4 5 6 
#
# 1 119.9799 71.0749 55.2596 0.0000 0.0000 0.0000
# 2 71.0749 92.2049 37.3323 0.0000 0.0000 0.0000
# 3 55.2596 37.3323 71.0195 0.0000 0.0000 0.0000
# 4 0.0000 0.0000 0.0000 12.5166 0.0000 0.0000
# 5 0.0000 0.0000 0.0000 0.0000 20.3556 0.0000
# 6 0.0000 0.0000 0.0000 0.0000 0.0000 24.0266
#
#
#
# Elastic Compliance Matrix: (Units=1/GPa)
#
#
# Indices 1 2 3 4 5 6 
#
# 1 0.018994 -0.010998 -0.008998 0.000000 0.000000 0.000000
# 2 -0.010998 0.020146 -0.002032 0.000000 0.000000 0.000000
# 3 -0.008998 -0.002032 0.022150 0.000000 0.000000 0.000000
# 4 0.000000 0.000000 0.000000 0.079894 0.000000 0.000000
# 5 0.000000 0.000000 0.000000 0.000000 0.049127 0.000000
# 6 0.000000 0.000000 0.000000 0.000000 0.000000 0.041621
#
#
# Mechanical properties :
#
#
# Convention : Reuss Voigt Hill
#
# Bulk Modulus (GPa) = 58.02675 67.83755 62.93215
# Shear Modulus (GPa) = 17.74731 19.34893 18.54812
#
# Velocity S-wave (km/s) = 3.22897 3.37152 3.30101
# Velocity P-wave (km/s) = 6.92758 7.41684 7.17638
#
# Compressibility (1/GPa) = 0.01723343
#
# Stress axis : x y z
#
# Youngs Moduli (GPa) = 52.64770 49.63710 45.14653
#
# Poissons Ratio (x) = 0.54593 0.40622
# Poissons Ratio (y) = 0.57904 0.09176
# Poissons Ratio (z) = 0.47371 0.10088
#
# Static dielectric constant tensor:
#      x y z
#    x 3.235550 0.000000 0.000000 
#    y 0.000000 3.334870 0.000000 
#    z 0.000000 0.000000 3.426690 
# 
# 
# High freq. dielectric constant tensor:
#      x y z
#    x 1.639880 0.000000 0.000000 
#    y 0.000000 1.671100 0.000000 
#    z 0.000000 0.000000 1.650420 
# 
# From -- ./inp_files/44143.got.cif
#   From: 2010.03.12/outbox.cif.g09.slc.cpg/sg74_23_cif.got.tgz:44143.got - 2010.04.16 15:46:19.
