data_PCOD8297223
_publ_section_title
;
Structure prediction by ZEFSAII (Michael W. Deem and Ramdas Pophale) SiO2 
 PCOD8297223
Probable space group: I M M A
;
_chemical_formula_sum "Si O2"
_cell_formula_units_Z 80
_cell_length_a 8.939789
_cell_length_b 32.626053
_cell_length_c 14.881030
_cell_angle_alpha 90.000000
_cell_angle_beta 90.000000
_cell_angle_gamma 90.000000
_cell_volume 4340.350462
_symmetry_space_group_name_H-M "I M M A"
_symmetry_group_IT_number 74
_symmetry_cell_setting 'orthorhombic'
loop_
_space_group_symop_operation_xyz
x,y,z
-x,1/2-y,z
x,-y,-z
-x,1/2+y,-z
-x,-y,-z
x,1/2+y,-z
-x,y,z
x,1/2-y,z
1/2+x,1/2+y,1/2+z
1/2-x,-y,1/2+z
1/2+x,1/2-y,1/2-z
1/2-x,y,1/2-z
1/2-x,1/2-y,1/2-z
1/2+x,y,1/2-z
1/2-x,1/2+y,1/2+z
1/2+x,-y,1/2+z
loop_
_atom_site_type_symbol
_atom_site_label
_atom_site_fract_x
_atom_site_fract_y
_atom_site_fract_z
Si Si1 0.823245 0.630309 0.464802
Si Si2 0.168782 0.886309 0.663754
Si Si3 0.674973 0.795987 0.158526
Si Si4 0.172022 0.974045 0.607210
Si Si5 0.177705 0.050665 0.921952
O O1 0.763865 0.628966 0.568104
O O2 0.781547 0.674421 0.423853
O O3 0.740957 0.596215 0.402817
O O4 0.000000 0.620869 0.463029
O O5 0.250000 0.866366 0.750000
O O6 0.180754 0.935746 0.674716
O O7 0.000000 0.870927 0.668922
O O8 0.500000 0.797015 0.175882
O O9 0.729669 0.750000 0.134056
O O10 0.750000 0.811705 0.250000
O O11 0.266654 0.960862 0.520697
O O12 0.000000 0.983130 0.581847
O O13 0.250220 0.015931 0.644862
O O14 0.000000 0.050222 0.913096
#
# Coordination Sequence:
#
# PCOD8297223 Si02
#       5
#    16  16  16  16  16
#     4   9  18  33  50  70  99 133 162 192 242 300
#     4   9  18  30  46  67  93 129 170 206 238 277
#     4   9  18  34  57  81 102 124 153 192 240 298
#     4   9  16  28  43  60  88 127 164 199 245 290
#     4  10  17  25  42  68  92 119 160 205 242 276
#
# _framework density 18.431692000000002
#
# number of rings (size 3 to 8) (size 9 to 14) (size 15 to 20)
#    0.000    2.800    0.000    4.800    0.000    4.800 
#    0.000    1.000    0.000    0.600    0.000    0.000 
#    0.000    0.000    0.000    0.000    0.000    0.400 
#
# Total GULP energy -495544.705191 kJ/mol
# GULP energy per Si atom -12388.617630 kJ/mol
# Density = 1.838974 g / cm^3
# Si number density = 18.431692 Si / 1000 Ang^3
#
#
#
# Elastic Constant Matrix: (Units=GPa)
#
#
# Indices 1 2 3 4 5 6 
#
# 1 67.5378 37.6545 31.6830 0.0000 0.0000 0.0000
# 2 37.6545 104.3132 51.2987 -0.0001 0.0000 0.0000
# 3 31.6830 51.2987 80.4080 0.0001 -0.0001 0.0000
# 4 0.0000 -0.0001 0.0001 16.5437 0.0000 0.0000
# 5 0.0000 0.0000 -0.0001 0.0000 22.8640 0.0000
# 6 0.0000 0.0000 0.0000 0.0000 0.0000 20.3690
#
#
#
# Elastic Compliance Matrix: (Units=1/GPa)
#
#
# Indices 1 2 3 4 5 6 
#
# 1 0.019683 -0.004796 -0.004696 0.000000 0.000000 0.000000
# 2 -0.004796 0.015138 -0.007768 0.000000 0.000000 0.000000
# 3 -0.004696 -0.007768 0.019243 0.000000 0.000000 0.000000
# 4 0.000000 0.000000 0.000000 0.060446 0.000000 0.000000
# 5 0.000000 0.000000 0.000000 0.000000 0.043737 0.000000
# 6 0.000000 0.000000 0.000000 0.000000 0.000000 0.049094
#
#
# Mechanical properties :
#
#
# Convention : Reuss Voigt Hill
#
# Bulk Modulus (GPa) = 51.16621 54.83686 53.00153
# Shear Modulus (GPa) = 20.13082 20.73019 20.43050
#
# Velocity S-wave (km/s) = 3.30841 3.35730 3.33294
# Velocity P-wave (km/s) = 6.51262 6.69661 6.60526
#
# Compressibility (1/GPa) = 0.01954415
#
# Stress axis : x y z
#
# Youngs Moduli (GPa) = 50.80429 66.06011 51.96750
#
# Poissons Ratio (x) = 0.31681 0.24405
# Poissons Ratio (y) = 0.24364 0.40368
# Poissons Ratio (z) = 0.23859 0.51315
#
# Static dielectric constant tensor:
#      x y z
#    x 3.316020 0.000000 0.000000 
#    y 0.000000 3.873140 0.000000 
#    z 0.000000 0.000000 3.159320 
# 
# 
# High freq. dielectric constant tensor:
#      x y z
#    x 1.711310 0.000000 0.000000 
#    y 0.000000 1.699540 0.000000 
#    z 0.000000 0.000000 1.685330 
# 
# From -- ./inp_files/39975.got.cif
#   From: 2010.03.12/outbox.cif.g09.slc.cpg/sg74_20_cif.got.tgz:39975.got - 2010.04.16 15:46:19.
