data_PCOD8297940
_publ_section_title
;
Structure prediction by ZEFSAII (Michael W. Deem and Ramdas Pophale) SiO2 
 PCOD8297940
Probable space group: I M M A
;
_chemical_formula_sum "Si O2"
_cell_formula_units_Z 72
_cell_length_a 8.647785
_cell_length_b 21.984653
_cell_length_c 19.410804
_cell_angle_alpha 90.000000
_cell_angle_beta 90.000000
_cell_angle_gamma 90.000000
_cell_volume 3690.353958
_symmetry_space_group_name_H-M "I M M A"
_symmetry_group_IT_number 74
_symmetry_cell_setting 'orthorhombic'
loop_
_space_group_symop_operation_xyz
x,y,z
-x,1/2-y,z
x,-y,-z
-x,1/2+y,-z
-x,-y,-z
x,1/2+y,-z
-x,y,z
x,1/2-y,z
1/2+x,1/2+y,1/2+z
1/2-x,-y,1/2+z
1/2+x,1/2-y,1/2-z
1/2-x,y,1/2-z
1/2-x,1/2-y,1/2-z
1/2+x,y,1/2-z
1/2-x,1/2+y,1/2+z
1/2+x,-y,1/2+z
loop_
_atom_site_type_symbol
_atom_site_label
_atom_site_fract_x
_atom_site_fract_y
_atom_site_fract_z
Si Si1 0.181360 0.606141 0.676764
Si Si2 0.683300 0.136069 0.588835
Si Si3 0.315891 0.750000 0.325585
Si Si4 0.821199 0.178821 0.057480
Si Si5 0.183537 0.522517 0.175777
O O1 0.250000 0.626319 0.750000
O O2 0.219363 0.658239 0.622009
O O3 0.254243 0.542652 0.651361
O O4 0.000000 0.597728 0.685132
O O5 0.500000 0.140473 0.589511
O O6 0.749417 0.190733 0.635240
O O7 0.740083 0.143187 0.510139
O O8 0.740359 0.071946 0.619858
O O9 0.500000 0.750000 0.323020
O O10 0.250000 0.750000 0.250000
O O11 0.797129 0.250000 0.044661
O O12 0.000000 0.163716 0.072661
O O13 0.250000 0.540873 0.250000
O O14 0.000000 0.520262 0.180954
#
# Coordination Sequence:
#
# PCOD8297940 Si02
#       5
#    16  16   8  16  16
#     4  11  23  40  60  83 111 143 183 232 284 338
#     4   9  18  33  56  82 112 150 189 227 271 328
#     4  10  18  32  52  80 113 150 191 228 269 318
#     4  10  20  38  62  84 110 147 188 231 276 329
#     4  10  19  34  56  83 114 149 190 232 275 326
#
# _framework density 19.510323
#
# number of rings (size 3 to 8) (size 9 to 14) (size 15 to 20)
#    0.000    2.000    1.111    4.667    0.000    1.778 
#    0.000    8.889    0.000    0.000    0.000    0.000 
#    0.000    0.000    0.000    0.000    0.000    0.000 
#
# Total GULP energy -446470.421516 kJ/mol
# GULP energy per Si atom -12401.956153 kJ/mol
# Density = 1.946592 g / cm^3
# Si number density = 19.510323 Si / 1000 Ang^3
#
#
#
# Elastic Constant Matrix: (Units=GPa)
#
#
# Indices 1 2 3 4 5 6 
#
# 1 74.0265 25.9776 28.5772 0.0000 0.0000 0.0000
# 2 25.9776 67.9457 51.4963 0.0000 0.0000 0.0000
# 3 28.5772 51.4963 127.8104 0.0000 0.0000 0.0000
# 4 0.0000 0.0000 0.0000 43.2956 0.0000 0.0000
# 5 0.0000 0.0000 0.0000 0.0000 29.2851 0.0000
# 6 0.0000 0.0000 0.0000 0.0000 0.0000 21.9832
#
#
#
# Elastic Compliance Matrix: (Units=1/GPa)
#
#
# Indices 1 2 3 4 5 6 
#
# 1 0.015822 -0.004849 -0.001584 0.000000 0.000000 0.000000
# 2 -0.004849 0.022674 -0.008051 0.000000 0.000000 0.000000
# 3 -0.001584 -0.008051 0.011422 0.000000 0.000000 0.000000
# 4 0.000000 0.000000 0.000000 0.023097 0.000000 0.000000
# 5 0.000000 0.000000 0.000000 0.000000 0.034147 0.000000
# 6 0.000000 0.000000 0.000000 0.000000 0.000000 0.045489
#
#
# Mechanical properties :
#
#
# Convention : Reuss Voigt Hill
#
# Bulk Modulus (GPa) = 47.73362 53.54276 50.63819
# Shear Modulus (GPa) = 26.51089 29.82821 28.16955
#
# Velocity S-wave (km/s) = 3.69021 3.91428 3.80390
# Velocity P-wave (km/s) = 6.53267 6.92327 6.73081
#
# Compressibility (1/GPa) = 0.02094960
#
# Stress axis : x y z
#
# Youngs Moduli (GPa) = 63.20460 44.10429 87.54840
#
# Poissons Ratio (x) = 0.21384 0.13868
# Poissons Ratio (y) = 0.30645 0.70488
# Poissons Ratio (z) = 0.10012 0.35510
#
# Static dielectric constant tensor:
#      x y z
#    x 3.333860 0.000000 0.000000 
#    y 0.000000 3.677030 0.000000 
#    z 0.000000 0.000000 3.628980 
# 
# 
# High freq. dielectric constant tensor:
#      x y z
#    x 1.737800 0.000000 0.000000 
#    y 0.000000 1.764980 0.000000 
#    z 0.000000 0.000000 1.767040 
# 
# From -- ./inp_files/48387.got.cif
#   From: 2010.03.12/outbox.cif.g09.slc.cpg/sg74_25_cif.got.tgz:48387.got - 2010.04.16 15:46:19.
