data_PCOD8297516
_publ_section_title
;
Structure prediction by ZEFSAII (Michael W. Deem and Ramdas Pophale) SiO2 
 PCOD8297516
Probable space group: I M M A
;
_chemical_formula_sum "Si O2"
_cell_formula_units_Z 88
_cell_length_a 9.681301
_cell_length_b 23.685639
_cell_length_c 22.646219
_cell_angle_alpha 90.000000
_cell_angle_beta 90.000000
_cell_angle_gamma 90.000000
_cell_volume 5192.954669
_symmetry_space_group_name_H-M "I M M A"
_symmetry_group_IT_number 74
_symmetry_cell_setting 'orthorhombic'
loop_
_space_group_symop_operation_xyz
x,y,z
-x,1/2-y,z
x,-y,-z
-x,1/2+y,-z
-x,-y,-z
x,1/2+y,-z
-x,y,z
x,1/2-y,z
1/2+x,1/2+y,1/2+z
1/2-x,-y,1/2+z
1/2+x,1/2-y,1/2-z
1/2-x,y,1/2-z
1/2-x,1/2-y,1/2-z
1/2+x,y,1/2-z
1/2-x,1/2+y,1/2+z
1/2+x,-y,1/2+z
loop_
_atom_site_type_symbol
_atom_site_label
_atom_site_fract_x
_atom_site_fract_y
_atom_site_fract_z
Si Si1 0.660554 0.187378 0.934330
Si Si2 0.840998 0.001115 0.807274
Si Si3 0.663449 0.689512 0.932901
Si Si4 0.760606 0.000000 0.500000
Si Si5 0.656683 0.929555 0.890712
Si Si6 0.151263 0.088243 0.908209
O O1 0.500000 0.171665 0.931543
O O2 0.685995 0.250000 0.907038
O O3 0.740543 0.138652 0.900008
O O4 0.719576 0.186249 0.000624
O O5 0.750000 0.013400 0.750000
O O6 0.765873 0.952175 0.843972
O O7 0.000000 0.983683 0.792115
O O8 0.839927 0.057117 0.845942
O O9 0.500000 0.688743 0.936718
O O10 0.712533 0.750000 0.904547
O O11 0.712873 0.634580 0.897771
O O12 0.849031 0.036238 0.452818
O O13 0.672499 0.045045 0.537323
O O14 0.500000 0.930890 0.865595
O O15 0.000000 0.114677 0.917243
#
# Coordination Sequence:
#
# PCOD8297516 Si02
#       6
#    16  16  16   8  16  16
#     4   9  17  30  48  72 103 136 169 202 237 288
#     4  10  22  38  53  72  97 129 166 210 255 298
#     4   8  14  26  44  69 101 134 166 198 234 281
#     4  10  18  28  44  74 106 134 166 196 242 298
#     4  10  18  29  50  75 100 132 166 204 244 294
#     4  10  20  32  49  72 102 133 162 204 253 297
#
# _framework density 16.946037
#
# number of rings (size 3 to 8) (size 9 to 14) (size 15 to 20)
#    0.000    2.545    1.818    2.182    0.000    4.727 
#    0.000    0.000    0.000    1.636    0.000    0.000 
#    0.000    0.000    0.000    0.000    0.000    0.000 
#
# Total GULP energy -545113.032479 kJ/mol
# GULP energy per Si atom -12388.932556 kJ/mol
# Density = 1.690747 g / cm^3
# Si number density = 16.946037 Si / 1000 Ang^3
#
#
#
# Elastic Constant Matrix: (Units=GPa)
#
#
# Indices 1 2 3 4 5 6 
#
# 1 105.1314 58.3956 37.9903 0.0000 0.0000 0.0000
# 2 58.3956 126.1175 26.7067 0.0000 0.0000 0.0000
# 3 37.9903 26.7067 65.3866 0.0000 0.0000 0.0000
# 4 0.0000 0.0000 0.0000 8.1302 0.0000 0.0000
# 5 0.0000 0.0000 0.0000 0.0000 18.5766 0.0000
# 6 0.0000 0.0000 0.0000 0.0000 0.0000 20.1598
#
#
#
# Elastic Compliance Matrix: (Units=1/GPa)
#
#
# Indices 1 2 3 4 5 6 
#
# 1 0.014903 -0.005547 -0.006393 0.000000 0.000000 0.000000
# 2 -0.005547 0.010744 -0.001166 0.000000 0.000000 0.000000
# 3 -0.006393 -0.001166 0.019484 0.000000 0.000000 0.000000
# 4 0.000000 0.000000 0.000000 0.122998 0.000000 0.000000
# 5 0.000000 0.000000 0.000000 0.000000 0.053831 0.000000
# 6 0.000000 0.000000 0.000000 0.000000 0.000000 0.049604
#
#
# Mechanical properties :
#
#
# Convention : Reuss Voigt Hill
#
# Bulk Modulus (GPa) = 52.85352 60.31338 56.58345
# Shear Modulus (GPa) = 16.44289 20.94285 18.69287
#
# Velocity S-wave (km/s) = 3.11836 3.51929 3.32487
# Velocity P-wave (km/s) = 6.65000 7.22375 6.94281
#
# Compressibility (1/GPa) = 0.01892022
#
# Stress axis : x y z
#
# Youngs Moduli (GPa) = 67.09995 93.07335 51.32307
#
# Poissons Ratio (x) = 0.51625 0.32813
# Poissons Ratio (y) = 0.37218 0.05983
# Poissons Ratio (z) = 0.42900 0.10850
#
# Static dielectric constant tensor:
#      x y z
#    x 3.082070 0.000000 0.000000 
#    y 0.000000 3.606210 0.000000 
#    z 0.000000 0.000000 2.932100 
# 
# 
# High freq. dielectric constant tensor:
#      x y z
#    x 1.643460 0.000000 0.000000 
#    y 0.000000 1.662540 0.000000 
#    z 0.000000 0.000000 1.616750 
# 
# From -- ./inp_files/48711.got.cif
#   From: 2010.03.12/outbox.cif.g09.slc.cpg/sg74_25_cif.got.tgz:48711.got - 2010.04.16 15:46:19.
