data_PCOD8297712
_publ_section_title
;
Structure prediction by ZEFSAII (Michael W. Deem and Ramdas Pophale) SiO2 
 PCOD8297712
Probable space group: I M M A
;
_chemical_formula_sum "Si O2"
_cell_formula_units_Z 72
_cell_length_a 15.654517
_cell_length_b 8.886539
_cell_length_c 28.659370
_cell_angle_alpha 90.000000
_cell_angle_beta 90.000000
_cell_angle_gamma 90.000000
_cell_volume 3986.933236
_symmetry_space_group_name_H-M "I M M A"
_symmetry_group_IT_number 74
_symmetry_cell_setting 'orthorhombic'
loop_
_space_group_symop_operation_xyz
x,y,z
-x,1/2-y,z
x,-y,-z
-x,1/2+y,-z
-x,-y,-z
x,1/2+y,-z
-x,y,z
x,1/2-y,z
1/2+x,1/2+y,1/2+z
1/2-x,-y,1/2+z
1/2+x,1/2-y,1/2-z
1/2-x,y,1/2-z
1/2-x,1/2-y,1/2-z
1/2+x,y,1/2-z
1/2-x,1/2+y,1/2+z
1/2+x,-y,1/2+z
loop_
_atom_site_type_symbol
_atom_site_label
_atom_site_fract_x
_atom_site_fract_y
_atom_site_fract_z
Si Si1 0.000000 0.419990 0.778690
Si Si2 0.000000 0.569519 0.448592
Si Si3 0.329956 0.428997 0.050512
Si Si4 0.500000 0.080678 0.610376
Si Si5 0.171054 0.927598 0.780473
Si Si6 0.330022 0.074020 0.386850
O O1 0.084717 0.501018 0.759437
O O2 0.000000 0.250000 0.760526
O O3 0.000000 0.431056 0.834167
O O4 0.000000 0.500000 0.500000
O O5 0.086241 0.504004 0.425052
O O6 0.000000 0.750000 0.448775
O O7 0.342211 0.250000 0.046184
O O8 0.250980 0.474279 0.082877
O O9 0.313148 0.500000 0.000000
O O10 0.500000 0.250000 0.591972
O O11 0.414369 0.002111 0.591229
O O12 0.161660 0.750000 0.776360
O O13 0.250000 0.987749 0.750000
O O14 0.186367 0.979110 0.833780
O O15 0.346292 0.250000 0.388688
#
# Coordination Sequence:
#
# PCOD8297712 Si02
#       6
#     8   8  16   8  16  16
#     4   9  17  29  46  69  96 126 156 188 231 278
#     4  10  18  30  49  70  93 123 158 192 229 276
#     4  10  19  32  50  71  95 123 156 193 233 276
#     4   9  17  29  48  71  94 123 158 192 227 276
#     4   9  17  31  51  72  93 121 158 195 230 272
#     4   9  18  32  50  71  95 123 155 193 234 275
#
# _framework density 18.058993999999998
#
# number of rings (size 3 to 8) (size 9 to 14) (size 15 to 20)
#    0.000    2.667    0.000    3.667    0.000    4.889 
#    0.000    1.667    0.000    6.667    0.000    0.000 
#    0.000    0.000    0.000    0.000    0.000    0.000 
#
# Total GULP energy -446304.759694 kJ/mol
# GULP energy per Si atom -12397.354436 kJ/mol
# Density = 1.801789 g / cm^3
# Si number density = 18.058994 Si / 1000 Ang^3
#
#
#
# Elastic Constant Matrix: (Units=GPa)
#
#
# Indices 1 2 3 4 5 6 
#
# 1 217.0203 75.6730 62.6951 0.0000 0.0000 0.0000
# 2 75.6730 79.8130 28.7411 0.0000 0.0000 0.0000
# 3 62.6951 28.7411 49.4244 0.0000 0.0000 0.0000
# 4 0.0000 0.0000 0.0000 16.6684 0.0000 0.0000
# 5 0.0000 0.0000 0.0000 0.0000 31.5484 0.0000
# 6 0.0000 0.0000 0.0000 0.0000 0.0000 30.3279
#
#
#
# Elastic Compliance Matrix: (Units=1/GPa)
#
#
# Indices 1 2 3 4 5 6 
#
# 1 0.008840 -0.005494 -0.008019 0.000000 0.000000 0.000000
# 2 -0.005494 0.019262 -0.004232 0.000000 0.000000 0.000000
# 3 -0.008019 -0.004232 0.032866 0.000000 0.000000 0.000000
# 4 0.000000 0.000000 0.000000 0.059994 0.000000 0.000000
# 5 0.000000 0.000000 0.000000 0.000000 0.031697 0.000000
# 6 0.000000 0.000000 0.000000 0.000000 0.000000 0.032973
#
#
# Mechanical properties :
#
#
# Convention : Reuss Voigt Hill
#
# Bulk Modulus (GPa) = 39.24907 75.60845 57.42876
# Shear Modulus (GPa) = 21.77550 27.65217 24.71383
#
# Velocity S-wave (km/s) = 3.47623 3.91732 3.70335
# Velocity P-wave (km/s) = 6.15575 7.90056 7.08209
#
# Compressibility (1/GPa) = 0.02547831
#
# Stress axis : x y z
#
# Youngs Moduli (GPa) = 113.12023 51.91496 30.42640
#
# Poissons Ratio (x) = 0.28522 0.24399
# Poissons Ratio (y) = 0.62147 0.12877
# Poissons Ratio (z) = 0.90711 0.21972
#
# Static dielectric constant tensor:
#      x y z
#    x 3.886260 0.000000 0.000000 
#    y 0.000000 3.337240 0.000000 
#    z 0.000000 0.000000 3.015440 
# 
# 
# High freq. dielectric constant tensor:
#      x y z
#    x 1.722300 0.000000 0.000000 
#    y 0.000000 1.703480 0.000000 
#    z 0.000000 0.000000 1.650650 
# 
# From -- ./inp_files/72298.got.cif
#   From: 2010.03.12/outbox.cif.g09.slc.cpg/sg74_37_cif.got.tgz:72298.got - 2010.04.16 15:46:19.
