data_PCOD8297843
_publ_section_title
;
Structure prediction by ZEFSAII (Michael W. Deem and Ramdas Pophale) SiO2 
 PCOD8297843
Probable space group: I M M A
;
_chemical_formula_sum "Si O2"
_cell_formula_units_Z 112
_cell_length_a 17.620900
_cell_length_b 16.946558
_cell_length_c 20.509890
_cell_angle_alpha 90.000000
_cell_angle_beta 90.000000
_cell_angle_gamma 90.000000
_cell_volume 6124.532168
_symmetry_space_group_name_H-M "I M M A"
_symmetry_group_IT_number 74
_symmetry_cell_setting 'orthorhombic'
loop_
_space_group_symop_operation_xyz
x,y,z
-x,1/2-y,z
x,-y,-z
-x,1/2+y,-z
-x,-y,-z
x,1/2+y,-z
-x,y,z
x,1/2-y,z
1/2+x,1/2+y,1/2+z
1/2-x,-y,1/2+z
1/2+x,1/2-y,1/2-z
1/2-x,y,1/2-z
1/2-x,1/2-y,1/2-z
1/2+x,y,1/2-z
1/2-x,1/2+y,1/2+z
1/2+x,-y,1/2+z
loop_
_atom_site_type_symbol
_atom_site_label
_atom_site_fract_x
_atom_site_fract_y
_atom_site_fract_z
Si Si1 0.214420 0.486230 0.077264
Si Si2 0.414445 0.337638 0.997631
Si Si3 0.911723 0.474272 0.826800
Si Si4 0.914335 0.074346 0.298690
Si Si5 0.162436 0.841063 0.252659
Si Si6 0.804764 0.659588 0.616029
Si Si7 0.638012 0.569430 0.122681
O O1 0.132298 0.505555 0.106865
O O2 0.233583 0.396407 0.099371
O O3 0.275404 0.545160 0.108879
O O4 0.211195 0.500000 0.000000
O O5 0.500000 0.342743 0.022714
O O6 0.395454 0.250000 0.970687
O O7 0.401281 0.402307 0.942856
O O8 0.363788 0.357699 0.059029
O O9 0.894515 0.541394 0.772914
O O10 0.885016 0.389644 0.800250
O O11 0.000000 0.469856 0.844119
O O12 0.849985 0.139041 0.316869
O O13 0.000000 0.109524 0.300021
O O14 0.909986 0.003919 0.350998
O O15 0.149273 0.750000 0.236362
O O16 0.250000 0.865843 0.250000
O O17 0.134063 0.859719 0.325467
O O18 0.776563 0.750000 0.619240
#
# Coordination Sequence:
#
# PCOD8297843 Si02
#       7
#    16  16  16  16  16  16  16
#     4  11  21  38  59  81 107 146 195 238 280 335
#     4  10  19  30  46  75 115 150 180 219 268 325
#     4  10  22  40  59  83 114 145 188 242 286 330
#     4   9  19  33  53  78 109 147 183 227 278 332
#     4  10  19  33  57  87 117 149 181 220 276 339
#     4  10  21  35  55  82 112 146 186 232 281 336
#     4  10  18  31  51  79 111 151 188 221 261 327
#
# _framework density 18.287110999999999
#
# number of rings (size 3 to 8) (size 9 to 14) (size 15 to 20)
#    0.000    2.000    2.857    1.286    0.000    2.000 
#    0.000    4.286    0.000    1.286    0.000    0.000 
#    0.000    0.000    0.000    0.000    0.000    0.000 
#
# Total GULP energy -694397.583706 kJ/mol
# GULP energy per Si atom -12399.956852 kJ/mol
# Density = 1.824549 g / cm^3
# Si number density = 18.287111 Si / 1000 Ang^3
#
#
#
# Elastic Constant Matrix: (Units=GPa)
#
#
# Indices 1 2 3 4 5 6 
#
# 1 94.3893 36.3600 37.2693 0.0000 0.0000 0.0000
# 2 36.3600 72.6642 35.4774 0.0000 0.0000 0.0000
# 3 37.2693 35.4774 69.8980 0.0000 0.0000 0.0000
# 4 0.0000 0.0000 0.0000 18.7870 0.0000 0.0000
# 5 0.0000 0.0000 0.0000 0.0000 25.9180 0.0000
# 6 0.0000 0.0000 0.0000 0.0000 0.0000 15.3290
#
#
#
# Elastic Compliance Matrix: (Units=1/GPa)
#
#
# Indices 1 2 3 4 5 6 
#
# 1 0.014503 -0.004629 -0.005384 0.000000 0.000000 0.000000
# 2 -0.004629 0.019773 -0.007568 0.000000 0.000000 0.000000
# 3 -0.005384 -0.007568 0.021018 0.000000 0.000000 0.000000
# 4 0.000000 0.000000 0.000000 0.053228 0.000000 0.000000
# 5 0.000000 0.000000 0.000000 0.000000 0.038583 0.000000
# 6 0.000000 0.000000 0.000000 0.000000 0.000000 0.065236
#
#
# Mechanical properties :
#
#
# Convention : Reuss Voigt Hill
#
# Bulk Modulus (GPa) = 49.66770 50.57389 50.12079
# Shear Modulus (GPa) = 19.66848 20.52978 20.09913
#
# Velocity S-wave (km/s) = 3.28310 3.35421 3.31885
# Velocity P-wave (km/s) = 6.44907 6.53579 6.49257
#
# Compressibility (1/GPa) = 0.02013381
#
# Stress axis : x y z
#
# Youngs Moduli (GPa) = 68.95040 50.57399 47.57744
#
# Poissons Ratio (x) = 0.23409 0.25614
# Poissons Ratio (y) = 0.31915 0.36007
# Poissons Ratio (z) = 0.37121 0.38274
#
# Static dielectric constant tensor:
#      x y z
#    x 3.231060 0.000000 0.000000 
#    y 0.000000 3.385070 0.000000 
#    z 0.000000 0.000000 3.325830 
# 
# 
# High freq. dielectric constant tensor:
#      x y z
#    x 1.697700 0.000000 0.000000 
#    y 0.000000 1.703840 0.000000 
#    z 0.000000 0.000000 1.701160 
# 
# From -- ./inp_files/53270.got.cif
#   From: 2010.03.12/outbox.cif.g09.slc.cpg/sg74_27_cif.got.tgz:53270.got - 2010.04.16 15:46:19.
