data_PCOD8297237
_publ_section_title
;
Structure prediction by ZEFSAII (Michael W. Deem and Ramdas Pophale) SiO2 
 PCOD8297237
Probable space group: I M M A
;
_chemical_formula_sum "Si O2"
_cell_formula_units_Z 96
_cell_length_a 9.293349
_cell_length_b 26.456637
_cell_length_c 28.475252
_cell_angle_alpha 90.000000
_cell_angle_beta 90.000000
_cell_angle_gamma 90.000000
_cell_volume 7001.231879
_symmetry_space_group_name_H-M "I M M A"
_symmetry_group_IT_number 74
_symmetry_cell_setting 'orthorhombic'
loop_
_space_group_symop_operation_xyz
x,y,z
-x,1/2-y,z
x,-y,-z
-x,1/2+y,-z
-x,-y,-z
x,1/2+y,-z
-x,y,z
x,1/2-y,z
1/2+x,1/2+y,1/2+z
1/2-x,-y,1/2+z
1/2+x,1/2-y,1/2-z
1/2-x,y,1/2-z
1/2-x,1/2-y,1/2-z
1/2+x,y,1/2-z
1/2-x,1/2+y,1/2+z
1/2+x,-y,1/2+z
loop_
_atom_site_type_symbol
_atom_site_label
_atom_site_fract_x
_atom_site_fract_y
_atom_site_fract_z
Si Si1 0.830242 0.651691 0.796321
Si Si2 0.164263 0.307070 0.382794
Si Si3 0.840568 0.451485 0.533354
Si Si4 0.167426 0.099557 0.443579
Si Si5 0.164736 0.464741 0.205760
Si Si6 0.667941 0.990787 0.603431
O O1 0.750000 0.672059 0.750000
O O2 0.771623 0.683081 0.840100
O O3 0.790516 0.593081 0.804289
O O4 0.000000 0.660850 0.791369
O O5 0.186451 0.250000 0.400875
O O6 0.200870 0.343760 0.426506
O O7 0.000000 0.316130 0.365817
O O8 0.838342 0.500000 0.500000
O O9 0.793178 0.404946 0.499320
O O10 0.732397 0.460160 0.576781
O O11 0.000000 0.442434 0.554159
O O12 0.259973 0.061101 0.412795
O O13 0.000000 0.084828 0.436808
O O14 0.250000 0.487652 0.250000
O O15 0.196441 0.497359 0.159066
O O16 0.000000 0.467481 0.220324
O O17 0.500000 0.987009 0.592106
#
# Coordination Sequence:
#
# PCOD8297237 Si02
#       6
#    16  16  16  16  16  16
#     4  10  19  32  45  57  72  94 125 162 202 240
#     4  10  20  32  45  59  73  95 127 162 201 237
#     4   8  15  26  39  57  76  97 121 144 181 226
#     4   9  17  29  42  55  75  98 121 153 188 229
#     4   9  18  28  39  56  76  98 125 154 187 226
#     4  10  17  26  40  60  79  95 120 154 187 221
#
# _framework density 13.711873000000001
#
# number of rings (size 3 to 8) (size 9 to 14) (size 15 to 20)
#    0.000    2.667    1.667    2.000    0.000    5.667 
#    0.000    0.000    0.000    0.000    0.000    0.000 
#    0.000    0.000    0.000    0.000    0.000    0.833 
#
# Total GULP energy -594989.509469 kJ/mol
# GULP energy per Si atom -12395.614781 kJ/mol
# Density = 1.368066 g / cm^3
# Si number density = 13.711873 Si / 1000 Ang^3
#
#
#
# Elastic Constant Matrix: (Units=GPa)
#
#
# Indices 1 2 3 4 5 6 
#
# 1 70.9707 29.4524 52.2010 0.0000 0.0000 0.0000
# 2 29.4524 50.6444 50.1970 0.0000 0.0000 0.0000
# 3 52.2010 50.1970 95.5267 0.0000 0.0000 0.0000
# 4 0.0000 0.0000 0.0000 17.7175 0.0000 0.0000
# 5 0.0000 0.0000 0.0000 0.0000 25.3096 0.0000
# 6 0.0000 0.0000 0.0000 0.0000 0.0000 12.1914
#
#
#
# Elastic Compliance Matrix: (Units=1/GPa)
#
#
# Indices 1 2 3 4 5 6 
#
# 1 0.023654 -0.001971 -0.011890 0.000000 0.000000 0.000000
# 2 -0.001971 0.041372 -0.020663 0.000000 0.000000 0.000000
# 3 -0.011890 -0.020663 0.027824 0.000000 0.000000 0.000000
# 4 0.000000 0.000000 0.000000 0.056441 0.000000 0.000000
# 5 0.000000 0.000000 0.000000 0.000000 0.039511 0.000000
# 6 0.000000 0.000000 0.000000 0.000000 0.000000 0.082025
#
#
# Mechanical properties :
#
#
# Convention : Reuss Voigt Hill
#
# Bulk Modulus (GPa) = 42.01411 53.42693 47.72052
# Shear Modulus (GPa) = 14.37571 16.72978 15.55275
#
# Velocity S-wave (km/s) = 3.24143 3.49677 3.37152
# Velocity P-wave (km/s) = 6.68703 7.43988 7.07348
#
# Compressibility (1/GPa) = 0.02380153
#
# Stress axis : x y z
#
# Youngs Moduli (GPa) = 42.27671 24.17070 35.94060
#
# Poissons Ratio (x) = 0.04764 0.42733
# Poissons Ratio (y) = 0.08332 0.74265
# Poissons Ratio (z) = 0.50267 0.49944
#
# Static dielectric constant tensor:
#      x y z
#    x 2.781930 0.000000 0.000000 
#    y 0.000000 2.555320 0.000000 
#    z 0.000000 0.000000 2.891430 
# 
# 
# High freq. dielectric constant tensor:
#      x y z
#    x 1.532770 0.000000 0.000000 
#    y 0.000000 1.471380 0.000000 
#    z 0.000000 0.000000 1.515180 
# 
# From -- ./inp_files/64901.got.cif
#   From: 2010.03.12/outbox.cif.g09.slc.cpg/sg74_33_cif.got.tgz:64901.got - 2010.04.16 15:46:19.
