data_PCOD8297561
_publ_section_title
;
Structure prediction by ZEFSAII (Michael W. Deem and Ramdas Pophale) SiO2 
 PCOD8297561
Probable space group: I M M A
;
_chemical_formula_sum "Si O2"
_cell_formula_units_Z 80
_cell_length_a 25.239623
_cell_length_b 9.407849
_cell_length_c 22.437858
_cell_angle_alpha 90.000000
_cell_angle_beta 90.000000
_cell_angle_gamma 90.000000
_cell_volume 5327.881992
_symmetry_space_group_name_H-M "I M M A"
_symmetry_group_IT_number 74
_symmetry_cell_setting 'orthorhombic'
loop_
_space_group_symop_operation_xyz
x,y,z
-x,1/2-y,z
x,-y,-z
-x,1/2+y,-z
-x,-y,-z
x,1/2+y,-z
-x,y,z
x,1/2-y,z
1/2+x,1/2+y,1/2+z
1/2-x,-y,1/2+z
1/2+x,1/2-y,1/2-z
1/2-x,y,1/2-z
1/2-x,1/2-y,1/2-z
1/2+x,y,1/2-z
1/2-x,1/2+y,1/2+z
1/2+x,-y,1/2+z
loop_
_atom_site_type_symbol
_atom_site_label
_atom_site_fract_x
_atom_site_fract_y
_atom_site_fract_z
Si Si1 0.561588 0.250000 0.045091
Si Si2 0.181448 0.086741 0.273750
Si Si3 0.281871 0.584350 0.322206
Si Si4 0.766548 0.585650 0.442604
Si Si5 0.939217 0.250000 0.595982
Si Si6 0.375487 0.483807 0.113736
O O1 0.500000 0.250000 0.063411
O O2 0.590099 0.113091 0.070645
O O3 0.568528 0.250000 0.974655
O O4 0.197991 0.250000 0.261843
O O5 0.133459 0.085656 0.320966
O O6 0.227780 0.990509 0.301286
O O7 0.170323 0.006243 0.209758
O O8 0.283863 0.750000 0.303020
O O9 0.280928 0.572392 0.394019
O O10 0.746679 0.500000 0.500000
O O11 0.777114 0.750000 0.458809
O O12 0.820765 0.517246 0.419265
O O13 0.910681 0.380723 0.626785
O O14 0.000000 0.250000 0.614511
#
# Coordination Sequence:
#
# PCOD8297561 Si02
#       6
#     8  16  16  16   8  16
#     4  11  22  36  46  59  84 110 141 188 233 267
#     4  10  18  29  44  62  82 106 138 176 217 256
#     4   9  18  29  44  63  84 108 136 174 212 248
#     4  10  20  30  44  65  88 113 143 177 212 251
#     4  11  22  34  48  61  80 112 147 184 231 269
#     4  11  21  32  46  65  81 108 149 187 220 260
#
# _framework density 15.015347999999999
#
# number of rings (size 3 to 8) (size 9 to 14) (size 15 to 20)
#    0.000    1.800    2.000    4.800    4.200    3.200 
#    0.000    0.000    0.000    0.000    0.000    0.000 
#    0.000    0.000    0.000    0.000    0.000    6.000 
#
# Total GULP energy -495553.309885 kJ/mol
# GULP energy per Si atom -12388.832747 kJ/mol
# Density = 1.498117 g / cm^3
# Si number density = 15.015348 Si / 1000 Ang^3
#
#
#
# Elastic Constant Matrix: (Units=GPa)
#
#
# Indices 1 2 3 4 5 6 
#
# 1 29.6701 17.6799 27.6935 0.0000 0.0000 0.0000
# 2 17.6799 119.5000 41.7253 0.0000 0.0000 0.0000
# 3 27.6935 41.7253 87.4510 0.0000 0.0000 0.0000
# 4 0.0000 0.0000 0.0000 27.1850 0.0000 0.0000
# 5 0.0000 0.0000 0.0000 0.0000 12.4470 0.0000
# 6 0.0000 0.0000 0.0000 0.0000 0.0000 17.3520
#
#
#
# Elastic Compliance Matrix: (Units=1/GPa)
#
#
# Indices 1 2 3 4 5 6 
#
# 1 0.048309 -0.002167 -0.014265 0.000000 0.000000 0.000000
# 2 -0.002167 0.010138 -0.004151 0.000000 0.000000 0.000000
# 3 -0.014265 -0.004151 0.017933 0.000000 0.000000 0.000000
# 4 0.000000 0.000000 0.000000 0.036785 0.000000 0.000000
# 5 0.000000 0.000000 0.000000 0.000000 0.080341 0.000000
# 6 0.000000 0.000000 0.000000 0.000000 0.000000 0.057630
#
#
# Mechanical properties :
#
#
# Convention : Reuss Voigt Hill
#
# Bulk Modulus (GPa) = 28.39645 45.64651 37.02148
# Shear Modulus (GPa) = 16.44527 21.36498 18.90513
#
# Velocity S-wave (km/s) = 3.31302 3.77620 3.55216
# Velocity P-wave (km/s) = 5.79547 7.03411 6.44462
#
# Compressibility (1/GPa) = 0.03521566
#
# Stress axis : x y z
#
# Youngs Moduli (GPa) = 20.70001 98.63721 55.76385
#
# Poissons Ratio (x) = 0.21371 0.79544
# Poissons Ratio (y) = 0.04485 0.23148
# Poissons Ratio (z) = 0.29528 0.40945
#
# Static dielectric constant tensor:
#      x y z
#    x 2.758600 0.000000 0.000000 
#    y 0.000000 3.081510 0.000000 
#    z 0.000000 0.000000 3.643080 
# 
# 
# High freq. dielectric constant tensor:
#      x y z
#    x 1.514310 0.000000 0.000000 
#    y 0.000000 1.602110 0.000000 
#    z 0.000000 0.000000 1.573390 
# 
# From -- ./inp_files/55499.got.cif
#   From: 2010.03.12/outbox.cif.g09.slc.cpg/sg74_28_cif.got.tgz:55499.got - 2010.04.16 15:46:19.
