data_PCOD8297791
_publ_section_title
;
Structure prediction by ZEFSAII (Michael W. Deem and Ramdas Pophale) SiO2 
 PCOD8297791
Probable space group: I M M A
;
_chemical_formula_sum "Si O2"
_cell_formula_units_Z 80
_cell_length_a 19.179617
_cell_length_b 8.510313
_cell_length_c 33.115334
_cell_angle_alpha 90.000000
_cell_angle_beta 90.000000
_cell_angle_gamma 90.000000
_cell_volume 5405.235288
_symmetry_space_group_name_H-M "I M M A"
_symmetry_group_IT_number 74
_symmetry_cell_setting 'orthorhombic'
loop_
_space_group_symop_operation_xyz
x,y,z
-x,1/2-y,z
x,-y,-z
-x,1/2+y,-z
-x,-y,-z
x,1/2+y,-z
-x,y,z
x,1/2-y,z
1/2+x,1/2+y,1/2+z
1/2-x,-y,1/2+z
1/2+x,1/2-y,1/2-z
1/2-x,y,1/2-z
1/2-x,1/2-y,1/2-z
1/2+x,y,1/2-z
1/2-x,1/2+y,1/2+z
1/2+x,-y,1/2+z
loop_
_atom_site_type_symbol
_atom_site_label
_atom_site_fract_x
_atom_site_fract_y
_atom_site_fract_z
Si Si1 0.637305 0.564276 0.121530
Si Si2 0.000000 0.935713 0.244723
Si Si3 0.500000 0.063246 0.834065
Si Si4 0.348455 0.434380 0.730460
Si Si5 0.281175 0.066801 0.191270
Si Si6 0.579539 0.564369 0.956881
O O1 0.645510 0.750000 0.122844
O O2 0.567671 0.500485 0.142944
O O3 0.701786 0.486954 0.145649
O O4 0.633668 0.506612 0.075450
O O5 0.000000 0.010413 0.289399
O O6 0.928852 0.986388 0.221922
O O7 0.000000 0.750000 0.250249
O O8 0.500000 0.250000 0.833559
O O9 0.337708 0.250000 0.723210
O O10 0.328789 0.471231 0.776956
O O11 0.300119 0.530159 0.699608
O O12 0.294977 0.250000 0.197238
O O13 0.500000 0.508217 0.947827
O O14 0.584806 0.750000 0.956645
O O15 0.603966 0.500000 0.000000
#
# Coordination Sequence:
#
# PCOD8297791 Si02
#       6
#    16   8   8  16  16  16
#     4  11  19  31  48  63  82 113 149 186 222 261
#     4   9  16  28  46  65  81 104 145 188 220 257
#     4   9  16  26  41  63  82 104 145 186 219 254
#     4  10  18  31  47  62  81 111 145 181 221 264
#     4  11  21  31  41  61  88 113 142 181 221 263
#     4  10  20  32  45  64  88 114 144 180 221 262
#
# _framework density 14.800466
#
# number of rings (size 3 to 8) (size 9 to 14) (size 15 to 20)
#    0.000    1.800    3.000    4.800    0.000    0.800 
#    0.000    3.000    0.000    0.000    0.000    0.000 
#    0.000    0.000    0.000    0.900    0.000   11.400 
#
# Total GULP energy -495959.555916 kJ/mol
# GULP energy per Si atom -12398.988898 kJ/mol
# Density = 1.476678 g / cm^3
# Si number density = 14.800466 Si / 1000 Ang^3
#
#
#
# Elastic Constant Matrix: (Units=GPa)
#
#
# Indices 1 2 3 4 5 6 
#
# 1 90.0061 17.8360 41.6349 0.0000 0.0000 0.0000
# 2 17.8360 56.5069 21.2991 0.0000 0.0000 0.0000
# 3 41.6349 21.2991 94.5152 0.0000 0.0000 0.0000
# 4 0.0000 0.0000 0.0000 22.9397 0.0000 0.0000
# 5 0.0000 0.0000 0.0000 0.0000 26.3347 0.0000
# 6 0.0000 0.0000 0.0000 0.0000 0.0000 13.7353
#
#
#
# Elastic Compliance Matrix: (Units=1/GPa)
#
#
# Indices 1 2 3 4 5 6 
#
# 1 0.014228 -0.002326 -0.005743 0.000000 0.000000 0.000000
# 2 -0.002326 0.019720 -0.003419 0.000000 0.000000 0.000000
# 3 -0.005743 -0.003419 0.013881 0.000000 0.000000 0.000000
# 4 0.000000 0.000000 0.000000 0.043593 0.000000 0.000000
# 5 0.000000 0.000000 0.000000 0.000000 0.037973 0.000000
# 6 0.000000 0.000000 0.000000 0.000000 0.000000 0.072805
#
#
# Mechanical properties :
#
#
# Convention : Reuss Voigt Hill
#
# Bulk Modulus (GPa) = 40.23921 44.72979 42.48450
# Shear Modulus (GPa) = 21.41691 23.28584 22.35137
#
# Velocity S-wave (km/s) = 3.80813 3.97081 3.89032
# Velocity P-wave (km/s) = 6.82515 7.16314 6.99619
#
# Compressibility (1/GPa) = 0.02485138
#
# Stress axis : x y z
#
# Youngs Moduli (GPa) = 70.28345 50.70996 72.04158
#
# Poissons Ratio (x) = 0.11796 0.41377
# Poissons Ratio (y) = 0.16349 0.24633
# Poissons Ratio (z) = 0.40367 0.17339
#
# Static dielectric constant tensor:
#      x y z
#    x 2.914360 0.000000 0.000000 
#    y 0.000000 2.766250 0.000000 
#    z 0.000000 0.000000 2.669470 
# 
# 
# High freq. dielectric constant tensor:
#      x y z
#    x 1.541530 0.000000 0.000000 
#    y 0.000000 1.571180 0.000000 
#    z 0.000000 0.000000 1.538880 
# 
# From -- ./inp_files/73249.got.cif
#   From: 2010.03.12/outbox.cif.g09.slc.cpg/sg74_37_cif.got.tgz:73249.got - 2010.04.16 15:46:19.
