data_PCOD8297560
_publ_section_title
;
Structure prediction by ZEFSAII (Michael W. Deem and Ramdas Pophale) SiO2 
 PCOD8297560
Probable space group: I M M A
;
_chemical_formula_sum "Si O2"
_cell_formula_units_Z 112
_cell_length_a 13.682788
_cell_length_b 17.510505
_cell_length_c 26.442497
_cell_angle_alpha 90.000000
_cell_angle_beta 90.000000
_cell_angle_gamma 90.000000
_cell_volume 6335.424695
_symmetry_space_group_name_H-M "I M M A"
_symmetry_group_IT_number 74
_symmetry_cell_setting 'orthorhombic'
loop_
_space_group_symop_operation_xyz
x,y,z
-x,1/2-y,z
x,-y,-z
-x,1/2+y,-z
-x,-y,-z
x,1/2+y,-z
-x,y,z
x,1/2-y,z
1/2+x,1/2+y,1/2+z
1/2-x,-y,1/2+z
1/2+x,1/2-y,1/2-z
1/2-x,y,1/2-z
1/2-x,1/2-y,1/2-z
1/2+x,y,1/2-z
1/2-x,1/2+y,1/2+z
1/2+x,-y,1/2+z
loop_
_atom_site_type_symbol
_atom_site_label
_atom_site_fract_x
_atom_site_fract_y
_atom_site_fract_z
Si Si1 0.255172 0.605208 0.672967
Si Si2 0.785958 0.571140 0.464720
Si Si3 0.388317 0.665088 0.952907
Si Si4 0.389823 0.162694 0.529009
Si Si5 0.611911 0.978386 0.882118
Si Si6 0.107335 0.337550 0.089293
Si Si7 0.389055 0.835822 0.754413
O O1 0.191221 0.526737 0.664166
O O2 0.304770 0.623549 0.619351
O O3 0.341618 0.603189 0.714949
O O4 0.173491 0.664946 0.693710
O O5 0.760260 0.500000 0.500000
O O6 0.835051 0.638563 0.496318
O O7 0.684929 0.606136 0.442072
O O8 0.858634 0.546172 0.419949
O O9 0.500000 0.670379 0.968594
O O10 0.348953 0.750000 0.937110
O O11 0.376304 0.605202 0.907475
O O12 0.500000 0.137435 0.542167
O O13 0.373374 0.250000 0.545712
O O14 0.368696 0.152768 0.469469
O O15 0.500000 0.992309 0.864183
O O16 0.103584 0.250000 0.105151
O O17 0.000000 0.373308 0.101707
O O18 0.500000 0.861049 0.765832
O O19 0.386309 0.750000 0.731401
#
# Coordination Sequence:
#
# PCOD8297560 Si02
#       7
#    16  16  16  16  16  16  16
#     4  11  19  30  46  61  81 113 148 182 228 279
#     4  10  18  29  44  61  86 121 154 188 230 274
#     4   9  17  28  43  63  86 116 155 193 226 264
#     4   9  18  31  46  66  92 122 158 198 233 265
#     4  10  21  33  44  63  90 118 152 195 236 273
#     4   9  16  26  42  64  88 113 146 190 232 267
#     4  10  21  34  47  65  87 111 144 189 237 282
#
# _framework density 17.678372
#
# number of rings (size 3 to 8) (size 9 to 14) (size 15 to 20)
#    0.000    2.286    0.000    6.000    0.000    6.000 
#    0.000    2.857    0.000    0.000    0.000    0.000 
#    0.000    0.000    0.000   10.286    0.000   45.714 
#
# Total GULP energy -693760.758838 kJ/mol
# GULP energy per Si atom -12388.584979 kJ/mol
# Density = 1.763814 g / cm^3
# Si number density = 17.678372 Si / 1000 Ang^3
#
#
#
# Elastic Constant Matrix: (Units=GPa)
#
#
# Indices 1 2 3 4 5 6 
#
# 1 134.1229 29.7152 22.8864 0.0000 0.0000 0.0000
# 2 29.7152 41.4351 9.6797 0.0000 0.0000 0.0000
# 3 22.8864 9.6797 23.8944 0.0000 0.0000 0.0000
# 4 0.0000 0.0000 0.0000 17.8471 0.0000 0.0000
# 5 0.0000 0.0000 0.0000 0.0000 27.5566 0.0000
# 6 0.0000 0.0000 0.0000 0.0000 0.0000 29.0234
#
#
#
# Elastic Compliance Matrix: (Units=1/GPa)
#
#
# Indices 1 2 3 4 5 6 
#
# 1 0.009895 -0.005392 -0.007293 0.000000 0.000000 0.000000
# 2 -0.005392 0.029596 -0.006824 0.000000 0.000000 0.000000
# 3 -0.007293 -0.006824 0.051601 0.000000 0.000000 0.000000
# 4 0.000000 0.000000 0.000000 0.056031 0.000000 0.000000
# 5 0.000000 0.000000 0.000000 0.000000 0.036289 0.000000
# 6 0.000000 0.000000 0.000000 0.000000 0.000000 0.034455
#
#
# Mechanical properties :
#
#
# Convention : Reuss Voigt Hill
#
# Bulk Modulus (GPa) = 19.20426 36.00166 27.60296
# Shear Modulus (GPa) = 18.23196 24.03018 21.13107
#
# Velocity S-wave (km/s) = 3.21489 3.69087 3.46107
# Velocity P-wave (km/s) = 4.96663 6.21066 5.62316
#
# Compressibility (1/GPa) = 0.05207178
#
# Stress axis : x y z
#
# Youngs Moduli (GPa) = 101.06071 33.78884 19.37952
#
# Poissons Ratio (x) = 0.18221 0.14134
# Poissons Ratio (y) = 0.54497 0.13225
# Poissons Ratio (z) = 0.73705 0.23058
#
# Static dielectric constant tensor:
#      x y z
#    x 3.735930 0.000000 0.000000 
#    y 0.000000 3.017200 0.000000 
#    z 0.000000 0.000000 2.997230 
# 
# 
# High freq. dielectric constant tensor:
#      x y z
#    x 1.723190 0.000000 0.000000 
#    y 0.000000 1.630140 0.000000 
#    z 0.000000 0.000000 1.637060 
# 
# From -- ./inp_files/72713.got.cif
#   From: 2010.03.12/outbox.cif.g09.slc.cpg/sg74_37_cif.got.tgz:72713.got - 2010.04.16 15:46:19.
