data_PCOD8297684
_publ_section_title
;
Structure prediction by ZEFSAII (Michael W. Deem and Ramdas Pophale) SiO2 
 PCOD8297684
Probable space group: I M M A
;
_chemical_formula_sum "Si O2"
_cell_formula_units_Z 104
_cell_length_a 22.054859
_cell_length_b 9.179484
_cell_length_c 30.601224
_cell_angle_alpha 90.000000
_cell_angle_beta 90.000000
_cell_angle_gamma 90.000000
_cell_volume 6195.285896
_symmetry_space_group_name_H-M "I M M A"
_symmetry_group_IT_number 74
_symmetry_cell_setting 'orthorhombic'
loop_
_space_group_symop_operation_xyz
x,y,z
-x,1/2-y,z
x,-y,-z
-x,1/2+y,-z
-x,-y,-z
x,1/2+y,-z
-x,y,z
x,1/2-y,z
1/2+x,1/2+y,1/2+z
1/2-x,-y,1/2+z
1/2+x,1/2-y,1/2-z
1/2-x,y,1/2-z
1/2-x,1/2-y,1/2-z
1/2+x,y,1/2-z
1/2-x,1/2+y,1/2+z
1/2+x,-y,1/2+z
loop_
_atom_site_type_symbol
_atom_site_label
_atom_site_fract_x
_atom_site_fract_y
_atom_site_fract_z
Si Si1 0.000000 0.426173 0.047941
Si Si2 0.168627 0.584826 0.707142
Si Si3 0.346120 0.921953 0.123195
Si Si4 0.709443 0.084605 0.618416
Si Si5 0.812356 0.085681 0.198497
Si Si6 0.430053 0.420661 0.955801
Si Si7 0.115240 0.580071 0.045009
O O1 0.060696 0.492824 0.069944
O O2 0.000000 0.250000 0.047728
O O3 0.000000 0.500000 0.000000
O O4 0.145823 0.750000 0.701696
O O5 0.134894 0.488765 0.670322
O O6 0.155313 0.528224 0.756787
O O7 0.240355 0.575883 0.702066
O O8 0.351995 0.750000 0.127282
O O9 0.277826 0.974953 0.111912
O O10 0.390375 0.979478 0.084942
O O11 0.713392 0.250000 0.633682
O O12 0.675870 0.065232 0.572823
O O13 0.669679 0.006580 0.656014
O O14 0.833633 0.250000 0.190520
O O15 0.500000 0.456902 0.945459
O O16 0.419519 0.250000 0.962953
O O17 0.408567 0.500000 0.000000
O O18 0.097782 0.750000 0.037390
O O19 0.130227 0.500000 0.000000
#
# Coordination Sequence:
#
# PCOD8297684 Si02
#       7
#     8  16  16  16  16  16  16
#     4  10  18  30  48  66  82 106 144 182 212 246
#     4   8  14  25  41  63  88 114 143 176 216 260
#     4   9  17  29  44  65  91 117 147 184 225 269
#     4   9  18  29  42  64  93 120 146 179 222 270
#     4   8  14  25  41  61  88 117 144 176 214 259
#     4   9  18  32  48  65  87 117 154 194 231 269
#     4  10  19  31  45  63  88 116 146 182 219 259
#
# _framework density 16.786957000000001
#
# number of rings (size 3 to 8) (size 9 to 14) (size 15 to 20)
#    0.000    3.077    0.000    3.000    0.000    3.077 
#    0.000    3.077    0.000    0.000    2.000    0.000 
#    0.000    0.000    0.000    0.000    0.000    0.000 
#
# Total GULP energy -644294.605703 kJ/mol
# GULP energy per Si atom -12390.280879 kJ/mol
# Density = 1.674875 g / cm^3
# Si number density = 16.786957 Si / 1000 Ang^3
#
#
#
# Elastic Constant Matrix: (Units=GPa)
#
#
# Indices 1 2 3 4 5 6 
#
# 1 54.0998 28.9711 47.8635 0.0000 0.0000 0.0000
# 2 28.9711 70.8301 53.3572 0.0000 0.0000 0.0000
# 3 47.8635 53.3572 132.9528 0.0000 0.0000 0.0000
# 4 0.0000 0.0000 0.0000 33.4117 0.0000 0.0000
# 5 0.0000 0.0000 0.0000 0.0000 13.8672 0.0000
# 6 0.0000 0.0000 0.0000 0.0000 0.0000 16.6977
#
#
#
# Elastic Compliance Matrix: (Units=1/GPa)
#
#
# Indices 1 2 3 4 5 6 
#
# 1 0.028620 -0.005654 -0.008034 0.000000 0.000000 0.000000
# 2 -0.005654 0.021353 -0.006534 0.000000 0.000000 0.000000
# 3 -0.008034 -0.006534 0.013036 0.000000 0.000000 0.000000
# 4 0.000000 0.000000 0.000000 0.029930 0.000000 0.000000
# 5 0.000000 0.000000 0.000000 0.000000 0.072112 0.000000
# 6 0.000000 0.000000 0.000000 0.000000 0.000000 0.059889
#
#
# Mechanical properties :
#
#
# Convention : Reuss Voigt Hill
#
# Bulk Modulus (GPa) = 44.31687 57.58516 50.95101
# Shear Modulus (GPa) = 18.32129 21.30804 19.81467
#
# Velocity S-wave (km/s) = 3.30722 3.56662 3.43937
# Velocity P-wave (km/s) = 6.40629 7.16512 6.79630
#
# Compressibility (1/GPa) = 0.02256477
#
# Stress axis : x y z
#
# Youngs Moduli (GPa) = 34.94018 46.83166 76.70976
#
# Poissons Ratio (x) = 0.26479 0.61631
# Poissons Ratio (y) = 0.19755 0.50123
# Poissons Ratio (z) = 0.28072 0.30600
#
# Static dielectric constant tensor:
#      x y z
#    x 3.121360 0.000000 0.000000 
#    y 0.000000 3.217440 0.000000 
#    z 0.000000 0.000000 3.460170 
# 
# 
# High freq. dielectric constant tensor:
#      x y z
#    x 1.609260 0.000000 0.000000 
#    y 0.000000 1.646000 0.000000 
#    z 0.000000 0.000000 1.645900 
# 
# From -- ./inp_files/73668.got.cif
#   From: 2010.03.12/outbox.cif.g09.slc.cpg/sg74_37_cif.got.tgz:73668.got - 2010.04.16 15:46:19.
