data_PCOD8297368
_publ_section_title
;
Structure prediction by ZEFSAII (Michael W. Deem and Ramdas Pophale) SiO2 
 PCOD8297368
Probable space group: I M M A
;
_chemical_formula_sum "Si O2"
_cell_formula_units_Z 80
_cell_length_a 16.547492
_cell_length_b 18.573499
_cell_length_c 14.647919
_cell_angle_alpha 90.000000
_cell_angle_beta 90.000000
_cell_angle_gamma 90.000000
_cell_volume 4501.962118
_symmetry_space_group_name_H-M "I M M A"
_symmetry_group_IT_number 74
_symmetry_cell_setting 'orthorhombic'
loop_
_space_group_symop_operation_xyz
x,y,z
-x,1/2-y,z
x,-y,-z
-x,1/2+y,-z
-x,-y,-z
x,1/2+y,-z
-x,y,z
x,1/2-y,z
1/2+x,1/2+y,1/2+z
1/2-x,-y,1/2+z
1/2+x,1/2-y,1/2-z
1/2-x,y,1/2-z
1/2-x,1/2-y,1/2-z
1/2+x,y,1/2-z
1/2-x,1/2+y,1/2+z
1/2+x,-y,1/2+z
loop_
_atom_site_type_symbol
_atom_site_label
_atom_site_fract_x
_atom_site_fract_y
_atom_site_fract_z
Si Si1 0.909477 0.080219 0.741699
Si Si2 0.311833 0.461527 0.593342
Si Si3 0.149653 0.526726 0.603788
Si Si4 0.297697 0.330838 0.876827
Si Si5 0.093036 0.828988 0.548662
O O1 0.887476 0.044464 0.839047
O O2 0.839422 0.138786 0.716503
O O3 0.000000 0.113590 0.748300
O O4 0.912044 0.017118 0.666590
O O5 0.341623 0.500000 0.500000
O O6 0.241281 0.511417 0.636466
O O7 0.273349 0.381115 0.581757
O O8 0.138652 0.500000 0.500000
O O9 0.133383 0.611620 0.613995
O O10 0.264313 0.250000 0.859475
O O11 0.370244 0.330546 0.948276
O O12 0.105686 0.750000 0.593490
O O13 0.000000 0.848247 0.536079
#
# Coordination Sequence:
#
# PCOD8297368 Si02
#       5
#    16  16  16  16  16
#     4  11  22  32  51  78 104 137 174 215 261 308
#     4  10  20  37  52  71 100 141 184 217 248 303
#     4  10  17  32  52  73 102 132 163 207 259 322
#     4  10  19  33  53  78 109 137 165 211 271 329
#     4  10  18  27  46  77 108 131 152 193 259 323
#
# _framework density 17.770029999999998
#
# number of rings (size 3 to 8) (size 9 to 14) (size 15 to 20)
#    0.000    1.800    6.000    3.600    0.000    4.000 
#    0.000    0.000    0.000    3.600    0.000    0.000 
#    0.000    0.000    0.000    0.000    0.000    0.000 
#
# Total GULP energy -495725.467190 kJ/mol
# GULP energy per Si atom -12393.136680 kJ/mol
# Density = 1.772958 g / cm^3
# Si number density = 17.770030 Si / 1000 Ang^3
#
#
#
# Elastic Constant Matrix: (Units=GPa)
#
#
# Indices 1 2 3 4 5 6 
#
# 1 50.1792 15.0857 23.0386 0.0000 0.0000 0.0000
# 2 15.0857 125.0289 36.7570 0.0000 0.0000 0.0000
# 3 23.0386 36.7570 63.3078 0.0000 0.0000 0.0000
# 4 0.0000 0.0000 0.0000 18.0354 0.0000 0.0000
# 5 0.0000 0.0000 0.0000 0.0000 17.3773 0.0000
# 6 0.0000 0.0000 0.0000 0.0000 0.0000 6.9768
#
#
#
# Elastic Compliance Matrix: (Units=1/GPa)
#
#
# Indices 1 2 3 4 5 6 
#
# 1 0.023942 -0.000395 -0.008484 0.000000 0.000000 0.000000
# 2 -0.000395 0.009651 -0.005460 0.000000 0.000000 0.000000
# 3 -0.008484 -0.005460 0.022053 0.000000 0.000000 0.000000
# 4 0.000000 0.000000 0.000000 0.055446 0.000000 0.000000
# 5 0.000000 0.000000 0.000000 0.000000 0.057546 0.000000
# 6 0.000000 0.000000 0.000000 0.000000 0.000000 0.143331
#
#
# Mechanical properties :
#
#
# Convention : Reuss Voigt Hill
#
# Bulk Modulus (GPa) = 37.07829 43.14206 40.11017
# Shear Modulus (GPa) = 14.30055 19.38689 16.84372
#
# Velocity S-wave (km/s) = 2.83990 3.30659 3.08209
# Velocity P-wave (km/s) = 5.62711 6.23769 5.94025
#
# Compressibility (1/GPa) = 0.02696996
#
# Stress axis : x y z
#
# Youngs Moduli (GPa) = 41.76696 103.61752 45.34490
#
# Poissons Ratio (x) = 0.04090 0.38470
# Poissons Ratio (y) = 0.01649 0.24757
# Poissons Ratio (z) = 0.35434 0.56573
#
# Static dielectric constant tensor:
#      x y z
#    x 3.081530 0.000000 0.000000 
#    y 0.000000 3.696360 0.000000 
#    z 0.000000 0.000000 3.098900 
# 
# 
# High freq. dielectric constant tensor:
#      x y z
#    x 1.670340 0.000000 0.000000 
#    y 0.000000 1.689910 0.000000 
#    z 0.000000 0.000000 1.657990 
# 
# From -- ./inp_files/35558.got.cif
#   From: 2010.03.12/outbox.cif.g09.slc.cpg/sg74_18_cif.got.tgz:35558.got - 2010.04.16 15:46:19.
