data_PCOD8297460
_publ_section_title
;
Structure prediction by ZEFSAII (Michael W. Deem and Ramdas Pophale) SiO2 
 PCOD8297460
Probable space group: I M M A
;
_chemical_formula_sum "Si O2"
_cell_formula_units_Z 104
_cell_length_a 8.988986
_cell_length_b 37.274510
_cell_length_c 27.093773
_cell_angle_alpha 90.000000
_cell_angle_beta 90.000000
_cell_angle_gamma 90.000000
_cell_volume 9078.040897
_symmetry_space_group_name_H-M "I M M A"
_symmetry_group_IT_number 74
_symmetry_cell_setting 'orthorhombic'
loop_
_space_group_symop_operation_xyz
x,y,z
-x,1/2-y,z
x,-y,-z
-x,1/2+y,-z
-x,-y,-z
x,1/2+y,-z
-x,y,z
x,1/2-y,z
1/2+x,1/2+y,1/2+z
1/2-x,-y,1/2+z
1/2+x,1/2-y,1/2-z
1/2-x,y,1/2-z
1/2-x,1/2-y,1/2-z
1/2+x,y,1/2-z
1/2-x,1/2+y,1/2+z
1/2+x,-y,1/2+z
loop_
_atom_site_type_symbol
_atom_site_label
_atom_site_fract_x
_atom_site_fract_y
_atom_site_fract_z
Si Si1 0.173732 0.038376 0.302524
Si Si2 0.167717 0.926895 0.947614
Si Si3 0.331829 0.036578 0.969384
Si Si4 0.826245 0.389961 0.362453
Si Si5 0.832368 0.500220 0.886632
Si Si6 0.669644 0.250000 0.300763
Si Si7 0.324828 0.172124 0.303502
O O1 0.250000 0.037105 0.250000
O O2 0.243274 0.007131 0.336222
O O3 0.000000 0.030853 0.297070
O O4 0.205567 0.077156 0.325802
O O5 0.258899 0.897718 0.916335
O O6 0.000000 0.913041 0.956295
O O7 0.166106 0.964133 0.918914
O O8 0.247535 0.932348 0.000255
O O9 0.500000 0.049144 0.959146
O O10 0.248950 0.031158 0.917228
O O11 0.331195 0.000000 0.000000
O O12 0.745960 0.355175 0.341644
O O13 0.000000 0.382490 0.368292
O O14 0.000000 0.487989 0.874153
O O15 0.500000 0.250000 0.285764
O O16 0.750000 0.250000 0.250000
O O17 0.706422 0.288001 0.327392
O O18 0.500000 0.164257 0.297793
O O19 0.250000 0.167817 0.250000
#
# Coordination Sequence:
#
# PCOD8297460 Si02
#       7
#    16  16  16  16  16   8  16
#     4  10  19  28  36  46  62  82 103 127 155 187
#     4   9  16  25  36  49  64  81 100 122 148 179
#     4   9  15  23  35  49  64  80  98 121 148 177
#     4  10  19  28  37  50  66  83 102 124 153 189
#     4   9  16  25  36  48  61  78 101 125 149 179
#     4   8  16  28  40  52  64  78  98 124 152 182
#     4  10  18  28  40  52  65  81 101 125 153 186
#
# _framework density 11.456216
#
# number of rings (size 3 to 8) (size 9 to 14) (size 15 to 20)
#    0.000    2.615    0.000    3.231    0.000    9.231 
#    0.000    0.000    0.000    0.000    0.000    0.000 
#    0.000    0.000    0.000    0.000    0.000    0.000 
#
# Total GULP energy -644544.873172 kJ/mol
# GULP energy per Si atom -12395.093715 kJ/mol
# Density = 1.143014 g / cm^3
# Si number density = 11.456216 Si / 1000 Ang^3
#
#
#
# Elastic Constant Matrix: (Units=GPa)
#
#
# Indices 1 2 3 4 5 6 
#
# 1 100.8684 39.3855 50.5568 0.0000 0.0000 0.0000
# 2 39.3855 50.6311 42.1068 0.0000 0.0000 0.0000
# 3 50.5568 42.1068 58.3490 0.0000 0.0000 0.0000
# 4 0.0000 0.0000 0.0000 9.0598 0.0000 0.0000
# 5 0.0000 0.0000 0.0000 0.0000 21.9303 0.0000
# 6 0.0000 0.0000 0.0000 0.0000 0.0000 13.6270
#
#
#
# Elastic Compliance Matrix: (Units=1/GPa)
#
#
# Indices 1 2 3 4 5 6 
#
# 1 0.017653 -0.002530 -0.013470 0.000000 0.000000 0.000000
# 2 -0.002530 0.049757 -0.033714 0.000000 0.000000 0.000000
# 3 -0.013470 -0.033714 0.053138 0.000000 0.000000 0.000000
# 4 0.000000 0.000000 0.000000 0.110378 0.000000 0.000000
# 5 0.000000 0.000000 0.000000 0.000000 0.045599 0.000000
# 6 0.000000 0.000000 0.000000 0.000000 0.000000 0.073383
#
#
# Mechanical properties :
#
#
# Convention : Reuss Voigt Hill
#
# Bulk Modulus (GPa) = 47.34753 52.66075 50.00414
# Shear Modulus (GPa) = 10.95585 14.11005 12.53295
#
# Velocity S-wave (km/s) = 3.09580 3.51329 3.31114
# Velocity P-wave (km/s) = 7.36190 7.90724 7.63943
#
# Compressibility (1/GPa) = 0.02112043
#
# Stress axis : x y z
#
# Youngs Moduli (GPa) = 56.64736 20.09765 18.81878
#
# Poissons Ratio (x) = 0.05085 0.25348
# Poissons Ratio (y) = 0.14334 0.63446
# Poissons Ratio (z) = 0.76302 0.67757
#
# Static dielectric constant tensor:
#      x y z
#    x 2.640130 0.000000 0.000000 
#    y 0.000000 3.199430 0.000000 
#    z 0.000000 0.000000 2.306700 
# 
# 
# High freq. dielectric constant tensor:
#      x y z
#    x 1.457890 0.000000 0.000000 
#    y 0.000000 1.388780 0.000000 
#    z 0.000000 0.000000 1.408780 
# 
# From -- ./inp_files/65235.got.cif
#   From: 2010.03.12/outbox.cif.g09.slc.cpg/sg74_33_cif.got.tgz:65235.got - 2010.04.16 15:46:19.
