data_PCOD8297387
_publ_section_title
;
Structure prediction by ZEFSAII (Michael W. Deem and Ramdas Pophale) SiO2 
 PCOD8297387
Probable space group: I M M A
;
_chemical_formula_sum "Si O2"
_cell_formula_units_Z 72
_cell_length_a 13.811067
_cell_length_b 30.493131
_cell_length_c 8.921563
_cell_angle_alpha 90.000000
_cell_angle_beta 90.000000
_cell_angle_gamma 90.000000
_cell_volume 3757.250910
_symmetry_space_group_name_H-M "I M M A"
_symmetry_group_IT_number 74
_symmetry_cell_setting 'orthorhombic'
loop_
_space_group_symop_operation_xyz
x,y,z
-x,1/2-y,z
x,-y,-z
-x,1/2+y,-z
-x,-y,-z
x,1/2+y,-z
-x,y,z
x,1/2-y,z
1/2+x,1/2+y,1/2+z
1/2-x,-y,1/2+z
1/2+x,1/2-y,1/2-z
1/2-x,y,1/2-z
1/2-x,1/2-y,1/2-z
1/2+x,y,1/2-z
1/2-x,1/2+y,1/2+z
1/2+x,-y,1/2+z
loop_
_atom_site_type_symbol
_atom_site_label
_atom_site_fract_x
_atom_site_fract_y
_atom_site_fract_z
Si Si1 0.000000 0.624069 0.465853
Si Si2 0.711141 0.623349 0.914843
Si Si3 0.500000 0.171895 0.671242
Si Si4 0.296314 0.457157 0.592930
Si Si5 0.000000 0.574862 0.174167
Si Si6 0.793829 0.299821 0.905178
O O1 0.094059 0.624308 0.573645
O O2 0.000000 0.666820 0.354401
O O3 0.000000 0.580940 0.356662
O O4 0.750000 0.612337 0.750000
O O5 0.750531 0.586449 0.024872
O O6 0.754049 0.670450 0.960870
O O7 0.500000 0.123226 0.598978
O O8 0.409056 0.198533 0.610005
O O9 0.271727 0.500000 0.500000
O O10 0.250000 0.466232 0.750000
O O11 0.410166 0.452238 0.614032
O O12 0.760999 0.250000 0.936900
O O13 0.750000 0.318008 0.750000
#
# Coordination Sequence:
#
# PCOD8297387 Si02
#       6
#     8  16   8  16   8  16
#     4  10  20  40  67  92 120 175 204 262 311 376
#     4  12  24  42  64  91 133 170 208 258 318 374
#     4  10  17  36  67  91 123 164 211 264 307 368
#     4  12  23  42  65  97 127 166 211 262 312 374
#     4  10  19  38  72  87 130 159 218 258 311 366
#     4  11  21  37  64  95 125 165 214 260 310 371
#
# _framework density 19.162948
#
# number of rings (size 3 to 8) (size 9 to 14) (size 15 to 20)
#    0.667    0.222    6.667    2.000    0.000    2.222 
#    0.000    5.000    0.000    0.000    0.000    0.000 
#    0.000    0.000    0.000    0.000    0.000    0.000 
#
# Total GULP energy -446389.956086 kJ/mol
# GULP energy per Si atom -12399.721002 kJ/mol
# Density = 1.911933 g / cm^3
# Si number density = 19.162948 Si / 1000 Ang^3
#
#
#
# Elastic Constant Matrix: (Units=GPa)
#
#
# Indices 1 2 3 4 5 6 
#
# 1 159.0744 26.8610 43.5735 -0.0004 0.0012 0.0025
# 2 26.8610 96.0264 38.2667 -0.0029 0.0003 0.0031
# 3 43.5735 38.2667 98.9055 -0.0082 0.0161 0.0424
# 4 -0.0004 -0.0029 -0.0082 30.1677 -0.0002 0.0032
# 5 0.0012 0.0003 0.0161 -0.0002 28.6315 -0.0071
# 6 0.0025 0.0031 0.0424 0.0032 -0.0071 -13.2311
#
#
#
# Elastic Compliance Matrix: (Units=1/GPa)
#
#
# Indices 1 2 3 4 5 6 
#
# 1 0.007213 -0.000888 -0.002834 -0.000001 0.000001 -0.000008
# 2 -0.000888 0.012421 -0.004415 0.000000 0.000002 -0.000011
# 3 -0.002834 -0.004415 0.013067 0.000003 -0.000007 0.000040
# 4 -0.000001 0.000000 0.000003 0.033148 0.000000 0.000008
# 5 0.000001 0.000002 -0.000007 0.000000 0.034927 -0.000019
# 6 -0.000008 -0.000011 0.000040 0.000008 -0.000019 -0.075579
#
#
# Mechanical properties :
#
#
# Convention : Reuss Voigt Hill
#
# Bulk Modulus (GPa) = 60.87232 63.48985 62.18108
# Shear Modulus (GPa) = 106.50565 25.46728 65.98647
#
# Velocity S-wave (km/s) = 7.46322 3.64948 5.87445
# Velocity P-wave (km/s) = 10.30052 7.13875 8.86179
#
# Compressibility (1/GPa) = 0.01642783
#
# Stress axis : x y z
#
# Youngs Moduli (GPa) = 138.64605 80.50569 76.52784
#
# Poissons Ratio (x) = 0.07151 0.21687
# Poissons Ratio (y) = 0.12315 0.33784
# Poissons Ratio (z) = 0.39291 0.35540
#
# Static dielectric constant tensor:
#      x y z
#    x 3.550370 0.000000 0.000000 
#    y 0.000000 3.359470 -0.000010 
#    z 0.000000 -0.000010 3.299650 
# 
# 
# High freq. dielectric constant tensor:
#      x y z
#    x 1.762780 0.000000 0.000000 
#    y 0.000000 1.742370 0.000000 
#    z 0.000000 0.000000 1.723620 
# 
# From -- ./inp_files/9358.got.cif
#   From: 2010.03.12/outbox.cif.g09.slc.cpg/sg74_5_cif.got.tgz:9358.got - 2010.04.16 15:46:19.
