data_PCOD8297746
_publ_section_title
;
Structure prediction by ZEFSAII (Michael W. Deem and Ramdas Pophale) SiO2 
 PCOD8297746
Probable space group: I M M A
;
_chemical_formula_sum "Si O2"
_cell_formula_units_Z 104
_cell_length_a 9.200181
_cell_length_b 32.043540
_cell_length_c 19.423825
_cell_angle_alpha 90.000000
_cell_angle_beta 90.000000
_cell_angle_gamma 90.000000
_cell_volume 5726.267299
_symmetry_space_group_name_H-M "I M M A"
_symmetry_group_IT_number 74
_symmetry_cell_setting 'orthorhombic'
loop_
_space_group_symop_operation_xyz
x,y,z
-x,1/2-y,z
x,-y,-z
-x,1/2+y,-z
-x,-y,-z
x,1/2+y,-z
-x,y,z
x,1/2-y,z
1/2+x,1/2+y,1/2+z
1/2-x,-y,1/2+z
1/2+x,1/2-y,1/2-z
1/2-x,y,1/2-z
1/2-x,1/2-y,1/2-z
1/2+x,y,1/2-z
1/2-x,1/2+y,1/2+z
1/2+x,-y,1/2+z
loop_
_atom_site_type_symbol
_atom_site_label
_atom_site_fract_x
_atom_site_fract_y
_atom_site_fract_z
Si Si1 0.166165 0.067748 0.098783
Si Si2 0.166994 0.648634 0.819474
Si Si3 0.335764 0.988890 0.079777
Si Si4 0.171378 0.591775 0.054699
Si Si5 0.328769 0.750000 0.177587
Si Si6 0.162998 0.798058 0.574268
Si Si7 0.330811 0.675441 0.078372
O O1 0.189617 0.100571 0.159784
O O2 0.000000 0.052671 0.093063
O O3 0.263700 0.027994 0.118984
O O4 0.211540 0.089133 0.026333
O O5 0.250000 0.659021 0.750000
O O6 0.222222 0.677296 0.880755
O O7 0.000000 0.659329 0.807209
O O8 0.500000 0.982552 0.106320
O O9 0.243838 0.947223 0.094419
O O10 0.331521 0.000000 0.000000
O O11 0.236598 0.633713 0.087149
O O12 0.000000 0.590930 0.067572
O O13 0.500000 0.750000 0.189392
O O14 0.250000 0.750000 0.250000
O O15 0.282154 0.708527 0.136113
O O16 0.174440 0.750000 0.594473
O O17 0.202674 0.803468 0.494637
O O18 0.000000 0.814889 0.588825
O O19 0.500000 0.663722 0.085396
#
# Coordination Sequence:
#
# PCOD8297746 Si02
#       7
#    16  16  16  16   8  16  16
#     4   9  18  32  49  72 106 141 177 225 275 322
#     4  11  23  38  54  77 108 147 191 234 281 331
#     4   9  17  28  46  75 106 138 176 216 265 322
#     4  10  18  30  50  79 111 141 176 222 275 322
#     4  10  22  40  60  86 117 148 179 218 267 328
#     4  10  20  36  58  81 106 141 184 231 281 329
#     4  10  19  34  57  83 112 144 181 224 272 325
#
# _framework density 18.161916999999999
#
# number of rings (size 3 to 8) (size 9 to 14) (size 15 to 20)
#    0.000    2.154    2.308    1.385    0.000    4.923 
#    0.000    0.000    0.000    0.923    0.000    6.462 
#    0.000    0.000    0.000    0.000    0.000    0.000 
#
# Total GULP energy -644904.463942 kJ/mol
# GULP energy per Si atom -12402.008922 kJ/mol
# Density = 1.812058 g / cm^3
# Si number density = 18.161917 Si / 1000 Ang^3
#
#
#
# Elastic Constant Matrix: (Units=GPa)
#
#
# Indices 1 2 3 4 5 6 
#
# 1 115.0549 73.8666 49.3035 0.0000 0.0000 0.0000
# 2 73.8666 123.2994 38.3202 0.0001 0.0000 0.0000
# 3 49.3035 38.3202 79.7377 0.0003 0.0000 0.0000
# 4 0.0000 0.0001 0.0003 16.9684 0.0000 0.0000
# 5 0.0000 0.0000 0.0000 0.0000 24.0280 0.0000
# 6 0.0000 0.0000 0.0000 0.0000 0.0000 33.0830
#
#
#
# Elastic Compliance Matrix: (Units=1/GPa)
#
#
# Indices 1 2 3 4 5 6 
#
# 1 0.016510 -0.007898 -0.006413 0.000000 0.000000 0.000000
# 2 -0.007898 0.013312 -0.001514 0.000000 0.000000 0.000000
# 3 -0.006413 -0.001514 0.017234 0.000000 0.000000 0.000000
# 4 0.000000 0.000000 0.000000 0.058933 0.000000 0.000000
# 5 0.000000 0.000000 0.000000 0.000000 0.041618 0.000000
# 6 0.000000 0.000000 0.000000 0.000000 0.000000 0.030227
#
#
# Mechanical properties :
#
#
# Convention : Reuss Voigt Hill
#
# Bulk Modulus (GPa) = 64.90793 71.23029 68.06911
# Shear Modulus (GPa) = 23.29694 25.25600 24.27647
#
# Velocity S-wave (km/s) = 3.58542 3.73312 3.66001
# Velocity P-wave (km/s) = 7.27711 7.60831 7.44455
#
# Compressibility (1/GPa) = 0.01540644
#
# Stress axis : x y z
#
# Youngs Moduli (GPa) = 60.56886 75.11782 58.02437
#
# Poissons Ratio (x) = 0.59327 0.37211
# Poissons Ratio (y) = 0.47836 0.08786
# Poissons Ratio (z) = 0.38843 0.11375
#
# Static dielectric constant tensor:
#      x y z
#    x 3.404020 0.000000 0.000000 
#    y 0.000000 3.433630 0.000000 
#    z 0.000000 0.000000 2.994070 
# 
# 
# High freq. dielectric constant tensor:
#      x y z
#    x 1.709660 0.000000 0.000000 
#    y 0.000000 1.713740 0.000000 
#    z 0.000000 0.000000 1.663550 
# 
# From -- ./inp_files/49655.got.cif
#   From: 2010.03.12/outbox.cif.g09.slc.cpg/sg74_25_cif.got.tgz:49655.got - 2010.04.16 15:46:19.
