data_PCOD8297950
_publ_section_title
;
Structure prediction by ZEFSAII (Michael W. Deem and Ramdas Pophale) SiO2 
 PCOD8297950
Probable space group: I M M A
;
_chemical_formula_sum "Si O2"
_cell_formula_units_Z 72
_cell_length_a 32.647767
_cell_length_b 8.583040
_cell_length_c 13.561994
_cell_angle_alpha 90.000000
_cell_angle_beta 90.000000
_cell_angle_gamma 90.000000
_cell_volume 3800.302494
_symmetry_space_group_name_H-M "I M M A"
_symmetry_group_IT_number 74
_symmetry_cell_setting 'orthorhombic'
loop_
_space_group_symop_operation_xyz
x,y,z
-x,1/2-y,z
x,-y,-z
-x,1/2+y,-z
-x,-y,-z
x,1/2+y,-z
-x,y,z
x,1/2-y,z
1/2+x,1/2+y,1/2+z
1/2-x,-y,1/2+z
1/2+x,1/2-y,1/2-z
1/2-x,y,1/2-z
1/2-x,1/2-y,1/2-z
1/2+x,y,1/2-z
1/2-x,1/2+y,1/2+z
1/2+x,-y,1/2+z
loop_
_atom_site_type_symbol
_atom_site_label
_atom_site_fract_x
_atom_site_fract_y
_atom_site_fract_z
Si Si1 0.840962 0.926450 0.396911
Si Si2 0.500000 0.937438 0.111543
Si Si3 0.864985 0.065014 0.893535
Si Si4 0.294704 0.430442 0.275541
Si Si5 0.419932 0.424693 0.784215
O O1 0.823557 0.750000 0.387710
O O2 0.889322 0.925767 0.377131
O O3 0.830197 0.000000 0.500000
O O4 0.820918 0.044606 0.321343
O O5 0.500000 0.750000 0.105446
O O6 0.538747 0.004658 0.174371
O O7 0.500000 0.000000 0.000000
O O8 0.865945 0.250000 0.893486
O O9 0.898033 0.998552 0.812737
O O10 0.818479 0.014194 0.865840
O O11 0.877438 0.000000 0.000000
O O12 0.290930 0.250000 0.303430
O O13 0.250000 0.501607 0.250000
O O14 0.431284 0.250000 0.752922
#
# Coordination Sequence:
#
# PCOD8297950 Si02
#       5
#    16   8  16  16  16
#     4  10  19  32  50  73 101 134 169 204 249 302
#     4  10  18  32  53  78 108 138 169 208 257 308
#     4  10  20  36  56  77 102 137 178 216 260 309
#     4  10  21  36  53  75 101 130 168 213 259 307
#     4   8  17  32  51  75 103 135 170 209 252 302
#
# _framework density 18.94586
#
# number of rings (size 3 to 8) (size 9 to 14) (size 15 to 20)
#    0.000    2.444    0.000    4.000    0.000    2.667 
#    0.000    6.111    0.000    0.000    0.000    0.000 
#    0.000    0.000    0.000    0.000    0.000    0.000 
#
# Total GULP energy -446039.809496 kJ/mol
# GULP energy per Si atom -12389.994708 kJ/mol
# Density = 1.890274 g / cm^3
# Si number density = 18.945860 Si / 1000 Ang^3
#
#
#
# Elastic Constant Matrix: (Units=GPa)
#
#
# Indices 1 2 3 4 5 6 
#
# 1 120.1657 22.0077 39.6776 0.0000 0.0000 0.0000
# 2 22.0077 48.3603 19.6312 0.0000 0.0000 0.0000
# 3 39.6776 19.6312 115.7669 0.0000 0.0000 0.0000
# 4 0.0000 0.0000 0.0000 29.8260 0.0000 0.0000
# 5 0.0000 0.0000 0.0000 0.0000 19.1462 0.0000
# 6 0.0000 0.0000 0.0000 0.0000 0.0000 17.8573
#
#
#
# Elastic Compliance Matrix: (Units=1/GPa)
#
#
# Indices 1 2 3 4 5 6 
#
# 1 0.009864 -0.003347 -0.002813 0.000000 0.000000 0.000000
# 2 -0.003347 0.023342 -0.002811 0.000000 0.000000 0.000000
# 3 -0.002813 -0.002811 0.010079 0.000000 0.000000 0.000000
# 4 0.000000 0.000000 0.000000 0.033528 0.000000 0.000000
# 5 0.000000 0.000000 0.000000 0.000000 0.052230 0.000000
# 6 0.000000 0.000000 0.000000 0.000000 0.000000 0.056000
#
#
# Mechanical properties :
#
#
# Convention : Reuss Voigt Hill
#
# Bulk Modulus (GPa) = 39.45910 49.65842 44.55876
# Shear Modulus (GPa) = 23.64831 26.89767 25.27299
#
# Velocity S-wave (km/s) = 3.53683 3.77199 3.65630
# Velocity P-wave (km/s) = 6.12792 6.72593 6.43388
#
# Compressibility (1/GPa) = 0.02534270
#
# Stress axis : x y z
#
# Youngs Moduli (GPa) = 101.38239 42.84058 99.21705
#
# Poissons Ratio (x) = 0.14338 0.27911
# Poissons Ratio (y) = 0.33931 0.27892
# Poissons Ratio (z) = 0.28520 0.12043
#
# Static dielectric constant tensor:
#      x y z
#    x 3.716750 0.000000 0.000000 
#    y 0.000000 3.286180 0.000000 
#    z 0.000000 0.000000 3.602750 
# 
# 
# High freq. dielectric constant tensor:
#      x y z
#    x 1.732290 0.000000 0.000000 
#    y 0.000000 1.717820 0.000000 
#    z 0.000000 0.000000 1.735360 
# 
# From -- ./inp_files/29402.got.cif
#   From: 2010.03.12/outbox.cif.g09.slc.cpg/sg74_15_cif.got.tgz:29402.got - 2010.04.16 15:46:19.
