data_PCOD8297768
_publ_section_title
;
Structure prediction by ZEFSAII (Michael W. Deem and Ramdas Pophale) SiO2 
 PCOD8297768
Probable space group: I M M A
;
_chemical_formula_sum "Si O2"
_cell_formula_units_Z 72
_cell_length_a 8.840240
_cell_length_b 23.297916
_cell_length_c 17.689730
_cell_angle_alpha 90.000000
_cell_angle_beta 90.000000
_cell_angle_gamma 90.000000
_cell_volume 3643.362090
_symmetry_space_group_name_H-M "I M M A"
_symmetry_group_IT_number 74
_symmetry_cell_setting 'orthorhombic'
loop_
_space_group_symop_operation_xyz
x,y,z
-x,1/2-y,z
x,-y,-z
-x,1/2+y,-z
-x,-y,-z
x,1/2+y,-z
-x,y,z
x,1/2-y,z
1/2+x,1/2+y,1/2+z
1/2-x,-y,1/2+z
1/2+x,1/2-y,1/2-z
1/2-x,y,1/2-z
1/2-x,1/2-y,1/2-z
1/2+x,y,1/2-z
1/2-x,1/2+y,1/2+z
1/2+x,-y,1/2+z
loop_
_atom_site_type_symbol
_atom_site_label
_atom_site_fract_x
_atom_site_fract_y
_atom_site_fract_z
Si Si1 0.169615 0.982842 0.413249
Si Si2 0.181039 0.750000 0.166882
Si Si3 0.822194 0.865833 0.332048
Si Si4 0.823829 0.811722 0.667931
Si Si5 0.674989 0.920261 0.669179
O O1 0.294892 0.020888 0.373035
O O2 0.000000 0.996982 0.383922
O O3 0.182488 0.000000 0.500000
O O4 0.206939 0.916757 0.392683
O O5 0.250000 0.750000 0.250000
O O6 0.245059 0.690975 0.130219
O O7 0.000000 0.750000 0.165708
O O8 0.750000 0.880934 0.250000
O O9 0.000000 0.854717 0.319861
O O10 0.795777 0.750000 0.626817
O O11 0.750000 0.809080 0.750000
O O12 0.746915 0.865270 0.624018
O O13 0.000000 0.824159 0.676412
O O14 0.500000 0.909632 0.677994
O O15 0.750000 0.925265 0.750000
#
# Coordination Sequence:
#
# PCOD8297768 Si02
#       5
#    16   8  16  16  16
#     4  10  22  39  57  77 107 145 184 226 272 325
#     4  10  18  30  52  82 114 142 173 220 273 328
#     4  10  19  33  56  84 112 142 180 225 273 327
#     4   9  16  27  46  72 101 132 168 212 261 308
#     4  11  21  33  53  79 107 139 177 223 269 320
#
# _framework density 19.761966000000001
#
# number of rings (size 3 to 8) (size 9 to 14) (size 15 to 20)
#    0.000    2.000    0.000    7.667    0.000    5.333 
#    0.000    0.000    2.444    0.000    0.000    0.000 
#    0.000    0.000    0.000    0.000    0.000    0.000 
#
# Total GULP energy -446016.872683 kJ/mol
# GULP energy per Si atom -12389.357575 kJ/mol
# Density = 1.971699 g / cm^3
# Si number density = 19.761966 Si / 1000 Ang^3
#
#
#
# Elastic Constant Matrix: (Units=GPa)
#
#
# Indices 1 2 3 4 5 6 
#
# 1 156.4356 77.5265 30.2636 0.0000 0.0000 0.0000
# 2 77.5265 185.7285 46.5576 0.0000 0.0000 0.0000
# 3 30.2636 46.5576 44.7345 -0.0003 0.0000 0.0001
# 4 0.0000 0.0000 -0.0003 10.9671 0.0000 0.0000
# 5 0.0000 0.0000 0.0000 0.0000 13.8746 0.0000
# 6 0.0000 0.0000 0.0001 0.0000 0.0000 41.0053
#
#
#
# Elastic Compliance Matrix: (Units=1/GPa)
#
#
# Indices 1 2 3 4 5 6 
#
# 1 0.008297 -0.002782 -0.002718 0.000000 0.000000 0.000000
# 2 -0.002782 0.008218 -0.006670 0.000000 0.000000 0.000000
# 3 -0.002718 -0.006670 0.031135 0.000001 0.000000 0.000000
# 4 0.000000 0.000000 0.000001 0.091182 0.000000 0.000000
# 5 0.000000 0.000000 0.000000 0.000000 0.072074 0.000000
# 6 0.000000 0.000000 0.000000 0.000000 0.000000 0.024387
#
#
# Mechanical properties :
#
#
# Convention : Reuss Voigt Hill
#
# Bulk Modulus (GPa) = 42.90136 77.28825 60.09480
# Shear Modulus (GPa) = 18.69847 28.67281 23.68564
#
# Velocity S-wave (km/s) = 3.07935 3.81321 3.46576
# Velocity P-wave (km/s) = 5.86510 7.65388 6.81841
#
# Compressibility (1/GPa) = 0.02330929
#
# Stress axis : x y z
#
# Youngs Moduli (GPa) = 120.52753 121.69034 32.11844
#
# Poissons Ratio (x) = 0.33855 0.08728
# Poissons Ratio (y) = 0.33531 0.21424
# Poissons Ratio (z) = 0.32754 0.81172
#
# Static dielectric constant tensor:
#      x y z
#    x 3.763170 0.000000 0.000000 
#    y 0.000000 5.338610 0.000000 
#    z 0.000000 0.000000 3.305500 
# 
# 
# High freq. dielectric constant tensor:
#      x y z
#    x 1.785190 0.000000 0.000000 
#    y 0.000000 1.803690 0.000000 
#    z 0.000000 0.000000 1.702310 
# 
# From -- ./inp_files/39473.got.cif
#   From: 2010.03.12/outbox.cif.g09.slc.cpg/sg74_20_cif.got.tgz:39473.got - 2010.04.16 15:46:19.
