data_PCOD8297946
_publ_section_title
;
Structure prediction by ZEFSAII (Michael W. Deem and Ramdas Pophale) SiO2 
 PCOD8297946
Probable space group: I M M A
;
_chemical_formula_sum "Si O2"
_cell_formula_units_Z 96
_cell_length_a 16.998368
_cell_length_b 18.872612
_cell_length_c 17.507529
_cell_angle_alpha 90.000000
_cell_angle_beta 90.000000
_cell_angle_gamma 90.000000
_cell_volume 5616.478399
_symmetry_space_group_name_H-M "I M M A"
_symmetry_group_IT_number 74
_symmetry_cell_setting 'orthorhombic'
loop_
_space_group_symop_operation_xyz
x,y,z
-x,1/2-y,z
x,-y,-z
-x,1/2+y,-z
-x,-y,-z
x,1/2+y,-z
-x,y,z
x,1/2-y,z
1/2+x,1/2+y,1/2+z
1/2-x,-y,1/2+z
1/2+x,1/2-y,1/2-z
1/2-x,y,1/2-z
1/2-x,1/2-y,1/2-z
1/2+x,y,1/2-z
1/2-x,1/2+y,1/2+z
1/2+x,-y,1/2+z
loop_
_atom_site_type_symbol
_atom_site_label
_atom_site_fract_x
_atom_site_fract_y
_atom_site_fract_z
Si Si1 0.819126 0.443256 0.192202
Si Si2 0.089158 0.540726 0.301949
Si Si3 0.315265 0.828961 0.440927
Si Si4 0.909063 0.667132 0.908953
Si Si5 0.279419 0.463776 0.920459
Si Si6 0.161897 0.670552 0.230717
O O1 0.750000 0.418672 0.250000
O O2 0.886171 0.484350 0.238038
O O3 0.857199 0.374509 0.153160
O O4 0.788221 0.497756 0.128383
O O5 0.137930 0.530828 0.378652
O O6 0.099430 0.620597 0.271569
O O7 0.000000 0.526842 0.324043
O O8 0.281668 0.750000 0.457148
O O9 0.377829 0.850549 0.505990
O O10 0.242416 0.882447 0.437734
O O11 0.357960 0.830397 0.359009
O O12 0.900506 0.750000 0.890178
O O13 0.000000 0.643128 0.904916
O O14 0.291759 0.500000 0.000000
O O15 0.154164 0.750000 0.264079
O O16 0.250000 0.641132 0.250000
#
# Coordination Sequence:
#
# PCOD8297946 Si02
#       6
#    16  16  16  16  16  16
#     4  10  20  36  56  79 103 134 177 218 257 312
#     4  11  22  34  51  78 109 138 173 218 267 309
#     4  10  19  33  54  78 106 141 173 207 254 309
#     4  10  21  36  54  80 110 136 167 214 269 313
#     4  11  20  36  56  76 101 138 183 219 251 309
#     4  10  18  32  53  75 104 140 176 212 252 306
#
# _framework density 17.092562000000001
#
# number of rings (size 3 to 8) (size 9 to 14) (size 15 to 20)
#    0.000    1.667    5.000    1.000    0.000    1.667 
#    0.000    2.500    0.000    0.000    0.000    0.000 
#    0.000    0.000    0.000    0.000    0.000    0.000 
#
# Total GULP energy -595235.943094 kJ/mol
# GULP energy per Si atom -12400.748814 kJ/mol
# Density = 1.705366 g / cm^3
# Si number density = 17.092562 Si / 1000 Ang^3
#
#
#
# Elastic Constant Matrix: (Units=GPa)
#
#
# Indices 1 2 3 4 5 6 
#
# 1 114.6916 45.4245 46.6218 0.0000 0.0000 0.0000
# 2 45.4245 76.8372 43.4510 0.0000 0.0000 0.0000
# 3 46.6218 43.4510 101.6524 0.0000 0.0000 0.0000
# 4 0.0000 0.0000 0.0000 29.1821 0.0000 0.0000
# 5 0.0000 0.0000 0.0000 0.0000 26.9379 0.0000
# 6 0.0000 0.0000 0.0000 0.0000 0.0000 32.7243
#
#
#
# Elastic Compliance Matrix: (Units=1/GPa)
#
#
# Indices 1 2 3 4 5 6 
#
# 1 0.012173 -0.005327 -0.003306 0.000000 0.000000 0.000000
# 2 -0.005327 0.019494 -0.005890 0.000000 0.000000 0.000000
# 3 -0.003306 -0.005890 0.013871 0.000000 0.000000 0.000000
# 4 0.000000 0.000000 0.000000 0.034268 0.000000 0.000000
# 5 0.000000 0.000000 0.000000 0.000000 0.037122 0.000000
# 6 0.000000 0.000000 0.000000 0.000000 0.000000 0.030558
#
#
# Mechanical properties :
#
#
# Convention : Reuss Voigt Hill
#
# Bulk Modulus (GPa) = 60.63066 62.68620 61.65843
# Shear Modulus (GPa) = 27.46821 28.28112 27.87467
#
# Velocity S-wave (km/s) = 4.01312 4.07207 4.04271
# Velocity P-wave (km/s) = 7.55133 7.67224 7.61202
#
# Compressibility (1/GPa) = 0.01649330
#
# Stress axis : x y z
#
# Youngs Moduli (GPa) = 82.15199 51.29749 72.09182
#
# Poissons Ratio (x) = 0.27324 0.23833
# Poissons Ratio (y) = 0.43760 0.42460
# Poissons Ratio (z) = 0.27159 0.30213
#
# Static dielectric constant tensor:
#      x y z
#    x 3.141800 0.000000 0.000000 
#    y 0.000000 3.493800 0.000000 
#    z 0.000000 0.000000 3.313580 
# 
# 
# High freq. dielectric constant tensor:
#      x y z
#    x 1.637560 0.000000 0.000000 
#    y 0.000000 1.666380 0.000000 
#    z 0.000000 0.000000 1.664200 
# 
# From -- ./inp_files/32379.got.cif
#   From: 2010.03.12/outbox.cif.g09.slc.cpg/sg74_17_cif.got.tgz:32379.got - 2010.04.16 15:46:19.
