data_PCOD8297687
_publ_section_title
;
Structure prediction by ZEFSAII (Michael W. Deem and Ramdas Pophale) SiO2 
 PCOD8297687
Probable space group: I M M A
;
_chemical_formula_sum "Si O2"
_cell_formula_units_Z 104
_cell_length_a 9.582674
_cell_length_b 19.574044
_cell_length_c 32.739629
_cell_angle_alpha 90.000000
_cell_angle_beta 90.000000
_cell_angle_gamma 90.000000
_cell_volume 6141.027296
_symmetry_space_group_name_H-M "I M M A"
_symmetry_group_IT_number 74
_symmetry_cell_setting 'orthorhombic'
loop_
_space_group_symop_operation_xyz
x,y,z
-x,1/2-y,z
x,-y,-z
-x,1/2+y,-z
-x,-y,-z
x,1/2+y,-z
-x,y,z
x,1/2-y,z
1/2+x,1/2+y,1/2+z
1/2-x,-y,1/2+z
1/2+x,1/2-y,1/2-z
1/2-x,y,1/2-z
1/2-x,1/2-y,1/2-z
1/2+x,y,1/2-z
1/2-x,1/2+y,1/2+z
1/2+x,-y,1/2+z
loop_
_atom_site_type_symbol
_atom_site_label
_atom_site_fract_x
_atom_site_fract_y
_atom_site_fract_z
Si Si1 0.664109 0.972078 0.789048
Si Si2 0.160827 0.085837 0.377072
Si Si3 0.664534 0.750000 0.209600
Si Si4 0.335287 0.390785 0.828314
Si Si5 0.162418 0.560007 0.413331
Si Si6 0.840930 0.921092 0.010374
Si Si7 0.337621 0.829175 0.565394
O O1 0.500000 0.968802 0.778875
O O2 0.750000 0.943905 0.750000
O O3 0.698158 0.927735 0.829536
O O4 0.716910 0.049743 0.797726
O O5 0.254827 0.147303 0.394169
O O6 0.000000 0.107308 0.380552
O O7 0.190493 0.020022 0.405459
O O8 0.500000 0.750000 0.218561
O O9 0.750000 0.750000 0.250000
O O10 0.713434 0.816569 0.185401
O O11 0.500000 0.399351 0.830468
O O12 0.278214 0.400481 0.873874
O O13 0.245391 0.592737 0.450688
O O14 0.000000 0.573570 0.421399
O O15 0.787424 0.873215 0.973580
O O16 0.000000 0.902589 0.021259
O O17 0.824691 0.000000 0.000000
O O18 0.500000 0.842289 0.573993
O O19 0.305677 0.750000 0.556693
#
# Coordination Sequence:
#
# PCOD8297687 Si02
#       7
#    16  16   8  16  16  16  16
#     4   9  17  30  48  73 100 124 155 199 246 287
#     4   9  18  32  51  73  99 128 159 199 242 283
#     4  10  18  30  48  66  92 130 168 204 244 290
#     4   8  16  30  46  66  95 129 162 201 245 285
#     4   9  17  31  50  71  95 126 165 203 241 283
#     4  10  19  32  51  74  99 128 162 200 241 288
#     4  10  21  36  52  72 100 131 162 198 244 292
#
# _framework density 16.935276000000002
#
# number of rings (size 3 to 8) (size 9 to 14) (size 15 to 20)
#    0.000    2.769    1.538    2.308    0.000    1.846 
#    1.385    3.077    0.000    0.462    0.000    0.000 
#    0.000    0.000    0.000    0.000    0.000    0.000 
#
# Total GULP energy -644616.518537 kJ/mol
# GULP energy per Si atom -12396.471510 kJ/mol
# Density = 1.689673 g / cm^3
# Si number density = 16.935276 Si / 1000 Ang^3
#
#
#
# Elastic Constant Matrix: (Units=GPa)
#
#
# Indices 1 2 3 4 5 6 
#
# 1 53.0807 35.9939 59.7652 0.0000 0.0000 0.0000
# 2 35.9939 88.5611 52.3909 0.0000 0.0000 0.0000
# 3 59.7652 52.3909 131.0381 0.0000 0.0000 0.0000
# 4 0.0000 0.0000 0.0000 21.7515 0.0000 0.0000
# 5 0.0000 0.0000 0.0000 0.0000 36.1566 0.0000
# 6 0.0000 0.0000 0.0000 0.0000 0.0000 19.8024
#
#
#
# Elastic Compliance Matrix: (Units=1/GPa)
#
#
# Indices 1 2 3 4 5 6 
#
# 1 0.042270 -0.007564 -0.016255 0.000000 0.000000 0.000000
# 2 -0.007564 0.016143 -0.003005 0.000000 0.000000 0.000000
# 3 -0.016255 -0.003005 0.016246 0.000000 0.000000 0.000000
# 4 0.000000 0.000000 0.000000 0.045974 0.000000 0.000000
# 5 0.000000 0.000000 0.000000 0.000000 0.027658 0.000000
# 6 0.000000 0.000000 0.000000 0.000000 0.000000 0.050499
#
#
# Mechanical properties :
#
#
# Convention : Reuss Voigt Hill
#
# Bulk Modulus (GPa) = 47.58904 63.22001 55.40453
# Shear Modulus (GPa) = 19.27225 23.84409 21.55817
#
# Velocity S-wave (km/s) = 3.37708 3.75634 3.57175
# Velocity P-wave (km/s) = 6.58542 7.49833 7.05665
#
# Compressibility (1/GPa) = 0.02101324
#
# Stress axis : x y z
#
# Youngs Moduli (GPa) = 23.65743 61.94562 61.55251
#
# Poissons Ratio (x) = 0.46854 1.00053
# Poissons Ratio (y) = 0.17894 0.18494
# Poissons Ratio (z) = 0.38455 0.18612
#
# Static dielectric constant tensor:
#      x y z
#    x 2.980120 0.000000 0.000000 
#    y 0.000000 2.991910 0.000000 
#    z 0.000000 0.000000 3.094950 
# 
# 
# High freq. dielectric constant tensor:
#      x y z
#    x 1.637120 0.000000 0.000000 
#    y 0.000000 1.634750 0.000000 
#    z 0.000000 0.000000 1.657970 
# 
# From -- ./inp_files/66188.got.cif
#   From: 2010.03.12/outbox.cif.g09.slc.cpg/sg74_34_cif.got.tgz:66188.got - 2010.04.16 15:46:19.
