data_PCOD8297827
_publ_section_title
;
Structure prediction by ZEFSAII (Michael W. Deem and Ramdas Pophale) SiO2 
 PCOD8297827
Probable space group: I M M A
;
_chemical_formula_sum "Si O2"
_cell_formula_units_Z 128
_cell_length_a 17.370270
_cell_length_b 17.690871
_cell_length_c 23.663813
_cell_angle_alpha 90.000000
_cell_angle_beta 90.000000
_cell_angle_gamma 90.000000
_cell_volume 7271.776286
_symmetry_space_group_name_H-M "I M M A"
_symmetry_group_IT_number 74
_symmetry_cell_setting 'orthorhombic'
loop_
_space_group_symop_operation_xyz
x,y,z
-x,1/2-y,z
x,-y,-z
-x,1/2+y,-z
-x,-y,-z
x,1/2+y,-z
-x,y,z
x,1/2-y,z
1/2+x,1/2+y,1/2+z
1/2-x,-y,1/2+z
1/2+x,1/2-y,1/2-z
1/2-x,y,1/2-z
1/2-x,1/2-y,1/2-z
1/2+x,y,1/2-z
1/2-x,1/2+y,1/2+z
1/2+x,-y,1/2+z
loop_
_atom_site_type_symbol
_atom_site_label
_atom_site_fract_x
_atom_site_fract_y
_atom_site_fract_z
Si Si1 0.264642 0.664773 0.877696
Si Si2 0.674945 0.413421 0.287934
Si Si3 0.170624 0.450719 0.448420
Si Si4 0.161554 0.592544 0.375983
Si Si5 0.587574 0.335279 0.979766
Si Si6 0.696640 0.422873 0.695704
Si Si7 0.913641 0.336489 0.304110
Si Si8 0.589334 0.835846 0.231318
O O1 0.257599 0.750000 0.899853
O O2 0.194156 0.648845 0.835607
O O3 0.260386 0.604985 0.928961
O O4 0.349635 0.647998 0.851636
O O5 0.750000 0.419406 0.250000
O O6 0.657600 0.495245 0.315416
O O7 0.602101 0.386959 0.251389
O O8 0.203950 0.500000 0.500000
O O9 0.143571 0.506845 0.397725
O O10 0.101501 0.396668 0.470749
O O11 0.142843 0.651025 0.426011
O O12 0.251780 0.600659 0.358584
O O13 0.109392 0.609684 0.321307
O O14 0.500000 0.344316 0.958971
O O15 0.602589 0.250000 0.002599
O O16 0.750000 0.429041 0.750000
O O17 0.631485 0.361277 0.710597
O O18 0.906941 0.250000 0.284642
O O19 0.000000 0.354708 0.326765
O O20 0.500000 0.841541 0.244075
O O21 0.614272 0.750000 0.216658
#
# Coordination Sequence:
#
# PCOD8297827 Si02
#       8
#    16  16  16  16  16  16  16  16
#     4  10  18  31  51  69  93 134 169 197 239 287
#     4   9  16  29  47  68  95 125 160 197 233 285
#     4  10  21  34  48  67  94 124 165 214 250 279
#     4  10  19  33  52  70  96 131 169 205 243 290
#     4  10  21  35  50  70  98 130 167 209 249 291
#     4   9  18  31  48  70  97 125 161 204 241 286
#     4   9  18  29  43  69 101 129 159 194 231 281
#     4  10  21  34  49  73 102 131 165 202 242 292
#
# _framework density 17.602302000000002
#
# number of rings (size 3 to 8) (size 9 to 14) (size 15 to 20)
#    0.000    2.375    1.250    1.500    1.750    9.000 
#    0.000    1.250    0.000    0.000    0.000    0.000 
#    0.000    9.000    0.000   13.000    0.000    0.000 
#
# Total GULP energy -793149.739989 kJ/mol
# GULP energy per Si atom -12392.964687 kJ/mol
# Density = 1.756224 g / cm^3
# Si number density = 17.602302 Si / 1000 Ang^3
#
#
#
# Elastic Constant Matrix: (Units=GPa)
#
#
# Indices 1 2 3 4 5 6 
#
# 1 47.1113 31.1361 30.2632 0.0000 0.0000 0.0000
# 2 31.1361 121.7078 47.6903 0.0000 0.0000 0.0000
# 3 30.2632 47.6903 68.0139 0.0000 0.0000 0.0000
# 4 0.0000 0.0000 0.0000 29.8295 0.0000 0.0000
# 5 0.0000 0.0000 0.0000 0.0000 23.2149 0.0000
# 6 0.0000 0.0000 0.0000 0.0000 0.0000 20.2875
#
#
#
# Elastic Compliance Matrix: (Units=1/GPa)
#
#
# Indices 1 2 3 4 5 6 
#
# 1 0.030739 -0.003453 -0.011256 0.000000 0.000000 0.000000
# 2 -0.003453 0.011717 -0.006679 0.000000 0.000000 0.000000
# 3 -0.011256 -0.006679 0.024395 0.000000 0.000000 0.000000
# 4 0.000000 0.000000 0.000000 0.033524 0.000000 0.000000
# 5 0.000000 0.000000 0.000000 0.000000 0.043076 0.000000
# 6 0.000000 0.000000 0.000000 0.000000 0.000000 0.049291
#
#
# Mechanical properties :
#
#
# Convention : Reuss Voigt Hill
#
# Bulk Modulus (GPa) = 41.53923 50.55690 46.04807
# Shear Modulus (GPa) = 20.53013 23.18262 21.85638
#
# Velocity S-wave (km/s) = 3.41887 3.63302 3.52757
# Velocity P-wave (km/s) = 6.26377 6.81047 6.54283
#
# Compressibility (1/GPa) = 0.02407363
#
# Stress axis : x y z
#
# Youngs Moduli (GPa) = 32.53149 85.34566 40.99233
#
# Poissons Ratio (x) = 0.29472 0.46142
# Poissons Ratio (y) = 0.11234 0.27380
# Poissons Ratio (z) = 0.36618 0.57005
#
# Static dielectric constant tensor:
#      x y z
#    x 3.046200 0.000000 0.000000 
#    y 0.000000 3.612390 0.000000 
#    z 0.000000 0.000000 3.244500 
# 
# 
# High freq. dielectric constant tensor:
#      x y z
#    x 1.635080 0.000000 0.000000 
#    y 0.000000 1.702880 0.000000 
#    z 0.000000 0.000000 1.656310 
# 
# From -- ./inp_files/61117.got.cif
#   From: 2010.03.12/outbox.cif.g09.slc.cpg/sg74_31_cif.got.tgz:61117.got - 2010.04.16 15:46:19.
