data_PCOD8297493
_publ_section_title
;
Structure prediction by ZEFSAII (Michael W. Deem and Ramdas Pophale) SiO2 
 PCOD8297493
Probable space group: I M M A
;
_chemical_formula_sum "Si O2"
_cell_formula_units_Z 112
_cell_length_a 18.336182
_cell_length_b 20.061991
_cell_length_c 17.731102
_cell_angle_alpha 90.000000
_cell_angle_beta 90.000000
_cell_angle_gamma 90.000000
_cell_volume 6522.568825
_symmetry_space_group_name_H-M "I M M A"
_symmetry_group_IT_number 74
_symmetry_cell_setting 'orthorhombic'
loop_
_space_group_symop_operation_xyz
x,y,z
-x,1/2-y,z
x,-y,-z
-x,1/2+y,-z
-x,-y,-z
x,1/2+y,-z
-x,y,z
x,1/2-y,z
1/2+x,1/2+y,1/2+z
1/2-x,-y,1/2+z
1/2+x,1/2-y,1/2-z
1/2-x,y,1/2-z
1/2-x,1/2-y,1/2-z
1/2+x,y,1/2-z
1/2-x,1/2+y,1/2+z
1/2+x,-y,1/2+z
loop_
_atom_site_type_symbol
_atom_site_label
_atom_site_fract_x
_atom_site_fract_y
_atom_site_fract_z
Si Si1 0.085624 0.432085 0.465613
Si Si2 0.333090 0.113073 0.777265
Si Si3 0.581098 0.922377 0.521833
Si Si4 0.166045 0.539735 0.678770
Si Si5 0.330922 0.446827 0.343889
Si Si6 0.085084 0.584224 0.140261
Si Si7 0.415977 0.173562 0.911622
O O1 0.119397 0.500000 0.500000
O O2 0.111552 0.425657 0.379487
O O3 0.110136 0.369750 0.516565
O O4 0.000000 0.437068 0.462747
O O5 0.250000 0.123912 0.750000
O O6 0.384738 0.132061 0.705921
O O7 0.359110 0.161902 0.843585
O O8 0.348271 0.038358 0.806730
O O9 0.500000 0.905826 0.550632
O O10 0.635346 0.900330 0.589701
O O11 0.598147 0.883472 0.443154
O O12 0.587610 0.000000 0.500000
O O13 0.245424 0.547007 0.642285
O O14 0.156407 0.579335 0.758258
O O15 0.368574 0.517607 0.352108
O O16 0.000000 0.568017 0.152048
O O17 0.500000 0.155164 0.888728
O O18 0.410839 0.250000 0.936471
#
# Coordination Sequence:
#
# PCOD8297493 Si02
#       7
#    16  16  16  16  16  16  16
#     4  10  20  32  50  74  98 129 172 219 265 311
#     4  11  19  31  47  73 104 134 174 206 256 305
#     4   8  14  23  35  54  82 120 159 188 229 282
#     4  10  18  28  42  69 101 129 159 204 254 312
#     4   9  16  26  38  62  96 130 160 194 246 303
#     4   9  16  26  41  62  90 129 168 201 237 292
#     4  10  22  39  55  72 100 140 183 222 261 308
#
# _framework density 17.171149
#
# number of rings (size 3 to 8) (size 9 to 14) (size 15 to 20)
#    0.000    2.429    4.286    1.714    0.000    6.000 
#    0.000    0.000    0.000    0.000    0.000    2.000 
#    0.000    1.143    0.000    5.143    0.000    0.000 
#
# Total GULP energy -693785.079417 kJ/mol
# GULP energy per Si atom -12389.019275 kJ/mol
# Density = 1.713207 g / cm^3
# Si number density = 17.171149 Si / 1000 Ang^3
#
#
#
# Elastic Constant Matrix: (Units=GPa)
#
#
# Indices 1 2 3 4 5 6 
#
# 1 57.3661 18.5779 58.9988 0.0000 0.0000 0.0000
# 2 18.5779 47.9807 36.0418 0.0000 0.0000 0.0000
# 3 58.9988 36.0418 138.4443 0.0000 0.0000 0.0000
# 4 0.0000 0.0000 0.0000 11.2476 0.0000 0.0000
# 5 0.0000 0.0000 0.0000 0.0000 35.8021 0.0000
# 6 0.0000 0.0000 0.0000 0.0000 0.0000 49.3449
#
#
#
# Elastic Compliance Matrix: (Units=1/GPa)
#
#
# Indices 1 2 3 4 5 6 
#
# 1 0.031294 -0.002609 -0.012657 0.000000 0.000000 0.000000
# 2 -0.002609 0.026126 -0.005689 0.000000 0.000000 0.000000
# 3 -0.012657 -0.005689 0.014098 0.000000 0.000000 0.000000
# 4 0.000000 0.000000 0.000000 0.088908 0.000000 0.000000
# 5 0.000000 0.000000 0.000000 0.000000 0.027931 0.000000
# 6 0.000000 0.000000 0.000000 0.000000 0.000000 0.020266
#
#
# Mechanical properties :
#
#
# Convention : Reuss Voigt Hill
#
# Bulk Modulus (GPa) = 33.77634 52.33648 43.05641
# Shear Modulus (GPa) = 19.20104 27.95708 23.57906
#
# Velocity S-wave (km/s) = 3.34760 4.03940 3.70966
# Velocity P-wave (km/s) = 5.88685 7.23195 6.59379
#
# Compressibility (1/GPa) = 0.02960652
#
# Stress axis : x y z
#
# Youngs Moduli (GPa) = 31.95502 38.27632 70.93189
#
# Poissons Ratio (x) = 0.09988 0.89777
# Poissons Ratio (y) = 0.08339 0.40356
# Poissons Ratio (z) = 0.40445 0.21777
#
# Static dielectric constant tensor:
#      x y z
#    x 5.459170 0.000000 0.000000 
#    y 0.000000 2.642120 0.000000 
#    z 0.000000 0.000000 0.290840 
# 
# 
# High freq. dielectric constant tensor:
#      x y z
#    x 1.668730 0.000000 0.000000 
#    y 0.000000 1.579130 0.000000 
#    z 0.000000 0.000000 1.686140 
# 
# From -- ./inp_files/44448.got.cif
#   From: 2010.03.12/outbox.cif.g09.slc.cpg/sg74_23_cif.got.tgz:44448.got - 2010.04.16 15:46:19.
