data_PCOD8297417
_publ_section_title
;
Structure prediction by ZEFSAII (Michael W. Deem and Ramdas Pophale) SiO2 
 PCOD8297417
Probable space group: I M M A
;
_chemical_formula_sum "Si O2"
_cell_formula_units_Z 80
_cell_length_a 8.988787
_cell_length_b 24.871209
_cell_length_c 20.396066
_cell_angle_alpha 90.000000
_cell_angle_beta 90.000000
_cell_angle_gamma 90.000000
_cell_volume 4559.785310
_symmetry_space_group_name_H-M "I M M A"
_symmetry_group_IT_number 74
_symmetry_cell_setting 'orthorhombic'
loop_
_space_group_symop_operation_xyz
x,y,z
-x,1/2-y,z
x,-y,-z
-x,1/2+y,-z
-x,-y,-z
x,1/2+y,-z
-x,y,z
x,1/2-y,z
1/2+x,1/2+y,1/2+z
1/2-x,-y,1/2+z
1/2+x,1/2-y,1/2-z
1/2-x,y,1/2-z
1/2-x,1/2-y,1/2-z
1/2+x,y,1/2-z
1/2-x,1/2+y,1/2+z
1/2+x,-y,1/2+z
loop_
_atom_site_type_symbol
_atom_site_label
_atom_site_fract_x
_atom_site_fract_y
_atom_site_fract_z
Si Si1 0.326744 0.028849 0.932763
Si Si2 0.830215 0.133726 0.367441
Si Si3 0.671539 0.855659 0.019623
Si Si4 0.326410 0.750000 0.483533
Si Si5 0.669438 0.250000 0.118687
Si Si6 0.324559 0.467361 0.316513
O O1 0.500000 0.018146 0.917767
O O2 0.290155 0.092043 0.937511
O O3 0.227859 0.005122 0.875202
O O4 0.280991 0.000000 0.000000
O O5 0.787772 0.132135 0.444102
O O6 0.807715 0.194972 0.340005
O O7 0.722141 0.094505 0.328208
O O8 0.000000 0.114180 0.357156
O O9 0.500000 0.840509 0.024930
O O10 0.761718 0.804744 0.048441
O O11 0.500000 0.750000 0.472417
O O12 0.285840 0.750000 0.559867
O O13 0.500000 0.250000 0.089666
O O14 0.500000 0.470568 0.309491
O O15 0.250000 0.488759 0.250000
#
# Coordination Sequence:
#
# PCOD8297417 Si02
#       6
#    16  16  16   8   8  16
#     4  10  19  36  59  81 105 137 177 220 267 318
#     4   9  16  32  53  74 100 135 178 218 262 312
#     4   9  17  31  53  76 104 140 173 209 261 320
#     4  10  18  26  42  73 112 139 168 215 257 299
#     4   8  16  30  49  69  96 137 176 213 262 315
#     4  12  25  38  53  75 106 142 179 221 267 318
#
# _framework density 17.544685999999999
#
# number of rings (size 3 to 8) (size 9 to 14) (size 15 to 20)
#    0.000    2.200    2.000    3.900    0.000    4.400 
#    0.000    0.500    0.000    0.000    0.000    0.700 
#    0.000    0.000    0.000    0.000    0.000    0.000 
#
# Total GULP energy -495883.476289 kJ/mol
# GULP energy per Si atom -12397.086907 kJ/mol
# Density = 1.750475 g / cm^3
# Si number density = 17.544686 Si / 1000 Ang^3
#
#
#
# Elastic Constant Matrix: (Units=GPa)
#
#
# Indices 1 2 3 4 5 6 
#
# 1 109.6815 58.3106 49.4273 0.0000 0.0000 0.0000
# 2 58.3106 118.1026 44.2401 0.0000 0.0000 0.0000
# 3 49.4273 44.2401 73.4285 -0.0001 0.0000 0.0000
# 4 0.0000 0.0000 -0.0001 12.3496 0.0000 0.0000
# 5 0.0000 0.0000 0.0000 0.0000 23.1668 0.0000
# 6 0.0000 0.0000 0.0000 0.0000 0.0000 26.5699
#
#
#
# Elastic Compliance Matrix: (Units=1/GPa)
#
#
# Indices 1 2 3 4 5 6 
#
# 1 0.014813 -0.004621 -0.007187 0.000000 0.000000 0.000000
# 2 -0.004621 0.012377 -0.004346 0.000000 0.000000 0.000000
# 3 -0.007187 -0.004346 0.021075 0.000000 0.000000 0.000000
# 4 0.000000 0.000000 0.000000 0.080974 0.000000 0.000000
# 5 0.000000 0.000000 0.000000 0.000000 0.043165 0.000000
# 6 0.000000 0.000000 0.000000 0.000000 0.000000 0.037637
#
#
# Mechanical properties :
#
#
# Convention : Reuss Voigt Hill
#
# Bulk Modulus (GPa) = 62.67206 67.24097 64.95651
# Shear Modulus (GPa) = 20.18832 22.36624 21.27728
#
# Velocity S-wave (km/s) = 3.39585 3.57433 3.48623
# Velocity P-wave (km/s) = 7.15365 7.44602 7.30130
#
# Compressibility (1/GPa) = 0.01595607
#
# Stress axis : x y z
#
# Youngs Moduli (GPa) = 67.50885 80.79490 47.45004
#
# Poissons Ratio (x) = 0.37339 0.34101
# Poissons Ratio (y) = 0.31199 0.20623
# Poissons Ratio (z) = 0.48516 0.35115
#
# Static dielectric constant tensor:
#      x y z
#    x 3.123960 0.000000 0.000000 
#    y 0.000000 3.669830 0.000000 
#    z 0.000000 0.000000 2.902990 
# 
# 
# High freq. dielectric constant tensor:
#      x y z
#    x 1.671680 0.000000 0.000000 
#    y 0.000000 1.695750 0.000000 
#    z 0.000000 0.000000 1.625480 
# 
# From -- ./inp_files/39799.got.cif
#   From: 2010.03.12/outbox.cif.g09.slc.cpg/sg74_20_cif.got.tgz:39799.got - 2010.04.16 15:46:19.
