data_PCOD8297802
_publ_section_title
;
Structure prediction by ZEFSAII (Michael W. Deem and Ramdas Pophale) SiO2 
 PCOD8297802
Probable space group: I M M A
;
_chemical_formula_sum "Si O2"
_cell_formula_units_Z 80
_cell_length_a 8.757740
_cell_length_b 23.630310
_cell_length_c 25.687086
_cell_angle_alpha 90.000000
_cell_angle_beta 90.000000
_cell_angle_gamma 90.000000
_cell_volume 5315.893927
_symmetry_space_group_name_H-M "I M M A"
_symmetry_group_IT_number 74
_symmetry_cell_setting 'orthorhombic'
loop_
_space_group_symop_operation_xyz
x,y,z
-x,1/2-y,z
x,-y,-z
-x,1/2+y,-z
-x,-y,-z
x,1/2+y,-z
-x,y,z
x,1/2-y,z
1/2+x,1/2+y,1/2+z
1/2-x,-y,1/2+z
1/2+x,1/2-y,1/2-z
1/2-x,y,1/2-z
1/2-x,1/2-y,1/2-z
1/2+x,y,1/2-z
1/2-x,1/2+y,1/2+z
1/2+x,-y,1/2+z
loop_
_atom_site_type_symbol
_atom_site_label
_atom_site_fract_x
_atom_site_fract_y
_atom_site_fract_z
Si Si1 0.182211 0.750000 0.848505
Si Si2 0.323067 0.870424 0.501253
Si Si3 0.818633 0.750000 0.966239
Si Si4 0.823528 0.064492 0.107738
Si Si5 0.180513 0.136171 0.304486
Si Si6 0.828393 0.033146 0.553855
O O1 0.245842 0.750000 0.907521
O O2 0.243201 0.804736 0.819378
O O3 0.000000 0.750000 0.846705
O O4 0.500000 0.873997 0.486899
O O5 0.262912 0.805713 0.502809
O O6 0.292483 0.896575 0.557807
O O7 0.233715 0.903555 0.455882
O O8 0.000000 0.750000 0.961894
O O9 0.720122 0.087795 0.154005
O O10 0.000000 0.066065 0.124179
O O11 0.774748 0.999828 0.095882
O O12 0.250000 0.115762 0.250000
O O13 0.000000 0.143720 0.300500
O O14 0.000000 0.036857 0.575268
O O15 0.820083 0.000000 0.500000
#
# Coordination Sequence:
#
# PCOD8297802 Si02
#       6
#     8  16   8  16  16  16
#     4  11  20  36  51  63  84 116 154 193 231 269
#     4   9  16  28  45  64  85 114 147 179 219 267
#     4   9  16  28  46  65  87 116 149 185 222 263
#     4  10  18  31  49  65  83 111 146 185 226 269
#     4  12  24  36  48  65  86 114 150 192 234 272
#     4   9  17  28  42  63  88 111 139 179 220 264
#
# _framework density 15.049208999999999
#
# number of rings (size 3 to 8) (size 9 to 14) (size 15 to 20)
#    0.000    2.000    2.000    3.600    0.000    3.200 
#    0.000    0.500    0.000    0.000    0.000    0.000 
#    0.000    0.000    0.000    0.900    0.000   11.400 
#
# Total GULP energy -496009.666633 kJ/mol
# GULP energy per Si atom -12400.241666 kJ/mol
# Density = 1.501496 g / cm^3
# Si number density = 15.049209 Si / 1000 Ang^3
#
#
#
# Elastic Constant Matrix: (Units=GPa)
#
#
# Indices 1 2 3 4 5 6 
#
# 1 79.2326 36.3601 28.6264 0.0000 0.0000 0.0000
# 2 36.3601 102.1877 39.8649 0.0000 0.0000 0.0000
# 3 28.6264 39.8649 43.6228 0.0000 0.0000 0.0000
# 4 0.0000 0.0000 0.0000 15.1884 0.0000 0.0000
# 5 0.0000 0.0000 0.0000 0.0000 21.2928 0.0000
# 6 0.0000 0.0000 0.0000 0.0000 0.0000 24.5803
#
#
#
# Elastic Compliance Matrix: (Units=1/GPa)
#
#
# Indices 1 2 3 4 5 6 
#
# 1 0.016988 -0.002635 -0.008740 0.000000 0.000000 0.000000
# 2 -0.002635 0.015616 -0.012542 0.000000 0.000000 0.000000
# 3 -0.008740 -0.012542 0.040121 0.000000 0.000000 0.000000
# 4 0.000000 0.000000 0.000000 0.065840 0.000000 0.000000
# 5 0.000000 0.000000 0.000000 0.000000 0.046964 0.000000
# 6 0.000000 0.000000 0.000000 0.000000 0.000000 0.040683
#
#
# Mechanical properties :
#
#
# Convention : Reuss Voigt Hill
#
# Bulk Modulus (GPa) = 40.17477 48.30511 44.23994
# Shear Modulus (GPa) = 17.70898 20.22506 18.96702
#
# Velocity S-wave (km/s) = 3.43408 3.66994 3.55397
# Velocity P-wave (km/s) = 6.51747 7.07995 6.80453
#
# Compressibility (1/GPa) = 0.02489125
#
# Stress axis : x y z
#
# Youngs Moduli (GPa) = 58.86510 64.03589 24.92491
#
# Poissons Ratio (x) = 0.16874 0.21784
# Poissons Ratio (y) = 0.15511 0.31260
# Poissons Ratio (z) = 0.51448 0.80313
#
# Static dielectric constant tensor:
#      x y z
#    x 2.947280 0.000000 0.000000 
#    y 0.000000 3.065740 0.000000 
#    z 0.000000 0.000000 2.678560 
# 
# 
# High freq. dielectric constant tensor:
#      x y z
#    x 1.583980 0.000000 0.000000 
#    y 0.000000 1.569720 0.000000 
#    z 0.000000 0.000000 1.532830 
# 
# From -- ./inp_files/48622.got.cif
#   From: 2010.03.12/outbox.cif.g09.slc.cpg/sg74_25_cif.got.tgz:48622.got - 2010.04.16 15:46:19.
