data_PCOD8297817
_publ_section_title
;
Structure prediction by ZEFSAII (Michael W. Deem and Ramdas Pophale) SiO2 
 PCOD8297817
Probable space group: I M M A
;
_chemical_formula_sum "Si O2"
_cell_formula_units_Z 64
_cell_length_a 13.993472
_cell_length_b 15.594357
_cell_length_c 17.233024
_cell_angle_alpha 90.000000
_cell_angle_beta 90.000000
_cell_angle_gamma 90.000000
_cell_volume 3760.576677
_symmetry_space_group_name_H-M "I M M A"
_symmetry_group_IT_number 74
_symmetry_cell_setting 'orthorhombic'
loop_
_space_group_symop_operation_xyz
x,y,z
-x,1/2-y,z
x,-y,-z
-x,1/2+y,-z
-x,-y,-z
x,1/2+y,-z
-x,y,z
x,1/2-y,z
1/2+x,1/2+y,1/2+z
1/2-x,-y,1/2+z
1/2+x,1/2-y,1/2-z
1/2-x,y,1/2-z
1/2-x,1/2-y,1/2-z
1/2+x,y,1/2-z
1/2-x,1/2+y,1/2+z
1/2+x,-y,1/2+z
loop_
_atom_site_type_symbol
_atom_site_label
_atom_site_fract_x
_atom_site_fract_y
_atom_site_fract_z
Si Si1 0.655703 0.084965 0.043573
Si Si2 0.000000 0.154148 0.567303
Si Si3 0.500000 0.909787 0.457946
Si Si4 0.500000 0.983805 0.845496
Si Si5 0.858846 0.653176 0.927074
Si Si6 0.000000 0.962474 0.836341
O O1 0.593888 0.059438 0.118441
O O2 0.746127 0.138788 0.070900
O O3 0.593358 0.142202 0.985534
O O4 0.691823 0.000000 0.000000
O O5 0.000000 0.250000 0.602493
O O6 0.000000 0.085650 0.637083
O O7 0.405276 0.859163 0.486674
O O8 0.500000 0.000000 0.500000
O O9 0.500000 0.937455 0.367236
O O10 0.500000 0.967003 0.755102
O O11 0.878212 0.750000 0.899297
O O12 0.906284 0.588430 0.865429
#
# Coordination Sequence:
#
# PCOD8297817 Si02
#       6
#    16   8   8   8  16   8
#     4   9  17  32  52  71  92 124 159 191 232 281
#     4   9  17  32  52  75  94 116 157 205 234 264
#     4   8  16  30  49  66  87 121 159 193 230 273
#     4   9  20  33  48  69 100 130 155 182 230 294
#     4  10  18  31  50  72  93 120 160 205 236 266
#     4  10  19  33  47  68  99 131 156 186 233 293
#
# _framework density 17.018666
#
# number of rings (size 3 to 8) (size 9 to 14) (size 15 to 20)
#    0.000    3.000    0.000    6.000    0.000    1.000 
#    0.000   10.000    0.000    0.000    0.000    8.750 
#    0.000    0.000    0.000    0.000    0.000    0.000 
#
# Total GULP energy -396584.073443 kJ/mol
# GULP energy per Si atom -12393.252295 kJ/mol
# Density = 1.697993 g / cm^3
# Si number density = 17.018666 Si / 1000 Ang^3
#
#
#
# Elastic Constant Matrix: (Units=GPa)
#
#
# Indices 1 2 3 4 5 6 
#
# 1 117.2817 37.2503 34.9957 0.0000 0.0000 0.0000
# 2 37.2503 100.1084 37.9487 0.0000 0.0000 0.0000
# 3 34.9957 37.9487 111.2925 0.0000 0.0000 0.0000
# 4 0.0000 0.0000 0.0000 13.9750 0.0000 0.0000
# 5 0.0000 0.0000 0.0000 0.0000 9.5349 0.0000
# 6 0.0000 0.0000 0.0000 0.0000 0.0000 36.5090
#
#
#
# Elastic Compliance Matrix: (Units=1/GPa)
#
#
# Indices 1 2 3 4 5 6 
#
# 1 0.010109 -0.002936 -0.002178 0.000000 0.000000 0.000000
# 2 -0.002936 0.012325 -0.003279 0.000000 0.000000 0.000000
# 3 -0.002178 -0.003279 0.010788 0.000000 0.000000 0.000000
# 4 0.000000 0.000000 0.000000 0.071556 0.000000 0.000000
# 5 0.000000 0.000000 0.000000 0.000000 0.104878 0.000000
# 6 0.000000 0.000000 0.000000 0.000000 0.000000 0.027391
#
#
# Mechanical properties :
#
#
# Convention : Reuss Voigt Hill
#
# Bulk Modulus (GPa) = 60.84189 61.00800 60.92495
# Shear Modulus (GPa) = 19.28186 26.56963 22.92574
#
# Velocity S-wave (km/s) = 3.36963 3.95550 3.67426
# Velocity P-wave (km/s) = 7.13911 7.53570 7.34009
#
# Compressibility (1/GPa) = 0.01643604
#
# Stress axis : x y z
#
# Youngs Moduli (GPa) = 98.92414 81.13749 92.69350
#
# Poissons Ratio (x) = 0.23822 0.20185
# Poissons Ratio (y) = 0.29044 0.30397
# Poissons Ratio (z) = 0.21541 0.26607
#
# Static dielectric constant tensor:
#      x y z
#    x 3.179480 0.000000 0.000000 
#    y 0.000000 3.442950 0.000000 
#    z 0.000000 0.000000 3.189770 
# 
# 
# High freq. dielectric constant tensor:
#      x y z
#    x 1.663230 0.000000 0.000000 
#    y 0.000000 1.659870 0.000000 
#    z 0.000000 0.000000 1.619240 
# 
# From -- ./inp_files/42454.got.cif
#   From: 2010.03.12/outbox.cif.g09.slc.cpg/sg74_22_cif.got.tgz:42454.got - 2010.04.16 15:46:19.
