data_PCOD8297640
_publ_section_title
;
Structure prediction by ZEFSAII (Michael W. Deem and Ramdas Pophale) SiO2 
 PCOD8297640
Probable space group: I M M A
;
_chemical_formula_sum "Si O2"
_cell_formula_units_Z 88
_cell_length_a 33.889151
_cell_length_b 8.815673
_cell_length_c 23.067981
_cell_angle_alpha 90.000000
_cell_angle_beta 90.000000
_cell_angle_gamma 90.000000
_cell_volume 6891.690199
_symmetry_space_group_name_H-M "I M M A"
_symmetry_group_IT_number 74
_symmetry_cell_setting 'orthorhombic'
loop_
_space_group_symop_operation_xyz
x,y,z
-x,1/2-y,z
x,-y,-z
-x,1/2+y,-z
-x,-y,-z
x,1/2+y,-z
-x,y,z
x,1/2-y,z
1/2+x,1/2+y,1/2+z
1/2-x,-y,1/2+z
1/2+x,1/2-y,1/2-z
1/2-x,y,1/2-z
1/2-x,1/2-y,1/2-z
1/2+x,y,1/2-z
1/2-x,1/2+y,1/2+z
1/2+x,-y,1/2+z
loop_
_atom_site_type_symbol
_atom_site_label
_atom_site_fract_x
_atom_site_fract_y
_atom_site_fract_z
Si Si1 0.729581 0.420278 0.838423
Si Si2 0.731400 0.573746 0.561724
Si Si3 0.420911 0.070007 0.563200
Si Si4 0.811823 0.421227 0.772636
Si Si5 0.151045 0.926881 0.874216
Si Si6 0.500000 0.068469 0.436039
O O1 0.720001 0.250000 0.858952
O O2 0.733122 0.524410 0.895300
O O3 0.770305 0.423975 0.804449
O O4 0.695129 0.476755 0.794027
O O5 0.737798 0.500000 0.500000
O O6 0.734196 0.750000 0.552875
O O7 0.688980 0.526771 0.587608
O O8 0.425677 0.250000 0.557512
O O9 0.413085 0.000000 0.500000
O O10 0.384685 0.029506 0.604238
O O11 0.460092 0.996761 0.593065
O O12 0.828865 0.250000 0.773052
O O13 0.841546 0.532991 0.806519
O O14 0.140838 0.750000 0.880183
O O15 0.500000 0.250000 0.435838
O O16 0.500000 0.000000 0.500000
#
# Coordination Sequence:
#
# PCOD8297640 Si02
#       6
#    16  16  16  16  16   8
#     4   8  14  25  39  51  66  87 112 139 171 209
#     4  10  19  27  36  50  69  91 116 145 179 214
#     4  11  20  30  42  55  71  91 115 143 176 214
#     4   8  14  25  39  53  67  87 111 138 172 209
#     4  10  19  28  38  54  72  91 114 144 179 213
#     4  10  18  30  44  56  70  88 112 140 171 210
#
# _framework density 12.769000999999999
#
# number of rings (size 3 to 8) (size 9 to 14) (size 15 to 20)
#    0.000    2.545    0.000    6.273    0.000    4.364 
#    0.000    3.636    0.000    0.000    0.000    0.000 
#    0.000    0.000    0.000    0.000    0.000    0.000 
#
# Total GULP energy -545285.912832 kJ/mol
# GULP energy per Si atom -12392.861655 kJ/mol
# Density = 1.273994 g / cm^3
# Si number density = 12.769001 Si / 1000 Ang^3
#
#
#
# Elastic Constant Matrix: (Units=GPa)
#
#
# Indices 1 2 3 4 5 6 
#
# 1 47.9756 30.7062 39.0359 0.0000 0.0000 0.0000
# 2 30.7062 72.6359 35.8603 0.0000 0.0000 0.0000
# 3 39.0359 35.8603 78.3937 0.0000 0.0000 0.0000
# 4 0.0000 0.0000 0.0000 21.3618 0.0000 0.0000
# 5 0.0000 0.0000 0.0000 0.0000 -0.6638 0.0000
# 6 0.0000 0.0000 0.0000 0.0000 0.0000 17.0436
#
#
#
# Elastic Compliance Matrix: (Units=1/GPa)
#
#
# Indices 1 2 3 4 5 6 
#
# 1 0.039060 -0.008926 -0.015367 0.000000 0.000000 0.000000
# 2 -0.008926 0.019823 -0.004623 0.000000 0.000000 0.000000
# 3 -0.015367 -0.004623 0.022523 0.000000 0.000000 0.000000
# 4 0.000000 0.000000 0.000000 0.046813 0.000000 0.000000
# 5 0.000000 0.000000 0.000000 0.000000 -1.506389 0.000000
# 6 0.000000 0.000000 0.000000 0.000000 0.000000 0.058673
#
#
# Mechanical properties :
#
#
# Convention : Reuss Voigt Hill
#
# Bulk Modulus (GPa) = 42.41911 45.57889 43.99900
# Shear Modulus (GPa) = -3.98785 13.77517 4.89366
#
# Velocity S-wave (km/s) = -1.76914 3.28807 1.95979
# Velocity P-wave (km/s) = 5.39624 7.08432 6.29710
#
# Compressibility (1/GPa) = 0.02357428
#
# Stress axis : x y z
#
# Youngs Moduli (GPa) = 25.60157 50.44628 44.39929
#
# Poissons Ratio (x) = 0.45027 0.68228
# Poissons Ratio (y) = 0.22851 0.20527
# Poissons Ratio (z) = 0.39342 0.23323
#
# Static dielectric constant tensor:
#      x y z
#    x 2.648410 0.000000 0.000000 
#    y 0.000000 2.697760 0.000000 
#    z 0.000000 0.000000 2.902620 
# 
# 
# High freq. dielectric constant tensor:
#      x y z
#    x 1.445820 0.000000 0.000000 
#    y 0.000000 1.499040 0.000000 
#    z 0.000000 0.000000 1.462470 
# 
# From -- ./inp_files/49462.got.cif
#   From: 2010.03.12/outbox.cif.g09.slc.cpg/sg74_25_cif.got.tgz:49462.got - 2010.04.16 15:46:19.
