data_PCOD8297670
_publ_section_title
;
Structure prediction by ZEFSAII (Michael W. Deem and Ramdas Pophale) SiO2 
 PCOD8297670
Probable space group: I M M A
;
_chemical_formula_sum "Si O2"
_cell_formula_units_Z 88
_cell_length_a 8.633571
_cell_length_b 20.857649
_cell_length_c 25.515962
_cell_angle_alpha 90.000000
_cell_angle_beta 90.000000
_cell_angle_gamma 90.000000
_cell_volume 4594.812208
_symmetry_space_group_name_H-M "I M M A"
_symmetry_group_IT_number 74
_symmetry_cell_setting 'orthorhombic'
loop_
_space_group_symop_operation_xyz
x,y,z
-x,1/2-y,z
x,-y,-z
-x,1/2+y,-z
-x,-y,-z
x,1/2+y,-z
-x,y,z
x,1/2-y,z
1/2+x,1/2+y,1/2+z
1/2-x,-y,1/2+z
1/2+x,1/2-y,1/2-z
1/2-x,y,1/2-z
1/2-x,1/2-y,1/2-z
1/2+x,y,1/2-z
1/2-x,1/2+y,1/2+z
1/2+x,-y,1/2+z
loop_
_atom_site_type_symbol
_atom_site_label
_atom_site_fract_x
_atom_site_fract_y
_atom_site_fract_z
Si Si1 0.817317 0.750000 0.691728
Si Si2 0.681581 0.179927 0.585810
Si Si3 0.679837 0.001576 0.846936
Si Si4 0.318795 0.122847 0.307155
Si Si5 0.180416 0.545215 0.049203
Si Si6 0.183876 0.625069 0.196280
O O1 0.750000 0.750000 0.750000
O O2 0.753964 0.685615 0.664363
O O3 0.000000 0.750000 0.692202
O O4 0.500000 0.187492 0.590258
O O5 0.751767 0.250000 0.568675
O O6 0.718080 0.122314 0.543824
O O7 0.742838 0.163074 0.644565
O O8 0.500000 0.990521 0.834484
O O9 0.703681 0.022548 0.906370
O O10 0.748706 0.053214 0.806680
O O11 0.776139 0.936628 0.842871
O O12 0.500000 0.132376 0.302451
O O13 0.250000 0.111199 0.250000
O O14 0.000000 0.537459 0.065655
O O15 0.218071 0.500000 0.000000
O O16 0.250000 0.656781 0.250000
O O17 0.000000 0.622853 0.198868
#
# Coordination Sequence:
#
# PCOD8297670 Si02
#       6
#     8  16  16  16  16  16
#     4  10  18  30  46  68  96 130 170 206 248 300
#     4   8  15  29  50  75 102 134 172 210 254 307
#     4  11  21  33  50  73  99 131 170 214 260 308
#     4  11  20  32  49  71 100 134 172 211 254 306
#     4   9  18  34  56  78 100 129 165 213 265 316
#     4  10  19  31  47  71 104 139 173 211 251 300
#
# _framework density 19.152035000000001
#
# number of rings (size 3 to 8) (size 9 to 14) (size 15 to 20)
#    0.000    2.182    0.000    7.364    0.000    0.727 
#    0.000    0.000    2.000   13.091    0.000    0.000 
#    0.000    0.000    0.000    0.000    0.000    0.000 
#
# Total GULP energy -545179.772850 kJ/mol
# GULP energy per Si atom -12390.449383 kJ/mol
# Density = 1.910844 g / cm^3
# Si number density = 19.152035 Si / 1000 Ang^3
#
#
#
# Elastic Constant Matrix: (Units=GPa)
#
#
# Indices 1 2 3 4 5 6 
#
# 1 103.3726 25.5136 9.8958 0.0000 0.0000 0.0000
# 2 25.5136 167.0118 39.0469 0.0000 0.0000 0.0000
# 3 9.8958 39.0469 64.0622 0.0000 0.0000 0.0000
# 4 0.0000 0.0000 0.0000 20.9087 0.0000 0.0000
# 5 0.0000 0.0000 0.0000 0.0000 23.4388 0.0000
# 6 0.0000 0.0000 0.0000 0.0000 0.0000 20.7597
#
#
#
# Elastic Compliance Matrix: (Units=1/GPa)
#
#
# Indices 1 2 3 4 5 6 
#
# 1 0.010081 -0.001371 -0.000721 0.000000 0.000000 0.000000
# 2 -0.001371 0.007169 -0.004158 0.000000 0.000000 0.000000
# 3 -0.000721 -0.004158 0.018256 0.000000 0.000000 0.000000
# 4 0.000000 0.000000 0.000000 0.047827 0.000000 0.000000
# 5 0.000000 0.000000 0.000000 0.000000 0.042664 0.000000
# 6 0.000000 0.000000 0.000000 0.000000 0.000000 0.048170
#
#
# Mechanical properties :
#
#
# Convention : Reuss Voigt Hill
#
# Bulk Modulus (GPa) = 43.46942 53.70657 48.58800
# Shear Modulus (GPa) = 25.72850 30.35414 28.04132
#
# Velocity S-wave (km/s) = 3.66919 3.98540 3.83056
# Velocity P-wave (km/s) = 6.37942 7.02005 6.70738
#
# Compressibility (1/GPa) = 0.02300468
#
# Stress axis : x y z
#
# Youngs Moduli (GPa) = 99.19373 139.48536 54.77785
#
# Poissons Ratio (x) = 0.19129 0.03952
# Poissons Ratio (y) = 0.13604 0.22776
# Poissons Ratio (z) = 0.07156 0.57997
#
# Static dielectric constant tensor:
#      x y z
#    x 3.226230 0.000000 0.000000 
#    y 0.000000 4.478100 0.000000 
#    z 0.000000 0.000000 3.183740 
# 
# 
# High freq. dielectric constant tensor:
#      x y z
#    x 1.736090 0.000000 0.000000 
#    y 0.000000 1.762850 0.000000 
#    z 0.000000 0.000000 1.699070 
# 
# From -- ./inp_files/56966.got.cif
#   From: 2010.03.12/outbox.cif.g09.slc.cpg/sg74_29_cif.got.tgz:56966.got - 2010.04.16 15:46:19.
