data_PCOD8297530
_publ_section_title
;
Structure prediction by ZEFSAII (Michael W. Deem and Ramdas Pophale) SiO2 
 PCOD8297530
Probable space group: I M M A
;
_chemical_formula_sum "Si O2"
_cell_formula_units_Z 96
_cell_length_a 18.066774
_cell_length_b 17.504391
_cell_length_c 18.177871
_cell_angle_alpha 90.000000
_cell_angle_beta 90.000000
_cell_angle_gamma 90.000000
_cell_volume 5748.713098
_symmetry_space_group_name_H-M "I M M A"
_symmetry_group_IT_number 74
_symmetry_cell_setting 'orthorhombic'
loop_
_space_group_symop_operation_xyz
x,y,z
-x,1/2-y,z
x,-y,-z
-x,1/2+y,-z
-x,-y,-z
x,1/2+y,-z
-x,y,z
x,1/2-y,z
1/2+x,1/2+y,1/2+z
1/2-x,-y,1/2+z
1/2+x,1/2-y,1/2-z
1/2-x,y,1/2-z
1/2-x,1/2-y,1/2-z
1/2+x,y,1/2-z
1/2-x,1/2+y,1/2+z
1/2+x,-y,1/2+z
loop_
_atom_site_type_symbol
_atom_site_label
_atom_site_fract_x
_atom_site_fract_y
_atom_site_fract_z
Si Si1 0.360250 0.833175 0.570184
Si Si2 0.771323 0.963363 0.165582
Si Si3 0.417691 0.450167 0.331915
Si Si4 0.291265 0.389808 0.094795
Si Si5 0.755060 0.662321 0.052371
Si Si6 0.915587 0.663079 0.700049
O O1 0.394647 0.750000 0.586636
O O2 0.417806 0.898524 0.593826
O O3 0.283599 0.843773 0.617641
O O4 0.337791 0.840570 0.483921
O O5 0.750000 0.959869 0.250000
O O6 0.756620 0.880723 0.129991
O O7 0.858720 0.982158 0.160626
O O8 0.720547 0.022969 0.120678
O O9 0.500000 0.484743 0.321584
O O10 0.394811 0.394081 0.265598
O O11 0.363485 0.353803 0.131016
O O12 0.300285 0.380591 0.005789
O O13 0.729761 0.750000 0.065111
O O14 0.903893 0.750000 0.727310
O O15 0.000000 0.650082 0.674363
#
# Coordination Sequence:
#
# PCOD8297530 Si02
#       6
#    16  16  16  16  16  16
#     4   8  16  29  48  70  96 131 163 201 245 290
#     4  11  20  34  54  77  98 135 174 209 252 300
#     4  10  20  31  45  72 108 140 167 201 248 300
#     4   9  17  31  51  76 100 130 165 206 254 297
#     4   9  19  34  54  76 101 128 170 219 252 291
#     4  10  18  28  46  75 111 141 164 197 249 312
#
# _framework density 16.699390000000001
#
# number of rings (size 3 to 8) (size 9 to 14) (size 15 to 20)
#    1.000    1.500    1.667    2.000    0.000    1.333 
#    0.000    4.167    0.000    4.500    0.000    0.000 
#    0.000    0.000    0.000    0.000    0.000    0.000 
#
# Total GULP energy -594632.349714 kJ/mol
# GULP energy per Si atom -12388.173952 kJ/mol
# Density = 1.666138 g / cm^3
# Si number density = 16.699390 Si / 1000 Ang^3
#
#
#
# Elastic Constant Matrix: (Units=GPa)
#
#
# Indices 1 2 3 4 5 6 
#
# 1 49.7068 17.4748 13.6210 0.0000 0.0000 0.0000
# 2 17.4748 91.0462 56.8582 0.0000 0.0000 0.0000
# 3 13.6210 56.8582 65.8521 0.0000 0.0000 0.0000
# 4 0.0000 0.0000 0.0000 28.6342 0.0000 0.0000
# 5 0.0000 0.0000 0.0000 0.0000 14.7249 0.0000
# 6 0.0000 0.0000 0.0000 0.0000 0.0000 12.1925
#
#
#
# Elastic Compliance Matrix: (Units=1/GPa)
#
#
# Indices 1 2 3 4 5 6 
#
# 1 0.021687 -0.002954 -0.001935 0.000000 0.000000 0.000000
# 2 -0.002954 0.024238 -0.020317 0.000000 0.000000 0.000000
# 3 -0.001935 -0.020317 0.033128 0.000000 0.000000 0.000000
# 4 0.000000 0.000000 0.000000 0.034923 0.000000 0.000000
# 5 0.000000 0.000000 0.000000 0.000000 0.067912 0.000000
# 6 0.000000 0.000000 0.000000 0.000000 0.000000 0.082018
#
#
# Mechanical properties :
#
#
# Convention : Reuss Voigt Hill
#
# Bulk Modulus (GPa) = 34.91521 42.50148 38.70835
# Shear Modulus (GPa) = 15.43853 19.02039 17.22946
#
# Velocity S-wave (km/s) = 3.04385 3.37855 3.21556
# Velocity P-wave (km/s) = 5.77121 6.38166 6.08410
#
# Compressibility (1/GPa) = 0.02864081
#
# Stress axis : x y z
#
# Youngs Moduli (GPa) = 46.11116 41.25711 30.18601
#
# Poissons Ratio (x) = 0.12186 0.05842
# Poissons Ratio (y) = 0.13620 0.61329
# Poissons Ratio (z) = 0.08924 0.83822
#
# Static dielectric constant tensor:
#      x y z
#    x 2.892350 0.000000 0.000000 
#    y 0.000000 2.946430 0.000000 
#    z 0.000000 0.000000 2.922260 
# 
# 
# High freq. dielectric constant tensor:
#      x y z
#    x 1.617330 0.000000 0.000000 
#    y 0.000000 1.630450 0.000000 
#    z 0.000000 0.000000 1.623710 
# 
# From -- ./inp_files/53181.got.cif
#   From: 2010.03.12/outbox.cif.g09.slc.cpg/sg74_27_cif.got.tgz:53181.got - 2010.04.16 15:46:19.
