data_PCOD8297402
_publ_section_title
;
Structure prediction by ZEFSAII (Michael W. Deem and Ramdas Pophale) SiO2 
 PCOD8297402
Probable space group: I M M A
;
_chemical_formula_sum "Si O2"
_cell_formula_units_Z 80
_cell_length_a 9.248089
_cell_length_b 18.483328
_cell_length_c 36.322434
_cell_angle_alpha 90.000000
_cell_angle_beta 90.000000
_cell_angle_gamma 90.000000
_cell_volume 6208.792050
_symmetry_space_group_name_H-M "I M M A"
_symmetry_group_IT_number 74
_symmetry_cell_setting 'orthorhombic'
loop_
_space_group_symop_operation_xyz
x,y,z
-x,1/2-y,z
x,-y,-z
-x,1/2+y,-z
-x,-y,-z
x,1/2+y,-z
-x,y,z
x,1/2-y,z
1/2+x,1/2+y,1/2+z
1/2-x,-y,1/2+z
1/2+x,1/2-y,1/2-z
1/2-x,y,1/2-z
1/2-x,1/2-y,1/2-z
1/2+x,y,1/2-z
1/2-x,1/2+y,1/2+z
1/2+x,-y,1/2+z
loop_
_atom_site_type_symbol
_atom_site_label
_atom_site_fract_x
_atom_site_fract_y
_atom_site_fract_z
Si Si1 0.167058 0.833127 0.356229
Si Si2 0.336791 0.663840 0.284991
Si Si3 0.159647 0.035764 0.039863
Si Si4 0.830634 0.667920 0.003469
Si Si5 0.830614 0.590203 0.431747
O O1 0.205226 0.750000 0.365439
O O2 0.260923 0.863113 0.322340
O O3 0.206173 0.881271 0.391319
O O4 0.000000 0.840532 0.345110
O O5 0.500000 0.633924 0.283844
O O6 0.334863 0.750000 0.283698
O O7 0.250000 0.632390 0.250000
O O8 0.209417 0.118852 0.032393
O O9 0.000000 0.033170 0.058080
O O10 0.270855 0.992009 0.065508
O O11 0.154670 0.000000 0.000000
O O12 0.789862 0.750000 0.993580
O O13 0.000000 0.658766 0.012781
O O14 0.742971 0.643771 0.039295
O O15 0.000000 0.589509 0.439828
#
# Coordination Sequence:
#
# PCOD8297402 Si02
#       5
#    16  16  16  16  16
#     4   9  17  27  36  48  68  91 115 144 175 205
#     4   9  16  25  37  51  66  86 112 141 172 204
#     4   8  15  27  39  50  66  89 115 142 174 213
#     4   9  17  28  40  52  67  89 117 148 180 213
#     4  10  18  26  37  53  72  92 114 144 181 214
#
# _framework density 12.884954
#
# number of rings (size 3 to 8) (size 9 to 14) (size 15 to 20)
#    0.000    3.000    0.000    3.000    0.000    8.800 
#    0.000    2.000    0.000    0.000    0.000    0.000 
#    0.000    0.000    0.000    0.000    0.000    1.000 
#
# Total GULP energy -495820.235505 kJ/mol
# GULP energy per Si atom -12395.505888 kJ/mol
# Density = 1.285563 g / cm^3
# Si number density = 12.884954 Si / 1000 Ang^3
#
#
#
# Elastic Constant Matrix: (Units=GPa)
#
#
# Indices 1 2 3 4 5 6 
#
# 1 78.9920 37.9063 53.5320 0.0000 0.0000 0.0000
# 2 37.9063 81.0959 42.5729 0.0000 0.0000 0.0000
# 3 53.5320 42.5729 79.5827 0.0000 0.0000 0.0000
# 4 0.0000 0.0000 0.0000 12.9158 0.0000 0.0000
# 5 0.0000 0.0000 0.0000 0.0000 22.8777 0.0000
# 6 0.0000 0.0000 0.0000 0.0000 0.0000 15.2004
#
#
#
# Elastic Compliance Matrix: (Units=1/GPa)
#
#
# Indices 1 2 3 4 5 6 
#
# 1 0.024091 -0.003829 -0.014156 0.000000 0.000000 0.000000
# 2 -0.003829 0.017755 -0.006923 0.000000 0.000000 0.000000
# 3 -0.014156 -0.006923 0.025791 0.000000 0.000000 0.000000
# 4 0.000000 0.000000 0.000000 0.077425 0.000000 0.000000
# 5 0.000000 0.000000 0.000000 0.000000 0.043711 0.000000
# 6 0.000000 0.000000 0.000000 0.000000 0.000000 0.065788
#
#
# Mechanical properties :
#
#
# Convention : Reuss Voigt Hill
#
# Bulk Modulus (GPa) = 56.11346 56.41033 56.26189
# Shear Modulus (GPa) = 16.11262 17.24273 16.67768
#
# Velocity S-wave (km/s) = 3.54008 3.66212 3.60161
# Velocity P-wave (km/s) = 7.76876 7.85853 7.81378
#
# Compressibility (1/GPa) = 0.01782104
#
# Stress axis : x y z
#
# Youngs Moduli (GPa) = 41.51007 56.32248 38.77285
#
# Poissons Ratio (x) = 0.21565 0.54889
# Poissons Ratio (y) = 0.15893 0.26841
# Poissons Ratio (z) = 0.58764 0.38989
#
# Static dielectric constant tensor:
#      x y z
#    x 2.714260 0.000000 0.000000 
#    y 0.000000 2.756520 0.000000 
#    z 0.000000 0.000000 2.478080 
# 
# 
# High freq. dielectric constant tensor:
#      x y z
#    x 1.501230 0.000000 0.000000 
#    y 0.000000 1.457020 0.000000 
#    z 0.000000 0.000000 1.464360 
# 
# From -- ./inp_files/70388.got.cif
#   From: 2010.03.12/outbox.cif.g09.slc.cpg/sg74_36_cif.got.tgz:70388.got - 2010.04.16 15:46:19.
