data_PCOD8297655
_publ_section_title
;
Structure prediction by ZEFSAII (Michael W. Deem and Ramdas Pophale) SiO2 
 PCOD8297655
Probable space group: I M M A
;
_chemical_formula_sum "Si O2"
_cell_formula_units_Z 72
_cell_length_a 8.680536
_cell_length_b 15.811199
_cell_length_c 29.061131
_cell_angle_alpha 90.000000
_cell_angle_beta 90.000000
_cell_angle_gamma 90.000000
_cell_volume 3988.630992
_symmetry_space_group_name_H-M "I M M A"
_symmetry_group_IT_number 74
_symmetry_cell_setting 'orthorhombic'
loop_
_space_group_symop_operation_xyz
x,y,z
-x,1/2-y,z
x,-y,-z
-x,1/2+y,-z
-x,-y,-z
x,1/2+y,-z
-x,y,z
x,1/2-y,z
1/2+x,1/2+y,1/2+z
1/2-x,-y,1/2+z
1/2+x,1/2-y,1/2-z
1/2-x,y,1/2-z
1/2-x,1/2-y,1/2-z
1/2+x,y,1/2-z
1/2-x,1/2+y,1/2+z
1/2+x,-y,1/2+z
loop_
_atom_site_type_symbol
_atom_site_label
_atom_site_fract_x
_atom_site_fract_y
_atom_site_fract_z
Si Si1 0.683177 0.656462 0.950152
Si Si2 0.181156 0.998427 0.608442
Si Si3 0.317391 0.250000 0.300807
Si Si4 0.183162 0.156918 0.554292
Si Si5 0.679681 0.420614 0.200727
O O1 0.500000 0.657079 0.947318
O O2 0.744540 0.750000 0.935131
O O3 0.753241 0.583382 0.917491
O O4 0.736203 0.636898 0.002318
O O5 0.252966 0.085240 0.588283
O O6 0.000000 0.997746 0.598871
O O7 0.213836 0.993955 0.663344
O O8 0.500000 0.250000 0.301530
O O9 0.250000 0.250000 0.250000
O O10 0.252279 0.163774 0.322727
O O11 0.244234 0.250000 0.569347
O O12 0.000000 0.156575 0.556934
O O13 0.500000 0.404806 0.208173
O O14 0.750000 0.446186 0.250000
#
# Coordination Sequence:
#
# PCOD8297655 Si02
#       5
#    16  16   8  16  16
#     4   8  13  20  32  52  81 114 141 168 209 263
#     4   9  16  23  36  57  82 114 148 176 212 261
#     4  10  18  30  46  62  84 114 146 178 216 258
#     4   8  13  22  35  53  80 114 145 175 216 264
#     4  10  19  30  44  62  87 118 149 182 217 255
#
# _framework density 18.051306
#
# number of rings (size 3 to 8) (size 9 to 14) (size 15 to 20)
#    0.000    3.111    0.000    5.000    1.556    2.667 
#    0.000    0.000    0.000    0.667    0.000    0.000 
#    0.000   16.889    0.000    0.000    0.000    0.889 
#
# Total GULP energy -445990.504607 kJ/mol
# GULP energy per Si atom -12388.625128 kJ/mol
# Density = 1.801022 g / cm^3
# Si number density = 18.051306 Si / 1000 Ang^3
#
#
#
# Elastic Constant Matrix: (Units=GPa)
#
#
# Indices 1 2 3 4 5 6 
#
# 1 46.0759 14.8827 20.1713 0.0000 0.0000 0.0000
# 2 14.8827 140.1817 83.3882 0.0000 0.0000 0.0000
# 3 20.1713 83.3882 109.0033 0.0000 0.0000 0.0000
# 4 0.0000 0.0000 0.0000 28.8791 0.0000 0.0000
# 5 0.0000 0.0000 0.0000 0.0000 11.1844 0.0000
# 6 0.0000 0.0000 0.0000 0.0000 0.0000 6.9133
#
#
#
# Elastic Compliance Matrix: (Units=1/GPa)
#
#
# Indices 1 2 3 4 5 6 
#
# 1 0.023619 0.000170 -0.004500 0.000000 0.000000 0.000000
# 2 0.000170 0.013092 -0.010047 0.000000 0.000000 0.000000
# 3 -0.004500 -0.010047 0.017693 0.000000 0.000000 0.000000
# 4 0.000000 0.000000 0.000000 0.034627 0.000000 0.000000
# 5 0.000000 0.000000 0.000000 0.000000 0.089410 0.000000
# 6 0.000000 0.000000 0.000000 0.000000 0.000000 0.144648
#
#
# Mechanical properties :
#
#
# Convention : Reuss Voigt Hill
#
# Bulk Modulus (GPa) = 38.98923 59.12726 49.05824
# Shear Modulus (GPa) = 13.87372 21.18329 17.52850
#
# Velocity S-wave (km/s) = 2.77532 3.42936 3.11953
# Velocity P-wave (km/s) = 5.64941 6.96469 6.34125
#
# Compressibility (1/GPa) = 0.02564811
#
# Stress axis : x y z
#
# Youngs Moduli (GPa) = 42.33928 76.38211 56.52021
#
# Poissons Ratio (x) = -0.01295 0.25436
# Poissons Ratio (y) = -0.00718 0.56785
# Poissons Ratio (z) = 0.19054 0.76740
#
# Static dielectric constant tensor:
#      x y z
#    x 2.738980 0.000000 0.000000 
#    y 0.000000 4.102670 0.000000 
#    z 0.000000 0.000000 3.303740 
# 
# 
# High freq. dielectric constant tensor:
#      x y z
#    x 1.635630 0.000000 0.000000 
#    y 0.000000 1.693610 0.000000 
#    z 0.000000 0.000000 1.692770 
# 
# From -- ./inp_files/69951.got.cif
#   From: 2010.03.12/outbox.cif.g09.slc.cpg/sg74_35_cif.got.tgz:69951.got - 2010.04.16 15:46:19.
