data_PCOD8297279
_publ_section_title
;
Structure prediction by ZEFSAII (Michael W. Deem and Ramdas Pophale) SiO2 
 PCOD8297279
Probable space group: I M M A
;
_chemical_formula_sum "Si O2"
_cell_formula_units_Z 96
_cell_length_a 8.884690
_cell_length_b 19.468128
_cell_length_c 30.950056
_cell_angle_alpha 90.000000
_cell_angle_beta 90.000000
_cell_angle_gamma 90.000000
_cell_volume 5353.378019
_symmetry_space_group_name_H-M "I M M A"
_symmetry_group_IT_number 74
_symmetry_cell_setting 'orthorhombic'
loop_
_space_group_symop_operation_xyz
x,y,z
-x,1/2-y,z
x,-y,-z
-x,1/2+y,-z
-x,-y,-z
x,1/2+y,-z
-x,y,z
x,1/2-y,z
1/2+x,1/2+y,1/2+z
1/2-x,-y,1/2+z
1/2+x,1/2-y,1/2-z
1/2-x,y,1/2-z
1/2-x,1/2-y,1/2-z
1/2+x,y,1/2-z
1/2-x,1/2+y,1/2+z
1/2+x,-y,1/2+z
loop_
_atom_site_type_symbol
_atom_site_label
_atom_site_fract_x
_atom_site_fract_y
_atom_site_fract_z
Si Si1 0.827643 0.330308 0.451302
Si Si2 0.177543 0.325656 0.548384
Si Si3 0.328117 0.574407 0.385519
Si Si4 0.678103 0.581351 0.792586
Si Si5 0.325070 0.566760 0.290321
Si Si6 0.823645 0.583332 0.879079
O O1 0.810893 0.250000 0.441465
O O2 0.773284 0.346822 0.500033
O O3 0.718049 0.372130 0.420409
O O4 0.000000 0.353799 0.444130
O O5 0.244017 0.250000 0.559785
O O6 0.229107 0.381616 0.582386
O O7 0.000000 0.321263 0.549650
O O8 0.500000 0.580929 0.400382
O O9 0.307713 0.604305 0.336591
O O10 0.274943 0.495429 0.387628
O O11 0.500000 0.588231 0.790647
O O12 0.750000 0.617964 0.750000
O O13 0.730847 0.502882 0.792867
O O14 0.738695 0.614647 0.837135
O O15 0.500000 0.550721 0.281094
O O16 0.250000 0.609392 0.250000
O O17 0.000000 0.587116 0.869706
#
# Coordination Sequence:
#
# PCOD8297279 Si02
#       6
#    16  16  16  16  16  16
#     4   9  19  36  54  72  96 127 164 203 244 293
#     4   9  19  35  53  72  95 126 165 205 244 293
#     4   9  19  32  47  72 103 130 159 201 246 287
#     4  10  17  27  45  69  98 131 164 198 240 286
#     4   9  16  27  43  67  98 129 162 199 240 287
#     4  10  20  33  49  74 104 130 163 203 243 288
#
# _framework density 17.932600999999998
#
# number of rings (size 3 to 8) (size 9 to 14) (size 15 to 20)
#    0.000    2.667    0.000    5.500    0.000    6.000 
#    0.000    5.000    0.000    1.000    0.000    0.000 
#    0.000    0.000    0.000    0.000    0.000    0.000 
#
# Total GULP energy -594874.917946 kJ/mol
# GULP energy per Si atom -12393.227457 kJ/mol
# Density = 1.789179 g / cm^3
# Si number density = 17.932601 Si / 1000 Ang^3
#
#
#
# Elastic Constant Matrix: (Units=GPa)
#
#
# Indices 1 2 3 4 5 6 
#
# 1 87.6264 25.7414 55.7944 0.0000 0.0000 0.0000
# 2 25.7414 43.8908 51.1954 0.0000 0.0000 0.0000
# 3 55.7944 51.1954 149.5952 0.0000 0.0000 0.0000
# 4 0.0000 0.0000 0.0000 -13.9613 0.0000 0.0000
# 5 0.0000 0.0000 0.0000 0.0000 37.6565 0.0000
# 6 0.0000 0.0000 0.0000 0.0000 0.0000 20.9665
#
#
#
# Elastic Compliance Matrix: (Units=1/GPa)
#
#
# Indices 1 2 3 4 5 6 
#
# 1 0.015351 -0.003870 -0.004401 0.000000 0.000000 0.000000
# 2 -0.003870 0.038897 -0.011868 0.000000 0.000000 0.000000
# 3 -0.004401 -0.011868 0.012388 0.000000 0.000000 0.000000
# 4 0.000000 0.000000 0.000000 -0.071627 0.000000 0.000000
# 5 0.000000 0.000000 0.000000 0.000000 0.026556 0.000000
# 6 0.000000 0.000000 0.000000 0.000000 0.000000 0.047695
#
#
# Mechanical properties :
#
#
# Convention : Reuss Voigt Hill
#
# Bulk Modulus (GPa) = 37.93962 60.73054 49.33508
# Shear Modulus (GPa) = 42.25687 18.82444 30.54065
#
# Velocity S-wave (km/s) = 4.85957 3.24347 4.13132
# Velocity P-wave (km/s) = 7.25878 6.92577 7.09423
#
# Compressibility (1/GPa) = 0.02635767
#
# Stress axis : x y z
#
# Youngs Moduli (GPa) = 65.14137 25.70914 80.72407
#
# Poissons Ratio (x) = 0.09948 0.35529
# Poissons Ratio (y) = 0.25207 0.95805
# Poissons Ratio (z) = 0.28671 0.30512
#
# Static dielectric constant tensor:
#      x y z
#    x 3.277250 0.000000 0.000000 
#    y 0.000000 2.922340 0.000000 
#    z 0.000000 0.000000 4.008120 
# 
# 
# High freq. dielectric constant tensor:
#      x y z
#    x 1.698200 0.000000 0.000000 
#    y 0.000000 1.639930 0.000000 
#    z 0.000000 0.000000 1.717960 
# 
# From -- ./inp_files/64295.got.cif
#   From: 2010.03.12/outbox.cif.g09.slc.cpg/sg74_33_cif.got.tgz:64295.got - 2010.04.16 15:46:19.
