data_PCOD8297107
_publ_section_title
;
Structure prediction by ZEFSAII (Michael W. Deem and Ramdas Pophale) SiO2 
 PCOD8297107
Probable space group: I M M A
;
_chemical_formula_sum "Si O2"
_cell_formula_units_Z 88
_cell_length_a 30.336654
_cell_length_b 13.664110
_cell_length_c 13.049029
_cell_angle_alpha 90.000000
_cell_angle_beta 90.000000
_cell_angle_gamma 90.000000
_cell_volume 5409.127571
_symmetry_space_group_name_H-M "I M M A"
_symmetry_group_IT_number 74
_symmetry_cell_setting 'orthorhombic'
loop_
_space_group_symop_operation_xyz
x,y,z
-x,1/2-y,z
x,-y,-z
-x,1/2+y,-z
-x,-y,-z
x,1/2+y,-z
-x,y,z
x,1/2-y,z
1/2+x,1/2+y,1/2+z
1/2-x,-y,1/2+z
1/2+x,1/2-y,1/2-z
1/2-x,y,1/2-z
1/2-x,1/2-y,1/2-z
1/2+x,y,1/2-z
1/2-x,1/2+y,1/2+z
1/2+x,-y,1/2+z
loop_
_atom_site_type_symbol
_atom_site_label
_atom_site_fract_x
_atom_site_fract_y
_atom_site_fract_z
Si Si1 0.745693 0.136782 0.547616
Si Si2 0.217016 0.545807 0.839948
Si Si3 0.154871 0.360441 0.510282
Si Si4 0.359167 0.139794 0.230770
Si Si5 0.548435 0.361448 0.166527
Si Si6 0.083124 0.000000 0.500000
O O1 0.737905 0.250000 0.576054
O O2 0.726615 0.115929 0.435554
O O3 0.797200 0.107468 0.550167
O O4 0.721423 0.068789 0.631052
O O5 0.250000 0.576549 0.750000
O O6 0.167252 0.564289 0.801875
O O7 0.145333 0.250000 0.542350
O O8 0.152488 0.375520 0.388107
O O9 0.116675 0.426865 0.561610
O O10 0.346728 0.250000 0.264257
O O11 0.411773 0.119990 0.246835
O O12 0.500000 0.374878 0.217994
O O13 0.553525 0.250000 0.123577
O O14 0.551748 0.438215 0.073839
#
# Coordination Sequence:
#
# PCOD8297107 Si02
#       6
#    16  16  16  16  16   8
#     4  10  21  33  45  68 100 130 162 198 232 272
#     4  11  20  30  50  70  93 128 164 197 229 281
#     4   9  17  28  43  65  91 123 159 191 221 265
#     4   9  17  29  47  67  88 118 156 195 231 268
#     4   9  18  30  44  65  90 116 151 196 240 278
#     4  10  15  24  44  64  90 120 150 186 229 276
#
# _framework density 16.268796999999999
#
# number of rings (size 3 to 8) (size 9 to 14) (size 15 to 20)
#    0.000    2.364    1.818    3.545    2.545    1.091 
#    0.000    0.000    0.000    0.000    0.000    2.545 
#    0.000    1.455    0.000    0.000    0.000    0.000 
#
# Total GULP energy -545285.144322 kJ/mol
# GULP energy per Si atom -12392.844189 kJ/mol
# Density = 1.623177 g / cm^3
# Si number density = 16.268797 Si / 1000 Ang^3
#
#
#
# Elastic Constant Matrix: (Units=GPa)
#
#
# Indices 1 2 3 4 5 6 
#
# 1 133.5828 52.4357 32.0462 0.0000 0.0000 0.0000
# 2 52.4357 89.7620 15.5290 0.0000 0.0000 0.0000
# 3 32.0462 15.5290 33.9064 0.0000 0.0000 0.0000
# 4 0.0000 0.0000 0.0000 20.5828 0.0000 0.0000
# 5 0.0000 0.0000 0.0000 0.0000 18.9758 0.0000
# 6 0.0000 0.0000 0.0000 0.0000 0.0000 23.5787
#
#
#
# Elastic Compliance Matrix: (Units=1/GPa)
#
#
# Indices 1 2 3 4 5 6 
#
# 1 0.011622 -0.005309 -0.008553 0.000000 0.000000 0.000000
# 2 -0.005309 0.014525 -0.001634 0.000000 0.000000 0.000000
# 3 -0.008553 -0.001634 0.038325 0.000000 0.000000 0.000000
# 4 0.000000 0.000000 0.000000 0.048584 0.000000 0.000000
# 5 0.000000 0.000000 0.000000 0.000000 0.052699 0.000000
# 6 0.000000 0.000000 0.000000 0.000000 0.000000 0.042411
#
#
# Mechanical properties :
#
#
# Convention : Reuss Voigt Hill
#
# Bulk Modulus (GPa) = 29.86941 50.80813 40.33877
# Shear Modulus (GPa) = 19.97464 23.11017 21.54241
#
# Velocity S-wave (km/s) = 3.50778 3.77307 3.64284
# Velocity P-wave (km/s) = 5.89965 7.09081 6.52248
#
# Compressibility (1/GPa) = 0.03347907
#
# Stress axis : x y z
#
# Youngs Moduli (GPa) = 86.04475 68.84733 26.09286
#
# Poissons Ratio (x) = 0.36554 0.22316
# Poissons Ratio (y) = 0.45685 0.04264
# Poissons Ratio (z) = 0.73590 0.11251
#
# Static dielectric constant tensor:
#      x y z
#    x 3.279450 0.000000 0.000000 
#    y 0.000000 3.283300 0.000000 
#    z 0.000000 0.000000 2.658460 
# 
# 
# High freq. dielectric constant tensor:
#      x y z
#    x 1.625270 0.000000 0.000000 
#    y 0.000000 1.642030 0.000000 
#    z 0.000000 0.000000 1.566920 
# 
# From -- ./inp_files/27103.got.cif
#   From: 2010.03.12/outbox.cif.g09.slc.cpg/sg74_14_cif.got.tgz:27103.got - 2010.04.16 15:46:19.
