data_PCOD8297425
_publ_section_title
;
Structure prediction by ZEFSAII (Michael W. Deem and Ramdas Pophale) SiO2 
 PCOD8297425
Probable space group: I M M A
;
_chemical_formula_sum "Si O2"
_cell_formula_units_Z 72
_cell_length_a 9.131238
_cell_length_b 32.267417
_cell_length_c 17.959829
_cell_angle_alpha 90.000000
_cell_angle_beta 90.000000
_cell_angle_gamma 90.000000
_cell_volume 5291.710315
_symmetry_space_group_name_H-M "I M M A"
_symmetry_group_IT_number 74
_symmetry_cell_setting 'orthorhombic'
loop_
_space_group_symop_operation_xyz
x,y,z
-x,1/2-y,z
x,-y,-z
-x,1/2+y,-z
-x,-y,-z
x,1/2+y,-z
-x,y,z
x,1/2-y,z
1/2+x,1/2+y,1/2+z
1/2-x,-y,1/2+z
1/2+x,1/2-y,1/2-z
1/2-x,y,1/2-z
1/2-x,1/2-y,1/2-z
1/2+x,y,1/2-z
1/2-x,1/2+y,1/2+z
1/2+x,-y,1/2+z
loop_
_atom_site_type_symbol
_atom_site_label
_atom_site_fract_x
_atom_site_fract_y
_atom_site_fract_z
Si Si1 0.165261 0.458705 0.451726
Si Si2 0.330423 0.083926 0.575383
Si Si3 0.170506 0.002779 0.828225
Si Si4 0.328319 0.160397 0.671028
Si Si5 0.331971 0.250000 0.673853
O O1 0.166885 0.500000 0.500000
O O2 0.238835 0.422173 0.499804
O O3 0.258774 0.466015 0.377122
O O4 0.000000 0.445896 0.430424
O O5 0.500000 0.086922 0.552868
O O6 0.271486 0.126007 0.613353
O O7 0.303930 0.046823 0.632954
O O8 0.250000 0.004245 0.750000
O O9 0.000000 0.993029 0.817212
O O10 0.500000 0.153727 0.685512
O O11 0.250000 0.154968 0.750000
O O12 0.294908 0.206046 0.633585
O O13 0.500000 0.250000 0.695642
O O14 0.250000 0.250000 0.750000
#
# Coordination Sequence:
#
# PCOD8297425 Si02
#       5
#    16  16  16  16   8
#     4   9  17  28  40  53  70  93 121 152 186 222
#     4   9  17  27  38  53  73  97 124 155 188 219
#     4  10  18  27  39  54  73  96 123 154 186 219
#     4   9  16  25  37  53  73  97 126 157 187 218
#     4   8  14  24  36  50  70  96 123 152 185 218
#
# _framework density 13.606188
#
# number of rings (size 3 to 8) (size 9 to 14) (size 15 to 20)
#    0.000    2.889    0.000    2.000    0.000    4.444 
#    0.000    0.000    0.000    0.000    0.000    0.000 
#    0.000    0.000    0.000    1.000    0.000   10.000 
#
# Total GULP energy -446126.746749 kJ/mol
# GULP energy per Si atom -12392.409632 kJ/mol
# Density = 1.357522 g / cm^3
# Si number density = 13.606188 Si / 1000 Ang^3
#
#
#
# Elastic Constant Matrix: (Units=GPa)
#
#
# Indices 1 2 3 4 5 6 
#
# 1 76.7223 35.7163 43.1019 -0.0001 0.0000 0.0000
# 2 35.7163 92.7248 37.3727 0.0000 0.0000 0.0000
# 3 43.1019 37.3727 53.6985 -0.0002 0.0000 0.0000
# 4 -0.0001 0.0000 -0.0002 19.4564 0.0000 0.0000
# 5 0.0000 0.0000 0.0000 0.0000 25.3531 0.0000
# 6 0.0000 0.0000 0.0000 0.0000 0.0000 13.4994
#
#
#
# Elastic Compliance Matrix: (Units=1/GPa)
#
#
# Indices 1 2 3 4 5 6 
#
# 1 0.024018 -0.002059 -0.017845 0.000000 0.000000 0.000000
# 2 -0.002059 0.015166 -0.008902 0.000000 0.000000 0.000000
# 3 -0.017845 -0.008902 0.039142 0.000000 0.000000 0.000000
# 4 0.000000 0.000000 0.000000 0.051397 0.000000 0.000000
# 5 0.000000 0.000000 0.000000 0.000000 0.039443 0.000000
# 6 0.000000 0.000000 0.000000 0.000000 0.000000 0.074078
#
#
# Mechanical properties :
#
#
# Convention : Reuss Voigt Hill
#
# Bulk Modulus (GPa) = 48.27989 50.61417 49.44703
# Shear Modulus (GPa) = 16.24638 18.79208 17.51923
#
# Velocity S-wave (km/s) = 3.45924 3.72040 3.59220
# Velocity P-wave (km/s) = 7.17746 7.46561 7.32295
#
# Compressibility (1/GPa) = 0.02071256
#
# Stress axis : x y z
#
# Youngs Moduli (GPa) = 41.63576 65.93807 25.54778
#
# Poissons Ratio (x) = 0.13575 0.45591
# Poissons Ratio (y) = 0.08572 0.22744
# Poissons Ratio (z) = 0.74301 0.58701
#
# Static dielectric constant tensor:
#      x y z
#    x 2.759030 0.000000 0.000000 
#    y 0.000000 2.982760 0.000000 
#    z 0.000000 0.000000 2.514750 
# 
# 
# High freq. dielectric constant tensor:
#      x y z
#    x 1.531250 0.000000 0.000000 
#    y 0.000000 1.499360 0.000000 
#    z 0.000000 0.000000 1.487060 
# 
# From -- ./inp_files/48913.got.cif
#   From: 2010.03.12/outbox.cif.g09.slc.cpg/sg74_25_cif.got.tgz:48913.got - 2010.04.16 15:46:19.
