data_PCOD8297973
_publ_section_title
;
Structure prediction by ZEFSAII (Michael W. Deem and Ramdas Pophale) SiO2 
 PCOD8297973
Probable space group: I M M A
;
_chemical_formula_sum "Si O2"
_cell_formula_units_Z 112
_cell_length_a 25.483262
_cell_length_b 15.208844
_cell_length_c 14.087479
_cell_angle_alpha 90.000000
_cell_angle_beta 90.000000
_cell_angle_gamma 90.000000
_cell_volume 5459.897709
_symmetry_space_group_name_H-M "I M M A"
_symmetry_group_IT_number 74
_symmetry_cell_setting 'orthorhombic'
loop_
_space_group_symop_operation_xyz
x,y,z
-x,1/2-y,z
x,-y,-z
-x,1/2+y,-z
-x,-y,-z
x,1/2+y,-z
-x,y,z
x,1/2-y,z
1/2+x,1/2+y,1/2+z
1/2-x,-y,1/2+z
1/2+x,1/2-y,1/2-z
1/2-x,y,1/2-z
1/2-x,1/2-y,1/2-z
1/2+x,y,1/2-z
1/2-x,1/2+y,1/2+z
1/2+x,-y,1/2+z
loop_
_atom_site_type_symbol
_atom_site_label
_atom_site_fract_x
_atom_site_fract_y
_atom_site_fract_z
Si Si1 0.789411 0.905051 0.524544
Si Si2 0.606209 0.649164 0.346674
Si Si3 0.395472 0.090360 0.458963
Si Si4 0.059690 0.022444 0.227766
Si Si5 0.225496 0.850953 0.156116
Si Si6 0.137657 0.651007 0.675954
Si Si7 0.202114 0.652367 0.854000
O O1 0.764766 0.858907 0.432754
O O2 0.839638 0.854535 0.568760
O O3 0.743998 0.916182 0.604450
O O4 0.811214 0.000000 0.500000
O O5 0.600674 0.750000 0.308552
O O6 0.579126 0.642718 0.451502
O O7 0.579395 0.579463 0.274788
O O8 0.666354 0.614799 0.361493
O O9 0.437251 0.067285 0.376458
O O10 0.350570 0.150825 0.415468
O O11 0.371392 0.000000 0.500000
O O12 0.092650 0.079168 0.304319
O O13 0.000000 0.023060 0.262648
O O14 0.218043 0.750000 0.179721
O O15 0.250000 0.897628 0.250000
O O16 0.115826 0.750000 0.693444
O O17 0.187424 0.631334 0.745279
O O18 0.226806 0.750000 0.863776
#
# Coordination Sequence:
#
# PCOD8297973 Si02
#       7
#    16  16  16  16  16  16  16
#     4  12  24  33  57  89 124 161 200 248 302 373
#     4  10  20  35  58  87 127 172 208 250 310 382
#     4   9  17  30  51  81 117 159 203 248 302 369
#     4  10  23  40  61  87 120 159 212 276 324 370
#     4  10  22  37  56  85 124 167 201 237 289 362
#     4  10  23  41  62  88 121 163 213 262 311 369
#     4  10  18  32  54  82 119 161 199 243 296 359
#
# _framework density 20.513204000000002
#
# number of rings (size 3 to 8) (size 9 to 14) (size 15 to 20)
#    0.000    1.857    1.429    2.571    6.000    4.857 
#    0.000    0.000    0.000    0.429    0.000    0.000 
#    0.000    0.000    0.000    0.000    0.000    0.000 
#
# Total GULP energy -693966.861572 kJ/mol
# GULP energy per Si atom -12392.265385 kJ/mol
# Density = 2.046651 g / cm^3
# Si number density = 20.513204 Si / 1000 Ang^3
#
#
#
# Elastic Constant Matrix: (Units=GPa)
#
#
# Indices 1 2 3 4 5 6 
#
# 1 83.5650 41.2628 53.8900 0.0000 0.0000 0.0000
# 2 41.2628 97.6458 29.3593 0.0000 0.0000 0.0000
# 3 53.8900 29.3593 81.4727 0.0000 0.0000 0.0000
# 4 0.0000 0.0000 0.0000 23.1647 0.0000 0.0000
# 5 0.0000 0.0000 0.0000 0.0000 13.0256 0.0000
# 6 0.0000 0.0000 0.0000 0.0000 0.0000 18.5687
#
#
#
# Elastic Compliance Matrix: (Units=1/GPa)
#
#
# Indices 1 2 3 4 5 6 
#
# 1 0.023563 -0.005911 -0.013455 0.000000 0.000000 0.000000
# 2 -0.005911 0.012969 -0.000763 0.000000 0.000000 0.000000
# 3 -0.013455 -0.000763 0.021449 0.000000 0.000000 0.000000
# 4 0.000000 0.000000 0.000000 0.043169 0.000000 0.000000
# 5 0.000000 0.000000 0.000000 0.000000 0.076772 0.000000
# 6 0.000000 0.000000 0.000000 0.000000 0.000000 0.053854
#
#
# Mechanical properties :
#
#
# Convention : Reuss Voigt Hill
#
# Bulk Modulus (GPa) = 56.43185 56.85643 56.64414
# Shear Modulus (GPa) = 17.98933 20.16324 19.07629
#
# Velocity S-wave (km/s) = 2.96457 3.13859 3.05282
# Velocity P-wave (km/s) = 6.26801 6.39621 6.33243
#
# Compressibility (1/GPa) = 0.01772049
#
# Stress axis : x y z
#
# Youngs Moduli (GPa) = 42.43956 77.10925 46.62192
#
# Poissons Ratio (x) = 0.45583 0.62732
# Poissons Ratio (y) = 0.25088 0.03558
# Poissons Ratio (z) = 0.57104 0.05885
#
# Static dielectric constant tensor:
#      x y z
#    x 3.350620 0.000000 0.000000 
#    y 0.000000 3.704360 0.000000 
#    z 0.000000 0.000000 3.760430 
# 
# 
# High freq. dielectric constant tensor:
#      x y z
#    x 1.759040 0.000000 0.000000 
#    y 0.000000 1.807610 0.000000 
#    z 0.000000 0.000000 1.784810 
# 
# From -- ./inp_files/36521.got.cif
#   From: 2010.03.12/outbox.cif.g09.slc.cpg/sg74_19_cif.got.tgz:36521.got - 2010.04.16 15:46:19.
