data_PCOD8297757
_publ_section_title
;
Structure prediction by ZEFSAII (Michael W. Deem and Ramdas Pophale) SiO2 
 PCOD8297757
Probable space group: I M M A
;
_chemical_formula_sum "Si O2"
_cell_formula_units_Z 64
_cell_length_a 8.832152
_cell_length_b 20.902437
_cell_length_c 18.652104
_cell_angle_alpha 90.000000
_cell_angle_beta 90.000000
_cell_angle_gamma 90.000000
_cell_volume 3443.430216
_symmetry_space_group_name_H-M "I M M A"
_symmetry_group_IT_number 74
_symmetry_cell_setting 'orthorhombic'
loop_
_space_group_symop_operation_xyz
x,y,z
-x,1/2-y,z
x,-y,-z
-x,1/2+y,-z
-x,-y,-z
x,1/2+y,-z
-x,y,z
x,1/2-y,z
1/2+x,1/2+y,1/2+z
1/2-x,-y,1/2+z
1/2+x,1/2-y,1/2-z
1/2-x,y,1/2-z
1/2-x,1/2-y,1/2-z
1/2+x,y,1/2-z
1/2-x,1/2+y,1/2+z
1/2+x,-y,1/2+z
loop_
_atom_site_type_symbol
_atom_site_label
_atom_site_fract_x
_atom_site_fract_y
_atom_site_fract_z
Si Si1 0.678802 0.877939 0.827647
Si Si2 0.324187 0.250000 0.674114
Si Si3 0.680966 0.750000 0.671003
Si Si4 0.822390 0.111957 0.827715
Si Si5 0.323942 0.002529 0.917730
O O1 0.500000 0.867233 0.818667
O O2 0.750000 0.892481 0.750000
O O3 0.754565 0.815008 0.864741
O O4 0.718318 0.936090 0.879902
O O5 0.500000 0.250000 0.688237
O O6 0.250000 0.250000 0.750000
O O7 0.279182 0.317879 0.637336
O O8 0.500000 0.750000 0.670531
O O9 0.750000 0.750000 0.750000
O O10 0.750000 0.101432 0.750000
O O11 0.767333 0.059609 0.882728
O O12 0.000000 0.104523 0.817089
O O13 0.500000 0.017839 0.909455
O O14 0.273981 0.000000 0.000000
#
# Coordination Sequence:
#
# PCOD8297757 Si02
#       5
#    16   8   8  16  16
#     4  10  19  33  54  77 103 133 168 210 256 306
#     4   8  16  30  49  76 105 131 163 207 255 302
#     4  10  18  30  51  78 105 129 163 209 255 304
#     4  10  19  33  55  80 106 136 172 213 257 306
#     4  10  22  38  53  73 104 140 177 216 257 304
#
# _framework density 18.586119
#
# number of rings (size 3 to 8) (size 9 to 14) (size 15 to 20)
#    0.000    2.250    0.000    4.875    0.000    5.500 
#    0.000    1.250    0.000    4.500    0.000    0.000 
#    0.000    0.000    0.000    0.000    0.000    0.000 
#
# Total GULP energy -396539.455082 kJ/mol
# GULP energy per Si atom -12391.857971 kJ/mol
# Density = 1.854382 g / cm^3
# Si number density = 18.586119 Si / 1000 Ang^3
#
#
#
# Elastic Constant Matrix: (Units=GPa)
#
#
# Indices 1 2 3 4 5 6 
#
# 1 92.4434 84.0319 44.9117 0.0000 0.0000 0.0000
# 2 84.0319 199.2724 78.5704 0.0000 0.0000 0.0000
# 3 44.9117 78.5704 92.4828 0.0000 0.0000 0.0000
# 4 0.0000 0.0000 0.0000 -7.4105 0.0000 0.0000
# 5 0.0000 0.0000 0.0000 0.0000 22.4601 0.0000
# 6 0.0000 0.0000 0.0000 0.0000 0.0000 28.0907
#
#
#
# Elastic Compliance Matrix: (Units=1/GPa)
#
#
# Indices 1 2 3 4 5 6 
#
# 1 0.018264 -0.006323 -0.003498 0.000000 0.000000 0.000000
# 2 -0.006323 0.009735 -0.005200 0.000000 0.000000 0.000000
# 3 -0.003498 -0.005200 0.016929 0.000000 0.000000 0.000000
# 4 0.000000 0.000000 0.000000 -0.134944 0.000000 0.000000
# 5 0.000000 0.000000 0.000000 0.000000 0.044523 0.000000
# 6 0.000000 0.000000 0.000000 0.000000 0.000000 0.035599
#
#
# Mechanical properties :
#
#
# Convention : Reuss Voigt Hill
#
# Bulk Modulus (GPa) = 67.17241 88.80295 77.98768
# Shear Modulus (GPa) = 199.12161 20.40703 109.76432
#
# Velocity S-wave (km/s) = 10.36181 3.31716 7.69320
# Velocity P-wave (km/s) = 13.39313 7.90913 10.99841
#
# Compressibility (1/GPa) = 0.01488706
#
# Stress axis : x y z
#
# Youngs Moduli (GPa) = 54.75182 102.72478 59.06978
#
# Poissons Ratio (x) = 0.64950 0.20662
# Poissons Ratio (y) = 0.34618 0.30716
# Poissons Ratio (z) = 0.19152 0.53416
#
# Static dielectric constant tensor:
#      x y z
#    x 3.864810 0.000000 0.000000 
#    y 0.000000 4.435050 0.000000 
#    z 0.000000 0.000000 2.969640 
# 
# 
# High freq. dielectric constant tensor:
#      x y z
#    x 1.731970 0.000000 0.000000 
#    y 0.000000 1.753350 0.000000 
#    z 0.000000 0.000000 1.676020 
# 
# From -- ./inp_files/39124.got.cif
#   From: 2010.03.12/outbox.cif.g09.slc.cpg/sg74_20_cif.got.tgz:39124.got - 2010.04.16 15:46:19.
