data_PCOD8297868
_publ_section_title
;
Structure prediction by ZEFSAII (Michael W. Deem and Ramdas Pophale) SiO2 
 PCOD8297868
Probable space group: I M M A
;
_chemical_formula_sum "Si O2"
_cell_formula_units_Z 88
_cell_length_a 9.335002
_cell_length_b 21.733136
_cell_length_c 23.933941
_cell_angle_alpha 90.000000
_cell_angle_beta 90.000000
_cell_angle_gamma 90.000000
_cell_volume 4855.690857
_symmetry_space_group_name_H-M "I M M A"
_symmetry_group_IT_number 74
_symmetry_cell_setting 'orthorhombic'
loop_
_space_group_symop_operation_xyz
x,y,z
-x,1/2-y,z
x,-y,-z
-x,1/2+y,-z
-x,-y,-z
x,1/2+y,-z
-x,y,z
x,1/2-y,z
1/2+x,1/2+y,1/2+z
1/2-x,-y,1/2+z
1/2+x,1/2-y,1/2-z
1/2-x,y,1/2-z
1/2-x,1/2-y,1/2-z
1/2+x,y,1/2-z
1/2-x,1/2+y,1/2+z
1/2+x,-y,1/2+z
loop_
_atom_site_type_symbol
_atom_site_label
_atom_site_fract_x
_atom_site_fract_y
_atom_site_fract_z
Si Si1 0.831975 0.402068 0.407104
Si Si2 0.661030 0.817531 0.517377
Si Si3 0.337639 0.351680 0.604034
Si Si4 0.666059 0.680124 0.802831
Si Si5 0.170043 0.015985 0.935827
Si Si6 0.673393 0.750000 0.310100
O O1 0.775099 0.366910 0.461730
O O2 0.790052 0.360126 0.355224
O O3 0.750616 0.466046 0.397880
O O4 0.000000 0.413384 0.413620
O O5 0.500000 0.840976 0.532251
O O6 0.689146 0.750000 0.543566
O O7 0.675900 0.810163 0.450998
O O8 0.500000 0.364860 0.620464
O O9 0.270121 0.418602 0.587940
O O10 0.273227 0.311513 0.655764
O O11 0.500000 0.675248 0.789046
O O12 0.712579 0.750000 0.815618
O O13 0.750000 0.653437 0.750000
O O14 0.000000 0.011337 0.928861
O O15 0.212907 0.000000 0.000000
O O16 0.500000 0.750000 0.304167
O O17 0.750000 0.750000 0.250000
#
# Coordination Sequence:
#
# PCOD8297868 Si02
#       6
#    16  16  16  16  16   8
#     4  11  22  34  50  78 117 148 173 217 277 330
#     4  10  18  31  54  81 106 139 184 226 266 322
#     4   9  17  33  57  81 105 136 176 229 277 318
#     4   9  19  36  55  74 101 138 178 219 263 309
#     4  10  19  34  56  79 107 145 188 223 262 326
#     4  10  20  38  62  84 110 144 185 232 287 332
#
# _framework density 18.123065
#
# number of rings (size 3 to 8) (size 9 to 14) (size 15 to 20)
#    0.000    2.182    2.727    1.091    0.000    2.909 
#    0.000    4.545    0.000    4.364    0.000    0.000 
#    0.000    0.000    0.000    0.000    0.000    0.000 
#
# Total GULP energy -545224.904360 kJ/mol
# GULP energy per Si atom -12391.475099 kJ/mol
# Density = 1.808182 g / cm^3
# Si number density = 18.123065 Si / 1000 Ang^3
#
#
#
# Elastic Constant Matrix: (Units=GPa)
#
#
# Indices 1 2 3 4 5 6 
#
# 1 34.6293 39.8023 30.9299 0.0000 0.0000 0.0000
# 2 39.8023 139.0845 59.3606 0.0000 0.0000 0.0000
# 3 30.9299 59.3606 97.1017 0.0000 0.0000 0.0000
# 4 0.0000 0.0000 0.0000 11.5314 0.0000 0.0000
# 5 0.0000 0.0000 0.0000 0.0000 29.5895 0.0000
# 6 0.0000 0.0000 0.0000 0.0000 0.0000 25.7174
#
#
#
# Elastic Compliance Matrix: (Units=1/GPa)
#
#
# Indices 1 2 3 4 5 6 
#
# 1 0.048708 -0.009900 -0.009463 0.000000 0.000000 0.000000
# 2 -0.009900 0.011740 -0.004024 0.000000 0.000000 0.000000
# 3 -0.009463 -0.004024 0.015772 0.000000 0.000000 0.000000
# 4 0.000000 0.000000 0.000000 0.086720 0.000000 0.000000
# 5 0.000000 0.000000 0.000000 0.000000 0.033796 0.000000
# 6 0.000000 0.000000 0.000000 0.000000 0.000000 0.038884
#
#
# Mechanical properties :
#
#
# Convention : Reuss Voigt Hill
#
# Bulk Modulus (GPa) = 33.95853 59.00008 46.47931
# Shear Modulus (GPa) = 17.11094 22.74916 19.93005
#
# Velocity S-wave (km/s) = 3.07604 3.54681 3.31978
# Velocity P-wave (km/s) = 5.60308 7.02845 6.35584
#
# Compressibility (1/GPa) = 0.02944768
#
# Stress axis : x y z
#
# Youngs Moduli (GPa) = 20.53030 85.17639 63.40195
#
# Poissons Ratio (x) = 0.84328 0.59996
# Poissons Ratio (y) = 0.20326 0.25510
# Poissons Ratio (z) = 0.19427 0.34271
#
# Static dielectric constant tensor:
#      x y z
#    x 3.091730 0.000000 0.000000 
#    y 0.000000 3.635070 0.000000 
#    z 0.000000 0.000000 3.261430 
# 
# 
# High freq. dielectric constant tensor:
#      x y z
#    x 1.675120 0.000000 0.000000 
#    y 0.000000 1.715370 0.000000 
#    z 0.000000 0.000000 1.683710 
# 
# From -- ./inp_files/48756.got.cif
#   From: 2010.03.12/outbox.cif.g09.slc.cpg/sg74_25_cif.got.tgz:48756.got - 2010.04.16 15:46:19.
