data_PCOD8297544
_publ_section_title
;
Structure prediction by ZEFSAII (Michael W. Deem and Ramdas Pophale) SiO2 
 PCOD8297544
Probable space group: I M M A
;
_chemical_formula_sum "Si O2"
_cell_formula_units_Z 80
_cell_length_a 9.987530
_cell_length_b 19.258719
_cell_length_c 29.720747
_cell_angle_alpha 90.000000
_cell_angle_beta 90.000000
_cell_angle_gamma 90.000000
_cell_volume 5716.697527
_symmetry_space_group_name_H-M "I M M A"
_symmetry_group_IT_number 74
_symmetry_cell_setting 'orthorhombic'
loop_
_space_group_symop_operation_xyz
x,y,z
-x,1/2-y,z
x,-y,-z
-x,1/2+y,-z
-x,-y,-z
x,1/2+y,-z
-x,y,z
x,1/2-y,z
1/2+x,1/2+y,1/2+z
1/2-x,-y,1/2+z
1/2+x,1/2-y,1/2-z
1/2-x,y,1/2-z
1/2-x,1/2-y,1/2-z
1/2+x,y,1/2-z
1/2-x,1/2+y,1/2+z
1/2+x,-y,1/2+z
loop_
_atom_site_type_symbol
_atom_site_label
_atom_site_fract_x
_atom_site_fract_y
_atom_site_fract_z
Si Si1 0.741326 0.875835 0.855431
Si Si2 0.844692 0.250000 0.997690
Si Si3 0.500000 0.332013 0.199717
Si Si4 0.159475 0.469516 0.071405
Si Si5 0.654551 0.900873 0.480085
Si Si6 0.660420 0.750000 0.916887
Si Si7 0.500000 0.670673 0.693814
O O1 0.624118 0.875727 0.818958
O O2 0.759188 0.946834 0.883915
O O3 0.712047 0.816450 0.890941
O O4 0.872671 0.865869 0.826495
O O5 0.818992 0.180205 0.968280
O O6 0.000000 0.250000 0.015740
O O7 0.735030 0.250000 0.036007
O O8 0.500000 0.250000 0.183836
O O9 0.500000 0.336039 0.252832
O O10 0.209862 0.547863 0.058931
O O11 0.000000 0.463339 0.080603
O O12 0.206961 0.419774 0.030077
O O13 0.500000 0.919338 0.481798
O O14 0.500000 0.750000 0.923540
O O15 0.500000 0.750000 0.678719
#
# Coordination Sequence:
#
# PCOD8297544 Si02
#       7
#    16   8   8  16  16   8   8
#     4  12  19  31  46  60  82 115 150 177 216 256
#     4  10  18  28  50  65  83 115 152 181 207 253
#     4  11  22  36  40  59  90 113 135 188 235 243
#     4   9  16  26  42  64  87 108 139 182 213 241
#     4   8  15  25  40  67  90 104 136 183 216 236
#     4  12  22  30  39  64  91 117 146 185 219 245
#     4  11  22  30  48  63  78 107 151 188 213 261
#
# _framework density 13.994094
#
# number of rings (size 3 to 8) (size 9 to 14) (size 15 to 20)
#    0.000    1.800    6.000    1.800    1.400    1.600 
#    0.000    0.000    2.200    2.400    0.000    0.000 
#    0.000    0.000    0.000    5.400    0.000    0.100 
#
# Total GULP energy -495539.787760 kJ/mol
# GULP energy per Si atom -12388.494694 kJ/mol
# Density = 1.396224 g / cm^3
# Si number density = 13.994094 Si / 1000 Ang^3
#
#
#
# Elastic Constant Matrix: (Units=GPa)
#
#
# Indices 1 2 3 4 5 6 
#
# 1 77.0192 25.4845 35.4539 0.0000 0.0000 0.0000
# 2 25.4845 98.8939 40.4614 0.0000 0.0000 0.0000
# 3 35.4539 40.4614 66.2551 0.0000 0.0000 0.0000
# 4 0.0000 0.0000 0.0000 26.3409 0.0000 0.0000
# 5 0.0000 0.0000 0.0000 0.0000 -7.5422 0.0000
# 6 0.0000 0.0000 0.0000 0.0000 0.0000 11.0903
#
#
#
# Elastic Compliance Matrix: (Units=1/GPa)
#
#
# Indices 1 2 3 4 5 6 
#
# 1 0.017286 -0.000893 -0.008705 0.000000 0.000000 0.000000
# 2 -0.000893 0.013526 -0.007782 0.000000 0.000000 0.000000
# 3 -0.008705 -0.007782 0.024504 0.000000 0.000000 0.000000
# 4 0.000000 0.000000 0.000000 0.037964 0.000000 0.000000
# 5 0.000000 0.000000 0.000000 0.000000 -0.132588 0.000000
# 6 0.000000 0.000000 0.000000 0.000000 0.000000 0.090169
#
#
# Mechanical properties :
#
#
# Convention : Reuss Voigt Hill
#
# Bulk Modulus (GPa) = 48.64800 49.44086 49.04443
# Shear Modulus (GPa) = 54.06988 15.36237 34.71613
#
# Velocity S-wave (km/s) = 6.22266 3.31686 4.98614
# Velocity P-wave (km/s) = 9.29878 7.07639 8.26265
#
# Compressibility (1/GPa) = 0.02055583
#
# Stress axis : x y z
#
# Youngs Moduli (GPa) = 57.84940 73.93133 40.81018
#
# Poissons Ratio (x) = 0.06603 0.35524
# Poissons Ratio (y) = 0.05167 0.31760
# Poissons Ratio (z) = 0.50356 0.57536
#
# Static dielectric constant tensor:
#      x y z
#    x 2.722860 0.000000 0.000000 
#    y 0.000000 2.805080 0.000000 
#    z 0.000000 0.000000 2.676640 
# 
# 
# High freq. dielectric constant tensor:
#      x y z
#    x 1.522710 0.000000 0.000000 
#    y 0.000000 1.516090 0.000000 
#    z 0.000000 0.000000 1.512880 
# 
# From -- ./inp_files/70421.got.cif
#   From: 2010.03.12/outbox.cif.g09.slc.cpg/sg74_36_cif.got.tgz:70421.got - 2010.04.16 15:46:19.
