data_PCOD8297927
_publ_section_title
;
Structure prediction by ZEFSAII (Michael W. Deem and Ramdas Pophale) SiO2 
 PCOD8297927
Probable space group: I M M A
;
_chemical_formula_sum "Si O2"
_cell_formula_units_Z 64
_cell_length_a 8.949903
_cell_length_b 9.723058
_cell_length_c 38.549388
_cell_angle_alpha 90.000000
_cell_angle_beta 90.000000
_cell_angle_gamma 90.000000
_cell_volume 3354.584164
_symmetry_space_group_name_H-M "I M M A"
_symmetry_group_IT_number 74
_symmetry_cell_setting 'orthorhombic'
loop_
_space_group_symop_operation_xyz
x,y,z
-x,1/2-y,z
x,-y,-z
-x,1/2+y,-z
-x,-y,-z
x,1/2+y,-z
-x,y,z
x,1/2-y,z
1/2+x,1/2+y,1/2+z
1/2-x,-y,1/2+z
1/2+x,1/2-y,1/2-z
1/2-x,y,1/2-z
1/2-x,1/2-y,1/2-z
1/2+x,y,1/2-z
1/2-x,1/2+y,1/2+z
1/2+x,-y,1/2+z
loop_
_atom_site_type_symbol
_atom_site_label
_atom_site_fract_x
_atom_site_fract_y
_atom_site_fract_z
Si Si1 0.822108 0.591084 0.907265
Si Si2 0.176435 0.250000 0.213460
Si Si3 0.322883 0.995385 0.667774
Si Si4 0.175177 0.589101 0.466357
Si Si5 0.321925 0.250000 0.711826
O O1 0.766979 0.750000 0.912442
O O2 0.760531 0.529696 0.870916
O O3 0.760055 0.486009 0.935443
O O4 0.000000 0.588685 0.908668
O O5 0.250000 0.250000 0.250000
O O6 0.237330 0.377176 0.192219
O O7 0.000000 0.250000 0.217746
O O8 0.500000 0.996884 0.665257
O O9 0.262823 0.128022 0.687595
O O10 0.217730 0.500000 0.500000
O O11 0.225747 0.750000 0.470303
O O12 0.000000 0.582427 0.458908
O O13 0.500000 0.250000 0.717018
O O14 0.250000 0.250000 0.750000
#
# Coordination Sequence:
#
# PCOD8297927 Si02
#       5
#    16   8  16  16   8
#     4  10  20  36  59  86 114 146 188 234 277 326
#     4  10  18  32  52  74 103 136 177 223 268 321
#     4   9  18  33  53  76 104 141 180 221 273 328
#     4  10  22  40  61  85 115 151 186 222 272 331
#     4  10  20  34  52  74 103 140 181 225 276 329
#
# _framework density 19.07837
#
# number of rings (size 3 to 8) (size 9 to 14) (size 15 to 20)
#    0.000    2.250    1.250    1.500    1.750    2.500 
#    0.000    2.500    0.000    0.000    0.000    0.000 
#    0.000    0.000    0.000    0.000    0.000    0.000 
#
# Total GULP energy -396510.035483 kJ/mol
# GULP energy per Si atom -12390.938609 kJ/mol
# Density = 1.903495 g / cm^3
# Si number density = 19.078370 Si / 1000 Ang^3
#
#
#
# Elastic Constant Matrix: (Units=GPa)
#
#
# Indices 1 2 3 4 5 6 
#
# 1 22.7365 30.9806 36.9027 0.0000 0.0000 0.0000
# 2 30.9806 204.8056 105.0896 0.0000 0.0000 0.0000
# 3 36.9027 105.0896 182.7692 0.0000 0.0000 0.0000
# 4 0.0000 0.0000 0.0000 35.8411 0.0000 0.0000
# 5 0.0000 0.0000 0.0000 0.0000 33.9736 0.0000
# 6 0.0000 0.0000 0.0000 0.0000 0.0000 31.6337
#
#
#
# Elastic Compliance Matrix: (Units=1/GPa)
#
#
# Indices 1 2 3 4 5 6 
#
# 1 0.068374 -0.004623 -0.011147 0.000000 0.000000 0.000000
# 2 -0.004623 0.007239 -0.003229 0.000000 0.000000 0.000000
# 3 -0.011147 -0.003229 0.009579 0.000000 0.000000 0.000000
# 4 0.000000 0.000000 0.000000 0.027901 0.000000 0.000000
# 5 0.000000 0.000000 0.000000 0.000000 0.029435 0.000000
# 6 0.000000 0.000000 0.000000 0.000000 0.000000 0.031612
#
#
# Mechanical properties :
#
#
# Convention : Reuss Voigt Hill
#
# Bulk Modulus (GPa) = 21.18934 84.02856 52.60895
# Shear Modulus (GPa) = 21.94256 36.11223 29.02739
#
# Velocity S-wave (km/s) = 3.39503 4.35539 3.90485
# Velocity P-wave (km/s) = 5.14771 8.33259 6.92571
#
# Compressibility (1/GPa) = 0.04719354
#
# Stress axis : x y z
#
# Youngs Moduli (GPa) = 14.62543 138.14595 104.39985
#
# Poissons Ratio (x) = 0.63865 1.16376
# Poissons Ratio (y) = 0.06761 0.33708
# Poissons Ratio (z) = 0.16303 0.44604
#
# Static dielectric constant tensor:
#      x y z
#    x 3.102320 0.000000 0.000000 
#    y 0.000000 3.989350 0.000000 
#    z 0.000000 0.000000 3.679880 
# 
# 
# High freq. dielectric constant tensor:
#      x y z
#    x 1.700560 0.000000 0.000000 
#    y 0.000000 1.764210 0.000000 
#    z 0.000000 0.000000 1.760600 
# 
# From -- ./inp_files/71296.got.cif
#   From: 2010.03.12/outbox.cif.g09.slc.cpg/sg74_36_cif.got.tgz:71296.got - 2010.04.16 15:46:19.
