data_PCOD8297673
_publ_section_title
;
Structure prediction by ZEFSAII (Michael W. Deem and Ramdas Pophale) SiO2 
 PCOD8297673
Probable space group: I M M A
;
_chemical_formula_sum "Si O2"
_cell_formula_units_Z 56
_cell_length_a 8.465343
_cell_length_b 13.984749
_cell_length_c 24.019834
_cell_angle_alpha 90.000000
_cell_angle_beta 90.000000
_cell_angle_gamma 90.000000
_cell_volume 2843.604791
_symmetry_space_group_name_H-M "I M M A"
_symmetry_group_IT_number 74
_symmetry_cell_setting 'orthorhombic'
loop_
_space_group_symop_operation_xyz
x,y,z
-x,1/2-y,z
x,-y,-z
-x,1/2+y,-z
-x,-y,-z
x,1/2+y,-z
-x,y,z
x,1/2-y,z
1/2+x,1/2+y,1/2+z
1/2-x,-y,1/2+z
1/2+x,1/2-y,1/2-z
1/2-x,y,1/2-z
1/2-x,1/2-y,1/2-z
1/2+x,y,1/2-z
1/2-x,1/2+y,1/2+z
1/2+x,-y,1/2+z
loop_
_atom_site_type_symbol
_atom_site_label
_atom_site_fract_x
_atom_site_fract_y
_atom_site_fract_z
Si Si1 0.184509 0.359597 0.513490
Si Si2 0.813776 0.552272 0.311873
Si Si3 0.812482 0.250000 0.812089
Si Si4 0.315733 0.471792 0.416889
O O1 0.232896 0.250000 0.523768
O O2 0.224602 0.388391 0.449955
O O3 0.285011 0.425460 0.554748
O O4 0.000000 0.376710 0.524795
O O5 0.750000 0.533920 0.250000
O O6 0.755580 0.653153 0.338921
O O7 0.748238 0.471312 0.353450
O O8 0.000000 0.550573 0.309656
O O9 0.750000 0.250000 0.750000
O O10 0.000000 0.250000 0.814466
O O11 0.500000 0.449082 0.417138
#
# Coordination Sequence:
#
# PCOD8297673 Si02
#       4
#    16  16   8  16
#     4  10  21  38  59  82 110 144 184 229 278 326
#     4  11  21  35  53  76 109 145 183 224 272 325
#     4  10  18  30  46  70 102 138 178 216 261 316
#     4  11  22  36  56  83 113 145 185 227 273 328
#
# _framework density 19.693313
#
# number of rings (size 3 to 8) (size 9 to 14) (size 15 to 20)
#    0.000    1.429    0.000   10.714    2.000    2.286 
#    0.000    0.000    0.000    0.857    0.000    0.000 
#    0.000    0.000    0.000    0.000    0.000    0.000 
#
# Total GULP energy -347197.341851 kJ/mol
# GULP energy per Si atom -12399.905066 kJ/mol
# Density = 1.964849 g / cm^3
# Si number density = 19.693313 Si / 1000 Ang^3
#
#
#
# Elastic Constant Matrix: (Units=GPa)
#
#
# Indices 1 2 3 4 5 6 
#
# 1 109.5466 8.3181 4.6295 0.0000 0.0000 0.0000
# 2 8.3181 41.9670 -2.2233 0.0000 0.0000 0.0000
# 3 4.6295 -2.2233 73.7493 0.0000 0.0000 0.0000
# 4 0.0000 0.0000 0.0000 26.6564 0.0000 0.0000
# 5 0.0000 0.0000 0.0000 0.0000 34.8078 0.0000
# 6 0.0000 0.0000 0.0000 0.0000 0.0000 24.5912
#
#
#
# Elastic Compliance Matrix: (Units=1/GPa)
#
#
# Indices 1 2 3 4 5 6 
#
# 1 0.009298 -0.001877 -0.000640 0.000000 0.000000 0.000000
# 2 -0.001877 0.024245 0.000849 0.000000 0.000000 0.000000
# 3 -0.000640 0.000849 0.013625 0.000000 0.000000 0.000000
# 4 0.000000 0.000000 0.000000 0.037514 0.000000 0.000000
# 5 0.000000 0.000000 0.000000 0.000000 0.028729 0.000000
# 6 0.000000 0.000000 0.000000 0.000000 0.000000 0.040665
#
#
# Mechanical properties :
#
#
# Convention : Reuss Voigt Hill
#
# Bulk Modulus (GPa) = 22.81450 27.41240 25.11345
# Shear Modulus (GPa) = 29.06563 31.51366 30.28964
#
# Velocity S-wave (km/s) = 3.84593 4.00462 3.92607
# Velocity P-wave (km/s) = 5.59746 5.94411 5.77339
#
# Compressibility (1/GPa) = 0.04383178
#
# Stress axis : x y z
#
# Youngs Moduli (GPa) = 107.54881 41.24521 73.39331
#
# Poissons Ratio (x) = 0.07741 0.04699
# Poissons Ratio (y) = 0.20185 -0.06229
# Poissons Ratio (z) = 0.06886 -0.03501
#
# Static dielectric constant tensor:
#      x y z
#    x 3.623730 0.000000 0.000000 
#    y 0.000000 3.566610 0.000000 
#    z 0.000000 0.000000 5.367980 
# 
# 
# High freq. dielectric constant tensor:
#      x y z
#    x 1.786170 0.000000 0.000000 
#    y 0.000000 1.731920 0.000000 
#    z 0.000000 0.000000 1.772190 
# 
# From -- ./inp_files/56276.got.cif
#   From: 2010.03.12/outbox.cif.g09.slc.cpg/sg74_29_cif.got.tgz:56276.got - 2010.04.16 15:46:19.
