data_PCOD8297551
_publ_section_title
;
Structure prediction by ZEFSAII (Michael W. Deem and Ramdas Pophale) SiO2 
 PCOD8297551
Probable space group: I M M A
;
_chemical_formula_sum "Si O2"
_cell_formula_units_Z 72
_cell_length_a 8.824489
_cell_length_b 31.706614
_cell_length_c 18.398038
_cell_angle_alpha 90.000000
_cell_angle_beta 90.000000
_cell_angle_gamma 90.000000
_cell_volume 5147.672906
_symmetry_space_group_name_H-M "I M M A"
_symmetry_group_IT_number 74
_symmetry_cell_setting 'orthorhombic'
loop_
_space_group_symop_operation_xyz
x,y,z
-x,1/2-y,z
x,-y,-z
-x,1/2+y,-z
-x,-y,-z
x,1/2+y,-z
-x,y,z
x,1/2-y,z
1/2+x,1/2+y,1/2+z
1/2-x,-y,1/2+z
1/2+x,1/2-y,1/2-z
1/2-x,y,1/2-z
1/2-x,1/2-y,1/2-z
1/2+x,y,1/2-z
1/2-x,1/2+y,1/2+z
1/2+x,-y,1/2+z
loop_
_atom_site_type_symbol
_atom_site_label
_atom_site_fract_x
_atom_site_fract_y
_atom_site_fract_z
Si Si1 0.821908 0.918805 0.405662
Si Si2 0.326031 0.250000 0.673740
Si Si3 0.320311 0.997674 0.326672
Si Si4 0.833462 0.454769 0.036407
Si Si5 0.320945 0.341482 0.670103
O O1 0.783129 0.926246 0.490870
O O2 0.757618 0.873462 0.384762
O O3 0.000000 0.920308 0.394474
O O4 0.747612 0.953581 0.353759
O O5 0.500000 0.250000 0.692563
O O6 0.250000 0.250000 0.750000
O O7 0.285756 0.294695 0.635220
O O8 0.500000 0.991972 0.321083
O O9 0.250000 0.010264 0.250000
O O10 0.277626 0.036343 0.381129
O O11 0.000000 0.433110 0.035881
O O12 0.847669 0.500000 0.000000
O O13 0.500000 0.350521 0.675063
O O14 0.250000 0.346442 0.750000
#
# Coordination Sequence:
#
# PCOD8297551 Si02
#       5
#    16   8  16  16  16
#     4  11  20  28  40  58  78 102 132 163 195 229
#     4   8  16  28  42  56  72  98 127 158 195 232
#     4  10  19  30  43  58  77 101 130 163 197 230
#     4   8  16  30  43  55  74 100 127 158 196 231
#     4  10  18  29  42  57  77 100 130 164 197 231
#
# _framework density 13.986903
#
# number of rings (size 3 to 8) (size 9 to 14) (size 15 to 20)
#    0.000    2.444    0.000    5.333    0.000    5.778 
#    0.000    0.000    0.000    0.000    0.000    0.000 
#    0.000    0.000    0.000    1.000    0.000   11.778 
#
# Total GULP energy -446048.500847 kJ/mol
# GULP energy per Si atom -12390.236135 kJ/mol
# Density = 1.395507 g / cm^3
# Si number density = 13.986903 Si / 1000 Ang^3
#
#
#
# Elastic Constant Matrix: (Units=GPa)
#
#
# Indices 1 2 3 4 5 6 
#
# 1 90.1119 44.4420 44.0404 0.0001 0.0000 0.0000
# 2 44.4420 82.4287 46.9242 -0.0001 0.0000 0.0000
# 3 44.0404 46.9242 95.2891 -0.0006 -0.0002 0.0002
# 4 0.0001 -0.0001 -0.0006 16.0093 -0.0001 0.0001
# 5 0.0000 0.0000 -0.0002 -0.0001 20.2024 0.0000
# 6 0.0000 0.0000 0.0002 0.0001 0.0000 14.5868
#
#
#
# Elastic Compliance Matrix: (Units=1/GPa)
#
#
# Indices 1 2 3 4 5 6 
#
# 1 0.016386 -0.006285 -0.004478 0.000000 0.000000 0.000000
# 2 -0.006285 0.019268 -0.006584 0.000000 0.000000 0.000000
# 3 -0.004478 -0.006584 0.015806 0.000001 0.000000 0.000000
# 4 0.000000 0.000000 0.000001 0.062464 0.000000 0.000000
# 5 0.000000 0.000000 0.000000 0.000000 0.049499 0.000000
# 6 0.000000 0.000000 0.000000 0.000000 0.000000 0.068555
#
#
# Mechanical properties :
#
#
# Convention : Reuss Voigt Hill
#
# Bulk Modulus (GPa) = 59.64333 59.84924 59.74629
# Shear Modulus (GPa) = 18.36481 18.98792 18.67636
#
# Velocity S-wave (km/s) = 3.62747 3.68849 3.65811
# Velocity P-wave (km/s) = 7.76399 7.81168 7.78787
#
# Compressibility (1/GPa) = 0.01676633
#
# Stress axis : x y z
#
# Youngs Moduli (GPa) = 61.02907 51.89879 63.26710
#
# Poissons Ratio (x) = 0.32620 0.28331
# Poissons Ratio (y) = 0.38358 0.41652
# Poissons Ratio (z) = 0.27328 0.34168
#
# Static dielectric constant tensor:
#      x y z
#    x 2.880270 0.000000 0.000000 
#    y 0.000000 2.542700 0.000000 
#    z 0.000000 0.000000 2.815420 
# 
# 
# High freq. dielectric constant tensor:
#      x y z
#    x 1.549870 0.000000 0.000000 
#    y 0.000000 1.509140 0.000000 
#    z 0.000000 0.000000 1.508410 
# 
# From -- ./inp_files/39604.got.cif
#   From: 2010.03.12/outbox.cif.g09.slc.cpg/sg74_20_cif.got.tgz:39604.got - 2010.04.16 15:46:19.
