data_PCOD8297722
_publ_section_title
;
Structure prediction by ZEFSAII (Michael W. Deem and Ramdas Pophale) SiO2 
 PCOD8297722
Probable space group: I M M A
;
_chemical_formula_sum "Si O2"
_cell_formula_units_Z 96
_cell_length_a 14.141982
_cell_length_b 22.808425
_cell_length_c 17.170207
_cell_angle_alpha 90.000000
_cell_angle_beta 90.000000
_cell_angle_gamma 90.000000
_cell_volume 5538.359055
_symmetry_space_group_name_H-M "I M M A"
_symmetry_group_IT_number 74
_symmetry_cell_setting 'orthorhombic'
loop_
_space_group_symop_operation_xyz
x,y,z
-x,1/2-y,z
x,-y,-z
-x,1/2+y,-z
-x,-y,-z
x,1/2+y,-z
-x,y,z
x,1/2-y,z
1/2+x,1/2+y,1/2+z
1/2-x,-y,1/2+z
1/2+x,1/2-y,1/2-z
1/2-x,y,1/2-z
1/2-x,1/2-y,1/2-z
1/2+x,y,1/2-z
1/2-x,1/2+y,1/2+z
1/2+x,-y,1/2+z
loop_
_atom_site_type_symbol
_atom_site_label
_atom_site_fract_x
_atom_site_fract_y
_atom_site_fract_z
Si Si1 0.391983 0.317437 0.985983
Si Si2 0.892729 0.581711 0.375001
Si Si3 0.239856 0.003330 0.917445
Si Si4 0.393320 0.523228 0.283626
Si Si5 0.108009 0.115314 0.225076
Si Si6 0.781841 0.626182 0.625757
O O1 0.500000 0.327271 0.016773
O O2 0.371872 0.250000 0.967731
O O3 0.379947 0.350904 0.902789
O O4 0.314810 0.338576 0.049489
O O5 0.830296 0.544117 0.434266
O O6 0.859140 0.565616 0.286932
O O7 0.000000 0.560555 0.383482
O O8 0.171398 0.036557 0.857630
O O9 0.282035 0.942700 0.888313
O O10 0.184945 0.000000 0.000000
O O11 0.500000 0.538898 0.306647
O O12 0.382549 0.454648 0.263833
O O13 0.144323 0.142833 0.305998
O O14 0.173904 0.140245 0.154568
O O15 0.000000 0.134236 0.208188
#
# Coordination Sequence:
#
# PCOD8297722 Si02
#       6
#    16  16  16  16  16  16
#     4  10  21  35  51  73 101 134 174 219 261 300
#     4  10  19  31  50  74 102 134 167 207 255 308
#     4  11  19  29  48  78 106 131 162 208 256 313
#     4   9  18  31  48  72 105 139 165 198 250 310
#     4   9  17  29  47  73 106 137 167 203 253 314
#     4  10  18  30  49  74 102 137 167 206 261 312
#
# _framework density 17.333653999999999
#
# number of rings (size 3 to 8) (size 9 to 14) (size 15 to 20)
#    0.000    2.167    3.333    1.000    0.000    1.333 
#    0.000    1.667    0.000    3.500    0.000    0.000 
#    0.000    0.000    0.000    0.000    0.000    0.000 
#
# Total GULP energy -594690.009699 kJ/mol
# GULP energy per Si atom -12389.375202 kJ/mol
# Density = 1.729420 g / cm^3
# Si number density = 17.333654 Si / 1000 Ang^3
#
#
#
# Elastic Constant Matrix: (Units=GPa)
#
#
# Indices 1 2 3 4 5 6 
#
# 1 103.1461 33.9799 60.3542 0.0000 0.0000 0.0000
# 2 33.9799 64.2364 36.5224 0.0000 0.0000 0.0000
# 3 60.3542 36.5224 120.5868 -0.0001 -0.0001 0.0000
# 4 0.0000 0.0000 -0.0001 18.8046 0.0000 0.0000
# 5 0.0000 0.0000 -0.0001 0.0000 23.0439 0.0000
# 6 0.0000 0.0000 0.0000 0.0000 0.0000 13.5576
#
#
#
# Elastic Compliance Matrix: (Units=1/GPa)
#
#
# Indices 1 2 3 4 5 6 
#
# 1 0.014641 -0.004323 -0.006018 0.000000 0.000000 0.000000
# 2 -0.004323 0.020082 -0.003919 0.000000 0.000000 0.000000
# 3 -0.006018 -0.003919 0.012492 0.000000 0.000000 0.000000
# 4 0.000000 0.000000 0.000000 0.053178 0.000000 0.000000
# 5 0.000000 0.000000 0.000000 0.000000 0.043395 0.000000
# 6 0.000000 0.000000 0.000000 0.000000 0.000000 0.073759
#
#
# Mechanical properties :
#
#
# Convention : Reuss Voigt Hill
#
# Bulk Modulus (GPa) = 53.49085 61.07582 57.28333
# Shear Modulus (GPa) = 19.81771 21.55542 20.68656
#
# Velocity S-wave (km/s) = 3.38495 3.53024 3.45836
# Velocity P-wave (km/s) = 6.79733 7.20616 7.00473
#
# Compressibility (1/GPa) = 0.01869479
#
# Stress axis : x y z
#
# Youngs Moduli (GPa) = 68.30289 49.79525 80.05167
#
# Poissons Ratio (x) = 0.21525 0.48179
# Poissons Ratio (y) = 0.29526 0.31370
# Poissons Ratio (z) = 0.41108 0.19514
#
# Static dielectric constant tensor:
#      x y z
#    x 3.455940 0.000000 0.000000 
#    y 0.000000 2.903540 0.000000 
#    z 0.000000 0.000000 3.303000 
# 
# 
# High freq. dielectric constant tensor:
#      x y z
#    x 1.674790 0.000000 0.000000 
#    y 0.000000 1.625630 0.000000 
#    z 0.000000 0.000000 1.666190 
# 
# From -- ./inp_files/32382.got.cif
#   From: 2010.03.12/outbox.cif.g09.slc.cpg/sg74_17_cif.got.tgz:32382.got - 2010.04.16 15:46:19.
