data_PCOD8297648
_publ_section_title
;
Structure prediction by ZEFSAII (Michael W. Deem and Ramdas Pophale) SiO2 
 PCOD8297648
Probable space group: I M M A
;
_chemical_formula_sum "Si O2"
_cell_formula_units_Z 72
_cell_length_a 8.695152
_cell_length_b 17.543369
_cell_length_c 28.053872
_cell_angle_alpha 90.000000
_cell_angle_beta 90.000000
_cell_angle_gamma 90.000000
_cell_volume 4279.401038
_symmetry_space_group_name_H-M "I M M A"
_symmetry_group_IT_number 74
_symmetry_cell_setting 'orthorhombic'
loop_
_space_group_symop_operation_xyz
x,y,z
-x,1/2-y,z
x,-y,-z
-x,1/2+y,-z
-x,-y,-z
x,1/2+y,-z
-x,y,z
x,1/2-y,z
1/2+x,1/2+y,1/2+z
1/2-x,-y,1/2+z
1/2+x,1/2-y,1/2-z
1/2-x,y,1/2-z
1/2-x,1/2-y,1/2-z
1/2+x,y,1/2-z
1/2-x,1/2+y,1/2+z
1/2+x,-y,1/2+z
loop_
_atom_site_type_symbol
_atom_site_label
_atom_site_fract_x
_atom_site_fract_y
_atom_site_fract_z
Si Si1 0.330560 0.933510 0.961484
Si Si2 0.816776 0.250000 0.802654
Si Si3 0.818589 0.662994 0.454026
Si Si4 0.178453 0.534057 0.110404
Si Si5 0.818797 0.595252 0.301869
O O1 0.500000 0.921675 0.939083
O O2 0.215649 0.956769 0.918975
O O3 0.277879 0.858137 0.990690
O O4 0.336324 0.000000 0.000000
O O5 0.750000 0.250000 0.750000
O O6 0.750416 0.327142 0.825797
O O7 0.000000 0.250000 0.803482
O O8 0.769305 0.750000 0.444772
O O9 0.724932 0.609385 0.418609
O O10 0.000000 0.649981 0.445054
O O11 0.270613 0.530053 0.160586
O O12 0.000000 0.536529 0.122053
O O13 0.750000 0.577068 0.250000
O O14 0.000000 0.602484 0.296655
#
# Coordination Sequence:
#
# PCOD8297648 Si02
#       5
#    16   8  16  16  16
#     4   8  15  30  48  65  87 117 150 185 227 274
#     4  10  18  30  44  60  82 110 144 182 224 262
#     4   9  18  32  49  68  91 119 153 190 229 273
#     4  11  21  31  45  66  92 122 155 190 227 271
#     4  11  21  34  48  63  86 117 152 191 229 267
#
# _framework density 16.824784999999999
#
# number of rings (size 3 to 8) (size 9 to 14) (size 15 to 20)
#    0.000    2.222    0.000    7.667    1.556    4.444 
#    0.000    0.000    0.000    0.000    0.000    0.000 
#    0.000    0.889    0.000    2.444    0.000    3.556 
#
# Total GULP energy -446174.121619 kJ/mol
# GULP energy per Si atom -12393.725601 kJ/mol
# Density = 1.678649 g / cm^3
# Si number density = 16.824785 Si / 1000 Ang^3
#
#
#
# Elastic Constant Matrix: (Units=GPa)
#
#
# Indices 1 2 3 4 5 6 
#
# 1 119.8480 10.0958 38.2817 0.0000 0.0000 0.0000
# 2 10.0958 20.7762 14.0029 0.0000 0.0000 0.0000
# 3 38.2817 14.0029 81.6921 0.0000 0.0000 0.0000
# 4 0.0000 0.0000 0.0000 22.7842 0.0000 0.0000
# 5 0.0000 0.0000 0.0000 0.0000 27.8512 0.0000
# 6 0.0000 0.0000 0.0000 0.0000 0.0000 16.5663
#
#
#
# Elastic Compliance Matrix: (Units=1/GPa)
#
#
# Indices 1 2 3 4 5 6 
#
# 1 0.009879 -0.001900 -0.004304 0.000000 0.000000 0.000000
# 2 -0.001900 0.054784 -0.008500 0.000000 0.000000 0.000000
# 3 -0.004304 -0.008500 0.015715 0.000000 0.000000 0.000000
# 4 0.000000 0.000000 0.000000 0.043890 0.000000 0.000000
# 5 0.000000 0.000000 0.000000 0.000000 0.035905 0.000000
# 6 0.000000 0.000000 0.000000 0.000000 0.000000 0.060364
#
#
# Mechanical properties :
#
#
# Convention : Reuss Voigt Hill
#
# Bulk Modulus (GPa) = 19.61929 38.56414 29.09172
# Shear Modulus (GPa) = 18.73124 24.10273 21.41698
#
# Velocity S-wave (km/s) = 3.34025 3.78904 3.57170
# Velocity P-wave (km/s) = 5.15390 6.48947 5.85986
#
# Compressibility (1/GPa) = 0.05097024
#
# Stress axis : x y z
#
# Youngs Moduli (GPa) = 101.22916 18.25343 63.63415
#
# Poissons Ratio (x) = 0.03468 0.27385
# Poissons Ratio (y) = 0.19231 0.54091
# Poissons Ratio (z) = 0.43565 0.15516
#
# Static dielectric constant tensor:
#      x y z
#    x 3.120770 0.000000 0.000000 
#    y 0.000000 3.365230 0.000000 
#    z 0.000000 0.000000 3.195350 
# 
# 
# High freq. dielectric constant tensor:
#      x y z
#    x 1.654330 0.000000 0.000000 
#    y 0.000000 1.601470 0.000000 
#    z 0.000000 0.000000 1.641020 
# 
# From -- ./inp_files/56815.got.cif
#   From: 2010.03.12/outbox.cif.g09.slc.cpg/sg74_29_cif.got.tgz:56815.got - 2010.04.16 15:46:19.
