data_PCOD8297228
_publ_section_title
;
Structure prediction by ZEFSAII (Michael W. Deem and Ramdas Pophale) SiO2 
 PCOD8297228
Probable space group: I M M A
;
_chemical_formula_sum "Si O2"
_cell_formula_units_Z 96
_cell_length_a 33.933073
_cell_length_b 7.941801
_cell_length_c 29.732463
_cell_angle_alpha 90.000000
_cell_angle_beta 90.000000
_cell_angle_gamma 90.000000
_cell_volume 8012.592923
_symmetry_space_group_name_H-M "I M M A"
_symmetry_group_IT_number 74
_symmetry_cell_setting 'orthorhombic'
loop_
_space_group_symop_operation_xyz
x,y,z
-x,1/2-y,z
x,-y,-z
-x,1/2+y,-z
-x,-y,-z
x,1/2+y,-z
-x,y,z
x,1/2-y,z
1/2+x,1/2+y,1/2+z
1/2-x,-y,1/2+z
1/2+x,1/2-y,1/2-z
1/2-x,y,1/2-z
1/2-x,1/2-y,1/2-z
1/2+x,y,1/2-z
1/2-x,1/2+y,1/2+z
1/2+x,-y,1/2+z
loop_
_atom_site_type_symbol
_atom_site_label
_atom_site_fract_x
_atom_site_fract_y
_atom_site_fract_z
Si Si1 0.686386 0.250000 0.264747
Si Si2 0.239515 0.063191 0.869430
Si Si3 0.766222 0.750000 0.678289
Si Si4 0.043752 0.550994 0.950468
Si Si5 0.339498 0.934131 0.312168
Si Si6 0.115491 0.056959 0.106294
Si Si7 0.313366 0.444513 0.550039
O O1 0.725407 0.250000 0.294857
O O2 0.697011 0.250000 0.212186
O O3 0.660586 0.417296 0.275135
O O4 0.259372 0.250000 0.866893
O O5 0.201366 0.061361 0.838268
O O6 0.225718 0.021302 0.920162
O O7 0.269342 0.918166 0.852469
O O8 0.043183 0.750000 0.947387
O O9 0.075171 0.479973 0.914451
O O10 0.000000 0.476975 0.940421
O O11 0.057921 0.500000 0.000000
O O12 0.344934 0.750000 0.289015
O O13 0.374397 0.956529 0.348369
O O14 0.109969 0.250000 0.120057
O O15 0.149782 0.048543 0.068944
O O16 0.302827 0.500000 0.500000
O O17 0.325323 0.250000 0.552438
#
# Coordination Sequence:
#
# PCOD8297228 Si02
#       7
#     8  16   8  16  16  16  16
#     4   9  16  26  36  56  65  82 108 120 155 188
#     4   8  16  26  34  48  66  85 105 128 156 184
#     4   9  16  24  40  48  66  88 102 126 150 193
#     4   9  18  29  38  49  65  84 107 136 165 198
#     4   9  16  26  38  51  69  83 100 129 155 190
#     4  10  17  26  39  50  65  85 105 133 168 203
#     4  10  19  26  35  50  65  83 109 137 164 196
#
# _framework density 11.98114
#
# number of rings (size 3 to 8) (size 9 to 14) (size 15 to 20)
#    0.000    2.833    0.833    2.500    4.667    3.333 
#    0.000    3.333    0.000    0.000    0.000    0.000 
#    0.000    0.000    0.000    0.000    0.000    0.000 
#
# Total GULP energy -594904.623470 kJ/mol
# GULP energy per Si atom -12393.846322 kJ/mol
# Density = 1.195387 g / cm^3
# Si number density = 11.981140 Si / 1000 Ang^3
#
#
#
# Elastic Constant Matrix: (Units=GPa)
#
#
# Indices 1 2 3 4 5 6 
#
# 1 34.9981 25.5735 32.1387 0.0000 0.0000 0.0000
# 2 25.5735 77.5265 32.5136 0.0000 0.0000 0.0000
# 3 32.1387 32.5136 51.7802 0.0000 0.0000 0.0000
# 4 0.0000 0.0000 0.0000 15.8943 0.0000 0.0000
# 5 0.0000 0.0000 0.0000 0.0000 7.0602 0.0000
# 6 0.0000 0.0000 0.0000 0.0000 0.0000 8.0508
#
#
#
# Elastic Compliance Matrix: (Units=1/GPa)
#
#
# Indices 1 2 3 4 5 6 
#
# 1 0.068770 -0.006494 -0.038606 0.000000 0.000000 0.000000
# 2 -0.006494 0.018123 -0.007349 0.000000 0.000000 0.000000
# 3 -0.038606 -0.007349 0.047889 0.000000 0.000000 0.000000
# 4 0.000000 0.000000 0.000000 0.062916 0.000000 0.000000
# 5 0.000000 0.000000 0.000000 0.000000 0.141640 0.000000
# 6 0.000000 0.000000 0.000000 0.000000 0.000000 0.124212
#
#
# Mechanical properties :
#
#
# Convention : Reuss Voigt Hill
#
# Bulk Modulus (GPa) = 33.46325 38.30624 35.88474
# Shear Modulus (GPa) = 8.64439 11.13964 9.89202
#
# Velocity S-wave (km/s) = 2.68899 3.05251 2.87650
# Velocity P-wave (km/s) = 6.13445 6.66823 6.40690
#
# Compressibility (1/GPa) = 0.02988353
#
# Stress axis : x y z
#
# Youngs Moduli (GPa) = 14.54112 55.17822 20.88168
#
# Poissons Ratio (x) = 0.35834 0.80616
# Poissons Ratio (y) = 0.09443 0.15346
# Poissons Ratio (z) = 0.56138 0.40550
#
# Static dielectric constant tensor:
#      x y z
#    x 2.273530 0.000000 0.000000 
#    y 0.000000 2.737040 0.000000 
#    z 0.000000 0.000000 2.421860 
# 
# 
# High freq. dielectric constant tensor:
#      x y z
#    x 1.396530 0.000000 0.000000 
#    y 0.000000 1.474480 0.000000 
#    z 0.000000 0.000000 1.426320 
# 
# From -- ./inp_files/74004.got.cif
#   From: 2010.03.12/outbox.cif.g09.slc.cpg/sg74_38_cif.got.tgz:74004.got - 2010.04.16 15:46:19.
