data_PCOD8297401
_publ_section_title
;
Structure prediction by ZEFSAII (Michael W. Deem and Ramdas Pophale) SiO2 
 PCOD8297401
Probable space group: I M M A
;
_chemical_formula_sum "Si O2"
_cell_formula_units_Z 88
_cell_length_a 27.456478
_cell_length_b 8.975294
_cell_length_c 25.677705
_cell_angle_alpha 90.000000
_cell_angle_beta 90.000000
_cell_angle_gamma 90.000000
_cell_volume 6327.755874
_symmetry_space_group_name_H-M "I M M A"
_symmetry_group_IT_number 74
_symmetry_cell_setting 'orthorhombic'
loop_
_space_group_symop_operation_xyz
x,y,z
-x,1/2-y,z
x,-y,-z
-x,1/2+y,-z
-x,-y,-z
x,1/2+y,-z
-x,y,z
x,1/2-y,z
1/2+x,1/2+y,1/2+z
1/2-x,-y,1/2+z
1/2+x,1/2-y,1/2-z
1/2-x,y,1/2-z
1/2-x,1/2-y,1/2-z
1/2+x,y,1/2-z
1/2-x,1/2+y,1/2+z
1/2+x,-y,1/2+z
loop_
_atom_site_type_symbol
_atom_site_label
_atom_site_fract_x
_atom_site_fract_y
_atom_site_fract_z
Si Si1 0.554448 0.079424 0.738079
Si Si2 0.575396 0.073287 0.369357
Si Si3 0.231767 0.416800 0.690996
Si Si4 0.641427 0.582672 0.778541
Si Si5 0.500000 0.428452 0.556308
Si Si6 0.679152 0.915347 0.661132
O O1 0.500000 0.071286 0.761540
O O2 0.569276 0.250000 0.725609
O O3 0.555331 0.984065 0.685484
O O4 0.591582 0.012479 0.780877
O O5 0.565309 0.250000 0.372931
O O6 0.633277 0.038237 0.374896
O O7 0.548424 0.985570 0.414976
O O8 0.219856 0.250000 0.673622
O O9 0.250000 0.424357 0.750000
O O10 0.182519 0.512020 0.684040
O O11 0.274609 0.477284 0.653336
O O12 0.630830 0.750000 0.797659
O O13 0.660597 0.580576 0.720006
O O14 0.500000 0.250000 0.553684
O O15 0.500000 0.500000 0.500000
O O16 0.697010 0.750000 0.646904
#
# Coordination Sequence:
#
# PCOD8297401 Si02
#       6
#    16  16  16  16   8  16
#     4  10  18  26  37  53  71  91 116 147 179 211
#     4  10  19  31  45  58  72  88 110 139 173 216
#     4   9  15  22  33  49  68  88 109 135 165 201
#     4   9  16  24  34  47  66  91 115 140 169 204
#     4  12  24  36  48  60  74  92 114 144 182 224
#     4   8  15  25  37  52  68  87 107 131 164 204
#
# _framework density 13.906984
#
# number of rings (size 3 to 8) (size 9 to 14) (size 15 to 20)
#    0.000    2.545    0.909    4.091    0.000    8.364 
#    0.000    0.000    0.000    0.000    0.000    0.000 
#    0.000    0.000    0.000    0.000    0.000    0.000 
#
# Total GULP energy -545372.215300 kJ/mol
# GULP energy per Si atom -12394.823075 kJ/mol
# Density = 1.387533 g / cm^3
# Si number density = 13.906984 Si / 1000 Ang^3
#
#
#
# Elastic Constant Matrix: (Units=GPa)
#
#
# Indices 1 2 3 4 5 6 
#
# 1 113.9063 64.1075 30.6540 0.0000 0.0000 0.0000
# 2 64.1075 120.6197 20.9350 0.0000 0.0000 0.0000
# 3 30.6540 20.9350 20.4256 0.0000 0.0000 0.0000
# 4 0.0000 0.0000 0.0000 11.8702 0.0000 0.0000
# 5 0.0000 0.0000 0.0000 0.0000 7.7899 0.0000
# 6 0.0000 0.0000 0.0000 0.0000 0.0000 29.4311
#
#
#
# Elastic Compliance Matrix: (Units=1/GPa)
#
#
# Indices 1 2 3 4 5 6 
#
# 1 0.017505 -0.005771 -0.020357 0.000000 0.000000 0.000000
# 2 -0.005771 0.011987 -0.003625 0.000000 0.000000 0.000000
# 3 -0.020357 -0.003625 0.083224 0.000000 0.000000 0.000000
# 4 0.000000 0.000000 0.000000 0.084245 0.000000 0.000000
# 5 0.000000 0.000000 0.000000 0.000000 0.128372 0.000000
# 6 0.000000 0.000000 0.000000 0.000000 0.000000 0.033978
#
#
# Mechanical properties :
#
#
# Convention : Reuss Voigt Hill
#
# Bulk Modulus (GPa) = 18.79305 54.03830 36.41568
# Shear Modulus (GPa) = 11.45336 19.10190 15.27763
#
# Velocity S-wave (km/s) = 2.87290 3.71016 3.31805
# Velocity P-wave (km/s) = 4.95454 7.56935 6.39697
#
# Compressibility (1/GPa) = 0.05321116
#
# Stress axis : x y z
#
# Youngs Moduli (GPa) = 57.12595 83.42567 12.01570
#
# Poissons Ratio (x) = 0.48142 0.24460
# Poissons Ratio (y) = 0.32965 0.04356
# Poissons Ratio (z) = 1.16289 0.30245
#
# Static dielectric constant tensor:
#      x y z
#    x 3.115910 0.000000 0.000000 
#    y 0.000000 2.971810 0.000000 
#    z 0.000000 0.000000 2.136590 
# 
# 
# High freq. dielectric constant tensor:
#      x y z
#    x 1.543630 0.000000 0.000000 
#    y 0.000000 1.552630 0.000000 
#    z 0.000000 0.000000 1.432940 
# 
# From -- ./inp_files/70928.got.cif
#   From: 2010.03.12/outbox.cif.g09.slc.cpg/sg74_36_cif.got.tgz:70928.got - 2010.04.16 15:46:19.
