data_PCOD8297532
_publ_section_title
;
Structure prediction by ZEFSAII (Michael W. Deem and Ramdas Pophale) SiO2 
 PCOD8297532
Probable space group: I M M A
;
_chemical_formula_sum "Si O2"
_cell_formula_units_Z 80
_cell_length_a 9.074973
_cell_length_b 24.992484
_cell_length_c 20.880065
_cell_angle_alpha 90.000000
_cell_angle_beta 90.000000
_cell_angle_gamma 90.000000
_cell_volume 4735.726476
_symmetry_space_group_name_H-M "I M M A"
_symmetry_group_IT_number 74
_symmetry_cell_setting 'orthorhombic'
loop_
_space_group_symop_operation_xyz
x,y,z
-x,1/2-y,z
x,-y,-z
-x,1/2+y,-z
-x,-y,-z
x,1/2+y,-z
-x,y,z
x,1/2-y,z
1/2+x,1/2+y,1/2+z
1/2-x,-y,1/2+z
1/2+x,1/2-y,1/2-z
1/2-x,y,1/2-z
1/2-x,1/2-y,1/2-z
1/2+x,y,1/2-z
1/2-x,1/2+y,1/2+z
1/2+x,-y,1/2+z
loop_
_atom_site_type_symbol
_atom_site_label
_atom_site_fract_x
_atom_site_fract_y
_atom_site_fract_z
Si Si1 0.328760 0.750000 0.133338
Si Si2 0.826031 0.036065 0.440058
Si Si3 0.674820 0.364353 0.871816
Si Si4 0.833984 0.750000 0.005192
Si Si5 0.669832 0.866780 0.507711
Si Si6 0.327701 0.974311 0.186205
O O1 0.500000 0.750000 0.143416
O O2 0.271468 0.807427 0.160830
O O3 0.290602 0.750000 0.058769
O O4 0.749740 0.093978 0.442598
O O5 0.000000 0.044153 0.441636
O O6 0.774413 0.000000 0.500000
O O7 0.773119 0.008114 0.374727
O O8 0.500000 0.364314 0.886707
O O9 0.715787 0.412126 0.824008
O O10 0.757703 0.373346 0.938265
O O11 0.813672 0.805397 0.965629
O O12 0.000000 0.750000 0.035559
O O13 0.500000 0.883342 0.502209
O O14 0.500000 0.981367 0.195722
O O15 0.250000 0.995893 0.250000
#
# Coordination Sequence:
#
# PCOD8297532 Si02
#       6
#     8  16  16   8  16  16
#     4   8  14  24  45  67  85 119 169 205 226 273
#     4  10  19  34  52  70  97 129 162 200 244 287
#     4   9  16  30  47  66  93 128 164 200 242 280
#     4   8  16  28  40  65 104 129 145 187 249 287
#     4  10  18  28  47  74 100 126 158 198 239 285
#     4  10  21  35  50  67  95 130 161 200 245 289
#
# _framework density 16.892869000000001
#
# number of rings (size 3 to 8) (size 9 to 14) (size 15 to 20)
#    0.000    2.600    2.000    0.600    0.000    2.800 
#    0.000    0.500    0.000    0.000    0.000    0.700 
#    0.000    0.000    0.000    0.000    0.000    0.000 
#
# Total GULP energy -495542.109282 kJ/mol
# GULP energy per Si atom -12388.552732 kJ/mol
# Density = 1.685442 g / cm^3
# Si number density = 16.892869 Si / 1000 Ang^3
#
#
#
# Elastic Constant Matrix: (Units=GPa)
#
#
# Indices 1 2 3 4 5 6 
#
# 1 25.9026 27.9669 27.1572 0.0000 0.0000 0.0000
# 2 27.9669 110.3259 50.7915 0.0000 0.0000 0.0000
# 3 27.1572 50.7915 93.6171 0.0000 0.0000 0.0000
# 4 0.0000 0.0000 0.0000 14.6006 0.0000 0.0000
# 5 0.0000 0.0000 0.0000 0.0000 21.6882 0.0000
# 6 0.0000 0.0000 0.0000 0.0000 0.0000 24.0335
#
#
#
# Elastic Compliance Matrix: (Units=1/GPa)
#
#
# Indices 1 2 3 4 5 6 
#
# 1 0.062858 -0.010050 -0.012782 0.000000 0.000000 0.000000
# 2 -0.010050 0.013688 -0.004511 0.000000 0.000000 0.000000
# 3 -0.012782 -0.004511 0.016837 0.000000 0.000000 0.000000
# 4 0.000000 0.000000 0.000000 0.068490 0.000000 0.000000
# 5 0.000000 0.000000 0.000000 0.000000 0.046108 0.000000
# 6 0.000000 0.000000 0.000000 0.000000 0.000000 0.041609
#
#
# Mechanical properties :
#
#
# Convention : Reuss Voigt Hill
#
# Bulk Modulus (GPa) = 25.84125 49.07521 37.45823
# Shear Modulus (GPa) = 15.76415 20.32645 18.04530
#
# Velocity S-wave (km/s) = 3.05812 3.47256 3.27191
# Velocity P-wave (km/s) = 5.27255 6.72251 6.04119
#
# Compressibility (1/GPa) = 0.03869782
#
# Stress axis : x y z
#
# Youngs Moduli (GPa) = 15.90895 73.05417 59.39186
#
# Poissons Ratio (x) = 0.73416 0.75914
# Poissons Ratio (y) = 0.15988 0.26794
# Poissons Ratio (z) = 0.20335 0.32957
#
# Static dielectric constant tensor:
#      x y z
#    x 3.121850 0.000000 0.000000 
#    y 0.000000 3.747450 0.000000 
#    z 0.000000 0.000000 2.751030 
# 
# 
# High freq. dielectric constant tensor:
#      x y z
#    x 1.649890 0.000000 0.000000 
#    y 0.000000 1.669610 0.000000 
#    z 0.000000 0.000000 1.595090 
# 
# From -- ./inp_files/39774.got.cif
#   From: 2010.03.12/outbox.cif.g09.slc.cpg/sg74_20_cif.got.tgz:39774.got - 2010.04.16 15:46:19.
