data_PCOD8297601
_publ_section_title
;
Structure prediction by ZEFSAII (Michael W. Deem and Ramdas Pophale) SiO2 
 PCOD8297601
Probable space group: I M M A
;
_chemical_formula_sum "Si O2"
_cell_formula_units_Z 96
_cell_length_a 9.007859
_cell_length_b 23.397239
_cell_length_c 26.100670
_cell_angle_alpha 90.000000
_cell_angle_beta 90.000000
_cell_angle_gamma 90.000000
_cell_volume 5500.951889
_symmetry_space_group_name_H-M "I M M A"
_symmetry_group_IT_number 74
_symmetry_cell_setting 'orthorhombic'
loop_
_space_group_symop_operation_xyz
x,y,z
-x,1/2-y,z
x,-y,-z
-x,1/2+y,-z
-x,-y,-z
x,1/2+y,-z
-x,y,z
x,1/2-y,z
1/2+x,1/2+y,1/2+z
1/2-x,-y,1/2+z
1/2+x,1/2-y,1/2-z
1/2-x,y,1/2-z
1/2-x,1/2-y,1/2-z
1/2+x,y,1/2-z
1/2-x,1/2+y,1/2+z
1/2+x,-y,1/2+z
loop_
_atom_site_type_symbol
_atom_site_label
_atom_site_fract_x
_atom_site_fract_y
_atom_site_fract_z
Si Si1 0.324068 0.750000 0.983869
Si Si2 0.329567 0.528498 0.596929
Si Si3 0.165474 0.435398 0.541392
Si Si4 0.177037 0.250000 0.601003
Si Si5 0.173984 0.535586 0.198444
Si Si6 0.334617 0.132566 0.854183
Si Si7 0.329527 0.137478 0.459236
O O1 0.500000 0.750000 0.982664
O O2 0.262800 0.750000 0.042392
O O3 0.266589 0.805388 0.953340
O O4 0.500000 0.510131 0.587408
O O5 0.230329 0.498794 0.552387
O O6 0.280459 0.508851 0.653578
O O7 0.309953 0.597044 0.591075
O O8 0.155460 0.403694 0.594825
O O9 0.276719 0.398974 0.507467
O O10 0.000000 0.439849 0.517105
O O11 0.234159 0.194587 0.631976
O O12 0.000000 0.250000 0.597537
O O13 0.250000 0.512662 0.250000
O O14 0.230160 0.599791 0.186034
O O15 0.000000 0.537925 0.207157
O O16 0.500000 0.139048 0.830458
O O17 0.500000 0.154933 0.467363
#
# Coordination Sequence:
#
# PCOD8297601 Si02
#       7
#     8  16  16   8  16  16  16
#     4  11  21  35  51  72 103 140 177 214 244 280
#     4   9  20  35  50  71 102 133 164 205 254 306
#     4  10  18  29  48  73 102 135 171 208 247 290
#     4   9  16  31  50  68  97 134 173 208 243 279
#     4  10  20  36  55  75  97 124 160 210 262 309
#     4   9  17  31  50  71  97 133 169 207 249 292
#     4  11  21  33  48  71 103 139 172 202 244 299
#
# _framework density 17.451525
#
# number of rings (size 3 to 8) (size 9 to 14) (size 15 to 20)
#    0.000    2.167    1.667    2.250    0.000    4.667 
#    0.000    0.833    0.000    0.000    0.000    0.583 
#    0.000    0.000    0.000    0.000    0.000    0.000 
#
# Total GULP energy -595117.858583 kJ/mol
# GULP energy per Si atom -12398.288720 kJ/mol
# Density = 1.741180 g / cm^3
# Si number density = 17.451525 Si / 1000 Ang^3
#
#
#
# Elastic Constant Matrix: (Units=GPa)
#
#
# Indices 1 2 3 4 5 6 
#
# 1 82.7526 43.3866 35.2661 0.0000 0.0000 0.0000
# 2 43.3866 122.4648 43.0196 0.0000 0.0000 0.0000
# 3 35.2661 43.0196 57.9234 0.0000 0.0000 0.0000
# 4 0.0000 0.0000 0.0000 11.8300 0.0000 0.0000
# 5 0.0000 0.0000 0.0000 0.0000 24.0515 0.0000
# 6 0.0000 0.0000 0.0000 0.0000 0.0000 26.5500
#
#
#
# Elastic Compliance Matrix: (Units=1/GPa)
#
#
# Indices 1 2 3 4 5 6 
#
# 1 0.017237 -0.003274 -0.008063 0.000000 0.000000 0.000000
# 2 -0.003274 0.011670 -0.006674 0.000000 0.000000 0.000000
# 3 -0.008063 -0.006674 0.027130 0.000000 0.000000 0.000000
# 4 0.000000 0.000000 0.000000 0.084531 0.000000 0.000000
# 5 0.000000 0.000000 0.000000 0.000000 0.041577 0.000000
# 6 0.000000 0.000000 0.000000 0.000000 0.000000 0.037665
#
#
# Mechanical properties :
#
#
# Convention : Reuss Voigt Hill
#
# Bulk Modulus (GPa) = 49.96245 56.27616 53.11931
# Shear Modulus (GPa) = 19.04741 21.91754 20.48247
#
# Velocity S-wave (km/s) = 3.30729 3.54773 3.42962
# Velocity P-wave (km/s) = 6.57842 7.00706 6.79612
#
# Compressibility (1/GPa) = 0.02001503
#
# Stress axis : x y z
#
# Youngs Moduli (GPa) = 58.01487 85.68968 36.86007
#
# Poissons Ratio (x) = 0.28058 0.29719
# Poissons Ratio (y) = 0.18996 0.24599
# Poissons Ratio (z) = 0.46775 0.57187
#
# Static dielectric constant tensor:
#      x y z
#    x 3.391450 0.000000 0.000000 
#    y 0.000000 3.430720 0.000000 
#    z 0.000000 0.000000 3.077500 
# 
# 
# High freq. dielectric constant tensor:
#      x y z
#    x 1.677950 0.000000 0.000000 
#    y 0.000000 1.671190 0.000000 
#    z 0.000000 0.000000 1.642360 
# 
# From -- ./inp_files/57328.got.cif
#   From: 2010.03.12/outbox.cif.g09.slc.cpg/sg74_29_cif.got.tgz:57328.got - 2010.04.16 15:46:19.
