data_PCOD8297040
_publ_section_title
;
Structure prediction by ZEFSAII (Michael W. Deem and Ramdas Pophale) SiO2 
 PCOD8297040
Probable space group: I B C A 
;
_chemical_formula_sum "Si O2"
_cell_formula_units_Z 88
_cell_length_a 12.838148
_cell_length_b 12.489593
_cell_length_c 24.053683
_cell_angle_alpha 90.000000
_cell_angle_beta 90.000000
_cell_angle_gamma 90.000000
_cell_volume 3856.845548
_symmetry_space_group_name_H-M "I B C A "
_symmetry_group_IT_number 73
_symmetry_cell_setting 'orthorhombic'
loop_
_space_group_symop_operation_xyz
x,y,z
-x,1/2-y,z
x,-y,1/2-z
1/2-x,y,-z
-x,-y,-z
x,1/2+y,-z
-x,y,1/2+z
1/2+x,-y,z
1/2+x,1/2+y,1/2+z
1/2-x,-y,1/2+z
1/2+x,1/2-y,-z
-x,1/2+y,1/2-z
1/2-x,1/2-y,1/2-z
1/2+x,y,1/2-z
1/2-x,1/2+y,z
x,1/2-y,1/2+z
loop_
_atom_site_type_symbol
_atom_site_label
_atom_site_fract_x
_atom_site_fract_y
_atom_site_fract_z
Si Si1 0.181802 0.500000 0.250000
Si Si2 0.581622 0.504147 0.051087
Si Si3 0.657511 0.151095 0.304079
Si Si4 0.250000 0.634969 0.000000
Si Si5 0.622189 0.263059 0.414410
Si Si6 0.500000 0.250000 0.227574
Si Si7 0.489634 0.975212 0.331013
O O1 0.243801 0.395018 0.270708
O O2 0.108191 0.464339 0.198043
O O3 0.683811 0.434107 0.042809
O O4 0.636308 0.614596 0.068893
O O5 0.516446 0.462473 0.103134
O O6 0.500000 0.500000 0.000000
O O7 0.684906 0.216706 0.360792
O O8 0.601612 0.238388 0.265731
O O9 0.590462 0.044698 0.316660
O O10 0.162703 0.701541 0.968041
O O11 0.500000 0.250000 0.402613
O O12 0.494574 0.144982 0.190519
#
# Coordination Sequence:
#
# PCOD8297040 Si02
#       7
#     8  16  16   8  16   8  16
#     4  12  24  44  70 104 148 188 240 308 360 450
#     4  12  26  50  77 104 151 195 250 317 372 452
#     4  12  23  48  70 101 151 198 235 293 390 447
#     4  12  26  48  74 116 138 188 266 306 374 450
#     4  12  24  47  81  99 146 208 239 309 385 443
#     4  12  22  44  70 102 144 184 236 300 358 452
#     4  12  25  45  70 108 147 184 251 306 364 450
#
# _framework density 22.816573999999999
#
# number of rings (size 3 to 8) (size 9 to 14) (size 15 to 20)
#    0.000    0.000    8.182    1.636    0.000    2.182 
#    3.273    0.000    0.000    0.000    0.000    0.000 
#    0.000    0.000    0.000    0.000    0.000    0.000 
#
# Total GULP energy -545364.566210 kJ/mol
# GULP energy per Si atom -12394.649232 kJ/mol
# Density = 2.276464 g / cm^3
# Si number density = 22.816574 Si / 1000 Ang^3
#
#
#
# Elastic Constant Matrix: (Units=GPa)
#
#
# Indices 1 2 3 4 5 6 
#
# 1 69.1022 14.8592 31.6914 0.0000 0.0000 0.0000
# 2 14.8592 147.5338 57.4641 0.0000 0.0000 0.0000
# 3 31.6914 57.4641 165.0940 0.0000 0.0000 0.0000
# 4 0.0000 0.0000 0.0000 44.1093 0.0000 0.0000
# 5 0.0000 0.0000 0.0000 0.0000 -101.5895 0.0000
# 6 0.0000 0.0000 0.0000 0.0000 0.0000 23.6797
#
#
#
# Elastic Compliance Matrix: (Units=1/GPa)
#
#
# Indices 1 2 3 4 5 6 
#
# 1 0.015897 -0.000477 -0.002886 0.000000 0.000000 0.000000
# 2 -0.000477 0.007855 -0.002643 0.000000 0.000000 0.000000
# 3 -0.002886 -0.002643 0.007531 0.000000 0.000000 0.000000
# 4 0.000000 0.000000 0.000000 0.022671 0.000000 0.000000
# 5 0.000000 0.000000 0.000000 0.000000 -0.009844 0.000000
# 6 0.000000 0.000000 0.000000 0.000000 0.000000 0.042230
#
#
# Mechanical properties :
#
#
# Convention : Reuss Voigt Hill
#
# Bulk Modulus (GPa) = 51.88645 65.52882 58.70764
# Shear Modulus (GPa) = 47.72071 11.75428 29.73749
#
# Velocity S-wave (km/s) = 4.57825 2.27218 3.61408
# Velocity P-wave (km/s) = 7.12300 5.97210 6.57279
#
# Compressibility (1/GPa) = 0.01927285
#
# Stress axis : x y z
#
# Youngs Moduli (GPa) = 62.90386 127.29975 132.78654
#
# Poissons Ratio (x) = 0.06075 0.38316
# Poissons Ratio (y) = 0.03002 0.35091
# Poissons Ratio (z) = 0.18151 0.33641
#
# Static dielectric constant tensor:
#      x y z
#    x 4.029050 0.000000 0.000000 
#    y 0.000000 4.717480 0.000000 
#    z 0.000000 0.000000 4.358750 
# 
# 
# High freq. dielectric constant tensor:
#      x y z
#    x 1.894440 0.000000 0.000000 
#    y 0.000000 1.917120 0.000000 
#    z 0.000000 0.000000 1.913710 
# 
# From -- ./inp_files/13567.got.cif
#   From: 2010.03.12/outbox.cif.g09.slc.cpg/sg73_7_cif.got.tgz:13567.got - 2010.04.16 15:25:48.
