data_PCOD8297483
_publ_section_title
;
Structure prediction by ZEFSAII (Michael W. Deem and Ramdas Pophale) SiO2 
 PCOD8297483
Probable space group: I M M A
;
_chemical_formula_sum "Si O2"
_cell_formula_units_Z 104
_cell_length_a 18.174095
_cell_length_b 9.694468
_cell_length_c 36.272363
_cell_angle_alpha 90.000000
_cell_angle_beta 90.000000
_cell_angle_gamma 90.000000
_cell_volume 6390.761709
_symmetry_space_group_name_H-M "I M M A"
_symmetry_group_IT_number 74
_symmetry_cell_setting 'orthorhombic'
loop_
_space_group_symop_operation_xyz
x,y,z
-x,1/2-y,z
x,-y,-z
-x,1/2+y,-z
-x,-y,-z
x,1/2+y,-z
-x,y,z
x,1/2-y,z
1/2+x,1/2+y,1/2+z
1/2-x,-y,1/2+z
1/2+x,1/2-y,1/2-z
1/2-x,y,1/2-z
1/2-x,1/2-y,1/2-z
1/2+x,y,1/2-z
1/2-x,1/2+y,1/2+z
1/2+x,-y,1/2+z
loop_
_atom_site_type_symbol
_atom_site_label
_atom_site_fract_x
_atom_site_fract_y
_atom_site_fract_z
Si Si1 0.269907 0.588623 0.708814
Si Si2 0.705395 0.587363 0.464549
Si Si3 0.351068 0.913044 0.074950
Si Si4 0.133505 0.598781 0.110001
Si Si5 0.918754 0.591686 0.829479
Si Si6 0.500000 0.913462 0.036685
Si Si7 0.710174 0.096755 0.851283
O O1 0.256360 0.750000 0.702797
O O2 0.250000 0.543201 0.750000
O O3 0.354821 0.547149 0.699407
O O4 0.212787 0.507478 0.682928
O O5 0.681334 0.500000 0.500000
O O6 0.707811 0.750000 0.474059
O O7 0.785340 0.531384 0.451054
O O8 0.644967 0.556817 0.432724
O O9 0.342608 0.750000 0.076081
O O10 0.429111 0.961030 0.059561
O O11 0.345302 0.963809 0.117546
O O12 0.096029 0.750000 0.112227
O O13 0.083801 0.490314 0.131962
O O14 0.212067 0.606486 0.129016
O O15 0.907128 0.750000 0.840221
O O16 0.000000 0.567506 0.811635
O O17 0.500000 0.750000 0.028277
O O18 0.500000 0.000000 0.000000
O O19 0.686630 0.250000 0.837407
#
# Coordination Sequence:
#
# PCOD8297483 Si02
#       7
#    16  16  16  16  16   8  16
#     4   9  17  29  46  68  92 115 139 170 210 256
#     4   9  16  26  40  60  85 110 140 178 219 258
#     4   8  15  27  42  59  82 113 147 182 221 263
#     4   8  15  27  42  61  84 110 139 173 211 250
#     4   9  17  29  46  67  88 110 139 173 207 246
#     4  10  18  28  42  60  84 116 152 188 228 268
#     4   8  14  27  45  62  81 109 145 179 211 250
#
# _framework density 16.273489999999999
#
# number of rings (size 3 to 8) (size 9 to 14) (size 15 to 20)
#    0.000    3.385    0.000    2.308    0.000    1.231 
#    0.000    3.077    1.692    0.462    0.000    0.000 
#    0.000    0.000    0.000    0.000    0.000    0.000 
#
# Total GULP energy -644373.271510 kJ/mol
# GULP energy per Si atom -12391.793683 kJ/mol
# Density = 1.623645 g / cm^3
# Si number density = 16.273490 Si / 1000 Ang^3
#
#
#
# Elastic Constant Matrix: (Units=GPa)
#
#
# Indices 1 2 3 4 5 6 
#
# 1 69.1621 26.3987 45.2577 0.0000 0.0000 0.0000
# 2 26.3987 50.5505 55.2139 0.0000 0.0000 0.0000
# 3 45.2577 55.2139 137.7665 0.0000 0.0000 0.0000
# 4 0.0000 0.0000 0.0000 29.1791 0.0000 0.0000
# 5 0.0000 0.0000 0.0000 0.0000 20.5247 0.0000
# 6 0.0000 0.0000 0.0000 0.0000 0.0000 14.3486
#
#
#
# Elastic Compliance Matrix: (Units=1/GPa)
#
#
# Indices 1 2 3 4 5 6 
#
# 1 0.019270 -0.005601 -0.004086 0.000000 0.000000 0.000000
# 2 -0.005601 0.036812 -0.012914 0.000000 0.000000 0.000000
# 3 -0.004086 -0.012914 0.013776 0.000000 0.000000 0.000000
# 4 0.000000 0.000000 0.000000 0.034271 0.000000 0.000000
# 5 0.000000 0.000000 0.000000 0.000000 0.048722 0.000000
# 6 0.000000 0.000000 0.000000 0.000000 0.000000 0.069693
#
#
# Mechanical properties :
#
#
# Convention : Reuss Voigt Hill
#
# Bulk Modulus (GPa) = 40.55413 56.80220 48.67816
# Shear Modulus (GPa) = 18.11829 21.51770 19.81800
#
# Velocity S-wave (km/s) = 3.34033 3.64023 3.49350
# Velocity P-wave (km/s) = 6.31281 7.25595 6.80075
#
# Compressibility (1/GPa) = 0.02465840
#
# Stress axis : x y z
#
# Youngs Moduli (GPa) = 51.89371 27.16521 72.58799
#
# Poissons Ratio (x) = 0.15214 0.29658
# Poissons Ratio (y) = 0.29063 0.93737
# Poissons Ratio (z) = 0.21203 0.35080
#
# Static dielectric constant tensor:
#      x y z
#    x 2.927580 0.000000 0.000000 
#    y 0.000000 3.067480 0.000000 
#    z 0.000000 0.000000 3.248650 
# 
# 
# High freq. dielectric constant tensor:
#      x y z
#    x 1.603980 0.000000 0.000000 
#    y 0.000000 1.612250 0.000000 
#    z 0.000000 0.000000 1.618010 
# 
# From -- ./inp_files/73150.got.cif
#   From: 2010.03.12/outbox.cif.g09.slc.cpg/sg74_37_cif.got.tgz:73150.got - 2010.04.16 15:46:19.
