data_PCOD8297185
_publ_section_title
;
Structure prediction by ZEFSAII (Michael W. Deem and Ramdas Pophale) SiO2 
 PCOD8297185
Probable space group: I M M A
;
_chemical_formula_sum "Si O2"
_cell_formula_units_Z 60
_cell_length_a 15.769759
_cell_length_b 10.670631
_cell_length_c 17.789085
_cell_angle_alpha 90.000000
_cell_angle_beta 90.000000
_cell_angle_gamma 90.000000
_cell_volume 2993.427668
_symmetry_space_group_name_H-M "I M M A"
_symmetry_group_IT_number 74
_symmetry_cell_setting 'orthorhombic'
loop_
_space_group_symop_operation_xyz
x,y,z
-x,1/2-y,z
x,-y,-z
-x,1/2+y,-z
-x,-y,-z
x,1/2+y,-z
-x,y,z
x,1/2-y,z
1/2+x,1/2+y,1/2+z
1/2-x,-y,1/2+z
1/2+x,1/2-y,1/2-z
1/2-x,y,1/2-z
1/2-x,1/2-y,1/2-z
1/2+x,y,1/2-z
1/2-x,1/2+y,1/2+z
1/2+x,-y,1/2+z
loop_
_atom_site_type_symbol
_atom_site_label
_atom_site_fract_x
_atom_site_fract_y
_atom_site_fract_z
Si Si1 0.000000 0.898664 0.066711
Si Si2 0.000000 0.005376 0.588145
Si Si3 0.831777 0.020748 0.660376
Si Si4 0.820339 0.750000 0.688220
Si Si5 0.153193 0.108490 0.824033
Si Si6 0.500000 0.250000 0.176140
O O1 0.916848 0.930553 0.115420
O O2 0.000000 0.750000 0.041471
O O3 0.000000 0.000000 0.000000
O O4 0.000000 0.867560 0.621167
O O5 0.000000 0.000000 0.500000
O O6 0.913701 0.074952 0.616172
O O7 0.851958 0.022497 0.749964
O O8 0.747512 0.098823 0.639690
O O9 0.812606 0.875504 0.637792
O O10 0.750000 0.750000 0.750000
O O11 0.914942 0.750000 0.726420
O O12 0.137232 0.250000 0.797321
#
# Coordination Sequence:
#
# PCOD8297185 Si02
#       6
#     8   8  16   8  16   4
#     4  10  23  44  60  85 120 158 194 236 288 351
#     4  10  21  37  53  77 115 153 181 227 272 343
#     4  10  19  35  58  86 112 144 196 230 297 330
#     4  10  16  32  54  82 114 142 179 243 278 336
#     4  10  20  37  61  85 115 141 186 246 283 334
#     4   8  20  34  50  76 114 140 182 232 274 320
#
# _framework density 20.04391
#
# number of rings (size 3 to 8) (size 9 to 14) (size 15 to 20)
#    0.000    2.133    2.667    2.400    0.000    1.067 
#    9.600    0.000    0.000    0.000    0.000    0.000 
#    0.000    0.000    0.000    0.000    0.000    0.000 
#
# Total GULP energy -371697.697164 kJ/mol
# GULP energy per Si atom -12389.923239 kJ/mol
# Density = 1.999829 g / cm^3
# Si number density = 20.043910 Si / 1000 Ang^3
#
#
#
# Elastic Constant Matrix: (Units=GPa)
#
#
# Indices 1 2 3 4 5 6 
#
# 1 201.3994 14.0145 83.6523 0.0000 0.0000 0.0000
# 2 14.0145 74.9805 27.5147 0.0000 0.0000 0.0000
# 3 83.6523 27.5147 96.6294 0.0000 0.0000 0.0000
# 4 0.0000 0.0000 0.0000 15.7730 0.0000 0.0000
# 5 0.0000 0.0000 0.0000 0.0000 21.5784 0.0000
# 6 0.0000 0.0000 0.0000 0.0000 0.0000 30.7341
#
#
#
# Elastic Compliance Matrix: (Units=1/GPa)
#
#
# Indices 1 2 3 4 5 6 
#
# 1 0.007840 0.001145 -0.007113 0.000000 0.000000 0.000000
# 2 0.001145 0.015060 -0.005279 0.000000 0.000000 0.000000
# 3 -0.007113 -0.005279 0.018010 0.000000 0.000000 0.000000
# 4 0.000000 0.000000 0.000000 0.063400 0.000000 0.000000
# 5 0.000000 0.000000 0.000000 0.000000 0.046343 0.000000
# 6 0.000000 0.000000 0.000000 0.000000 0.000000 0.032537
#
#
# Mechanical properties :
#
#
# Convention : Reuss Voigt Hill
#
# Bulk Modulus (GPa) = 54.30419 69.26359 61.78389
# Shear Modulus (GPa) = 23.60458 30.13894 26.87176
#
# Velocity S-wave (km/s) = 3.43540 3.88189 3.66545
# Velocity P-wave (km/s) = 6.54885 7.39751 6.98608
#
# Compressibility (1/GPa) = 0.01841479
#
# Stress axis : x y z
#
# Youngs Moduli (GPa) = 127.54962 66.40047 55.52474
#
# Poissons Ratio (x) = -0.07602 0.39496
# Poissons Ratio (y) = -0.14603 0.29314
# Poissons Ratio (z) = 0.90728 0.35055
#
# Static dielectric constant tensor:
#      x y z
#    x 4.307620 0.000000 0.000000 
#    y 0.000000 3.848970 0.000000 
#    z 0.000000 0.000000 3.111820 
# 
# 
# High freq. dielectric constant tensor:
#      x y z
#    x 1.813940 0.000000 0.000000 
#    y 0.000000 1.786360 0.000000 
#    z 0.000000 0.000000 1.724320 
# 
# From -- ./inp_files/51511.got.cif
#   From: 2010.03.12/outbox.cif.g09.slc.cpg/sg74_26_cif.got.tgz:51511.got - 2010.04.16 15:46:19.
