data_PCOD8297882
_publ_section_title
;
Structure prediction by ZEFSAII (Michael W. Deem and Ramdas Pophale) SiO2 
 PCOD8297882
Probable space group: I M M A
;
_chemical_formula_sum "Si O2"
_cell_formula_units_Z 112
_cell_length_a 26.729391
_cell_length_b 14.489170
_cell_length_c 14.449369
_cell_angle_alpha 90.000000
_cell_angle_beta 90.000000
_cell_angle_gamma 90.000000
_cell_volume 5596.048295
_symmetry_space_group_name_H-M "I M M A"
_symmetry_group_IT_number 74
_symmetry_cell_setting 'orthorhombic'
loop_
_space_group_symop_operation_xyz
x,y,z
-x,1/2-y,z
x,-y,-z
-x,1/2+y,-z
-x,-y,-z
x,1/2+y,-z
-x,y,z
x,1/2-y,z
1/2+x,1/2+y,1/2+z
1/2-x,-y,1/2+z
1/2+x,1/2-y,1/2-z
1/2-x,y,1/2-z
1/2-x,1/2-y,1/2-z
1/2+x,y,1/2-z
1/2-x,1/2+y,1/2+z
1/2+x,-y,1/2+z
loop_
_atom_site_type_symbol
_atom_site_label
_atom_site_fract_x
_atom_site_fract_y
_atom_site_fract_z
Si Si1 0.613106 0.414631 0.062298
Si Si2 0.638915 0.020006 0.640288
Si Si3 0.941014 0.509434 0.724534
Si Si4 0.789696 0.644328 0.491274
Si Si5 0.824203 0.138653 0.022726
Si Si6 0.945147 0.150983 0.590869
Si Si7 0.193227 0.853029 0.280425
O O1 0.588549 0.412275 0.164577
O O2 0.593450 0.500000 0.000000
O O3 0.674039 0.408937 0.064064
O O4 0.590694 0.333609 0.998547
O O5 0.662605 0.919754 0.614619
O O6 0.581863 0.997977 0.672003
O O7 0.640684 0.095808 0.558082
O O8 0.666159 0.063551 0.728889
O O9 0.926407 0.415407 0.672250
O O10 0.000000 0.530558 0.731637
O O11 0.790767 0.750000 0.519817
O O12 0.732589 0.611108 0.497680
O O13 0.811235 0.626073 0.389170
O O14 0.832505 0.250000 0.033451
O O15 0.947860 0.250000 0.640205
O O16 0.000000 0.118207 0.556302
O O17 0.171068 0.750000 0.258628
O O18 0.250000 0.852310 0.250000
#
# Coordination Sequence:
#
# PCOD8297882 Si02
#       7
#    16  16  16  16  16  16  16
#     4  10  19  30  52  80 115 157 185 219 270 347
#     4  11  22  37  64  87 110 159 194 242 307 358
#     4  10  22  39  57  84 115 146 196 253 300 345
#     4  10  20  35  55  83 120 154 186 235 283 339
#     4  10  23  42  60  84 118 153 195 245 298 358
#     4   9  17  31  52  80 116 153 189 233 284 338
#     4  10  18  31  56  92 125 154 197 246 289 342
#
# _framework density 20.014123999999999
#
# number of rings (size 3 to 8) (size 9 to 14) (size 15 to 20)
#    0.000    2.000    1.429    3.000    2.000    5.143 
#    0.000    2.857    0.000    5.143    0.000    0.000 
#    0.000    0.000    0.000    0.000    0.000    0.000 
#
# Total GULP energy -693774.645189 kJ/mol
# GULP energy per Si atom -12388.832950 kJ/mol
# Density = 1.996857 g / cm^3
# Si number density = 20.014124 Si / 1000 Ang^3
#
#
#
# Elastic Constant Matrix: (Units=GPa)
#
#
# Indices 1 2 3 4 5 6 
#
# 1 101.6308 31.9543 69.1112 0.0000 0.0000 0.0000
# 2 31.9543 99.0678 42.3912 0.0000 0.0000 0.0000
# 3 69.1112 42.3912 83.9565 0.0000 0.0000 0.0000
# 4 0.0000 0.0000 0.0000 26.6724 0.0000 0.0000
# 5 0.0000 0.0000 0.0000 0.0000 34.4056 0.0000
# 6 0.0000 0.0000 0.0000 0.0000 0.0000 22.1331
#
#
#
# Elastic Compliance Matrix: (Units=1/GPa)
#
#
# Indices 1 2 3 4 5 6 
#
# 1 0.022407 0.000849 -0.018874 0.000000 0.000000 0.000000
# 2 0.000849 0.012908 -0.007216 0.000000 0.000000 0.000000
# 3 -0.018874 -0.007216 0.031091 0.000000 0.000000 0.000000
# 4 0.000000 0.000000 0.000000 0.037492 0.000000 0.000000
# 5 0.000000 0.000000 0.000000 0.000000 0.029065 0.000000
# 6 0.000000 0.000000 0.000000 0.000000 0.000000 0.045181
#
#
# Mechanical properties :
#
#
# Convention : Reuss Voigt Hill
#
# Bulk Modulus (GPa) = 62.79851 63.50761 63.15306
# Shear Modulus (GPa) = 21.37349 26.05545 23.71447
#
# Velocity S-wave (km/s) = 3.27145 3.61203 3.44595
# Velocity P-wave (km/s) = 6.76129 7.01399 6.88880
#
# Compressibility (1/GPa) = 0.01592395
#
# Stress axis : x y z
#
# Youngs Moduli (GPa) = 44.62847 77.47037 32.16381
#
# Poissons Ratio (x) = -0.06574 0.60705
# Poissons Ratio (y) = -0.03787 0.23210
# Poissons Ratio (z) = 0.84230 0.55904
#
# Static dielectric constant tensor:
#      x y z
#    x 3.753200 0.000000 0.000000 
#    y 0.000000 3.743670 0.000000 
#    z 0.000000 0.000000 3.498310 
# 
# 
# High freq. dielectric constant tensor:
#      x y z
#    x 1.779620 0.000000 0.000000 
#    y 0.000000 1.781260 0.000000 
#    z 0.000000 0.000000 1.750410 
# 
# From -- ./inp_files/37417.got.cif
#   From: 2010.03.12/outbox.cif.g09.slc.cpg/sg74_19_cif.got.tgz:37417.got - 2010.04.16 15:46:19.
