data_PCOD8297067
_publ_section_title
;
Structure prediction by ZEFSAII (Michael W. Deem and Ramdas Pophale) SiO2 
 PCOD8297067
Probable space group: I B C A 
;
_chemical_formula_sum "Si O2"
_cell_formula_units_Z 88
_cell_length_a 12.094406
_cell_length_b 12.907063
_cell_length_c 25.856916
_cell_angle_alpha 90.000000
_cell_angle_beta 90.000000
_cell_angle_gamma 90.000000
_cell_volume 4036.348886
_symmetry_space_group_name_H-M "I B C A "
_symmetry_group_IT_number 73
_symmetry_cell_setting 'orthorhombic'
loop_
_space_group_symop_operation_xyz
x,y,z
-x,1/2-y,z
x,-y,1/2-z
1/2-x,y,-z
-x,-y,-z
x,1/2+y,-z
-x,y,1/2+z
1/2+x,-y,z
1/2+x,1/2+y,1/2+z
1/2-x,-y,1/2+z
1/2+x,1/2-y,-z
-x,1/2+y,1/2-z
1/2-x,1/2-y,1/2-z
1/2+x,y,1/2-z
1/2-x,1/2+y,z
x,1/2-y,1/2+z
loop_
_atom_site_type_symbol
_atom_site_label
_atom_site_fract_x
_atom_site_fract_y
_atom_site_fract_z
Si Si1 0.250000 0.152683 0.500000
Si Si2 0.576119 0.511133 0.050178
Si Si3 0.403364 0.171183 0.760976
Si Si4 0.247919 0.812044 0.174667
Si Si5 0.526069 0.627402 0.146209
Si Si6 0.377524 0.717578 0.919997
O O1 0.181471 0.083365 0.540070
O O2 0.338920 0.223377 0.528793
O O3 0.497667 0.561070 0.095173
O O4 0.627200 0.404084 0.069355
O O5 0.500000 0.500000 0.000000
O O6 0.500000 0.250000 0.743922
O O7 0.303402 0.225656 0.790142
O O8 0.347746 0.126841 0.708007
O O9 0.457570 0.089413 0.802442
O O10 0.342694 0.891690 0.155996
O O11 0.200040 0.748479 0.126921
O O12 0.500000 0.750000 0.137601
O O13 0.500000 0.750000 0.905489
#
# Coordination Sequence:
#
# PCOD8297067 Si02
#       6
#     8  16  16  16  16  16
#     4  12  26  46  66 100 134 186 232 282 350 410
#     4  12  26  43  68 100 138 182 237 279 349 418
#     4   8  16  32  64  95 120 176 214 274 339 400
#     4   9  17  36  62  92 132 168 217 273 343 394
#     4   9  20  37  66  98 132 177 230 281 339 412
#     4  12  25  42  67  99 137 179 221 292 340 411
#
# _framework density 21.801881999999999
#
# number of rings (size 3 to 8) (size 9 to 14) (size 15 to 20)
#    0.000    2.182    3.636    1.091    2.545    2.909 
#    0.000    0.000    0.000   36.000    0.000    0.000 
#    0.000    0.000    0.000    0.000    0.000    0.000 
#
# Total GULP energy -545165.104601 kJ/mol
# GULP energy per Si atom -12390.116014 kJ/mol
# Density = 2.175226 g / cm^3
# Si number density = 21.801882 Si / 1000 Ang^3
#
#
#
# Elastic Constant Matrix: (Units=GPa)
#
#
# Indices 1 2 3 4 5 6 
#
# 1 112.0730 23.1764 57.3063 0.0000 0.0000 0.0000
# 2 23.1764 81.3608 40.0181 0.0000 0.0000 0.0000
# 3 57.3063 40.0181 142.9063 0.0000 0.0000 0.0000
# 4 0.0000 0.0000 0.0000 17.0782 0.0000 0.0000
# 5 0.0000 0.0000 0.0000 0.0000 -67.1558 0.0000
# 6 0.0000 0.0000 0.0000 0.0000 0.0000 19.5767
#
#
#
# Elastic Compliance Matrix: (Units=1/GPa)
#
#
# Indices 1 2 3 4 5 6 
#
# 1 0.011316 -0.001150 -0.004216 0.000000 0.000000 0.000000
# 2 -0.001150 0.014371 -0.003563 0.000000 0.000000 0.000000
# 3 -0.004216 -0.003563 0.009686 0.000000 0.000000 0.000000
# 4 0.000000 0.000000 0.000000 0.058554 0.000000 0.000000
# 5 0.000000 0.000000 0.000000 0.000000 -0.014891 0.000000
# 6 0.000000 0.000000 0.000000 0.000000 0.000000 0.051081
#
#
# Mechanical properties :
#
#
# Convention : Reuss Voigt Hill
#
# Bulk Modulus (GPa) = 57.09287 64.14907 60.62097
# Shear Modulus (GPa) = 32.50670 8.28909 20.39790
#
# Velocity S-wave (km/s) = 3.86554 1.95199 3.06208
# Velocity P-wave (km/s) = 6.79464 5.87944 6.35354
#
# Compressibility (1/GPa) = 0.01751532
#
# Stress axis : x y z
#
# Youngs Moduli (GPa) = 88.36840 69.58402 103.24186
#
# Poissons Ratio (x) = 0.08002 0.43525
# Poissons Ratio (y) = 0.10162 0.36787
# Poissons Ratio (z) = 0.37255 0.24794
#
# Static dielectric constant tensor:
#      x y z
#    x 3.994080 0.000000 0.000000 
#    y 0.000000 3.520320 0.000000 
#    z 0.000000 0.000000 4.355610 
# 
# 
# High freq. dielectric constant tensor:
#      x y z
#    x 1.871930 0.000000 0.000000 
#    y 0.000000 1.810860 0.000000 
#    z 0.000000 0.000000 1.878240 
# 
# From -- ./inp_files/33896.got.cif
#   From: 2010.03.12/outbox.cif.g09.slc.cpg/sg73_17_cif.got.tgz:33896.got - 2010.04.16 15:25:48.
