data_PCOD8297695
_publ_section_title
;
Structure prediction by ZEFSAII (Michael W. Deem and Ramdas Pophale) SiO2 
 PCOD8297695
Probable space group: I M M A
;
_chemical_formula_sum "Si O2"
_cell_formula_units_Z 88
_cell_length_a 17.739796
_cell_length_b 9.308805
_cell_length_c 28.736568
_cell_angle_alpha 90.000000
_cell_angle_beta 90.000000
_cell_angle_gamma 90.000000
_cell_volume 4745.450563
_symmetry_space_group_name_H-M "I M M A"
_symmetry_group_IT_number 74
_symmetry_cell_setting 'orthorhombic'
loop_
_space_group_symop_operation_xyz
x,y,z
-x,1/2-y,z
x,-y,-z
-x,1/2+y,-z
-x,-y,-z
x,1/2+y,-z
-x,y,z
x,1/2-y,z
1/2+x,1/2+y,1/2+z
1/2-x,-y,1/2+z
1/2+x,1/2-y,1/2-z
1/2-x,y,1/2-z
1/2-x,1/2-y,1/2-z
1/2+x,y,1/2-z
1/2-x,1/2+y,1/2+z
1/2+x,-y,1/2+z
loop_
_atom_site_type_symbol
_atom_site_label
_atom_site_fract_x
_atom_site_fract_y
_atom_site_fract_z
Si Si1 0.913838 0.416143 0.616632
Si Si2 0.857805 0.920005 0.106515
Si Si3 0.911359 0.083397 0.795234
Si Si4 0.089641 0.912117 0.705969
Si Si5 0.500000 0.420975 0.548311
Si Si6 0.784072 0.917863 0.451895
O O1 0.906161 0.250000 0.630973
O O2 0.881759 0.507785 0.659682
O O3 0.864957 0.451131 0.571006
O O4 0.000000 0.456471 0.604570
O O5 0.861512 0.750000 0.108343
O O6 0.866515 0.975231 0.159543
O O7 0.926902 0.976546 0.075778
O O8 0.779970 0.973869 0.083737
O O9 0.894700 0.250000 0.785160
O O10 0.000000 0.059127 0.803885
O O11 0.880044 0.993553 0.751553
O O12 0.120716 0.750000 0.705835
O O13 0.000000 0.916077 0.706490
O O14 0.500000 0.250000 0.541116
O O15 0.500000 0.500000 0.500000
O O16 0.773351 0.750000 0.462225
O O17 0.777187 0.000000 0.500000
#
# Coordination Sequence:
#
# PCOD8297695 Si02
#       6
#    16  16  16  16   8  16
#     4   9  18  34  54  74  96 127 167 204 240 294
#     4   9  17  31  50  72  98 130 168 204 240 286
#     4   9  15  27  49  73  97 131 169 200 234 283
#     4   9  17  29  48  76 105 129 157 200 250 295
#     4  10  18  30  48  70  96 128 168 208 243 286
#     4  10  21  36  53  73  99 129 163 206 252 294
#
# _framework density 18.544077000000001
#
# number of rings (size 3 to 8) (size 9 to 14) (size 15 to 20)
#    0.000    2.727    0.909    1.091    0.000    3.273 
#    0.000    2.727    0.000    5.455    0.000    0.000 
#    0.000    0.000    0.000    0.000    0.000    0.000 
#
# Total GULP energy -545562.605579 kJ/mol
# GULP energy per Si atom -12399.150127 kJ/mol
# Density = 1.850187 g / cm^3
# Si number density = 18.544077 Si / 1000 Ang^3
#
#
#
# Elastic Constant Matrix: (Units=GPa)
#
#
# Indices 1 2 3 4 5 6 
#
# 1 79.1796 25.5813 41.6406 0.0000 0.0000 0.0000
# 2 25.5813 65.9950 50.2969 0.0000 0.0000 0.0000
# 3 41.6406 50.2969 116.4244 0.0000 0.0000 0.0000
# 4 0.0000 0.0000 0.0000 35.5889 0.0000 0.0000
# 5 0.0000 0.0000 0.0000 0.0000 26.3004 0.0000
# 6 0.0000 0.0000 0.0000 0.0000 0.0000 10.3338
#
#
#
# Elastic Compliance Matrix: (Units=1/GPa)
#
#
# Indices 1 2 3 4 5 6 
#
# 1 0.015877 -0.002723 -0.004502 0.000000 0.000000 0.000000
# 2 -0.002723 0.023058 -0.008987 0.000000 0.000000 0.000000
# 3 -0.004502 -0.008987 0.014082 0.000000 0.000000 0.000000
# 4 0.000000 0.000000 0.000000 0.028099 0.000000 0.000000
# 5 0.000000 0.000000 0.000000 0.000000 0.038022 0.000000
# 6 0.000000 0.000000 0.000000 0.000000 0.000000 0.096770
#
#
# Mechanical properties :
#
#
# Convention : Reuss Voigt Hill
#
# Bulk Modulus (GPa) = 48.56314 55.18184 51.87249
# Shear Modulus (GPa) = 19.59275 24.04996 21.82135
#
# Velocity S-wave (km/s) = 3.25399 3.60517 3.43407
# Velocity P-wave (km/s) = 6.35317 6.86669 6.61491
#
# Compressibility (1/GPa) = 0.02059175
#
# Stress axis : x y z
#
# Youngs Moduli (GPa) = 62.98430 43.36950 71.01177
#
# Poissons Ratio (x) = 0.11810 0.31971
# Poissons Ratio (y) = 0.17151 0.63820
# Poissons Ratio (z) = 0.28357 0.38978
#
# Static dielectric constant tensor:
#      x y z
#    x 3.610650 0.000000 0.000000 
#    y 0.000000 3.233870 0.000000 
#    z 0.000000 0.000000 3.492010 
# 
# 
# High freq. dielectric constant tensor:
#      x y z
#    x 1.700600 0.000000 0.000000 
#    y 0.000000 1.693960 0.000000 
#    z 0.000000 0.000000 1.729590 
# 
# From -- ./inp_files/72940.got.cif
#   From: 2010.03.12/outbox.cif.g09.slc.cpg/sg74_37_cif.got.tgz:72940.got - 2010.04.16 15:46:19.
