data_PCOD8297785
_publ_section_title
;
Structure prediction by ZEFSAII (Michael W. Deem and Ramdas Pophale) SiO2 
 PCOD8297785
Probable space group: I M M A
;
_chemical_formula_sum "Si O2"
_cell_formula_units_Z 88
_cell_length_a 8.976210
_cell_length_b 27.770588
_cell_length_c 24.435733
_cell_angle_alpha 90.000000
_cell_angle_beta 90.000000
_cell_angle_gamma 90.000000
_cell_volume 6091.208295
_symmetry_space_group_name_H-M "I M M A"
_symmetry_group_IT_number 74
_symmetry_cell_setting 'orthorhombic'
loop_
_space_group_symop_operation_xyz
x,y,z
-x,1/2-y,z
x,-y,-z
-x,1/2+y,-z
-x,-y,-z
x,1/2+y,-z
-x,y,z
x,1/2-y,z
1/2+x,1/2+y,1/2+z
1/2-x,-y,1/2+z
1/2+x,1/2-y,1/2-z
1/2-x,y,1/2-z
1/2-x,1/2-y,1/2-z
1/2+x,y,1/2-z
1/2-x,1/2+y,1/2+z
1/2+x,-y,1/2+z
loop_
_atom_site_type_symbol
_atom_site_label
_atom_site_fract_x
_atom_site_fract_y
_atom_site_fract_z
Si Si1 0.831375 0.422559 0.910020
Si Si2 0.167929 0.514209 0.563265
Si Si3 0.166994 0.105358 0.036430
Si Si4 0.177943 0.250000 0.809093
Si Si5 0.671853 0.695970 0.994107
Si Si6 0.325055 0.170755 0.881991
O O1 0.760304 0.475287 0.901598
O O2 0.732640 0.384033 0.876850
O O3 0.000000 0.422707 0.887472
O O4 0.828954 0.409573 0.973526
O O5 0.170553 0.500000 0.500000
O O6 0.240001 0.566817 0.571701
O O7 0.000000 0.515581 0.585645
O O8 0.235003 0.158743 0.042683
O O9 0.000000 0.106041 0.059429
O O10 0.250000 0.250000 0.750000
O O11 0.233180 0.202287 0.839513
O O12 0.000000 0.250000 0.805577
O O13 0.500000 0.683706 0.984561
O O14 0.711542 0.750000 0.974987
O O15 0.709934 0.691310 0.058031
O O16 0.500000 0.173061 0.868340
#
# Coordination Sequence:
#
# PCOD8297785 Si02
#       6
#    16  16  16   8  16  16
#     4   9  16  25  37  54  71  88 108 135 168 205
#     4   9  15  23  34  48  66  90 113 135 165 204
#     4   9  16  23  32  48  68  89 112 141 171 203
#     4  12  24  36  48  60  74  92 114 144 184 226
#     4   9  16  26  38  51  68  91 116 144 176 212
#     4  10  18  31  45  58  72  88 111 140 174 217
#
# _framework density 14.447051
#
# number of rings (size 3 to 8) (size 9 to 14) (size 15 to 20)
#    0.000    2.545    0.909    3.000    0.000    7.636 
#    0.000    0.000    0.000    0.000    0.000    0.000 
#    0.000    0.000    0.000    0.000    0.000    0.000 
#
# Total GULP energy -545526.440788 kJ/mol
# GULP energy per Si atom -12398.328200 kJ/mol
# Density = 1.441417 g / cm^3
# Si number density = 14.447051 Si / 1000 Ang^3
#
#
#
# Elastic Constant Matrix: (Units=GPa)
#
#
# Indices 1 2 3 4 5 6 
#
# 1 112.5680 59.4610 16.9112 0.0000 0.0000 0.0000
# 2 59.4610 124.7906 22.6861 0.0000 0.0000 0.0000
# 3 16.9112 22.6861 14.4242 0.0000 0.0000 0.0000
# 4 0.0000 0.0000 0.0000 5.5339 0.0000 0.0000
# 5 0.0000 0.0000 0.0000 0.0000 11.3059 0.0000
# 6 0.0000 0.0000 0.0000 0.0000 0.0000 32.9269
#
#
#
# Elastic Compliance Matrix: (Units=1/GPa)
#
#
# Indices 1 2 3 4 5 6 
#
# 1 0.012404 -0.004574 -0.007348 0.000000 0.000000 0.000000
# 2 -0.004574 0.012909 -0.014940 0.000000 0.000000 0.000000
# 3 -0.007348 -0.014940 0.101439 0.000000 0.000000 0.000000
# 4 0.000000 0.000000 0.000000 0.180705 0.000000 0.000000
# 5 0.000000 0.000000 0.000000 0.000000 0.088449 0.000000
# 6 0.000000 0.000000 0.000000 0.000000 0.000000 0.030370
#
#
# Mechanical properties :
#
#
# Convention : Reuss Voigt Hill
#
# Bulk Modulus (GPa) = 13.69337 49.98881 31.84109
# Shear Modulus (GPa) = 9.91387 20.13497 15.02442
#
# Velocity S-wave (km/s) = 2.62242 3.73729 3.22835
# Velocity P-wave (km/s) = 4.32069 7.30066 5.99867
#
# Compressibility (1/GPa) = 0.07302804
#
# Stress axis : x y z
#
# Youngs Moduli (GPa) = 80.62121 77.46507 9.85810
#
# Poissons Ratio (x) = 0.35436 0.07243
# Poissons Ratio (y) = 0.36879 0.14728
# Poissons Ratio (z) = 0.59238 1.15732
#
# Static dielectric constant tensor:
#      x y z
#    x 3.011540 0.000000 0.000000 
#    y 0.000000 3.054030 0.000000 
#    z 0.000000 0.000000 2.174850 
# 
# 
# High freq. dielectric constant tensor:
#      x y z
#    x 1.572510 0.000000 0.000000 
#    y 0.000000 1.567380 0.000000 
#    z 0.000000 0.000000 1.453210 
# 
# From -- ./inp_files/40122.got.cif
#   From: 2010.03.12/outbox.cif.g09.slc.cpg/sg74_21_cif.got.tgz:40122.got - 2010.04.16 15:46:19.
