data_PCOD8297907
_publ_section_title
;
Structure prediction by ZEFSAII (Michael W. Deem and Ramdas Pophale) SiO2 
 PCOD8297907
Probable space group: I M M A
;
_chemical_formula_sum "Si O2"
_cell_formula_units_Z 88
_cell_length_a 9.278643
_cell_length_b 17.509943
_cell_length_c 28.552362
_cell_angle_alpha 90.000000
_cell_angle_beta 90.000000
_cell_angle_gamma 90.000000
_cell_volume 4638.859712
_symmetry_space_group_name_H-M "I M M A"
_symmetry_group_IT_number 74
_symmetry_cell_setting 'orthorhombic'
loop_
_space_group_symop_operation_xyz
x,y,z
-x,1/2-y,z
x,-y,-z
-x,1/2+y,-z
-x,-y,-z
x,1/2+y,-z
-x,y,z
x,1/2-y,z
1/2+x,1/2+y,1/2+z
1/2-x,-y,1/2+z
1/2+x,1/2-y,1/2-z
1/2-x,y,1/2-z
1/2-x,1/2-y,1/2-z
1/2+x,y,1/2-z
1/2-x,1/2+y,1/2+z
1/2+x,-y,1/2+z
loop_
_atom_site_type_symbol
_atom_site_label
_atom_site_fract_x
_atom_site_fract_y
_atom_site_fract_z
Si Si1 0.171312 0.034831 0.702434
Si Si2 0.669778 0.107877 0.141064
Si Si3 0.831530 0.161112 0.850463
Si Si4 0.828197 0.750000 0.701103
Si Si5 0.840659 0.159298 0.954759
Si Si6 0.332828 0.339503 0.042700
O O1 0.250000 0.009862 0.750000
O O2 0.232506 0.116173 0.686127
O O3 0.000000 0.039522 0.710539
O O4 0.213803 0.973074 0.662944
O O5 0.500000 0.117865 0.137936
O O6 0.728456 0.175842 0.173446
O O7 0.730811 0.116265 0.088124
O O8 0.801062 0.250000 0.841947
O O9 0.784655 0.136184 0.903075
O O10 0.000000 0.142763 0.842229
O O11 0.750000 0.750000 0.750000
O O12 0.000000 0.750000 0.708278
O O13 0.844987 0.250000 0.957101
O O14 0.000000 0.125894 0.962691
O O15 0.740380 0.126619 0.995903
O O16 0.500000 0.355476 0.036072
O O17 0.301106 0.250000 0.049658
#
# Coordination Sequence:
#
# PCOD8297907 Si02
#       6
#    16  16  16   8  16  16
#     4  11  23  38  56  78 106 138 174 219 269 316
#     4   9  18  33  52  75 105 142 179 216 260 307
#     4   9  19  38  61  81 104 136 173 213 262 320
#     4  10  18  32  52  72 100 138 182 224 261 304
#     4   8  15  29  50  77 107 135 165 209 262 309
#     4   9  15  27  50  77 104 139 180 215 250 298
#
# _framework density 18.970179000000002
#
# number of rings (size 3 to 8) (size 9 to 14) (size 15 to 20)
#    0.000    2.727    0.909    2.182    0.000    1.455 
#    0.000    6.364    0.000    5.455    0.000    0.000 
#    0.000    0.000    0.000    0.000    0.000    0.000 
#
# Total GULP energy -545452.269072 kJ/mol
# GULP energy per Si atom -12396.642479 kJ/mol
# Density = 1.892700 g / cm^3
# Si number density = 18.970179 Si / 1000 Ang^3
#
#
#
# Elastic Constant Matrix: (Units=GPa)
#
#
# Indices 1 2 3 4 5 6 
#
# 1 58.8915 28.1583 36.2286 0.0000 0.0000 0.0000
# 2 28.1583 63.1972 20.9320 0.0000 0.0000 0.0000
# 3 36.2286 20.9320 82.6103 0.0000 0.0000 0.0000
# 4 0.0000 0.0000 0.0000 26.9177 0.0000 0.0000
# 5 0.0000 0.0000 0.0000 0.0000 37.8208 0.0000
# 6 0.0000 0.0000 0.0000 0.0000 0.0000 15.1987
#
#
#
# Elastic Compliance Matrix: (Units=1/GPa)
#
#
# Indices 1 2 3 4 5 6 
#
# 1 0.027187 -0.008912 -0.009665 0.000000 0.000000 0.000000
# 2 -0.008912 0.020195 -0.001208 0.000000 0.000000 0.000000
# 3 -0.009665 -0.001208 0.016650 0.000000 0.000000 0.000000
# 4 0.000000 0.000000 0.000000 0.037150 0.000000 0.000000
# 5 0.000000 0.000000 0.000000 0.000000 0.026440 0.000000
# 6 0.000000 0.000000 0.000000 0.000000 0.000000 0.065795
#
#
# Mechanical properties :
#
#
# Convention : Reuss Voigt Hill
#
# Bulk Modulus (GPa) = 40.88224 41.70408 41.29316
# Shear Modulus (GPa) = 20.73465 23.94612 22.34038
#
# Velocity S-wave (km/s) = 3.30966 3.55675 3.43543
# Velocity P-wave (km/s) = 6.01687 6.23691 6.12788
#
# Compressibility (1/GPa) = 0.02446050
#
# Stress axis : x y z
#
# Youngs Moduli (GPa) = 36.78200 49.51766 60.06136
#
# Poissons Ratio (x) = 0.44133 0.58047
# Poissons Ratio (y) = 0.32782 0.07258
# Poissons Ratio (z) = 0.35548 0.05984
#
# Static dielectric constant tensor:
#      x y z
#    x 3.303030 0.000000 0.000000 
#    y 0.000000 3.262050 0.000000 
#    z 0.000000 0.000000 3.768140 
# 
# 
# High freq. dielectric constant tensor:
#      x y z
#    x 1.713410 0.000000 0.000000 
#    y 0.000000 1.714150 0.000000 
#    z 0.000000 0.000000 1.753610 
# 
# From -- ./inp_files/70231.got.cif
#   From: 2010.03.12/outbox.cif.g09.slc.cpg/sg74_36_cif.got.tgz:70231.got - 2010.04.16 15:46:19.
