data_PCOD8297475
_publ_section_title
;
Structure prediction by ZEFSAII (Michael W. Deem and Ramdas Pophale) SiO2 
 PCOD8297475
Probable space group: I M M A
;
_chemical_formula_sum "Si O2"
_cell_formula_units_Z 72
_cell_length_a 8.949461
_cell_length_b 31.855302
_cell_length_c 18.127613
_cell_angle_alpha 90.000000
_cell_angle_beta 90.000000
_cell_angle_gamma 90.000000
_cell_volume 5167.960999
_symmetry_space_group_name_H-M "I M M A"
_symmetry_group_IT_number 74
_symmetry_cell_setting 'orthorhombic'
loop_
_space_group_symop_operation_xyz
x,y,z
-x,1/2-y,z
x,-y,-z
-x,1/2+y,-z
-x,-y,-z
x,1/2+y,-z
-x,y,z
x,1/2-y,z
1/2+x,1/2+y,1/2+z
1/2-x,-y,1/2+z
1/2+x,1/2-y,1/2-z
1/2-x,y,1/2-z
1/2-x,1/2-y,1/2-z
1/2+x,y,1/2-z
1/2-x,1/2+y,1/2+z
1/2+x,-y,1/2+z
loop_
_atom_site_type_symbol
_atom_site_label
_atom_site_fract_x
_atom_site_fract_y
_atom_site_fract_z
Si Si1 0.329295 0.250000 0.173751
Si Si2 0.824004 0.341115 0.330203
Si Si3 0.325655 0.497541 0.328759
Si Si4 0.168538 0.957541 0.454046
Si Si5 0.674309 0.086200 0.419394
O O1 0.500000 0.250000 0.195308
O O2 0.250000 0.250000 0.250000
O O3 0.291565 0.205522 0.134176
O O4 0.750000 0.346242 0.250000
O O5 0.752946 0.373112 0.387067
O O6 0.000000 0.350147 0.322091
O O7 0.500000 0.506722 0.320860
O O8 0.250000 0.497593 0.250000
O O9 0.253728 0.534684 0.377284
O O10 0.294716 0.452533 0.365122
O O11 0.255713 0.922183 0.500191
O O12 0.000000 0.942273 0.438032
O O13 0.168108 0.000000 0.500000
O O14 0.500000 0.094762 0.429240
#
# Coordination Sequence:
#
# PCOD8297475 Si02
#       5
#     8  16  16  16  16
#     4   8  16  28  40  54  74 100 129 162 199 236
#     4  10  18  28  41  57  77 102 133 167 201 235
#     4  10  19  29  41  57  78 103 132 165 198 233
#     4   9  17  29  43  57  75 100 129 161 198 236
#     4  10  19  29  41  58  79 103 132 165 199 234
#
# _framework density 13.931994
#
# number of rings (size 3 to 8) (size 9 to 14) (size 15 to 20)
#    0.000    2.444    0.000    3.333    0.000    8.000 
#    0.000    0.000    0.000    0.000    0.000    0.000 
#    0.000    0.000    0.000    1.000    0.000   12.667 
#
# Total GULP energy -446194.294022 kJ/mol
# GULP energy per Si atom -12394.285945 kJ/mol
# Density = 1.390028 g / cm^3
# Si number density = 13.931994 Si / 1000 Ang^3
#
#
#
# Elastic Constant Matrix: (Units=GPa)
#
#
# Indices 1 2 3 4 5 6 
#
# 1 110.3315 58.4504 58.6663 0.0000 0.0000 0.0000
# 2 58.4504 89.1849 40.7455 -0.0001 0.0000 0.0000
# 3 58.6663 40.7455 68.7004 -0.0004 0.0000 0.0000
# 4 0.0000 -0.0001 -0.0004 14.5276 0.0000 0.0000
# 5 0.0000 0.0000 0.0000 0.0000 26.7782 0.0000
# 6 0.0000 0.0000 0.0000 0.0000 0.0000 19.4652
#
#
#
# Elastic Compliance Matrix: (Units=1/GPa)
#
#
# Indices 1 2 3 4 5 6 
#
# 1 0.019370 -0.007047 -0.012361 0.000000 0.000000 0.000000
# 2 -0.007047 0.017944 -0.004624 0.000000 0.000000 0.000000
# 3 -0.012361 -0.004624 0.027854 0.000001 0.000000 0.000000
# 4 0.000000 0.000000 0.000001 0.068834 0.000000 0.000000
# 5 0.000000 0.000000 0.000000 0.000000 0.037344 0.000000
# 6 0.000000 0.000000 0.000000 0.000000 0.000000 0.051374
#
#
# Mechanical properties :
#
#
# Convention : Reuss Voigt Hill
#
# Bulk Modulus (GPa) = 58.47060 64.88232 61.67646
# Shear Modulus (GPa) = 18.08409 19.51120 18.79764
#
# Velocity S-wave (km/s) = 3.60672 3.74633 3.67719
# Velocity P-wave (km/s) = 7.70742 8.08611 7.89903
#
# Compressibility (1/GPa) = 0.01710261
#
# Stress axis : x y z
#
# Youngs Moduli (GPa) = 51.62699 55.72858 35.90116
#
# Poissons Ratio (x) = 0.39274 0.44377
# Poissons Ratio (y) = 0.36383 0.16602
# Poissons Ratio (z) = 0.63816 0.25771
#
# Static dielectric constant tensor:
#      x y z
#    x 2.975430 0.000000 0.000000 
#    y 0.000000 1.796280 0.000000 
#    z 0.000000 0.000000 2.588400 
# 
# 
# High freq. dielectric constant tensor:
#      x y z
#    x 1.555830 0.000000 0.000000 
#    y 0.000000 1.509600 0.000000 
#    z 0.000000 0.000000 1.502280 
# 
# From -- ./inp_files/29419.got.cif
#   From: 2010.03.12/outbox.cif.g09.slc.cpg/sg74_15_cif.got.tgz:29419.got - 2010.04.16 15:46:19.
