data_PCOD8297556
_publ_section_title
;
Structure prediction by ZEFSAII (Michael W. Deem and Ramdas Pophale) SiO2 
 PCOD8297556
Probable space group: I M M A
;
_chemical_formula_sum "Si O2"
_cell_formula_units_Z 80
_cell_length_a 10.089494
_cell_length_b 14.219817
_cell_length_c 36.859079
_cell_angle_alpha 90.000000
_cell_angle_beta 90.000000
_cell_angle_gamma 90.000000
_cell_volume 5288.200014
_symmetry_space_group_name_H-M "I M M A"
_symmetry_group_IT_number 74
_symmetry_cell_setting 'orthorhombic'
loop_
_space_group_symop_operation_xyz
x,y,z
-x,1/2-y,z
x,-y,-z
-x,1/2+y,-z
-x,-y,-z
x,1/2+y,-z
-x,y,z
x,1/2-y,z
1/2+x,1/2+y,1/2+z
1/2-x,-y,1/2+z
1/2+x,1/2-y,1/2-z
1/2-x,y,1/2-z
1/2-x,1/2-y,1/2-z
1/2+x,y,1/2-z
1/2-x,1/2+y,1/2+z
1/2+x,-y,1/2+z
loop_
_atom_site_type_symbol
_atom_site_label
_atom_site_fract_x
_atom_site_fract_y
_atom_site_fract_z
Si Si1 0.000000 0.139499 0.279630
Si Si2 0.848820 0.561193 0.589808
Si Si3 0.348217 0.043842 0.538893
Si Si4 0.352748 0.250000 0.047283
Si Si5 0.774780 0.861434 0.665558
Si Si6 0.000000 0.639193 0.800692
Si Si7 0.647075 0.250000 0.516182
O O1 0.869098 0.109121 0.301278
O O2 0.000000 0.092599 0.239551
O O3 0.000000 0.250000 0.274629
O O4 0.748242 0.489608 0.570767
O O5 0.827612 0.661316 0.572007
O O6 0.815385 0.573790 0.631896
O O7 0.000000 0.524976 0.585133
O O8 0.500000 0.013093 0.547032
O O9 0.333683 0.156535 0.539922
O O10 0.304257 0.000000 0.500000
O O11 0.500000 0.250000 0.030454
O O12 0.250453 0.250000 0.015456
O O13 0.788225 0.750000 0.656600
O O14 0.627515 0.891935 0.676557
O O15 0.000000 0.750000 0.795677
O O16 0.500000 0.250000 0.498749
#
# Coordination Sequence:
#
# PCOD8297556 Si02
#       7
#     8  16  16   8  16   8   8
#     4   9  16  28  46  58  89 127 161 193 229 278
#     4  11  21  32  46  69  96 127 162 202 239 274
#     4  10  21  35  52  71  92 120 155 196 242 286
#     4  10  20  30  48  68  93 124 161 198 239 276
#     4  10  18  29  43  64  93 125 161 199 236 270
#     4   9  18  28  40  66  87 123 167 197 225 274
#     4  10  20  38  52  70  92 119 152 196 247 288
#
# _framework density 15.128021
#
# number of rings (size 3 to 8) (size 9 to 14) (size 15 to 20)
#    0.000    2.000    4.000    0.600    1.400    3.600 
#    0.000    0.000    0.000    0.000    0.000    0.000 
#    0.000    0.000    0.000    5.400    0.000    0.100 
#
# Total GULP energy -495911.253657 kJ/mol
# GULP energy per Si atom -12397.781341 kJ/mol
# Density = 1.509359 g / cm^3
# Si number density = 15.128021 Si / 1000 Ang^3
#
#
#
# Elastic Constant Matrix: (Units=GPa)
#
#
# Indices 1 2 3 4 5 6 
#
# 1 101.2930 27.6695 38.7439 0.0000 0.0000 0.0000
# 2 27.6695 60.0313 24.0698 0.0000 0.0000 0.0000
# 3 38.7439 24.0698 76.0909 0.0000 0.0000 0.0000
# 4 0.0000 0.0000 0.0000 16.4130 0.0000 0.0000
# 5 0.0000 0.0000 0.0000 0.0000 4.1372 0.0000
# 6 0.0000 0.0000 0.0000 0.0000 0.0000 18.0104
#
#
#
# Elastic Compliance Matrix: (Units=1/GPa)
#
#
# Indices 1 2 3 4 5 6 
#
# 1 0.012981 -0.003817 -0.005402 0.000000 0.000000 0.000000
# 2 -0.003817 0.020200 -0.004446 0.000000 0.000000 0.000000
# 3 -0.005402 -0.004446 0.017299 0.000000 0.000000 0.000000
# 4 0.000000 0.000000 0.000000 0.060927 0.000000 0.000000
# 5 0.000000 0.000000 0.000000 0.000000 0.241708 0.000000
# 6 0.000000 0.000000 0.000000 0.000000 0.000000 0.055523
#
#
# Mechanical properties :
#
#
# Convention : Reuss Voigt Hill
#
# Bulk Modulus (GPa) = 43.19789 46.48686 44.84237
# Shear Modulus (GPa) = 11.26918 17.50759 14.38839
#
# Velocity S-wave (km/s) = 2.73229 3.40560 3.08735
# Velocity P-wave (km/s) = 6.21053 6.80145 6.51270
#
# Compressibility (1/GPa) = 0.02314928
#
# Stress axis : x y z
#
# Youngs Moduli (GPa) = 77.03291 49.50460 57.80536
#
# Poissons Ratio (x) = 0.18897 0.31229
# Poissons Ratio (y) = 0.29406 0.25702
# Poissons Ratio (z) = 0.41616 0.22011
#
# Static dielectric constant tensor:
#      x y z
#    x 3.238630 0.000000 0.000000 
#    y 0.000000 2.636650 0.000000 
#    z 0.000000 0.000000 2.956790 
# 
# 
# High freq. dielectric constant tensor:
#      x y z
#    x 1.600380 0.000000 0.000000 
#    y 0.000000 1.528050 0.000000 
#    z 0.000000 0.000000 1.574190 
# 
# From -- ./inp_files/65880.got.cif
#   From: 2010.03.12/outbox.cif.g09.slc.cpg/sg74_33_cif.got.tgz:65880.got - 2010.04.16 15:46:19.
