data_PCOD8297654
_publ_section_title
;
Structure prediction by ZEFSAII (Michael W. Deem and Ramdas Pophale) SiO2 
 PCOD8297654
Probable space group: I M M A
;
_chemical_formula_sum "Si O2"
_cell_formula_units_Z 96
_cell_length_a 28.728752
_cell_length_b 9.100674
_cell_length_c 25.904034
_cell_angle_alpha 90.000000
_cell_angle_beta 90.000000
_cell_angle_gamma 90.000000
_cell_volume 6772.635759
_symmetry_space_group_name_H-M "I M M A"
_symmetry_group_IT_number 74
_symmetry_cell_setting 'orthorhombic'
loop_
_space_group_symop_operation_xyz
x,y,z
-x,1/2-y,z
x,-y,-z
-x,1/2+y,-z
-x,-y,-z
x,1/2+y,-z
-x,y,z
x,1/2-y,z
1/2+x,1/2+y,1/2+z
1/2-x,-y,1/2+z
1/2+x,1/2-y,1/2-z
1/2-x,y,1/2-z
1/2-x,1/2-y,1/2-z
1/2+x,y,1/2-z
1/2-x,1/2+y,1/2+z
1/2+x,-y,1/2+z
loop_
_atom_site_type_symbol
_atom_site_label
_atom_site_fract_x
_atom_site_fract_y
_atom_site_fract_z
Si Si1 0.051349 0.578409 0.210629
Si Si2 0.302756 0.079051 0.645065
Si Si3 0.853824 0.418608 0.747538
Si Si4 0.776568 0.084298 0.303876
Si Si5 0.448489 0.419981 0.395538
Si Si6 0.355006 0.923326 0.552732
O O1 0.053706 0.750000 0.199103
O O2 0.091353 0.536955 0.252101
O O3 0.062796 0.503836 0.156714
O O4 0.000000 0.532198 0.231574
O O5 0.298883 0.250000 0.630448
O O6 0.334480 0.053991 0.695114
O O7 0.251104 0.015208 0.655157
O O8 0.324224 0.988578 0.598328
O O9 0.846181 0.250000 0.731428
O O10 0.828054 0.518075 0.705088
O O11 0.781122 0.250000 0.325052
O O12 0.750000 0.080877 0.250000
O O13 0.500000 0.462240 0.416949
O O14 0.445866 0.250000 0.381123
O O15 0.409569 0.460298 0.437725
O O16 0.346037 0.750000 0.549067
O O17 0.339526 0.000000 0.500000
#
# Coordination Sequence:
#
# PCOD8297654 Si02
#       6
#    16  16  16  16  16  16
#     4   9  16  26  41  60  81 106 135 165 200 242
#     4  10  18  30  45  60  79 101 127 164 206 246
#     4   9  16  26  41  61  82 104 130 162 199 239
#     4   9  17  27  41  61  81 102 127 157 196 240
#     4   9  18  31  44  57  74  98 130 170 213 251
#     4  11  22  33  45  59  77 101 133 170 211 254
#
# _framework density 14.174689000000001
#
# number of rings (size 3 to 8) (size 9 to 14) (size 15 to 20)
#    0.000    2.500    1.667    1.500    0.000    4.333 
#    0.000    0.000    0.000    0.000    0.000    0.000 
#    0.000    0.000    0.000    0.000    0.000    0.833 
#
# Total GULP energy -595020.360132 kJ/mol
# GULP energy per Si atom -12396.257503 kJ/mol
# Density = 1.414243 g / cm^3
# Si number density = 14.174689 Si / 1000 Ang^3
#
#
#
# Elastic Constant Matrix: (Units=GPa)
#
#
# Indices 1 2 3 4 5 6 
#
# 1 86.7278 44.4754 37.3135 0.0000 0.0000 0.0000
# 2 44.4754 72.5684 31.2595 0.0000 0.0000 0.0000
# 3 37.3135 31.2595 38.7638 0.0000 0.0000 0.0000
# 4 0.0000 0.0000 0.0000 20.3902 0.0000 0.0000
# 5 0.0000 0.0000 0.0000 0.0000 14.6965 0.0000
# 6 0.0000 0.0000 0.0000 0.0000 0.0000 21.3644
#
#
#
# Elastic Compliance Matrix: (Units=1/GPa)
#
#
# Indices 1 2 3 4 5 6 
#
# 1 0.021533 -0.006540 -0.015453 0.000000 0.000000 0.000000
# 2 -0.006540 0.023101 -0.012333 0.000000 0.000000 0.000000
# 3 -0.015453 -0.012333 0.050618 0.000000 0.000000 0.000000
# 4 0.000000 0.000000 0.000000 0.049043 0.000000 0.000000
# 5 0.000000 0.000000 0.000000 0.000000 0.068043 0.000000
# 6 0.000000 0.000000 0.000000 0.000000 0.000000 0.046807
#
#
# Mechanical properties :
#
#
# Convention : Reuss Voigt Hill
#
# Bulk Modulus (GPa) = 37.59620 47.12855 42.36237
# Shear Modulus (GPa) = 14.85157 16.95766 15.90462
#
# Velocity S-wave (km/s) = 3.24041 3.46256 3.35333
# Velocity P-wave (km/s) = 6.37035 7.02185 6.70402
#
# Compressibility (1/GPa) = 0.02659843
#
# Stress axis : x y z
#
# Youngs Moduli (GPa) = 46.44078 43.28763 19.75590
#
# Poissons Ratio (x) = 0.28312 0.30529
# Poissons Ratio (y) = 0.30374 0.24366
# Poissons Ratio (z) = 0.71765 0.53388
#
# Static dielectric constant tensor:
#      x y z
#    x 3.046590 0.000000 0.000000 
#    y 0.000000 2.914220 0.000000 
#    z 0.000000 0.000000 2.381000 
# 
# 
# High freq. dielectric constant tensor:
#      x y z
#    x 1.540640 0.000000 0.000000 
#    y 0.000000 1.555090 0.000000 
#    z 0.000000 0.000000 1.482880 
# 
# From -- ./inp_files/57501.got.cif
#   From: 2010.03.12/outbox.cif.g09.slc.cpg/sg74_29_cif.got.tgz:57501.got - 2010.04.16 15:46:19.
