data_PCOD8297855
_publ_section_title
;
Structure prediction by ZEFSAII (Michael W. Deem and Ramdas Pophale) SiO2 
 PCOD8297855
Probable space group: I M M A
;
_chemical_formula_sum "Si O2"
_cell_formula_units_Z 72
_cell_length_a 14.541356
_cell_length_b 17.557111
_cell_length_c 15.216881
_cell_angle_alpha 90.000000
_cell_angle_beta 90.000000
_cell_angle_gamma 90.000000
_cell_volume 3884.933651
_symmetry_space_group_name_H-M "I M M A"
_symmetry_group_IT_number 74
_symmetry_cell_setting 'orthorhombic'
loop_
_space_group_symop_operation_xyz
x,y,z
-x,1/2-y,z
x,-y,-z
-x,1/2+y,-z
-x,-y,-z
x,1/2+y,-z
-x,y,z
x,1/2-y,z
1/2+x,1/2+y,1/2+z
1/2-x,-y,1/2+z
1/2+x,1/2-y,1/2-z
1/2-x,y,1/2-z
1/2-x,1/2-y,1/2-z
1/2+x,y,1/2-z
1/2-x,1/2+y,1/2+z
1/2+x,-y,1/2+z
loop_
_atom_site_type_symbol
_atom_site_label
_atom_site_fract_x
_atom_site_fract_y
_atom_site_fract_z
Si Si1 0.678828 0.163035 0.516893
Si Si2 0.000000 0.413998 0.917403
Si Si3 0.500000 0.057253 0.312710
Si Si4 0.500000 0.408407 0.778362
Si Si5 0.674174 0.662938 0.681075
Si Si6 0.186830 0.839348 0.330885
O O1 0.650559 0.250000 0.538623
O O2 0.589732 0.110742 0.529292
O O3 0.714359 0.154856 0.417285
O O4 0.761523 0.136807 0.579816
O O5 0.000000 0.373254 0.820889
O O6 0.000000 0.493755 0.097038
O O7 0.412380 0.109874 0.306977
O O8 0.500000 0.000363 0.228949
O O9 0.589962 0.382217 0.830696
O O10 0.644843 0.750000 0.700057
O O11 0.750000 0.635068 0.750000
O O12 0.167041 0.750000 0.325463
O O13 0.250000 0.866633 0.250000
#
# Coordination Sequence:
#
# PCOD8297855 Si02
#       6
#    16   8   8   8  16  16
#     4  10  20  34  56  85 112 143 184 223 265 321
#     4  10  20  32  53  85 118 139 170 218 275 326
#     4  10  22  37  57  83 111 141 179 225 281 328
#     4  10  21  33  50  80 120 148 176 206 263 330
#     4  10  22  41  61  79 102 138 188 241 280 310
#     4  10  18  31  52  79 114 152 179 210 261 322
#
# _framework density 18.533135000000001
#
# number of rings (size 3 to 8) (size 9 to 14) (size 15 to 20)
#    0.667    1.333    2.222    1.667    0.000    7.111 
#    0.000    1.111    0.000    6.667    0.000    0.000 
#    0.000    0.000    0.000    0.000    0.000    0.000 
#
# Total GULP energy -446414.293595 kJ/mol
# GULP energy per Si atom -12400.397044 kJ/mol
# Density = 1.849095 g / cm^3
# Si number density = 18.533135 Si / 1000 Ang^3
#
#
#
# Elastic Constant Matrix: (Units=GPa)
#
#
# Indices 1 2 3 4 5 6 
#
# 1 148.8047 65.4910 76.1640 0.0000 0.0000 0.0000
# 2 65.4910 80.5214 44.0566 0.0000 0.0000 0.0000
# 3 76.1640 44.0566 116.9841 0.0000 0.0000 0.0000
# 4 0.0000 0.0000 0.0000 20.3177 0.0000 0.0000
# 5 0.0000 0.0000 0.0000 0.0000 15.7997 0.0000
# 6 0.0000 0.0000 0.0000 0.0000 0.0000 16.4352
#
#
#
# Elastic Compliance Matrix: (Units=1/GPa)
#
#
# Indices 1 2 3 4 5 6 
#
# 1 0.012816 -0.007379 -0.005565 0.000000 0.000000 0.000000
# 2 -0.007379 0.019891 -0.002687 0.000000 0.000000 0.000000
# 3 -0.005565 -0.002687 0.013183 0.000000 0.000000 0.000000
# 4 0.000000 0.000000 0.000000 0.049218 0.000000 0.000000
# 5 0.000000 0.000000 0.000000 0.000000 0.063292 0.000000
# 6 0.000000 0.000000 0.000000 0.000000 0.000000 0.060845
#
#
# Mechanical properties :
#
#
# Convention : Reuss Voigt Hill
#
# Bulk Modulus (GPa) = 68.36026 79.74815 74.05420
# Shear Modulus (GPa) = 19.57834 21.21708 20.39771
#
# Velocity S-wave (km/s) = 3.25375 3.38719 3.32114
# Velocity P-wave (km/s) = 7.14712 7.64335 7.39940
#
# Compressibility (1/GPa) = 0.01462838
#
# Stress axis : x y z
#
# Youngs Moduli (GPa) = 78.02531 50.27478 75.85329
#
# Poissons Ratio (x) = 0.37098 0.42215
# Poissons Ratio (y) = 0.57575 0.20380
# Poissons Ratio (z) = 0.43423 0.13507
#
# Static dielectric constant tensor:
#      x y z
#    x 3.276120 0.000000 0.000000 
#    y 0.000000 3.347410 0.000000 
#    z 0.000000 0.000000 3.453480 
# 
# 
# High freq. dielectric constant tensor:
#      x y z
#    x 1.711860 0.000000 0.000000 
#    y 0.000000 1.714570 0.000000 
#    z 0.000000 0.000000 1.713100 
# 
# From -- ./inp_files/31950.got.cif
#   From: 2010.03.12/outbox.cif.g09.slc.cpg/sg74_16_cif.got.tgz:31950.got - 2010.04.16 15:46:19.
