data_PCOD8297718
_publ_section_title
;
Structure prediction by ZEFSAII (Michael W. Deem and Ramdas Pophale) SiO2 
 PCOD8297718
Probable space group: I M M A
;
_chemical_formula_sum "Si O2"
_cell_formula_units_Z 72
_cell_length_a 8.542634
_cell_length_b 15.723533
_cell_length_c 29.184917
_cell_angle_alpha 90.000000
_cell_angle_beta 90.000000
_cell_angle_gamma 90.000000
_cell_volume 3920.129364
_symmetry_space_group_name_H-M "I M M A"
_symmetry_group_IT_number 74
_symmetry_cell_setting 'orthorhombic'
loop_
_space_group_symop_operation_xyz
x,y,z
-x,1/2-y,z
x,-y,-z
-x,1/2+y,-z
-x,-y,-z
x,1/2+y,-z
-x,y,z
x,1/2-y,z
1/2+x,1/2+y,1/2+z
1/2-x,-y,1/2+z
1/2+x,1/2-y,1/2-z
1/2-x,y,1/2-z
1/2-x,1/2-y,1/2-z
1/2+x,y,1/2-z
1/2-x,1/2+y,1/2+z
1/2+x,-y,1/2+z
loop_
_atom_site_type_symbol
_atom_site_label
_atom_site_fract_x
_atom_site_fract_y
_atom_site_fract_z
Si Si1 0.819003 0.066803 0.534664
Si Si2 0.185280 0.927358 0.360999
Si Si3 0.179417 0.250000 0.543214
Si Si4 0.684959 0.750000 0.801025
Si Si5 0.316113 0.076809 0.300586
Si Si6 0.181206 0.750000 0.139169
O O1 0.754177 0.061955 0.586480
O O2 0.794365 0.163030 0.514476
O O3 0.000000 0.042744 0.537258
O O4 0.734804 0.000000 0.500000
O O5 0.235978 0.835069 0.341330
O O6 0.000000 0.937408 0.356626
O O7 0.271360 0.998106 0.331854
O O8 0.300971 0.250000 0.584519
O O9 0.000000 0.250000 0.563171
O O10 0.500000 0.750000 0.802027
O O11 0.750000 0.750000 0.750000
O O12 0.747640 0.663069 0.824166
O O13 0.500000 0.086027 0.296896
O O14 0.250000 0.061751 0.250000
O O15 0.000000 0.750000 0.153176
#
# Coordination Sequence:
#
# PCOD8297718 Si02
#       6
#    16  16   8   8  16   8
#     4   8  14  26  46  71  96 124 162 205 245 290
#     4  10  19  33  52  75 103 134 169 209 253 300
#     4   8  14  26  45  66  91 125 163 202 245 294
#     4  10  18  32  53  76 101 133 171 207 247 296
#     4  11  21  35  54  77 104 134 169 208 251 298
#     4  10  18  30  49  72  97 130 171 209 250 302
#
# _framework density 18.366741999999999
#
# number of rings (size 3 to 8) (size 9 to 14) (size 15 to 20)
#    0.000    2.444    0.000    7.333    0.000    0.000 
#    0.000    1.667    0.000   20.667    0.000    0.000 
#    0.000    0.000    0.000    0.000    0.000    0.000 
#
# Total GULP energy -446076.080371 kJ/mol
# GULP energy per Si atom -12391.002233 kJ/mol
# Density = 1.832494 g / cm^3
# Si number density = 18.366742 Si / 1000 Ang^3
#
#
#
# Elastic Constant Matrix: (Units=GPa)
#
#
# Indices 1 2 3 4 5 6 
#
# 1 108.0521 42.8598 21.4603 0.0000 0.0000 0.0000
# 2 42.8598 188.7756 62.0454 0.0000 0.0000 0.0000
# 3 21.4603 62.0454 56.8184 0.0000 0.0000 0.0000
# 4 0.0000 0.0000 0.0000 27.9060 0.0000 0.0000
# 5 0.0000 0.0000 0.0000 0.0000 14.2977 0.0000
# 6 0.0000 0.0000 0.0000 0.0000 0.0000 30.2788
#
#
#
# Elastic Compliance Matrix: (Units=1/GPa)
#
#
# Indices 1 2 3 4 5 6 
#
# 1 0.010328 -0.001658 -0.002091 0.000000 0.000000 0.000000
# 2 -0.001658 0.008529 -0.008688 0.000000 0.000000 0.000000
# 3 -0.002091 -0.008688 0.027876 0.000000 0.000000 0.000000
# 4 0.000000 0.000000 0.000000 0.035835 0.000000 0.000000
# 5 0.000000 0.000000 0.000000 0.000000 0.069942 0.000000
# 6 0.000000 0.000000 0.000000 0.000000 0.000000 0.033026
#
#
# Mechanical properties :
#
#
# Convention : Reuss Voigt Hill
#
# Bulk Modulus (GPa) = 45.74288 67.37523 56.55906
# Shear Modulus (GPa) = 22.96802 29.64853 26.30828
#
# Velocity S-wave (km/s) = 3.54011 4.02213 3.78879
# Velocity P-wave (km/s) = 6.45517 7.63760 7.07114
#
# Compressibility (1/GPa) = 0.02186133
#
# Stress axis : x y z
#
# Youngs Moduli (GPa) = 96.82866 117.24683 35.87280
#
# Poissons Ratio (x) = 0.19436 0.07499
# Poissons Ratio (y) = 0.16051 0.31165
# Poissons Ratio (z) = 0.20242 1.01859
#
# Static dielectric constant tensor:
#      x y z
#    x 3.233880 0.000000 0.000000 
#    y 0.000000 4.118920 0.000000 
#    z 0.000000 0.000000 3.105980 
# 
# 
# High freq. dielectric constant tensor:
#      x y z
#    x 1.702480 0.000000 0.000000 
#    y 0.000000 1.741910 0.000000 
#    z 0.000000 0.000000 1.658660 
# 
# From -- ./inp_files/70007.got.cif
#   From: 2010.03.12/outbox.cif.g09.slc.cpg/sg74_36_cif.got.tgz:70007.got - 2010.04.16 15:46:19.
