data_PCOD8297235
_publ_section_title
;
Structure prediction by ZEFSAII (Michael W. Deem and Ramdas Pophale) SiO2 
 PCOD8297235
Probable space group: I M M A
;
_chemical_formula_sum "Si O2"
_cell_formula_units_Z 72
_cell_length_a 16.347781
_cell_length_b 13.032539
_cell_length_c 22.217043
_cell_angle_alpha 90.000000
_cell_angle_beta 90.000000
_cell_angle_gamma 90.000000
_cell_volume 4733.409738
_symmetry_space_group_name_H-M "I M M A"
_symmetry_group_IT_number 74
_symmetry_cell_setting 'orthorhombic'
loop_
_space_group_symop_operation_xyz
x,y,z
-x,1/2-y,z
x,-y,-z
-x,1/2+y,-z
-x,-y,-z
x,1/2+y,-z
-x,y,z
x,1/2-y,z
1/2+x,1/2+y,1/2+z
1/2-x,-y,1/2+z
1/2+x,1/2-y,1/2-z
1/2-x,y,1/2-z
1/2-x,1/2-y,1/2-z
1/2+x,y,1/2-z
1/2-x,1/2+y,1/2+z
1/2+x,-y,1/2+z
loop_
_atom_site_type_symbol
_atom_site_label
_atom_site_fract_x
_atom_site_fract_y
_atom_site_fract_z
Si Si1 0.197521 0.500000 0.500000
Si Si2 0.594355 0.865392 0.911973
Si Si3 0.754976 0.631808 0.395017
Si Si4 0.836629 0.362855 0.780970
Si Si5 0.407196 0.047026 0.829493
O O1 0.141705 0.416086 0.467268
O O2 0.255340 0.440102 0.546863
O O3 0.500000 0.864298 0.930709
O O4 0.626829 0.750000 0.900773
O O5 0.607974 0.929464 0.850185
O O6 0.743925 0.750000 0.413197
O O7 0.682706 0.597751 0.348678
O O8 0.845697 0.620038 0.366310
O O9 0.879074 0.250000 0.782458
O O10 0.750000 0.350247 0.750000
O O11 0.892000 0.442198 0.742622
O O12 0.500000 0.080525 0.844592
#
# Coordination Sequence:
#
# PCOD8297235 Si02
#       5
#     8  16  16  16  16
#     4  10  17  26  40  54  71 100 138 164 178 214
#     4   9  17  27  37  53  79 105 127 154 187 222
#     4   9  17  27  39  56  79 105 127 153 191 225
#     4   8  14  25  39  55  77 101 123 152 191 227
#     4   9  16  25  40  60  78  99 126 154 187 228
#
# _framework density 15.211022
#
# number of rings (size 3 to 8) (size 9 to 14) (size 15 to 20)
#    0.000    3.111    0.000    3.000    0.000    2.667 
#    0.000    0.000    0.000   18.000    0.000    0.778 
#    0.000    0.000    0.000    0.000    0.000    0.000 
#
# Total GULP energy -446063.854728 kJ/mol
# GULP energy per Si atom -12390.662631 kJ/mol
# Density = 1.517640 g / cm^3
# Si number density = 15.211022 Si / 1000 Ang^3
#
#
#
# Elastic Constant Matrix: (Units=GPa)
#
#
# Indices 1 2 3 4 5 6 
#
# 1 17.8737 14.1670 24.2570 0.0000 0.0000 0.0000
# 2 14.1670 93.1599 61.0817 0.0000 0.0000 0.0000
# 3 24.2570 61.0817 117.6306 0.0000 0.0000 0.0000
# 4 0.0000 0.0000 0.0000 24.1434 0.0000 0.0000
# 5 0.0000 0.0000 0.0000 0.0000 21.1891 0.0000
# 6 0.0000 0.0000 0.0000 0.0000 0.0000 12.6454
#
#
#
# Elastic Compliance Matrix: (Units=1/GPa)
#
#
# Indices 1 2 3 4 5 6 
#
# 1 0.077934 -0.001993 -0.015036 0.000000 0.000000 0.000000
# 2 -0.001993 0.016326 -0.008067 0.000000 0.000000 0.000000
# 3 -0.015036 -0.008067 0.015791 0.000000 0.000000 0.000000
# 4 0.000000 0.000000 0.000000 0.041419 0.000000 0.000000
# 5 0.000000 0.000000 0.000000 0.000000 0.047194 0.000000
# 6 0.000000 0.000000 0.000000 0.000000 0.000000 0.079080
#
#
# Mechanical properties :
#
#
# Convention : Reuss Voigt Hill
#
# Bulk Modulus (GPa) = 16.70592 47.51952 32.11272
# Shear Modulus (GPa) = 14.37240 20.20614 17.28927
#
# Velocity S-wave (km/s) = 3.07720 3.64866 3.37505
# Velocity P-wave (km/s) = 4.86130 7.00416 6.02870
#
# Compressibility (1/GPa) = 0.05985903
#
# Stress axis : x y z
#
# Youngs Moduli (GPa) = 12.83144 61.25042 63.32856
#
# Poissons Ratio (x) = 0.12207 0.95221
# Poissons Ratio (y) = 0.02557 0.51086
# Poissons Ratio (z) = 0.19293 0.49410
#
# Static dielectric constant tensor:
#      x y z
#    x 2.691820 0.000000 0.000000 
#    y 0.000000 2.983470 0.000000 
#    z 0.000000 0.000000 3.191120 
# 
# 
# High freq. dielectric constant tensor:
#      x y z
#    x 1.539250 0.000000 0.000000 
#    y 0.000000 1.576110 0.000000 
#    z 0.000000 0.000000 1.577030 
# 
# From -- ./inp_files/44994.got.cif
#   From: 2010.03.12/outbox.cif.g09.slc.cpg/sg74_23_cif.got.tgz:44994.got - 2010.04.16 15:46:19.
