data_PCOD8297790
_publ_section_title
;
Structure prediction by ZEFSAII (Michael W. Deem and Ramdas Pophale) SiO2 
 PCOD8297790
Probable space group: I M M A
;
_chemical_formula_sum "Si O2"
_cell_formula_units_Z 96
_cell_length_a 28.985270
_cell_length_b 8.922112
_cell_length_c 25.556898
_cell_angle_alpha 90.000000
_cell_angle_beta 90.000000
_cell_angle_gamma 90.000000
_cell_volume 6609.264927
_symmetry_space_group_name_H-M "I M M A"
_symmetry_group_IT_number 74
_symmetry_cell_setting 'orthorhombic'
loop_
_space_group_symop_operation_xyz
x,y,z
-x,1/2-y,z
x,-y,-z
-x,1/2+y,-z
-x,-y,-z
x,1/2+y,-z
-x,y,z
x,1/2-y,z
1/2+x,1/2+y,1/2+z
1/2-x,-y,1/2+z
1/2+x,1/2-y,1/2-z
1/2-x,y,1/2-z
1/2-x,1/2-y,1/2-z
1/2+x,y,1/2-z
1/2-x,1/2+y,1/2+z
1/2+x,-y,1/2+z
loop_
_atom_site_type_symbol
_atom_site_label
_atom_site_fract_x
_atom_site_fract_y
_atom_site_fract_z
Si Si1 0.050016 0.571804 0.216663
Si Si2 0.305068 0.077536 0.644614
Si Si3 0.854811 0.422362 0.745258
Si Si4 0.775333 0.081406 0.305231
Si Si5 0.447640 0.576480 0.401794
Si Si6 0.361449 0.927315 0.553455
O O1 0.050659 0.750000 0.214423
O O2 0.092246 0.516501 0.253196
O O3 0.056676 0.514961 0.157420
O O4 0.000000 0.515762 0.238421
O O5 0.302770 0.250000 0.627327
O O6 0.334452 0.056971 0.697023
O O7 0.253066 0.017801 0.653386
O O8 0.328628 0.980537 0.599952
O O9 0.852409 0.250000 0.727968
O O10 0.826798 0.516148 0.702120
O O11 0.779004 0.250000 0.326656
O O12 0.750000 0.075683 0.250000
O O13 0.500000 0.556999 0.421971
O O14 0.432158 0.750000 0.404919
O O15 0.414169 0.478681 0.437713
O O16 0.359458 0.750000 0.549025
O O17 0.342901 0.000000 0.500000
#
# Coordination Sequence:
#
# PCOD8297790 Si02
#       6
#    16  16  16  16  16  16
#     4   8  13  23  41  62  82 106 136 168 204 246
#     4  10  18  31  47  62  80 102 132 169 209 251
#     4   9  15  25  43  63  82 106 135 165 201 245
#     4   9  17  27  40  61  85 106 129 160 202 244
#     4   9  17  32  50  63  77 101 135 175 217 257
#     4  12  24  35  47  61  80 104 135 172 216 260
#
# _framework density 14.525064
#
# number of rings (size 3 to 8) (size 9 to 14) (size 15 to 20)
#    0.000    2.500    1.667    3.500    0.000    3.333 
#    0.000    0.000    0.000    0.500    0.000    0.000 
#    0.000    0.000    0.000    0.000    0.000    0.833 
#
# Total GULP energy -595013.771472 kJ/mol
# GULP energy per Si atom -12396.120239 kJ/mol
# Density = 1.449200 g / cm^3
# Si number density = 14.525064 Si / 1000 Ang^3
#
#
#
# Elastic Constant Matrix: (Units=GPa)
#
#
# Indices 1 2 3 4 5 6 
#
# 1 96.3475 40.8098 30.7088 0.0000 0.0000 0.0000
# 2 40.8098 88.2014 27.3185 0.0000 0.0000 0.0000
# 3 30.7088 27.3185 30.1483 0.0000 0.0000 0.0000
# 4 0.0000 0.0000 0.0000 18.1814 0.0000 0.0000
# 5 0.0000 0.0000 0.0000 0.0000 12.5047 0.0000
# 6 0.0000 0.0000 0.0000 0.0000 0.0000 21.2390
#
#
#
# Elastic Compliance Matrix: (Units=1/GPa)
#
#
# Indices 1 2 3 4 5 6 
#
# 1 0.016023 -0.003279 -0.013350 0.000000 0.000000 0.000000
# 2 -0.003279 0.016432 -0.011550 0.000000 0.000000 0.000000
# 3 -0.013350 -0.011550 0.057233 0.000000 0.000000 0.000000
# 4 0.000000 0.000000 0.000000 0.055001 0.000000 0.000000
# 5 0.000000 0.000000 0.000000 0.000000 0.079970 0.000000
# 6 0.000000 0.000000 0.000000 0.000000 0.000000 0.047083
#
#
# Mechanical properties :
#
#
# Convention : Reuss Voigt Hill
#
# Bulk Modulus (GPa) = 30.00199 45.81904 37.91051
# Shear Modulus (GPa) = 14.74013 18.10902 16.42458
#
# Velocity S-wave (km/s) = 3.18906 3.53476 3.36635
# Velocity P-wave (km/s) = 5.85323 6.94785 6.42390
#
# Compressibility (1/GPa) = 0.03333112
#
# Stress axis : x y z
#
# Youngs Moduli (GPa) = 62.41097 60.85641 17.47241
#
# Poissons Ratio (x) = 0.19954 0.23325
# Poissons Ratio (y) = 0.20463 0.20181
# Poissons Ratio (z) = 0.83316 0.70289
#
# Static dielectric constant tensor:
#      x y z
#    x 3.143810 0.000000 0.000000 
#    y 0.000000 2.786850 0.000000 
#    z 0.000000 0.000000 2.474070 
# 
# 
# High freq. dielectric constant tensor:
#      x y z
#    x 1.556080 0.000000 0.000000 
#    y 0.000000 1.551910 0.000000 
#    z 0.000000 0.000000 1.498240 
# 
# From -- ./inp_files/62263.got.cif
#   From: 2010.03.12/outbox.cif.g09.slc.cpg/sg74_32_cif.got.tgz:62263.got - 2010.04.16 15:46:19.
