data_PCOD8297856
_publ_section_title
;
Structure prediction by ZEFSAII (Michael W. Deem and Ramdas Pophale) SiO2 
 PCOD8297856
Probable space group: I M M A
;
_chemical_formula_sum "Si O2"
_cell_formula_units_Z 112
_cell_length_a 14.036853
_cell_length_b 15.196303
_cell_length_c 27.983644
_cell_angle_alpha 90.000000
_cell_angle_beta 90.000000
_cell_angle_gamma 90.000000
_cell_volume 5969.142728
_symmetry_space_group_name_H-M "I M M A"
_symmetry_group_IT_number 74
_symmetry_cell_setting 'orthorhombic'
loop_
_space_group_symop_operation_xyz
x,y,z
-x,1/2-y,z
x,-y,-z
-x,1/2+y,-z
-x,-y,-z
x,1/2+y,-z
-x,y,z
x,1/2-y,z
1/2+x,1/2+y,1/2+z
1/2-x,-y,1/2+z
1/2+x,1/2-y,1/2-z
1/2-x,y,1/2-z
1/2-x,1/2-y,1/2-z
1/2+x,y,1/2-z
1/2-x,1/2+y,1/2+z
1/2+x,-y,1/2+z
loop_
_atom_site_type_symbol
_atom_site_label
_atom_site_fract_x
_atom_site_fract_y
_atom_site_fract_z
Si Si1 0.389347 0.017385 0.183965
Si Si2 0.393309 0.354670 0.439369
Si Si3 0.111391 0.347211 0.957018
Si Si4 0.393047 0.422985 0.291244
Si Si5 0.777752 0.152967 0.696925
Si Si6 0.753537 0.849536 0.856297
Si Si7 0.391783 0.408983 0.643322
O O1 0.500000 0.018741 0.170942
O O2 0.350002 0.919023 0.175177
O O3 0.369655 0.043441 0.238633
O O4 0.337258 0.086817 0.149384
O O5 0.500000 0.393933 0.428329
O O6 0.400811 0.250000 0.438510
O O7 0.353194 0.384929 0.491630
O O8 0.317966 0.386053 0.399828
O O9 0.155561 0.250000 0.945925
O O10 0.133105 0.414657 0.913507
O O11 0.000000 0.334939 0.963907
O O12 0.500000 0.385184 0.293667
O O13 0.318193 0.349017 0.307831
O O14 0.376572 0.499186 0.330232
O O15 0.826018 0.250000 0.696186
O O16 0.750000 0.124194 0.750000
O O17 0.680735 0.159871 0.666541
O O18 0.717243 0.750000 0.864961
O O19 0.500000 0.374481 0.650507
#
# Coordination Sequence:
#
# PCOD8297856 Si02
#       7
#    16  16  16  16  16  16  16
#     4  11  23  40  54  71 106 143 183 234 278 311
#     4   8  15  29  50  79 114 144 171 211 265 326
#     4   8  14  26  46  76 114 148 173 204 253 318
#     4  10  20  34  52  75 110 146 173 213 268 323
#     4  11  21  34  54  79 107 143 185 220 260 317
#     4  11  21  35  57  79 102 140 186 227 274 325
#     4  10  18  31  52  80 113 145 174 206 254 319
#
# _framework density 18.763162999999999
#
# number of rings (size 3 to 8) (size 9 to 14) (size 15 to 20)
#    0.000    2.143    2.857    2.143    0.000    3.429 
#    0.000    3.571    0.000    3.429    0.000    2.000 
#    0.000    3.429    0.000    0.000    0.000    0.000 
#
# Total GULP energy -693984.135498 kJ/mol
# GULP energy per Si atom -12392.573848 kJ/mol
# Density = 1.872046 g / cm^3
# Si number density = 18.763163 Si / 1000 Ang^3
#
#
#
# Elastic Constant Matrix: (Units=GPa)
#
#
# Indices 1 2 3 4 5 6 
#
# 1 99.4599 38.3177 55.2656 0.0000 0.0000 0.0000
# 2 38.3177 71.3541 32.3691 0.0000 0.0000 0.0000
# 3 55.2656 32.3691 116.0108 0.0000 0.0000 0.0000
# 4 0.0000 0.0000 0.0000 24.6323 0.0000 0.0000
# 5 0.0000 0.0000 0.0000 0.0000 24.6242 0.0000
# 6 0.0000 0.0000 0.0000 0.0000 0.0000 14.4917
#
#
#
# Elastic Compliance Matrix: (Units=1/GPa)
#
#
# Indices 1 2 3 4 5 6 
#
# 1 0.015451 -0.005677 -0.005777 0.000000 0.000000 0.000000
# 2 -0.005677 0.018131 -0.002355 0.000000 0.000000 0.000000
# 3 -0.005777 -0.002355 0.012029 0.000000 0.000000 0.000000
# 4 0.000000 0.000000 0.000000 0.040597 0.000000 0.000000
# 5 0.000000 0.000000 0.000000 0.000000 0.040611 0.000000
# 6 0.000000 0.000000 0.000000 0.000000 0.000000 0.069005
#
#
# Mechanical properties :
#
#
# Convention : Reuss Voigt Hill
#
# Bulk Modulus (GPa) = 55.57132 59.85885 57.71508
# Shear Modulus (GPa) = 21.79230 23.47446 22.63338
#
# Velocity S-wave (km/s) = 3.41169 3.54092 3.47690
# Velocity P-wave (km/s) = 6.72317 6.97775 6.85164
#
# Compressibility (1/GPa) = 0.01799489
#
# Stress axis : x y z
#
# Youngs Moduli (GPa) = 64.71954 55.15336 83.13367
#
# Poissons Ratio (x) = 0.31310 0.48025
# Poissons Ratio (y) = 0.36740 0.19574
# Poissons Ratio (z) = 0.37387 0.12986
#
# Static dielectric constant tensor:
#      x y z
#    x 3.288570 0.000000 0.000000 
#    y 0.000000 3.290220 0.000000 
#    z 0.000000 0.000000 3.755150 
# 
# 
# High freq. dielectric constant tensor:
#      x y z
#    x 1.690310 0.000000 0.000000 
#    y 0.000000 1.723450 0.000000 
#    z 0.000000 0.000000 1.724450 
# 
# From -- ./inp_files/67185.got.cif
#   From: 2010.03.12/outbox.cif.g09.slc.cpg/sg74_34_cif.got.tgz:67185.got - 2010.04.16 15:46:19.
