data_PCOD8297617
_publ_section_title
;
Structure prediction by ZEFSAII (Michael W. Deem and Ramdas Pophale) SiO2 
 PCOD8297617
Probable space group: I M M A
;
_chemical_formula_sum "Si O2"
_cell_formula_units_Z 112
_cell_length_a 18.024403
_cell_length_b 14.230464
_cell_length_c 23.064222
_cell_angle_alpha 90.000000
_cell_angle_beta 90.000000
_cell_angle_gamma 90.000000
_cell_volume 5915.871876
_symmetry_space_group_name_H-M "I M M A"
_symmetry_group_IT_number 74
_symmetry_cell_setting 'orthorhombic'
loop_
_space_group_symop_operation_xyz
x,y,z
-x,1/2-y,z
x,-y,-z
-x,1/2+y,-z
-x,-y,-z
x,1/2+y,-z
-x,y,z
x,1/2-y,z
1/2+x,1/2+y,1/2+z
1/2-x,-y,1/2+z
1/2+x,1/2-y,1/2-z
1/2-x,y,1/2-z
1/2-x,1/2-y,1/2-z
1/2+x,y,1/2-z
1/2-x,1/2+y,1/2+z
1/2+x,-y,1/2+z
loop_
_atom_site_type_symbol
_atom_site_label
_atom_site_fract_x
_atom_site_fract_y
_atom_site_fract_z
Si Si1 0.085589 0.355135 0.089656
Si Si2 0.837205 0.526265 0.360151
Si Si3 0.843905 0.147301 0.529108
Si Si4 0.838284 0.143566 0.749972
Si Si5 0.181252 0.897285 0.018595
Si Si6 0.837848 0.030966 0.861665
Si Si7 0.412706 0.357887 0.091281
O O1 0.094815 0.250000 0.115685
O O2 0.122594 0.429585 0.133421
O O3 0.000000 0.382077 0.081770
O O4 0.122041 0.355723 0.025922
O O5 0.862417 0.578589 0.418407
O O6 0.866664 0.587482 0.306251
O O7 0.749451 0.511600 0.356994
O O8 0.875803 0.423895 0.359594
O O9 0.877165 0.250000 0.543745
O O10 0.755817 0.163103 0.520012
O O11 0.881448 0.108595 0.470813
O O12 0.870268 0.250000 0.749814
O O13 0.750000 0.148193 0.750000
O O14 0.867838 0.087382 0.806119
O O15 0.144061 0.904167 0.082374
O O16 0.208164 0.000000 0.000000
O O17 0.500000 0.371728 0.092359
O O18 0.390242 0.250000 0.104222
#
# Coordination Sequence:
#
# PCOD8297617 Si02
#       7
#    16  16  16  16  16  16  16
#     4  10  20  33  50  73 102 136 170 206 252 300
#     4  10  19  33  53  77 102 132 167 205 249 295
#     4  10  18  29  49  77 106 133 164 202 246 299
#     4   9  18  34  56  80 104 130 164 206 248 294
#     4   9  17  29  48  75 104 133 166 204 248 297
#     4   9  19  33  52  77 103 132 168 206 248 296
#     4  10  21  35  51  73 101 134 169 206 252 300
#
# _framework density 18.932120999999999
#
# number of rings (size 3 to 8) (size 9 to 14) (size 15 to 20)
#    0.000    2.429    0.000    3.857    0.000    9.429 
#    0.000    1.429    0.000    6.857    0.000    0.000 
#    0.000    0.000    0.000    0.000    0.000    0.000 
#
# Total GULP energy -694299.196330 kJ/mol
# GULP energy per Si atom -12398.199934 kJ/mol
# Density = 1.888903 g / cm^3
# Si number density = 18.932121 Si / 1000 Ang^3
#
#
#
# Elastic Constant Matrix: (Units=GPa)
#
#
# Indices 1 2 3 4 5 6 
#
# 1 45.3860 38.4714 31.3848 0.0000 0.0000 0.0000
# 2 38.4714 138.5101 79.0295 0.0000 0.0000 0.0000
# 3 31.3848 79.0295 121.3090 0.0000 0.0000 0.0000
# 4 0.0000 0.0000 0.0000 26.2552 0.0000 0.0000
# 5 0.0000 0.0000 0.0000 0.0000 4.9201 0.0000
# 6 0.0000 0.0000 0.0000 0.0000 0.0000 24.8055
#
#
#
# Elastic Compliance Matrix: (Units=1/GPa)
#
#
# Indices 1 2 3 4 5 6 
#
# 1 0.029822 -0.006177 -0.003691 0.000000 0.000000 0.000000
# 2 -0.006177 0.012770 -0.006722 0.000000 0.000000 0.000000
# 3 -0.003691 -0.006722 0.013577 0.000000 0.000000 0.000000
# 4 0.000000 0.000000 0.000000 0.038088 0.000000 0.000000
# 5 0.000000 0.000000 0.000000 0.000000 0.203249 0.000000
# 6 0.000000 0.000000 0.000000 0.000000 0.000000 0.040314
#
#
# Mechanical properties :
#
#
# Convention : Reuss Voigt Hill
#
# Bulk Modulus (GPa) = 43.49728 66.99740 55.24734
# Shear Modulus (GPa) = 13.20438 21.61746 17.41092
#
# Velocity S-wave (km/s) = 2.64381 3.38278 3.03586
# Velocity P-wave (km/s) = 5.68726 7.12198 6.44467
#
# Compressibility (1/GPa) = 0.02298995
#
# Stress axis : x y z
#
# Youngs Moduli (GPa) = 33.53273 78.30605 73.65227
#
# Poissons Ratio (x) = 0.48368 0.27187
# Poissons Ratio (y) = 0.20713 0.49505
# Poissons Ratio (z) = 0.12378 0.52634
#
# Static dielectric constant tensor:
#      x y z
#    x 3.147140 0.000000 0.000000 
#    y 0.000000 3.554490 0.000000 
#    z 0.000000 0.000000 3.522480 
# 
# 
# High freq. dielectric constant tensor:
#      x y z
#    x 1.706970 0.000000 0.000000 
#    y 0.000000 1.750600 0.000000 
#    z 0.000000 0.000000 1.718620 
# 
# From -- ./inp_files/60197.got.cif
#   From: 2010.03.12/outbox.cif.g09.slc.cpg/sg74_31_cif.got.tgz:60197.got - 2010.04.16 15:46:19.
