data_PCOD8297892
_publ_section_title
;
Structure prediction by ZEFSAII (Michael W. Deem and Ramdas Pophale) SiO2 
 PCOD8297892
Probable space group: I M M A
;
_chemical_formula_sum "Si O2"
_cell_formula_units_Z 80
_cell_length_a 17.393887
_cell_length_b 11.153440
_cell_length_c 23.689502
_cell_angle_alpha 90.000000
_cell_angle_beta 90.000000
_cell_angle_gamma 90.000000
_cell_volume 4595.803068
_symmetry_space_group_name_H-M "I M M A"
_symmetry_group_IT_number 74
_symmetry_cell_setting 'orthorhombic'
loop_
_space_group_symop_operation_xyz
x,y,z
-x,1/2-y,z
x,-y,-z
-x,1/2+y,-z
-x,-y,-z
x,1/2+y,-z
-x,y,z
x,1/2-y,z
1/2+x,1/2+y,1/2+z
1/2-x,-y,1/2+z
1/2+x,1/2-y,1/2-z
1/2-x,y,1/2-z
1/2-x,1/2-y,1/2-z
1/2+x,y,1/2-z
1/2-x,1/2+y,1/2+z
1/2+x,-y,1/2+z
loop_
_atom_site_type_symbol
_atom_site_label
_atom_site_fract_x
_atom_site_fract_y
_atom_site_fract_z
Si Si1 0.585788 0.109941 0.806052
Si Si2 0.713878 0.498365 0.122319
Si Si3 0.410970 0.750000 0.729475
Si Si4 0.676596 0.517696 0.713122
Si Si5 0.913069 0.750000 0.525506
Si Si6 0.649037 0.750000 0.854446
Si Si7 0.170307 0.000000 0.500000
O O1 0.500000 0.052165 0.809679
O O2 0.578693 0.250000 0.810197
O O3 0.636137 0.066267 0.858972
O O4 0.624911 0.077876 0.746516
O O5 0.791113 0.543074 0.154922
O O6 0.705753 0.361757 0.141997
O O7 0.724306 0.510942 0.055192
O O8 0.500000 0.750000 0.715076
O O9 0.373897 0.865834 0.700335
O O10 0.399319 0.750000 0.796993
O O11 0.750000 0.556268 0.750000
O O12 0.910159 0.750000 0.593332
O O13 0.877097 0.624836 0.502753
O O14 0.000000 0.750000 0.504269
#
# Coordination Sequence:
#
# PCOD8297892 Si02
#       7
#    16  16   8  16   8   8   8
#     4  10  21  34  49  74 105 134 168 212 257 305
#     4  10  21  35  54  71 104 135 174 209 252 301
#     4  12  19  28  52  82 106 130 164 200 255 316
#     4  10  19  32  51  74 102 137 166 208 256 304
#     4  10  21  35  51  72 104 140 177 214 253 298
#     4  10  18  32  50  75 104 133 159 202 247 302
#     4  10  23  38  50  76  99 142 180 220 248 304
#
# _framework density 17.407185999999999
#
# number of rings (size 3 to 8) (size 9 to 14) (size 15 to 20)
#    0.000    1.800    4.000    2.100    1.400    7.600 
#    0.000    0.000    0.000    0.000    0.000    2.800 
#    0.000    0.000    0.000    0.000    0.000    0.000 
#
# Total GULP energy -495772.320021 kJ/mol
# GULP energy per Si atom -12394.308001 kJ/mol
# Density = 1.736757 g / cm^3
# Si number density = 17.407186 Si / 1000 Ang^3
#
#
#
# Elastic Constant Matrix: (Units=GPa)
#
#
# Indices 1 2 3 4 5 6 
#
# 1 87.9646 16.6064 51.5660 0.0000 0.0000 0.0000
# 2 16.6064 73.0884 18.5991 0.0000 0.0000 0.0000
# 3 51.5660 18.5991 127.8148 0.0000 0.0000 0.0000
# 4 0.0000 0.0000 0.0000 18.3670 0.0000 0.0000
# 5 0.0000 0.0000 0.0000 0.0000 16.7518 0.0000
# 6 0.0000 0.0000 0.0000 0.0000 0.0000 22.2360
#
#
#
# Elastic Compliance Matrix: (Units=1/GPa)
#
#
# Indices 1 2 3 4 5 6 
#
# 1 0.015155 -0.001960 -0.005829 0.000000 0.000000 0.000000
# 2 -0.001960 0.014462 -0.001314 0.000000 0.000000 0.000000
# 3 -0.005829 -0.001314 0.010367 0.000000 0.000000 0.000000
# 4 0.000000 0.000000 0.000000 0.054445 0.000000 0.000000
# 5 0.000000 0.000000 0.000000 0.000000 0.059695 0.000000
# 6 0.000000 0.000000 0.000000 0.000000 0.000000 0.044972
#
#
# Mechanical properties :
#
#
# Convention : Reuss Voigt Hill
#
# Bulk Modulus (GPa) = 45.91768 51.37899 48.64833
# Shear Modulus (GPa) = 22.26566 24.94407 23.60486
#
# Velocity S-wave (km/s) = 3.58034 3.78957 3.68644
# Velocity P-wave (km/s) = 6.59755 6.98053 6.79174
#
# Compressibility (1/GPa) = 0.02177810
#
# Stress axis : x y z
#
# Youngs Moduli (GPa) = 65.98338 69.14815 96.46296
#
# Poissons Ratio (x) = 0.13554 0.56229
# Poissons Ratio (y) = 0.12933 0.12672
# Poissons Ratio (z) = 0.38462 0.09083
#
# Static dielectric constant tensor:
#      x y z
#    x 3.318780 0.000000 0.000000 
#    y 0.000000 3.317200 0.000000 
#    z 0.000000 0.000000 3.361470 
# 
# 
# High freq. dielectric constant tensor:
#      x y z
#    x 1.650520 0.000000 0.000000 
#    y 0.000000 1.681760 0.000000 
#    z 0.000000 0.000000 1.656630 
# 
# From -- ./inp_files/66925.got.cif
#   From: 2010.03.12/outbox.cif.g09.slc.cpg/sg74_34_cif.got.tgz:66925.got - 2010.04.16 15:46:19.
