data_PCOD8297567
_publ_section_title
;
Structure prediction by ZEFSAII (Michael W. Deem and Ramdas Pophale) SiO2 
 PCOD8297567
Probable space group: I M M A
;
_chemical_formula_sum "Si O2"
_cell_formula_units_Z 120
_cell_length_a 13.342245
_cell_length_b 19.808761
_cell_length_c 25.639315
_cell_angle_alpha 90.000000
_cell_angle_beta 90.000000
_cell_angle_gamma 90.000000
_cell_volume 6776.300258
_symmetry_space_group_name_H-M "I M M A"
_symmetry_group_IT_number 74
_symmetry_cell_setting 'orthorhombic'
loop_
_space_group_symop_operation_xyz
x,y,z
-x,1/2-y,z
x,-y,-z
-x,1/2+y,-z
-x,-y,-z
x,1/2+y,-z
-x,y,z
x,1/2-y,z
1/2+x,1/2+y,1/2+z
1/2-x,-y,1/2+z
1/2+x,1/2-y,1/2-z
1/2-x,y,1/2-z
1/2-x,1/2-y,1/2-z
1/2+x,y,1/2-z
1/2-x,1/2+y,1/2+z
1/2+x,-y,1/2+z
loop_
_atom_site_type_symbol
_atom_site_label
_atom_site_fract_x
_atom_site_fract_y
_atom_site_fract_z
Si Si1 0.382327 0.591683 0.693759
Si Si2 0.881341 0.676226 0.709193
Si Si3 0.118098 0.058846 0.659502
Si Si4 0.250000 0.484920 0.750000
Si Si5 0.198919 0.173125 0.469931
Si Si6 0.883112 0.416392 0.381050
Si Si7 0.615586 0.326757 0.919481
Si Si8 0.387648 0.674026 0.593153
O O1 0.500000 0.573646 0.698322
O O2 0.353010 0.651536 0.733291
O O3 0.318157 0.526808 0.709519
O O4 0.355812 0.618579 0.636092
O O5 0.834668 0.750000 0.700121
O O6 0.832362 0.625929 0.666391
O O7 0.000000 0.678859 0.702339
O O8 0.149116 0.125363 0.627640
O O9 0.000000 0.057532 0.672089
O O10 0.177015 0.060617 0.714353
O O11 0.150874 0.994173 0.624267
O O12 0.160331 0.250000 0.458048
O O13 0.140603 0.117547 0.436213
O O14 0.182609 0.155724 0.530247
O O15 0.316518 0.166523 0.457053
O O16 0.000000 0.413418 0.372415
O O17 0.500000 0.339489 0.934831
O O18 0.632998 0.250000 0.901144
O O19 0.500000 0.659708 0.573598
O O20 0.379792 0.750000 0.616699
#
# Coordination Sequence:
#
# PCOD8297567 Si02
#       8
#    16  16  16   8  16  16  16  16
#     4  10  19  31  45  64  96 137 179 215 247 287
#     4   9  16  26  40  60  93 136 174 210 246 278
#     4  10  21  36  54  77 104 132 162 197 244 302
#     4  12  20  32  52  74  98 132 168 208 248 292
#     4  10  19  31  49  74 101 133 173 209 244 290
#     4  10  18  29  44  70 105 134 165 205 247 291
#     4   9  19  37  59  80 101 124 152 195 255 316
#     4   9  18  31  45  64  94 135 179 215 243 275
#
# _framework density 17.708777999999999
#
# number of rings (size 3 to 8) (size 9 to 14) (size 15 to 20)
#    0.000    2.267    1.333    2.400    0.000    3.467 
#    0.000    3.000    0.000    1.600    0.000    2.800 
#    0.000    0.000    0.000    0.000    0.000    0.000 
#
# Total GULP energy -743859.270499 kJ/mol
# GULP energy per Si atom -12397.654508 kJ/mol
# Density = 1.766847 g / cm^3
# Si number density = 17.708778 Si / 1000 Ang^3
#
#
#
# Elastic Constant Matrix: (Units=GPa)
#
#
# Indices 1 2 3 4 5 6 
#
# 1 54.3320 34.6018 50.5416 0.0000 0.0000 0.0000
# 2 34.6018 99.3271 70.0215 0.0000 0.0000 0.0000
# 3 50.5416 70.0215 110.2927 0.0000 0.0000 0.0000
# 4 0.0000 0.0000 0.0000 28.9495 0.0000 0.0000
# 5 0.0000 0.0000 0.0000 0.0000 30.5446 0.0000
# 6 0.0000 0.0000 0.0000 0.0000 0.0000 15.2565
#
#
#
# Elastic Compliance Matrix: (Units=1/GPa)
#
#
# Indices 1 2 3 4 5 6 
#
# 1 0.032200 -0.001475 -0.013819 0.000000 0.000000 0.000000
# 2 -0.001475 0.018292 -0.010937 0.000000 0.000000 0.000000
# 3 -0.013819 -0.010937 0.022343 0.000000 0.000000 0.000000
# 4 0.000000 0.000000 0.000000 0.034543 0.000000 0.000000
# 5 0.000000 0.000000 0.000000 0.000000 0.032739 0.000000
# 6 0.000000 0.000000 0.000000 0.000000 0.000000 0.065546
#
#
# Mechanical properties :
#
#
# Convention : Reuss Voigt Hill
#
# Bulk Modulus (GPa) = 49.08671 63.80907 56.44789
# Shear Modulus (GPa) = 18.87401 22.20258 20.53830
#
# Velocity S-wave (km/s) = 3.26820 3.54469 3.40925
# Velocity P-wave (km/s) = 6.48233 7.27075 6.88783
#
# Compressibility (1/GPa) = 0.02037211
#
# Stress axis : x y z
#
# Youngs Moduli (GPa) = 31.05608 54.66979 44.75753
#
# Poissons Ratio (x) = 0.08067 0.61850
# Poissons Ratio (y) = 0.04582 0.48950
# Poissons Ratio (z) = 0.42916 0.59790
#
# Static dielectric constant tensor:
#      x y z
#    x 3.410410 0.000000 0.000000 
#    y 0.000000 3.213140 0.000000 
#    z 0.000000 0.000000 3.051680 
# 
# 
# High freq. dielectric constant tensor:
#      x y z
#    x 1.690660 0.000000 0.000000 
#    y 0.000000 1.660790 0.000000 
#    z 0.000000 0.000000 1.659350 
# 
# From -- ./inp_files/52357.got.cif
#   From: 2010.03.12/outbox.cif.g09.slc.cpg/sg74_27_cif.got.tgz:52357.got - 2010.04.16 15:46:19.
