data_PCOD8297088
_publ_section_title
;
Structure prediction by ZEFSAII (Michael W. Deem and Ramdas Pophale) SiO2 
 PCOD8297088
Probable space group: I B C A 
;
_chemical_formula_sum "Si O2"
_cell_formula_units_Z 72
_cell_length_a 13.952962
_cell_length_b 10.729144
_cell_length_c 20.419445
_cell_angle_alpha 90.000000
_cell_angle_beta 90.000000
_cell_angle_gamma 90.000000
_cell_volume 3056.859087
_symmetry_space_group_name_H-M "I B C A "
_symmetry_group_IT_number 73
_symmetry_cell_setting 'orthorhombic'
loop_
_space_group_symop_operation_xyz
x,y,z
-x,1/2-y,z
x,-y,1/2-z
1/2-x,y,-z
-x,-y,-z
x,1/2+y,-z
-x,y,1/2+z
1/2+x,-y,z
1/2+x,1/2+y,1/2+z
1/2-x,-y,1/2+z
1/2+x,1/2-y,-z
-x,1/2+y,1/2-z
1/2-x,1/2-y,1/2-z
1/2+x,y,1/2-z
1/2-x,1/2+y,z
x,1/2-y,1/2+z
loop_
_atom_site_type_symbol
_atom_site_label
_atom_site_fract_x
_atom_site_fract_y
_atom_site_fract_z
Si Si1 0.500000 0.250000 0.480759
Si Si2 0.262630 0.311338 0.679646
Si Si3 0.596793 0.053278 0.391085
Si Si4 0.030578 0.392977 0.302971
Si Si5 0.678868 0.665066 0.944748
O O1 0.524275 0.139325 0.430755
O O2 0.581659 0.272703 0.532900
O O3 0.250000 0.250000 0.750000
O O4 0.161922 0.379427 0.663741
O O5 0.355922 0.400883 0.680862
O O6 0.281185 0.207435 0.625272
O O7 0.534004 0.937364 0.363560
O O8 0.669096 0.985149 0.441563
O O9 0.008421 0.500000 0.250000
O O10 0.000000 0.250000 0.282376
O O11 0.750000 0.707941 0.000000
#
# Coordination Sequence:
#
# PCOD8297088 Si02
#       5
#     8  16  16  16  16
#     4  12  28  52  78 118 158 214 270 342 412 490
#     4  12  29  52  80 122 163 213 272 342 412 494
#     4  12  29  49  83 116 163 210 277 337 417 487
#     4  12  28  50  82 116 166 212 272 337 412 493
#     4  12  27  50  80 117 161 211 273 332 410 486
#
# _framework density 23.553588999999999
#
# number of rings (size 3 to 8) (size 9 to 14) (size 15 to 20)
#    0.000    0.000    4.444    3.333   14.000    0.000 
#    0.000    0.000    0.000    0.000    0.000    0.000 
#    0.000    0.000    0.000    0.000    0.000    0.000 
#
# Total GULP energy -446185.744998 kJ/mol
# GULP energy per Si atom -12394.048472 kJ/mol
# Density = 2.349998 g / cm^3
# Si number density = 23.553589 Si / 1000 Ang^3
#
#
#
# Elastic Constant Matrix: (Units=GPa)
#
#
# Indices 1 2 3 4 5 6 
#
# 1 133.0837 36.8254 54.4913 0.0000 0.0000 0.0000
# 2 36.8254 139.9568 57.4485 0.0000 0.0000 0.0000
# 3 54.4913 57.4485 145.7747 0.0000 0.0000 0.0000
# 4 0.0000 0.0000 0.0000 35.3568 0.0000 0.0000
# 5 0.0000 0.0000 0.0000 0.0000 34.6343 0.0000
# 6 0.0000 0.0000 0.0000 0.0000 0.0000 78.3887
#
#
#
# Elastic Compliance Matrix: (Units=1/GPa)
#
#
# Indices 1 2 3 4 5 6 
#
# 1 0.009033 -0.001182 -0.002911 0.000000 0.000000 0.000000
# 2 -0.001182 0.008679 -0.002978 0.000000 0.000000 0.000000
# 3 -0.002911 -0.002978 0.009122 0.000000 0.000000 0.000000
# 4 0.000000 0.000000 0.000000 0.028283 0.000000 0.000000
# 5 0.000000 0.000000 0.000000 0.000000 0.028873 0.000000
# 6 0.000000 0.000000 0.000000 0.000000 0.000000 0.012757
#
#
# Mechanical properties :
#
#
# Convention : Reuss Voigt Hill
#
# Bulk Modulus (GPa) = 78.79527 79.59398 79.19462
# Shear Modulus (GPa) = 43.43337 47.67929 45.55633
#
# Velocity S-wave (km/s) = 4.29887 4.50409 4.40268
# Velocity P-wave (km/s) = 7.62670 7.80482 7.71627
#
# Compressibility (1/GPa) = 0.01269112
#
# Stress axis : x y z
#
# Youngs Moduli (GPa) = 110.70588 115.22620 109.62883
#
# Poissons Ratio (x) = 0.13619 0.31910
# Poissons Ratio (y) = 0.13085 0.32651
# Poissons Ratio (z) = 0.32224 0.34318
#
# Static dielectric constant tensor:
#      x y z
#    x 4.566690 0.000000 0.000000 
#    y 0.000000 4.276220 0.000000 
#    z 0.000000 0.000000 4.299350 
# 
# 
# High freq. dielectric constant tensor:
#      x y z
#    x 1.954790 0.000000 0.000000 
#    y 0.000000 1.935780 0.000000 
#    z 0.000000 0.000000 1.943230 
# 
# From -- ./inp_files/25866.got.cif
#   From: 2010.03.12/outbox.cif.g09.slc.cpg/sg73_13_cif.got.tgz:25866.got - 2010.04.16 15:25:48.
