data_PCOD8297681
_publ_section_title
;
Structure prediction by ZEFSAII (Michael W. Deem and Ramdas Pophale) SiO2 
 PCOD8297681
Probable space group: I M M A
;
_chemical_formula_sum "Si O2"
_cell_formula_units_Z 112
_cell_length_a 22.892441
_cell_length_b 23.172918
_cell_length_c 12.515814
_cell_angle_alpha 90.000000
_cell_angle_beta 90.000000
_cell_angle_gamma 90.000000
_cell_volume 6639.447311
_symmetry_space_group_name_H-M "I M M A"
_symmetry_group_IT_number 74
_symmetry_cell_setting 'orthorhombic'
loop_
_space_group_symop_operation_xyz
x,y,z
-x,1/2-y,z
x,-y,-z
-x,1/2+y,-z
-x,-y,-z
x,1/2+y,-z
-x,y,z
x,1/2-y,z
1/2+x,1/2+y,1/2+z
1/2-x,-y,1/2+z
1/2+x,1/2-y,1/2-z
1/2-x,y,1/2-z
1/2-x,1/2-y,1/2-z
1/2+x,y,1/2-z
1/2-x,1/2+y,1/2+z
1/2+x,-y,1/2+z
loop_
_atom_site_type_symbol
_atom_site_label
_atom_site_fract_x
_atom_site_fract_y
_atom_site_fract_z
Si Si1 0.772376 0.129874 0.403587
Si Si2 0.325769 0.991086 0.880281
Si Si3 0.935923 0.005905 0.237805
Si Si4 0.874367 0.940914 0.064932
Si Si5 0.935533 0.377095 0.111980
Si Si6 0.333687 0.183062 0.282892
Si Si7 0.748642 0.398868 0.864854
O O1 0.782502 0.063427 0.370918
O O2 0.708472 0.146306 0.360297
O O3 0.820647 0.168887 0.342170
O O4 0.776335 0.137939 0.533391
O O5 0.387007 0.979774 0.823738
O O6 0.292583 0.046894 0.836330
O O7 0.345274 0.000000 0.000000
O O8 0.916260 0.951665 0.166016
O O9 0.000000 0.991963 0.288538
O O10 0.942302 0.061318 0.164976
O O11 0.811532 0.920865 0.102229
O O12 0.902879 0.888064 0.999879
O O13 0.865753 0.000000 0.000000
O O14 0.899810 0.333135 0.187379
O O15 0.000000 0.350146 0.093086
O O16 0.322267 0.250000 0.303635
O O17 0.750000 0.364154 0.750000
#
# Coordination Sequence:
#
# PCOD8297681 Si02
#       7
#    16  16  16  16  16  16  16
#     4  10  20  34  49  74 107 134 166 218 262 307
#     4  10  20  29  47  74 101 139 175 204 254 304
#     4  10  19  31  47  69 105 143 174 205 250 317
#     4  10  18  30  47  74 105 142 172 205 255 315
#     4  10  20  34  52  75 104 136 170 213 263 310
#     4  11  22  35  57  77  99 135 172 216 266 314
#     4  11  20  29  51  80 105 137 175 210 251 313
#
# _framework density 16.868874000000002
#
# number of rings (size 3 to 8) (size 9 to 14) (size 15 to 20)
#    0.000    1.714    4.286    2.571    4.000    2.286 
#    0.000    0.000    0.000    1.714    0.000    0.000 
#    0.000    0.000    0.000    0.000    0.000    0.000 
#
# Total GULP energy -694024.478888 kJ/mol
# GULP energy per Si atom -12393.294266 kJ/mol
# Density = 1.683048 g / cm^3
# Si number density = 16.868874 Si / 1000 Ang^3
#
#
#
# Elastic Constant Matrix: (Units=GPa)
#
#
# Indices 1 2 3 4 5 6 
#
# 1 105.7312 18.6526 36.4281 0.0000 0.0000 0.0000
# 2 18.6526 43.8349 24.6206 0.0000 0.0000 0.0000
# 3 36.4281 24.6206 109.2370 0.0000 0.0000 0.0000
# 4 0.0000 0.0000 0.0000 13.9735 0.0000 0.0000
# 5 0.0000 0.0000 0.0000 0.0000 -123.4611 0.0000
# 6 0.0000 0.0000 0.0000 0.0000 0.0000 6.0178
#
#
#
# Elastic Compliance Matrix: (Units=1/GPa)
#
#
# Indices 1 2 3 4 5 6 
#
# 1 0.011021 -0.003006 -0.002998 0.000000 0.000000 0.000000
# 2 -0.003006 0.026939 -0.005069 0.000000 0.000000 0.000000
# 3 -0.002998 -0.005069 0.011297 0.000000 0.000000 0.000000
# 4 0.000000 0.000000 0.000000 0.071564 0.000000 0.000000
# 5 0.000000 0.000000 0.000000 0.000000 -0.008100 0.000000
# 6 0.000000 0.000000 0.000000 0.000000 0.000000 0.166174
#
#
# Mechanical properties :
#
#
# Convention : Reuss Voigt Hill
#
# Bulk Modulus (GPa) = 36.88556 46.46730 41.67643
# Shear Modulus (GPa) = 16.12495 -8.75383 3.68556
#
# Velocity S-wave (km/s) = 3.09512 -2.28048 1.47972
# Velocity P-wave (km/s) = 5.88953 4.54663 5.26110
#
# Compressibility (1/GPa) = 0.02711088
#
# Stress axis : x y z
#
# Youngs Moduli (GPa) = 90.73522 37.12057 88.52173
#
# Poissons Ratio (x) = 0.11158 0.26537
# Poissons Ratio (y) = 0.27274 0.44875
# Poissons Ratio (z) = 0.27201 0.18818
#
# Static dielectric constant tensor:
#      x y z
#    x 3.346780 0.000000 0.000000 
#    y 0.000000 2.860640 0.000000 
#    z 0.000000 0.000000 3.400760 
# 
# 
# High freq. dielectric constant tensor:
#      x y z
#    x 1.657160 0.000000 0.000000 
#    y 0.000000 1.602790 0.000000 
#    z 0.000000 0.000000 1.651430 
# 
# From -- ./inp_files/25365.got.cif
#   From: 2010.03.12/outbox.cif.g09.slc.cpg/sg74_13_cif.got.tgz:25365.got - 2010.04.16 15:46:19.
