data_PCOD8297661
_publ_section_title
;
Structure prediction by ZEFSAII (Michael W. Deem and Ramdas Pophale) SiO2 
 PCOD8297661
Probable space group: I M M A
;
_chemical_formula_sum "Si O2"
_cell_formula_units_Z 104
_cell_length_a 27.300582
_cell_length_b 8.698829
_cell_length_c 24.217903
_cell_angle_alpha 90.000000
_cell_angle_beta 90.000000
_cell_angle_gamma 90.000000
_cell_volume 5751.342545
_symmetry_space_group_name_H-M "I M M A"
_symmetry_group_IT_number 74
_symmetry_cell_setting 'orthorhombic'
loop_
_space_group_symop_operation_xyz
x,y,z
-x,1/2-y,z
x,-y,-z
-x,1/2+y,-z
-x,-y,-z
x,1/2+y,-z
-x,y,z
x,1/2-y,z
1/2+x,1/2+y,1/2+z
1/2-x,-y,1/2+z
1/2+x,1/2-y,1/2-z
1/2-x,y,1/2-z
1/2-x,1/2-y,1/2-z
1/2+x,y,1/2-z
1/2-x,1/2+y,1/2+z
1/2+x,-y,1/2+z
loop_
_atom_site_type_symbol
_atom_site_label
_atom_site_fract_x
_atom_site_fract_y
_atom_site_fract_z
Si Si1 0.197229 0.427975 0.738481
Si Si2 0.099752 0.069125 0.059325
Si Si3 0.873973 0.572250 0.162218
Si Si4 0.000000 0.066807 0.939102
Si Si5 0.555991 0.931635 0.940425
Si Si6 0.612193 0.431693 0.839674
Si Si7 0.557196 0.422942 0.256449
O O1 0.205503 0.250000 0.725286
O O2 0.250000 0.508729 0.750000
O O3 0.169976 0.453771 0.795833
O O4 0.164492 0.492394 0.686630
O O5 0.096307 0.250000 0.053004
O O6 0.139669 0.015304 0.104748
O O7 0.049824 0.999928 0.086555
O O8 0.113208 0.000000 0.000000
O O9 0.883629 0.750000 0.149879
O O10 0.922266 0.496908 0.188002
O O11 0.000000 0.250000 0.938052
O O12 0.000000 0.000000 0.000000
O O13 0.500000 0.979117 0.923559
O O14 0.560406 0.750000 0.943501
O O15 0.597036 0.991674 0.897578
O O16 0.569161 0.000000 0.000000
O O17 0.614080 0.250000 0.848060
O O18 0.570269 0.472769 0.796010
O O19 0.500000 0.420021 0.263649
O O20 0.577759 0.250000 0.247789
#
# Coordination Sequence:
#
# PCOD8297661 Si02
#       7
#    16  16  16   8  16  16  16
#     4   8  16  33  56  79 101 127 163 209 262 315
#     4  11  21  34  50  69  98 132 168 206 247 292
#     4  10  20  33  51  75  99 127 166 209 255 305
#     4  10  18  30  46  66  92 126 168 204 235 276
#     4  10  20  33  50  74 107 146 182 214 250 298
#     4  10  19  31  51  77 103 133 170 211 257 307
#     4  10  20  32  46  67  99 136 170 205 248 297
#
# _framework density 18.082735
#
# number of rings (size 3 to 8) (size 9 to 14) (size 15 to 20)
#    0.000    2.154    0.000    6.231    1.077    4.000 
#    0.000    0.000    0.000   17.538    0.000    0.000 
#    0.000    0.000    0.000    0.000    0.000    0.000 
#
# Total GULP energy -644339.987902 kJ/mol
# GULP energy per Si atom -12391.153613 kJ/mol
# Density = 1.804158 g / cm^3
# Si number density = 18.082735 Si / 1000 Ang^3
#
#
#
# Elastic Constant Matrix: (Units=GPa)
#
#
# Indices 1 2 3 4 5 6 
#
# 1 87.5674 40.9493 54.6818 0.0000 0.0000 0.0000
# 2 40.9493 97.5347 43.7939 0.0000 0.0000 0.0000
# 3 54.6818 43.7939 130.8609 0.0000 0.0000 0.0000
# 4 0.0000 0.0000 0.0000 34.6458 0.0000 0.0000
# 5 0.0000 0.0000 0.0000 0.0000 15.1310 0.0000
# 6 0.0000 0.0000 0.0000 0.0000 0.0000 12.4277
#
#
#
# Elastic Compliance Matrix: (Units=1/GPa)
#
#
# Indices 1 2 3 4 5 6 
#
# 1 0.017086 -0.004669 -0.005577 0.000000 0.000000 0.000000
# 2 -0.004669 0.013342 -0.002514 0.000000 0.000000 0.000000
# 3 -0.005577 -0.002514 0.010813 0.000000 0.000000 0.000000
# 4 0.000000 0.000000 0.000000 0.028864 0.000000 0.000000
# 5 0.000000 0.000000 0.000000 0.000000 0.066090 0.000000
# 6 0.000000 0.000000 0.000000 0.000000 0.000000 0.080465
#
#
# Mechanical properties :
#
#
# Convention : Reuss Voigt Hill
#
# Bulk Modulus (GPa) = 63.60939 66.09032 64.84986
# Shear Modulus (GPa) = 20.20857 24.21011 22.20934
#
# Velocity S-wave (km/s) = 3.34662 3.66300 3.50838
# Velocity P-wave (km/s) = 7.08424 7.38365 7.23549
#
# Compressibility (1/GPa) = 0.01572095
#
# Stress axis : x y z
#
# Youngs Moduli (GPa) = 58.52822 74.95197 92.47816
#
# Poissons Ratio (x) = 0.34997 0.51574
# Poissons Ratio (y) = 0.27328 0.23248
# Poissons Ratio (z) = 0.32640 0.18842
#
# Static dielectric constant tensor:
#      x y z
#    x 3.791450 0.000000 0.000000 
#    y 0.000000 3.402900 0.000000 
#    z 0.000000 0.000000 3.648280 
# 
# 
# High freq. dielectric constant tensor:
#      x y z
#    x 1.666940 0.000000 0.000000 
#    y 0.000000 1.703620 0.000000 
#    z 0.000000 0.000000 1.707100 
# 
# From -- ./inp_files/57577.got.cif
#   From: 2010.03.12/outbox.cif.g09.slc.cpg/sg74_29_cif.got.tgz:57577.got - 2010.04.16 15:46:19.
