data_PCOD8297138
_publ_section_title
;
Structure prediction by ZEFSAII (Michael W. Deem and Ramdas Pophale) SiO2 
 PCOD8297138
Probable space group: I M M A
;
_chemical_formula_sum "Si O2"
_cell_formula_units_Z 128
_cell_length_a 19.995417
_cell_length_b 18.625554
_cell_length_c 19.680115
_cell_angle_alpha 90.000000
_cell_angle_beta 90.000000
_cell_angle_gamma 90.000000
_cell_volume 7329.380981
_symmetry_space_group_name_H-M "I M M A"
_symmetry_group_IT_number 74
_symmetry_cell_setting 'orthorhombic'
loop_
_space_group_symop_operation_xyz
x,y,z
-x,1/2-y,z
x,-y,-z
-x,1/2+y,-z
-x,-y,-z
x,1/2+y,-z
-x,y,z
x,1/2-y,z
1/2+x,1/2+y,1/2+z
1/2-x,-y,1/2+z
1/2+x,1/2-y,1/2-z
1/2-x,y,1/2-z
1/2-x,1/2-y,1/2-z
1/2+x,y,1/2-z
1/2-x,1/2+y,1/2+z
1/2+x,-y,1/2+z
loop_
_atom_site_type_symbol
_atom_site_label
_atom_site_fract_x
_atom_site_fract_y
_atom_site_fract_z
Si Si1 0.759999 0.904526 0.432768
Si Si2 0.138055 0.829316 0.893602
Si Si3 0.799826 0.333324 0.805376
Si Si4 0.348981 0.951769 0.703066
Si Si5 0.383939 0.077058 0.516419
Si Si6 0.799617 0.964270 0.649933
Si Si7 0.424983 0.414359 0.662075
Si Si8 0.790527 0.329996 0.436512
O O1 0.732549 0.848576 0.377796
O O2 0.695402 0.936422 0.471357
O O3 0.802807 0.858285 0.486695
O O4 0.807635 0.967205 0.400665
O O5 0.107263 0.750000 0.882492
O O6 0.132903 0.870962 0.821163
O O7 0.213229 0.822510 0.919112
O O8 0.099072 0.870385 0.953753
O O9 0.808926 0.250000 0.793210
O O10 0.750000 0.367854 0.750000
O O11 0.872758 0.367873 0.794200
O O12 0.277648 0.970532 0.670737
O O13 0.347327 0.964052 0.784047
O O14 0.405006 0.002481 0.670284
O O15 0.419614 0.108846 0.583260
O O16 0.415975 0.000000 0.500000
O O17 0.820921 0.889896 0.613804
O O18 0.500000 0.400850 0.688823
O O19 0.823442 0.250000 0.427952
#
# Coordination Sequence:
#
# PCOD8297138 Si02
#       8
#    16  16  16  16  16  16  16  16
#     4  10  16  26  46  68  96 127 162 207 252 303
#     4   9  17  29  45  65  92 129 171 214 260 300
#     4  10  20  34  52  73  99 134 173 209 250 305
#     4  10  18  31  46  68  92 126 169 217 254 303
#     4  10  16  29  46  64  89 129 174 214 244 293
#     4  10  17  27  49  67  91 127 171 207 253 312
#     4  11  22  33  50  73 101 132 170 217 259 297
#     4   9  17  26  39  67 100 126 155 205 267 312
#
# _framework density 17.463957000000001
#
# number of rings (size 3 to 8) (size 9 to 14) (size 15 to 20)
#    0.000    2.125    3.750    3.000    0.000    4.000 
#    0.000    2.500    0.000    1.125    0.000    0.000 
#    0.000    8.000    0.000    2.250    0.000    0.000 
#
# Total GULP energy -793167.606413 kJ/mol
# GULP energy per Si atom -12393.243850 kJ/mol
# Density = 1.742421 g / cm^3
# Si number density = 17.463957 Si / 1000 Ang^3
#
#
#
# Elastic Constant Matrix: (Units=GPa)
#
#
# Indices 1 2 3 4 5 6 
#
# 1 50.8554 24.0592 27.3556 0.0000 0.0000 0.0000
# 2 24.0592 111.8419 38.7629 0.0000 0.0000 0.0000
# 3 27.3556 38.7629 87.5561 0.0000 0.0000 0.0000
# 4 0.0000 0.0000 0.0000 26.4758 0.0000 0.0000
# 5 0.0000 0.0000 0.0000 0.0000 8.8787 0.0000
# 6 0.0000 0.0000 0.0000 0.0000 0.0000 6.0323
#
#
#
# Elastic Compliance Matrix: (Units=1/GPa)
#
#
# Indices 1 2 3 4 5 6 
#
# 1 0.024509 -0.003093 -0.006288 0.000000 0.000000 0.000000
# 2 -0.003093 0.010952 -0.003882 0.000000 0.000000 0.000000
# 3 -0.006288 -0.003882 0.015105 0.000000 0.000000 0.000000
# 4 0.000000 0.000000 0.000000 0.037770 0.000000 0.000000
# 5 0.000000 0.000000 0.000000 0.000000 0.112629 0.000000
# 6 0.000000 0.000000 0.000000 0.000000 0.000000 0.165774
#
#
# Mechanical properties :
#
#
# Convention : Reuss Voigt Hill
#
# Bulk Modulus (GPa) = 41.59908 47.84540 44.72224
# Shear Modulus (GPa) = 12.46014 18.94909 15.70462
#
# Velocity S-wave (km/s) = 2.67400 3.29757 3.00202
# Velocity P-wave (km/s) = 5.77974 6.47725 6.13841
#
# Compressibility (1/GPa) = 0.02403900
#
# Stress axis : x y z
#
# Youngs Moduli (GPa) = 40.80076 91.30646 66.20442
#
# Poissons Ratio (x) = 0.28241 0.41631
# Poissons Ratio (y) = 0.12620 0.25703
# Poissons Ratio (z) = 0.25657 0.35449
#
# Static dielectric constant tensor:
#      x y z
#    x 2.630540 0.000000 0.000000 
#    y 0.000000 3.470890 0.000000 
#    z 0.000000 0.000000 3.400740 
# 
# 
# High freq. dielectric constant tensor:
#      x y z
#    x 1.591600 0.000000 0.000000 
#    y 0.000000 1.687260 0.000000 
#    z 0.000000 0.000000 1.676840 
# 
# From -- ./inp_files/53450.got.cif
#   From: 2010.03.12/outbox.cif.g09.slc.cpg/sg74_27_cif.got.tgz:53450.got - 2010.04.16 15:46:19.
