data_PCOD8297918
_publ_section_title
;
Structure prediction by ZEFSAII (Michael W. Deem and Ramdas Pophale) SiO2 
 PCOD8297918
Probable space group: I M M A
;
_chemical_formula_sum "Si O2"
_cell_formula_units_Z 104
_cell_length_a 27.275189
_cell_length_b 8.788801
_cell_length_c 24.216497
_cell_angle_alpha 90.000000
_cell_angle_beta 90.000000
_cell_angle_gamma 90.000000
_cell_volume 5805.086841
_symmetry_space_group_name_H-M "I M M A"
_symmetry_group_IT_number 74
_symmetry_cell_setting 'orthorhombic'
loop_
_space_group_symop_operation_xyz
x,y,z
-x,1/2-y,z
x,-y,-z
-x,1/2+y,-z
-x,-y,-z
x,1/2+y,-z
-x,y,z
x,1/2-y,z
1/2+x,1/2+y,1/2+z
1/2-x,-y,1/2+z
1/2+x,1/2-y,1/2-z
1/2-x,y,1/2-z
1/2-x,1/2-y,1/2-z
1/2+x,y,1/2-z
1/2-x,1/2+y,1/2+z
1/2+x,-y,1/2+z
loop_
_atom_site_type_symbol
_atom_site_label
_atom_site_fract_x
_atom_site_fract_y
_atom_site_fract_z
Si Si1 0.599934 0.568082 0.060887
Si Si2 0.173804 0.570272 0.646100
Si Si3 0.355545 0.926298 0.732689
Si Si4 0.945823 0.573286 0.836109
Si Si5 0.941561 0.580168 0.053988
Si Si6 0.266645 0.922684 0.312846
Si Si7 0.000000 0.567224 0.561009
O O1 0.595830 0.750000 0.057480
O O2 0.645909 0.519828 0.098110
O O3 0.550061 0.497617 0.088460
O O4 0.608167 0.500000 0.000000
O O5 0.169661 0.750000 0.635577
O O6 0.150255 0.518313 0.704414
O O7 0.230895 0.519839 0.647247
O O8 0.341574 0.750000 0.728812
O O9 0.411612 0.960553 0.716322
O O10 0.321585 0.011281 0.687631
O O11 0.949070 0.750000 0.849105
O O12 0.922426 0.498609 0.890497
O O13 0.000000 0.507649 0.822497
O O14 0.921500 0.750000 0.053897
O O15 0.000000 0.571977 0.052445
O O16 0.919188 0.500000 0.000000
O O17 0.266685 0.750000 0.334166
O O18 0.250000 0.936955 0.250000
O O19 0.000000 0.500000 0.500000
O O20 0.000000 0.750000 0.562133
#
# Coordination Sequence:
#
# PCOD8297918 Si02
#       7
#    16  16  16  16  16  16   8
#     4  11  21  35  54  77 106 138 176 219 265 314
#     4  10  19  33  52  77 103 131 170 213 257 308
#     4   9  18  32  50  73 101 135 171 208 253 305
#     4   9  17  30  47  68  98 132 165 199 240 291
#     4   9  16  26  42  64  88 117 156 197 235 273
#     4   9  17  30  50  74  97 125 161 205 251 295
#     4  10  18  32  52  74 100 134 174 214 257 306
#
# _framework density 17.915322
#
# number of rings (size 3 to 8) (size 9 to 14) (size 15 to 20)
#    0.000    2.462    0.000    4.385    0.000    4.923 
#    1.385    0.000    0.000    0.923    0.000    2.154 
#    0.000    0.000    0.000    0.000    0.000    0.000 
#
# Total GULP energy -644589.896350 kJ/mol
# GULP energy per Si atom -12395.959545 kJ/mol
# Density = 1.787455 g / cm^3
# Si number density = 17.915322 Si / 1000 Ang^3
#
#
#
# Elastic Constant Matrix: (Units=GPa)
#
#
# Indices 1 2 3 4 5 6 
#
# 1 86.3674 41.5486 41.8387 0.0000 0.0000 0.0000
# 2 41.5486 103.9317 35.2060 0.0000 0.0000 0.0000
# 3 41.8387 35.2060 70.7438 0.0000 0.0000 0.0000
# 4 0.0000 0.0000 0.0000 25.5513 0.0000 0.0000
# 5 0.0000 0.0000 0.0000 0.0000 25.1430 0.0000
# 6 0.0000 0.0000 0.0000 0.0000 0.0000 26.8097
#
#
#
# Elastic Compliance Matrix: (Units=1/GPa)
#
#
# Indices 1 2 3 4 5 6 
#
# 1 0.017652 -0.004234 -0.008332 0.000000 0.000000 0.000000
# 2 -0.004234 0.012588 -0.003760 0.000000 0.000000 0.000000
# 3 -0.008332 -0.003760 0.020935 0.000000 0.000000 0.000000
# 4 0.000000 0.000000 0.000000 0.039137 0.000000 0.000000
# 5 0.000000 0.000000 0.000000 0.000000 0.039772 0.000000
# 6 0.000000 0.000000 0.000000 0.000000 0.000000 0.037300
#
#
# Mechanical properties :
#
#
# Convention : Reuss Voigt Hill
#
# Bulk Modulus (GPa) = 53.99308 55.35884 54.67596
# Shear Modulus (GPa) = 24.24696 24.99745 24.62221
#
# Velocity S-wave (km/s) = 3.68288 3.73944 3.71127
# Velocity P-wave (km/s) = 6.94897 7.04357 6.99643
#
# Compressibility (1/GPa) = 0.01852089
#
# Stress axis : x y z
#
# Youngs Moduli (GPa) = 56.65164 79.43950 47.76750
#
# Poissons Ratio (x) = 0.33636 0.39801
# Poissons Ratio (y) = 0.23987 0.17963
# Poissons Ratio (z) = 0.47204 0.29873
#
# Static dielectric constant tensor:
#      x y z
#    x 3.480830 0.000000 0.000000 
#    y 0.000000 3.389020 0.000000 
#    z 0.000000 0.000000 3.128730 
# 
# 
# High freq. dielectric constant tensor:
#      x y z
#    x 1.680070 0.000000 0.000000 
#    y 0.000000 1.703770 0.000000 
#    z 0.000000 0.000000 1.664860 
# 
# From -- ./inp_files/62334.got.cif
#   From: 2010.03.12/outbox.cif.g09.slc.cpg/sg74_32_cif.got.tgz:62334.got - 2010.04.16 15:46:19.
