data_PCOD8297371
_publ_section_title
;
Structure prediction by ZEFSAII (Michael W. Deem and Ramdas Pophale) SiO2 
 PCOD8297371
Probable space group: I M M A
;
_chemical_formula_sum "Si O2"
_cell_formula_units_Z 80
_cell_length_a 22.578675
_cell_length_b 32.581650
_cell_length_c 5.855160
_cell_angle_alpha 90.000000
_cell_angle_beta 90.000000
_cell_angle_gamma 90.000000
_cell_volume 4307.351301
_symmetry_space_group_name_H-M "I M M A"
_symmetry_group_IT_number 74
_symmetry_cell_setting 'orthorhombic'
loop_
_space_group_symop_operation_xyz
x,y,z
-x,1/2-y,z
x,-y,-z
-x,1/2+y,-z
-x,-y,-z
x,1/2+y,-z
-x,y,z
x,1/2-y,z
1/2+x,1/2+y,1/2+z
1/2-x,-y,1/2+z
1/2+x,1/2-y,1/2-z
1/2-x,y,1/2-z
1/2-x,1/2-y,1/2-z
1/2+x,y,1/2-z
1/2-x,1/2+y,1/2+z
1/2+x,-y,1/2+z
loop_
_atom_site_type_symbol
_atom_site_label
_atom_site_fract_x
_atom_site_fract_y
_atom_site_fract_z
Si Si1 0.933246 0.204290 0.673483
Si Si2 0.432501 0.374297 0.132650
Si Si3 0.750000 0.636967 0.750000
Si Si4 0.857033 0.843655 0.011233
Si Si5 0.827244 0.593547 0.386333
Si Si6 0.250000 0.022724 0.750000
O O1 0.921696 0.250000 0.574952
O O2 0.924135 0.170979 0.475817
O O3 0.886793 0.196596 0.878982
O O4 0.000000 0.200874 0.771893
O O5 0.500000 0.389558 0.129350
O O6 0.409079 0.369955 0.390061
O O7 0.392880 0.408012 0.999574
O O8 0.697192 0.666929 0.660419
O O9 0.776977 0.605842 0.566230
O O10 0.826367 0.871748 0.197216
O O11 0.809647 0.549987 0.276789
O O12 0.256873 0.000000 0.500000
#
# Coordination Sequence:
#
# PCOD8297371 Si02
#       6
#    16  16   8  16  16   8
#     4   9  18  32  48  74 109 143 188 242 290 337
#     4   9  19  33  55  81 108 150 196 236 286 339
#     4  10  17  32  55  78 111 144 188 233 284 334
#     4  10  18  30  55  76 107 146 190 231 288 336
#     4  10  20  36  57  83 116 145 185 236 281 343
#     4  12  25  38  64  96 124 148 189 239 304 358
#
# _framework density 18.572900000000001
#
# number of rings (size 3 to 8) (size 9 to 14) (size 15 to 20)
#    0.000    2.200    2.000    1.200    2.800    1.600 
#    0.000    2.500    0.000   16.800    0.000    0.000 
#    0.000    0.000    0.000    0.000    0.000    0.000 
#
# Total GULP energy -495530.817283 kJ/mol
# GULP energy per Si atom -12388.270432 kJ/mol
# Density = 1.853063 g / cm^3
# Si number density = 18.572900 Si / 1000 Ang^3
#
#
#
# Elastic Constant Matrix: (Units=GPa)
#
#
# Indices 1 2 3 4 5 6 
#
# 1 133.1870 36.2693 43.7515 0.0000 0.0000 0.0000
# 2 36.2693 77.8125 31.4998 0.0000 0.0000 0.0000
# 3 43.7515 31.4998 91.3986 0.0000 0.0000 0.0000
# 4 0.0000 0.0000 0.0000 19.2057 0.0000 0.0000
# 5 0.0000 0.0000 0.0000 0.0000 31.7691 0.0000
# 6 0.0000 0.0000 0.0000 0.0000 0.0000 22.6079
#
#
#
# Elastic Compliance Matrix: (Units=1/GPa)
#
#
# Indices 1 2 3 4 5 6 
#
# 1 0.009475 -0.002999 -0.003502 0.000000 0.000000 0.000000
# 2 -0.002999 0.015884 -0.004039 0.000000 0.000000 0.000000
# 3 -0.003502 -0.004039 0.014010 0.000000 0.000000 0.000000
# 4 0.000000 0.000000 0.000000 0.052068 0.000000 0.000000
# 5 0.000000 0.000000 0.000000 0.000000 0.031477 0.000000
# 6 0.000000 0.000000 0.000000 0.000000 0.000000 0.044232
#
#
# Mechanical properties :
#
#
# Convention : Reuss Voigt Hill
#
# Bulk Modulus (GPa) = 54.67689 58.38214 56.52951
# Shear Modulus (GPa) = 25.73043 27.44173 26.58608
#
# Velocity S-wave (km/s) = 3.72610 3.84802 3.78755
# Velocity P-wave (km/s) = 6.92927 7.15858 7.04486
#
# Compressibility (1/GPa) = 0.01828926
#
# Stress axis : x y z
#
# Youngs Moduli (GPa) = 105.53716 62.95577 71.38007
#
# Poissons Ratio (x) = 0.18879 0.24999
# Poissons Ratio (y) = 0.31649 0.28829
# Poissons Ratio (z) = 0.36961 0.25427
#
# Static dielectric constant tensor:
#      x y z
#    x 3.728450 0.000000 0.000000 
#    y 0.000000 3.093870 0.000000 
#    z 0.000000 0.000000 3.693820 
# 
# 
# High freq. dielectric constant tensor:
#      x y z
#    x 1.734380 0.000000 0.000000 
#    y 0.000000 1.669250 0.000000 
#    z 0.000000 0.000000 1.735170 
# 
# From -- ./inp_files/3871.got.cif
#   From: 2010.03.12/outbox.cif.g09.slc.cpg/sg74_2_cif.got.tgz:3871.got - 2010.04.16 15:46:19.
