data_PCOD8297921
_publ_section_title
;
Structure prediction by ZEFSAII (Michael W. Deem and Ramdas Pophale) SiO2 
 PCOD8297921
Probable space group: I M M A
;
_chemical_formula_sum "Si O2"
_cell_formula_units_Z 72
_cell_length_a 8.617241
_cell_length_b 33.395419
_cell_length_c 14.185162
_cell_angle_alpha 90.000000
_cell_angle_beta 90.000000
_cell_angle_gamma 90.000000
_cell_volume 4082.154482
_symmetry_space_group_name_H-M "I M M A"
_symmetry_group_IT_number 74
_symmetry_cell_setting 'orthorhombic'
loop_
_space_group_symop_operation_xyz
x,y,z
-x,1/2-y,z
x,-y,-z
-x,1/2+y,-z
-x,-y,-z
x,1/2+y,-z
-x,y,z
x,1/2-y,z
1/2+x,1/2+y,1/2+z
1/2-x,-y,1/2+z
1/2+x,1/2-y,1/2-z
1/2-x,y,1/2-z
1/2-x,1/2-y,1/2-z
1/2+x,y,1/2-z
1/2-x,1/2+y,1/2+z
1/2+x,-y,1/2+z
loop_
_atom_site_type_symbol
_atom_site_label
_atom_site_fract_x
_atom_site_fract_y
_atom_site_fract_z
Si Si1 0.682986 0.595242 0.959897
Si Si2 0.682288 0.831188 0.646498
Si Si3 0.180528 0.933558 0.153641
Si Si4 0.316155 0.750000 0.854556
Si Si5 0.169703 0.988414 0.607446
O O1 0.500000 0.603546 0.956345
O O2 0.730813 0.586971 0.067362
O O3 0.777487 0.632936 0.923167
O O4 0.726952 0.557754 0.891370
O O5 0.500000 0.826225 0.656398
O O6 0.750000 0.839599 0.750000
O O7 0.752593 0.790833 0.598435
O O8 0.250000 0.915170 0.250000
O O9 0.000000 0.924114 0.145760
O O10 0.207609 0.981834 0.155785
O O11 0.500000 0.750000 0.856099
O O12 0.250000 0.750000 0.750000
O O13 0.000000 0.992923 0.656765
O O14 0.148722 0.000000 0.500000
#
# Coordination Sequence:
#
# PCOD8297921 Si02
#       5
#    16  16  16   8  16
#     4  10  20  35  52  73 101 131 167 211 254 297
#     4  11  21  34  52  76 104 134 166 201 245 297
#     4  11  21  33  50  71  97 132 172 212 254 299
#     4  10  18  32  52  74 101 132 163 198 242 294
#     4   8  16  31  48  65  90 123 159 202 248 291
#
# _framework density 17.637744000000001
#
# number of rings (size 3 to 8) (size 9 to 14) (size 15 to 20)
#    0.000    2.000    0.000    8.333    0.000    5.778 
#    0.000    0.000    0.000    0.000    0.000    0.778 
#    0.000    0.000    0.000    0.000    0.000    0.000 
#
# Total GULP energy -446233.060404 kJ/mol
# GULP energy per Si atom -12395.362789 kJ/mol
# Density = 1.759760 g / cm^3
# Si number density = 17.637744 Si / 1000 Ang^3
#
#
#
# Elastic Constant Matrix: (Units=GPa)
#
#
# Indices 1 2 3 4 5 6 
#
# 1 120.0199 34.3724 20.7801 0.0001 0.0000 0.0000
# 2 34.3724 115.7659 25.3803 0.0002 0.0001 0.0000
# 3 20.7801 25.3803 59.0037 0.0006 0.0002 0.0001
# 4 0.0001 0.0002 0.0006 16.0712 0.0001 0.0000
# 5 0.0000 0.0001 0.0002 0.0001 26.5508 0.0001
# 6 0.0000 0.0000 0.0001 0.0000 0.0001 26.4565
#
#
#
# Elastic Compliance Matrix: (Units=1/GPa)
#
#
# Indices 1 2 3 4 5 6 
#
# 1 0.009387 -0.002277 -0.002326 0.000000 0.000000 0.000000
# 2 -0.002277 0.010090 -0.003538 0.000000 0.000000 0.000000
# 3 -0.002326 -0.003538 0.019289 -0.000001 0.000000 0.000000
# 4 0.000000 0.000000 -0.000001 0.062223 0.000000 0.000000
# 5 0.000000 0.000000 0.000000 0.000000 0.037664 0.000000
# 6 0.000000 0.000000 0.000000 0.000000 0.000000 0.037798
#
#
# Mechanical properties :
#
#
# Convention : Reuss Voigt Hill
#
# Bulk Modulus (GPa) = 44.47848 50.65057 47.56452
# Shear Modulus (GPa) = 24.97149 28.09949 26.53549
#
# Velocity S-wave (km/s) = 3.76679 3.99575 3.88296
# Velocity P-wave (km/s) = 6.64762 7.07584 6.86507
#
# Compressibility (1/GPa) = 0.02248278
#
# Stress axis : x y z
#
# Youngs Moduli (GPa) = 106.53184 99.10887 51.84198
#
# Poissons Ratio (x) = 0.22567 0.12061
# Poissons Ratio (y) = 0.24258 0.18343
# Poissons Ratio (z) = 0.24784 0.35067
#
# Static dielectric constant tensor:
#      x y z
#    x 3.330020 0.000000 0.000000 
#    y 0.000000 3.793310 0.000000 
#    z 0.000000 0.000000 3.060390 
# 
# 
# High freq. dielectric constant tensor:
#      x y z
#    x 1.697860 0.000000 0.000000 
#    y 0.000000 1.671890 0.000000 
#    z 0.000000 0.000000 1.653190 
# 
# From -- ./inp_files/29373.got.cif
#   From: 2010.03.12/outbox.cif.g09.slc.cpg/sg74_15_cif.got.tgz:29373.got - 2010.04.16 15:46:19.
