data_PCOD8297863
_publ_section_title
;
Structure prediction by ZEFSAII (Michael W. Deem and Ramdas Pophale) SiO2 
 PCOD8297863
Probable space group: I M M A
;
_chemical_formula_sum "Si O2"
_cell_formula_units_Z 80
_cell_length_a 18.693306
_cell_length_b 13.237548
_cell_length_c 19.260579
_cell_angle_alpha 90.000000
_cell_angle_beta 90.000000
_cell_angle_gamma 90.000000
_cell_volume 4766.098368
_symmetry_space_group_name_H-M "I M M A"
_symmetry_group_IT_number 74
_symmetry_cell_setting 'orthorhombic'
loop_
_space_group_symop_operation_xyz
x,y,z
-x,1/2-y,z
x,-y,-z
-x,1/2+y,-z
-x,-y,-z
x,1/2+y,-z
-x,y,z
x,1/2-y,z
1/2+x,1/2+y,1/2+z
1/2-x,-y,1/2+z
1/2+x,1/2-y,1/2-z
1/2-x,y,1/2-z
1/2-x,1/2-y,1/2-z
1/2+x,y,1/2-z
1/2-x,1/2+y,1/2+z
1/2+x,-y,1/2+z
loop_
_atom_site_type_symbol
_atom_site_label
_atom_site_fract_x
_atom_site_fract_y
_atom_site_fract_z
Si Si1 0.785304 0.479637 0.424164
Si Si2 0.579876 0.633491 0.894069
Si Si3 0.688675 0.633644 0.192980
Si Si4 0.580883 0.479273 0.246802
Si Si5 0.199112 0.367111 0.185254
O O1 0.751960 0.500000 0.500000
O O2 0.864872 0.434973 0.436798
O O3 0.786296 0.581521 0.378570
O O4 0.738214 0.394788 0.386102
O O5 0.500000 0.614390 0.923476
O O6 0.601834 0.750000 0.900763
O O7 0.583581 0.604473 0.813324
O O8 0.672806 0.750000 0.176768
O O9 0.750000 0.620068 0.250000
O O10 0.615485 0.583991 0.220759
O O11 0.500000 0.501319 0.271422
O O12 0.626245 0.432064 0.310074
O O13 0.179833 0.250000 0.185168
O O14 0.250000 0.396918 0.250000
#
# Coordination Sequence:
#
# PCOD8297863 Si02
#       5
#    16  16  16  16  16
#     4  11  21  33  50  75 107 140 175 212 256 303
#     4   9  17  30  49  75 105 134 165 206 257 308
#     4  10  19  35  54  73 101 137 178 216 251 298
#     4  10  18  31  53  81 106 129 165 215 266 308
#     4  11  19  33  56  80 103 130 170 219 266 308
#
# _framework density 16.785218
#
# number of rings (size 3 to 8) (size 9 to 14) (size 15 to 20)
#    0.000    1.800    6.000    1.200    0.000    3.600 
#    0.000    0.000    0.000    0.600    0.000    0.000 
#    0.000    0.000    0.000    0.000    0.000    0.000 
#
# Total GULP energy -496028.722613 kJ/mol
# GULP energy per Si atom -12400.718065 kJ/mol
# Density = 1.674701 g / cm^3
# Si number density = 16.785218 Si / 1000 Ang^3
#
#
#
# Elastic Constant Matrix: (Units=GPa)
#
#
# Indices 1 2 3 4 5 6 
#
# 1 89.7539 35.0854 32.6301 0.0000 0.0000 0.0000
# 2 35.0854 109.4270 33.3946 0.0000 0.0000 0.0000
# 3 32.6301 33.3946 87.1266 0.0000 0.0000 0.0000
# 4 0.0000 0.0000 0.0000 13.9487 0.0000 0.0000
# 5 0.0000 0.0000 0.0000 0.0000 14.7190 0.0000
# 6 0.0000 0.0000 0.0000 0.0000 0.0000 23.0076
#
#
#
# Elastic Compliance Matrix: (Units=1/GPa)
#
#
# Indices 1 2 3 4 5 6 
#
# 1 0.013839 -0.003234 -0.003944 0.000000 0.000000 0.000000
# 2 -0.003234 0.011105 -0.003045 0.000000 0.000000 0.000000
# 3 -0.003944 -0.003045 0.014122 0.000000 0.000000 0.000000
# 4 0.000000 0.000000 0.000000 0.071691 0.000000 0.000000
# 5 0.000000 0.000000 0.000000 0.000000 0.067939 0.000000
# 6 0.000000 0.000000 0.000000 0.000000 0.000000 0.043464
#
#
# Mechanical properties :
#
#
# Convention : Reuss Voigt Hill
#
# Bulk Modulus (GPa) = 53.70397 54.28087 53.99242
# Shear Modulus (GPa) = 20.09548 22.68155 21.38851
#
# Velocity S-wave (km/s) = 3.46383 3.67997 3.57353
# Velocity P-wave (km/s) = 6.93266 7.10386 7.01878
#
# Compressibility (1/GPa) = 0.01862060
#
# Stress axis : x y z
#
# Youngs Moduli (GPa) = 72.25762 90.05199 70.81329
#
# Poissons Ratio (x) = 0.29121 0.27926
# Poissons Ratio (y) = 0.23367 0.21564
# Poissons Ratio (z) = 0.28495 0.27423
#
# Static dielectric constant tensor:
#      x y z
#    x 3.330420 0.000000 0.000000 
#    y 0.000000 3.176530 0.000000 
#    z 0.000000 0.000000 2.823780 
# 
# 
# High freq. dielectric constant tensor:
#      x y z
#    x 1.641910 0.000000 0.000000 
#    y 0.000000 1.656570 0.000000 
#    z 0.000000 0.000000 1.608200 
# 
# From -- ./inp_files/43842.got.cif
#   From: 2010.03.12/outbox.cif.g09.slc.cpg/sg74_22_cif.got.tgz:43842.got - 2010.04.16 15:46:19.
