data_PCOD8297030
_publ_section_title
;
Structure prediction by ZEFSAII (Michael W. Deem and Ramdas Pophale) SiO2 
 PCOD8297030
Probable space group: I B C A 
;
_chemical_formula_sum "Si O2"
_cell_formula_units_Z 48
_cell_length_a 25.122126
_cell_length_b 8.691851
_cell_length_c 9.306461
_cell_angle_alpha 90.000000
_cell_angle_beta 90.000000
_cell_angle_gamma 90.000000
_cell_volume 2032.138126
_symmetry_space_group_name_H-M "I B C A "
_symmetry_group_IT_number 73
_symmetry_cell_setting 'orthorhombic'
loop_
_space_group_symop_operation_xyz
x,y,z
-x,1/2-y,z
x,-y,1/2-z
1/2-x,y,-z
-x,-y,-z
x,1/2+y,-z
-x,y,1/2+z
1/2+x,-y,z
1/2+x,1/2+y,1/2+z
1/2-x,-y,1/2+z
1/2+x,1/2-y,-z
-x,1/2+y,1/2-z
1/2-x,1/2-y,1/2-z
1/2+x,y,1/2-z
1/2-x,1/2+y,z
x,1/2-y,1/2+z
loop_
_atom_site_type_symbol
_atom_site_label
_atom_site_fract_x
_atom_site_fract_y
_atom_site_fract_z
Si Si1 0.601280 0.615420 0.382463
Si Si2 0.952549 0.566921 0.096298
Si Si3 0.718387 0.640668 0.352657
O O1 0.590233 0.500000 0.250000
O O2 0.600042 0.509434 0.525386
O O3 0.555285 0.747730 0.390840
O O4 0.658681 0.700675 0.384986
O O5 0.963065 0.500000 0.250000
O O6 0.000000 0.500000 0.000000
O O7 0.708605 0.500000 0.250000
O O8 0.750000 0.604230 0.500000
O O9 0.750000 0.750000 0.250000
#
# Coordination Sequence:
#
# PCOD8297030 Si02
#       3
#    16  16  16
#     4  11  27  47  76 112 152 206 256 320 396 467
#     4  12  27  48  76 108 152 199 260 322 394 470
#     4  11  27  45  74 112 158 208 267 328 396 473
#
# _framework density 23.620439999999999
#
# number of rings (size 3 to 8) (size 9 to 14) (size 15 to 20)
#    0.000    0.667    0.000    5.000   18.667    2.667 
#    0.000    0.000    0.000    0.000    0.000    0.000 
#    0.000    0.000    0.000    0.000    0.000    0.000 
#
# Total GULP energy -297357.059756 kJ/mol
# GULP energy per Si atom -12389.877490 kJ/mol
# Density = 2.356668 g / cm^3
# Si number density = 23.620440 Si / 1000 Ang^3
#
#
#
# Elastic Constant Matrix: (Units=GPa)
#
#
# Indices 1 2 3 4 5 6 
#
# 1 146.7031 51.7392 59.0293 0.0000 0.0000 0.0000
# 2 51.7392 143.9836 52.0652 0.0000 0.0000 0.0000
# 3 59.0293 52.0652 193.7428 0.0000 0.0000 0.0000
# 4 0.0000 0.0000 0.0000 48.4006 0.0000 0.0000
# 5 0.0000 0.0000 0.0000 0.0000 37.3908 0.0000
# 6 0.0000 0.0000 0.0000 0.0000 0.0000 39.1592
#
#
#
# Elastic Compliance Matrix: (Units=1/GPa)
#
#
# Indices 1 2 3 4 5 6 
#
# 1 0.008416 -0.002323 -0.001940 0.000000 0.000000 0.000000
# 2 -0.002323 0.008334 -0.001532 0.000000 0.000000 0.000000
# 3 -0.001940 -0.001532 0.006164 0.000000 0.000000 0.000000
# 4 0.000000 0.000000 0.000000 0.020661 0.000000 0.000000
# 5 0.000000 0.000000 0.000000 0.000000 0.026745 0.000000
# 6 0.000000 0.000000 0.000000 0.000000 0.000000 0.025537
#
#
# Mechanical properties :
#
#
# Convention : Reuss Voigt Hill
#
# Bulk Modulus (GPa) = 88.30065 90.01076 89.15570
# Shear Modulus (GPa) = 44.95552 46.42985 45.69269
#
# Velocity S-wave (km/s) = 4.36735 4.43839 4.40302
# Velocity P-wave (km/s) = 7.93070 8.02843 7.97971
#
# Compressibility (1/GPa) = 0.01132495
#
# Stress axis : x y z
#
# Youngs Moduli (GPa) = 118.81688 119.99267 162.22590
#
# Poissons Ratio (x) = 0.27872 0.31473
# Poissons Ratio (y) = 0.27599 0.24851
# Poissons Ratio (z) = 0.23051 0.18381
#
# Static dielectric constant tensor:
#      x y z
#    x 3.772050 0.000000 0.000000 
#    y 0.000000 9.397240 0.000000 
#    z 0.000000 0.000000 4.941850 
# 
# 
# High freq. dielectric constant tensor:
#      x y z
#    x 1.955630 0.000000 0.000000 
#    y 0.000000 1.940370 0.000000 
#    z 0.000000 0.000000 1.953490 
# 
# From -- ./inp_files/3439.got.cif
#   From: 2010.03.12/outbox.cif.g09.slc.cpg/sg73_2_cif.got.tgz:3439.got - 2010.04.16 15:25:48.
