data_PCOD8297454
_publ_section_title
;
Structure prediction by ZEFSAII (Michael W. Deem and Ramdas Pophale) SiO2 
 PCOD8297454
Probable space group: I M M A
;
_chemical_formula_sum "Si O2"
_cell_formula_units_Z 112
_cell_length_a 13.958762
_cell_length_b 17.086570
_cell_length_c 26.313327
_cell_angle_alpha 90.000000
_cell_angle_beta 90.000000
_cell_angle_gamma 90.000000
_cell_volume 6275.922262
_symmetry_space_group_name_H-M "I M M A"
_symmetry_group_IT_number 74
_symmetry_cell_setting 'orthorhombic'
loop_
_space_group_symop_operation_xyz
x,y,z
-x,1/2-y,z
x,-y,-z
-x,1/2+y,-z
-x,-y,-z
x,1/2+y,-z
-x,y,z
x,1/2-y,z
1/2+x,1/2+y,1/2+z
1/2-x,-y,1/2+z
1/2+x,1/2-y,1/2-z
1/2-x,y,1/2-z
1/2-x,1/2-y,1/2-z
1/2+x,y,1/2-z
1/2-x,1/2+y,1/2+z
1/2+x,-y,1/2+z
loop_
_atom_site_type_symbol
_atom_site_label
_atom_site_fract_x
_atom_site_fract_y
_atom_site_fract_z
Si Si1 0.111153 0.427268 0.720929
Si Si2 0.291984 0.159111 0.871161
Si Si3 0.894327 0.339517 0.819117
Si Si4 0.392021 0.343256 0.083236
Si Si5 0.265472 0.161297 0.174076
Si Si6 0.893347 0.657260 0.470934
Si Si7 0.888509 0.899492 0.757511
O O1 0.160258 0.396323 0.670332
O O2 0.150963 0.384013 0.770968
O O3 0.130945 0.518428 0.729738
O O4 0.000000 0.408159 0.715349
O O5 0.323225 0.250000 0.862817
O O6 0.176982 0.150183 0.866824
O O7 0.321570 0.128120 0.926963
O O8 0.901980 0.250000 0.802624
O O9 0.000000 0.372352 0.834054
O O10 0.500000 0.373435 0.095968
O O11 0.392231 0.250000 0.086048
O O12 0.314586 0.375981 0.123584
O O13 0.361744 0.373169 0.026819
O O14 0.231168 0.250000 0.164029
O O15 0.172995 0.109011 0.190257
O O16 0.346618 0.164088 0.218252
O O17 0.894345 0.750000 0.472776
O O18 0.000000 0.626258 0.458133
O O19 0.000000 0.885326 0.769761
#
# Coordination Sequence:
#
# PCOD8297454 Si02
#       7
#    16  16  16  16  16  16  16
#     4  10  20  31  44  65  95 128 159 193 235 281
#     4  10  18  27  46  71  96 130 166 199 229 264
#     4   9  18  30  43  63  92 128 167 200 230 266
#     4   8  14  27  48  72  97 121 148 189 239 289
#     4  10  20  32  51  73  90 120 158 192 234 291
#     4   8  14  25  43  70  99 123 152 192 236 278
#     4  10  21  33  46  69  98 126 152 189 239 285
#
# _framework density 17.845981999999999
#
# number of rings (size 3 to 8) (size 9 to 14) (size 15 to 20)
#    0.000    2.714    0.000    3.429    4.000    4.286 
#    0.000    0.000    0.000    1.714    0.000    8.000 
#    0.000    3.429    0.000    0.000    0.000    0.000 
#
# Total GULP energy -693994.628837 kJ/mol
# GULP energy per Si atom -12392.761229 kJ/mol
# Density = 1.780536 g / cm^3
# Si number density = 17.845982 Si / 1000 Ang^3
#
#
#
# Elastic Constant Matrix: (Units=GPa)
#
#
# Indices 1 2 3 4 5 6 
#
# 1 108.9453 22.3720 78.6362 0.0000 0.0000 0.0000
# 2 22.3720 34.7996 18.5637 0.0000 0.0000 0.0000
# 3 78.6362 18.5637 134.2072 0.0000 0.0000 0.0000
# 4 0.0000 0.0000 0.0000 3.7418 0.0000 0.0000
# 5 0.0000 0.0000 0.0000 0.0000 33.9043 0.0000
# 6 0.0000 0.0000 0.0000 0.0000 0.0000 18.2538
#
#
#
# Elastic Compliance Matrix: (Units=1/GPa)
#
#
# Indices 1 2 3 4 5 6 
#
# 1 0.017015 -0.006068 -0.009130 0.000000 0.000000 0.000000
# 2 -0.006068 0.033189 -0.001035 0.000000 0.000000 0.000000
# 3 -0.009130 -0.001035 0.012944 0.000000 0.000000 0.000000
# 4 0.000000 0.000000 0.000000 0.267253 0.000000 0.000000
# 5 0.000000 0.000000 0.000000 0.000000 0.029495 0.000000
# 6 0.000000 0.000000 0.000000 0.000000 0.000000 0.054783
#
#
# Mechanical properties :
#
#
# Convention : Reuss Voigt Hill
#
# Bulk Modulus (GPa) = 32.59340 57.45509 45.02424
# Shear Modulus (GPa) = 10.93196 21.73866 16.33531
#
# Velocity S-wave (km/s) = 2.47771 3.49395 3.02876
# Velocity P-wave (km/s) = 5.14672 6.96720 6.12497
#
# Compressibility (1/GPa) = 0.03068106
#
# Stress axis : x y z
#
# Youngs Moduli (GPa) = 58.77047 30.13012 77.25486
#
# Poissons Ratio (x) = 0.18284 0.70537
# Poissons Ratio (y) = 0.35663 0.07997
# Poissons Ratio (z) = 0.53660 0.03119
#
# Static dielectric constant tensor:
#      x y z
#    x 3.468550 0.000000 0.000000 
#    y 0.000000 3.033110 0.000000 
#    z 0.000000 0.000000 3.491510 
# 
# 
# High freq. dielectric constant tensor:
#      x y z
#    x 1.685920 0.000000 0.000000 
#    y 0.000000 1.665660 0.000000 
#    z 0.000000 0.000000 1.674490 
# 
# From -- ./inp_files/67209.got.cif
#   From: 2010.03.12/outbox.cif.g09.slc.cpg/sg74_34_cif.got.tgz:67209.got - 2010.04.16 15:46:19.
