data_PCOD8297364
_publ_section_title
;
Structure prediction by ZEFSAII (Michael W. Deem and Ramdas Pophale) SiO2 
 PCOD8297364
Probable space group: I M M A
;
_chemical_formula_sum "Si O2"
_cell_formula_units_Z 56
_cell_length_a 14.098397
_cell_length_b 22.506294
_cell_length_c 8.959595
_cell_angle_alpha 90.000000
_cell_angle_beta 90.000000
_cell_angle_gamma 90.000000
_cell_volume 2842.903396
_symmetry_space_group_name_H-M "I M M A"
_symmetry_group_IT_number 74
_symmetry_cell_setting 'orthorhombic'
loop_
_space_group_symop_operation_xyz
x,y,z
-x,1/2-y,z
x,-y,-z
-x,1/2+y,-z
-x,-y,-z
x,1/2+y,-z
-x,y,z
x,1/2-y,z
1/2+x,1/2+y,1/2+z
1/2-x,-y,1/2+z
1/2+x,1/2-y,1/2-z
1/2-x,y,1/2-z
1/2-x,1/2-y,1/2-z
1/2+x,y,1/2-z
1/2-x,1/2+y,1/2+z
1/2+x,-y,1/2+z
loop_
_atom_site_type_symbol
_atom_site_label
_atom_site_fract_x
_atom_site_fract_y
_atom_site_fract_z
Si Si1 0.855242 0.250000 0.691998
Si Si2 0.261580 0.750000 0.574354
Si Si3 0.000000 0.929993 0.001532
Si Si4 0.000000 0.847831 0.280249
Si Si5 0.000000 0.818442 0.602459
Si Si6 0.654367 0.860643 0.670816
O O1 0.750000 0.250000 0.750000
O O2 0.839543 0.250000 0.511846
O O3 0.906912 0.191456 0.751446
O O4 0.250000 0.750000 0.750000
O O5 0.320869 0.689331 0.544287
O O6 0.000000 0.904933 0.171684
O O7 0.905123 0.910985 0.913542
O O8 0.000000 0.000000 0.000000
O O9 0.000000 0.862742 0.458025
O O10 0.906915 0.830308 0.699301
O O11 0.000000 0.750000 0.541051
O O12 0.750000 0.886744 0.750000
#
# Coordination Sequence:
#
# PCOD8297364 Si02
#       6
#     8   8   8   8   8  16
#     4  11  21  32  52  90 126 149 181 239 324 387
#     4  10  17  31  59  92 127 152 185 240 311 385
#     4  11  26  46  60  82 123 173 223 262 300 353
#     4  11  22  36  56  85 129 154 190 254 318 370
#     4  11  19  35  58  96 132 159 191 246 317 393
#     4  10  21  38  65  92 122 165 209 250 307 382
#
# _framework density 19.698170999999999
#
# number of rings (size 3 to 8) (size 9 to 14) (size 15 to 20)
#    0.000    1.429    2.857    5.143    0.000    1.143 
#    0.000   10.000    0.000    0.000    0.000    0.000 
#    0.000    0.000    0.000    0.000    0.000    0.000 
#
# Total GULP energy -346901.288641 kJ/mol
# GULP energy per Si atom -12389.331737 kJ/mol
# Density = 1.965334 g / cm^3
# Si number density = 19.698171 Si / 1000 Ang^3
#
#
#
# Elastic Constant Matrix: (Units=GPa)
#
#
# Indices 1 2 3 4 5 6 
#
# 1 152.5949 52.3887 41.7157 -0.0001 -0.0001 0.0000
# 2 52.3887 140.6041 51.9209 -0.0002 -0.0001 0.0000
# 3 41.7157 51.9209 109.3978 -0.0016 -0.0018 0.0008
# 4 -0.0001 -0.0002 -0.0016 23.6503 0.0000 0.0001
# 5 -0.0001 -0.0001 -0.0018 0.0000 41.2795 -0.0002
# 6 0.0000 0.0000 0.0008 0.0001 -0.0002 -14.0468
#
#
#
# Elastic Compliance Matrix: (Units=1/GPa)
#
#
# Indices 1 2 3 4 5 6 
#
# 1 0.007841 -0.002204 -0.001944 0.000000 0.000000 0.000000
# 2 -0.002204 0.009243 -0.003546 0.000000 0.000000 0.000000
# 3 -0.001944 -0.003546 0.011565 0.000001 0.000000 0.000001
# 4 0.000000 0.000000 0.000001 0.042283 0.000000 0.000000
# 5 0.000000 0.000000 0.000000 0.000000 0.024225 0.000000
# 6 0.000000 0.000000 0.000001 0.000000 0.000000 -0.071191
#
#
# Mechanical properties :
#
#
# Convention : Reuss Voigt Hill
#
# Bulk Modulus (GPa) = 75.40870 77.18304 76.29587
# Shear Modulus (GPa) = 114.21797 27.28136 70.74967
#
# Velocity S-wave (km/s) = 7.62299 3.72556 5.99957
# Velocity P-wave (km/s) = 10.76314 7.60094 9.31717
#
# Compressibility (1/GPa) = 0.01326107
#
# Stress axis : x y z
#
# Youngs Moduli (GPa) = 127.52868 108.19178 86.46451
#
# Poissons Ratio (x) = 0.23843 0.16810
# Poissons Ratio (y) = 0.28104 0.30664
# Poissons Ratio (z) = 0.24794 0.38369
#
# Static dielectric constant tensor:
#      x y z
#    x 3.732540 0.000000 0.000340 
#    y 0.000000 3.556150 0.000020 
#    z 0.000340 0.000020 19.796600 
# 
# 
# High freq. dielectric constant tensor:
#      x y z
#    x 1.801550 0.000000 0.000000 
#    y 0.000000 1.704380 0.000000 
#    z 0.000000 0.000000 1.784890 
# 
# From -- ./inp_files/8518.got.cif
#   From: 2010.03.12/outbox.cif.g09.slc.cpg/sg74_5_cif.got.tgz:8518.got - 2010.04.16 15:46:19.
