data_PCOD8297412
_publ_section_title
;
Structure prediction by ZEFSAII (Michael W. Deem and Ramdas Pophale) SiO2 
 PCOD8297412
Probable space group: I M M A
;
_chemical_formula_sum "Si O2"
_cell_formula_units_Z 104
_cell_length_a 9.075778
_cell_length_b 22.200003
_cell_length_c 30.142101
_cell_angle_alpha 90.000000
_cell_angle_beta 90.000000
_cell_angle_gamma 90.000000
_cell_volume 6073.099801
_symmetry_space_group_name_H-M "I M M A"
_symmetry_group_IT_number 74
_symmetry_cell_setting 'orthorhombic'
loop_
_space_group_symop_operation_xyz
x,y,z
-x,1/2-y,z
x,-y,-z
-x,1/2+y,-z
-x,-y,-z
x,1/2+y,-z
-x,y,z
x,1/2-y,z
1/2+x,1/2+y,1/2+z
1/2-x,-y,1/2+z
1/2+x,1/2-y,1/2-z
1/2-x,y,1/2-z
1/2-x,1/2-y,1/2-z
1/2+x,y,1/2-z
1/2-x,1/2+y,1/2+z
1/2+x,-y,1/2+z
loop_
_atom_site_type_symbol
_atom_site_label
_atom_site_fract_x
_atom_site_fract_y
_atom_site_fract_z
Si Si1 0.674762 0.636092 0.145793
Si Si2 0.326714 0.608651 0.795723
Si Si3 0.824430 0.817317 0.445522
Si Si4 0.832383 0.178536 0.127844
Si Si5 0.335318 0.678227 0.958099
Si Si6 0.172642 0.471523 0.704824
Si Si7 0.175099 0.750000 0.297441
O O1 0.500000 0.637992 0.144403
O O2 0.735602 0.642062 0.095277
O O3 0.730145 0.572644 0.165948
O O4 0.730688 0.691338 0.175867
O O5 0.500000 0.618390 0.790268
O O6 0.250000 0.627678 0.750000
O O7 0.267790 0.651301 0.833971
O O8 0.286812 0.539827 0.808188
O O9 0.760989 0.750000 0.438871
O O10 0.775929 0.844270 0.493597
O O11 0.000000 0.814270 0.445097
O O12 0.819469 0.250000 0.131008
O O13 0.773167 0.155068 0.080352
O O14 0.000000 0.156682 0.133345
O O15 0.500000 0.653263 0.948493
O O16 0.340448 0.750000 0.959577
O O17 0.250000 0.451696 0.750000
O O18 0.000000 0.463873 0.712661
O O19 0.250000 0.750000 0.250000
O O20 0.000000 0.750000 0.291448
#
# Coordination Sequence:
#
# PCOD8297412 Si02
#       7
#    16  16  16  16  16  16   8
#     4   9  15  25  42  66  93 121 156 197 236 273
#     4  10  20  34  51  70  93 122 156 190 224 265
#     4   8  12  21  40  67  94 119 153 194 234 272
#     4  10  20  33  50  73  98 121 145 177 224 278
#     4   8  14  25  44  69  94 120 150 186 225 269
#     4   9  18  31  47  66  89 121 160 197 229 267
#     4  10  18  26  40  62  92 126 156 192 239 282
#
# _framework density 17.124697999999999
#
# number of rings (size 3 to 8) (size 9 to 14) (size 15 to 20)
#    0.000    2.923    0.769    2.308    0.000    1.846 
#    0.000    0.000    0.000    2.769    0.000    6.462 
#    0.000    0.000    0.000    0.000    0.000    0.000 
#
# Total GULP energy -644524.752386 kJ/mol
# GULP energy per Si atom -12394.706777 kJ/mol
# Density = 1.708572 g / cm^3
# Si number density = 17.124698 Si / 1000 Ang^3
#
#
#
# Elastic Constant Matrix: (Units=GPa)
#
#
# Indices 1 2 3 4 5 6 
#
# 1 49.7860 21.2502 45.0727 0.0000 0.0000 0.0000
# 2 21.2502 40.3891 45.8860 0.0000 0.0000 0.0000
# 3 45.0727 45.8860 160.5075 0.0000 0.0000 0.0000
# 4 0.0000 0.0000 0.0000 20.2500 0.0000 0.0000
# 5 0.0000 0.0000 0.0000 0.0000 25.6963 0.0000
# 6 0.0000 0.0000 0.0000 0.0000 0.0000 12.1676
#
#
#
# Elastic Compliance Matrix: (Units=1/GPa)
#
#
# Indices 1 2 3 4 5 6 
#
# 1 0.028932 -0.008874 -0.005588 0.000000 0.000000 0.000000
# 2 -0.008874 0.039391 -0.008769 0.000000 0.000000 0.000000
# 3 -0.005588 -0.008769 0.010306 0.000000 0.000000 0.000000
# 4 0.000000 0.000000 0.000000 0.049383 0.000000 0.000000
# 5 0.000000 0.000000 0.000000 0.000000 0.038916 0.000000
# 6 0.000000 0.000000 0.000000 0.000000 0.000000 0.082186
#
#
# Mechanical properties :
#
#
# Convention : Reuss Voigt Hill
#
# Bulk Modulus (GPa) = 31.08735 52.78895 41.93815
# Shear Modulus (GPa) = 16.32394 20.85434 18.58914
#
# Velocity S-wave (km/s) = 3.09081 3.49347 3.29829
# Velocity P-wave (km/s) = 5.56151 6.86772 6.24884
#
# Compressibility (1/GPa) = 0.03216743
#
# Stress axis : x y z
#
# Youngs Moduli (GPa) = 34.56324 25.38674 97.02887
#
# Poissons Ratio (x) = 0.22529 0.54216
# Poissons Ratio (y) = 0.30673 0.85085
# Poissons Ratio (z) = 0.19313 0.22262
#
# Static dielectric constant tensor:
#      x y z
#    x 2.983360 0.000000 0.000000 
#    y 0.000000 3.075850 0.000000 
#    z 0.000000 0.000000 3.641090 
# 
# 
# High freq. dielectric constant tensor:
#      x y z
#    x 1.632160 0.000000 0.000000 
#    y 0.000000 1.629250 0.000000 
#    z 0.000000 0.000000 1.675610 
# 
# From -- ./inp_files/70542.got.cif
#   From: 2010.03.12/outbox.cif.g09.slc.cpg/sg74_36_cif.got.tgz:70542.got - 2010.04.16 15:46:19.
