data_PCOD8297492
_publ_section_title
;
Structure prediction by ZEFSAII (Michael W. Deem and Ramdas Pophale) SiO2 
 PCOD8297492
Probable space group: I M M A
;
_chemical_formula_sum "Si O2"
_cell_formula_units_Z 80
_cell_length_a 23.367487
_cell_length_b 14.215011
_cell_length_c 13.404187
_cell_angle_alpha 90.000000
_cell_angle_beta 90.000000
_cell_angle_gamma 90.000000
_cell_volume 4452.456528
_symmetry_space_group_name_H-M "I M M A"
_symmetry_group_IT_number 74
_symmetry_cell_setting 'orthorhombic'
loop_
_space_group_symop_operation_xyz
x,y,z
-x,1/2-y,z
x,-y,-z
-x,1/2+y,-z
-x,-y,-z
x,1/2+y,-z
-x,y,z
x,1/2-y,z
1/2+x,1/2+y,1/2+z
1/2-x,-y,1/2+z
1/2+x,1/2-y,1/2-z
1/2-x,y,1/2-z
1/2-x,1/2-y,1/2-z
1/2+x,y,1/2-z
1/2-x,1/2+y,1/2+z
1/2+x,-y,1/2+z
loop_
_atom_site_type_symbol
_atom_site_label
_atom_site_fract_x
_atom_site_fract_y
_atom_site_fract_z
Si Si1 0.887750 0.645597 0.363130
Si Si2 0.619119 0.048974 0.230841
Si Si3 0.500000 0.139382 0.973792
Si Si4 0.312897 0.102517 0.039235
Si Si5 0.290710 0.645117 0.659910
Si Si6 0.000000 0.635784 0.699246
O O1 0.896355 0.750000 0.313530
O O2 0.874254 0.564581 0.281999
O O3 0.840092 0.661496 0.448768
O O4 0.944453 0.604344 0.415319
O O5 0.645424 0.105353 0.135700
O O6 0.655124 0.074649 0.331353
O O7 0.555396 0.088069 0.250021
O O8 0.500000 0.250000 0.980496
O O9 0.500000 0.099255 0.085140
O O10 0.248552 0.139114 0.061059
O O11 0.305062 0.000000 0.000000
O O12 0.315127 0.750000 0.670968
O O13 0.250000 0.615741 0.750000
O O14 0.000000 0.750000 0.710581
#
# Coordination Sequence:
#
# PCOD8297492 Si02
#       6
#    16  16   8  16  16   8
#     4  10  18  28  42  63  89 121 153 179 209 252
#     4  10  19  28  42  63  90 118 146 178 216 259
#     4   9  17  25  39  60  89 121 148 172 203 249
#     4   9  17  28  45  64  84 112 147 184 219 261
#     4   9  17  29  44  61  85 115 146 181 222 261
#     4  11  19  27  42  64  92 121 149 179 214 256
#
# _framework density 17.967610000000001
#
# number of rings (size 3 to 8) (size 9 to 14) (size 15 to 20)
#    0.000    2.400    2.000    1.800    0.000    2.400 
#    0.000    0.000    0.000   16.200    0.000    0.700 
#    0.000    0.000    0.000    0.000    0.000    0.000 
#
# Total GULP energy -495587.504256 kJ/mol
# GULP energy per Si atom -12389.687606 kJ/mol
# Density = 1.792671 g / cm^3
# Si number density = 17.967610 Si / 1000 Ang^3
#
#
#
# Elastic Constant Matrix: (Units=GPa)
#
#
# Indices 1 2 3 4 5 6 
#
# 1 128.6333 48.7616 37.8742 0.0000 0.0000 0.0000
# 2 48.7616 92.7351 10.2105 0.0000 0.0000 0.0000
# 3 37.8742 10.2105 19.6938 0.0000 0.0000 0.0000
# 4 0.0000 0.0000 0.0000 -18.9296 0.0000 0.0000
# 5 0.0000 0.0000 0.0000 0.0000 17.1366 0.0000
# 6 0.0000 0.0000 0.0000 0.0000 0.0000 28.8380
#
#
#
# Elastic Compliance Matrix: (Units=1/GPa)
#
#
# Indices 1 2 3 4 5 6 
#
# 1 0.021695 -0.007226 -0.037976 0.000000 0.000000 0.000000
# 2 -0.007226 0.013843 0.006720 0.000000 0.000000 0.000000
# 3 -0.037976 0.006720 0.120327 0.000000 0.000000 0.000000
# 4 0.000000 0.000000 0.000000 -0.052827 0.000000 0.000000
# 5 0.000000 0.000000 0.000000 0.000000 0.058354 0.000000
# 6 0.000000 0.000000 0.000000 0.000000 0.000000 0.034677
#
#
# Mechanical properties :
#
#
# Convention : Reuss Voigt Hill
#
# Bulk Modulus (GPa) = 12.67422 48.30607 30.49015
# Shear Modulus (GPa) = 16.70385 15.02339 15.86362
#
# Velocity S-wave (km/s) = 3.05235 2.89474 2.97459
# Velocity P-wave (km/s) = 4.41494 6.17383 5.36693
#
# Compressibility (1/GPa) = 0.07890031
#
# Stress axis : x y z
#
# Youngs Moduli (GPa) = 46.09425 72.23789 8.31072
#
# Poissons Ratio (x) = 0.52200 0.31561
# Poissons Ratio (y) = 0.33308 -0.05585
# Poissons Ratio (z) = 1.75046 -0.48543
#
# Static dielectric constant tensor:
#      x y z
#    x 3.653230 0.000000 0.000000 
#    y 0.000000 2.678720 0.000000 
#    z 0.000000 0.000000 2.949690 
# 
# 
# High freq. dielectric constant tensor:
#      x y z
#    x 1.697450 0.000000 0.000000 
#    y 0.000000 1.708260 0.000000 
#    z 0.000000 0.000000 1.613600 
# 
# From -- ./inp_files/24908.got.cif
#   From: 2010.03.12/outbox.cif.g09.slc.cpg/sg74_13_cif.got.tgz:24908.got - 2010.04.16 15:46:19.
