data_PCOD8297313
_publ_section_title
;
Structure prediction by ZEFSAII (Michael W. Deem and Ramdas Pophale) SiO2 
 PCOD8297313
Probable space group: I M M A
;
_chemical_formula_sum "Si O2"
_cell_formula_units_Z 80
_cell_length_a 11.821751
_cell_length_b 20.338518
_cell_length_c 20.269501
_cell_angle_alpha 90.000000
_cell_angle_beta 90.000000
_cell_angle_gamma 90.000000
_cell_volume 4873.535894
_symmetry_space_group_name_H-M "I M M A"
_symmetry_group_IT_number 74
_symmetry_cell_setting 'orthorhombic'
loop_
_space_group_symop_operation_xyz
x,y,z
-x,1/2-y,z
x,-y,-z
-x,1/2+y,-z
-x,-y,-z
x,1/2+y,-z
-x,y,z
x,1/2-y,z
1/2+x,1/2+y,1/2+z
1/2-x,-y,1/2+z
1/2+x,1/2-y,1/2-z
1/2-x,y,1/2-z
1/2-x,1/2-y,1/2-z
1/2+x,y,1/2-z
1/2-x,1/2+y,1/2+z
1/2+x,-y,1/2+z
loop_
_atom_site_type_symbol
_atom_site_label
_atom_site_fract_x
_atom_site_fract_y
_atom_site_fract_z
Si Si1 0.133410 0.056684 0.947834
Si Si2 0.774509 0.954438 0.320643
Si Si3 0.129008 0.321540 0.670599
Si Si4 0.500000 0.987031 0.106792
Si Si5 0.208783 0.677054 0.475280
Si Si6 0.000000 0.891517 0.517436
O O1 0.176462 0.035095 0.875145
O O2 0.000000 0.067064 0.944417
O O3 0.187893 0.125490 0.971318
O O4 0.167279 0.000000 0.000000
O O5 0.750000 0.989638 0.250000
O O6 0.786877 0.876991 0.302823
O O7 0.890557 0.981953 0.348214
O O8 0.159374 0.250000 0.701468
O O9 0.141315 0.317876 0.592407
O O10 0.000000 0.340626 0.687872
O O11 0.500000 0.058900 0.077422
O O12 0.500000 0.930530 0.051882
O O13 0.253942 0.750000 0.495953
O O14 0.113523 0.651751 0.526267
#
# Coordination Sequence:
#
# PCOD8297313 Si02
#       6
#    16  16  16   8  16   8
#     4  10  21  36  51  70 101 144 174 204 254 316
#     4  11  21  32  49  69  99 131 174 217 256 294
#     4   9  15  27  44  64  93 127 165 201 240 282
#     4  11  20  32  50  78  95 132 170 213 270 307
#     4  10  17  28  49  77 103 128 162 211 258 298
#     4  11  17  30  56  76 102 122 166 213 271 317
#
# _framework density 16.415187
#
# number of rings (size 3 to 8) (size 9 to 14) (size 15 to 20)
#    0.000    1.800    6.000    1.500    1.400    0.800 
#    0.000    0.000    0.000    0.000    0.000    0.000 
#    0.000   20.000    0.000    0.000    0.000    0.000 
#
# Total GULP energy -495681.311672 kJ/mol
# GULP energy per Si atom -12392.032792 kJ/mol
# Density = 1.637783 g / cm^3
# Si number density = 16.415187 Si / 1000 Ang^3
#
#
#
# Elastic Constant Matrix: (Units=GPa)
#
#
# Indices 1 2 3 4 5 6 
#
# 1 95.3893 43.1118 44.8597 0.0000 0.0000 0.0000
# 2 43.1118 93.2270 46.2865 0.0000 0.0000 0.0000
# 3 44.8597 46.2865 85.6060 0.0000 0.0000 0.0000
# 4 0.0000 0.0000 0.0000 10.5277 0.0000 0.0000
# 5 0.0000 0.0000 0.0000 0.0000 14.8173 0.0000
# 6 0.0000 0.0000 0.0000 0.0000 0.0000 9.5567
#
#
#
# Elastic Compliance Matrix: (Units=1/GPa)
#
#
# Indices 1 2 3 4 5 6 
#
# 1 0.015000 -0.004147 -0.005618 0.000000 0.000000 0.000000
# 2 -0.004147 0.015809 -0.006375 0.000000 0.000000 0.000000
# 3 -0.005618 -0.006375 0.018072 0.000000 0.000000 0.000000
# 4 0.000000 0.000000 0.000000 0.094988 0.000000 0.000000
# 5 0.000000 0.000000 0.000000 0.000000 0.067489 0.000000
# 6 0.000000 0.000000 0.000000 0.000000 0.000000 0.104638
#
#
# Mechanical properties :
#
#
# Convention : Reuss Voigt Hill
#
# Bulk Modulus (GPa) = 60.23548 60.30425 60.26986
# Shear Modulus (GPa) = 14.13190 16.31128 15.22159
#
# Velocity S-wave (km/s) = 2.93730 3.15567 3.04844
# Velocity P-wave (km/s) = 6.94826 7.07773 7.01329
#
# Compressibility (1/GPa) = 0.01660151
#
# Stress axis : x y z
#
# Youngs Moduli (GPa) = 66.66809 63.25365 55.33392
#
# Poissons Ratio (x) = 0.26233 0.31086
# Poissons Ratio (y) = 0.27649 0.35274
# Poissons Ratio (z) = 0.37453 0.40323
#
# Static dielectric constant tensor:
#      x y z
#    x 3.031960 0.000000 0.000000 
#    y 0.000000 3.417970 0.000000 
#    z 0.000000 0.000000 2.885500 
# 
# 
# High freq. dielectric constant tensor:
#      x y z
#    x 1.635490 0.000000 0.000000 
#    y 0.000000 1.624430 0.000000 
#    z 0.000000 0.000000 1.597150 
# 
# From -- ./inp_files/41213.got.cif
#   From: 2010.03.12/outbox.cif.g09.slc.cpg/sg74_21_cif.got.tgz:41213.got - 2010.04.16 15:46:19.
