data_PCOD8297485
_publ_section_title
;
Structure prediction by ZEFSAII (Michael W. Deem and Ramdas Pophale) SiO2 
 PCOD8297485
Probable space group: I M M A
;
_chemical_formula_sum "Si O2"
_cell_formula_units_Z 104
_cell_length_a 20.173247
_cell_length_b 8.761223
_cell_length_c 32.564815
_cell_angle_alpha 90.000000
_cell_angle_beta 90.000000
_cell_angle_gamma 90.000000
_cell_volume 5755.580810
_symmetry_space_group_name_H-M "I M M A"
_symmetry_group_IT_number 74
_symmetry_cell_setting 'orthorhombic'
loop_
_space_group_symop_operation_xyz
x,y,z
-x,1/2-y,z
x,-y,-z
-x,1/2+y,-z
-x,-y,-z
x,1/2+y,-z
-x,y,z
x,1/2-y,z
1/2+x,1/2+y,1/2+z
1/2-x,-y,1/2+z
1/2+x,1/2-y,1/2-z
1/2-x,y,1/2-z
1/2-x,1/2-y,1/2-z
1/2+x,y,1/2-z
1/2-x,1/2+y,1/2+z
1/2+x,-y,1/2+z
loop_
_atom_site_type_symbol
_atom_site_label
_atom_site_fract_x
_atom_site_fract_y
_atom_site_fract_z
Si Si1 0.000000 0.932743 0.044008
Si Si2 0.574984 0.574544 0.813438
Si Si3 0.816995 0.076411 0.835364
Si Si4 0.865385 0.077903 0.924936
Si Si5 0.574632 0.569747 0.272103
Si Si6 0.191148 0.928377 0.626811
Si Si7 0.771530 0.067954 0.543186
O O1 0.934626 0.003914 0.065144
O O2 0.000000 0.750000 0.045856
O O3 0.000000 0.000000 0.000000
O O4 0.500000 0.541783 0.828019
O O5 0.584654 0.750000 0.800489
O O6 0.593586 0.473133 0.774191
O O7 0.622332 0.530921 0.851074
O O8 0.796728 0.250000 0.824019
O O9 0.858944 0.071625 0.876561
O O10 0.866576 0.003751 0.801222
O O11 0.749930 0.981172 0.842464
O O12 0.868428 0.250000 0.941131
O O13 0.802945 0.003225 0.948684
O O14 0.500000 0.506478 0.282814
O O15 0.573822 0.750000 0.277409
O O16 0.199838 0.750000 0.618515
O O17 0.186899 0.012841 0.582788
O O18 0.775349 0.250000 0.541725
O O19 0.798231 0.000000 0.500000
#
# Coordination Sequence:
#
# PCOD8297485 Si02
#       7
#     8  16  16  16  16  16  16
#     4  10  18  28  42  60  84 118 160 202 242 284
#     4   9  19  36  55  74  99 131 165 203 251 306
#     4   9  18  32  48  71 101 132 168 210 254 295
#     4   8  16  28  44  65  90 125 162 199 242 284
#     4   9  18  31  50  75 101 134 175 214 251 295
#     4  10  20  34  53  76 100 130 167 206 250 300
#     4  10  19  33  52  75 101 130 163 202 248 296
#
# _framework density 18.069419
#
# number of rings (size 3 to 8) (size 9 to 14) (size 15 to 20)
#    0.000    2.769    0.000    2.308    1.077    2.462 
#    0.000    6.154    0.000    0.462    0.000    0.000 
#    0.000    0.000    0.000    0.000    0.000    0.000 
#
# Total GULP energy -644399.450540 kJ/mol
# GULP energy per Si atom -12392.297126 kJ/mol
# Density = 1.802829 g / cm^3
# Si number density = 18.069419 Si / 1000 Ang^3
#
#
#
# Elastic Constant Matrix: (Units=GPa)
#
#
# Indices 1 2 3 4 5 6 
#
# 1 101.0643 28.3107 66.7698 0.0000 0.0000 0.0000
# 2 28.3107 45.7588 31.3667 0.0000 0.0000 0.0000
# 3 66.7698 31.3667 111.1672 0.0000 0.0000 0.0000
# 4 0.0000 0.0000 0.0000 29.6870 0.0000 0.0000
# 5 0.0000 0.0000 0.0000 0.0000 24.2066 0.0000
# 6 0.0000 0.0000 0.0000 0.0000 0.0000 20.0684
#
#
#
# Elastic Compliance Matrix: (Units=1/GPa)
#
#
# Indices 1 2 3 4 5 6 
#
# 1 0.017085 -0.004384 -0.009025 0.000000 0.000000 0.000000
# 2 -0.004384 0.028219 -0.005329 0.000000 0.000000 0.000000
# 3 -0.009025 -0.005329 0.015920 0.000000 0.000000 0.000000
# 4 0.000000 0.000000 0.000000 0.033685 0.000000 0.000000
# 5 0.000000 0.000000 0.000000 0.000000 0.041311 0.000000
# 6 0.000000 0.000000 0.000000 0.000000 0.000000 0.049830
#
#
# Mechanical properties :
#
#
# Convention : Reuss Voigt Hill
#
# Bulk Modulus (GPa) = 42.10884 56.76495 49.43689
# Shear Modulus (GPa) = 21.60376 23.56194 22.58285
#
# Velocity S-wave (km/s) = 3.46149 3.61497 3.53906
# Velocity P-wave (km/s) = 6.27140 6.99336 6.64220
#
# Compressibility (1/GPa) = 0.02374798
#
# Stress axis : x y z
#
# Youngs Moduli (GPa) = 58.53031 35.43696 62.81586
#
# Poissons Ratio (x) = 0.15536 0.56690
# Poissons Ratio (y) = 0.25661 0.33474
# Poissons Ratio (z) = 0.52822 0.18884
#
# Static dielectric constant tensor:
#      x y z
#    x 3.487980 0.000000 0.000000 
#    y 0.000000 3.183660 0.000000 
#    z 0.000000 0.000000 3.296460 
# 
# 
# High freq. dielectric constant tensor:
#      x y z
#    x 1.693740 0.000000 0.000000 
#    y 0.000000 1.680170 0.000000 
#    z 0.000000 0.000000 1.697210 
# 
# From -- ./inp_files/73380.got.cif
#   From: 2010.03.12/outbox.cif.g09.slc.cpg/sg74_37_cif.got.tgz:73380.got - 2010.04.16 15:46:19.
