data_PCOD8297729
_publ_section_title
;
Structure prediction by ZEFSAII (Michael W. Deem and Ramdas Pophale) SiO2 
 PCOD8297729
Probable space group: I M M A
;
_chemical_formula_sum "Si O2"
_cell_formula_units_Z 80
_cell_length_a 18.575968
_cell_length_b 8.953936
_cell_length_c 24.120991
_cell_angle_alpha 90.000000
_cell_angle_beta 90.000000
_cell_angle_gamma 90.000000
_cell_volume 4011.996881
_symmetry_space_group_name_H-M "I M M A"
_symmetry_group_IT_number 74
_symmetry_cell_setting 'orthorhombic'
loop_
_space_group_symop_operation_xyz
x,y,z
-x,1/2-y,z
x,-y,-z
-x,1/2+y,-z
-x,-y,-z
x,1/2+y,-z
-x,y,z
x,1/2-y,z
1/2+x,1/2+y,1/2+z
1/2-x,-y,1/2+z
1/2+x,1/2-y,1/2-z
1/2-x,y,1/2-z
1/2-x,1/2-y,1/2-z
1/2+x,y,1/2-z
1/2-x,1/2+y,1/2+z
1/2+x,-y,1/2+z
loop_
_atom_site_type_symbol
_atom_site_label
_atom_site_fract_x
_atom_site_fract_y
_atom_site_fract_z
Si Si1 0.712411 0.425149 0.865831
Si Si2 0.847165 0.417212 0.266957
Si Si3 0.500000 0.925358 0.361983
Si Si4 0.000000 0.918281 0.749367
Si Si5 0.354908 0.076477 0.363596
Si Si6 0.580948 0.074150 0.941800
O O1 0.723681 0.250000 0.869601
O O2 0.703533 0.471807 0.801187
O O3 0.783700 0.503413 0.891095
O O4 0.641340 0.480730 0.898314
O O5 0.818014 0.250000 0.277979
O O6 0.848821 0.453432 0.202049
O O7 0.929460 0.435611 0.288760
O O8 0.500000 0.750000 0.374182
O O9 0.500000 0.955986 0.296460
O O10 0.427238 0.998518 0.387603
O O11 0.000000 0.750000 0.777287
O O12 0.357995 0.250000 0.378701
O O13 0.500000 0.028897 0.921959
O O14 0.586329 0.250000 0.949706
O O15 0.599521 0.000000 0.000000
#
# Coordination Sequence:
#
# PCOD8297729 Si02
#       6
#    16  16   8   8  16  16
#     4  11  22  32  49  77 105 131 170 221 270 314
#     4   9  18  31  46  67  99 140 179 215 253 304
#     4  10  18  30  50  72  97 130 171 212 254 296
#     4   8  16  30  44  62  93 134 177 212 247 298
#     4  10  20  35  51  70 103 143 180 214 252 307
#     4   9  20  39  58  77 104 136 173 221 273 321
#
# _framework density 19.940194999999999
#
# number of rings (size 3 to 8) (size 9 to 14) (size 15 to 20)
#    0.000    2.400    0.000    3.900    1.400    8.000 
#    0.000    0.000    0.000    0.000    0.000    0.700 
#    0.000    0.000    0.000    0.000    0.000    0.000 
#
# Total GULP energy -495745.011933 kJ/mol
# GULP energy per Si atom -12393.625298 kJ/mol
# Density = 1.989481 g / cm^3
# Si number density = 19.940195 Si / 1000 Ang^3
#
#
#
# Elastic Constant Matrix: (Units=GPa)
#
#
# Indices 1 2 3 4 5 6 
#
# 1 179.4254 62.4698 18.5943 0.0000 0.0000 0.0000
# 2 62.4698 93.8678 14.2337 0.0000 0.0000 0.0000
# 3 18.5943 14.2337 24.1260 0.0000 0.0000 0.0000
# 4 0.0000 0.0000 0.0000 18.3598 0.0000 0.0000
# 5 0.0000 0.0000 0.0000 0.0000 15.8262 0.0000
# 6 0.0000 0.0000 0.0000 0.0000 0.0000 35.8876
#
#
#
# Elastic Compliance Matrix: (Units=1/GPa)
#
#
# Indices 1 2 3 4 5 6 
#
# 1 0.007459 -0.004494 -0.003097 0.000000 0.000000 0.000000
# 2 -0.004494 0.014408 -0.005036 0.000000 0.000000 0.000000
# 3 -0.003097 -0.005036 0.046807 0.000000 0.000000 0.000000
# 4 0.000000 0.000000 0.000000 0.054467 0.000000 0.000000
# 5 0.000000 0.000000 0.000000 0.000000 0.063186 0.000000
# 6 0.000000 0.000000 0.000000 0.000000 0.000000 0.027865
#
#
# Mechanical properties :
#
#
# Convention : Reuss Voigt Hill
#
# Bulk Modulus (GPa) = 23.03170 54.22385 38.62778
# Shear Modulus (GPa) = 19.69109 27.48947 23.59028
#
# Velocity S-wave (km/s) = 3.14587 3.71697 3.44328
# Velocity P-wave (km/s) = 4.97703 6.75821 5.93482
#
# Compressibility (1/GPa) = 0.04341842
#
# Stress axis : x y z
#
# Youngs Moduli (GPa) = 134.06357 69.40547 21.36412
#
# Poissons Ratio (x) = 0.31194 0.06617
# Poissons Ratio (y) = 0.60254 0.10760
# Poissons Ratio (z) = 0.41523 0.34955
#
# Static dielectric constant tensor:
#      x y z
#    x 4.433360 0.000000 0.000000 
#    y 0.000000 3.500960 0.000000 
#    z 0.000000 0.000000 3.016130 
# 
# 
# High freq. dielectric constant tensor:
#      x y z
#    x 1.815440 0.000000 0.000000 
#    y 0.000000 1.774140 0.000000 
#    z 0.000000 0.000000 1.702390 
# 
# From -- ./inp_files/61367.got.cif
#   From: 2010.03.12/outbox.cif.g09.slc.cpg/sg74_31_cif.got.tgz:61367.got - 2010.04.16 15:46:19.
