data_PCOD8297436
_publ_section_title
;
Structure prediction by ZEFSAII (Michael W. Deem and Ramdas Pophale) SiO2 
 PCOD8297436
Probable space group: I M M A
;
_chemical_formula_sum "Si O2"
_cell_formula_units_Z 96
_cell_length_a 14.263761
_cell_length_b 13.830097
_cell_length_c 21.782222
_cell_angle_alpha 90.000000
_cell_angle_beta 90.000000
_cell_angle_gamma 90.000000
_cell_volume 4296.961469
_symmetry_space_group_name_H-M "I M M A"
_symmetry_group_IT_number 74
_symmetry_cell_setting 'orthorhombic'
loop_
_space_group_symop_operation_xyz
x,y,z
-x,1/2-y,z
x,-y,-z
-x,1/2+y,-z
-x,-y,-z
x,1/2+y,-z
-x,y,z
x,1/2-y,z
1/2+x,1/2+y,1/2+z
1/2-x,-y,1/2+z
1/2+x,1/2-y,1/2-z
1/2-x,y,1/2-z
1/2-x,1/2-y,1/2-z
1/2+x,y,1/2-z
1/2-x,1/2+y,1/2+z
1/2+x,-y,1/2+z
loop_
_atom_site_type_symbol
_atom_site_label
_atom_site_fract_x
_atom_site_fract_y
_atom_site_fract_z
Si Si1 0.889015 0.360332 0.768800
Si Si2 0.290190 0.862863 0.909924
Si Si3 0.607200 0.637740 0.033860
Si Si4 0.389419 0.144102 0.599336
Si Si5 0.611912 0.023155 0.846834
Si Si6 0.896373 0.134661 0.032412
O O1 0.853019 0.250000 0.761607
O O2 0.857800 0.404639 0.835758
O O3 0.847092 0.426352 0.714449
O O4 0.000000 0.361267 0.761498
O O5 0.305824 0.750000 0.897206
O O6 0.179528 0.890069 0.915319
O O7 0.338136 0.918954 0.853491
O O8 0.337168 0.895675 0.973837
O O9 0.500000 0.609980 0.021480
O O10 0.620550 0.750000 0.046565
O O11 0.645467 0.585479 0.094631
O O12 0.500000 0.157338 0.602129
O O13 0.341811 0.250000 0.597510
O O14 0.366261 0.088422 0.534869
O O15 0.500000 0.010456 0.844561
O O16 0.899436 0.250000 0.021915
O O17 0.000000 0.097324 0.053007
#
# Coordination Sequence:
#
# PCOD8297436 Si02
#       6
#    16  16  16  16  16  16
#     4   8  13  22  39  65  94 122 154 194 239 286
#     4  10  19  28  40  61  92 128 160 190 228 280
#     4   9  17  29  44  61  83 117 161 201 236 278
#     4   7  10  19  38  63  88 114 148 192 241 289
#     4  10  18  27  41  62  92 129 161 189 228 282
#     4   8  14  26  44  64  87 119 158 199 242 284
#
# _framework density 22.341367999999999
#
# number of rings (size 3 to 8) (size 9 to 14) (size 15 to 20)
#    0.000    3.333    0.000    3.500    0.000    4.333 
#    0.000    0.000    0.000    3.000    0.000    5.833 
#    0.000    7.333    0.000   24.667    0.000   17.500 
#
# Total GULP energy -594698.525238 kJ/mol
# GULP energy per Si atom -12389.552609 kJ/mol
# Density = 2.229052 g / cm^3
# Si number density = 22.341368 Si / 1000 Ang^3
#
#
#
# Elastic Constant Matrix: (Units=GPa)
#
#
# Indices 1 2 3 4 5 6 
#
# 1 44.1391 18.3200 29.3795 0.0000 0.0000 0.0000
# 2 18.3200 53.2938 52.4508 0.0000 0.0000 0.0000
# 3 29.3795 52.4508 104.3858 0.0000 0.0000 0.0000
# 4 0.0000 0.0000 0.0000 -189.8328 0.0000 0.0000
# 5 0.0000 0.0000 0.0000 0.0000 9.2706 0.0000
# 6 0.0000 0.0000 0.0000 0.0000 0.0000 11.4496
#
#
#
# Elastic Compliance Matrix: (Units=1/GPa)
#
#
# Indices 1 2 3 4 5 6 
#
# 1 0.028248 -0.003731 -0.006076 0.000000 0.000000 0.000000
# 2 -0.003731 0.037614 -0.017850 0.000000 0.000000 0.000000
# 3 -0.006076 -0.017850 0.020259 0.000000 0.000000 0.000000
# 4 0.000000 0.000000 0.000000 -0.005268 0.000000 0.000000
# 5 0.000000 0.000000 0.000000 0.000000 0.107868 0.000000
# 6 0.000000 0.000000 0.000000 0.000000 0.000000 0.087339
#
#
# Mechanical properties :
#
#
# Convention : Reuss Voigt Hill
#
# Bulk Modulus (GPa) = 32.45889 44.67993 38.56941
# Shear Modulus (GPa) = 14.63519 -27.04462 -6.20472
#
# Velocity S-wave (km/s) = 2.56221 -3.48302 -1.66831
# Velocity P-wave (km/s) = 4.82839 1.96644 3.68648
#
# Compressibility (1/GPa) = 0.03080820
#
# Stress axis : x y z
#
# Youngs Moduli (GPa) = 35.40034 26.58596 49.36080
#
# Poissons Ratio (x) = 0.09918 0.29992
# Poissons Ratio (y) = 0.13206 0.88108
# Poissons Ratio (z) = 0.21509 0.47456
#
# Static dielectric constant tensor:
#      x y z
#    x 3.919720 0.000000 0.000000 
#    y 0.000000 3.789100 0.000000 
#    z 0.000000 0.000000 4.199410 
# 
# 
# High freq. dielectric constant tensor:
#      x y z
#    x 1.875600 0.000000 0.000000 
#    y 0.000000 1.855710 0.000000 
#    z 0.000000 0.000000 1.856280 
# 
# From -- ./inp_files/51876.got.cif
#   From: 2010.03.12/outbox.cif.g09.slc.cpg/sg74_26_cif.got.tgz:51876.got - 2010.04.16 15:46:19.
