data_PCOD8297883
_publ_section_title
;
Structure prediction by ZEFSAII (Michael W. Deem and Ramdas Pophale) SiO2 
 PCOD8297883
Probable space group: I M M A
;
_chemical_formula_sum "Si O2"
_cell_formula_units_Z 92
_cell_length_a 11.544590
_cell_length_b 23.855733
_cell_length_c 25.781288
_cell_angle_alpha 90.000000
_cell_angle_beta 90.000000
_cell_angle_gamma 90.000000
_cell_volume 7100.286769
_symmetry_space_group_name_H-M "I M M A"
_symmetry_group_IT_number 74
_symmetry_cell_setting 'orthorhombic'
loop_
_space_group_symop_operation_xyz
x,y,z
-x,1/2-y,z
x,-y,-z
-x,1/2+y,-z
-x,-y,-z
x,1/2+y,-z
-x,y,z
x,1/2-y,z
1/2+x,1/2+y,1/2+z
1/2-x,-y,1/2+z
1/2+x,1/2-y,1/2-z
1/2-x,y,1/2-z
1/2-x,1/2-y,1/2-z
1/2+x,y,1/2-z
1/2-x,1/2+y,1/2+z
1/2+x,-y,1/2+z
loop_
_atom_site_type_symbol
_atom_site_label
_atom_site_fract_x
_atom_site_fract_y
_atom_site_fract_z
Si Si1 0.248205 0.750000 0.030797
Si Si2 0.255524 0.643298 0.189986
Si Si3 0.366022 0.862029 0.494074
Si Si4 0.137286 0.750000 0.144280
Si Si5 0.500000 0.687707 0.159613
Si Si6 0.634236 0.931186 0.388971
Si Si7 0.137039 0.467813 0.048404
Si Si8 0.000000 0.250000 0.560750
O O1 0.205093 0.805037 0.001269
O O2 0.206401 0.750000 0.090380
O O3 0.386473 0.750000 0.025544
O O4 0.250000 0.628478 0.250000
O O5 0.172888 0.695836 0.177148
O O6 0.388019 0.653897 0.176301
O O7 0.212316 0.589358 0.158384
O O8 0.500000 0.845985 0.498553
O O9 0.342617 0.892772 0.439384
O O10 0.326386 0.902311 0.542646
O O11 0.000000 0.750000 0.133414
O O12 0.500000 0.750000 0.185905
O O13 0.500000 0.694474 0.097188
O O14 0.500000 0.927202 0.372931
O O15 0.670658 0.996657 0.400097
O O16 0.000000 0.470459 0.041935
O O17 0.194293 0.500000 0.000000
#
# Coordination Sequence:
#
# PCOD8297883 Si02
#       8
#     8  16  16   8   8  16  16   4
#     4  12  18  27  40  60  81 106 132 162 193 232
#     4  12  23  30  41  55  73 104 138 174 200 229
#     4   9  15  24  41  63  79  95 122 161 204 238
#     4  12  21  30  43  56  73  99 132 175 208 231
#     4  10  20  36  38  45  74 109 137 158 205 238
#     4   9  16  28  41  58  77  97 129 165 200 234
#     4   7  12  23  40  58  78  96 115 154 205 245
#     4  10  18  32  38  44  76 116 140 146 192 236
#
# _framework density 12.957223000000001
#
# number of rings (size 3 to 8) (size 9 to 14) (size 15 to 20)
#    0.261    1.913    4.348    3.652    2.435    0.000 
#    0.000    0.000    0.000    1.043    0.000    4.870 
#    0.000    0.000    0.000    0.783    0.000    0.870 
#
# Total GULP energy -569912.387757 kJ/mol
# GULP energy per Si atom -12389.399734 kJ/mol
# Density = 1.292773 g / cm^3
# Si number density = 12.957223 Si / 1000 Ang^3
#
#
#
# Elastic Constant Matrix: (Units=GPa)
#
#
# Indices 1 2 3 4 5 6 
#
# 1 78.7947 44.4728 26.8486 0.0000 0.0000 0.0000
# 2 44.4728 102.1814 51.4626 0.0000 0.0000 0.0000
# 3 26.8486 51.4626 49.1140 0.0000 0.0000 0.0000
# 4 0.0000 0.0000 0.0000 13.8661 0.0000 0.0000
# 5 0.0000 0.0000 0.0000 0.0000 -1.0197 0.0000
# 6 0.0000 0.0000 0.0000 0.0000 0.0000 33.4981
#
#
#
# Elastic Compliance Matrix: (Units=1/GPa)
#
#
# Indices 1 2 3 4 5 6 
#
# 1 0.017069 -0.005780 -0.003275 0.000000 0.000000 0.000000
# 2 -0.005780 0.022679 -0.020604 0.000000 0.000000 0.000000
# 3 -0.003275 -0.020604 0.043740 0.000000 0.000000 0.000000
# 4 0.000000 0.000000 0.000000 0.072118 0.000000 0.000000
# 5 0.000000 0.000000 0.000000 0.000000 -0.980723 0.000000
# 6 0.000000 0.000000 0.000000 0.000000 0.000000 0.029852
#
#
# Mechanical properties :
#
#
# Convention : Reuss Voigt Hill
#
# Bulk Modulus (GPa) = 41.37136 52.85089 47.11112
# Shear Modulus (GPa) = -6.86917 16.42266 4.77675
#
# Velocity S-wave (km/s) = -2.30498 3.56399 1.92212
# Velocity P-wave (km/s) = 4.99145 7.60351 6.43148
#
# Compressibility (1/GPa) = 0.02417131
#
# Stress axis : x y z
#
# Youngs Moduli (GPa) = 58.58473 44.09360 22.86221
#
# Poissons Ratio (x) = 0.25485 0.07487
# Poissons Ratio (y) = 0.33861 0.47105
# Poissons Ratio (z) = 0.19186 0.90850
#
# Static dielectric constant tensor:
#      x y z
#    x 2.500370 0.000000 0.000000 
#    y 0.000000 2.757210 0.000000 
#    z 0.000000 0.000000 2.403770 
# 
# 
# High freq. dielectric constant tensor:
#      x y z
#    x 1.480550 0.000000 0.000000 
#    y 0.000000 1.481590 0.000000 
#    z 0.000000 0.000000 1.448720 
# 
# From -- ./inp_files/59249.got.cif
#   From: 2010.03.12/outbox.cif.g09.slc.cpg/sg74_30_cif.got.tgz:59249.got - 2010.04.16 15:46:19.
