data_PCOD8297745
_publ_section_title
;
Structure prediction by ZEFSAII (Michael W. Deem and Ramdas Pophale) SiO2 
 PCOD8297745
Probable space group: I M M A
;
_chemical_formula_sum "Si O2"
_cell_formula_units_Z 72
_cell_length_a 8.764517
_cell_length_b 28.528190
_cell_length_c 13.887092
_cell_angle_alpha 90.000000
_cell_angle_beta 90.000000
_cell_angle_gamma 90.000000
_cell_volume 3472.270244
_symmetry_space_group_name_H-M "I M M A"
_symmetry_group_IT_number 74
_symmetry_cell_setting 'orthorhombic'
loop_
_space_group_symop_operation_xyz
x,y,z
-x,1/2-y,z
x,-y,-z
-x,1/2+y,-z
-x,-y,-z
x,1/2+y,-z
-x,y,z
x,1/2-y,z
1/2+x,1/2+y,1/2+z
1/2-x,-y,1/2+z
1/2+x,1/2-y,1/2-z
1/2-x,y,1/2-z
1/2-x,1/2-y,1/2-z
1/2+x,y,1/2-z
1/2-x,1/2+y,1/2+z
1/2+x,-y,1/2+z
loop_
_atom_site_type_symbol
_atom_site_label
_atom_site_fract_x
_atom_site_fract_y
_atom_site_fract_z
Si Si1 0.173694 0.835123 0.542006
Si Si2 0.320694 0.568891 0.854424
Si Si3 0.323555 0.118167 0.851341
Si Si4 0.176885 0.750000 0.854486
Si Si5 0.181419 0.976199 0.143340
O O1 0.217702 0.885153 0.585373
O O2 0.196193 0.839013 0.426433
O O3 0.281491 0.795665 0.584554
O O4 0.000000 0.821676 0.567526
O O5 0.500000 0.559568 0.845670
O O6 0.250000 0.576993 0.750000
O O7 0.242535 0.523789 0.908120
O O8 0.500000 0.106245 0.833692
O O9 0.250000 0.133127 0.750000
O O10 0.245396 0.072308 0.900049
O O11 0.250000 0.750000 0.750000
O O12 0.000000 0.750000 0.835983
O O13 0.250000 0.978669 0.250000
O O14 0.000000 0.975790 0.141970
#
# Coordination Sequence:
#
# PCOD8297745 Si02
#       5
#    16  16  16   8  16
#     4  10  23  41  62  86 115 151 194 240 291 346
#     4  10  19  33  53  80 113 151 192 237 286 341
#     4  10  20  37  59  84 116 155 195 240 287 338
#     4  12  26  44  69  94 121 150 183 230 286 346
#     4  10  18  30  50  78 114 155 194 236 283 338
#
# _framework density 20.735713000000001
#
# number of rings (size 3 to 8) (size 9 to 14) (size 15 to 20)
#    0.000    1.778    0.000    7.667    0.000    6.222 
#    0.000    5.000    0.000    0.000    0.000    0.000 
#    0.000    0.000    0.000    0.000    0.000    0.000 
#
# Total GULP energy -446329.141070 kJ/mol
# GULP energy per Si atom -12398.031696 kJ/mol
# Density = 2.068852 g / cm^3
# Si number density = 20.735713 Si / 1000 Ang^3
#
#
#
# Elastic Constant Matrix: (Units=GPa)
#
#
# Indices 1 2 3 4 5 6 
#
# 1 169.4676 74.9107 48.9777 -0.0001 0.0000 0.0000
# 2 74.9107 105.4612 55.9444 0.0000 0.0000 0.0000
# 3 48.9777 55.9444 83.5612 -0.0003 0.0001 0.0001
# 4 -0.0001 0.0000 -0.0003 30.1738 0.0000 0.0000
# 5 0.0000 0.0000 0.0001 0.0000 25.6264 0.0000
# 6 0.0000 0.0000 0.0001 0.0000 0.0000 37.0358
#
#
#
# Elastic Compliance Matrix: (Units=1/GPa)
#
#
# Indices 1 2 3 4 5 6 
#
# 1 0.008720 -0.005401 -0.001495 0.000000 0.000000 0.000000
# 2 -0.005401 0.018050 -0.008919 0.000000 0.000000 0.000000
# 3 -0.001495 -0.008919 0.018815 0.000000 0.000000 0.000000
# 4 0.000000 0.000000 0.000000 0.033141 0.000000 0.000000
# 5 0.000000 0.000000 0.000000 0.000000 0.039022 0.000000
# 6 0.000000 0.000000 0.000000 0.000000 0.000000 0.027001
#
#
# Mechanical properties :
#
#
# Convention : Reuss Voigt Hill
#
# Bulk Modulus (GPa) = 71.65895 79.79505 75.72700
# Shear Modulus (GPa) = 27.61960 30.47767 29.04863
#
# Velocity S-wave (km/s) = 3.65359 3.83798 3.74692
# Velocity P-wave (km/s) = 7.24096 7.62926 7.43765
#
# Compressibility (1/GPa) = 0.01395499
#
# Stress axis : x y z
#
# Youngs Moduli (GPa) = 114.67305 55.40270 53.14993
#
# Poissons Ratio (x) = 0.29923 0.07948
# Poissons Ratio (y) = 0.61935 0.47402
# Poissons Ratio (z) = 0.17147 0.49411
#
# Static dielectric constant tensor:
#      x y z
#    x 3.793350 0.000000 0.000000 
#    y 0.000000 4.005940 0.000000 
#    z 0.000000 0.000000 3.719000 
# 
# 
# High freq. dielectric constant tensor:
#      x y z
#    x 1.819920 0.000000 0.000000 
#    y 0.000000 1.803590 0.000000 
#    z 0.000000 0.000000 1.812290 
# 
# From -- ./inp_files/29180.got.cif
#   From: 2010.03.12/outbox.cif.g09.slc.cpg/sg74_15_cif.got.tgz:29180.got - 2010.04.16 15:46:19.
