data_PCOD8297291
_publ_section_title
;
Structure prediction by ZEFSAII (Michael W. Deem and Ramdas Pophale) SiO2 
 PCOD8297291
Probable space group: I M M A
;
_chemical_formula_sum "Si O2"
_cell_formula_units_Z 88
_cell_length_a 29.106244
_cell_length_b 9.768331
_cell_length_c 19.448069
_cell_angle_alpha 90.000000
_cell_angle_beta 90.000000
_cell_angle_gamma 90.000000
_cell_volume 5529.463806
_symmetry_space_group_name_H-M "I M M A"
_symmetry_group_IT_number 74
_symmetry_cell_setting 'orthorhombic'
loop_
_space_group_symop_operation_xyz
x,y,z
-x,1/2-y,z
x,-y,-z
-x,1/2+y,-z
-x,-y,-z
x,1/2+y,-z
-x,y,z
x,1/2-y,z
1/2+x,1/2+y,1/2+z
1/2-x,-y,1/2+z
1/2+x,1/2-y,1/2-z
1/2-x,y,1/2-z
1/2-x,1/2-y,1/2-z
1/2+x,y,1/2-z
1/2-x,1/2+y,1/2+z
1/2+x,-y,1/2+z
loop_
_atom_site_type_symbol
_atom_site_label
_atom_site_fract_x
_atom_site_fract_y
_atom_site_fract_z
Si Si1 0.598297 0.000000 0.500000
Si Si2 0.223675 0.407491 0.560883
Si Si3 0.049958 0.908078 0.866123
Si Si4 0.711669 0.406474 0.192292
Si Si5 0.140707 0.906948 0.802398
Si Si6 0.325150 0.395905 0.590010
O O1 0.566057 0.073735 0.444624
O O2 0.631966 0.106419 0.537800
O O3 0.201183 0.500000 0.500000
O O4 0.204477 0.250000 0.560674
O O5 0.213180 0.480918 0.633110
O O6 0.278107 0.405727 0.547523
O O7 0.043177 0.750000 0.851205
O O8 0.088514 0.965555 0.812241
O O9 0.000000 0.980782 0.854737
O O10 0.717738 0.250000 0.164539
O O11 0.750000 0.436695 0.250000
O O12 0.660729 0.423243 0.225949
O O13 0.141514 0.750000 0.826387
O O14 0.174377 0.983118 0.854980
O O15 0.326603 0.250000 0.629573
#
# Coordination Sequence:
#
# PCOD8297291 Si02
#       6
#     8  16  16  16  16  16
#     4  10  17  28  40  58  88 126 160 194 235 268
#     4  11  22  33  46  67  95 127 158 196 236 279
#     4   9  17  28  43  63  86 116 157 199 234 273
#     4  10  19  32  49  68  91 123 159 198 238 283
#     4   9  18  31  47  64  86 117 152 191 236 275
#     4  10  19  28  41  62  87 117 156 195 229 266
#
# _framework density 15.914743
#
# number of rings (size 3 to 8) (size 9 to 14) (size 15 to 20)
#    0.000    2.182    2.727    1.364    0.000    2.545 
#    0.000    0.000    0.000    4.909    0.000    0.000 
#    0.000    0.727    0.000    1.273    0.000    1.818 
#
# Total GULP energy -545085.684821 kJ/mol
# GULP energy per Si atom -12388.311019 kJ/mol
# Density = 1.587852 g / cm^3
# Si number density = 15.914743 Si / 1000 Ang^3
#
#
#
# Elastic Constant Matrix: (Units=GPa)
#
#
# Indices 1 2 3 4 5 6 
#
# 1 67.0841 16.4413 29.6381 0.0000 0.0000 0.0000
# 2 16.4413 92.5930 48.8470 0.0000 0.0000 0.0000
# 3 29.6381 48.8470 75.8366 0.0000 0.0000 0.0000
# 4 0.0000 0.0000 0.0000 26.4388 0.0000 0.0000
# 5 0.0000 0.0000 0.0000 0.0000 10.6141 0.0000
# 6 0.0000 0.0000 0.0000 0.0000 0.0000 11.5735
#
#
#
# Elastic Compliance Matrix: (Units=1/GPa)
#
#
# Indices 1 2 3 4 5 6 
#
# 1 0.018055 0.000782 -0.007560 0.000000 0.000000 0.000000
# 2 0.000782 0.016392 -0.010864 0.000000 0.000000 0.000000
# 3 -0.007560 -0.010864 0.023139 0.000000 0.000000 0.000000
# 4 0.000000 0.000000 0.000000 0.037823 0.000000 0.000000
# 5 0.000000 0.000000 0.000000 0.000000 0.094214 0.000000
# 6 0.000000 0.000000 0.000000 0.000000 0.000000 0.086404
#
#
# Mechanical properties :
#
#
# Convention : Reuss Voigt Hill
#
# Bulk Modulus (GPa) = 44.83892 47.26292 46.05092
# Shear Modulus (GPa) = 15.68649 19.09778 17.39213
#
# Velocity S-wave (km/s) = 3.14292 3.46787 3.30939
# Velocity P-wave (km/s) = 6.43477 6.76734 6.60315
#
# Compressibility (1/GPa) = 0.02230205
#
# Stress axis : x y z
#
# Youngs Moduli (GPa) = 55.38632 61.00381 43.21786
#
# Poissons Ratio (x) = -0.04773 0.32673
# Poissons Ratio (y) = -0.04333 0.46953
# Poissons Ratio (z) = 0.41872 0.66276
#
# Static dielectric constant tensor:
#      x y z
#    x 3.270400 0.000000 0.000000 
#    y 0.000000 3.056730 0.000000 
#    z 0.000000 0.000000 2.825790 
# 
# 
# High freq. dielectric constant tensor:
#      x y z
#    x 1.589390 0.000000 0.000000 
#    y 0.000000 1.612760 0.000000 
#    z 0.000000 0.000000 1.581090 
# 
# From -- ./inp_files/47034.got.cif
#   From: 2010.03.12/outbox.cif.g09.slc.cpg/sg74_24_cif.got.tgz:47034.got - 2010.04.16 15:46:19.
