data_PCOD8297231
_publ_section_title
;
Structure prediction by ZEFSAII (Michael W. Deem and Ramdas Pophale) SiO2 
 PCOD8297231
Probable space group: I M M A
;
_chemical_formula_sum "Si O2"
_cell_formula_units_Z 112
_cell_length_a 17.352535
_cell_length_b 18.308267
_cell_length_c 23.479803
_cell_angle_alpha 90.000000
_cell_angle_beta 90.000000
_cell_angle_gamma 90.000000
_cell_volume 7459.412349
_symmetry_space_group_name_H-M "I M M A"
_symmetry_group_IT_number 74
_symmetry_cell_setting 'orthorhombic'
loop_
_space_group_symop_operation_xyz
x,y,z
-x,1/2-y,z
x,-y,-z
-x,1/2+y,-z
-x,-y,-z
x,1/2+y,-z
-x,y,z
x,1/2-y,z
1/2+x,1/2+y,1/2+z
1/2-x,-y,1/2+z
1/2+x,1/2-y,1/2-z
1/2-x,y,1/2-z
1/2-x,1/2-y,1/2-z
1/2+x,y,1/2-z
1/2-x,1/2+y,1/2+z
1/2+x,-y,1/2+z
loop_
_atom_site_type_symbol
_atom_site_label
_atom_site_fract_x
_atom_site_fract_y
_atom_site_fract_z
Si Si1 0.739494 0.831488 0.997424
Si Si2 0.682608 0.094853 0.788894
Si Si3 0.707396 0.894068 0.387224
Si Si4 0.087072 0.023003 0.628507
Si Si5 0.084723 0.331310 0.558282
Si Si6 0.588351 0.334329 0.694092
Si Si7 0.722869 0.531186 0.937517
O O1 0.759583 0.750000 0.976739
O O2 0.758127 0.887217 0.945299
O O3 0.787686 0.847695 0.054795
O O4 0.648662 0.842087 0.009801
O O5 0.750000 0.059536 0.750000
O O6 0.724672 0.131804 0.843933
O O7 0.624654 0.029975 0.808517
O O8 0.634093 0.154049 0.753202
O O9 0.624849 0.881546 0.357599
O O10 0.718756 0.980436 0.401251
O O11 0.092407 0.106086 0.605480
O O12 0.000000 0.993220 0.631025
O O13 0.138235 0.967481 0.591352
O O14 0.094597 0.250000 0.586076
O O15 0.000000 0.337769 0.529592
O O16 0.500000 0.358975 0.701686
O O17 0.594643 0.250000 0.677257
O O18 0.710398 0.500000 0.000000
#
# Coordination Sequence:
#
# PCOD8297231 Si02
#       7
#    16  16  16  16  16  16  16
#     4  10  17  27  43  60  81 109 142 173 206 245
#     4   9  17  28  40  57  81 110 141 175 199 229
#     4   9  17  30  44  58  82 112 143 171 199 238
#     4  10  17  26  39  55  79 113 145 171 201 236
#     4   9  16  23  33  53  79 106 137 169 197 230
#     4  10  20  30  41  60  85 112 141 172 204 237
#     4   9  16  28  39  60  79 106 142 175 204 238
#
# _framework density 15.014588
#
# number of rings (size 3 to 8) (size 9 to 14) (size 15 to 20)
#    0.000    2.571    4.286    0.857    0.000    4.571 
#    0.000    1.429    0.000    3.857    0.000    0.000 
#    0.000   36.571    0.000    4.571    0.000    0.000 
#
# Total GULP energy -693790.197351 kJ/mol
# GULP energy per Si atom -12389.110667 kJ/mol
# Density = 1.498041 g / cm^3
# Si number density = 15.014588 Si / 1000 Ang^3
#
#
#
# Elastic Constant Matrix: (Units=GPa)
#
#
# Indices 1 2 3 4 5 6 
#
# 1 71.9292 28.0435 34.7513 0.0000 0.0000 0.0000
# 2 28.0435 84.8216 36.7450 0.0000 0.0000 0.0000
# 3 34.7513 36.7450 56.6015 0.0000 0.0000 0.0000
# 4 0.0000 0.0000 0.0000 22.2350 0.0000 0.0000
# 5 0.0000 0.0000 0.0000 0.0000 16.3301 0.0000
# 6 0.0000 0.0000 0.0000 0.0000 0.0000 13.2584
#
#
#
# Elastic Compliance Matrix: (Units=1/GPa)
#
#
# Indices 1 2 3 4 5 6 
#
# 1 0.019960 -0.001795 -0.011089 0.000000 0.000000 0.000000
# 2 -0.001795 0.016564 -0.009651 0.000000 0.000000 0.000000
# 3 -0.011089 -0.009651 0.030741 0.000000 0.000000 0.000000
# 4 0.000000 0.000000 0.000000 0.044974 0.000000 0.000000
# 5 0.000000 0.000000 0.000000 0.000000 0.061236 0.000000
# 6 0.000000 0.000000 0.000000 0.000000 0.000000 0.075424
#
#
# Mechanical properties :
#
#
# Convention : Reuss Voigt Hill
#
# Bulk Modulus (GPa) = 45.05692 45.82577 45.44135
# Shear Modulus (GPa) = 16.59102 17.95221 17.27162
#
# Velocity S-wave (km/s) = 3.32775 3.46157 3.39532
# Velocity P-wave (km/s) = 6.69620 6.82376 6.76028
#
# Compressibility (1/GPa) = 0.02219415
#
# Stress axis : x y z
#
# Youngs Moduli (GPa) = 50.09993 60.37293 32.52983
#
# Poissons Ratio (x) = 0.10838 0.36074
# Poissons Ratio (y) = 0.08994 0.31394
# Poissons Ratio (z) = 0.55558 0.58265
#
# Static dielectric constant tensor:
#      x y z
#    x 2.989490 0.000000 0.000000 
#    y 0.000000 2.975560 0.000000 
#    z 0.000000 0.000000 2.895840 
# 
# 
# High freq. dielectric constant tensor:
#      x y z
#    x 1.568420 0.000000 0.000000 
#    y 0.000000 1.542180 0.000000 
#    z 0.000000 0.000000 1.550970 
# 
# From -- ./inp_files/53378.got.cif
#   From: 2010.03.12/outbox.cif.g09.slc.cpg/sg74_27_cif.got.tgz:53378.got - 2010.04.16 15:46:19.
