data_PCOD8297596
_publ_section_title
;
Structure prediction by ZEFSAII (Michael W. Deem and Ramdas Pophale) SiO2 
 PCOD8297596
Probable space group: I M M A
;
_chemical_formula_sum "Si O2"
_cell_formula_units_Z 128
_cell_length_a 22.956665
_cell_length_b 26.343521
_cell_length_c 11.957854
_cell_angle_alpha 90.000000
_cell_angle_beta 90.000000
_cell_angle_gamma 90.000000
_cell_volume 7231.624449
_symmetry_space_group_name_H-M "I M M A"
_symmetry_group_IT_number 74
_symmetry_cell_setting 'orthorhombic'
loop_
_space_group_symop_operation_xyz
x,y,z
-x,1/2-y,z
x,-y,-z
-x,1/2+y,-z
-x,-y,-z
x,1/2+y,-z
-x,y,z
x,1/2-y,z
1/2+x,1/2+y,1/2+z
1/2-x,-y,1/2+z
1/2+x,1/2-y,1/2-z
1/2-x,y,1/2-z
1/2-x,1/2-y,1/2-z
1/2+x,y,1/2-z
1/2-x,1/2+y,1/2+z
1/2+x,-y,1/2+z
loop_
_atom_site_type_symbol
_atom_site_label
_atom_site_fract_x
_atom_site_fract_y
_atom_site_fract_z
Si Si1 0.565975 0.691429 0.704473
Si Si2 0.565574 0.486870 0.130281
Si Si3 0.749238 0.945458 0.456508
Si Si4 0.260129 0.637865 0.875008
Si Si5 0.891635 0.380030 0.392095
Si Si6 0.874548 0.083588 0.622551
Si Si7 0.338737 0.692136 0.525146
Si Si8 0.307464 0.630707 0.308281
O O1 0.500000 0.686355 0.659400
O O2 0.580860 0.750000 0.733684
O O3 0.570073 0.658590 0.818954
O O4 0.609902 0.671231 0.607515
O O5 0.500000 0.476085 0.170924
O O6 0.603873 0.436958 0.161235
O O7 0.589794 0.538727 0.185872
O O8 0.568670 0.500000 0.000000
O O9 0.732442 0.907590 0.555369
O O10 0.817980 0.943136 0.432571
O O11 0.712305 0.925690 0.350065
O O12 0.729327 0.000000 0.500000
O O13 0.250000 0.622285 0.750000
O O14 0.328041 0.645012 0.896178
O O15 0.223312 0.687709 0.910229
O O16 0.910764 0.387247 0.523127
O O17 0.857331 0.124948 0.715058
O O18 0.351783 0.750000 0.496678
O O19 0.335653 0.663690 0.406608
O O20 0.250000 0.656536 0.250000
#
# Coordination Sequence:
#
# PCOD8297596 Si02
#       8
#    16  16  16  16  16  16  16  16
#     4  10  21  37  56  76 101 137 178 225 276 322
#     4   9  17  29  47  72 101 137 177 210 252 309
#     4   9  17  28  45  71 103 140 172 201 250 308
#     4  10  18  29  47  76 103 127 162 211 264 315
#     4  10  18  31  52  77 107 135 171 214 268 320
#     4   9  17  31  49  73 105 137 172 217 255 308
#     4  10  21  37  55  76 104 138 179 222 271 334
#     4   9  19  35  51  74 109 142 176 213 263 324
#
# _framework density 17.700035
#
# number of rings (size 3 to 8) (size 9 to 14) (size 15 to 20)
#    0.000    2.500    1.250    3.000    0.000    4.000 
#    0.000    1.250    0.000    0.000    0.000    3.500 
#    0.000    0.000    0.000    0.000    0.000    0.000 
#
# Total GULP energy -792932.712426 kJ/mol
# GULP energy per Si atom -12389.573632 kJ/mol
# Density = 1.765975 g / cm^3
# Si number density = 17.700035 Si / 1000 Ang^3
#
#
#
# Elastic Constant Matrix: (Units=GPa)
#
#
# Indices 1 2 3 4 5 6 
#
# 1 78.1174 30.5462 30.3495 0.0000 0.0000 0.0000
# 2 30.5462 73.1277 39.8292 0.0000 0.0000 0.0000
# 3 30.3495 39.8292 93.3468 0.0000 0.0000 0.0000
# 4 0.0000 0.0000 0.0000 21.7401 0.0000 0.0000
# 5 0.0000 0.0000 0.0000 0.0000 16.8722 0.0000
# 6 0.0000 0.0000 0.0000 0.0000 0.0000 21.5578
#
#
#
# Elastic Compliance Matrix: (Units=1/GPa)
#
#
# Indices 1 2 3 4 5 6 
#
# 1 0.015940 -0.004997 -0.003051 0.000000 0.000000 0.000000
# 2 -0.004997 0.019381 -0.006645 0.000000 0.000000 0.000000
# 3 -0.003051 -0.006645 0.014540 0.000000 0.000000 0.000000
# 4 0.000000 0.000000 0.000000 0.045998 0.000000 0.000000
# 5 0.000000 0.000000 0.000000 0.000000 0.059269 0.000000
# 6 0.000000 0.000000 0.000000 0.000000 0.000000 0.046387
#
#
# Mechanical properties :
#
#
# Convention : Reuss Voigt Hill
#
# Bulk Modulus (GPa) = 48.83646 49.56021 49.19834
# Shear Modulus (GPa) = 21.03263 21.62513 21.32888
#
# Velocity S-wave (km/s) = 3.45089 3.49916 3.47510
# Velocity P-wave (km/s) = 6.59767 6.66230 6.63006
#
# Compressibility (1/GPa) = 0.02047650
#
# Stress axis : x y z
#
# Youngs Moduli (GPa) = 62.73379 51.59640 68.77670
#
# Poissons Ratio (x) = 0.25783 0.20980
# Poissons Ratio (y) = 0.31348 0.45702
# Poissons Ratio (z) = 0.19137 0.34285
#
# Static dielectric constant tensor:
#      x y z
#    x 3.435290 0.000000 0.000000 
#    y 0.000000 3.240570 0.000000 
#    z 0.000000 0.000000 3.367440 
# 
# 
# High freq. dielectric constant tensor:
#      x y z
#    x 1.670410 0.000000 0.000000 
#    y 0.000000 1.669210 0.000000 
#    z 0.000000 0.000000 1.673070 
# 
# From -- ./inp_files/25668.got.cif
#   From: 2010.03.12/outbox.cif.g09.slc.cpg/sg74_13_cif.got.tgz:25668.got - 2010.04.16 15:46:19.
