data_PCOD8297565
_publ_section_title
;
Structure prediction by ZEFSAII (Michael W. Deem and Ramdas Pophale) SiO2 
 PCOD8297565
Probable space group: I M M A
;
_chemical_formula_sum "Si O2"
_cell_formula_units_Z 80
_cell_length_a 35.124676
_cell_length_b 10.234936
_cell_length_c 14.136666
_cell_angle_alpha 90.000000
_cell_angle_beta 90.000000
_cell_angle_gamma 90.000000
_cell_volume 5082.114617
_symmetry_space_group_name_H-M "I M M A"
_symmetry_group_IT_number 74
_symmetry_cell_setting 'orthorhombic'
loop_
_space_group_symop_operation_xyz
x,y,z
-x,1/2-y,z
x,-y,-z
-x,1/2+y,-z
-x,-y,-z
x,1/2+y,-z
-x,y,z
x,1/2-y,z
1/2+x,1/2+y,1/2+z
1/2-x,-y,1/2+z
1/2+x,1/2-y,1/2-z
1/2-x,y,1/2-z
1/2-x,1/2-y,1/2-z
1/2+x,y,1/2-z
1/2-x,1/2+y,1/2+z
1/2+x,-y,1/2+z
loop_
_atom_site_type_symbol
_atom_site_label
_atom_site_fract_x
_atom_site_fract_y
_atom_site_fract_z
Si Si1 0.457716 0.250000 0.889777
Si Si2 0.314148 0.899653 0.419711
Si Si3 0.042756 0.250000 0.386084
Si Si4 0.726359 0.898165 0.078572
Si Si5 0.840499 0.399075 0.714900
Si Si6 0.089180 0.000869 0.612246
O O1 0.500000 0.250000 0.845661
O O2 0.435755 0.376979 0.854257
O O3 0.460645 0.250000 0.001963
O O4 0.320370 0.750000 0.453795
O O5 0.270059 0.924305 0.394603
O O6 0.338658 0.929201 0.326266
O O7 0.328230 0.000000 0.500000
O O8 0.066120 0.124503 0.351904
O O9 0.000000 0.250000 0.342546
O O10 0.720864 0.750000 0.040230
O O11 0.701342 0.922144 0.171770
O O12 0.712193 0.000000 0.000000
O O13 0.853437 0.250000 0.696425
O O14 0.870424 0.495606 0.665241
O O15 0.096642 0.000000 0.500000
#
# Coordination Sequence:
#
# PCOD8297565 Si02
#       6
#     8  16   8  16  16  16
#     4   9  16  28  46  64  88 125 157 177 208 262
#     4   9  18  33  50  65  86 118 159 198 230 268
#     4   9  18  30  44  64  94 127 153 177 216 264
#     4   9  17  30  47  67  91 123 156 186 224 269
#     4  10  18  30  47  67  92 122 155 189 228 270
#     4  10  18  29  44  67  96 124 152 185 218 264
#
# _framework density 15.741478000000001
#
# number of rings (size 3 to 8) (size 9 to 14) (size 15 to 20)
#    0.000    2.600    1.000    1.800    0.000    4.800 
#    3.600    0.000    0.000    4.800    0.000    0.000 
#    0.000    4.800    0.000    0.000    0.000    0.000 
#
# Total GULP energy -495955.249469 kJ/mol
# GULP energy per Si atom -12398.881237 kJ/mol
# Density = 1.570565 g / cm^3
# Si number density = 15.741478 Si / 1000 Ang^3
#
#
#
# Elastic Constant Matrix: (Units=GPa)
#
#
# Indices 1 2 3 4 5 6 
#
# 1 76.1504 41.2134 32.8496 0.0000 0.0000 0.0000
# 2 41.2134 106.2325 41.4207 0.0000 0.0000 0.0000
# 3 32.8496 41.4207 66.2202 0.0000 0.0000 0.0000
# 4 0.0000 0.0000 0.0000 19.9497 0.0000 0.0000
# 5 0.0000 0.0000 0.0000 0.0000 14.1201 0.0000
# 6 0.0000 0.0000 0.0000 0.0000 0.0000 24.4211
#
#
#
# Elastic Compliance Matrix: (Units=1/GPa)
#
#
# Indices 1 2 3 4 5 6 
#
# 1 0.018336 -0.004718 -0.006145 0.000000 0.000000 0.000000
# 2 -0.004718 0.013663 -0.006206 0.000000 0.000000 0.000000
# 3 -0.006145 -0.006206 0.022031 0.000000 0.000000 0.000000
# 4 0.000000 0.000000 0.000000 0.050126 0.000000 0.000000
# 5 0.000000 0.000000 0.000000 0.000000 0.070821 0.000000
# 6 0.000000 0.000000 0.000000 0.000000 0.000000 0.040948
#
#
# Mechanical properties :
#
#
# Convention : Reuss Voigt Hill
#
# Bulk Modulus (GPa) = 50.26842 53.28560 51.77701
# Shear Modulus (GPa) = 19.47841 20.57281 20.02561
#
# Velocity S-wave (km/s) = 3.52148 3.61905 3.57060
# Velocity P-wave (km/s) = 6.96688 7.16849 7.06841
#
# Compressibility (1/GPa) = 0.01989321
#
# Stress axis : x y z
#
# Youngs Moduli (GPa) = 54.53780 73.18850 45.38962
#
# Poissons Ratio (x) = 0.34527 0.27892
# Poissons Ratio (y) = 0.25728 0.28170
# Poissons Ratio (z) = 0.33514 0.45422
#
# Static dielectric constant tensor:
#      x y z
#    x 2.950090 0.000000 0.000000 
#    y 0.000000 3.135710 0.000000 
#    z 0.000000 0.000000 2.660370 
# 
# 
# High freq. dielectric constant tensor:
#      x y z
#    x 1.599210 0.000000 0.000000 
#    y 0.000000 1.609520 0.000000 
#    z 0.000000 0.000000 1.560710 
# 
# From -- ./inp_files/19023.got.cif
#   From: 2010.03.12/outbox.cif.g09.slc.cpg/sg74_10_cif.got.tgz:19023.got - 2010.04.16 15:46:19.
