data_PCOD8297692
_publ_section_title
;
Structure prediction by ZEFSAII (Michael W. Deem and Ramdas Pophale) SiO2 
 PCOD8297692
Probable space group: I M M A
;
_chemical_formula_sum "Si O2"
_cell_formula_units_Z 104
_cell_length_a 27.370998
_cell_length_b 9.007571
_cell_length_c 24.235432
_cell_angle_alpha 90.000000
_cell_angle_beta 90.000000
_cell_angle_gamma 90.000000
_cell_volume 5975.153855
_symmetry_space_group_name_H-M "I M M A"
_symmetry_group_IT_number 74
_symmetry_cell_setting 'orthorhombic'
loop_
_space_group_symop_operation_xyz
x,y,z
-x,1/2-y,z
x,-y,-z
-x,1/2+y,-z
-x,-y,-z
x,1/2+y,-z
-x,y,z
x,1/2-y,z
1/2+x,1/2+y,1/2+z
1/2-x,-y,1/2+z
1/2+x,1/2-y,1/2-z
1/2-x,y,1/2-z
1/2-x,1/2-y,1/2-z
1/2+x,y,1/2-z
1/2-x,1/2+y,1/2+z
1/2+x,-y,1/2+z
loop_
_atom_site_type_symbol
_atom_site_label
_atom_site_fract_x
_atom_site_fract_y
_atom_site_fract_z
Si Si1 0.267918 0.582168 0.687553
Si Si2 0.500000 0.570374 0.939511
Si Si3 0.855544 0.578119 0.230634
Si Si4 0.176924 0.923794 0.349797
Si Si5 0.945480 0.578018 0.161320
Si Si6 0.597632 0.427516 0.940508
Si Si7 0.558215 0.415933 0.447077
O O1 0.273791 0.750000 0.667509
O O2 0.250000 0.569107 0.750000
O O3 0.320606 0.504091 0.686656
O O4 0.229412 0.504271 0.646202
O O5 0.500000 0.750000 0.939484
O O6 0.549585 0.504221 0.912365
O O7 0.500000 0.500000 0.000000
O O8 0.842086 0.750000 0.226162
O O9 0.849830 0.523049 0.293559
O O10 0.911401 0.545502 0.213843
O O11 0.187008 0.750000 0.348743
O O12 0.143317 0.967349 0.401582
O O13 0.946009 0.750000 0.145422
O O14 0.923662 0.493609 0.108626
O O15 0.000000 0.522668 0.176656
O O16 0.589810 0.250000 0.945960
O O17 0.608339 0.500000 0.000000
O O18 0.580241 0.500000 0.500000
O O19 0.500000 0.419166 0.449299
O O20 0.578863 0.250000 0.447866
#
# Coordination Sequence:
#
# PCOD8297692 Si02
#       7
#    16   8  16  16  16  16  16
#     4   9  17  29  48  72  94 119 151 192 235 279
#     4  10  18  30  48  68  94 128 166 204 245 290
#     4   9  17  31  49  70  96 128 161 197 239 286
#     4   9  18  32  50  73  96 123 161 202 244 291
#     4   9  17  29  45  67  95 125 156 190 232 281
#     4  10  19  32  50  73  99 130 167 208 252 297
#     4   9  16  26  42  63  86 115 151 189 224 260
#
# _framework density 17.40541
#
# number of rings (size 3 to 8) (size 9 to 14) (size 15 to 20)
#    0.000    2.769    0.000    3.000    0.000    5.538 
#    1.385    0.000    0.000    0.923    0.000    4.308 
#    0.000    0.000    0.000    0.000    0.000    0.000 
#
# Total GULP energy -644552.376648 kJ/mol
# GULP energy per Si atom -12395.238012 kJ/mol
# Density = 1.736579 g / cm^3
# Si number density = 17.405410 Si / 1000 Ang^3
#
#
#
# Elastic Constant Matrix: (Units=GPa)
#
#
# Indices 1 2 3 4 5 6 
#
# 1 100.7787 45.7658 47.4974 0.0000 0.0000 0.0000
# 2 45.7658 86.5289 36.4456 0.0000 0.0000 0.0000
# 3 47.4974 36.4456 72.1415 0.0000 0.0000 0.0000
# 4 0.0000 0.0000 0.0000 23.1424 0.0000 0.0000
# 5 0.0000 0.0000 0.0000 0.0000 26.6365 0.0000
# 6 0.0000 0.0000 0.0000 0.0000 0.0000 22.5379
#
#
#
# Elastic Compliance Matrix: (Units=1/GPa)
#
#
# Indices 1 2 3 4 5 6 
#
# 1 0.015987 -0.005110 -0.007945 0.000000 0.000000 0.000000
# 2 -0.005110 0.016314 -0.004877 0.000000 0.000000 0.000000
# 3 -0.007945 -0.004877 0.021556 0.000000 0.000000 0.000000
# 4 0.000000 0.000000 0.000000 0.043211 0.000000 0.000000
# 5 0.000000 0.000000 0.000000 0.000000 0.037542 0.000000
# 6 0.000000 0.000000 0.000000 0.000000 0.000000 0.044370
#
#
# Mechanical properties :
#
#
# Convention : Reuss Voigt Hill
#
# Bulk Modulus (GPa) = 55.57384 57.65185 56.61284
# Shear Modulus (GPa) = 22.64061 23.11272 22.87666
#
# Velocity S-wave (km/s) = 3.61055 3.64800 3.62932
# Velocity P-wave (km/s) = 7.02707 7.13713 7.08232
#
# Compressibility (1/GPa) = 0.01799408
#
# Stress axis : x y z
#
# Youngs Moduli (GPa) = 62.54890 61.29803 46.38986
#
# Poissons Ratio (x) = 0.31321 0.36855
# Poissons Ratio (y) = 0.31960 0.22627
# Poissons Ratio (z) = 0.49693 0.29898
#
# Static dielectric constant tensor:
#      x y z
#    x 3.355780 0.000000 0.000000 
#    y 0.000000 3.324480 0.000000 
#    z 0.000000 0.000000 3.059400 
# 
# 
# High freq. dielectric constant tensor:
#      x y z
#    x 1.659640 0.000000 0.000000 
#    y 0.000000 1.679030 0.000000 
#    z 0.000000 0.000000 1.642740 
# 
# From -- ./inp_files/62355.got.cif
#   From: 2010.03.12/outbox.cif.g09.slc.cpg/sg74_32_cif.got.tgz:62355.got - 2010.04.16 15:46:19.
