data_PCOD8297770
_publ_section_title
;
Structure prediction by ZEFSAII (Michael W. Deem and Ramdas Pophale) SiO2 
 PCOD8297770
Probable space group: I M M A
;
_chemical_formula_sum "Si O2"
_cell_formula_units_Z 96
_cell_length_a 23.899824
_cell_length_b 20.962279
_cell_length_c 9.086743
_cell_angle_alpha 90.000000
_cell_angle_beta 90.000000
_cell_angle_gamma 90.000000
_cell_volume 4552.410799
_symmetry_space_group_name_H-M "I M M A"
_symmetry_group_IT_number 74
_symmetry_cell_setting 'orthorhombic'
loop_
_space_group_symop_operation_xyz
x,y,z
-x,1/2-y,z
x,-y,-z
-x,1/2+y,-z
-x,-y,-z
x,1/2+y,-z
-x,y,z
x,1/2-y,z
1/2+x,1/2+y,1/2+z
1/2-x,-y,1/2+z
1/2+x,1/2-y,1/2-z
1/2-x,y,1/2-z
1/2-x,1/2-y,1/2-z
1/2+x,y,1/2-z
1/2-x,1/2+y,1/2+z
1/2+x,-y,1/2+z
loop_
_atom_site_type_symbol
_atom_site_label
_atom_site_fract_x
_atom_site_fract_y
_atom_site_fract_z
Si Si1 0.145618 0.390148 0.041889
Si Si2 0.168985 0.819419 0.673313
Si Si3 0.436655 0.388906 0.711534
Si Si4 0.062276 0.857396 0.536096
Si Si5 0.437325 0.535396 0.743141
Si Si6 0.261036 0.061026 0.082124
O O1 0.165069 0.334288 0.152781
O O2 0.105589 0.440102 0.122152
O O3 0.203167 0.424916 0.994189
O O4 0.110344 0.363771 0.902840
O O5 0.198684 0.750000 0.655126
O O6 0.106334 0.811282 0.613141
O O7 0.200555 0.875238 0.582428
O O8 0.500000 0.379307 0.649239
O O9 0.425718 0.461212 0.760145
O O10 0.428863 0.350628 0.862034
O O11 0.071478 0.929432 0.599921
O O12 0.000000 0.834004 0.577506
O O13 0.500000 0.547775 0.683277
O O14 0.250000 0.041062 0.250000
O O15 0.289627 0.000000 0.000000
#
# Coordination Sequence:
#
# PCOD8297770 Si02
#       6
#    16  16  16  16  16  16
#     4  10  20  33  54  82 113 148 188 232 285 338
#     4  10  23  42  61  81 110 153 199 238 281 343
#     4  10  18  30  52  84 120 150 182 235 294 342
#     4   9  19  34  54  81 111 149 194 235 282 341
#     4   9  16  28  49  80 118 155 189 226 277 344
#     4  10  22  38  60  88 117 150 189 237 286 336
#
# _framework density 21.087727999999998
#
# number of rings (size 3 to 8) (size 9 to 14) (size 15 to 20)
#    0.000    2.333    0.000    2.500    0.000   12.667 
#    0.000    0.833    0.000    4.500    0.000    0.000 
#    0.000    0.000    0.000    0.000    0.000    0.000 
#
# Total GULP energy -594811.215514 kJ/mol
# GULP energy per Si atom -12391.900323 kJ/mol
# Density = 2.103973 g / cm^3
# Si number density = 21.087728 Si / 1000 Ang^3
#
#
#
# Elastic Constant Matrix: (Units=GPa)
#
#
# Indices 1 2 3 4 5 6 
#
# 1 108.0141 31.5452 32.6515 0.0000 0.0000 0.0000
# 2 31.5452 112.4811 17.3178 0.0000 0.0000 0.0000
# 3 32.6515 17.3178 68.3084 0.0000 0.0000 0.0000
# 4 0.0000 0.0000 0.0000 10.5436 0.0000 0.0000
# 5 0.0000 0.0000 0.0000 0.0000 36.6105 0.0000
# 6 0.0000 0.0000 0.0000 0.0000 0.0000 1.9109
#
#
#
# Elastic Compliance Matrix: (Units=1/GPa)
#
#
# Indices 1 2 3 4 5 6 
#
# 1 0.011442 -0.002463 -0.004845 0.000000 0.000000 0.000000
# 2 -0.002463 0.009782 -0.001303 0.000000 0.000000 0.000000
# 3 -0.004845 -0.001303 0.017286 0.000000 0.000000 0.000000
# 4 0.000000 0.000000 0.000000 0.094844 0.000000 0.000000
# 5 0.000000 0.000000 0.000000 0.000000 0.027315 0.000000
# 6 0.000000 0.000000 0.000000 0.000000 0.000000 0.523303
#
#
# Mechanical properties :
#
#
# Convention : Reuss Voigt Hill
#
# Bulk Modulus (GPa) = 46.97395 50.20361 48.58878
# Shear Modulus (GPa) = 7.05928 23.63228 15.34578
#
# Velocity S-wave (km/s) = 1.83162 3.35127 2.70054
# Velocity P-wave (km/s) = 5.17658 6.23164 5.72845
#
# Compressibility (1/GPa) = 0.02128839
#
# Stress axis : x y z
#
# Youngs Moduli (GPa) = 87.39824 102.23207 57.85178
#
# Poissons Ratio (x) = 0.25179 0.28028
# Poissons Ratio (y) = 0.21526 0.07536
# Poissons Ratio (z) = 0.42343 0.13317
#
# Static dielectric constant tensor:
#      x y z
#    x 4.087150 0.000000 0.000000 
#    y 0.000000 3.423150 0.000000 
#    z 0.000000 0.000000 3.825470 
# 
# 
# High freq. dielectric constant tensor:
#      x y z
#    x 1.840110 0.000000 0.000000 
#    y 0.000000 1.792330 0.000000 
#    z 0.000000 0.000000 1.808320 
# 
# From -- ./inp_files/15142.got.cif
#   From: 2010.03.12/outbox.cif.g09.slc.cpg/sg74_8_cif.got.tgz:15142.got - 2010.04.16 15:46:19.
