data_PCOD8297219
_publ_section_title
;
Structure prediction by ZEFSAII (Michael W. Deem and Ramdas Pophale) SiO2 
 PCOD8297219
Probable space group: I M M A
;
_chemical_formula_sum "Si O2"
_cell_formula_units_Z 72
_cell_length_a 8.862778
_cell_length_b 23.646791
_cell_length_c 23.083109
_cell_angle_alpha 90.000000
_cell_angle_beta 90.000000
_cell_angle_gamma 90.000000
_cell_volume 4837.671631
_symmetry_space_group_name_H-M "I M M A"
_symmetry_group_IT_number 74
_symmetry_cell_setting 'orthorhombic'
loop_
_space_group_symop_operation_xyz
x,y,z
-x,1/2-y,z
x,-y,-z
-x,1/2+y,-z
-x,-y,-z
x,1/2+y,-z
-x,y,z
x,1/2-y,z
1/2+x,1/2+y,1/2+z
1/2-x,-y,1/2+z
1/2+x,1/2-y,1/2-z
1/2-x,y,1/2-z
1/2-x,1/2-y,1/2-z
1/2+x,y,1/2-z
1/2-x,1/2+y,1/2+z
1/2+x,-y,1/2+z
loop_
_atom_site_type_symbol
_atom_site_label
_atom_site_fract_x
_atom_site_fract_y
_atom_site_fract_z
Si Si1 0.326483 0.026525 0.690227
Si Si2 0.822456 0.750000 0.187576
Si Si3 0.321340 0.137122 0.623032
Si Si4 0.676363 0.472325 0.424523
Si Si5 0.821084 0.416912 0.520812
O O1 0.500000 0.035390 0.704138
O O2 0.250000 0.009913 0.750000
O O3 0.264188 0.085467 0.663612
O O4 0.300370 0.974505 0.645045
O O5 0.750000 0.750000 0.250000
O O6 0.768717 0.695031 0.152573
O O7 0.000000 0.750000 0.195995
O O8 0.500000 0.133742 0.613171
O O9 0.241154 0.134642 0.559929
O O10 0.500000 0.476550 0.439960
O O11 0.750126 0.416799 0.455188
O O12 0.763363 0.526238 0.449320
O O13 0.000000 0.414316 0.516833
#
# Coordination Sequence:
#
# PCOD8297219 Si02
#       5
#    16   8  16  16  16
#     4   9  17  26  38  55  77 104 132 160 194 232
#     4  10  20  32  46  60  78 106 141 176 211 244
#     4   9  18  31  42  55  76 105 136 168 206 244
#     4   9  16  27  40  55  77 103 126 155 196 241
#     4  10  17  25  40  60  75  94 127 166 201 235
#
# _framework density 14.883193
#
# number of rings (size 3 to 8) (size 9 to 14) (size 15 to 20)
#    0.000    2.667    0.000    6.000    0.000    5.333 
#    0.000    0.000    0.000    0.000    0.000    0.000 
#    0.000    0.000    0.000    1.000    0.000   11.778 
#
# Total GULP energy -446060.777556 kJ/mol
# GULP energy per Si atom -12390.577154 kJ/mol
# Density = 1.484932 g / cm^3
# Si number density = 14.883193 Si / 1000 Ang^3
#
#
#
# Elastic Constant Matrix: (Units=GPa)
#
#
# Indices 1 2 3 4 5 6 
#
# 1 62.0737 25.9178 53.1447 0.0000 0.0000 0.0000
# 2 25.9178 52.2396 57.8863 0.0000 0.0000 0.0000
# 3 53.1447 57.8863 132.3378 0.0000 0.0000 0.0000
# 4 0.0000 0.0000 0.0000 24.5923 0.0000 0.0000
# 5 0.0000 0.0000 0.0000 0.0000 29.4461 0.0000
# 6 0.0000 0.0000 0.0000 0.0000 0.0000 9.9922
#
#
#
# Elastic Compliance Matrix: (Units=1/GPa)
#
#
# Indices 1 2 3 4 5 6 
#
# 1 0.024712 -0.002452 -0.008851 0.000000 0.000000 0.000000
# 2 -0.002452 0.037391 -0.015371 0.000000 0.000000 0.000000
# 3 -0.008851 -0.015371 0.017834 0.000000 0.000000 0.000000
# 4 0.000000 0.000000 0.000000 0.040663 0.000000 0.000000
# 5 0.000000 0.000000 0.000000 0.000000 0.033960 0.000000
# 6 0.000000 0.000000 0.000000 0.000000 0.000000 0.100078
#
#
# Mechanical properties :
#
#
# Convention : Reuss Voigt Hill
#
# Bulk Modulus (GPa) = 37.60961 57.83875 47.72418
# Shear Modulus (GPa) = 15.78031 20.11960 17.94996
#
# Velocity S-wave (km/s) = 3.25972 3.68072 3.47660
# Velocity P-wave (km/s) = 6.28430 7.55048 6.94630
#
# Compressibility (1/GPa) = 0.02658895
#
# Stress axis : x y z
#
# Youngs Moduli (GPa) = 40.46651 26.74415 56.07204
#
# Poissons Ratio (x) = 0.06559 0.49630
# Poissons Ratio (y) = 0.09924 0.86186
# Poissons Ratio (z) = 0.35817 0.41107
#
# Static dielectric constant tensor:
#      x y z
#    x 2.850700 0.000000 0.000000 
#    y 0.000000 2.771540 0.000000 
#    z 0.000000 0.000000 3.458910 
# 
# 
# High freq. dielectric constant tensor:
#      x y z
#    x 1.575920 0.000000 0.000000 
#    y 0.000000 1.510750 0.000000 
#    z 0.000000 0.000000 1.574280 
# 
# From -- ./inp_files/48938.got.cif
#   From: 2010.03.12/outbox.cif.g09.slc.cpg/sg74_25_cif.got.tgz:48938.got - 2010.04.16 15:46:19.
