data_PCOD8297832
_publ_section_title
;
Structure prediction by ZEFSAII (Michael W. Deem and Ramdas Pophale) SiO2 
 PCOD8297832
Probable space group: I M M A
;
_chemical_formula_sum "Si O2"
_cell_formula_units_Z 104
_cell_length_a 17.007410
_cell_length_b 26.452073
_cell_length_c 13.121635
_cell_angle_alpha 90.000000
_cell_angle_beta 90.000000
_cell_angle_gamma 90.000000
_cell_volume 5903.177567
_symmetry_space_group_name_H-M "I M M A"
_symmetry_group_IT_number 74
_symmetry_cell_setting 'orthorhombic'
loop_
_space_group_symop_operation_xyz
x,y,z
-x,1/2-y,z
x,-y,-z
-x,1/2+y,-z
-x,-y,-z
x,1/2+y,-z
-x,y,z
x,1/2-y,z
1/2+x,1/2+y,1/2+z
1/2-x,-y,1/2+z
1/2+x,1/2-y,1/2-z
1/2-x,y,1/2-z
1/2-x,1/2-y,1/2-z
1/2+x,y,1/2-z
1/2-x,1/2+y,1/2+z
1/2+x,-y,1/2+z
loop_
_atom_site_type_symbol
_atom_site_label
_atom_site_fract_x
_atom_site_fract_y
_atom_site_fract_z
Si Si1 0.590394 0.587121 0.401208
Si Si2 0.593647 0.805095 0.352230
Si Si3 0.300950 0.551538 0.839349
Si Si4 0.091489 0.694136 0.374873
Si Si5 0.588384 0.535502 0.193293
Si Si6 0.808879 0.000000 0.000000
Si Si7 0.407811 0.101658 0.001126
O O1 0.500000 0.581354 0.434899
O O2 0.620176 0.645625 0.418109
O O3 0.600589 0.577419 0.280379
O O4 0.639141 0.548108 0.468102
O O5 0.500000 0.805586 0.344388
O O6 0.620726 0.750000 0.398418
O O7 0.629023 0.809863 0.237842
O O8 0.250000 0.578958 0.750000
O O9 0.357599 0.512090 0.782482
O O10 0.244270 0.518472 0.908627
O O11 0.353827 0.591541 0.900608
O O12 0.106126 0.750000 0.420173
O O13 0.126210 0.653694 0.454109
O O14 0.000000 0.681222 0.364690
O O15 0.500000 0.514859 0.194977
O O16 0.606785 0.558073 0.082056
O O17 0.500000 0.104421 0.032297
#
# Coordination Sequence:
#
# PCOD8297832 Si02
#       7
#    16  16  16  16  16   8  16
#     4  10  19  32  49  74 106 137 168 200 240 299
#     4   8  13  24  46  75 104 130 157 198 250 298
#     4  12  23  35  47  68  97 131 173 210 245 293
#     4   8  13  23  45  78 105 122 150 198 256 306
#     4  10  18  31  51  74 100 128 161 202 247 294
#     4  12  23  34  49  68  98 146 174 202 245 298
#     4  10  18  31  52  76  99 128 161 204 254 301
#
# _framework density 17.617629999999998
#
# number of rings (size 3 to 8) (size 9 to 14) (size 15 to 20)
#    0.000    2.154    4.615    1.615    0.000    1.231 
#    0.000    0.000    0.000    1.385    0.000    3.231 
#    0.000    4.923    0.000    0.000    0.000    0.000 
#
# Total GULP energy -644329.231832 kJ/mol
# GULP energy per Si atom -12390.946766 kJ/mol
# Density = 1.757753 g / cm^3
# Si number density = 17.617630 Si / 1000 Ang^3
#
#
#
# Elastic Constant Matrix: (Units=GPa)
#
#
# Indices 1 2 3 4 5 6 
#
# 1 50.8935 34.7739 23.6461 0.0000 0.0000 0.0000
# 2 34.7739 127.6029 25.7351 -0.0001 0.0000 0.0000
# 3 23.6461 25.7351 45.3920 -0.0002 0.0000 -0.0001
# 4 0.0000 -0.0001 -0.0002 26.0033 0.0000 0.0000
# 5 0.0000 0.0000 0.0000 0.0000 -46.5047 0.0000
# 6 0.0000 0.0000 -0.0001 0.0000 0.0000 3.4623
#
#
#
# Elastic Compliance Matrix: (Units=1/GPa)
#
#
# Indices 1 2 3 4 5 6 
#
# 1 0.028956 -0.005475 -0.011980 0.000000 0.000000 0.000000
# 2 -0.005475 0.009884 -0.002752 0.000000 0.000000 0.000000
# 3 -0.011980 -0.002752 0.029831 0.000000 0.000000 0.000000
# 4 0.000000 0.000000 0.000000 0.038457 0.000000 0.000000
# 5 0.000000 0.000000 0.000000 0.000000 -0.021503 0.000000
# 6 0.000000 0.000000 0.000000 0.000000 0.000000 0.288823
#
#
# Mechanical properties :
#
#
# Convention : Reuss Voigt Hill
#
# Bulk Modulus (GPa) = 35.38853 43.57766 39.48309
# Shear Modulus (GPa) = 11.78469 5.90772 8.84621
#
# Velocity S-wave (km/s) = 2.58914 1.83319 2.24324
# Velocity P-wave (km/s) = 5.39155 5.41015 5.40086
#
# Compressibility (1/GPa) = 0.02825774
#
# Stress axis : x y z
#
# Youngs Moduli (GPa) = 34.53539 101.17629 33.52204
#
# Poissons Ratio (x) = 0.55392 0.40160
# Poissons Ratio (y) = 0.18907 0.09224
# Poissons Ratio (z) = 0.41374 0.27840
#
# Static dielectric constant tensor:
#      x y z
#    x 3.142060 0.000000 0.000000 
#    y 0.000000 3.444650 0.000000 
#    z 0.000000 0.000000 3.062850 
# 
# 
# High freq. dielectric constant tensor:
#      x y z
#    x 1.663130 0.000000 0.000000 
#    y 0.000000 1.679110 0.000000 
#    z 0.000000 0.000000 1.643780 
# 
# From -- ./inp_files/22780.got.cif
#   From: 2010.03.12/outbox.cif.g09.slc.cpg/sg74_12_cif.got.tgz:22780.got - 2010.04.16 15:46:19.
