data_PCOD8297998
_publ_section_title
;
Structure prediction by ZEFSAII (Michael W. Deem and Ramdas Pophale) SiO2 
 PCOD8297998
Probable space group: I M M A
;
_chemical_formula_sum "Si O2"
_cell_formula_units_Z 64
_cell_length_a 17.801116
_cell_length_b 22.500061
_cell_length_c 8.129360
_cell_angle_alpha 90.000000
_cell_angle_beta 90.000000
_cell_angle_gamma 90.000000
_cell_volume 3256.021636
_symmetry_space_group_name_H-M "I M M A"
_symmetry_group_IT_number 74
_symmetry_cell_setting 'orthorhombic'
loop_
_space_group_symop_operation_xyz
x,y,z
-x,1/2-y,z
x,-y,-z
-x,1/2+y,-z
-x,-y,-z
x,1/2+y,-z
-x,y,z
x,1/2-y,z
1/2+x,1/2+y,1/2+z
1/2-x,-y,1/2+z
1/2+x,1/2-y,1/2-z
1/2-x,y,1/2-z
1/2-x,1/2-y,1/2-z
1/2+x,y,1/2-z
1/2-x,1/2+y,1/2+z
1/2+x,-y,1/2+z
loop_
_atom_site_type_symbol
_atom_site_label
_atom_site_fract_x
_atom_site_fract_y
_atom_site_fract_z
Si Si1 0.730644 0.250000 0.444523
Si Si2 0.913596 0.621909 0.628398
Si Si3 0.083892 0.250000 0.206415
Si Si4 0.816417 0.044635 0.141381
Si Si5 0.276274 0.128924 0.927427
O O1 0.750000 0.250000 0.250000
O O2 0.639575 0.250000 0.450111
O O3 0.765580 0.301911 0.550438
O O4 0.902142 0.689937 0.688300
O O5 0.886935 0.571481 0.758837
O O6 0.863780 0.612774 0.463038
O O7 0.000000 0.609119 0.585350
O O8 0.000000 0.250000 0.134280
O O9 0.750000 0.012601 0.250000
O O10 0.776079 0.101218 0.065255
O O11 0.846018 0.000000 0.000000
O O12 0.250000 0.106483 0.750000
#
# Coordination Sequence:
#
# PCOD8297998 Si02
#       5
#     8  16   8  16  16
#     4  12  17  34  55  82 110 146 195 229 274 339
#     4  10  20  36  58  83 114 153 188 230 286 337
#     4  10  18  32  56  82 113 146 183 229 279 331
#     4  10  20  36  58  81 110 147 193 239 279 333
#     4  11  21  34  55  84 114 147 188 235 278 338
#
# _framework density 19.655889999999999
#
# number of rings (size 3 to 8) (size 9 to 14) (size 15 to 20)
#    0.000    1.500    5.000    1.875    0.000    0.500 
#    0.000    2.500    0.000   25.500    0.000    0.000 
#    0.000    0.000    0.000    0.000    0.000    0.000 
#
# Total GULP energy -396530.801320 kJ/mol
# GULP energy per Si atom -12391.587541 kJ/mol
# Density = 1.961115 g / cm^3
# Si number density = 19.655890 Si / 1000 Ang^3
#
#
#
# Elastic Constant Matrix: (Units=GPa)
#
#
# Indices 1 2 3 4 5 6 
#
# 1 168.0460 30.4896 60.8332 0.0000 0.0000 0.0000
# 2 30.4896 79.1403 24.6227 0.0000 0.0000 0.0000
# 3 60.8332 24.6227 98.2353 0.0000 0.0000 0.0000
# 4 0.0000 0.0000 0.0000 14.2444 0.0000 0.0000
# 5 0.0000 0.0000 0.0000 0.0000 26.3304 0.0000
# 6 0.0000 0.0000 0.0000 0.0000 0.0000 15.1841
#
#
#
# Elastic Compliance Matrix: (Units=1/GPa)
#
#
# Indices 1 2 3 4 5 6 
#
# 1 0.007862 -0.001642 -0.004457 0.000000 0.000000 0.000000
# 2 -0.001642 0.014048 -0.002504 0.000000 0.000000 0.000000
# 3 -0.004457 -0.002504 0.013567 0.000000 0.000000 0.000000
# 4 0.000000 0.000000 0.000000 0.070203 0.000000 0.000000
# 5 0.000000 0.000000 0.000000 0.000000 0.037979 0.000000
# 6 0.000000 0.000000 0.000000 0.000000 0.000000 0.065858
#
#
# Mechanical properties :
#
#
# Convention : Reuss Voigt Hill
#
# Bulk Modulus (GPa) = 54.73356 64.14584 59.43970
# Shear Modulus (GPa) = 21.47635 26.45021 23.96328
#
# Velocity S-wave (km/s) = 3.30906 3.67231 3.49541
# Velocity P-wave (km/s) = 6.51968 7.11944 6.82615
#
# Compressibility (1/GPa) = 0.01827033
#
# Stress axis : x y z
#
# Youngs Moduli (GPa) = 127.19078 71.18679 73.70620
#
# Poissons Ratio (x) = 0.11691 0.32852
# Poissons Ratio (y) = 0.20888 0.18456
# Poissons Ratio (z) = 0.56690 0.17825
#
# Static dielectric constant tensor:
#      x y z
#    x 3.796750 0.000000 0.000000 
#    y 0.000000 3.556710 0.000000 
#    z 0.000000 0.000000 3.533980 
# 
# 
# High freq. dielectric constant tensor:
#      x y z
#    x 1.761370 0.000000 0.000000 
#    y 0.000000 1.778940 0.000000 
#    z 0.000000 0.000000 1.738330 
# 
# From -- ./inp_files/10284.got.cif
#   From: 2010.03.12/outbox.cif.g09.slc.cpg/sg74_6_cif.got.tgz:10284.got - 2010.04.16 15:46:19.
