data_PCOD8297535
_publ_section_title
;
Structure prediction by ZEFSAII (Michael W. Deem and Ramdas Pophale) SiO2 
 PCOD8297535
Probable space group: I M M A
;
_chemical_formula_sum "Si O2"
_cell_formula_units_Z 112
_cell_length_a 16.442453
_cell_length_b 14.651101
_cell_length_c 24.322941
_cell_angle_alpha 90.000000
_cell_angle_beta 90.000000
_cell_angle_gamma 90.000000
_cell_volume 5859.397450
_symmetry_space_group_name_H-M "I M M A"
_symmetry_group_IT_number 74
_symmetry_cell_setting 'orthorhombic'
loop_
_space_group_symop_operation_xyz
x,y,z
-x,1/2-y,z
x,-y,-z
-x,1/2+y,-z
-x,-y,-z
x,1/2+y,-z
-x,y,z
x,1/2-y,z
1/2+x,1/2+y,1/2+z
1/2-x,-y,1/2+z
1/2+x,1/2-y,1/2-z
1/2-x,y,1/2-z
1/2-x,1/2-y,1/2-z
1/2+x,y,1/2-z
1/2-x,1/2+y,1/2+z
1/2+x,-y,1/2+z
loop_
_atom_site_type_symbol
_atom_site_label
_atom_site_fract_x
_atom_site_fract_y
_atom_site_fract_z
Si Si1 0.095457 0.354135 0.717124
Si Si2 0.365249 0.649579 0.635495
Si Si3 0.683910 0.001899 0.707637
Si Si4 0.183414 0.651213 0.596727
Si Si5 0.681142 0.457659 0.874109
Si Si6 0.261140 0.650950 0.024867
Si Si7 0.410969 0.396010 0.485016
O O1 0.127153 0.250000 0.722696
O O2 0.134958 0.416102 0.764233
O O3 0.117573 0.392449 0.656656
O O4 0.000000 0.357969 0.724642
O O5 0.399107 0.750000 0.652334
O O6 0.377381 0.577345 0.685741
O O7 0.270139 0.657018 0.625117
O O8 0.409680 0.615618 0.580752
O O9 0.750000 0.959428 0.750000
O O10 0.732358 0.044607 0.656601
O O11 0.138588 0.750000 0.607796
O O12 0.141173 0.560251 0.622017
O O13 0.192789 0.635443 0.532088
O O14 0.703658 0.425278 0.935049
O O15 0.283134 0.750000 0.049519
O O16 0.163442 0.653285 0.015411
O O17 0.400967 0.500000 0.500000
O O18 0.500000 0.359553 0.505110
#
# Coordination Sequence:
#
# PCOD8297535 Si02
#       7
#    16  16  16  16  16  16  16
#     4  10  22  39  55  71  95 127 162 204 256 305
#     4   9  17  30  48  71 100 134 171 205 241 290
#     4   9  19  33  52  76  98 126 165 212 255 290
#     4   8  15  28  48  75 104 131 158 195 242 286
#     4  10  18  32  55  77  98 127 167 207 241 289
#     4  10  18  28  47  75 104 133 167 204 240 285
#     4  10  19  30  44  65 101 145 177 202 239 291
#
# _framework density 19.114594
#
# number of rings (size 3 to 8) (size 9 to 14) (size 15 to 20)
#    0.000    2.571    0.000    4.714    0.000    5.143 
#    0.000    2.857    0.000    3.000    0.000    2.000 
#    0.000    0.000    0.000    0.000    0.000    0.000 
#
# Total GULP energy -693765.720516 kJ/mol
# GULP energy per Si atom -12388.673581 kJ/mol
# Density = 1.907109 g / cm^3
# Si number density = 19.114594 Si / 1000 Ang^3
#
#
#
# Elastic Constant Matrix: (Units=GPa)
#
#
# Indices 1 2 3 4 5 6 
#
# 1 26.3326 32.9011 15.1688 0.0000 0.0000 0.0000
# 2 32.9011 173.3616 68.2156 0.0000 0.0000 0.0000
# 3 15.1688 68.2156 82.8031 0.0000 0.0000 0.0000
# 4 0.0000 0.0000 0.0000 32.1523 0.0000 0.0000
# 5 0.0000 0.0000 0.0000 0.0000 1.4520 0.0000
# 6 0.0000 0.0000 0.0000 0.0000 0.0000 134.1086
#
#
#
# Elastic Compliance Matrix: (Units=1/GPa)
#
#
# Indices 1 2 3 4 5 6 
#
# 1 0.049999 -0.008708 -0.001986 0.000000 0.000000 0.000000
# 2 -0.008708 0.010052 -0.006686 0.000000 0.000000 0.000000
# 3 -0.001986 -0.006686 0.017948 0.000000 0.000000 0.000000
# 4 0.000000 0.000000 0.000000 0.031102 0.000000 0.000000
# 5 0.000000 0.000000 0.000000 0.000000 0.688720 0.000000
# 6 0.000000 0.000000 0.000000 0.000000 0.000000 0.007457
#
#
# Mechanical properties :
#
#
# Convention : Reuss Voigt Hill
#
# Bulk Modulus (GPa) = 23.12612 57.22980 40.17796
# Shear Modulus (GPa) = 5.85172 44.62336 25.23754
#
# Velocity S-wave (km/s) = 1.75158 4.83693 3.63757
# Velocity P-wave (km/s) = 4.02687 7.82303 6.22156
#
# Compressibility (1/GPa) = 0.04324115
#
# Stress axis : x y z
#
# Youngs Moduli (GPa) = 20.00030 99.48716 55.71524
#
# Poissons Ratio (x) = 0.86630 0.11064
# Poissons Ratio (y) = 0.17415 0.37249
# Poissons Ratio (z) = 0.03972 0.66513
#
# Static dielectric constant tensor:
#      x y z
#    x 3.132020 0.000000 0.000000 
#    y 0.000000 3.933390 0.000000 
#    z 0.000000 0.000000 3.522390 
# 
# 
# High freq. dielectric constant tensor:
#      x y z
#    x 1.694100 0.000000 0.000000 
#    y 0.000000 1.765060 0.000000 
#    z 0.000000 0.000000 1.734140 
# 
# From -- ./inp_files/60119.got.cif
#   From: 2010.03.12/outbox.cif.g09.slc.cpg/sg74_31_cif.got.tgz:60119.got - 2010.04.16 15:46:19.
