data_PCOD8297036
_publ_section_title
;
Structure prediction by ZEFSAII (Michael W. Deem and Ramdas Pophale) SiO2 
 PCOD8297036
Probable space group: I B C A 
;
_chemical_formula_sum "Si O2"
_cell_formula_units_Z 72
_cell_length_a 13.548947
_cell_length_b 12.582229
_cell_length_c 17.803351
_cell_angle_alpha 90.000000
_cell_angle_beta 90.000000
_cell_angle_gamma 90.000000
_cell_volume 3035.043244
_symmetry_space_group_name_H-M "I B C A "
_symmetry_group_IT_number 73
_symmetry_cell_setting 'orthorhombic'
loop_
_space_group_symop_operation_xyz
x,y,z
-x,1/2-y,z
x,-y,1/2-z
1/2-x,y,-z
-x,-y,-z
x,1/2+y,-z
-x,y,1/2+z
1/2+x,-y,z
1/2+x,1/2+y,1/2+z
1/2-x,-y,1/2+z
1/2+x,1/2-y,-z
-x,1/2+y,1/2-z
1/2-x,1/2-y,1/2-z
1/2+x,y,1/2-z
1/2-x,1/2+y,z
x,1/2-y,1/2+z
loop_
_atom_site_type_symbol
_atom_site_label
_atom_site_fract_x
_atom_site_fract_y
_atom_site_fract_z
Si Si1 0.300965 0.193204 0.378246
Si Si2 0.600630 0.610276 0.566378
Si Si3 0.929425 0.522542 0.830838
Si Si4 0.250000 0.547655 0.500000
Si Si5 0.401127 0.695739 0.899763
O O1 0.362726 0.301118 0.375245
O O2 0.345177 0.113765 0.314726
O O3 0.323089 0.123500 0.453188
O O4 0.184916 0.220646 0.377742
O O5 0.505237 0.557958 0.603907
O O6 0.685253 0.522633 0.556639
O O7 0.584298 0.671003 0.487901
O O8 0.980743 0.500000 0.750000
O O9 0.877594 0.415360 0.859575
O O10 0.500000 0.750000 0.868423
#
# Coordination Sequence:
#
# PCOD8297036 Si02
#       5
#    16  16  16   8  16
#     4  12  23  44  74 109 144 191 254 314 381 442
#     4  12  23  43  76 110 145 188 256 324 372 447
#     4  12  29  47  69 107 156 207 243 298 392 480
#     4  12  20  42  74 114 142 180 248 318 386 426
#     4  12  24  43  74 111 139 192 258 326 374 435
#
# _framework density 23.72289
#
# number of rings (size 3 to 8) (size 9 to 14) (size 15 to 20)
#    0.000    0.000    6.667    4.000    0.000    2.667 
#    0.000    7.778    0.000    0.000    0.000    0.000 
#    0.000    0.000    0.000    0.000    0.000    0.000 
#
# Total GULP energy -446139.965572 kJ/mol
# GULP energy per Si atom -12392.776821 kJ/mol
# Density = 2.366890 g / cm^3
# Si number density = 23.722890 Si / 1000 Ang^3
#
#
#
# Elastic Constant Matrix: (Units=GPa)
#
#
# Indices 1 2 3 4 5 6 
#
# 1 137.0233 68.4793 46.1990 0.0000 0.0000 0.0000
# 2 68.4793 157.9612 27.2876 0.0000 0.0000 0.0000
# 3 46.1990 27.2876 64.7558 0.0000 0.0000 0.0000
# 4 0.0000 0.0000 0.0000 5.8580 0.0000 0.0000
# 5 0.0000 0.0000 0.0000 0.0000 15.2224 0.0000
# 6 0.0000 0.0000 0.0000 0.0000 0.0000 39.8487
#
#
#
# Elastic Compliance Matrix: (Units=1/GPa)
#
#
# Indices 1 2 3 4 5 6 
#
# 1 0.011407 -0.003817 -0.006530 0.000000 0.000000 0.000000
# 2 -0.003817 0.008105 -0.000692 0.000000 0.000000 0.000000
# 3 -0.006530 -0.000692 0.020393 0.000000 0.000000 0.000000
# 4 0.000000 0.000000 0.000000 0.170707 0.000000 0.000000
# 5 0.000000 0.000000 0.000000 0.000000 0.065693 0.000000
# 6 0.000000 0.000000 0.000000 0.000000 0.000000 0.025095
#
#
# Mechanical properties :
#
#
# Convention : Reuss Voigt Hill
#
# Bulk Modulus (GPa) = 56.09469 71.51912 63.80691
# Shear Modulus (GPa) = 15.17817 26.70411 20.94114
#
# Velocity S-wave (km/s) = 2.53219 3.35874 2.97432
# Velocity P-wave (km/s) = 5.67860 6.72716 6.22500
#
# Compressibility (1/GPa) = 0.01782700
#
# Stress axis : x y z
#
# Youngs Moduli (GPa) = 87.66252 123.37914 49.03679
#
# Poissons Ratio (x) = 0.47098 0.32020
# Poissons Ratio (y) = 0.33463 0.03394
# Poissons Ratio (z) = 0.57242 0.08538
#
# Static dielectric constant tensor:
#      x y z
#    x 4.232790 0.000000 0.000000 
#    y 0.000000 4.832440 0.000000 
#    z 0.000000 0.000000 4.059380 
# 
# 
# High freq. dielectric constant tensor:
#      x y z
#    x 1.936400 0.000000 0.000000 
#    y 0.000000 1.975790 0.000000 
#    z 0.000000 0.000000 1.898550 
# 
# From -- ./inp_files/25852.got.cif
#   From: 2010.03.12/outbox.cif.g09.slc.cpg/sg73_13_cif.got.tgz:25852.got - 2010.04.16 15:25:48.
