data_PCOD8297922
_publ_section_title
;
Structure prediction by ZEFSAII (Michael W. Deem and Ramdas Pophale) SiO2 
 PCOD8297922
Probable space group: I M M A
;
_chemical_formula_sum "Si O2"
_cell_formula_units_Z 72
_cell_length_a 14.097665
_cell_length_b 8.925707
_cell_length_c 36.830054
_cell_angle_alpha 90.000000
_cell_angle_beta 90.000000
_cell_angle_gamma 90.000000
_cell_volume 4634.385624
_symmetry_space_group_name_H-M "I M M A"
_symmetry_group_IT_number 74
_symmetry_cell_setting 'orthorhombic'
loop_
_space_group_symop_operation_xyz
x,y,z
-x,1/2-y,z
x,-y,-z
-x,1/2+y,-z
-x,-y,-z
x,1/2+y,-z
-x,y,z
x,1/2-y,z
1/2+x,1/2+y,1/2+z
1/2-x,-y,1/2+z
1/2+x,1/2-y,1/2-z
1/2-x,y,1/2-z
1/2-x,1/2-y,1/2-z
1/2+x,y,1/2-z
1/2-x,1/2+y,1/2+z
1/2+x,-y,1/2+z
loop_
_atom_site_type_symbol
_atom_site_label
_atom_site_fract_x
_atom_site_fract_y
_atom_site_fract_z
Si Si1 0.612127 0.919949 0.725383
Si Si2 0.287677 0.577347 0.340128
Si Si3 0.395749 0.419385 0.401802
Si Si4 0.000000 0.572625 0.039135
Si Si5 0.393084 0.422290 0.798202
O O1 0.500000 0.931675 0.722869
O O2 0.647739 0.750000 0.720136
O O3 0.654089 0.024424 0.694539
O O4 0.645029 0.977757 0.764875
O O5 0.311734 0.750000 0.347107
O O6 0.315730 0.486645 0.375934
O O7 0.175747 0.551211 0.332602
O O8 0.500000 0.420929 0.382095
O O9 0.366323 0.250000 0.411752
O O10 0.405936 0.515729 0.439033
O O11 0.000000 0.750000 0.035936
O O12 0.000000 0.500000 0.000000
O O13 0.500000 0.467586 0.809787
O O14 0.388946 0.250000 0.785471
#
# Coordination Sequence:
#
# PCOD8297922 Si02
#       5
#    16  16  16   8  16
#     4  10  20  31  43  60  83 112 147 189 239 289
#     4  11  20  29  45  65  85 114 151 192 236 279
#     4   9  19  32  46  68  96 124 151 180 217 261
#     4  10  18  32  52  74 102 132 156 178 210 260
#     4   9  19  34  46  58  80 112 153 198 241 284
#
# _framework density 15.53604
#
# number of rings (size 3 to 8) (size 9 to 14) (size 15 to 20)
#    0.667    1.556    0.000    4.000    0.000    8.444 
#    0.000    0.000    0.000    0.000    0.000    0.000 
#    0.000    0.889    0.000    2.444    0.000    3.556 
#
# Total GULP energy -446265.145568 kJ/mol
# GULP energy per Si atom -12396.254044 kJ/mol
# Density = 1.550068 g / cm^3
# Si number density = 15.536040 Si / 1000 Ang^3
#
#
#
# Elastic Constant Matrix: (Units=GPa)
#
#
# Indices 1 2 3 4 5 6 
#
# 1 38.1525 33.4291 44.8497 0.0000 0.0000 0.0000
# 2 33.4291 113.2512 49.2368 0.0000 0.0000 0.0000
# 3 44.8497 49.2368 97.5219 0.0000 0.0000 0.0000
# 4 0.0000 0.0000 0.0000 29.5399 0.0000 0.0000
# 5 0.0000 0.0000 0.0000 0.0000 17.4517 0.0000
# 6 0.0000 0.0000 0.0000 0.0000 0.0000 18.5126
#
#
#
# Elastic Compliance Matrix: (Units=1/GPa)
#
#
# Indices 1 2 3 4 5 6 
#
# 1 0.061689 -0.007527 -0.024570 0.000000 0.000000 0.000000
# 2 -0.007527 0.012232 -0.002714 0.000000 0.000000 0.000000
# 3 -0.024570 -0.002714 0.022924 0.000000 0.000000 0.000000
# 4 0.000000 0.000000 0.000000 0.033853 0.000000 0.000000
# 5 0.000000 0.000000 0.000000 0.000000 0.057301 0.000000
# 6 0.000000 0.000000 0.000000 0.000000 0.000000 0.054017
#
#
# Mechanical properties :
#
#
# Convention : Reuss Voigt Hill
#
# Bulk Modulus (GPa) = 36.73444 55.99519 46.36482
# Shear Modulus (GPa) = 15.59034 21.19484 18.39259
#
# Velocity S-wave (km/s) = 3.17124 3.69756 3.44447
# Velocity P-wave (km/s) = 6.09139 7.37222 6.76220
#
# Compressibility (1/GPa) = 0.02722241
#
# Stress axis : x y z
#
# Youngs Moduli (GPa) = 16.21037 81.75548 43.62262
#
# Poissons Ratio (x) = 0.61538 1.07181
# Poissons Ratio (y) = 0.12202 0.11838
# Poissons Ratio (z) = 0.39829 0.22187
#
# Static dielectric constant tensor:
#      x y z
#    x 2.979010 0.000000 0.000000 
#    y 0.000000 3.143940 0.000000 
#    z 0.000000 0.000000 2.687140 
# 
# 
# High freq. dielectric constant tensor:
#      x y z
#    x 1.579330 0.000000 0.000000 
#    y 0.000000 1.615280 0.000000 
#    z 0.000000 0.000000 1.560950 
# 
# From -- ./inp_files/72259.got.cif
#   From: 2010.03.12/outbox.cif.g09.slc.cpg/sg74_37_cif.got.tgz:72259.got - 2010.04.16 15:46:19.
