data_PCOD8297404
_publ_section_title
;
Structure prediction by ZEFSAII (Michael W. Deem and Ramdas Pophale) SiO2 
 PCOD8297404
Probable space group: I M M A
;
_chemical_formula_sum "Si O2"
_cell_formula_units_Z 72
_cell_length_a 23.553517
_cell_length_b 9.459225
_cell_length_c 22.477684
_cell_angle_alpha 90.000000
_cell_angle_beta 90.000000
_cell_angle_gamma 90.000000
_cell_volume 5007.983418
_symmetry_space_group_name_H-M "I M M A"
_symmetry_group_IT_number 74
_symmetry_cell_setting 'orthorhombic'
loop_
_space_group_symop_operation_xyz
x,y,z
-x,1/2-y,z
x,-y,-z
-x,1/2+y,-z
-x,-y,-z
x,1/2+y,-z
-x,y,z
x,1/2-y,z
1/2+x,1/2+y,1/2+z
1/2-x,-y,1/2+z
1/2+x,1/2-y,1/2-z
1/2-x,y,1/2-z
1/2-x,1/2-y,1/2-z
1/2+x,y,1/2-z
1/2-x,1/2+y,1/2+z
1/2+x,-y,1/2+z
loop_
_atom_site_type_symbol
_atom_site_label
_atom_site_fract_x
_atom_site_fract_y
_atom_site_fract_z
Si Si1 0.660689 0.907885 0.772398
Si Si2 0.221922 0.090433 0.158023
Si Si3 0.726148 0.915723 0.060818
Si Si4 0.888710 0.087323 0.631100
Si Si5 0.500000 0.583051 0.060993
O O1 0.635607 0.750000 0.772789
O O2 0.719413 0.912260 0.807145
O O3 0.671989 0.955971 0.703981
O O4 0.615873 0.007803 0.805702
O O5 0.210727 0.250000 0.134209
O O6 0.225018 0.979088 0.103960
O O7 0.737707 0.750000 0.050608
O O8 0.664269 0.943575 0.088225
O O9 0.729561 0.000000 0.000000
O O10 0.892797 0.250000 0.647975
O O11 0.944912 0.035291 0.597746
O O12 0.500000 0.750000 0.047692
O O13 0.500000 0.500000 0.000000
#
# Coordination Sequence:
#
# PCOD8297404 Si02
#       5
#    16  16  16  16   8
#     4   8  14  25  41  57  72  92 120 153 191 231
#     4   8  14  25  39  55  74  95 119 150 187 229
#     4  10  18  26  37  54  75 101 130 159 190 226
#     4   9  18  29  40  54  73  98 130 166 200 229
#     4  10  20  32  42  54  74 102 135 170 203 230
#
# _framework density 14.377045000000001
#
# number of rings (size 3 to 8) (size 9 to 14) (size 15 to 20)
#    0.000    3.111    0.000    2.667    0.000    2.667 
#    0.000    4.444    0.000    0.000    0.000    0.000 
#    0.000    0.000    0.000    1.000    0.000   12.889 
#
# Total GULP energy -446178.965687 kJ/mol
# GULP energy per Si atom -12393.860158 kJ/mol
# Density = 1.434432 g / cm^3
# Si number density = 14.377045 Si / 1000 Ang^3
#
#
#
# Elastic Constant Matrix: (Units=GPa)
#
#
# Indices 1 2 3 4 5 6 
#
# 1 49.4484 37.5029 52.4611 0.0000 0.0000 0.0000
# 2 37.5029 87.5849 73.2072 0.0000 0.0000 0.0000
# 3 52.4611 73.2072 106.5237 0.0000 0.0000 0.0000
# 4 0.0000 0.0000 0.0000 31.7127 0.0000 0.0000
# 5 0.0000 0.0000 0.0000 0.0000 19.8422 0.0000
# 6 0.0000 0.0000 0.0000 0.0000 0.0000 15.3639
#
#
#
# Elastic Compliance Matrix: (Units=1/GPa)
#
#
# Indices 1 2 3 4 5 6 
#
# 1 0.042452 -0.001651 -0.019773 0.000000 0.000000 0.000000
# 2 -0.001651 0.026892 -0.017668 0.000000 0.000000 0.000000
# 3 -0.019773 -0.017668 0.031268 0.000000 0.000000 0.000000
# 4 0.000000 0.000000 0.000000 0.031533 0.000000 0.000000
# 5 0.000000 0.000000 0.000000 0.000000 0.050398 0.000000
# 6 0.000000 0.000000 0.000000 0.000000 0.000000 0.065088
#
#
# Mechanical properties :
#
#
# Convention : Reuss Voigt Hill
#
# Bulk Modulus (GPa) = 44.58577 63.32216 53.95396
# Shear Modulus (GPa) = 15.00191 18.74282 16.87236
#
# Velocity S-wave (km/s) = 3.23377 3.61454 3.42945
# Velocity P-wave (km/s) = 6.70985 7.84598 7.30005
#
# Compressibility (1/GPa) = 0.02242868
#
# Stress axis : x y z
#
# Youngs Moduli (GPa) = 23.55575 37.18520 31.98197
#
# Poissons Ratio (x) = 0.06139 0.63236
# Poissons Ratio (y) = 0.03889 0.56507
# Poissons Ratio (z) = 0.46576 0.65700
#
# Static dielectric constant tensor:
#      x y z
#    x 2.702060 0.000000 0.000000 
#    y 0.000000 2.942230 0.000000 
#    z 0.000000 0.000000 2.967830 
# 
# 
# High freq. dielectric constant tensor:
#      x y z
#    x 1.497470 0.000000 0.000000 
#    y 0.000000 1.556480 0.000000 
#    z 0.000000 0.000000 1.545650 
# 
# From -- ./inp_files/48507.got.cif
#   From: 2010.03.12/outbox.cif.g09.slc.cpg/sg74_25_cif.got.tgz:48507.got - 2010.04.16 15:46:19.
