data_PCOD8297222
_publ_section_title
;
Structure prediction by ZEFSAII (Michael W. Deem and Ramdas Pophale) SiO2 
 PCOD8297222
Probable space group: I M M A
;
_chemical_formula_sum "Si O2"
_cell_formula_units_Z 96
_cell_length_a 8.859218
_cell_length_b 28.663002
_cell_length_c 26.444707
_cell_angle_alpha 90.000000
_cell_angle_beta 90.000000
_cell_angle_gamma 90.000000
_cell_volume 6715.151606
_symmetry_space_group_name_H-M "I M M A"
_symmetry_group_IT_number 74
_symmetry_cell_setting 'orthorhombic'
loop_
_space_group_symop_operation_xyz
x,y,z
-x,1/2-y,z
x,-y,-z
-x,1/2+y,-z
-x,-y,-z
x,1/2+y,-z
-x,y,z
x,1/2-y,z
1/2+x,1/2+y,1/2+z
1/2-x,-y,1/2+z
1/2+x,1/2-y,1/2-z
1/2-x,y,1/2-z
1/2-x,1/2-y,1/2-z
1/2+x,y,1/2-z
1/2-x,1/2+y,1/2+z
1/2+x,-y,1/2+z
loop_
_atom_site_type_symbol
_atom_site_label
_atom_site_fract_x
_atom_site_fract_y
_atom_site_fract_z
Si Si1 0.332359 0.468386 0.450348
Si Si2 0.678637 0.109228 0.802446
Si Si3 0.172913 0.397689 0.510574
Si Si4 0.821619 0.943421 0.105946
Si Si5 0.671537 0.801160 0.046860
Si Si6 0.824592 0.302922 0.848086
O O1 0.328627 0.500000 0.500000
O O2 0.500000 0.449109 0.440533
O O3 0.224981 0.423534 0.458925
O O4 0.281421 0.501760 0.403917
O O5 0.500000 0.107471 0.798995
O O6 0.750000 0.092321 0.750000
O O7 0.734083 0.073224 0.844799
O O8 0.729565 0.162155 0.813493
O O9 0.271800 0.412949 0.558188
O O10 0.195390 0.341616 0.504844
O O11 0.000000 0.410960 0.521074
O O12 0.000000 0.936581 0.113214
O O13 0.500000 0.803669 0.067732
O O14 0.703337 0.750000 0.022535
O O15 0.782114 0.810085 0.093553
O O16 0.788947 0.250000 0.830816
O O17 0.000000 0.315040 0.841792
#
# Coordination Sequence:
#
# PCOD8297222 Si02
#       6
#    16  16  16  16  16  16
#     4   8  16  28  42  60  82 107 129 159 204 245
#     4  12  24  36  49  63  79 103 133 170 215 256
#     4  10  17  25  42  65  84 107 136 168 202 241
#     4  10  19  32  46  60  81 105 131 167 208 250
#     4   9  17  28  41  59  84 112 139 168 205 245
#     4  10  20  33  48  63  78 101 134 172 213 254
#
# _framework density 14.296029000000001
#
# number of rings (size 3 to 8) (size 9 to 14) (size 15 to 20)
#    0.000    2.167    1.667    4.000    0.000    5.667 
#    0.000    0.000    0.000    0.000    0.000    0.000 
#    0.000    0.000    0.000    0.000    0.000    0.833 
#
# Total GULP energy -594926.299543 kJ/mol
# GULP energy per Si atom -12394.297907 kJ/mol
# Density = 1.426349 g / cm^3
# Si number density = 14.296029 Si / 1000 Ang^3
#
#
#
# Elastic Constant Matrix: (Units=GPa)
#
#
# Indices 1 2 3 4 5 6 
#
# 1 92.6099 44.4202 34.0016 0.0000 0.0000 0.0000
# 2 44.4202 90.6633 47.8924 0.0000 0.0000 0.0000
# 3 34.0016 47.8924 51.3141 0.0000 0.0000 0.0000
# 4 0.0000 0.0000 0.0000 15.8062 0.0000 0.0000
# 5 0.0000 0.0000 0.0000 0.0000 19.5937 0.0000
# 6 0.0000 0.0000 0.0000 0.0000 0.0000 21.6102
#
#
#
# Elastic Compliance Matrix: (Units=1/GPa)
#
#
# Indices 1 2 3 4 5 6 
#
# 1 0.015020 -0.004145 -0.006083 0.000000 0.000000 0.000000
# 2 -0.004145 0.022900 -0.018626 0.000000 0.000000 0.000000
# 3 -0.006083 -0.018626 0.040903 0.000000 0.000000 0.000000
# 4 0.000000 0.000000 0.000000 0.063266 0.000000 0.000000
# 5 0.000000 0.000000 0.000000 0.000000 0.051037 0.000000
# 6 0.000000 0.000000 0.000000 0.000000 0.000000 0.046275
#
#
# Mechanical properties :
#
#
# Convention : Reuss Voigt Hill
#
# Bulk Modulus (GPa) = 47.36464 54.13508 50.74986
# Shear Modulus (GPa) = 16.43933 18.62020 17.52976
#
# Velocity S-wave (km/s) = 3.39473 3.61290 3.50551
# Velocity P-wave (km/s) = 6.96913 7.43999 7.20841
#
# Compressibility (1/GPa) = 0.02111279
#
# Stress axis : x y z
#
# Youngs Moduli (GPa) = 66.57860 43.66796 24.44801
#
# Poissons Ratio (x) = 0.18102 0.14873
# Poissons Ratio (y) = 0.27599 0.45538
# Poissons Ratio (z) = 0.40503 0.81337
#
# Static dielectric constant tensor:
#      x y z
#    x 2.937780 0.000000 0.000000 
#    y 0.000000 3.148880 0.000000 
#    z 0.000000 0.000000 2.565050 
# 
# 
# High freq. dielectric constant tensor:
#      x y z
#    x 1.563210 0.000000 0.000000 
#    y 0.000000 1.543700 0.000000 
#    z 0.000000 0.000000 1.488650 
# 
# From -- ./inp_files/64936.got.cif
#   From: 2010.03.12/outbox.cif.g09.slc.cpg/sg74_33_cif.got.tgz:64936.got - 2010.04.16 15:46:19.
