data_PCOD8297044
_publ_section_title
;
Structure prediction by ZEFSAII (Michael W. Deem and Ramdas Pophale) SiO2 
 PCOD8297044
Probable space group: I B C A 
;
_chemical_formula_sum "Si O2"
_cell_formula_units_Z 64
_cell_length_a 13.320119
_cell_length_b 13.821860
_cell_length_c 15.050734
_cell_angle_alpha 90.000000
_cell_angle_beta 90.000000
_cell_angle_gamma 90.000000
_cell_volume 2770.972877
_symmetry_space_group_name_H-M "I B C A "
_symmetry_group_IT_number 73
_symmetry_cell_setting 'orthorhombic'
loop_
_space_group_symop_operation_xyz
x,y,z
-x,1/2-y,z
x,-y,1/2-z
1/2-x,y,-z
-x,-y,-z
x,1/2+y,-z
-x,y,1/2+z
1/2+x,-y,z
1/2+x,1/2+y,1/2+z
1/2-x,-y,1/2+z
1/2+x,1/2-y,-z
-x,1/2+y,1/2-z
1/2-x,1/2-y,1/2-z
1/2+x,y,1/2-z
1/2-x,1/2+y,z
x,1/2-y,1/2+z
loop_
_atom_site_type_symbol
_atom_site_label
_atom_site_fract_x
_atom_site_fract_y
_atom_site_fract_z
Si Si1 0.069699 0.574358 0.393205
Si Si2 0.240232 0.862834 0.761170
Si Si3 0.414704 0.000000 0.750000
Si Si4 0.000000 0.250000 0.986625
Si Si5 0.337120 0.385762 0.570012
O O1 0.161923 0.615221 0.337457
O O2 0.103541 0.484169 0.455819
O O3 0.980744 0.538445 0.330547
O O4 0.033313 0.661214 0.453385
O O5 0.250000 0.750000 0.750000
O O6 0.204565 0.907845 0.667859
O O7 0.346623 0.911298 0.785640
O O8 0.909021 0.290971 0.926431
O O9 0.250000 0.364270 0.500000
#
# Coordination Sequence:
#
# PCOD8297044 Si02
#       5
#    16  16   8   8  16
#     4  12  25  50  72 110 141 201 252 299 375 447
#     4  12  26  45  78 106 144 197 250 303 364 446
#     4  12  22  46  78 102 142 184 258 304 348 438
#     4  12  30  44  74 112 152 196 246 312 378 458
#     4  12  26  49  70 112 151 191 241 309 383 433
#
# _framework density 23.096579999999999
#
# number of rings (size 3 to 8) (size 9 to 14) (size 15 to 20)
#    0.000    0.000    5.000    5.250    3.500    4.000 
#    0.000    0.000    0.000    0.000    0.000    0.000 
#    0.000    0.000    0.000    0.000    0.000    0.000 
#
# Total GULP energy -396967.898249 kJ/mol
# GULP energy per Si atom -12405.246820 kJ/mol
# Density = 2.304401 g / cm^3
# Si number density = 23.096580 Si / 1000 Ang^3
#
#
#
# Elastic Constant Matrix: (Units=GPa)
#
#
# Indices 1 2 3 4 5 6 
#
# 1 126.7097 42.3293 0.1536 0.0000 0.0000 0.0000
# 2 42.3293 167.1054 -11.7975 0.0000 0.0000 0.0000
# 3 0.1536 -11.7975 30.8433 0.0000 0.0000 0.0000
# 4 0.0000 0.0000 0.0000 75.1301 0.0000 0.0000
# 5 0.0000 0.0000 0.0000 0.0000 15.2851 0.0000
# 6 0.0000 0.0000 0.0000 0.0000 0.0000 62.3563
#
#
#
# Elastic Compliance Matrix: (Units=1/GPa)
#
#
# Indices 1 2 3 4 5 6 
#
# 1 0.008646 -0.002254 -0.000905 0.000000 0.000000 0.000000
# 2 -0.002254 0.006738 0.002588 0.000000 0.000000 0.000000
# 3 -0.000905 0.002588 0.033417 0.000000 0.000000 0.000000
# 4 0.000000 0.000000 0.000000 0.013310 0.000000 0.000000
# 5 0.000000 0.000000 0.000000 0.000000 0.065423 0.000000
# 6 0.000000 0.000000 0.000000 0.000000 0.000000 0.016037
#
#
# Mechanical properties :
#
#
# Convention : Reuss Voigt Hill
#
# Bulk Modulus (GPa) = 20.98238 42.89213 31.93726
# Shear Modulus (GPa) = 31.13349 50.15251 40.64300
#
# Velocity S-wave (km/s) = 3.67545 4.66491 4.19943
# Velocity P-wave (km/s) = 5.20733 6.90118 6.11321
#
# Compressibility (1/GPa) = 0.04765904
#
# Stress axis : x y z
#
# Youngs Moduli (GPa) = 115.65837 148.41276 29.92531
#
# Poissons Ratio (x) = 0.33453 0.02709
# Poissons Ratio (y) = 0.26070 -0.07746
# Poissons Ratio (z) = 0.10470 -0.38416
#
# Static dielectric constant tensor:
#      x y z
#    x 4.468380 0.000000 0.000000 
#    y 0.000000 4.567810 0.000000 
#    z 0.000000 0.000000 4.099600 
# 
# 
# High freq. dielectric constant tensor:
#      x y z
#    x 1.932060 0.000000 0.000000 
#    y 0.000000 1.941500 0.000000 
#    z 0.000000 0.000000 1.904820 
# 
# From -- ./inp_files/10487.got.cif
#   From: 2010.03.12/outbox.cif.g09.slc.cpg/sg73_6_cif.got.tgz:10487.got - 2010.04.16 15:25:48.
