data_PCOD8297735
_publ_section_title
;
Structure prediction by ZEFSAII (Michael W. Deem and Ramdas Pophale) SiO2 
 PCOD8297735
Probable space group: I M M A
;
_chemical_formula_sum "Si O2"
_cell_formula_units_Z 56
_cell_length_a 9.068372
_cell_length_b 9.911844
_cell_length_c 38.828906
_cell_angle_alpha 90.000000
_cell_angle_beta 90.000000
_cell_angle_gamma 90.000000
_cell_volume 3490.108593
_symmetry_space_group_name_H-M "I M M A"
_symmetry_group_IT_number 74
_symmetry_cell_setting 'orthorhombic'
loop_
_space_group_symop_operation_xyz
x,y,z
-x,1/2-y,z
x,-y,-z
-x,1/2+y,-z
-x,-y,-z
x,1/2+y,-z
-x,y,z
x,1/2-y,z
1/2+x,1/2+y,1/2+z
1/2-x,-y,1/2+z
1/2+x,1/2-y,1/2-z
1/2-x,y,1/2-z
1/2-x,1/2-y,1/2-z
1/2+x,y,1/2-z
1/2-x,1/2+y,1/2+z
1/2+x,-y,1/2+z
loop_
_atom_site_type_symbol
_atom_site_label
_atom_site_fract_x
_atom_site_fract_y
_atom_site_fract_z
Si Si1 0.674747 0.250000 0.213260
Si Si2 0.827017 0.595558 0.100349
Si Si3 0.665846 0.897726 0.658568
Si Si4 0.673186 0.095737 0.969519
O O1 0.500000 0.250000 0.217015
O O2 0.750000 0.250000 0.250000
O O3 0.730166 0.115751 0.192505
O O4 0.787233 0.750000 0.108686
O O5 0.766842 0.505954 0.132020
O O6 0.749240 0.547158 0.065533
O O7 0.000000 0.573093 0.095450
O O8 0.500000 0.940847 0.669898
O O9 0.660720 0.750000 0.640262
O O10 0.500000 0.079189 0.964370
O O11 0.716324 0.250000 0.978305
O O12 0.731552 0.000000 0.000000
#
# Coordination Sequence:
#
# PCOD8297735 Si02
#       4
#     8  16  16  16
#     4  10  18  30  50  74  98 124 154 188 228 272
#     4   9  17  30  48  68  92 121 153 190 233 278
#     4   8  16  30  46  68  95 121 150 186 227 269
#     4   9  18  31  44  60  86 120 155 193 236 277
#
# _framework density 16.045345999999999
#
# number of rings (size 3 to 8) (size 9 to 14) (size 15 to 20)
#    0.857    2.286    0.000    0.857    0.000    2.857 
#    0.000    0.000    0.000    0.857    0.000    0.000 
#    0.000    0.000    0.000    0.000    0.000    0.000 
#
# Total GULP energy -346981.843033 kJ/mol
# GULP energy per Si atom -12392.208680 kJ/mol
# Density = 1.600883 g / cm^3
# Si number density = 16.045346 Si / 1000 Ang^3
#
#
#
# Elastic Constant Matrix: (Units=GPa)
#
#
# Indices 1 2 3 4 5 6 
#
# 1 64.6163 30.2323 59.8921 0.0000 0.0000 0.0000
# 2 30.2323 65.6444 71.1897 0.0000 0.0000 0.0000
# 3 59.8921 71.1897 157.0108 0.0000 0.0000 0.0000
# 4 0.0000 0.0000 0.0000 29.6030 0.0000 0.0000
# 5 0.0000 0.0000 0.0000 0.0000 31.3308 0.0000
# 6 0.0000 0.0000 0.0000 0.0000 0.0000 17.0312
#
#
#
# Elastic Compliance Matrix: (Units=1/GPa)
#
#
# Indices 1 2 3 4 5 6 
#
# 1 0.024104 -0.002223 -0.008187 0.000000 0.000000 0.000000
# 2 -0.002223 0.030175 -0.012834 0.000000 0.000000 0.000000
# 3 -0.008187 -0.012834 0.015311 0.000000 0.000000 0.000000
# 4 0.000000 0.000000 0.000000 0.033780 0.000000 0.000000
# 5 0.000000 0.000000 0.000000 0.000000 0.031918 0.000000
# 6 0.000000 0.000000 0.000000 0.000000 0.000000 0.058716
#
#
# Mechanical properties :
#
#
# Convention : Reuss Voigt Hill
#
# Bulk Modulus (GPa) = 43.28339 67.76663 55.52501
# Shear Modulus (GPa) = 20.14574 23.99014 22.06794
#
# Velocity S-wave (km/s) = 3.54722 3.87091 3.71259
# Velocity P-wave (km/s) = 6.61901 7.89333 7.28409
#
# Compressibility (1/GPa) = 0.02310355
#
# Stress axis : x y z
#
# Youngs Moduli (GPa) = 41.48664 33.13991 65.31362
#
# Poissons Ratio (x) = 0.07366 0.53471
# Poissons Ratio (y) = 0.09221 0.83822
# Poissons Ratio (z) = 0.33964 0.42531
#
# Static dielectric constant tensor:
#      x y z
#    x 2.940410 0.000000 0.000000 
#    y 0.000000 3.008590 0.000000 
#    z 0.000000 0.000000 2.981220 
# 
# 
# High freq. dielectric constant tensor:
#      x y z
#    x 1.611300 0.000000 0.000000 
#    y 0.000000 1.600940 0.000000 
#    z 0.000000 0.000000 1.607210 
# 
# From -- ./inp_files/69661.got.cif
#   From: 2010.03.12/outbox.cif.g09.slc.cpg/sg74_35_cif.got.tgz:69661.got - 2010.04.16 15:46:19.
