data_PCOD8297142
_publ_section_title
;
Structure prediction by ZEFSAII (Michael W. Deem and Ramdas Pophale) SiO2 
 PCOD8297142
Probable space group: I M M A
;
_chemical_formula_sum "Si O2"
_cell_formula_units_Z 72
_cell_length_a 12.923185
_cell_length_b 23.294452
_cell_length_c 16.968584
_cell_angle_alpha 90.000000
_cell_angle_beta 90.000000
_cell_angle_gamma 90.000000
_cell_volume 5108.197289
_symmetry_space_group_name_H-M "I M M A"
_symmetry_group_IT_number 74
_symmetry_cell_setting 'orthorhombic'
loop_
_space_group_symop_operation_xyz
x,y,z
-x,1/2-y,z
x,-y,-z
-x,1/2+y,-z
-x,-y,-z
x,1/2+y,-z
-x,y,z
x,1/2-y,z
1/2+x,1/2+y,1/2+z
1/2-x,-y,1/2+z
1/2+x,1/2-y,1/2-z
1/2-x,y,1/2-z
1/2-x,1/2-y,1/2-z
1/2+x,y,1/2-z
1/2-x,1/2+y,1/2+z
1/2+x,-y,1/2+z
loop_
_atom_site_type_symbol
_atom_site_label
_atom_site_fract_x
_atom_site_fract_y
_atom_site_fract_z
Si Si1 0.306294 0.515138 0.374664
Si Si2 0.381606 0.684330 0.618635
Si Si3 0.619611 0.417768 0.488393
Si Si4 0.750000 0.375396 0.250000
Si Si5 0.383034 0.480737 0.210822
O O1 0.334171 0.572452 0.423907
O O2 0.323160 0.458708 0.426864
O O3 0.377470 0.509610 0.297182
O O4 0.185550 0.518016 0.349967
O O5 0.500000 0.675343 0.648337
O O6 0.360025 0.750000 0.596223
O O7 0.363065 0.647669 0.538892
O O8 0.302173 0.665479 0.685801
O O9 0.500000 0.435133 0.489662
O O10 0.661766 0.416002 0.212485
O O11 0.500000 0.479741 0.180346
#
# Coordination Sequence:
#
# PCOD8297142 Si02
#       5
#    16  16  16   8  16
#     4   9  17  26  43  62  83 109 137 168 212 252
#     4  10  19  29  43  62  83 111 145 177 206 237
#     4  10  16  27  43  61  83 108 140 173 210 247
#     4  10  17  28  42  58  88 116 141 164 200 248
#     4  10  17  27  42  64  87 111 139 169 202 251
#
# _framework density 14.094992
#
# number of rings (size 3 to 8) (size 9 to 14) (size 15 to 20)
#    0.000    2.444    4.444    3.667    0.000    0.000 
#    0.000    2.222    0.000    0.000    0.000    3.111 
#    0.000    1.778    0.000    0.000    0.000    0.000 
#
# Total GULP energy -446208.653433 kJ/mol
# GULP energy per Si atom -12394.684818 kJ/mol
# Density = 1.406291 g / cm^3
# Si number density = 14.094992 Si / 1000 Ang^3
#
#
#
# Elastic Constant Matrix: (Units=GPa)
#
#
# Indices 1 2 3 4 5 6 
#
# 1 95.8410 33.2158 38.0510 0.0000 0.0000 0.0000
# 2 33.2158 88.4367 50.3719 0.0000 0.0000 0.0000
# 3 38.0510 50.3719 83.7484 0.0000 0.0000 0.0000
# 4 0.0000 0.0000 0.0000 21.3921 0.0000 0.0000
# 5 0.0000 0.0000 0.0000 0.0000 18.0515 0.0000
# 6 0.0000 0.0000 0.0000 0.0000 0.0000 16.5575
#
#
#
# Elastic Compliance Matrix: (Units=1/GPa)
#
#
# Indices 1 2 3 4 5 6 
#
# 1 0.013035 -0.002316 -0.004529 0.000000 0.000000 0.000000
# 2 -0.002316 0.017611 -0.009540 0.000000 0.000000 0.000000
# 3 -0.004529 -0.009540 0.019737 0.000000 0.000000 0.000000
# 4 0.000000 0.000000 0.000000 0.046746 0.000000 0.000000
# 5 0.000000 0.000000 0.000000 0.000000 0.055397 0.000000
# 6 0.000000 0.000000 0.000000 0.000000 0.000000 0.060396
#
#
# Mechanical properties :
#
#
# Convention : Reuss Voigt Hill
#
# Bulk Modulus (GPa) = 56.78124 56.81150 56.79637
# Shear Modulus (GPa) = 19.87565 20.95937 20.41751
#
# Velocity S-wave (km/s) = 3.75923 3.86036 3.81013
# Velocity P-wave (km/s) = 7.69510 7.76296 7.72910
#
# Compressibility (1/GPa) = 0.01761145
#
# Stress axis : x y z
#
# Youngs Moduli (GPa) = 76.71739 56.78142 50.66680
#
# Poissons Ratio (x) = 0.13150 0.22949
# Poissons Ratio (y) = 0.17766 0.48339
# Poissons Ratio (z) = 0.34749 0.54172
#
# Static dielectric constant tensor:
#      x y z
#    x 2.805820 0.000000 0.000000 
#    y 0.000000 2.681090 0.000000 
#    z 0.000000 0.000000 2.844570 
# 
# 
# High freq. dielectric constant tensor:
#      x y z
#    x 1.539080 0.000000 0.000000 
#    y 0.000000 1.512060 0.000000 
#    z 0.000000 0.000000 1.526570 
# 
# From -- ./inp_files/32497.got.cif
#   From: 2010.03.12/outbox.cif.g09.slc.cpg/sg74_17_cif.got.tgz:32497.got - 2010.04.16 15:46:19.
