data_PCOD8297987
_publ_section_title
;
Structure prediction by ZEFSAII (Michael W. Deem and Ramdas Pophale) SiO2 
 PCOD8297987
Probable space group: I M M A
;
_chemical_formula_sum "Si O2"
_cell_formula_units_Z 88
_cell_length_a 13.622049
_cell_length_b 14.927301
_cell_length_c 22.605658
_cell_angle_alpha 90.000000
_cell_angle_beta 90.000000
_cell_angle_gamma 90.000000
_cell_volume 4596.644120
_symmetry_space_group_name_H-M "I M M A"
_symmetry_group_IT_number 74
_symmetry_cell_setting 'orthorhombic'
loop_
_space_group_symop_operation_xyz
x,y,z
-x,1/2-y,z
x,-y,-z
-x,1/2+y,-z
-x,-y,-z
x,1/2+y,-z
-x,y,z
x,1/2-y,z
1/2+x,1/2+y,1/2+z
1/2-x,-y,1/2+z
1/2+x,1/2-y,1/2-z
1/2-x,y,1/2-z
1/2-x,1/2-y,1/2-z
1/2+x,y,1/2-z
1/2-x,1/2+y,1/2+z
1/2+x,-y,1/2+z
loop_
_atom_site_type_symbol
_atom_site_label
_atom_site_fract_x
_atom_site_fract_y
_atom_site_fract_z
Si Si1 0.387626 0.250000 0.526812
Si Si2 0.613088 0.352046 0.837647
Si Si3 0.386113 0.059902 0.551308
Si Si4 0.750000 0.041096 0.750000
Si Si5 0.112723 0.750000 0.886884
Si Si6 0.612093 0.498001 0.070051
Si Si7 0.206950 0.935376 0.861376
O O1 0.500000 0.250000 0.547423
O O2 0.337221 0.159417 0.552518
O O3 0.377272 0.250000 0.456836
O O4 0.500000 0.355158 0.818541
O O5 0.648764 0.250000 0.847264
O O6 0.671729 0.396300 0.783372
O O7 0.628553 0.404178 0.900040
O O8 0.500000 0.072279 0.536722
O O9 0.336158 0.000000 0.500000
O O10 0.368058 0.007267 0.610884
O O11 0.794965 0.970641 0.795321
O O12 0.164725 0.836362 0.860178
O O13 0.000000 0.750000 0.867061
O O14 0.500000 0.464632 0.080437
O O15 0.687763 0.432917 0.104522
O O16 0.635045 0.500000 0.000000
#
# Coordination Sequence:
#
# PCOD8297987 Si02
#       7
#     8  16  16   8   8  16  16
#     4   9  18  32  51  83 121 149 172 215 269 347
#     4   9  18  36  60  84 113 150 188 234 289 338
#     4  10  18  32  55  84 119 148 179 221 281 353
#     4  10  23  39  56  78 114 148 198 246 274 336
#     4  11  22  37  60  88 117 146 187 231 288 365
#     4   9  19  37  57  81 113 148 191 242 290 336
#     4  11  22  38  57  82 111 156 192 237 292 336
#
# _framework density 19.144401999999999
#
# number of rings (size 3 to 8) (size 9 to 14) (size 15 to 20)
#    0.000    2.182    1.818    1.364    0.000    1.818 
#    9.818    0.455    0.000    0.000    0.000    0.000 
#    0.000    0.000    0.000    0.000    0.000    0.000 
#
# Total GULP energy -545222.486699 kJ/mol
# GULP energy per Si atom -12391.420152 kJ/mol
# Density = 1.910083 g / cm^3
# Si number density = 19.144402 Si / 1000 Ang^3
#
#
#
# Elastic Constant Matrix: (Units=GPa)
#
#
# Indices 1 2 3 4 5 6 
#
# 1 76.7164 55.7556 31.7221 0.0000 0.0000 0.0000
# 2 55.7556 204.2164 74.5939 0.0000 0.0000 0.0000
# 3 31.7221 74.5939 130.4122 0.0000 0.0000 0.0000
# 4 0.0000 0.0000 0.0000 -66.6342 0.0000 0.0000
# 5 0.0000 0.0000 0.0000 0.0000 24.5634 0.0000
# 6 0.0000 0.0000 0.0000 0.0000 0.0000 24.5112
#
#
#
# Elastic Compliance Matrix: (Units=1/GPa)
#
#
# Indices 1 2 3 4 5 6 
#
# 1 0.016599 -0.003865 -0.001827 0.000000 0.000000 0.000000
# 2 -0.003865 0.007090 -0.003115 0.000000 0.000000 0.000000
# 3 -0.001827 -0.003115 0.009894 0.000000 0.000000 0.000000
# 4 0.000000 0.000000 0.000000 -0.015007 0.000000 0.000000
# 5 0.000000 0.000000 0.000000 0.000000 0.040711 0.000000
# 6 0.000000 0.000000 0.000000 0.000000 0.000000 0.040798
#
#
# Mechanical properties :
#
#
# Convention : Reuss Voigt Hill
#
# Bulk Modulus (GPa) = 62.61986 81.72090 72.17038
# Shear Modulus (GPa) = 40.64320 13.10630 26.87475
#
# Velocity S-wave (km/s) = 4.61258 2.61933 3.75079
# Velocity P-wave (km/s) = 7.81972 7.20605 7.51915
#
# Compressibility (1/GPa) = 0.01596938
#
# Stress axis : x y z
#
# Youngs Moduli (GPa) = 60.24374 141.04846 101.06817
#
# Poissons Ratio (x) = 0.54509 0.18467
# Poissons Ratio (y) = 0.23281 0.31485
# Poissons Ratio (z) = 0.11008 0.43940
#
# Static dielectric constant tensor:
#      x y z
#    x 3.567860 0.000000 0.000000 
#    y 0.000000 3.714560 0.000000 
#    z 0.000000 0.000000 3.300720 
# 
# 
# High freq. dielectric constant tensor:
#      x y z
#    x 1.744770 0.000000 0.000000 
#    y 0.000000 1.748900 0.000000 
#    z 0.000000 0.000000 1.733770 
# 
# From -- ./inp_files/51783.got.cif
#   From: 2010.03.12/outbox.cif.g09.slc.cpg/sg74_26_cif.got.tgz:51783.got - 2010.04.16 15:46:19.
