data_PCOD8297930
_publ_section_title
;
Structure prediction by ZEFSAII (Michael W. Deem and Ramdas Pophale) SiO2 
 PCOD8297930
Probable space group: I M M A
;
_chemical_formula_sum "Si O2"
_cell_formula_units_Z 72
_cell_length_a 15.123334
_cell_length_b 8.669645
_cell_length_c 28.873675
_cell_angle_alpha 90.000000
_cell_angle_beta 90.000000
_cell_angle_gamma 90.000000
_cell_volume 3785.741205
_symmetry_space_group_name_H-M "I M M A"
_symmetry_group_IT_number 74
_symmetry_cell_setting 'orthorhombic'
loop_
_space_group_symop_operation_xyz
x,y,z
-x,1/2-y,z
x,-y,-z
-x,1/2+y,-z
-x,-y,-z
x,1/2+y,-z
-x,y,z
x,1/2-y,z
1/2+x,1/2+y,1/2+z
1/2-x,-y,1/2+z
1/2+x,1/2-y,1/2-z
1/2-x,y,1/2-z
1/2-x,1/2-y,1/2-z
1/2+x,y,1/2-z
1/2-x,1/2+y,1/2+z
1/2+x,-y,1/2+z
loop_
_atom_site_type_symbol
_atom_site_label
_atom_site_fract_x
_atom_site_fract_y
_atom_site_fract_z
Si Si1 0.102119 0.427594 0.697479
Si Si2 0.399384 0.571222 0.704766
Si Si3 0.753335 0.070202 0.364555
Si Si4 0.500000 0.066671 0.448830
Si Si5 0.679208 0.068818 0.550357
O O1 0.127573 0.250000 0.690301
O O2 0.123665 0.472602 0.750078
O O3 0.157514 0.532038 0.662587
O O4 0.000000 0.459656 0.686305
O O5 0.500000 0.540820 0.687695
O O6 0.385454 0.750000 0.717466
O O7 0.332042 0.518161 0.665115
O O8 0.750227 0.250000 0.376039
O O9 0.755172 0.976665 0.413087
O O10 0.500000 0.250000 0.447048
O O11 0.500000 0.000000 0.500000
O O12 0.589908 0.002632 0.426397
O O13 0.669405 0.250000 0.544602
O O14 0.701215 0.000000 0.500000
#
# Coordination Sequence:
#
# PCOD8297930 Si02
#       5
#    16  16  16   8  16
#     4  10  21  37  56  79 109 145 184 231 281 330
#     4   9  19  35  54  79 112 148 182 221 271 329
#     4  11  22  35  56  83 110 146 187 230 276 330
#     4  10  18  32  52  74 104 142 182 220 264 318
#     4  11  22  37  55  79 110 146 185 228 275 327
#
# _framework density 19.018733000000001
#
# number of rings (size 3 to 8) (size 9 to 14) (size 15 to 20)
#    0.000    1.778    0.000    6.333    1.556    5.778 
#    0.000    0.000    0.000    0.667    0.000    0.000 
#    0.000    0.000    0.000    0.000    0.000    0.000 
#
# Total GULP energy -446461.404460 kJ/mol
# GULP energy per Si atom -12401.705679 kJ/mol
# Density = 1.897545 g / cm^3
# Si number density = 19.018733 Si / 1000 Ang^3
#
#
#
# Elastic Constant Matrix: (Units=GPa)
#
#
# Indices 1 2 3 4 5 6 
#
# 1 69.7675 35.5085 52.8837 0.0000 0.0000 0.0000
# 2 35.5085 114.6430 44.1389 0.0000 0.0000 0.0000
# 3 52.8837 44.1389 99.5043 0.0000 0.0000 0.0000
# 4 0.0000 0.0000 0.0000 32.5504 0.0000 0.0000
# 5 0.0000 0.0000 0.0000 0.0000 25.1845 0.0000
# 6 0.0000 0.0000 0.0000 0.0000 0.0000 30.2763
#
#
#
# Elastic Compliance Matrix: (Units=1/GPa)
#
#
# Indices 1 2 3 4 5 6 
#
# 1 0.024917 -0.003158 -0.011841 0.000000 0.000000 0.000000
# 2 -0.003158 0.010920 -0.003165 0.000000 0.000000 0.000000
# 3 -0.011841 -0.003165 0.017747 0.000000 0.000000 0.000000
# 4 0.000000 0.000000 0.000000 0.030722 0.000000 0.000000
# 5 0.000000 0.000000 0.000000 0.000000 0.039707 0.000000
# 6 0.000000 0.000000 0.000000 0.000000 0.000000 0.033029
#
#
# Mechanical properties :
#
#
# Convention : Reuss Voigt Hill
#
# Bulk Modulus (GPa) = 57.95959 60.99746 59.47852
# Shear Modulus (GPa) = 25.11018 27.69449 26.40233
#
# Velocity S-wave (km/s) = 3.63752 3.82012 3.72994
# Velocity P-wave (km/s) = 6.94141 7.18329 7.06339
#
# Compressibility (1/GPa) = 0.01725340
#
# Stress axis : x y z
#
# Youngs Moduli (GPa) = 40.13388 91.57824 56.34666
#
# Poissons Ratio (x) = 0.28924 0.66723
# Poissons Ratio (y) = 0.12676 0.17835
# Poissons Ratio (z) = 0.47524 0.28987
#
# Static dielectric constant tensor:
#      x y z
#    x 3.658620 0.000000 0.000000 
#    y 0.000000 3.482640 0.000000 
#    z 0.000000 0.000000 3.353180 
# 
# 
# High freq. dielectric constant tensor:
#      x y z
#    x 1.723920 0.000000 0.000000 
#    y 0.000000 1.749950 0.000000 
#    z 0.000000 0.000000 1.732930 
# 
# From -- ./inp_files/63621.got.cif
#   From: 2010.03.12/outbox.cif.g09.slc.cpg/sg74_32_cif.got.tgz:63621.got - 2010.04.16 15:46:19.
