data_PCOD8297619
_publ_section_title
;
Structure prediction by ZEFSAII (Michael W. Deem and Ramdas Pophale) SiO2 
 PCOD8297619
Probable space group: I M M A
;
_chemical_formula_sum "Si O2"
_cell_formula_units_Z 88
_cell_length_a 9.433753
_cell_length_b 20.235132
_cell_length_c 24.722510
_cell_angle_alpha 90.000000
_cell_angle_beta 90.000000
_cell_angle_gamma 90.000000
_cell_volume 4719.359966
_symmetry_space_group_name_H-M "I M M A"
_symmetry_group_IT_number 74
_symmetry_cell_setting 'orthorhombic'
loop_
_space_group_symop_operation_xyz
x,y,z
-x,1/2-y,z
x,-y,-z
-x,1/2+y,-z
-x,-y,-z
x,1/2+y,-z
-x,y,z
x,1/2-y,z
1/2+x,1/2+y,1/2+z
1/2-x,-y,1/2+z
1/2+x,1/2-y,1/2-z
1/2-x,y,1/2-z
1/2-x,1/2-y,1/2-z
1/2+x,y,1/2-z
1/2-x,1/2+y,1/2+z
1/2+x,-y,1/2+z
loop_
_atom_site_type_symbol
_atom_site_label
_atom_site_fract_x
_atom_site_fract_y
_atom_site_fract_z
Si Si1 0.669289 0.046221 0.304076
Si Si2 0.249995 0.000000 0.500000
Si Si3 0.158600 0.460334 0.614595
Si Si4 0.158780 0.858926 0.977706
Si Si5 0.162302 0.821970 0.422462
Si Si6 0.167889 0.177116 0.139525
O O1 0.500000 0.038166 0.297942
O O2 0.750000 0.024594 0.250000
O O3 0.715801 0.121625 0.317515
O O4 0.722788 0.999130 0.352049
O O5 0.154060 0.982564 0.448069
O O6 0.347603 0.937792 0.514668
O O7 0.202606 0.382360 0.617614
O O8 0.000000 0.471759 0.638398
O O9 0.228099 0.840942 0.919703
O O10 0.000000 0.831060 0.981511
O O11 0.249071 0.822607 0.022783
O O12 0.186721 0.750000 0.394222
O O13 0.000000 0.831259 0.439920
O O14 0.222926 0.250000 0.157589
O O15 0.000000 0.175930 0.135854
#
# Coordination Sequence:
#
# PCOD8297619 Si02
#       6
#    16   8  16  16  16  16
#     4  11  23  40  59  81 107 142 185 235 280 327
#     4  10  18  30  52  84 114 144 180 224 274 326
#     4  10  20  35  57  83 111 146 182 223 272 327
#     4  10  18  29  49  77 111 147 185 224 266 319
#     4   9  19  34  51  77 114 150 180 215 267 328
#     4   9  18  33  52  75 105 142 183 227 274 319
#
# _framework density 18.646595999999999
#
# number of rings (size 3 to 8) (size 9 to 14) (size 15 to 20)
#    0.000    2.182    1.818    1.636    0.000    5.091 
#    0.000    0.000    0.000    3.273    0.000    0.000 
#    0.000    0.000    0.000    0.000    0.000    0.000 
#
# Total GULP energy -545354.772456 kJ/mol
# GULP energy per Si atom -12394.426647 kJ/mol
# Density = 1.860416 g / cm^3
# Si number density = 18.646596 Si / 1000 Ang^3
#
#
#
# Elastic Constant Matrix: (Units=GPa)
#
#
# Indices 1 2 3 4 5 6 
#
# 1 71.1303 31.8073 31.7745 0.0000 0.0000 0.0000
# 2 31.8073 142.5359 39.8210 0.0000 0.0000 0.0000
# 3 31.7745 39.8210 74.1675 0.0000 0.0000 0.0000
# 4 0.0000 0.0000 0.0000 18.5621 0.0000 0.0000
# 5 0.0000 0.0000 0.0000 0.0000 24.9942 0.0000
# 6 0.0000 0.0000 0.0000 0.0000 0.0000 21.7110
#
#
#
# Elastic Compliance Matrix: (Units=1/GPa)
#
#
# Indices 1 2 3 4 5 6 
#
# 1 0.017946 -0.002184 -0.006516 0.000000 0.000000 0.000000
# 2 -0.002184 0.008520 -0.003638 0.000000 0.000000 0.000000
# 3 -0.006516 -0.003638 0.018228 0.000000 0.000000 0.000000
# 4 0.000000 0.000000 0.000000 0.053873 0.000000 0.000000
# 5 0.000000 0.000000 0.000000 0.000000 0.040009 0.000000
# 6 0.000000 0.000000 0.000000 0.000000 0.000000 0.046060
#
#
# Mechanical properties :
#
#
# Convention : Reuss Voigt Hill
#
# Bulk Modulus (GPa) = 49.95802 54.95992 52.45897
# Shear Modulus (GPa) = 23.14976 25.34885 24.24930
#
# Velocity S-wave (km/s) = 3.52732 3.69105 3.61011
# Velocity P-wave (km/s) = 6.59086 6.90678 6.75067
#
# Compressibility (1/GPa) = 0.02001681
#
# Stress axis : x y z
#
# Youngs Moduli (GPa) = 55.72257 117.37459 54.86110
#
# Poissons Ratio (x) = 0.25640 0.35745
# Poissons Ratio (y) = 0.12172 0.19961
# Poissons Ratio (z) = 0.36306 0.42706
#
# Static dielectric constant tensor:
#      x y z
#    x 3.161040 0.000000 0.000000 
#    y 0.000000 3.899500 0.000000 
#    z 0.000000 0.000000 3.131750 
# 
# 
# High freq. dielectric constant tensor:
#      x y z
#    x 1.706830 0.000000 0.000000 
#    y 0.000000 1.741750 0.000000 
#    z 0.000000 0.000000 1.689900 
# 
# From -- ./inp_files/56989.got.cif
#   From: 2010.03.12/outbox.cif.g09.slc.cpg/sg74_29_cif.got.tgz:56989.got - 2010.04.16 15:46:19.
