data_PCOD8297896
_publ_section_title
;
Structure prediction by ZEFSAII (Michael W. Deem and Ramdas Pophale) SiO2 
 PCOD8297896
Probable space group: I M M A
;
_chemical_formula_sum "Si O2"
_cell_formula_units_Z 112
_cell_length_a 29.040593
_cell_length_b 14.757150
_cell_length_c 14.587309
_cell_angle_alpha 90.000000
_cell_angle_beta 90.000000
_cell_angle_gamma 90.000000
_cell_volume 6251.484441
_symmetry_space_group_name_H-M "I M M A"
_symmetry_group_IT_number 74
_symmetry_cell_setting 'orthorhombic'
loop_
_space_group_symop_operation_xyz
x,y,z
-x,1/2-y,z
x,-y,-z
-x,1/2+y,-z
-x,-y,-z
x,1/2+y,-z
-x,y,z
x,1/2-y,z
1/2+x,1/2+y,1/2+z
1/2-x,-y,1/2+z
1/2+x,1/2-y,1/2-z
1/2-x,y,1/2-z
1/2-x,1/2-y,1/2-z
1/2+x,y,1/2-z
1/2-x,1/2+y,1/2+z
1/2+x,-y,1/2+z
loop_
_atom_site_type_symbol
_atom_site_label
_atom_site_fract_x
_atom_site_fract_y
_atom_site_fract_z
Si Si1 0.202588 0.147492 0.205202
Si Si2 0.292199 0.350039 0.687550
Si Si3 0.430344 0.351507 0.000280
Si Si4 0.163220 0.091447 0.539241
Si Si5 0.235423 0.604517 0.991730
Si Si6 0.949400 0.999505 0.645894
Si Si7 0.646083 0.517362 0.230955
O O1 0.190096 0.250000 0.233626
O O2 0.250000 0.114443 0.250000
O O3 0.162712 0.084197 0.246441
O O4 0.208667 0.143751 0.095470
O O5 0.305680 0.250000 0.723744
O O6 0.250000 0.388053 0.750000
O O7 0.278608 0.341018 0.581645
O O8 0.336503 0.416632 0.688242
O O9 0.452310 0.250000 0.003408
O O10 0.375921 0.334566 0.979879
O O11 0.451715 0.413181 0.920269
O O12 0.439637 0.404104 0.095185
O O13 0.209230 0.117192 0.483800
O O14 0.171896 0.066943 0.645433
O O15 0.139928 0.000000 0.500000
O O16 0.222549 0.500000 0.000000
O O17 0.000000 0.992955 0.693188
O O18 0.909205 0.015354 0.721057
#
# Coordination Sequence:
#
# PCOD8297896 Si02
#       7
#    16  16  16  16  16  16  16
#     4  11  23  35  52  80 111 145 181 218 263 318
#     4  11  22  35  54  80 110 144 183 221 261 317
#     4  10  19  32  54  79 107 142 182 224 268 318
#     4  10  18  32  50  77 108 150 184 214 254 310
#     4  11  20  34  56  75 112 153 185 216 260 314
#     4  10  22  38  53  74 105 139 183 233 277 326
#     4  11  20  38  53  73 108 142 180 224 268 310
#
# _framework density 17.915745000000001
#
# number of rings (size 3 to 8) (size 9 to 14) (size 15 to 20)
#    0.000    1.429    5.714    3.429    0.000    5.143 
#    0.000    0.000    0.000    0.000    0.000    2.000 
#    0.000    2.286    0.000    0.000    0.000    0.000 
#
# Total GULP energy -693948.070612 kJ/mol
# GULP energy per Si atom -12391.929832 kJ/mol
# Density = 1.787497 g / cm^3
# Si number density = 17.915745 Si / 1000 Ang^3
#
#
#
# Elastic Constant Matrix: (Units=GPa)
#
#
# Indices 1 2 3 4 5 6 
#
# 1 120.7453 40.5709 29.4058 0.0000 0.0000 0.0000
# 2 40.5709 110.6054 7.7280 0.0000 0.0000 0.0000
# 3 29.4058 7.7280 55.1267 0.0000 0.0000 0.0000
# 4 0.0000 0.0000 0.0000 15.2364 0.0000 0.0000
# 5 0.0000 0.0000 0.0000 0.0000 15.4687 0.0000
# 6 0.0000 0.0000 0.0000 0.0000 0.0000 1.8081
#
#
#
# Elastic Compliance Matrix: (Units=1/GPa)
#
#
# Indices 1 2 3 4 5 6 
#
# 1 0.010761 -0.003581 -0.005238 0.000000 0.000000 0.000000
# 2 -0.003581 0.010322 0.000463 0.000000 0.000000 0.000000
# 3 -0.005238 0.000463 0.020869 0.000000 0.000000 0.000000
# 4 0.000000 0.000000 0.000000 0.065632 0.000000 0.000000
# 5 0.000000 0.000000 0.000000 0.000000 0.064647 0.000000
# 6 0.000000 0.000000 0.000000 0.000000 0.000000 0.553063
#
#
# Mechanical properties :
#
#
# Convention : Reuss Voigt Hill
#
# Bulk Modulus (GPa) = 39.61901 49.09853 44.35877
# Shear Modulus (GPa) = 6.66294 20.42083 13.54189
#
# Velocity S-wave (km/s) = 1.93057 3.37979 2.75228
# Velocity P-wave (km/s) = 5.20880 6.53417 5.90876
#
# Compressibility (1/GPa) = 0.02524041
#
# Stress axis : x y z
#
# Youngs Moduli (GPa) = 92.92974 96.87690 47.91761
#
# Poissons Ratio (x) = 0.34693 0.25099
# Poissons Ratio (y) = 0.33280 -0.02220
# Poissons Ratio (z) = 0.48677 -0.04487
#
# Static dielectric constant tensor:
#      x y z
#    x 3.184530 0.000000 0.000000 
#    y 0.000000 3.366890 0.000000 
#    z 0.000000 0.000000 3.273330 
# 
# 
# High freq. dielectric constant tensor:
#      x y z
#    x 1.668770 0.000000 0.000000 
#    y 0.000000 1.706780 0.000000 
#    z 0.000000 0.000000 1.661510 
# 
# From -- ./inp_files/37961.got.cif
#   From: 2010.03.12/outbox.cif.g09.slc.cpg/sg74_19_cif.got.tgz:37961.got - 2010.04.16 15:46:19.
