data_PCOD8297114
_publ_section_title
;
Structure prediction by ZEFSAII (Michael W. Deem and Ramdas Pophale) SiO2 
 PCOD8297114
Probable space group: I M M A
;
_chemical_formula_sum "Si O2"
_cell_formula_units_Z 120
_cell_length_a 17.798671
_cell_length_b 18.858619
_cell_length_c 19.144360
_cell_angle_alpha 90.000000
_cell_angle_beta 90.000000
_cell_angle_gamma 90.000000
_cell_volume 6425.964387
_symmetry_space_group_name_H-M "I M M A"
_symmetry_group_IT_number 74
_symmetry_cell_setting 'orthorhombic'
loop_
_space_group_symop_operation_xyz
x,y,z
-x,1/2-y,z
x,-y,-z
-x,1/2+y,-z
-x,-y,-z
x,1/2+y,-z
-x,y,z
x,1/2-y,z
1/2+x,1/2+y,1/2+z
1/2-x,-y,1/2+z
1/2+x,1/2-y,1/2-z
1/2-x,y,1/2-z
1/2-x,1/2-y,1/2-z
1/2+x,y,1/2-z
1/2-x,1/2+y,1/2+z
1/2+x,-y,1/2+z
loop_
_atom_site_type_symbol
_atom_site_label
_atom_site_fract_x
_atom_site_fract_y
_atom_site_fract_z
Si Si1 0.792644 0.331970 0.464941
Si Si2 0.168537 0.053424 0.668848
Si Si3 0.649666 0.500000 0.500000
Si Si4 0.230253 0.170524 0.881760
Si Si5 0.583852 0.921393 0.027563
Si Si6 0.280566 0.560868 0.630711
Si Si7 0.080591 0.607906 0.087141
Si Si8 0.083671 0.505838 0.795549
O O1 0.806803 0.250000 0.448697
O O2 0.750636 0.344908 0.537827
O O3 0.872055 0.371998 0.472445
O O4 0.744106 0.362722 0.399776
O O5 0.231438 0.116037 0.673219
O O6 0.118188 0.076933 0.604213
O O7 0.113862 0.046610 0.735035
O O8 0.209751 0.977163 0.667121
O O9 0.703427 0.491832 0.433572
O O10 0.601893 0.572365 0.487970
O O11 0.253077 0.250000 0.859247
O O12 0.140141 0.162853 0.880965
O O13 0.500000 0.890274 0.032277
O O14 0.584073 0.000000 0.000000
O O15 0.353268 0.565835 0.683060
O O16 0.072320 0.540659 0.136682
O O17 0.000000 0.647104 0.079725
O O18 0.000000 0.537646 0.775664
#
# Coordination Sequence:
#
# PCOD8297114 Si02
#       8
#    16  16   8  16  16  16  16  16
#     4  10  20  35  54  83 118 147 180 229 284 341
#     4  11  19  35  56  77 110 143 187 238 276 330
#     4  10  15  30  50  78 105 128 180 232 281 322
#     4  10  20  33  52  78 109 149 187 224 278 339
#     4  10  19  32  55  85 112 144 184 229 281 331
#     4  11  18  32  58  81 104 141 185 229 283 334
#     4  10  19  31  49  73 107 143 181 228 280 328
#     4  10  22  35  53  81 107 139 186 237 280 327
#
# _framework density 18.674240000000001
#
# number of rings (size 3 to 8) (size 9 to 14) (size 15 to 20)
#    0.000    1.733    5.333    1.800    0.000    1.067 
#    0.000    1.333    0.000    4.000    0.000    0.000 
#    0.000    0.000    0.000    0.000    0.000    0.000 
#
# Total GULP energy -743445.302825 kJ/mol
# GULP energy per Si atom -12390.755047 kJ/mol
# Density = 1.863174 g / cm^3
# Si number density = 18.674240 Si / 1000 Ang^3
#
#
#
# Elastic Constant Matrix: (Units=GPa)
#
#
# Indices 1 2 3 4 5 6 
#
# 1 142.1519 43.6567 26.1043 0.0000 0.0000 0.0000
# 2 43.6567 82.8195 17.8711 0.0000 0.0000 0.0000
# 3 26.1043 17.8711 50.0123 0.0000 0.0000 0.0000
# 4 0.0000 0.0000 0.0000 16.7818 0.0000 0.0000
# 5 0.0000 0.0000 0.0000 0.0000 23.3919 0.0000
# 6 0.0000 0.0000 0.0000 0.0000 0.0000 34.3930
#
#
#
# Elastic Compliance Matrix: (Units=1/GPa)
#
#
# Indices 1 2 3 4 5 6 
#
# 1 0.008841 -0.003971 -0.003196 0.000000 0.000000 0.000000
# 2 -0.003971 0.014867 -0.003240 0.000000 0.000000 0.000000
# 3 -0.003196 -0.003240 0.022821 0.000000 0.000000 0.000000
# 4 0.000000 0.000000 0.000000 0.059589 0.000000 0.000000
# 5 0.000000 0.000000 0.000000 0.000000 0.042750 0.000000
# 6 0.000000 0.000000 0.000000 0.000000 0.000000 0.029076
#
#
# Mechanical properties :
#
#
# Convention : Reuss Voigt Hill
#
# Bulk Modulus (GPa) = 38.88649 50.02756 44.45703
# Shear Modulus (GPa) = 24.11647 27.40344 25.75995
#
# Velocity S-wave (km/s) = 3.59755 3.83488 3.71811
# Velocity P-wave (km/s) = 6.17456 6.81588 6.50313
#
# Compressibility (1/GPa) = 0.02571587
#
# Stress axis : x y z
#
# Youngs Moduli (GPa) = 113.10834 67.26455 43.81967
#
# Poissons Ratio (x) = 0.26709 0.14004
# Poissons Ratio (y) = 0.44913 0.14197
# Poissons Ratio (z) = 0.36147 0.21792
#
# Static dielectric constant tensor:
#      x y z
#    x 4.121840 0.000000 0.000000 
#    y 0.000000 3.141960 0.000000 
#    z 0.000000 0.000000 3.362170 
# 
# 
# High freq. dielectric constant tensor:
#      x y z
#    x 1.739680 0.000000 0.000000 
#    y 0.000000 1.681590 0.000000 
#    z 0.000000 0.000000 1.710430 
# 
# From -- ./inp_files/53293.got.cif
#   From: 2010.03.12/outbox.cif.g09.slc.cpg/sg74_27_cif.got.tgz:53293.got - 2010.04.16 15:46:19.
