data_PCOD8297396
_publ_section_title
;
Structure prediction by ZEFSAII (Michael W. Deem and Ramdas Pophale) SiO2 
 PCOD8297396
Probable space group: I M M A
;
_chemical_formula_sum "Si O2"
_cell_formula_units_Z 96
_cell_length_a 9.107190
_cell_length_b 32.220085
_cell_length_c 26.689566
_cell_angle_alpha 90.000000
_cell_angle_beta 90.000000
_cell_angle_gamma 90.000000
_cell_volume 7831.637744
_symmetry_space_group_name_H-M "I M M A"
_symmetry_group_IT_number 74
_symmetry_cell_setting 'orthorhombic'
loop_
_space_group_symop_operation_xyz
x,y,z
-x,1/2-y,z
x,-y,-z
-x,1/2+y,-z
-x,-y,-z
x,1/2+y,-z
-x,y,z
x,1/2-y,z
1/2+x,1/2+y,1/2+z
1/2-x,-y,1/2+z
1/2+x,1/2-y,1/2-z
1/2-x,y,1/2-z
1/2-x,1/2-y,1/2-z
1/2+x,y,1/2-z
1/2-x,1/2+y,1/2+z
1/2+x,-y,1/2+z
loop_
_atom_site_type_symbol
_atom_site_label
_atom_site_fract_x
_atom_site_fract_y
_atom_site_fract_z
Si Si1 0.828464 0.450297 0.197134
Si Si2 0.330432 0.129370 0.369814
Si Si3 0.334825 0.585780 0.952423
Si Si4 0.328313 0.203034 0.300792
Si Si5 0.666355 0.496134 0.114270
Si Si6 0.333957 0.458854 0.533262
O O1 0.750000 0.448573 0.250000
O O2 0.800743 0.406433 0.170570
O O3 0.756780 0.487262 0.164774
O O4 0.000000 0.459687 0.203949
O O5 0.500000 0.129972 0.385644
O O6 0.237316 0.122669 0.420188
O O7 0.279235 0.172919 0.345775
O O8 0.500000 0.598569 0.966826
O O9 0.333437 0.544225 0.920162
O O10 0.243195 0.578615 0.003212
O O11 0.500000 0.198388 0.290641
O O12 0.284755 0.250000 0.315709
O O13 0.250000 0.189018 0.250000
O O14 0.500000 0.509245 0.127612
O O15 0.745187 0.533513 0.084612
O O16 0.333557 0.500000 0.500000
O O17 0.500000 0.445733 0.546345
#
# Coordination Sequence:
#
# PCOD8297396 Si02
#       6
#    16  16  16  16  16  16
#     4  10  18  26  35  47  63  83 107 134 165 198
#     4   9  17  27  37  49  65  83 103 130 165 203
#     4   9  16  24  35  50  65  81 101 125 154 189
#     4   9  17  28  40  52  65  82 105 133 166 204
#     4   9  16  25  35  47  63  82 104 128 154 186
#     4   9  15  23  35  49  65  83 101 122 150 185
#
# _framework density 12.257973
#
# number of rings (size 3 to 8) (size 9 to 14) (size 15 to 20)
#    0.000    2.833    0.000    2.500    0.000    7.333 
#    0.000    0.000    0.000    0.000    0.000    0.000 
#    0.000    0.000    0.000    0.000    0.000    0.000 
#
# Total GULP energy -595139.060038 kJ/mol
# GULP energy per Si atom -12398.730417 kJ/mol
# Density = 1.223007 g / cm^3
# Si number density = 12.257973 Si / 1000 Ang^3
#
#
#
# Elastic Constant Matrix: (Units=GPa)
#
#
# Indices 1 2 3 4 5 6 
#
# 1 93.6175 31.7684 40.2729 0.0000 0.0000 0.0000
# 2 31.7684 45.7526 35.5769 0.0000 0.0000 0.0000
# 3 40.2729 35.5769 46.3294 0.0000 0.0000 0.0000
# 4 0.0000 0.0000 0.0000 19.6563 0.0000 0.0000
# 5 0.0000 0.0000 0.0000 0.0000 24.7361 0.0000
# 6 0.0000 0.0000 0.0000 0.0000 0.0000 11.8729
#
#
#
# Elastic Compliance Matrix: (Units=1/GPa)
#
#
# Indices 1 2 3 4 5 6 
#
# 1 0.017073 -0.000780 -0.014242 0.000000 0.000000 0.000000
# 2 -0.000780 0.054287 -0.041009 0.000000 0.000000 0.000000
# 3 -0.014242 -0.041009 0.065457 0.000000 0.000000 0.000000
# 4 0.000000 0.000000 0.000000 0.050874 0.000000 0.000000
# 5 0.000000 0.000000 0.000000 0.000000 0.040427 0.000000
# 6 0.000000 0.000000 0.000000 0.000000 0.000000 0.084225
#
#
# Mechanical properties :
#
#
# Convention : Reuss Voigt Hill
#
# Bulk Modulus (GPa) = 40.39884 44.54843 42.47364
# Shear Modulus (GPa) = 11.55647 16.45850 14.00748
#
# Velocity S-wave (km/s) = 3.07379 3.66823 3.38409
# Velocity P-wave (km/s) = 6.75473 7.37310 7.07067
#
# Compressibility (1/GPa) = 0.02475318
#
# Stress axis : x y z
#
# Youngs Moduli (GPa) = 58.57078 18.42058 15.27728
#
# Poissons Ratio (x) = 0.01437 0.21758
# Poissons Ratio (y) = 0.04570 0.62651
# Poissons Ratio (z) = 0.83418 0.75542
#
# Static dielectric constant tensor:
#      x y z
#    x 2.703930 0.000000 0.000000 
#    y 0.000000 2.289730 0.000000 
#    z 0.000000 0.000000 2.449250 
# 
# 
# High freq. dielectric constant tensor:
#      x y z
#    x 1.483560 0.000000 0.000000 
#    y 0.000000 1.413030 0.000000 
#    z 0.000000 0.000000 1.446010 
# 
# From -- ./inp_files/64693.got.cif
#   From: 2010.03.12/outbox.cif.g09.slc.cpg/sg74_33_cif.got.tgz:64693.got - 2010.04.16 15:46:19.
