data_PCOD8297304
_publ_section_title
;
Structure prediction by ZEFSAII (Michael W. Deem and Ramdas Pophale) SiO2 
 PCOD8297304
Probable space group: I M M A
;
_chemical_formula_sum "Si O2"
_cell_formula_units_Z 60
_cell_length_a 14.204021
_cell_length_b 12.780134
_cell_length_c 20.454096
_cell_angle_alpha 90.000000
_cell_angle_beta 90.000000
_cell_angle_gamma 90.000000
_cell_volume 3713.017560
_symmetry_space_group_name_H-M "I M M A"
_symmetry_group_IT_number 74
_symmetry_cell_setting 'orthorhombic'
loop_
_space_group_symop_operation_xyz
x,y,z
-x,1/2-y,z
x,-y,-z
-x,1/2+y,-z
-x,-y,-z
x,1/2+y,-z
-x,y,z
x,1/2-y,z
1/2+x,1/2+y,1/2+z
1/2-x,-y,1/2+z
1/2+x,1/2-y,1/2-z
1/2-x,y,1/2-z
1/2-x,1/2-y,1/2-z
1/2+x,y,1/2-z
1/2-x,1/2+y,1/2+z
1/2+x,-y,1/2+z
loop_
_atom_site_type_symbol
_atom_site_label
_atom_site_fract_x
_atom_site_fract_y
_atom_site_fract_z
Si Si1 0.000000 0.917799 0.650524
Si Si2 0.000000 0.637794 0.389630
Si Si3 0.301687 0.636217 0.054689
Si Si4 0.203853 0.085862 0.406632
Si Si5 0.000000 0.250000 0.238254
Si Si6 0.800295 0.250000 0.181147
O O1 0.094568 0.890225 0.610380
O O2 0.000000 0.854688 0.717943
O O3 0.000000 0.043655 0.663599
O O4 0.913764 0.630267 0.439385
O O5 0.000000 0.750000 0.351668
O O6 0.263839 0.750000 0.080501
O O7 0.264879 0.537042 0.096955
O O8 0.275459 0.626723 0.979035
O O9 0.271279 0.145592 0.357004
O O10 0.088308 0.250000 0.190190
O O11 0.750000 0.250000 0.250000
#
# Coordination Sequence:
#
# PCOD8297304 Si02
#       6
#     8   8  16  16   4   8
#     4  10  17  28  45  72 104 136 164 193 239 297
#     4   8  15  25  42  72 110 132 155 188 247 310
#     4   9  16  27  46  76 103 134 157 200 253 303
#     4  10  18  29  49  73 105 132 164 201 246 299
#     4  12  24  34  50  70  98 138 168 210 240 280
#     4  12  22  36  50  72 100 136 171 204 243 292
#
# _framework density 16.159362999999999
#
# number of rings (size 3 to 8) (size 9 to 14) (size 15 to 20)
#    0.000    2.133    4.000    0.800    0.000    3.200 
#    0.000    0.000    0.000    5.600    0.000    0.000 
#    0.000    0.000    0.000    0.000    0.000    0.000 
#
# Total GULP energy -371644.631164 kJ/mol
# GULP energy per Si atom -12388.154372 kJ/mol
# Density = 1.612258 g / cm^3
# Si number density = 16.159363 Si / 1000 Ang^3
#
#
#
# Elastic Constant Matrix: (Units=GPa)
#
#
# Indices 1 2 3 4 5 6 
#
# 1 69.9863 38.0382 36.8587 0.0000 0.0000 0.0000
# 2 38.0382 167.6211 60.3815 0.0000 0.0000 0.0000
# 3 36.8587 60.3815 76.1138 0.0000 0.0000 0.0000
# 4 0.0000 0.0000 0.0000 29.8226 0.0000 0.0000
# 5 0.0000 0.0000 0.0000 0.0000 24.2680 0.0000
# 6 0.0000 0.0000 0.0000 0.0000 0.0000 15.1311
#
#
#
# Elastic Compliance Matrix: (Units=1/GPa)
#
#
# Indices 1 2 3 4 5 6 
#
# 1 0.019421 -0.001427 -0.008273 0.000000 0.000000 0.000000
# 2 -0.001427 0.008458 -0.006018 0.000000 0.000000 0.000000
# 3 -0.008273 -0.006018 0.021919 0.000000 0.000000 0.000000
# 4 0.000000 0.000000 0.000000 0.033532 0.000000 0.000000
# 5 0.000000 0.000000 0.000000 0.000000 0.041206 0.000000
# 6 0.000000 0.000000 0.000000 0.000000 0.000000 0.066089
#
#
# Mechanical properties :
#
#
# Convention : Reuss Voigt Hill
#
# Bulk Modulus (GPa) = 54.46306 64.91977 59.69142
# Shear Modulus (GPa) = 21.91239 25.74052 23.82646
#
# Velocity S-wave (km/s) = 3.68641 3.99547 3.84405
# Velocity P-wave (km/s) = 7.20391 7.84518 7.53138
#
# Compressibility (1/GPa) = 0.01836107
#
# Stress axis : x y z
#
# Youngs Moduli (GPa) = 51.49066 118.23550 45.62317
#
# Poissons Ratio (x) = 0.16875 0.37742
# Poissons Ratio (y) = 0.07349 0.27458
# Poissons Ratio (z) = 0.42596 0.71159
#
# Static dielectric constant tensor:
#      x y z
#    x 2.795120 0.000000 0.000000 
#    y 0.000000 3.737640 0.000000 
#    z 0.000000 0.000000 2.748040 
# 
# 
# High freq. dielectric constant tensor:
#      x y z
#    x 1.576180 0.000000 0.000000 
#    y 0.000000 1.652080 0.000000 
#    z 0.000000 0.000000 1.585760 
# 
# From -- ./inp_files/40637.got.cif
#   From: 2010.03.12/outbox.cif.g09.slc.cpg/sg74_21_cif.got.tgz:40637.got - 2010.04.16 15:46:19.
