data_PCOD8297093
_publ_section_title
;
Structure prediction by ZEFSAII (Michael W. Deem and Ramdas Pophale) SiO2 
 PCOD8297093
Probable space group: I B C A 
;
_chemical_formula_sum "Si O2"
_cell_formula_units_Z 60
_cell_length_a 21.000000
_cell_length_b 24.000000
_cell_length_c 12.000000
_cell_angle_alpha 90.000000
_cell_angle_beta 90.000000
_cell_angle_gamma 90.000000
_cell_volume 6048.000000
_symmetry_space_group_name_H-M "I B C A "
_symmetry_group_IT_number 73
_symmetry_cell_setting 'orthorhombic'
loop_
_space_group_symop_operation_xyz
x,y,z
-x,1/2-y,z
x,-y,1/2-z
1/2-x,y,-z
-x,-y,-z
x,1/2+y,-z
-x,y,1/2+z
1/2+x,-y,z
1/2+x,1/2+y,1/2+z
1/2-x,-y,1/2+z
1/2+x,1/2-y,-z
-x,1/2+y,1/2-z
1/2-x,1/2-y,1/2-z
1/2+x,y,1/2-z
1/2-x,1/2+y,z
x,1/2-y,1/2+z
loop_
_atom_site_type_symbol
_atom_site_label
_atom_site_fract_x
_atom_site_fract_y
_atom_site_fract_z
Si Si1 0.987554 0.147390 0.571188
Si Si2 0.402050 0.793045 0.406102
Si Si3 0.625329 0.685399 0.029692
Si Si4 0.713684 0.001754 0.115029
Si Si5 0.410627 0.554740 0.186166
Si Si6 0.288591 0.807658 0.248376
Si Si7 0.500000 0.750000 0.730640
Si Si8 0.318378 0.119305 0.664874
O O1 0.944023 0.157430 0.460746
O O2 0.966405 0.086570 0.618474
O O3 0.062809 0.145842 0.541420
O O4 0.977806 0.197219 0.658674
O O5 0.394961 0.748724 0.505906
O O6 0.333593 0.813692 0.358289
O O7 0.439129 0.765477 0.303728
O O8 0.667574 0.685049 0.139918
O O9 0.666291 0.667144 0.923570
O O10 0.705328 0.066948 0.093054
O O11 0.739075 0.000000 0.250000
O O12 0.647591 0.967522 0.109709
O O13 0.750000 0.980620 0.000000
O O14 0.439338 0.500000 0.250000
O O15 0.381458 0.601648 0.267742
O O16 0.250000 0.750000 0.250000
O O17 0.236447 0.857449 0.248511
#
# Coordination Sequence:
#
# PCOD8297093 Si02
#       8
#    16  16  16  16  16  16   8  16
#     4  12  23  38  67  90 123 170 216 268 323 402
#     4  12  23  37  59  92 127 170 216 257 314 394
#     4  12  22  39  59  90 127 170 210 257 325 394
#     4   9  19  40  67  92 124 174 227 277 338 409
#     4   9  23  44  67  92 124 171 220 277 339 394
#     4  12  25  36  57  92 134 170 210 260 314 396
#     4  12  20  42  60  90 132 170 212 246 338 392
#     4  10  22  40  64  87 127 175 209 263 338 396
#
# _framework density 9.9206350000000008
#
# number of rings (size 3 to 8) (size 9 to 14) (size 15 to 20)
#    0.000    1.333    5.333    2.000    1.867    2.133 
#    0.000    2.667    0.000    3.200    0.000    0.000 
#    0.000    0.000    0.000    0.000    0.000    0.000 
#
# Total GULP energy -743326.365289 kJ/mol
# GULP energy per Si atom -12388.772755 kJ/mol
# Density = 0.989806 g / cm^3
# Si number density = 9.920635 Si / 1000 Ang^3
#
#
#
# Elastic Constant Matrix: (Units=GPa)
#
#
# Indices 1 2 3 4 5 6 
#
# 1 105.7797 37.1805 37.1661 0.0000 0.0000 0.0000
# 2 37.1805 89.3121 21.4701 0.0000 0.0000 0.0000
# 3 37.1661 21.4701 89.3836 0.0000 0.0000 0.0000
# 4 0.0000 0.0000 0.0000 34.1398 0.0000 0.0000
# 5 0.0000 0.0000 0.0000 0.0000 41.1441 0.0000
# 6 0.0000 0.0000 0.0000 0.0000 0.0000 39.6795
#
#
#
# Elastic Compliance Matrix: (Units=1/GPa)
#
#
# Indices 1 2 3 4 5 6 
#
# 1 0.012370 -0.004153 -0.004146 0.000000 0.000000 0.000000
# 2 -0.004153 0.013277 -0.001462 0.000000 0.000000 0.000000
# 3 -0.004146 -0.001462 0.013263 0.000000 0.000000 0.000000
# 4 0.000000 0.000000 0.000000 0.029291 0.000000 0.000000
# 5 0.000000 0.000000 0.000000 0.000000 0.024305 0.000000
# 6 0.000000 0.000000 0.000000 0.000000 0.000000 0.025202
#
#
# Mechanical properties :
#
#
# Convention : Reuss Voigt Hill
#
# Bulk Modulus (GPa) = 51.57972 52.90097 52.24034
# Shear Modulus (GPa) = 34.79636 35.56993 35.18314
#
# Velocity S-wave (km/s) = 4.19231 4.23865 4.21554
# Velocity P-wave (km/s) = 7.03467 7.11863 7.07677
#
# Compressibility (1/GPa) = 0.01938747
#
# Stress axis : x y z
#
# Youngs Moduli (GPa) = 80.84056 75.31762 75.39826
#
# Poissons Ratio (x) = 0.31279 0.31260
# Poissons Ratio (y) = 0.33573 0.11026
# Poissons Ratio (z) = 0.33516 0.11014
#
# Static dielectric constant tensor:
#      x y z
#    x 3.776510 0.000000 0.000000 
#    y 0.000000 3.698420 0.000000 
#    z 0.000000 0.000000 3.913480 
# 
# 
# High freq. dielectric constant tensor:
#      x y z
#    x 1.779230 0.000000 0.000000 
#    y 0.000000 1.769830 0.000000 
#    z 0.000000 0.000000 1.790490 
# 
# From -- ./inp_files/13094.got.cif
#   From: 2010.03.12/outbox.ucp.g09.slc.cvg/sg73_7_cif.got.tgz:13094.got - 2010.05.04 20:06:02.
