data_PCOD8297302
_publ_section_title
;
Structure prediction by ZEFSAII (Michael W. Deem and Ramdas Pophale) SiO2 
 PCOD8297302
Probable space group: I M M A
;
_chemical_formula_sum "Si O2"
_cell_formula_units_Z 112
_cell_length_a 14.404066
_cell_length_b 31.535254
_cell_length_c 13.274073
_cell_angle_alpha 90.000000
_cell_angle_beta 90.000000
_cell_angle_gamma 90.000000
_cell_volume 6029.560230
_symmetry_space_group_name_H-M "I M M A"
_symmetry_group_IT_number 74
_symmetry_cell_setting 'orthorhombic'
loop_
_space_group_symop_operation_xyz
x,y,z
-x,1/2-y,z
x,-y,-z
-x,1/2+y,-z
-x,-y,-z
x,1/2+y,-z
-x,y,z
x,1/2-y,z
1/2+x,1/2+y,1/2+z
1/2-x,-y,1/2+z
1/2+x,1/2-y,1/2-z
1/2-x,y,1/2-z
1/2-x,1/2-y,1/2-z
1/2+x,y,1/2-z
1/2-x,1/2+y,1/2+z
1/2+x,-y,1/2+z
loop_
_atom_site_type_symbol
_atom_site_label
_atom_site_fract_x
_atom_site_fract_y
_atom_site_fract_z
Si Si1 0.353055 0.797500 0.237939
Si Si2 0.393822 0.917870 0.199065
Si Si3 0.281228 0.876928 0.018734
Si Si4 0.901439 0.636820 0.115694
Si Si5 0.389935 0.987830 0.745586
Si Si6 0.737370 0.465448 0.087265
Si Si7 0.105590 0.202401 0.505791
O O1 0.353089 0.750000 0.278374
O O2 0.250000 0.817075 0.250000
O O3 0.419096 0.823194 0.311750
O O4 0.390791 0.801085 0.125822
O O5 0.500000 0.912571 0.163548
O O6 0.332359 0.891367 0.120928
O O7 0.377436 0.902799 0.312931
O O8 0.365331 0.966518 0.207444
O O9 0.181202 0.855804 0.038323
O O10 0.336867 0.838270 0.962772
O O11 0.258393 0.917796 0.952977
O O12 0.000000 0.629052 0.058670
O O13 0.500000 0.980740 0.727364
O O14 0.348732 0.959542 0.835518
O O15 0.334145 0.978362 0.642280
O O16 0.717234 0.500000 0.000000
O O17 0.142629 0.250000 0.473811
O O18 0.000000 0.197729 0.468617
#
# Coordination Sequence:
#
# PCOD8297302 Si02
#       7
#    16  16  16  16  16  16  16
#     4  10  17  28  45  65  98 142 183 222 268 322
#     4  10  19  32  52  74 101 138 180 225 271 321
#     4  12  21  33  53  78 108 143 187 233 275 330
#     4  11  21  30  44  70 102 143 189 226 264 315
#     4  10  23  41  59  82 112 147 188 236 286 342
#     4  11  23  38  59  84 116 150 190 235 287 340
#     4  10  20  33  49  73 107 145 185 232 285 336
#
# _framework density 18.575153
#
# number of rings (size 3 to 8) (size 9 to 14) (size 15 to 20)
#    0.000    1.429    4.286    2.143    2.000    3.143 
#    0.000    0.000    0.000    0.000    0.000    2.000 
#    0.000    1.143    0.000    0.000    0.000    0.000 
#
# Total GULP energy -693795.723851 kJ/mol
# GULP energy per Si atom -12389.209354 kJ/mol
# Density = 1.853287 g / cm^3
# Si number density = 18.575153 Si / 1000 Ang^3
#
#
#
# Elastic Constant Matrix: (Units=GPa)
#
#
# Indices 1 2 3 4 5 6 
#
# 1 112.5296 29.2423 22.4829 -0.0003 0.0000 0.0000
# 2 29.2423 99.1959 15.5650 -0.0001 0.0002 0.0000
# 3 22.4829 15.5650 37.2838 -0.0009 -0.0006 -0.0001
# 4 -0.0003 -0.0001 -0.0009 19.9746 -0.0003 -0.0001
# 5 0.0000 0.0002 -0.0006 -0.0003 10.7913 0.0000
# 6 0.0000 0.0000 -0.0001 -0.0001 0.0000 24.8344
#
#
#
# Elastic Compliance Matrix: (Units=1/GPa)
#
#
# Indices 1 2 3 4 5 6 
#
# 1 0.010558 -0.002261 -0.005422 0.000000 0.000000 0.000000
# 2 -0.002261 0.011272 -0.003342 0.000000 0.000000 0.000000
# 3 -0.005422 -0.003342 0.031486 0.000001 0.000002 0.000000
# 4 0.000000 0.000000 0.000001 0.050064 0.000001 0.000000
# 5 0.000000 0.000000 0.000002 0.000001 0.092667 0.000000
# 6 0.000000 0.000000 0.000000 0.000000 0.000000 0.040267
#
#
# Mechanical properties :
#
#
# Convention : Reuss Voigt Hill
#
# Bulk Modulus (GPa) = 31.98544 42.62106 37.30325
# Shear Modulus (GPa) = 18.60210 23.23467 20.91839
#
# Velocity S-wave (km/s) = 3.16800 3.54057 3.35945
# Velocity P-wave (km/s) = 5.53521 6.30152 5.93075
#
# Compressibility (1/GPa) = 0.03126422
#
# Stress axis : x y z
#
# Youngs Moduli (GPa) = 94.71874 88.71429 31.75986
#
# Poissons Ratio (x) = 0.20063 0.17221
# Poissons Ratio (y) = 0.21420 0.10614
# Poissons Ratio (z) = 0.51359 0.29649
#
# Static dielectric constant tensor:
#      x y z
#    x 3.704060 0.000000 0.000000 
#    y 0.000000 3.725890 0.000000 
#    z 0.000000 0.000000 2.916650 
# 
# 
# High freq. dielectric constant tensor:
#      x y z
#    x 1.737820 0.000000 0.000000 
#    y 0.000000 1.733520 0.000000 
#    z 0.000000 0.000000 1.651460 
# 
# From -- ./inp_files/33175.got.cif
#   From: 2010.03.12/outbox.cif.g09.slc.cpg/sg74_17_cif.got.tgz:33175.got - 2010.04.16 15:46:19.
