data_PCOD8297792
_publ_section_title
;
Structure prediction by ZEFSAII (Michael W. Deem and Ramdas Pophale) SiO2 
 PCOD8297792
Probable space group: I M M A
;
_chemical_formula_sum "Si O2"
_cell_formula_units_Z 96
_cell_length_a 8.906597
_cell_length_b 30.776339
_cell_length_c 21.097064
_cell_angle_alpha 90.000000
_cell_angle_beta 90.000000
_cell_angle_gamma 90.000000
_cell_volume 5782.967871
_symmetry_space_group_name_H-M "I M M A"
_symmetry_group_IT_number 74
_symmetry_cell_setting 'orthorhombic'
loop_
_space_group_symop_operation_xyz
x,y,z
-x,1/2-y,z
x,-y,-z
-x,1/2+y,-z
-x,-y,-z
x,1/2+y,-z
-x,y,z
x,1/2-y,z
1/2+x,1/2+y,1/2+z
1/2-x,-y,1/2+z
1/2+x,1/2-y,1/2-z
1/2-x,y,1/2-z
1/2-x,1/2-y,1/2-z
1/2+x,y,1/2-z
1/2-x,1/2+y,1/2+z
1/2+x,-y,1/2+z
loop_
_atom_site_type_symbol
_atom_site_label
_atom_site_fract_x
_atom_site_fract_y
_atom_site_fract_z
Si Si1 0.673234 0.405935 0.149078
Si Si2 0.820777 0.890488 0.981436
Si Si3 0.822311 0.203392 0.050570
Si Si4 0.170393 0.497554 0.687172
Si Si5 0.822956 0.321553 0.188808
Si Si6 0.678655 0.964505 0.052237
O O1 0.500000 0.391865 0.140668
O O2 0.747937 0.411807 0.080458
O O3 0.686277 0.450723 0.186485
O O4 0.764903 0.370929 0.189116
O O5 0.767468 0.839546 0.987378
O O6 0.000000 0.893465 0.977024
O O7 0.757658 0.917985 0.040139
O O8 0.761650 0.250000 0.022932
O O9 0.769995 0.201093 0.123904
O O10 0.000000 0.203589 0.048820
O O11 0.250000 0.478794 0.750000
O O12 0.237193 0.478468 0.621684
O O13 0.000000 0.482505 0.692249
O O14 0.750000 0.297729 0.250000
O O15 0.000000 0.320866 0.196233
O O16 0.500000 0.959212 0.049736
O O17 0.730459 0.000000 0.000000
#
# Coordination Sequence:
#
# PCOD8297792 Si02
#       6
#    16  16  16  16  16  16
#     4  10  18  31  47  63  89 126 162 197 240 284
#     4  10  19  30  49  75  94 117 158 203 240 277
#     4   8  16  31  47  63  88 118 149 192 244 291
#     4  10  21  33  47  67  93 128 162 197 236 279
#     4  10  19  29  42  62  85 116 158 199 243 287
#     4  10  19  35  52  68  96 133 166 193 235 291
#
# _framework density 16.600473000000001
#
# number of rings (size 3 to 8) (size 9 to 14) (size 15 to 20)
#    0.000    2.333    1.667    3.000    0.000    4.000 
#    0.000    0.000    0.000   17.500    0.000    0.000 
#    0.000    0.667    0.000    1.500    0.000    2.333 
#
# Total GULP energy -594823.362469 kJ/mol
# GULP energy per Si atom -12392.153385 kJ/mol
# Density = 1.656269 g / cm^3
# Si number density = 16.600473 Si / 1000 Ang^3
#
#
#
# Elastic Constant Matrix: (Units=GPa)
#
#
# Indices 1 2 3 4 5 6 
#
# 1 40.0794 19.4389 20.5761 -0.0001 0.0000 0.0000
# 2 19.4389 97.3999 41.2770 -0.0001 0.0000 0.0000
# 3 20.5761 41.2770 90.3881 0.0017 0.0001 0.0001
# 4 -0.0001 -0.0001 0.0017 -4.7832 0.0001 0.0001
# 5 0.0000 0.0000 0.0001 0.0001 25.3047 0.0000
# 6 0.0000 0.0000 0.0001 0.0001 0.0000 12.9694
#
#
#
# Elastic Compliance Matrix: (Units=1/GPa)
#
#
# Indices 1 2 3 4 5 6 
#
# 1 0.029316 -0.003748 -0.004962 -0.000002 0.000000 0.000000
# 2 -0.003748 0.013210 -0.005179 -0.000002 0.000000 0.000000
# 3 -0.004962 -0.005179 0.014558 0.000005 0.000000 0.000000
# 4 -0.000002 -0.000002 0.000005 -0.209064 0.000001 0.000002
# 5 0.000000 0.000000 0.000000 0.000001 0.039518 0.000000
# 6 0.000000 0.000000 0.000000 0.000002 0.000000 0.077104
#
#
# Mechanical properties :
#
#
# Convention : Reuss Voigt Hill
#
# Bulk Modulus (GPa) = 34.12346 43.38350 38.75348
# Shear Modulus (GPa) = 2283.63417 16.46988 1150.05202
#
# Velocity S-wave (km/s) = 37.12991 3.15323 26.34932
# Velocity P-wave (km/s) = 43.11350 6.28075 30.80765
#
# Compressibility (1/GPa) = 0.02930535
#
# Stress axis : x y z
#
# Youngs Moduli (GPa) = 34.11148 75.70086 68.69019
#
# Poissons Ratio (x) = 0.28373 0.34083
# Poissons Ratio (y) = 0.12785 0.35577
# Poissons Ratio (z) = 0.16926 0.39208
#
# Static dielectric constant tensor:
#      x y z
#    x 3.030990 0.000000 0.000000 
#    y 0.000000 3.326960 0.000000 
#    z 0.000000 0.000000 3.111750 
# 
# 
# High freq. dielectric constant tensor:
#      x y z
#    x 1.631870 0.000000 0.000000 
#    y 0.000000 1.628710 0.000000 
#    z 0.000000 0.000000 1.608200 
# 
# From -- ./inp_files/57479.got.cif
#   From: 2010.03.12/outbox.cif.g09.slc.cpg/sg74_29_cif.got.tgz:57479.got - 2010.04.16 15:46:19.
