data_PCOD8297534
_publ_section_title
;
Structure prediction by ZEFSAII (Michael W. Deem and Ramdas Pophale) SiO2 
 PCOD8297534
Probable space group: I M M A
;
_chemical_formula_sum "Si O2"
_cell_formula_units_Z 72
_cell_length_a 15.619380
_cell_length_b 9.144769
_cell_length_c 28.762795
_cell_angle_alpha 90.000000
_cell_angle_beta 90.000000
_cell_angle_gamma 90.000000
_cell_volume 4108.351715
_symmetry_space_group_name_H-M "I M M A"
_symmetry_group_IT_number 74
_symmetry_cell_setting 'orthorhombic'
loop_
_space_group_symop_operation_xyz
x,y,z
-x,1/2-y,z
x,-y,-z
-x,1/2+y,-z
-x,-y,-z
x,1/2+y,-z
-x,y,z
x,1/2-y,z
1/2+x,1/2+y,1/2+z
1/2-x,-y,1/2+z
1/2+x,1/2-y,1/2-z
1/2-x,y,1/2-z
1/2-x,1/2-y,1/2-z
1/2+x,y,1/2-z
1/2-x,1/2+y,1/2+z
1/2+x,-y,1/2+z
loop_
_atom_site_type_symbol
_atom_site_label
_atom_site_fract_x
_atom_site_fract_y
_atom_site_fract_z
Si Si1 0.000000 0.922560 0.783304
Si Si2 0.000000 0.082701 0.452712
Si Si3 0.500000 0.915372 0.376981
Si Si4 0.185356 0.079077 0.450727
Si Si5 0.185270 0.585510 0.112292
Si Si6 0.831289 0.420111 0.778908
O O1 0.000000 0.750000 0.775658
O O2 0.914161 0.990956 0.760673
O O3 0.000000 0.962229 0.837531
O O4 0.909262 0.045938 0.427615
O O5 0.000000 0.250000 0.466834
O O6 0.000000 0.000000 0.500000
O O7 0.500000 0.750000 0.354419
O O8 0.587213 0.933002 0.406802
O O9 0.199060 0.250000 0.459445
O O10 0.197259 0.000000 0.500000
O O11 0.254941 0.026898 0.414084
O O12 0.218276 0.750000 0.103026
O O13 0.186414 0.549535 0.166900
O O14 0.848480 0.250000 0.769387
O O15 0.750000 0.476973 0.750000
#
# Coordination Sequence:
#
# PCOD8297534 Si02
#       6
#     8   8   8  16  16  16
#     4  10  18  28  47  74 101 127 159 202 248 292
#     4   8  16  30  47  66  89 121 157 189 227 278
#     4   8  16  32  51  68  93 130 166 195 229 286
#     4  10  19  32  50  71  96 126 159 196 238 285
#     4   9  17  31  51  74  96 121 158 201 240 279
#     4   9  18  34  54  72  95 131 170 203 237 286
#
# _framework density 17.525278
#
# number of rings (size 3 to 8) (size 9 to 14) (size 15 to 20)
#    0.000    2.889    0.000    3.000    0.000    4.889 
#    0.000    1.667    0.000    4.000    0.000    0.000 
#    0.000    0.000    0.000    0.000    0.000    0.000 
#
# Total GULP energy -446000.116541 kJ/mol
# GULP energy per Si atom -12388.892126 kJ/mol
# Density = 1.748539 g / cm^3
# Si number density = 17.525278 Si / 1000 Ang^3
#
#
#
# Elastic Constant Matrix: (Units=GPa)
#
#
# Indices 1 2 3 4 5 6 
#
# 1 183.5219 73.6903 53.4033 0.0000 0.0000 0.0000
# 2 73.6903 87.6260 30.1428 0.0000 0.0000 0.0000
# 3 53.4033 30.1428 42.0152 0.0000 0.0000 0.0000
# 4 0.0000 0.0000 0.0000 22.6135 0.0000 0.0000
# 5 0.0000 0.0000 0.0000 0.0000 27.0934 0.0000
# 6 0.0000 0.0000 0.0000 0.0000 0.0000 28.3840
#
#
#
# Elastic Compliance Matrix: (Units=1/GPa)
#
#
# Indices 1 2 3 4 5 6 
#
# 1 0.010343 -0.005544 -0.009169 0.000000 0.000000 0.000000
# 2 -0.005544 0.018123 -0.005955 0.000000 0.000000 0.000000
# 3 -0.009169 -0.005955 0.039728 0.000000 0.000000 0.000000
# 4 0.000000 0.000000 0.000000 0.044221 0.000000 0.000000
# 5 0.000000 0.000000 0.000000 0.000000 0.036909 0.000000
# 6 0.000000 0.000000 0.000000 0.000000 0.000000 0.035231
#
#
# Mechanical properties :
#
#
# Convention : Reuss Voigt Hill
#
# Bulk Modulus (GPa) = 37.23404 69.73733 53.48568
# Shear Modulus (GPa) = 21.29059 26.01329 23.65194
#
# Velocity S-wave (km/s) = 3.48925 3.85688 3.67766
# Velocity P-wave (km/s) = 6.12578 7.72741 6.97273
#
# Compressibility (1/GPa) = 0.02685715
#
# Stress axis : x y z
#
# Youngs Moduli (GPa) = 96.68094 55.17819 25.17129
#
# Poissons Ratio (x) = 0.30592 0.23080
# Poissons Ratio (y) = 0.53602 0.14990
# Poissons Ratio (z) = 0.88650 0.32859
#
# Static dielectric constant tensor:
#      x y z
#    x 4.004590 0.000000 0.000000 
#    y 0.000000 3.171800 0.000000 
#    z 0.000000 0.000000 2.753510 
# 
# 
# High freq. dielectric constant tensor:
#      x y z
#    x 1.704340 0.000000 0.000000 
#    y 0.000000 1.677570 0.000000 
#    z 0.000000 0.000000 1.621200 
# 
# From -- ./inp_files/72297.got.cif
#   From: 2010.03.12/outbox.cif.g09.slc.cpg/sg74_37_cif.got.tgz:72297.got - 2010.04.16 15:46:19.
