data_PCOD8297583
_publ_section_title
;
Structure prediction by ZEFSAII (Michael W. Deem and Ramdas Pophale) SiO2 
 PCOD8297583
Probable space group: I M M A
;
_chemical_formula_sum "Si O2"
_cell_formula_units_Z 104
_cell_length_a 14.033339
_cell_length_b 18.364246
_cell_length_c 25.718233
_cell_angle_alpha 90.000000
_cell_angle_beta 90.000000
_cell_angle_gamma 90.000000
_cell_volume 6627.889280
_symmetry_space_group_name_H-M "I M M A"
_symmetry_group_IT_number 74
_symmetry_cell_setting 'orthorhombic'
loop_
_space_group_symop_operation_xyz
x,y,z
-x,1/2-y,z
x,-y,-z
-x,1/2+y,-z
-x,-y,-z
x,1/2+y,-z
-x,y,z
x,1/2-y,z
1/2+x,1/2+y,1/2+z
1/2-x,-y,1/2+z
1/2+x,1/2-y,1/2-z
1/2-x,y,1/2-z
1/2-x,1/2-y,1/2-z
1/2+x,y,1/2-z
1/2-x,1/2+y,1/2+z
1/2+x,-y,1/2+z
loop_
_atom_site_type_symbol
_atom_site_label
_atom_site_fract_x
_atom_site_fract_y
_atom_site_fract_z
Si Si1 0.612919 0.750000 0.559283
Si Si2 0.298110 0.997605 0.327812
Si Si3 0.109100 0.034228 0.720354
Si Si4 0.110206 0.904825 0.906740
Si Si5 0.108202 0.331514 0.650842
Si Si6 0.183246 0.500000 0.000000
Si Si7 0.268608 0.611613 0.416060
Si Si8 0.886608 0.750000 0.057424
O O1 0.500000 0.750000 0.559516
O O2 0.651621 0.676407 0.585430
O O3 0.649708 0.750000 0.501077
O O4 0.187556 0.012321 0.311778
O O5 0.366004 0.973721 0.280605
O O6 0.311014 0.933899 0.368872
O O7 0.333803 0.070480 0.355440
O O8 0.123048 0.117834 0.701668
O O9 0.000000 0.007842 0.709819
O O10 0.000000 0.903243 0.892653
O O11 0.121090 0.955185 0.958123
O O12 0.139437 0.250000 0.667163
O O13 0.165441 0.358025 0.599973
O O14 0.000000 0.333801 0.631951
O O15 0.243751 0.560635 0.032339
O O16 0.344356 0.676419 0.419151
O O17 0.000000 0.750000 0.064812
#
# Coordination Sequence:
#
# PCOD8297583 Si02
#       8
#     8  16  16  16  16   8  16   8
#     4   9  18  30  44  66  91 125 159 188 226 276
#     4   9  19  31  47  72  92 122 158 189 231 276
#     4   9  17  32  49  68  94 120 153 195 232 274
#     4  10  18  29  46  67  94 123 157 192 228 275
#     4   9  17  31  51  68  87 122 160 193 233 272
#     4  10  19  28  45  66  96 130 155 182 231 274
#     4  10  19  32  45  68  97 124 156 192 222 273
#     4  11  20  30  43  64  97 131 156 184 229 276
#
# _framework density 15.691269999999999
#
# number of rings (size 3 to 8) (size 9 to 14) (size 15 to 20)
#    0.000    2.462    2.308    0.692    0.000    3.077 
#    1.385    1.923    0.000    2.769    0.000    1.615 
#    0.000    0.000    0.000    0.000    0.000    0.000 
#
# Total GULP energy -644302.867107 kJ/mol
# GULP energy per Si atom -12390.439752 kJ/mol
# Density = 1.565556 g / cm^3
# Si number density = 15.691270 Si / 1000 Ang^3
#
#
#
# Elastic Constant Matrix: (Units=GPa)
#
#
# Indices 1 2 3 4 5 6 
#
# 1 85.7451 43.2805 47.9736 0.0000 0.0000 0.0000
# 2 43.2805 99.0454 52.0423 0.0000 0.0000 0.0000
# 3 47.9736 52.0423 101.6740 0.0000 0.0000 0.0000
# 4 0.0000 0.0000 0.0000 21.1786 0.0000 0.0000
# 5 0.0000 0.0000 0.0000 0.0000 21.4158 0.0000
# 6 0.0000 0.0000 0.0000 0.0000 0.0000 21.4440
#
#
#
# Elastic Compliance Matrix: (Units=1/GPa)
#
#
# Indices 1 2 3 4 5 6 
#
# 1 0.017162 -0.004438 -0.005826 0.000000 0.000000 0.000000
# 2 -0.004438 0.014959 -0.005562 0.000000 0.000000 0.000000
# 3 -0.005826 -0.005562 0.015431 0.000000 0.000000 0.000000
# 4 0.000000 0.000000 0.000000 0.047217 0.000000 0.000000
# 5 0.000000 0.000000 0.000000 0.000000 0.046694 0.000000
# 6 0.000000 0.000000 0.000000 0.000000 0.000000 0.046633
#
#
# Mechanical properties :
#
#
# Convention : Reuss Voigt Hill
#
# Bulk Modulus (GPa) = 62.89804 63.67302 63.28553
# Shear Modulus (GPa) = 22.21723 22.35223 22.28473
#
# Velocity S-wave (km/s) = 3.76692 3.77835 3.77264
# Velocity P-wave (km/s) = 7.68709 7.72666 7.70690
#
# Compressibility (1/GPa) = 0.01589875
#
# Stress axis : x y z
#
# Youngs Moduli (GPa) = 58.26694 66.85143 64.80254
#
# Poissons Ratio (x) = 0.29671 0.37755
# Poissons Ratio (y) = 0.25861 0.36046
# Poissons Ratio (z) = 0.33947 0.37186
#
# Static dielectric constant tensor:
#      x y z
#    x 2.967360 0.000000 0.000000 
#    y 0.000000 3.223180 0.000000 
#    z 0.000000 0.000000 3.069050 
# 
# 
# High freq. dielectric constant tensor:
#      x y z
#    x 1.590940 0.000000 0.000000 
#    y 0.000000 1.598850 0.000000 
#    z 0.000000 0.000000 1.598560 
# 
# From -- ./inp_files/60333.got.cif
#   From: 2010.03.12/outbox.cif.g09.slc.cpg/sg74_31_cif.got.tgz:60333.got - 2010.04.16 15:46:19.
