data_PCOD8297104
_publ_section_title
;
Structure prediction by ZEFSAII (Michael W. Deem and Ramdas Pophale) SiO2 
 PCOD8297104
Probable space group: I M M A
;
_chemical_formula_sum "Si O2"
_cell_formula_units_Z 80
_cell_length_a 17.974165
_cell_length_b 11.084643
_cell_length_c 24.508570
_cell_angle_alpha 90.000000
_cell_angle_beta 90.000000
_cell_angle_gamma 90.000000
_cell_volume 4883.018918
_symmetry_space_group_name_H-M "I M M A"
_symmetry_group_IT_number 74
_symmetry_cell_setting 'orthorhombic'
loop_
_space_group_symop_operation_xyz
x,y,z
-x,1/2-y,z
x,-y,-z
-x,1/2+y,-z
-x,-y,-z
x,1/2+y,-z
-x,y,z
x,1/2-y,z
1/2+x,1/2+y,1/2+z
1/2-x,-y,1/2+z
1/2+x,1/2-y,1/2-z
1/2-x,y,1/2-z
1/2-x,1/2-y,1/2-z
1/2+x,y,1/2-z
1/2-x,1/2+y,1/2+z
1/2+x,-y,1/2+z
loop_
_atom_site_type_symbol
_atom_site_label
_atom_site_fract_x
_atom_site_fract_y
_atom_site_fract_z
Si Si1 0.588205 0.250000 0.160009
Si Si2 0.912071 0.612939 0.463548
Si Si3 0.852730 0.497539 0.642190
Si Si4 0.583494 0.886006 0.249196
Si Si5 0.703734 0.505641 0.694548
Si Si6 0.332587 0.250000 0.273181
O O1 0.500000 0.250000 0.151869
O O2 0.623505 0.365176 0.128808
O O3 0.608156 0.250000 0.224086
O O4 0.881671 0.500000 0.500000
O O5 0.890153 0.750000 0.483938
O O6 0.878623 0.595604 0.403493
O O7 0.000000 0.603294 0.459479
O O8 0.893287 0.470236 0.699172
O O9 0.762574 0.484685 0.645886
O O10 0.500000 0.918236 0.267853
O O11 0.589653 0.750000 0.228549
O O12 0.639197 0.904459 0.300883
O O13 0.750000 0.504899 0.750000
O O14 0.659209 0.632312 0.688742
O O15 0.250000 0.250000 0.250000
#
# Coordination Sequence:
#
# PCOD8297104 Si02
#       6
#     8  16  16  16  16   8
#     4  12  20  26  46  72  92 126 166 194 227 274
#     4  10  22  38  52  68  91 119 155 203 248 285
#     4  11  20  31  47  67  90 123 159 195 231 282
#     4  10  19  29  42  64  93 123 155 190 227 275
#     4   9  17  28  44  62  90 121 152 188 227 269
#     4  10  14  30  40  60  94 118 148 192 224 260
#
# _framework density 16.383308
#
# number of rings (size 3 to 8) (size 9 to 14) (size 15 to 20)
#    0.000    1.800    6.000    2.400    1.400    6.000 
#    0.000    0.000    0.000    0.000    0.000    0.000 
#    0.000    0.800    0.000    0.400    0.000    0.200 
#
# Total GULP energy -495617.301338 kJ/mol
# GULP energy per Si atom -12390.432533 kJ/mol
# Density = 1.634602 g / cm^3
# Si number density = 16.383308 Si / 1000 Ang^3
#
#
#
# Elastic Constant Matrix: (Units=GPa)
#
#
# Indices 1 2 3 4 5 6 
#
# 1 80.2193 36.2814 22.7689 0.0000 0.0000 0.0000
# 2 36.2814 104.3463 22.7716 0.0000 0.0000 0.0000
# 3 22.7689 22.7716 26.5864 0.0000 0.0000 0.0000
# 4 0.0000 0.0000 0.0000 19.0363 0.0000 0.0000
# 5 0.0000 0.0000 0.0000 0.0000 17.8150 0.0000
# 6 0.0000 0.0000 0.0000 0.0000 0.0000 23.4533
#
#
#
# Elastic Compliance Matrix: (Units=1/GPa)
#
#
# Indices 1 2 3 4 5 6 
#
# 1 0.017421 -0.003445 -0.011969 0.000000 0.000000 0.000000
# 2 -0.003445 0.012468 -0.007728 0.000000 0.000000 0.000000
# 3 -0.011969 -0.007728 0.054483 0.000000 0.000000 0.000000
# 4 0.000000 0.000000 0.000000 0.052531 0.000000 0.000000
# 5 0.000000 0.000000 0.000000 0.000000 0.056133 0.000000
# 6 0.000000 0.000000 0.000000 0.000000 0.000000 0.042638
#
#
# Mechanical properties :
#
#
# Convention : Reuss Voigt Hill
#
# Bulk Modulus (GPa) = 26.25562 41.64398 33.94980
# Shear Modulus (GPa) = 16.96905 20.68292 18.82598
#
# Velocity S-wave (km/s) = 3.22180 3.55694 3.39351
# Velocity P-wave (km/s) = 5.46815 6.50713 6.01013
#
# Compressibility (1/GPa) = 0.03808708
#
# Stress axis : x y z
#
# Youngs Moduli (GPa) = 57.40121 80.20514 18.35448
#
# Poissons Ratio (x) = 0.27634 0.21968
# Poissons Ratio (y) = 0.19777 0.14185
# Poissons Ratio (z) = 0.68701 0.61985
#
# Static dielectric constant tensor:
#      x y z
#    x 3.284030 0.000000 0.000000 
#    y 0.000000 3.710320 0.000000 
#    z 0.000000 0.000000 2.681890 
# 
# 
# High freq. dielectric constant tensor:
#      x y z
#    x 1.617290 0.000000 0.000000 
#    y 0.000000 1.657340 0.000000 
#    z 0.000000 0.000000 1.560500 
# 
# From -- ./inp_files/60711.got.cif
#   From: 2010.03.12/outbox.cif.g09.slc.cpg/sg74_31_cif.got.tgz:60711.got - 2010.04.16 15:46:19.
