data_PCOD8297956
_publ_section_title
;
Structure prediction by ZEFSAII (Michael W. Deem and Ramdas Pophale) SiO2 
 PCOD8297956
Probable space group: I M M A
;
_chemical_formula_sum "Si O2"
_cell_formula_units_Z 104
_cell_length_a 26.292269
_cell_length_b 8.949731
_cell_length_c 23.822470
_cell_angle_alpha 90.000000
_cell_angle_beta 90.000000
_cell_angle_gamma 90.000000
_cell_volume 5605.635279
_symmetry_space_group_name_H-M "I M M A"
_symmetry_group_IT_number 74
_symmetry_cell_setting 'orthorhombic'
loop_
_space_group_symop_operation_xyz
x,y,z
-x,1/2-y,z
x,-y,-z
-x,1/2+y,-z
-x,-y,-z
x,1/2+y,-z
-x,y,z
x,1/2-y,z
1/2+x,1/2+y,1/2+z
1/2-x,-y,1/2+z
1/2+x,1/2-y,1/2-z
1/2-x,y,1/2-z
1/2-x,1/2-y,1/2-z
1/2+x,y,1/2-z
1/2-x,1/2+y,1/2+z
1/2+x,-y,1/2+z
loop_
_atom_site_type_symbol
_atom_site_label
_atom_site_fract_x
_atom_site_fract_y
_atom_site_fract_z
Si Si1 0.639774 0.425150 0.764513
Si Si2 0.212668 0.925291 0.652166
Si Si3 0.500000 0.071834 0.561803
Si Si4 0.172296 0.420489 0.157014
Si Si5 0.058507 0.574632 0.354976
Si Si6 0.631685 0.074108 0.060281
Si Si7 0.902084 0.077971 0.058381
O O1 0.646059 0.250000 0.761862
O O2 0.688812 0.492242 0.794867
O O3 0.638895 0.487566 0.701551
O O4 0.588292 0.470044 0.797859
O O5 0.209075 0.750000 0.663319
O O6 0.270596 0.981545 0.648626
O O7 0.182418 0.967511 0.595357
O O8 0.500000 0.250000 0.562265
O O9 0.500000 0.000000 0.500000
O O10 0.551227 0.007268 0.590105
O O11 0.172983 0.250000 0.177665
O O12 0.147155 0.436749 0.096517
O O13 0.063798 0.750000 0.367102
O O14 0.082038 0.488034 0.407877
O O15 0.000000 0.526375 0.347494
O O16 0.625067 0.250000 0.052857
O O17 0.637029 0.000000 0.000000
O O18 0.917210 0.250000 0.047477
O O19 0.888290 0.000000 0.000000
#
# Coordination Sequence:
#
# PCOD8297956 Si02
#       7
#    16  16   8  16  16  16  16
#     4  10  20  34  54  80 106 134 175 222 266 312
#     4   9  19  36  55  74 103 143 179 212 260 316
#     4  10  18  32  54  74  96 130 166 202 249 300
#     4  10  21  36  54  77 106 140 175 214 261 316
#     4   9  19  37  57  76 105 142 177 219 269 315
#     4  10  20  34  54  80 109 141 180 220 262 315
#     4  10  20  35  54  76 104 135 172 213 258 308
#
# _framework density 18.552759999999999
#
# number of rings (size 3 to 8) (size 9 to 14) (size 15 to 20)
#    0.000    2.308    0.000    3.462    0.000    6.154 
#    1.385    0.000    0.000    0.000    0.000    0.000 
#    0.000    0.000    0.000    0.000    0.000    0.000 
#
# Total GULP energy -644797.947063 kJ/mol
# GULP energy per Si atom -12399.960520 kJ/mol
# Density = 1.851053 g / cm^3
# Si number density = 18.552760 Si / 1000 Ang^3
#
#
#
# Elastic Constant Matrix: (Units=GPa)
#
#
# Indices 1 2 3 4 5 6 
#
# 1 108.4144 37.1934 46.7959 0.0000 0.0000 0.0000
# 2 37.1934 79.2056 42.0067 0.0000 0.0000 0.0000
# 3 46.7959 42.0067 101.9424 0.0000 0.0000 0.0000
# 4 0.0000 0.0000 0.0000 34.2178 0.0000 0.0000
# 5 0.0000 0.0000 0.0000 0.0000 17.7953 0.0000
# 6 0.0000 0.0000 0.0000 0.0000 0.0000 24.4669
#
#
#
# Elastic Compliance Matrix: (Units=1/GPa)
#
#
# Indices 1 2 3 4 5 6 
#
# 1 0.012232 -0.003540 -0.004157 0.000000 0.000000 0.000000
# 2 -0.003540 0.017180 -0.005455 0.000000 0.000000 0.000000
# 3 -0.004157 -0.005455 0.013965 0.000000 0.000000 0.000000
# 4 0.000000 0.000000 0.000000 0.029225 0.000000 0.000000
# 5 0.000000 0.000000 0.000000 0.000000 0.056195 0.000000
# 6 0.000000 0.000000 0.000000 0.000000 0.000000 0.040872
#
#
# Mechanical properties :
#
#
# Convention : Reuss Voigt Hill
#
# Bulk Modulus (GPa) = 58.56083 60.17271 59.36677
# Shear Modulus (GPa) = 24.79391 26.20040 25.49716
#
# Velocity S-wave (km/s) = 3.65965 3.76202 3.71118
# Velocity P-wave (km/s) = 7.03494 7.16757 7.10156
#
# Compressibility (1/GPa) = 0.01707626
#
# Stress axis : x y z
#
# Youngs Moduli (GPa) = 81.75041 58.20610 71.60673
#
# Poissons Ratio (x) = 0.20603 0.29764
# Poissons Ratio (y) = 0.28936 0.39058
# Poissons Ratio (z) = 0.33981 0.31749
#
# Static dielectric constant tensor:
#      x y z
#    x 3.740510 0.000000 0.000000 
#    y 0.000000 3.472130 0.000000 
#    z 0.000000 0.000000 3.318530 
# 
# 
# High freq. dielectric constant tensor:
#      x y z
#    x 1.725680 0.000000 0.000000 
#    y 0.000000 1.725210 0.000000 
#    z 0.000000 0.000000 1.709640 
# 
# From -- ./inp_files/62323.got.cif
#   From: 2010.03.12/outbox.cif.g09.slc.cpg/sg74_32_cif.got.tgz:62323.got - 2010.04.16 15:46:19.
