data_PCOD8297380
_publ_section_title
;
Structure prediction by ZEFSAII (Michael W. Deem and Ramdas Pophale) SiO2 
 PCOD8297380
Probable space group: I M M A
;
_chemical_formula_sum "Si O2"
_cell_formula_units_Z 96
_cell_length_a 18.663954
_cell_length_b 17.713241
_cell_length_c 17.005385
_cell_angle_alpha 90.000000
_cell_angle_beta 90.000000
_cell_angle_gamma 90.000000
_cell_volume 5621.965235
_symmetry_space_group_name_H-M "I M M A"
_symmetry_group_IT_number 74
_symmetry_cell_setting 'orthorhombic'
loop_
_space_group_symop_operation_xyz
x,y,z
-x,1/2-y,z
x,-y,-z
-x,1/2+y,-z
-x,-y,-z
x,1/2+y,-z
-x,y,z
x,1/2-y,z
1/2+x,1/2+y,1/2+z
1/2-x,-y,1/2+z
1/2+x,1/2-y,1/2-z
1/2-x,y,1/2-z
1/2-x,1/2-y,1/2-z
1/2+x,y,1/2-z
1/2-x,1/2+y,1/2+z
1/2+x,-y,1/2+z
loop_
_atom_site_type_symbol
_atom_site_label
_atom_site_fract_x
_atom_site_fract_y
_atom_site_fract_z
Si Si1 0.315691 0.836874 0.192294
Si Si2 0.079680 0.836718 0.880210
Si Si3 0.813352 0.450606 0.193874
Si Si4 0.918693 0.579471 0.209822
Si Si5 0.384199 0.083264 0.530591
Si Si6 0.765539 0.950378 0.432160
O O1 0.310797 0.750000 0.164187
O O2 0.250000 0.858499 0.250000
O O3 0.388955 0.848840 0.240993
O O4 0.315736 0.893000 0.116539
O O5 0.097450 0.750000 0.868806
O O6 0.139609 0.879951 0.831317
O O7 0.000000 0.856163 0.848096
O O8 0.080933 0.856228 0.972629
O O9 0.750000 0.422360 0.250000
O O10 0.867323 0.509963 0.235264
O O11 0.776660 0.488959 0.119806
O O12 0.916333 0.595981 0.117111
O O13 0.000000 0.562982 0.235601
O O14 0.298516 0.098138 0.528875
O O15 0.404869 0.000000 0.500000
O O16 0.807149 0.000000 0.500000
#
# Coordination Sequence:
#
# PCOD8297380 Si02
#       6
#    16  16  16  16  16  16
#     4  11  21  35  53  78 113 146 178 221 273 320
#     4  11  23  35  49  77 114 145 174 216 267 312
#     4  11  19  35  55  76 104 140 184 218 255 310
#     4  11  20  32  54  81 108 143 182 214 263 326
#     4  10  18  31  52  78 109 146 178 208 249 320
#     4  10  17  34  54  78  99 138 182 221 251 310
#
# _framework density 17.075877999999999
#
# number of rings (size 3 to 8) (size 9 to 14) (size 15 to 20)
#    0.000    1.333   10.000    1.000    0.000    2.667 
#    0.000    0.000    0.000    0.500    0.000    0.000 
#    0.000    0.000    0.000    0.000    0.000    0.000 
#
# Total GULP energy -594928.716886 kJ/mol
# GULP energy per Si atom -12394.348268 kJ/mol
# Density = 1.703701 g / cm^3
# Si number density = 17.075878 Si / 1000 Ang^3
#
#
#
# Elastic Constant Matrix: (Units=GPa)
#
#
# Indices 1 2 3 4 5 6 
#
# 1 99.7987 49.4269 46.5585 0.0000 0.0000 0.0000
# 2 49.4269 84.4979 49.8247 0.0000 0.0000 0.0000
# 3 46.5585 49.8247 70.6485 0.0000 0.0000 0.0000
# 4 0.0000 0.0000 0.0000 27.3723 0.0000 0.0000
# 5 0.0000 0.0000 0.0000 0.0000 17.9651 0.0000
# 6 0.0000 0.0000 0.0000 0.0000 0.0000 17.4820
#
#
#
# Elastic Compliance Matrix: (Units=1/GPa)
#
#
# Indices 1 2 3 4 5 6 
#
# 1 0.015738 -0.005290 -0.006641 0.000000 0.000000 0.000000
# 2 -0.005290 0.022038 -0.012056 0.000000 0.000000 0.000000
# 3 -0.006641 -0.012056 0.027033 0.000000 0.000000 0.000000
# 4 0.000000 0.000000 0.000000 0.036533 0.000000 0.000000
# 5 0.000000 0.000000 0.000000 0.000000 0.055663 0.000000
# 6 0.000000 0.000000 0.000000 0.000000 0.000000 0.057202
#
#
# Mechanical properties :
#
#
# Convention : Reuss Voigt Hill
#
# Bulk Modulus (GPa) = 59.39756 60.72948 60.06352
# Shear Modulus (GPa) = 18.67106 19.83955 19.25530
#
# Velocity S-wave (km/s) = 3.31027 3.41228 3.36167
# Velocity P-wave (km/s) = 7.03353 7.15308 7.09356
#
# Compressibility (1/GPa) = 0.01683571
#
# Stress axis : x y z
#
# Youngs Moduli (GPa) = 63.53883 45.37622 36.99129
#
# Poissons Ratio (x) = 0.24006 0.24565
# Poissons Ratio (y) = 0.33614 0.44596
# Poissons Ratio (z) = 0.42195 0.54705
#
# Static dielectric constant tensor:
#      x y z
#    x 3.350270 0.000000 0.000000 
#    y 0.000000 3.053900 0.000000 
#    z 0.000000 0.000000 3.376950 
# 
# 
# High freq. dielectric constant tensor:
#      x y z
#    x 1.642430 0.000000 0.000000 
#    y 0.000000 1.647520 0.000000 
#    z 0.000000 0.000000 1.640710 
# 
# From -- ./inp_files/44106.got.cif
#   From: 2010.03.12/outbox.cif.g09.slc.cpg/sg74_23_cif.got.tgz:44106.got - 2010.04.16 15:46:19.
