data_PCOD8297699
_publ_section_title
;
Structure prediction by ZEFSAII (Michael W. Deem and Ramdas Pophale) SiO2 
 PCOD8297699
Probable space group: I M M A
;
_chemical_formula_sum "Si O2"
_cell_formula_units_Z 72
_cell_length_a 8.655158
_cell_length_b 33.400295
_cell_length_c 14.484703
_cell_angle_alpha 90.000000
_cell_angle_beta 90.000000
_cell_angle_gamma 90.000000
_cell_volume 4187.307911
_symmetry_space_group_name_H-M "I M M A"
_symmetry_group_IT_number 74
_symmetry_cell_setting 'orthorhombic'
loop_
_space_group_symop_operation_xyz
x,y,z
-x,1/2-y,z
x,-y,-z
-x,1/2+y,-z
-x,-y,-z
x,1/2+y,-z
-x,y,z
x,1/2-y,z
1/2+x,1/2+y,1/2+z
1/2-x,-y,1/2+z
1/2+x,1/2-y,1/2-z
1/2-x,y,1/2-z
1/2-x,1/2-y,1/2-z
1/2+x,y,1/2-z
1/2-x,1/2+y,1/2+z
1/2+x,-y,1/2+z
loop_
_atom_site_type_symbol
_atom_site_label
_atom_site_fract_x
_atom_site_fract_y
_atom_site_fract_z
Si Si1 0.316461 0.250000 0.147644
Si Si2 0.317043 0.331129 0.351600
Si Si3 0.317630 0.477983 0.347169
Si Si4 0.181786 0.936417 0.347641
Si Si5 0.681205 0.094696 0.476540
O O1 0.500000 0.250000 0.146694
O O2 0.250000 0.250000 0.250000
O O3 0.251699 0.290659 0.101377
O O4 0.500000 0.327557 0.343172
O O5 0.250000 0.338969 0.250000
O O6 0.265259 0.367228 0.417382
O O7 0.500000 0.482700 0.337906
O O8 0.250000 0.463318 0.250000
O O9 0.247828 0.520408 0.376864
O O10 0.270838 0.445378 0.422628
O O11 0.250000 0.922053 0.250000
O O12 0.229909 0.904618 0.425972
O O13 0.000000 0.939183 0.338063
O O14 0.500000 0.095998 0.496068
#
# Coordination Sequence:
#
# PCOD8297699 Si02
#       5
#     8  16  16  16  16
#     4  10  18  30  48  70  99 132 163 192 228 280
#     4  10  19  32  50  73 102 132 161 194 234 282
#     4  10  19  32  49  69  97 129 161 199 241 286
#     4  11  22  35  51  68  91 125 165 206 245 287
#     4  10  21  34  49  71  98 127 160 201 244 284
#
# _framework density 17.194818999999999
#
# number of rings (size 3 to 8) (size 9 to 14) (size 15 to 20)
#    0.000    1.778    0.000    8.333    0.000    6.222 
#    0.000    0.000    0.000    0.000    0.000    0.778 
#    0.000    0.000    0.000    0.000    0.000    0.000 
#
# Total GULP energy -446433.389486 kJ/mol
# GULP energy per Si atom -12400.927486 kJ/mol
# Density = 1.715568 g / cm^3
# Si number density = 17.194819 Si / 1000 Ang^3
#
#
#
# Elastic Constant Matrix: (Units=GPa)
#
#
# Indices 1 2 3 4 5 6 
#
# 1 104.2188 50.5884 47.1308 0.0001 0.0001 0.0001
# 2 50.5884 101.6465 70.0882 -0.0013 0.0000 0.0000
# 3 47.1308 70.0882 108.7865 -0.0025 -0.0001 0.0000
# 4 0.0001 -0.0013 -0.0025 20.1601 -0.0001 0.0000
# 5 0.0001 0.0000 -0.0001 -0.0001 28.8964 -0.0002
# 6 0.0001 0.0000 0.0000 0.0000 -0.0002 25.8866
#
#
#
# Elastic Compliance Matrix: (Units=1/GPa)
#
#
# Indices 1 2 3 4 5 6 
#
# 1 0.013062 -0.004676 -0.002646 -0.000001 0.000000 0.000000
# 2 -0.004676 0.019376 -0.010458 0.000000 0.000000 0.000000
# 3 -0.002646 -0.010458 0.017076 0.000001 0.000000 0.000000
# 4 -0.000001 0.000000 0.000001 0.049603 0.000000 0.000000
# 5 0.000000 0.000000 0.000000 0.000000 0.034606 0.000000
# 6 0.000000 0.000000 0.000000 0.000000 0.000000 0.038630
#
#
# Mechanical properties :
#
#
# Convention : Reuss Voigt Hill
#
# Bulk Modulus (GPa) = 71.66234 72.25185 71.95709
# Shear Modulus (GPa) = 23.52225 24.77822 24.15023
#
# Velocity S-wave (km/s) = 3.70264 3.80021 3.75174
# Velocity P-wave (km/s) = 7.74897 7.83366 7.79143
#
# Compressibility (1/GPa) = 0.01395433
#
# Stress axis : x y z
#
# Youngs Moduli (GPa) = 76.55997 51.61012 58.56054
#
# Poissons Ratio (x) = 0.24133 0.15497
# Poissons Ratio (y) = 0.35799 0.61240
# Poissons Ratio (z) = 0.20260 0.53972
#
# Static dielectric constant tensor:
#      x y z
#    x 3.276420 0.000000 0.000000 
#    y 0.000000 3.560010 0.000000 
#    z 0.000000 0.000000 3.135190 
# 
# 
# High freq. dielectric constant tensor:
#      x y z
#    x 1.678990 0.000000 0.000000 
#    y 0.000000 1.651540 0.000000 
#    z 0.000000 0.000000 1.645640 
# 
# From -- ./inp_files/29432.got.cif
#   From: 2010.03.12/outbox.cif.g09.slc.cpg/sg74_15_cif.got.tgz:29432.got - 2010.04.16 15:46:19.
