data_PCOD8297851
_publ_section_title
;
Structure prediction by ZEFSAII (Michael W. Deem and Ramdas Pophale) SiO2 
 PCOD8297851
Probable space group: I M M A
;
_chemical_formula_sum "Si O2"
_cell_formula_units_Z 64
_cell_length_a 8.614408
_cell_length_b 40.799987
_cell_length_c 9.797722
_cell_angle_alpha 90.000000
_cell_angle_beta 90.000000
_cell_angle_gamma 90.000000
_cell_volume 3443.583154
_symmetry_space_group_name_H-M "I M M A"
_symmetry_group_IT_number 74
_symmetry_cell_setting 'orthorhombic'
loop_
_space_group_symop_operation_xyz
x,y,z
-x,1/2-y,z
x,-y,-z
-x,1/2+y,-z
-x,-y,-z
x,1/2+y,-z
-x,y,z
x,1/2-y,z
1/2+x,1/2+y,1/2+z
1/2-x,-y,1/2+z
1/2+x,1/2-y,1/2-z
1/2-x,y,1/2-z
1/2-x,1/2-y,1/2-z
1/2+x,y,1/2-z
1/2-x,1/2+y,1/2+z
1/2+x,-y,1/2+z
loop_
_atom_site_type_symbol
_atom_site_label
_atom_site_fract_x
_atom_site_fract_y
_atom_site_fract_z
Si Si1 0.816072 0.404168 0.598430
Si Si2 0.679807 0.788316 0.894201
Si Si3 0.183152 0.470844 0.900214
Si Si4 0.682712 0.162018 0.599981
O O1 0.750000 0.403755 0.750000
O O2 0.752029 0.437615 0.531063
O O3 0.752746 0.370897 0.528126
O O4 0.000000 0.404277 0.596562
O O5 0.500000 0.798136 0.898569
O O6 0.704938 0.750000 0.919854
O O7 0.750000 0.799132 0.750000
O O8 0.772950 0.806668 0.011592
O O9 0.250000 0.477674 0.750000
O O10 0.000000 0.467323 0.887681
O O11 0.233393 0.500000 0.000000
O O12 0.500000 0.158258 0.610591
O O13 0.750000 0.167459 0.750000
#
# Coordination Sequence:
#
# PCOD8297851 Si02
#       4
#    16  16  16  16
#     4  10  18  31  52  76 104 137 174 214 262 315
#     4  10  21  38  58  80 108 142 178 215 261 317
#     4  10  20  34  53  77 105 137 174 214 259 311
#     4  11  21  35  56  81 109 139 177 222 266 312
#
# _framework density 18.585291999999999
#
# number of rings (size 3 to 8) (size 9 to 14) (size 15 to 20)
#    0.000    1.750    0.000    9.000    0.000    4.000 
#    0.000    1.250    0.000    3.000    0.000    0.000 
#    0.000    0.000    0.000    0.000    0.000    0.000 
#
# Total GULP energy -396775.587654 kJ/mol
# GULP energy per Si atom -12399.237114 kJ/mol
# Density = 1.854299 g / cm^3
# Si number density = 18.585292 Si / 1000 Ang^3
#
#
#
# Elastic Constant Matrix: (Units=GPa)
#
#
# Indices 1 2 3 4 5 6 
#
# 1 137.8097 55.0666 40.6188 0.0016 -0.0001 0.0001
# 2 55.0666 112.3510 58.7097 0.0043 0.0001 -0.0004
# 3 40.6188 58.7097 75.9589 0.0014 0.0005 -0.0006
# 4 0.0016 0.0043 0.0014 29.8790 -0.0001 -0.0004
# 5 -0.0001 0.0001 0.0005 -0.0001 28.3307 0.0003
# 6 0.0001 -0.0004 -0.0006 -0.0004 0.0003 30.3074
#
#
#
# Elastic Compliance Matrix: (Units=1/GPa)
#
#
# Indices 1 2 3 4 5 6 
#
# 1 0.009283 -0.003281 -0.002428 0.000000 0.000000 0.000000
# 2 -0.003281 0.016091 -0.010682 -0.000002 0.000000 0.000000
# 3 -0.002428 -0.010682 0.022720 0.000001 0.000000 0.000000
# 4 0.000000 -0.000002 0.000001 0.033468 0.000000 0.000000
# 5 0.000000 0.000000 0.000000 0.000000 0.035297 0.000000
# 6 0.000000 0.000000 0.000000 0.000000 0.000000 0.032995
#
#
# Mechanical properties :
#
#
# Convention : Reuss Voigt Hill
#
# Bulk Modulus (GPa) = 65.31291 70.54552 67.92922
# Shear Modulus (GPa) = 26.63232 29.15174 27.89203
#
# Velocity S-wave (km/s) = 3.78958 3.96477 3.87816
# Velocity P-wave (km/s) = 7.37336 7.68110 7.52880
#
# Compressibility (1/GPa) = 0.01531091
#
# Stress axis : x y z
#
# Youngs Moduli (GPa) = 107.72214 62.14660 44.01414
#
# Poissons Ratio (x) = 0.20391 0.10687
# Poissons Ratio (y) = 0.35345 0.47018
# Poissons Ratio (z) = 0.26156 0.66387
#
# Static dielectric constant tensor:
#      x y z
#    x 3.576430 0.000000 0.000000 
#    y 0.000000 4.184170 0.000000 
#    z 0.000000 0.000000 3.120260 
# 
# 
# High freq. dielectric constant tensor:
#      x y z
#    x 1.745570 0.000000 0.000000 
#    y 0.000000 1.741670 0.000000 
#    z 0.000000 0.000000 1.683340 
# 
# From -- ./inp_files/17582.got.cif
#   From: 2010.03.12/outbox.cif.g09.slc.cpg/sg74_9_cif.got.tgz:17582.got - 2010.04.16 15:46:19.
