data_PCOD8297341
_publ_section_title
;
Structure prediction by ZEFSAII (Michael W. Deem and Ramdas Pophale) SiO2 
 PCOD8297341
Probable space group: I M M A
;
_chemical_formula_sum "Si O2"
_cell_formula_units_Z 88
_cell_length_a 9.773497
_cell_length_b 22.697869
_cell_length_c 20.950788
_cell_angle_alpha 90.000000
_cell_angle_beta 90.000000
_cell_angle_gamma 90.000000
_cell_volume 4647.671576
_symmetry_space_group_name_H-M "I M M A"
_symmetry_group_IT_number 74
_symmetry_cell_setting 'orthorhombic'
loop_
_space_group_symop_operation_xyz
x,y,z
-x,1/2-y,z
x,-y,-z
-x,1/2+y,-z
-x,-y,-z
x,1/2+y,-z
-x,y,z
x,1/2-y,z
1/2+x,1/2+y,1/2+z
1/2-x,-y,1/2+z
1/2+x,1/2-y,1/2-z
1/2-x,y,1/2-z
1/2-x,1/2-y,1/2-z
1/2+x,y,1/2-z
1/2-x,1/2+y,1/2+z
1/2+x,-y,1/2+z
loop_
_atom_site_type_symbol
_atom_site_label
_atom_site_fract_x
_atom_site_fract_y
_atom_site_fract_z
Si Si1 0.750000 0.901726 0.750000
Si Si2 0.836568 0.601808 0.186418
Si Si3 0.660873 0.184199 0.572627
Si Si4 0.649536 0.684458 0.849028
Si Si5 0.336999 0.124569 0.444872
Si Si6 0.653962 0.479017 0.361654
O O1 0.649088 0.860841 0.790408
O O2 0.659484 0.942033 0.703588
O O3 0.750000 0.612174 0.250000
O O4 0.801190 0.656640 0.140806
O O5 0.778654 0.542893 0.150839
O O6 0.000000 0.597451 0.201294
O O7 0.500000 0.190237 0.565617
O O8 0.726296 0.250000 0.567074
O O9 0.711117 0.139677 0.516710
O O10 0.500000 0.678610 0.882000
O O11 0.671648 0.750000 0.821862
O O12 0.768775 0.673087 0.899779
O O13 0.500000 0.128748 0.435912
O O14 0.283969 0.059490 0.420994
O O15 0.500000 0.492902 0.380778
#
# Coordination Sequence:
#
# PCOD8297341 Si02
#       6
#     8  16  16  16  16  16
#     4  10  17  30  46  66  95 138 172 206 246 306
#     4  10  20  35  54  78 105 134 170 212 260 307
#     4   9  18  33  54  78 104 134 170 214 259 306
#     4  10  20  31  45  70 103 136 171 213 256 297
#     4   9  18  33  53  75  99 133 173 208 253 307
#     4   9  17  29  48  74  99 128 167 210 250 296
#
# _framework density 18.934211000000001
#
# number of rings (size 3 to 8) (size 9 to 14) (size 15 to 20)
#    0.000    2.545    0.909    1.364    0.000    2.909 
#    0.000    4.545    0.000    1.091    0.000    3.818 
#    0.000    0.000    0.000    0.000    0.000    0.000 
#
# Total GULP energy -545126.139728 kJ/mol
# GULP energy per Si atom -12389.230448 kJ/mol
# Density = 1.889112 g / cm^3
# Si number density = 18.934211 Si / 1000 Ang^3
#
#
#
# Elastic Constant Matrix: (Units=GPa)
#
#
# Indices 1 2 3 4 5 6 
#
# 1 39.5434 14.4767 22.3943 0.0000 0.0000 0.0000
# 2 14.4767 100.1805 68.5871 0.0000 0.0000 0.0000
# 3 22.3943 68.5871 125.0559 0.0000 0.0000 0.0000
# 4 0.0000 0.0000 0.0000 20.6250 0.0000 0.0000
# 5 0.0000 0.0000 0.0000 0.0000 24.4609 0.0000
# 6 0.0000 0.0000 0.0000 0.0000 0.0000 13.0028
#
#
#
# Elastic Compliance Matrix: (Units=1/GPa)
#
#
# Indices 1 2 3 4 5 6 
#
# 1 0.028204 -0.000989 -0.004508 0.000000 0.000000 0.000000
# 2 -0.000989 0.016018 -0.008608 0.000000 0.000000 0.000000
# 3 -0.004508 -0.008608 0.013525 0.000000 0.000000 0.000000
# 4 0.000000 0.000000 0.000000 0.048485 0.000000 0.000000
# 5 0.000000 0.000000 0.000000 0.000000 0.040882 0.000000
# 6 0.000000 0.000000 0.000000 0.000000 0.000000 0.076906
#
#
# Mechanical properties :
#
#
# Convention : Reuss Voigt Hill
#
# Bulk Modulus (GPa) = 33.85677 52.85510 43.35594
# Shear Modulus (GPa) = 19.07843 22.23920 20.65881
#
# Velocity S-wave (km/s) = 3.17774 3.43089 3.30674
# Velocity P-wave (km/s) = 5.60216 6.60836 6.12595
#
# Compressibility (1/GPa) = 0.02953619
#
# Stress axis : x y z
#
# Youngs Moduli (GPa) = 35.45615 62.42822 73.93802
#
# Poissons Ratio (x) = 0.06176 0.33331
# Poissons Ratio (y) = 0.03508 0.63647
# Poissons Ratio (z) = 0.15984 0.53739
#
# Static dielectric constant tensor:
#      x y z
#    x 3.105060 0.000000 0.000000 
#    y 0.000000 3.757530 0.000000 
#    z 0.000000 0.000000 3.462640 
# 
# 
# High freq. dielectric constant tensor:
#      x y z
#    x 1.691410 0.000000 0.000000 
#    y 0.000000 1.747250 0.000000 
#    z 0.000000 0.000000 1.727080 
# 
# From -- ./inp_files/48717.got.cif
#   From: 2010.03.12/outbox.cif.g09.slc.cpg/sg74_25_cif.got.tgz:48717.got - 2010.04.16 15:46:19.
