data_PCOD8297019
_publ_section_title
;
Structure prediction by ZEFSAII (Michael W. Deem and Ramdas Pophale) SiO2 
 PCOD8297019
Probable space group: I B C A 
;
_chemical_formula_sum "Si O2"
_cell_formula_units_Z 64
_cell_length_a 12.628705
_cell_length_b 20.395226
_cell_length_c 9.426950
_cell_angle_alpha 90.000000
_cell_angle_beta 90.000000
_cell_angle_gamma 90.000000
_cell_volume 2428.055135
_symmetry_space_group_name_H-M "I B C A "
_symmetry_group_IT_number 73
_symmetry_cell_setting 'orthorhombic'
loop_
_space_group_symop_operation_xyz
x,y,z
-x,1/2-y,z
x,-y,1/2-z
1/2-x,y,-z
-x,-y,-z
x,1/2+y,-z
-x,y,1/2+z
1/2+x,-y,z
1/2+x,1/2+y,1/2+z
1/2-x,-y,1/2+z
1/2+x,1/2-y,-z
-x,1/2+y,1/2-z
1/2-x,1/2-y,1/2-z
1/2+x,y,1/2-z
1/2-x,1/2+y,z
x,1/2-y,1/2+z
loop_
_atom_site_type_symbol
_atom_site_label
_atom_site_fract_x
_atom_site_fract_y
_atom_site_fract_z
Si Si1 0.169136 0.338343 0.712605
Si Si2 0.339737 0.042160 0.607347
Si Si3 0.502456 0.874338 0.515521
Si Si4 0.399484 0.802698 0.266019
O O1 0.187847 0.382281 0.851765
O O2 0.110950 0.383876 0.594115
O O3 0.283819 0.313448 0.662935
O O4 0.090181 0.275559 0.736003
O O5 0.250000 0.014256 0.500000
O O6 0.453452 0.052938 0.528213
O O7 0.347412 0.000000 0.750000
O O8 0.486380 0.829350 0.377099
O O9 0.588864 0.841104 0.618520
#
# Coordination Sequence:
#
# PCOD8297019 Si02
#       4
#    16  16  16  16
#     4  11  26  47  78 119 166 206 260 328 401 479
#     4  12  29  54  80 112 159 214 276 332 399 482
#     4  12  25  47  77 121 160 210 266 324 398 482
#     4  11  26  44  81 123 167 206 256 328 413 480
#
# _framework density 26.358544999999999
#
# number of rings (size 3 to 8) (size 9 to 14) (size 15 to 20)
#    0.000    0.500    5.000    1.500    7.000    3.000 
#    0.000    2.500    0.000    0.000    0.000    0.000 
#    0.000    0.000    0.000    0.000    0.000    0.000 
#
# Total GULP energy -396673.858792 kJ/mol
# GULP energy per Si atom -12396.058087 kJ/mol
# Density = 2.629855 g / cm^3
# Si number density = 26.358545 Si / 1000 Ang^3
#
#
#
# Elastic Constant Matrix: (Units=GPa)
#
#
# Indices 1 2 3 4 5 6 
#
# 1 133.8183 57.0371 78.7189 -0.0002 -0.0001 0.0000
# 2 57.0371 83.1769 64.3266 0.0003 0.0001 0.0000
# 3 78.7189 64.3266 178.9678 -0.0027 0.0007 0.0002
# 4 -0.0002 0.0003 -0.0027 41.0735 0.0004 0.0002
# 5 -0.0001 0.0001 0.0007 0.0004 51.2684 0.0000
# 6 0.0000 0.0000 0.0002 0.0002 0.0000 30.3464
#
#
#
# Elastic Compliance Matrix: (Units=1/GPa)
#
#
# Indices 1 2 3 4 5 6 
#
# 1 0.011704 -0.005602 -0.003135 0.000000 0.000000 0.000000
# 2 -0.005602 0.019332 -0.004485 0.000000 0.000000 0.000000
# 3 -0.003135 -0.004485 0.008578 0.000001 0.000000 0.000000
# 4 0.000000 0.000000 0.000001 0.024347 0.000000 0.000000
# 5 0.000000 0.000000 0.000000 0.000000 0.019505 0.000000
# 6 0.000000 0.000000 0.000000 0.000000 0.000000 0.032953
#
#
# Mechanical properties :
#
#
# Convention : Reuss Voigt Hill
#
# Bulk Modulus (GPa) = 75.91506 88.45867 82.18687
# Shear Modulus (GPa) = 33.95518 37.59636 35.77577
#
# Velocity S-wave (km/s) = 3.59305 3.78079 3.68812
# Velocity P-wave (km/s) = 6.78799 7.25891 7.02740
#
# Compressibility (1/GPa) = 0.01317262
#
# Stress axis : x y z
#
# Youngs Moduli (GPa) = 85.43729 51.72714 116.57275
#
# Poissons Ratio (x) = 0.28977 0.36543
# Poissons Ratio (y) = 0.47860 0.52279
# Poissons Ratio (z) = 0.26782 0.23198
#
# Static dielectric constant tensor:
#      x y z
#    x 4.938500 0.000000 0.000000 
#    y 0.000000 4.665620 0.000000 
#    z 0.000000 0.000000 4.666930 
# 
# 
# High freq. dielectric constant tensor:
#      x y z
#    x 2.085450 0.000000 0.000000 
#    y 0.000000 2.042470 0.000000 
#    z 0.000000 0.000000 2.060510 
# 
# From -- ./inp_files/4663.got.cif
#   From: 2010.03.12/outbox.cif.g09.slc.cpg/sg73_3_cif.got.tgz:4663.got - 2010.04.16 15:25:48.
