data_PCOD8297575
_publ_section_title
;
Structure prediction by ZEFSAII (Michael W. Deem and Ramdas Pophale) SiO2 
 PCOD8297575
Probable space group: I M M A
;
_chemical_formula_sum "Si O2"
_cell_formula_units_Z 128
_cell_length_a 22.738201
_cell_length_b 28.519196
_cell_length_c 12.842172
_cell_angle_alpha 90.000000
_cell_angle_beta 90.000000
_cell_angle_gamma 90.000000
_cell_volume 8327.830197
_symmetry_space_group_name_H-M "I M M A"
_symmetry_group_IT_number 74
_symmetry_cell_setting 'orthorhombic'
loop_
_space_group_symop_operation_xyz
x,y,z
-x,1/2-y,z
x,-y,-z
-x,1/2+y,-z
-x,-y,-z
x,1/2+y,-z
-x,y,z
x,1/2-y,z
1/2+x,1/2+y,1/2+z
1/2-x,-y,1/2+z
1/2+x,1/2-y,1/2-z
1/2-x,y,1/2-z
1/2-x,1/2-y,1/2-z
1/2+x,y,1/2-z
1/2-x,1/2+y,1/2+z
1/2+x,-y,1/2+z
loop_
_atom_site_type_symbol
_atom_site_label
_atom_site_fract_x
_atom_site_fract_y
_atom_site_fract_z
Si Si1 0.566992 0.305069 0.378363
Si Si2 0.932056 0.356077 0.729311
Si Si3 0.740341 0.195864 0.863709
Si Si4 0.619692 0.694237 0.041180
Si Si5 0.431027 0.449223 0.105353
Si Si6 0.369291 0.695529 0.416114
Si Si7 0.569442 0.651174 0.834649
Si Si8 0.430265 0.449398 0.872637
O O1 0.500000 0.320558 0.395381
O O2 0.573621 0.250000 0.366361
O O3 0.602839 0.323618 0.477453
O O4 0.592449 0.327598 0.273362
O O5 0.926902 0.324966 0.624983
O O6 0.892731 0.334577 0.820205
O O7 0.907319 0.408776 0.705251
O O8 0.000000 0.356110 0.764649
O O9 0.725283 0.250000 0.844515
O O10 0.750000 0.172107 0.750000
O O11 0.684560 0.175027 0.925754
O O12 0.799506 0.188934 0.930133
O O13 0.615842 0.750000 0.037271
O O14 0.605021 0.674863 0.927542
O O15 0.500000 0.455217 0.090885
O O16 0.415444 0.404094 0.174127
O O17 0.408951 0.497840 0.159944
O O18 0.405072 0.441271 0.989351
O O19 0.385748 0.750000 0.395733
O O20 0.500000 0.660311 0.851771
O O21 0.500000 0.444137 0.872300
#
# Coordination Sequence:
#
# PCOD8297575 Si02
#       8
#    16  16  16  16  16  16  16  16
#     4   9  18  31  45  63  91 126 157 181 210 259
#     4  11  19  26  41  68  97 116 140 182 228 277
#     4   9  17  31  45  59  85 121 152 185 221 257
#     4  11  20  28  41  65  95 119 145 183 230 270
#     4   8  13  24  41  59  87 121 144 169 214 271
#     4  10  19  32  47  61  85 123 162 188 214 260
#     4  10  18  29  45  66  93 121 149 184 226 273
#     4   8  14  24  38  61  92 117 138 172 218 269
#
# _framework density 15.370150000000001
#
# number of rings (size 3 to 8) (size 9 to 14) (size 15 to 20)
#    0.000    2.500    2.500    2.250    0.000    2.750 
#    0.000    0.625    0.000    3.750    0.000    4.375 
#   11.250    0.000    0.000    0.000    0.000    0.000 
#
# Total GULP energy -793149.327318 kJ/mol
# GULP energy per Si atom -12392.958239 kJ/mol
# Density = 1.533517 g / cm^3
# Si number density = 15.370150 Si / 1000 Ang^3
#
#
#
# Elastic Constant Matrix: (Units=GPa)
#
#
# Indices 1 2 3 4 5 6 
#
# 1 47.4218 22.2903 28.4040 0.0000 0.0000 0.0000
# 2 22.2903 72.6517 39.4039 0.0000 0.0000 0.0000
# 3 28.4040 39.4039 103.2794 0.0000 0.0000 0.0000
# 4 0.0000 0.0000 0.0000 18.3827 0.0000 0.0000
# 5 0.0000 0.0000 0.0000 0.0000 19.4975 0.0000
# 6 0.0000 0.0000 0.0000 0.0000 0.0000 7.4486
#
#
#
# Elastic Compliance Matrix: (Units=1/GPa)
#
#
# Indices 1 2 3 4 5 6 
#
# 1 0.026786 -0.005325 -0.005335 0.000000 0.000000 0.000000
# 2 -0.005325 0.018414 -0.005561 0.000000 0.000000 0.000000
# 3 -0.005335 -0.005561 0.013271 0.000000 0.000000 0.000000
# 4 0.000000 0.000000 0.000000 0.054399 0.000000 0.000000
# 5 0.000000 0.000000 0.000000 0.000000 0.051289 0.000000
# 6 0.000000 0.000000 0.000000 0.000000 0.000000 0.134254
#
#
# Mechanical properties :
#
#
# Convention : Reuss Voigt Hill
#
# Bulk Modulus (GPa) = 38.41775 44.83880 41.62828
# Shear Modulus (GPa) = 14.72619 17.94940 16.33779
#
# Velocity S-wave (km/s) = 3.09868 3.42103 3.26384
# Velocity P-wave (km/s) = 6.15238 6.69631 6.43010
#
# Compressibility (1/GPa) = 0.02602963
#
# Stress axis : x y z
#
# Youngs Moduli (GPa) = 37.33338 54.30626 75.34962
#
# Poissons Ratio (x) = 0.28915 0.40200
# Poissons Ratio (y) = 0.19878 0.41903
# Poissons Ratio (z) = 0.19918 0.30200
#
# Static dielectric constant tensor:
#      x y z
#    x 2.774180 0.000000 0.000000 
#    y 0.000000 3.105960 0.000000 
#    z 0.000000 0.000000 2.921980 
# 
# 
# High freq. dielectric constant tensor:
#      x y z
#    x 1.558020 0.000000 0.000000 
#    y 0.000000 1.579280 0.000000 
#    z 0.000000 0.000000 1.578400 
# 
# From -- ./inp_files/25669.got.cif
#   From: 2010.03.12/outbox.cif.g09.slc.cpg/sg74_13_cif.got.tgz:25669.got - 2010.04.16 15:46:19.
