data_PCOD8297878
_publ_section_title
;
Structure prediction by ZEFSAII (Michael W. Deem and Ramdas Pophale) SiO2 
 PCOD8297878
Probable space group: I M M A
;
_chemical_formula_sum "Si O2"
_cell_formula_units_Z 72
_cell_length_a 14.777744
_cell_length_b 13.583238
_cell_length_c 18.814727
_cell_angle_alpha 90.000000
_cell_angle_beta 90.000000
_cell_angle_gamma 90.000000
_cell_volume 3776.672885
_symmetry_space_group_name_H-M "I M M A"
_symmetry_group_IT_number 74
_symmetry_cell_setting 'orthorhombic'
loop_
_space_group_symop_operation_xyz
x,y,z
-x,1/2-y,z
x,-y,-z
-x,1/2+y,-z
-x,-y,-z
x,1/2+y,-z
-x,y,z
x,1/2-y,z
1/2+x,1/2+y,1/2+z
1/2-x,-y,1/2+z
1/2+x,1/2-y,1/2-z
1/2-x,y,1/2-z
1/2-x,1/2-y,1/2-z
1/2+x,y,1/2-z
1/2-x,1/2+y,1/2+z
1/2+x,-y,1/2+z
loop_
_atom_site_type_symbol
_atom_site_label
_atom_site_fract_x
_atom_site_fract_y
_atom_site_fract_z
Si Si1 0.301881 0.363154 0.179629
Si Si2 0.000000 0.429027 0.291735
Si Si3 0.823188 0.026185 0.080962
Si Si4 0.500000 0.868925 0.630665
Si Si5 0.000000 0.354819 0.722499
Si Si6 0.680928 0.140721 0.692052
O O1 0.277574 0.250000 0.171659
O O2 0.250000 0.404172 0.250000
O O3 0.409858 0.376281 0.181011
O O4 0.264145 0.416711 0.110143
O O5 0.000000 0.422408 0.206636
O O6 0.000000 0.542519 0.321053
O O7 0.911711 0.094727 0.088640
O O8 0.829252 0.923543 0.122030
O O9 0.806367 0.000000 0.000000
O O10 0.500000 0.750000 0.638324
O O11 0.084484 0.354427 0.773198
O O12 0.000000 0.250000 0.677651
O O13 0.715063 0.250000 0.669855
O O14 0.750000 0.094294 0.750000
#
# Coordination Sequence:
#
# PCOD8297878 Si02
#       6
#    16   8  16   8   8  16
#     4  11  22  38  63  91 122 163 212 260 308 364
#     4  12  20  37  65  94 125 155 206 269 315 356
#     4  12  24  39  58  87 128 166 197 251 314 376
#     4  12  23  38  62  93 126 162 206 254 315 377
#     4  10  18  31  55  83 114 147 185 241 295 353
#     4  10  20  36  57  80 108 150 201 246 291 352
#
# _framework density 19.064399000000002
#
# number of rings (size 3 to 8) (size 9 to 14) (size 15 to 20)
#    0.000    0.889    4.444    4.000    0.000    1.778 
#    0.000    1.667    0.000    0.000    0.000    3.111 
#    0.000    0.000    0.000    0.000    0.000    0.000 
#
# Total GULP energy -446271.391667 kJ/mol
# GULP energy per Si atom -12396.427546 kJ/mol
# Density = 1.902101 g / cm^3
# Si number density = 19.064399 Si / 1000 Ang^3
#
#
#
# Elastic Constant Matrix: (Units=GPa)
#
#
# Indices 1 2 3 4 5 6 
#
# 1 142.2439 15.9177 45.5535 0.0000 0.0000 0.0000
# 2 15.9177 106.5314 20.1866 0.0000 0.0000 0.0000
# 3 45.5535 20.1866 74.4211 0.0000 0.0000 0.0000
# 4 0.0000 0.0000 0.0000 16.6472 0.0000 0.0000
# 5 0.0000 0.0000 0.0000 0.0000 70.2854 0.0000
# 6 0.0000 0.0000 0.0000 0.0000 0.0000 33.7275
#
#
#
# Elastic Compliance Matrix: (Units=1/GPa)
#
#
# Indices 1 2 3 4 5 6 
#
# 1 0.008754 -0.000309 -0.005275 0.000000 0.000000 0.000000
# 2 -0.000309 0.009906 -0.002498 0.000000 0.000000 0.000000
# 3 -0.005275 -0.002498 0.017343 0.000000 0.000000 0.000000
# 4 0.000000 0.000000 0.000000 0.060070 0.000000 0.000000
# 5 0.000000 0.000000 0.000000 0.000000 0.014228 0.000000
# 6 0.000000 0.000000 0.000000 0.000000 0.000000 0.029649
#
#
# Mechanical properties :
#
#
# Convention : Reuss Voigt Hill
#
# Bulk Modulus (GPa) = 50.40111 54.05692 52.22902
# Shear Modulus (GPa) = 30.72626 40.23458 35.48042
#
# Velocity S-wave (km/s) = 4.01896 4.59895 4.31871
# Velocity P-wave (km/s) = 6.93042 7.52442 7.23352
#
# Compressibility (1/GPa) = 0.01984083
#
# Stress axis : x y z
#
# Youngs Moduli (GPa) = 114.23490 100.94494 57.65913
#
# Poissons Ratio (x) = 0.03114 0.30413
# Poissons Ratio (y) = 0.03524 0.14405
# Poissons Ratio (z) = 0.60255 0.25219
#
# Static dielectric constant tensor:
#      x y z
#    x 3.816800 0.000000 0.000000 
#    y 0.000000 4.217260 0.000000 
#    z 0.000000 0.000000 3.064890 
# 
# 
# High freq. dielectric constant tensor:
#      x y z
#    x 1.758460 0.000000 0.000000 
#    y 0.000000 1.772520 0.000000 
#    z 0.000000 0.000000 1.685030 
# 
# From -- ./inp_files/42555.got.cif
#   From: 2010.03.12/outbox.cif.g09.slc.cpg/sg74_22_cif.got.tgz:42555.got - 2010.04.16 15:46:19.
