data_PCOD8297675
_publ_section_title
;
Structure prediction by ZEFSAII (Michael W. Deem and Ramdas Pophale) SiO2 
 PCOD8297675
Probable space group: I M M A
;
_chemical_formula_sum "Si O2"
_cell_formula_units_Z 40
_cell_length_a 9.143121
_cell_length_b 18.773512
_cell_length_c 13.572978
_cell_angle_alpha 90.000000
_cell_angle_beta 90.000000
_cell_angle_gamma 90.000000
_cell_volume 2329.781203
_symmetry_space_group_name_H-M "I M M A"
_symmetry_group_IT_number 74
_symmetry_cell_setting 'orthorhombic'
loop_
_space_group_symop_operation_xyz
x,y,z
-x,1/2-y,z
x,-y,-z
-x,1/2+y,-z
-x,-y,-z
x,1/2+y,-z
-x,y,z
x,1/2-y,z
1/2+x,1/2+y,1/2+z
1/2-x,-y,1/2+z
1/2+x,1/2-y,1/2-z
1/2-x,y,1/2-z
1/2-x,1/2-y,1/2-z
1/2+x,y,1/2-z
1/2-x,1/2+y,1/2+z
1/2+x,-y,1/2+z
loop_
_atom_site_type_symbol
_atom_site_label
_atom_site_fract_x
_atom_site_fract_y
_atom_site_fract_z
Si Si1 0.827014 0.105359 0.548395
Si Si2 0.326899 0.036802 0.150260
Si Si3 0.174708 0.250000 0.645177
O O1 0.776144 0.090894 0.436221
O O2 0.767760 0.181183 0.585505
O O3 0.000000 0.104072 0.550245
O O4 0.772069 0.042501 0.620708
O O5 0.500000 0.038937 0.165579
O O6 0.250000 0.061728 0.250000
O O7 0.250000 0.250000 0.750000
O O8 0.000000 0.250000 0.657815
#
# Coordination Sequence:
#
# PCOD8297675 Si02
#       3
#    16  16   8
#     4   8  16  29  45  63  87 115 142 169 210 261
#     4   9  16  29  46  64  85 113 144 175 208 249
#     4  10  18  30  47  66  86 112 141 174 213 254
#
# _framework density 17.168994000000001
#
# number of rings (size 3 to 8) (size 9 to 14) (size 15 to 20)
#    0.000    3.200    0.000    3.600    0.000    0.000 
#    0.000    7.000    0.000    0.000    0.000    0.000 
#    0.000    0.000    0.000    0.000    0.000    0.000 
#
# Total GULP energy -247890.501296 kJ/mol
# GULP energy per Si atom -12394.525065 kJ/mol
# Density = 1.712992 g / cm^3
# Si number density = 17.168994 Si / 1000 Ang^3
#
#
#
# Elastic Constant Matrix: (Units=GPa)
#
#
# Indices 1 2 3 4 5 6 
#
# 1 24.4863 21.7144 34.5134 0.0000 0.0000 0.0000
# 2 21.7144 141.4872 81.3504 -0.0001 0.0000 0.0000
# 3 34.5134 81.3504 167.7201 -0.0003 0.0000 0.0000
# 4 0.0000 -0.0001 -0.0003 24.9991 0.0000 0.0000
# 5 0.0000 0.0000 0.0000 0.0000 33.7833 0.0000
# 6 0.0000 0.0000 0.0000 0.0000 0.0000 12.3459
#
#
#
# Elastic Compliance Matrix: (Units=1/GPa)
#
#
# Indices 1 2 3 4 5 6 
#
# 1 0.058338 -0.002844 -0.010625 0.000000 0.000000 0.000000
# 2 -0.002844 0.009940 -0.004236 0.000000 0.000000 0.000000
# 3 -0.010625 -0.004236 0.010203 0.000000 0.000000 0.000000
# 4 0.000000 0.000000 0.000000 0.040001 0.000000 0.000000
# 5 0.000000 0.000000 0.000000 0.000000 0.029600 0.000000
# 6 0.000000 0.000000 0.000000 0.000000 0.000000 0.080999
#
#
# Mechanical properties :
#
#
# Convention : Reuss Voigt Hill
#
# Bulk Modulus (GPa) = 23.21786 67.64998 45.43392
# Shear Modulus (GPa) = 17.93089 27.30002 22.61545
#
# Velocity S-wave (km/s) = 3.23519 3.99190 3.63330
# Velocity P-wave (km/s) = 5.24478 7.79327 6.64239
#
# Compressibility (1/GPa) = 0.04307029
#
# Stress axis : x y z
#
# Youngs Moduli (GPa) = 17.14162 100.60603 98.00728
#
# Poissons Ratio (x) = 0.28613 1.04135
# Poissons Ratio (y) = 0.04875 0.41515
# Poissons Ratio (z) = 0.18213 0.42616
#
# Static dielectric constant tensor:
#      x y z
#    x 2.738990 0.000000 0.000000 
#    y 0.000000 3.729980 0.000000 
#    z 0.000000 0.000000 3.339730 
# 
# 
# High freq. dielectric constant tensor:
#      x y z
#    x 1.619200 0.000000 0.000000 
#    y 0.000000 1.657540 0.000000 
#    z 0.000000 0.000000 1.672300 
# 
# From -- ./inp_files/6545.got.cif
#   From: 2010.03.12/outbox.cif.g09.slc.cpg/sg74_4_cif.got.tgz:6545.got - 2010.04.16 15:46:19.
