data_PCOD8297625
_publ_section_title
;
Structure prediction by ZEFSAII (Michael W. Deem and Ramdas Pophale) SiO2 
 PCOD8297625
Probable space group: I M M A
;
_chemical_formula_sum "Si O2"
_cell_formula_units_Z 80
_cell_length_a 27.946460
_cell_length_b 17.708369
_cell_length_c 8.360316
_cell_angle_alpha 90.000000
_cell_angle_beta 90.000000
_cell_angle_gamma 90.000000
_cell_volume 4137.405233
_symmetry_space_group_name_H-M "I M M A"
_symmetry_group_IT_number 74
_symmetry_cell_setting 'orthorhombic'
loop_
_space_group_symop_operation_xyz
x,y,z
-x,1/2-y,z
x,-y,-z
-x,1/2+y,-z
-x,-y,-z
x,1/2+y,-z
-x,y,z
x,1/2-y,z
1/2+x,1/2+y,1/2+z
1/2-x,-y,1/2+z
1/2+x,1/2-y,1/2-z
1/2-x,y,1/2-z
1/2-x,1/2-y,1/2-z
1/2+x,y,1/2-z
1/2-x,1/2+y,1/2+z
1/2+x,-y,1/2+z
loop_
_atom_site_type_symbol
_atom_site_label
_atom_site_fract_x
_atom_site_fract_y
_atom_site_fract_z
Si Si1 0.138493 0.601642 0.662510
Si Si2 0.239245 0.918889 0.566377
Si Si3 0.330647 0.164607 0.489752
Si Si4 0.893304 0.456793 0.843058
Si Si5 0.447740 0.585587 0.052289
O O1 0.183612 0.603224 0.540200
O O2 0.147860 0.657847 0.810067
O O3 0.133768 0.516335 0.729053
O O4 0.091639 0.626920 0.560794
O O5 0.250000 0.924846 0.750000
O O6 0.274248 0.854703 0.496278
O O7 0.253266 0.000000 0.500000
O O8 0.338449 0.250000 0.547687
O O9 0.356651 0.107736 0.608101
O O10 0.934370 0.414686 0.740923
O O11 0.914502 0.500000 0.000000
O O12 0.500000 0.625043 0.032290
O O13 0.451773 0.500000 0.000000
#
# Coordination Sequence:
#
# PCOD8297625 Si02
#       5
#    16  16  16  16  16
#     4   9  18  32  53  75 100 132 165 202 246 295
#     4  10  18  29  50  74  99 132 165 198 240 295
#     4  10  20  33  49  72 102 134 168 205 243 287
#     4   9  17  32  52  76 102 131 163 199 248 300
#     4   9  17  31  54  80 100 122 162 213 253 288
#
# _framework density 19.335791
#
# number of rings (size 3 to 8) (size 9 to 14) (size 15 to 20)
#    0.000    2.600    0.000    4.800    0.000    4.000 
#    0.000    4.000    0.000   17.400    0.000    0.000 
#    0.000    0.000    0.000    0.000    0.000    0.000 
#
# Total GULP energy -495704.044890 kJ/mol
# GULP energy per Si atom -12392.601122 kJ/mol
# Density = 1.929178 g / cm^3
# Si number density = 19.335791 Si / 1000 Ang^3
#
#
#
# Elastic Constant Matrix: (Units=GPa)
#
#
# Indices 1 2 3 4 5 6 
#
# 1 161.7178 26.5894 57.4201 0.0000 0.0000 0.0000
# 2 26.5894 69.7774 19.4520 0.0000 0.0000 0.0000
# 3 57.4201 19.4520 75.2904 0.0000 0.0000 0.0000
# 4 0.0000 0.0000 0.0000 10.3004 0.0000 0.0000
# 5 0.0000 0.0000 0.0000 0.0000 22.5741 0.0000
# 6 0.0000 0.0000 0.0000 0.0000 0.0000 1.7541
#
#
#
# Elastic Compliance Matrix: (Units=1/GPa)
#
#
# Indices 1 2 3 4 5 6 
#
# 1 0.008636 -0.001568 -0.006181 0.000000 0.000000 0.000000
# 2 -0.001568 0.015728 -0.002868 0.000000 0.000000 0.000000
# 3 -0.006181 -0.002868 0.018737 0.000000 0.000000 0.000000
# 4 0.000000 0.000000 0.000000 0.097084 0.000000 0.000000
# 5 0.000000 0.000000 0.000000 0.000000 0.044299 0.000000
# 6 0.000000 0.000000 0.000000 0.000000 0.000000 0.570103
#
#
# Mechanical properties :
#
#
# Convention : Reuss Voigt Hill
#
# Bulk Modulus (GPa) = 45.73000 57.07873 51.40436
# Shear Modulus (GPa) = 6.38480 20.48065 13.43273
#
# Velocity S-wave (km/s) = 1.81913 3.25808 2.63859
# Velocity P-wave (km/s) = 5.30227 6.61342 5.99380
#
# Compressibility (1/GPa) = 0.02186748
#
# Stress axis : x y z
#
# Youngs Moduli (GPa) = 115.79259 63.58018 53.37023
#
# Poissons Ratio (x) = 0.09968 0.32990
# Poissons Ratio (y) = 0.18153 0.15306
# Poissons Ratio (z) = 0.71575 0.18234
#
# Static dielectric constant tensor:
#      x y z
#    x 4.540120 0.000000 0.000000 
#    y 0.000000 3.051910 0.000000 
#    z 0.000000 0.000000 3.672970 
# 
# 
# High freq. dielectric constant tensor:
#      x y z
#    x 1.750750 0.000000 0.000000 
#    y 0.000000 1.706260 0.000000 
#    z 0.000000 0.000000 1.752670 
# 
# From -- ./inp_files/11132.got.cif
#   From: 2010.03.12/outbox.cif.g09.slc.cpg/sg74_6_cif.got.tgz:11132.got - 2010.04.16 15:46:19.
