data_PCOD8297240
_publ_section_title
;
Structure prediction by ZEFSAII (Michael W. Deem and Ramdas Pophale) SiO2 
 PCOD8297240
Probable space group: I M M A
;
_chemical_formula_sum "Si O2"
_cell_formula_units_Z 72
_cell_length_a 10.233106
_cell_length_b 19.925823
_cell_length_c 21.982435
_cell_angle_alpha 90.000000
_cell_angle_beta 90.000000
_cell_angle_gamma 90.000000
_cell_volume 4482.285738
_symmetry_space_group_name_H-M "I M M A"
_symmetry_group_IT_number 74
_symmetry_cell_setting 'orthorhombic'
loop_
_space_group_symop_operation_xyz
x,y,z
-x,1/2-y,z
x,-y,-z
-x,1/2+y,-z
-x,-y,-z
x,1/2+y,-z
-x,y,z
x,1/2-y,z
1/2+x,1/2+y,1/2+z
1/2-x,-y,1/2+z
1/2+x,1/2-y,1/2-z
1/2-x,y,1/2-z
1/2-x,1/2-y,1/2-z
1/2+x,y,1/2-z
1/2-x,1/2+y,1/2+z
1/2+x,-y,1/2+z
loop_
_atom_site_type_symbol
_atom_site_label
_atom_site_fract_x
_atom_site_fract_y
_atom_site_fract_z
Si Si1 0.000000 0.056920 0.409433
Si Si2 0.755926 0.172192 0.531138
Si Si3 0.000000 0.400061 0.949125
Si Si4 0.000000 0.043778 0.084532
Si Si5 0.500000 0.411799 0.948666
Si Si6 0.841570 0.750000 0.808608
Si Si7 0.260163 0.628191 0.607412
O O1 0.124068 0.091389 0.377086
O O2 0.000000 0.068051 0.481162
O O3 0.000000 0.975842 0.403089
O O4 0.776234 0.250000 0.544638
O O5 0.624284 0.146555 0.562664
O O6 0.872123 0.132237 0.563776
O O7 0.748300 0.160734 0.459073
O O8 0.000000 0.463892 0.904429
O O9 0.000000 0.432586 0.015299
O O10 0.869670 0.071687 0.115035
O O11 0.750000 0.750000 0.750000
O O12 0.798152 0.814898 0.845520
O O13 0.000000 0.750000 0.796122
#
# Coordination Sequence:
#
# PCOD8297240 Si02
#       7
#     8  16   8   8   8   8  16
#     4   9  18  29  46  65  86 115 156 198 231 267
#     4  10  17  26  42  64  92 126 158 188 229 271
#     4   9  17  24  41  64  88 110 155 199 226 266
#     4   9  16  29  44  63  82 115 150 198 239 271
#     4   9  17  28  39  64  94 118 153 197 222 264
#     4  12  26  40  52  70  92 116 160 212 258 294
#     4  10  19  32  50  62  85 119 159 197 241 281
#
# _framework density 16.063233
#
# number of rings (size 3 to 8) (size 9 to 14) (size 15 to 20)
#    0.000    2.222    2.222    2.000    1.556    5.333 
#    0.000    0.000    0.000    0.000    0.000    0.000 
#    0.000    0.000    0.000    0.000    0.000   77.778 
#
# Total GULP energy -446214.696408 kJ/mol
# GULP energy per Si atom -12394.852678 kJ/mol
# Density = 1.602667 g / cm^3
# Si number density = 16.063233 Si / 1000 Ang^3
#
#
#
# Elastic Constant Matrix: (Units=GPa)
#
#
# Indices 1 2 3 4 5 6 
#
# 1 177.8225 81.2104 27.0633 0.0000 0.0000 0.0000
# 2 81.2104 147.1837 27.3304 0.0000 0.0000 0.0000
# 3 27.0633 27.3304 29.2984 0.0000 0.0000 0.0000
# 4 0.0000 0.0000 0.0000 7.4157 0.0000 0.0000
# 5 0.0000 0.0000 0.0000 0.0000 11.6377 0.0000
# 6 0.0000 0.0000 0.0000 0.0000 0.0000 31.4273
#
#
#
# Elastic Compliance Matrix: (Units=1/GPa)
#
#
# Indices 1 2 3 4 5 6 
#
# 1 0.007869 -0.003619 -0.003893 0.000000 0.000000 0.000000
# 2 -0.003619 0.009882 -0.005875 0.000000 0.000000 0.000000
# 3 -0.003893 -0.005875 0.043208 0.000000 0.000000 0.000000
# 4 0.000000 0.000000 0.000000 0.134849 0.000000 0.000000
# 5 0.000000 0.000000 0.000000 0.000000 0.085928 0.000000
# 6 0.000000 0.000000 0.000000 0.000000 0.000000 0.031819
#
#
# Mechanical properties :
#
#
# Convention : Reuss Voigt Hill
#
# Bulk Modulus (GPa) = 29.25272 69.50144 49.37708
# Shear Modulus (GPa) = 14.21568 24.67617 19.44592
#
# Velocity S-wave (km/s) = 2.97809 3.92368 3.48312
# Velocity P-wave (km/s) = 5.48415 7.99302 6.85435
#
# Compressibility (1/GPa) = 0.03418486
#
# Stress axis : x y z
#
# Youngs Moduli (GPa) = 127.08538 101.19439 23.14383
#
# Poissons Ratio (x) = 0.36621 0.09009
# Poissons Ratio (y) = 0.45990 0.13598
# Poissons Ratio (z) = 0.49470 0.59456
#
# Static dielectric constant tensor:
#      x y z
#    x 3.388760 0.000000 0.000000 
#    y 0.000000 3.242390 0.000000 
#    z 0.000000 0.000000 2.469860 
# 
# 
# High freq. dielectric constant tensor:
#      x y z
#    x 1.643580 0.000000 0.000000 
#    y 0.000000 1.634250 0.000000 
#    z 0.000000 0.000000 1.529740 
# 
# From -- ./inp_files/56847.got.cif
#   From: 2010.03.12/outbox.cif.g09.slc.cpg/sg74_29_cif.got.tgz:56847.got - 2010.04.16 15:46:19.
