data_PCOD8297591
_publ_section_title
;
Structure prediction by ZEFSAII (Michael W. Deem and Ramdas Pophale) SiO2 
 PCOD8297591
Probable space group: I M M A
;
_chemical_formula_sum "Si O2"
_cell_formula_units_Z 72
_cell_length_a 9.541658
_cell_length_b 27.393603
_cell_length_c 14.593119
_cell_angle_alpha 90.000000
_cell_angle_beta 90.000000
_cell_angle_gamma 90.000000
_cell_volume 3814.355153
_symmetry_space_group_name_H-M "I M M A"
_symmetry_group_IT_number 74
_symmetry_cell_setting 'orthorhombic'
loop_
_space_group_symop_operation_xyz
x,y,z
-x,1/2-y,z
x,-y,-z
-x,1/2+y,-z
-x,-y,-z
x,1/2+y,-z
-x,y,z
x,1/2-y,z
1/2+x,1/2+y,1/2+z
1/2-x,-y,1/2+z
1/2+x,1/2-y,1/2-z
1/2-x,y,1/2-z
1/2-x,1/2-y,1/2-z
1/2+x,y,1/2-z
1/2-x,1/2+y,1/2+z
1/2+x,-y,1/2+z
loop_
_atom_site_type_symbol
_atom_site_label
_atom_site_fract_x
_atom_site_fract_y
_atom_site_fract_z
Si Si1 0.169240 0.750000 0.653121
Si Si2 0.842611 0.917359 0.669284
Si Si3 0.832400 0.876739 0.339628
Si Si4 0.336788 0.161086 0.029633
Si Si5 0.160744 0.019395 0.593338
O O1 0.250000 0.750000 0.750000
O O2 0.224854 0.795924 0.592898
O O3 0.000000 0.750000 0.669292
O O4 0.750000 0.895254 0.750000
O O5 0.799971 0.891652 0.573854
O O6 0.000000 0.902507 0.694204
O O7 0.825130 0.975633 0.665790
O O8 0.750000 0.858276 0.250000
O O9 0.785821 0.841152 0.423742
O O10 0.775569 0.931343 0.363839
O O11 0.000000 0.875766 0.322352
O O12 0.500000 0.170438 0.025949
O O13 0.000000 0.031890 0.568637
O O14 0.235369 0.000000 0.500000
#
# Coordination Sequence:
#
# PCOD8297591 Si02
#       5
#     8  16  16  16  16
#     4  10  20  36  57  80 102 128 161 200 247 298
#     4  10  18  29  47  71  96 126 161 198 240 288
#     4  10  19  33  52  73  98 132 170 206 243 287
#     4   9  18  33  53  73  97 130 166 198 239 299
#     4   9  15  27  48  69  93 129 169 200 233 285
#
# _framework density 18.876062000000001
#
# number of rings (size 3 to 8) (size 9 to 14) (size 15 to 20)
#    0.000    2.444    2.222    1.333    0.000    0.000 
#    0.000    2.778    0.000    1.333    0.000    0.000 
#    0.000    0.000    0.000    0.000    0.000    0.000 
#
# Total GULP energy -446029.926339 kJ/mol
# GULP energy per Si atom -12389.720176 kJ/mol
# Density = 1.883310 g / cm^3
# Si number density = 18.876062 Si / 1000 Ang^3
#
#
#
# Elastic Constant Matrix: (Units=GPa)
#
#
# Indices 1 2 3 4 5 6 
#
# 1 38.7336 18.1320 50.9633 0.0000 0.0000 0.0000
# 2 18.1320 87.9316 48.1779 0.0002 0.0000 0.0000
# 3 50.9633 48.1779 169.7396 0.0004 0.0000 0.0000
# 4 0.0000 0.0002 0.0004 27.1262 0.0000 0.0000
# 5 0.0000 0.0000 0.0000 0.0000 31.9400 0.0001
# 6 0.0000 0.0000 0.0000 0.0000 0.0001 10.6534
#
#
#
# Elastic Compliance Matrix: (Units=1/GPa)
#
#
# Indices 1 2 3 4 5 6 
#
# 1 0.043009 -0.002124 -0.012310 0.000000 0.000000 0.000000
# 2 -0.002124 0.013572 -0.003214 0.000000 0.000000 0.000000
# 3 -0.012310 -0.003214 0.010500 0.000000 0.000000 0.000000
# 4 0.000000 0.000000 0.000000 0.036865 0.000000 0.000000
# 5 0.000000 0.000000 0.000000 0.000000 0.031309 0.000000
# 6 0.000000 0.000000 0.000000 0.000000 0.000000 0.093867
#
#
# Mechanical properties :
#
#
# Convention : Reuss Voigt Hill
#
# Bulk Modulus (GPa) = 31.46331 58.99459 45.22895
# Shear Modulus (GPa) = 18.18104 25.88603 22.03354
#
# Velocity S-wave (km/s) = 3.10688 3.70722 3.42025
# Velocity P-wave (km/s) = 5.43827 7.04600 6.29368
#
# Compressibility (1/GPa) = 0.03178305
#
# Stress axis : x y z
#
# Youngs Moduli (GPa) = 23.25114 73.68327 95.23975
#
# Poissons Ratio (x) = 0.15649 1.17243
# Poissons Ratio (y) = 0.04938 0.30614
# Poissons Ratio (z) = 0.28623 0.23685
#
# Static dielectric constant tensor:
#      x y z
#    x 2.939990 0.000000 0.000000 
#    y 0.000000 3.532570 0.000000 
#    z 0.000000 0.000000 3.574120 
# 
# 
# High freq. dielectric constant tensor:
#      x y z
#    x 1.670450 0.000000 0.000000 
#    y 0.000000 1.727150 0.000000 
#    z 0.000000 0.000000 1.744510 
# 
# From -- ./inp_files/18791.got.cif
#   From: 2010.03.12/outbox.cif.g09.slc.cpg/sg74_10_cif.got.tgz:18791.got - 2010.04.16 15:46:19.
