data_PCOD8297462
_publ_section_title
;
Structure prediction by ZEFSAII (Michael W. Deem and Ramdas Pophale) SiO2 
 PCOD8297462
Probable space group: I M M A
;
_chemical_formula_sum "Si O2"
_cell_formula_units_Z 88
_cell_length_a 34.370964
_cell_length_b 9.225299
_cell_length_c 22.430816
_cell_angle_alpha 90.000000
_cell_angle_beta 90.000000
_cell_angle_gamma 90.000000
_cell_volume 7112.417416
_symmetry_space_group_name_H-M "I M M A"
_symmetry_group_IT_number 74
_symmetry_cell_setting 'orthorhombic'
loop_
_space_group_symop_operation_xyz
x,y,z
-x,1/2-y,z
x,-y,-z
-x,1/2+y,-z
-x,-y,-z
x,1/2+y,-z
-x,y,z
x,1/2-y,z
1/2+x,1/2+y,1/2+z
1/2-x,-y,1/2+z
1/2+x,1/2-y,1/2-z
1/2-x,y,1/2-z
1/2-x,1/2-y,1/2-z
1/2+x,y,1/2-z
1/2-x,1/2+y,1/2+z
1/2+x,-y,1/2+z
loop_
_atom_site_type_symbol
_atom_site_label
_atom_site_fract_x
_atom_site_fract_y
_atom_site_fract_z
Si Si1 0.500000 0.086413 0.059357
Si Si2 0.226378 0.915860 0.438819
Si Si3 0.415451 0.579525 0.936532
Si Si4 0.148369 0.916378 0.363491
Si Si5 0.266104 0.587564 0.656680
Si Si6 0.687976 0.912886 0.767658
O O1 0.500000 0.250000 0.037671
O O2 0.541120 0.054785 0.092483
O O3 0.500000 0.000000 0.000000
O O4 0.236257 0.750000 0.452130
O O5 0.185526 0.933662 0.405665
O O6 0.223064 0.000000 0.500000
O O7 0.261717 0.979974 0.399229
O O8 0.406221 0.750000 0.945441
O O9 0.386168 0.511744 0.889608
O O10 0.411117 0.500000 0.000000
O O11 0.135306 0.750000 0.358135
O O12 0.157402 0.976370 0.297130
O O13 0.273987 0.750000 0.632815
O O14 0.301630 0.537798 0.699913
O O15 0.226949 0.586059 0.694270
O O16 0.670527 0.750000 0.767354
#
# Coordination Sequence:
#
# PCOD8297462 Si02
#       6
#     8  16  16  16  16  16
#     4   8  16  28  40  52  64  82 108 136 167 204
#     4  10  19  27  35  48  67  89 112 139 171 204
#     4  10  18  28  40  52  67  86 109 138 172 209
#     4  10  19  27  36  52  70  88 110 138 171 205
#     4   8  14  25  39  51  64  83 108 135 165 201
#     4   8  14  25  39  52  65  84 107 133 166 201
#
# _framework density 12.372726999999999
#
# number of rings (size 3 to 8) (size 9 to 14) (size 15 to 20)
#    0.000    2.909    0.000    3.273    0.000    5.091 
#    0.000    3.636    0.000    0.000    0.000    0.000 
#    0.000    0.000    0.000    0.000    0.000    0.000 
#
# Total GULP energy -545156.490526 kJ/mol
# GULP energy per Si atom -12389.920239 kJ/mol
# Density = 1.234457 g / cm^3
# Si number density = 12.372727 Si / 1000 Ang^3
#
#
#
# Elastic Constant Matrix: (Units=GPa)
#
#
# Indices 1 2 3 4 5 6 
#
# 1 53.4860 39.0267 27.0023 0.0000 0.0000 0.0000
# 2 39.0267 92.2702 36.8181 0.0000 0.0000 0.0000
# 3 27.0023 36.8181 33.8459 0.0000 0.0000 0.0000
# 4 0.0000 0.0000 0.0000 21.3728 0.0000 0.0000
# 5 0.0000 0.0000 0.0000 0.0000 11.6693 0.0000
# 6 0.0000 0.0000 0.0000 0.0000 0.0000 14.2048
#
#
#
# Elastic Compliance Matrix: (Units=1/GPa)
#
#
# Indices 1 2 3 4 5 6 
#
# 1 0.033158 -0.006129 -0.019785 0.000000 0.000000 0.000000
# 2 -0.006129 0.020283 -0.017174 0.000000 0.000000 0.000000
# 3 -0.019785 -0.017174 0.064013 0.000000 0.000000 0.000000
# 4 0.000000 0.000000 0.000000 0.046788 0.000000 0.000000
# 5 0.000000 0.000000 0.000000 0.000000 0.085695 0.000000
# 6 0.000000 0.000000 0.000000 0.000000 0.000000 0.070399
#
#
# Mechanical properties :
#
#
# Convention : Reuss Voigt Hill
#
# Bulk Modulus (GPa) = 31.97406 42.81073 37.39239
# Shear Modulus (GPa) = 11.99216 14.56639 13.27927
#
# Velocity S-wave (km/s) = 3.11664 3.43490 3.27963
# Velocity P-wave (km/s) = 6.23296 7.09982 6.68046
#
# Compressibility (1/GPa) = 0.03127535
#
# Stress axis : x y z
#
# Youngs Moduli (GPa) = 30.15904 49.30185 15.62185
#
# Poissons Ratio (x) = 0.30220 0.30908
# Poissons Ratio (y) = 0.18486 0.26829
# Poissons Ratio (z) = 0.59671 0.84672
#
# Static dielectric constant tensor:
#      x y z
#    x 2.701250 0.000000 0.000000 
#    y 0.000000 2.736050 0.000000 
#    z 0.000000 0.000000 2.499300 
# 
# 
# High freq. dielectric constant tensor:
#      x y z
#    x 1.434150 0.000000 0.000000 
#    y 0.000000 1.485760 0.000000 
#    z 0.000000 0.000000 1.441780 
# 
# From -- ./inp_files/49461.got.cif
#   From: 2010.03.12/outbox.cif.g09.slc.cpg/sg74_25_cif.got.tgz:49461.got - 2010.04.16 15:46:19.
