data_PCOD8297674
_publ_section_title
;
Structure prediction by ZEFSAII (Michael W. Deem and Ramdas Pophale) SiO2 
 PCOD8297674
Probable space group: I M M A
;
_chemical_formula_sum "Si O2"
_cell_formula_units_Z 56
_cell_length_a 10.404458
_cell_length_b 7.628158
_cell_length_c 36.210095
_cell_angle_alpha 90.000000
_cell_angle_beta 90.000000
_cell_angle_gamma 90.000000
_cell_volume 2873.881161
_symmetry_space_group_name_H-M "I M M A"
_symmetry_group_IT_number 74
_symmetry_cell_setting 'orthorhombic'
loop_
_space_group_symop_operation_xyz
x,y,z
-x,1/2-y,z
x,-y,-z
-x,1/2+y,-z
-x,-y,-z
x,1/2+y,-z
-x,y,z
x,1/2-y,z
1/2+x,1/2+y,1/2+z
1/2-x,-y,1/2+z
1/2+x,1/2-y,1/2-z
1/2-x,y,1/2-z
1/2-x,1/2-y,1/2-z
1/2+x,y,1/2-z
1/2-x,1/2+y,1/2+z
1/2+x,-y,1/2+z
loop_
_atom_site_type_symbol
_atom_site_label
_atom_site_fract_x
_atom_site_fract_y
_atom_site_fract_z
Si Si1 0.252026 0.457536 0.582100
Si Si2 0.500000 0.955775 0.457631
Si Si3 0.647940 0.449433 0.659788
Si Si4 0.000000 0.543740 0.456951
Si Si5 0.851203 0.750000 0.782794
O O1 0.252305 0.250000 0.577228
O O2 0.373432 0.540198 0.560719
O O3 0.261980 0.505500 0.625447
O O4 0.124095 0.538409 0.563586
O O5 0.500000 0.750000 0.450314
O O6 0.500000 0.000000 0.500000
O O7 0.500000 0.466862 0.646819
O O8 0.677442 0.250000 0.672313
O O9 0.677585 0.576144 0.693728
O O10 0.000000 0.500000 0.500000
O O11 0.000000 0.750000 0.451547
O O12 0.750000 0.750000 0.750000
O O13 0.000000 0.750000 0.768920
#
# Coordination Sequence:
#
# PCOD8297674 Si02
#       5
#    16   8  16   8   8
#     4   9  17  32  52  70 100 138 179 224 267 321
#     4  10  18  30  46  72 100 131 171 224 270 311
#     4   9  17  35  61  84 109 147 187 225 277 327
#     4  10  20  34  48  68 104 143 179 224 282 329
#     4  10  22  40  60  88 122 146 176 228 280 336
#
# _framework density 19.485845999999999
#
# number of rings (size 3 to 8) (size 9 to 14) (size 15 to 20)
#    0.000    2.571    1.429    0.857    0.000    0.571 
#    7.714    0.000    0.000    0.000    0.000    0.000 
#    0.000    0.000    0.000    0.000    0.000    0.000 
#
# Total GULP energy -347115.488332 kJ/mol
# GULP energy per Si atom -12396.981726 kJ/mol
# Density = 1.944150 g / cm^3
# Si number density = 19.485846 Si / 1000 Ang^3
#
#
#
# Elastic Constant Matrix: (Units=GPa)
#
#
# Indices 1 2 3 4 5 6 
#
# 1 169.6377 32.6003 100.0535 0.0000 0.0000 0.0000
# 2 32.6003 62.7402 47.3430 0.0000 0.0000 0.0000
# 3 100.0535 47.3430 157.8593 0.0000 0.0000 0.0000
# 4 0.0000 0.0000 0.0000 28.4351 0.0000 0.0000
# 5 0.0000 0.0000 0.0000 0.0000 45.9772 0.0000
# 6 0.0000 0.0000 0.0000 0.0000 0.0000 7.4527
#
#
#
# Elastic Compliance Matrix: (Units=1/GPa)
#
#
# Indices 1 2 3 4 5 6 
#
# 1 0.009427 -0.000504 -0.005824 0.000000 0.000000 0.000000
# 2 -0.000504 0.020628 -0.005867 0.000000 0.000000 0.000000
# 3 -0.005824 -0.005867 0.011785 0.000000 0.000000 0.000000
# 4 0.000000 0.000000 0.000000 0.035168 0.000000 0.000000
# 5 0.000000 0.000000 0.000000 0.000000 0.021750 0.000000
# 6 0.000000 0.000000 0.000000 0.000000 0.000000 0.134179
#
#
# Mechanical properties :
#
#
# Convention : Reuss Voigt Hill
#
# Bulk Modulus (GPa) = 57.30389 83.35897 70.33143
# Shear Modulus (GPa) = 19.00114 30.38903 24.69508
#
# Velocity S-wave (km/s) = 3.12609 3.95339 3.56383
# Velocity P-wave (km/s) = 6.51933 7.98193 7.28742
#
# Compressibility (1/GPa) = 0.01745082
#
# Stress axis : x y z
#
# Youngs Moduli (GPa) = 106.08374 48.47845 84.85054
#
# Poissons Ratio (x) = 0.02442 0.49414
# Poissons Ratio (y) = 0.05343 0.49783
# Poissons Ratio (z) = 0.61779 0.28443
#
# Static dielectric constant tensor:
#      x y z
#    x 3.870200 0.000000 0.000000 
#    y 0.000000 3.393890 0.000000 
#    z 0.000000 0.000000 3.348570 
# 
# 
# High freq. dielectric constant tensor:
#      x y z
#    x 1.754600 0.000000 0.000000 
#    y 0.000000 1.746340 0.000000 
#    z 0.000000 0.000000 1.748060 
# 
# From -- ./inp_files/71238.got.cif
#   From: 2010.03.12/outbox.cif.g09.slc.cpg/sg74_36_cif.got.tgz:71238.got - 2010.04.16 15:46:19.
