data_PCOD8297128
_publ_section_title
;
Structure prediction by ZEFSAII (Michael W. Deem and Ramdas Pophale) SiO2 
 PCOD8297128
Probable space group: I M M A
;
_chemical_formula_sum "Si O2"
_cell_formula_units_Z 128
_cell_length_a 19.621892
_cell_length_b 17.144358
_cell_length_c 27.236729
_cell_angle_alpha 90.000000
_cell_angle_beta 90.000000
_cell_angle_gamma 90.000000
_cell_volume 9162.564767
_symmetry_space_group_name_H-M "I M M A"
_symmetry_group_IT_number 74
_symmetry_cell_setting 'orthorhombic'
loop_
_space_group_symop_operation_xyz
x,y,z
-x,1/2-y,z
x,-y,-z
-x,1/2+y,-z
-x,-y,-z
x,1/2+y,-z
-x,y,z
x,1/2-y,z
1/2+x,1/2+y,1/2+z
1/2-x,-y,1/2+z
1/2+x,1/2-y,1/2-z
1/2-x,y,1/2-z
1/2-x,1/2-y,1/2-z
1/2+x,y,1/2-z
1/2-x,1/2+y,1/2+z
1/2+x,-y,1/2+z
loop_
_atom_site_type_symbol
_atom_site_label
_atom_site_fract_x
_atom_site_fract_y
_atom_site_fract_z
Si Si1 0.925494 0.157517 0.444362
Si Si2 0.422980 0.338375 0.538549
Si Si3 0.212875 0.840331 0.513370
Si Si4 0.426194 0.342258 0.165617
Si Si5 0.305578 0.552783 0.453850
Si Si6 0.718048 0.658197 0.801803
Si Si7 0.711550 0.093320 0.395673
Si Si8 0.924125 0.338718 0.076832
O O1 0.920801 0.250000 0.441827
O O2 0.864523 0.127946 0.479271
O O3 0.914978 0.124222 0.389349
O O4 0.000000 0.131349 0.464787
O O5 0.500000 0.364569 0.550773
O O6 0.410735 0.250000 0.556961
O O7 0.370313 0.396882 0.564860
O O8 0.408287 0.342880 0.480793
O O9 0.215473 0.750000 0.498262
O O10 0.244266 0.890039 0.469127
O O11 0.253805 0.850461 0.564170
O O12 0.500000 0.372758 0.186233
O O13 0.429460 0.250000 0.162580
O O14 0.361932 0.366887 0.199175
O O15 0.328621 0.500000 0.500000
O O16 0.278976 0.497686 0.409944
O O17 0.726801 0.750000 0.813177
O O18 0.750000 0.635194 0.750000
O O19 0.756562 0.608358 0.842809
O O20 0.630665 0.110627 0.393551
O O21 0.919260 0.250000 0.095154
O O22 0.000000 0.371543 0.087664
#
# Coordination Sequence:
#
# PCOD8297128 Si02
#       8
#    16  16  16  16  16  16  16  16
#     4   8  13  21  37  59  76  96 128 160 192 227
#     4   9  16  26  39  55  77 106 143 176 192 217
#     4  10  16  25  41  57  78 104 130 160 192 229
#     4   8  13  23  39  58  76  95 126 166 199 228
#     4  10  19  25  35  56  80 108 136 161 194 240
#     4  10  19  30  45  62  76  99 137 174 205 238
#     4  11  19  28  39  56  81 107 130 165 204 238
#     4   9  16  25  38  54  74 106 140 165 194 229
#
# _framework density 13.969887999999999
#
# number of rings (size 3 to 8) (size 9 to 14) (size 15 to 20)
#    0.000    2.625    3.750    3.000    0.000    0.750 
#    0.000    0.625    0.000    6.375    0.000    0.000 
#    0.000    2.000    0.000    0.000    0.000    5.750 
#
# Total GULP energy -793151.230280 kJ/mol
# GULP energy per Si atom -12392.987973 kJ/mol
# Density = 1.393809 g / cm^3
# Si number density = 13.969888 Si / 1000 Ang^3
#
#
#
# Elastic Constant Matrix: (Units=GPa)
#
#
# Indices 1 2 3 4 5 6 
#
# 1 124.2403 39.6588 39.6352 0.0000 0.0000 0.0000
# 2 39.6588 54.8573 28.8565 0.0000 0.0000 0.0000
# 3 39.6352 28.8565 53.3462 0.0000 0.0000 0.0000
# 4 0.0000 0.0000 0.0000 12.6864 0.0000 0.0000
# 5 0.0000 0.0000 0.0000 0.0000 14.2912 0.0000
# 6 0.0000 0.0000 0.0000 0.0000 0.0000 8.6765
#
#
#
# Elastic Compliance Matrix: (Units=1/GPa)
#
#
# Indices 1 2 3 4 5 6 
#
# 1 0.011583 -0.005377 -0.005697 0.000000 0.000000 0.000000
# 2 -0.005377 0.027975 -0.011138 0.000000 0.000000 0.000000
# 3 -0.005697 -0.011138 0.029003 0.000000 0.000000 0.000000
# 4 0.000000 0.000000 0.000000 0.078824 0.000000 0.000000
# 5 0.000000 0.000000 0.000000 0.000000 0.069973 0.000000
# 6 0.000000 0.000000 0.000000 0.000000 0.000000 0.115254
#
#
# Mechanical properties :
#
#
# Convention : Reuss Voigt Hill
#
# Bulk Modulus (GPa) = 41.42944 49.86053 45.64498
# Shear Modulus (GPa) = 12.98427 15.41705 14.20066
#
# Velocity S-wave (km/s) = 3.05199 3.32564 3.19175
# Velocity P-wave (km/s) = 6.49154 7.10742 6.80645
#
# Compressibility (1/GPa) = 0.02413743
#
# Stress axis : x y z
#
# Youngs Moduli (GPa) = 86.33490 35.74629 34.47899
#
# Poissons Ratio (x) = 0.19220 0.19644
# Poissons Ratio (y) = 0.46420 0.38401
# Poissons Ratio (z) = 0.49188 0.39813
#
# Static dielectric constant tensor:
#      x y z
#    x 3.207560 0.000000 0.000000 
#    y 0.000000 2.579030 0.000000 
#    z 0.000000 0.000000 2.317420 
# 
# 
# High freq. dielectric constant tensor:
#      x y z
#    x 1.557220 0.000000 0.000000 
#    y 0.000000 1.499530 0.000000 
#    z 0.000000 0.000000 1.468620 
# 
# From -- ./inp_files/61774.got.cif
#   From: 2010.03.12/outbox.cif.g09.slc.cpg/sg74_31_cif.got.tgz:61774.got - 2010.04.16 15:46:19.
