data_PCOD8297016
_publ_section_title
;
Structure prediction by ZEFSAII (Michael W. Deem and Ramdas Pophale) SiO2 
 PCOD8297016
Probable space group: I B C A 
;
_chemical_formula_sum "Si O2"
_cell_formula_units_Z 56
_cell_length_a 11.023773
_cell_length_b 11.824909
_cell_length_c 15.439590
_cell_angle_alpha 90.000000
_cell_angle_beta 90.000000
_cell_angle_gamma 90.000000
_cell_volume 2012.629492
_symmetry_space_group_name_H-M "I B C A "
_symmetry_group_IT_number 73
_symmetry_cell_setting 'orthorhombic'
loop_
_space_group_symop_operation_xyz
x,y,z
-x,1/2-y,z
x,-y,1/2-z
1/2-x,y,-z
-x,-y,-z
x,1/2+y,-z
-x,y,1/2+z
1/2+x,-y,z
1/2+x,1/2+y,1/2+z
1/2-x,-y,1/2+z
1/2+x,1/2-y,-z
-x,1/2+y,1/2-z
1/2-x,1/2-y,1/2-z
1/2+x,y,1/2-z
1/2-x,1/2+y,z
x,1/2-y,1/2+z
loop_
_atom_site_type_symbol
_atom_site_label
_atom_site_fract_x
_atom_site_fract_y
_atom_site_fract_z
Si Si1 0.599437 0.160311 0.683795
Si Si2 0.049174 0.023285 0.093909
Si Si3 0.845942 0.253211 0.631031
Si Si4 0.750000 0.088653 0.000000
O O1 0.500000 0.250000 0.655260
O O2 0.535266 0.039728 0.664285
O O3 0.718111 0.185673 0.626450
O O4 0.640394 0.171924 0.783023
O O5 0.049761 0.155392 0.124721
O O6 0.188409 0.980035 0.080639
O O7 0.000000 0.000000 0.000000
O O8 0.852630 0.336032 0.548116
#
# Coordination Sequence:
#
# PCOD8297016 Si02
#       4
#    16  16  16   8
#     4  11  25  53  75 114 163 207 265 337 414 488
#     4  12  27  48  82 119 157 219 273 332 422 488
#     4  11  27  50  78 115 160 210 272 340 407 497
#     4  12  24  50  78 118 164 206 280 346 402 508
#
# _framework density 27.824297000000001
#
# number of rings (size 3 to 8) (size 9 to 14) (size 15 to 20)
#    0.000    0.571    2.857    4.286    4.000    1.143 
#    5.143    0.000    0.000    0.000    0.000    0.000 
#    0.000    0.000    0.000    0.000    0.000    0.000 
#
# Total GULP energy -347172.702675 kJ/mol
# GULP energy per Si atom -12399.025096 kJ/mol
# Density = 2.776097 g / cm^3
# Si number density = 27.824297 Si / 1000 Ang^3
#
#
#
# Elastic Constant Matrix: (Units=GPa)
#
#
# Indices 1 2 3 4 5 6 
#
# 1 88.6331 16.8173 18.7429 0.0000 0.0000 0.0000
# 2 16.8173 179.4486 63.3413 0.0000 0.0000 0.0000
# 3 18.7429 63.3413 122.4887 0.0000 0.0000 0.0000
# 4 0.0000 0.0000 0.0000 47.5682 0.0000 0.0000
# 5 0.0000 0.0000 0.0000 0.0000 59.6237 0.0000
# 6 0.0000 0.0000 0.0000 0.0000 0.0000 41.6817
#
#
#
# Elastic Compliance Matrix: (Units=1/GPa)
#
#
# Indices 1 2 3 4 5 6 
#
# 1 0.011707 -0.000569 -0.001497 0.000000 0.000000 0.000000
# 2 -0.000569 0.006845 -0.003452 0.000000 0.000000 0.000000
# 3 -0.001497 -0.003452 0.010178 0.000000 0.000000 0.000000
# 4 0.000000 0.000000 0.000000 0.021022 0.000000 0.000000
# 5 0.000000 0.000000 0.000000 0.000000 0.016772 0.000000
# 6 0.000000 0.000000 0.000000 0.000000 0.000000 0.023991
#
#
# Mechanical properties :
#
#
# Convention : Reuss Voigt Hill
#
# Bulk Modulus (GPa) = 56.51881 65.37481 60.94681
# Shear Modulus (GPa) = 46.53321 49.21933 47.87627
#
# Velocity S-wave (km/s) = 4.09393 4.21043 4.15259
# Velocity P-wave (km/s) = 6.53482 6.86903 6.70401
#
# Compressibility (1/GPa) = 0.01769323
#
# Stress axis : x y z
#
# Youngs Moduli (GPa) = 85.41909 146.10170 98.24666
#
# Poissons Ratio (x) = 0.08308 0.14711
# Poissons Ratio (y) = 0.04857 0.33919
# Poissons Ratio (z) = 0.12790 0.50441
#
# Static dielectric constant tensor:
#      x y z
#    x 3.990210 0.000000 0.000000 
#    y 0.000000 4.844150 0.000000 
#    z 0.000000 0.000000 3.820150 
# 
# 
# High freq. dielectric constant tensor:
#      x y z
#    x 2.171960 0.000000 0.000000 
#    y 0.000000 2.132150 0.000000 
#    z 0.000000 0.000000 2.110730 
# 
# From -- ./inp_files/16535.got.cif
#   From: 2010.03.12/outbox.cif.g09.slc.cpg/sg73_9_cif.got.tgz:16535.got - 2010.04.16 15:25:48.
