data_PCOD8297639
_publ_section_title
;
Structure prediction by ZEFSAII (Michael W. Deem and Ramdas Pophale) SiO2 
 PCOD8297639
Probable space group: I M M A
;
_chemical_formula_sum "Si O2"
_cell_formula_units_Z 104
_cell_length_a 8.793627
_cell_length_b 36.266015
_cell_length_c 27.596788
_cell_angle_alpha 90.000000
_cell_angle_beta 90.000000
_cell_angle_gamma 90.000000
_cell_volume 8800.886381
_symmetry_space_group_name_H-M "I M M A"
_symmetry_group_IT_number 74
_symmetry_cell_setting 'orthorhombic'
loop_
_space_group_symop_operation_xyz
x,y,z
-x,1/2-y,z
x,-y,-z
-x,1/2+y,-z
-x,-y,-z
x,1/2+y,-z
-x,y,z
x,1/2-y,z
1/2+x,1/2+y,1/2+z
1/2-x,-y,1/2+z
1/2+x,1/2-y,1/2-z
1/2-x,y,1/2-z
1/2-x,1/2-y,1/2-z
1/2+x,y,1/2-z
1/2-x,1/2+y,1/2+z
1/2+x,-y,1/2+z
loop_
_atom_site_type_symbol
_atom_site_label
_atom_site_fract_x
_atom_site_fract_y
_atom_site_fract_z
Si Si1 0.177740 0.033282 0.302058
Si Si2 0.170774 0.926730 0.942181
Si Si3 0.328681 0.038791 0.972670
Si Si4 0.822429 0.391340 0.355525
Si Si5 0.829621 0.496069 0.887724
Si Si6 0.818221 0.250000 0.303501
Si Si7 0.319728 0.176001 0.302877
O O1 0.250000 0.028203 0.250000
O O2 0.242099 0.001668 0.337300
O O3 0.000000 0.027454 0.298070
O O4 0.218135 0.073686 0.322194
O O5 0.275825 0.899246 0.910989
O O6 0.000000 0.910833 0.945628
O O7 0.169840 0.966296 0.917346
O O8 0.239256 0.930589 0.996046
O O9 0.500000 0.052698 0.965544
O O10 0.252243 0.035185 0.919868
O O11 0.325624 0.000000 0.000000
O O12 0.720693 0.357831 0.337214
O O13 0.000000 0.381424 0.352937
O O14 0.000000 0.482819 0.876428
O O15 0.750000 0.250000 0.250000
O O16 0.753151 0.287325 0.327820
O O17 0.000000 0.250000 0.303703
O O18 0.500000 0.180415 0.298078
O O19 0.250000 0.168676 0.250000
#
# Coordination Sequence:
#
# PCOD8297639 Si02
#       7
#    16  16  16  16  16   8  16
#     4  10  19  28  37  48  64  84 106 131 159 192
#     4   9  16  25  36  50  66  83 102 125 153 185
#     4   9  15  23  35  49  64  81 101 125 152 182
#     4  10  19  29  39  52  68  86 106 128 157 193
#     4   9  16  25  36  48  62  80 103 128 154 185
#     4  10  18  30  44  56  68  82 102 128 156 186
#     4  11  20  30  42  55  69  85 105 129 157 190
#
# _framework density 11.816992000000001
#
# number of rings (size 3 to 8) (size 9 to 14) (size 15 to 20)
#    0.000    2.308    0.000    5.769    0.000    8.615 
#    0.000    0.000    0.000    0.000    0.000    0.000 
#    0.000    0.000    0.000    0.000    0.000    0.000 
#
# Total GULP energy -644714.798510 kJ/mol
# GULP energy per Si atom -12398.361510 kJ/mol
# Density = 1.179010 g / cm^3
# Si number density = 11.816992 Si / 1000 Ang^3
#
#
#
# Elastic Constant Matrix: (Units=GPa)
#
#
# Indices 1 2 3 4 5 6 
#
# 1 93.3711 24.2711 41.7071 0.0000 0.0000 0.0000
# 2 24.2711 32.2616 35.3096 0.0000 0.0000 0.0000
# 3 41.7071 35.3096 74.8035 0.0001 0.0000 0.0000
# 4 0.0000 0.0000 0.0001 9.4153 0.0000 0.0000
# 5 0.0000 0.0000 0.0000 0.0000 22.0652 0.0000
# 6 0.0000 0.0000 0.0000 0.0000 0.0000 16.0411
#
#
#
# Elastic Compliance Matrix: (Units=1/GPa)
#
#
# Indices 1 2 3 4 5 6 
#
# 1 0.014541 -0.004274 -0.006090 0.000000 0.000000 0.000000
# 2 -0.004274 0.065382 -0.028479 0.000000 0.000000 0.000000
# 3 -0.006090 -0.028479 0.030207 0.000000 0.000000 0.000000
# 4 0.000000 0.000000 0.000000 0.106210 0.000000 0.000000
# 5 0.000000 0.000000 0.000000 0.000000 0.045320 0.000000
# 6 0.000000 0.000000 0.000000 0.000000 0.000000 0.062340
#
#
# Mechanical properties :
#
#
# Convention : Reuss Voigt Hill
#
# Bulk Modulus (GPa) = 30.82300 44.77909 37.80105
# Shear Modulus (GPa) = 12.12115 16.11423 14.11769
#
# Velocity S-wave (km/s) = 3.20619 3.69677 3.46018
# Velocity P-wave (km/s) = 6.31241 7.49650 6.92979
#
# Compressibility (1/GPa) = 0.03244330
#
# Stress axis : x y z
#
# Youngs Moduli (GPa) = 68.76963 15.29464 33.10497
#
# Poissons Ratio (x) = 0.06538 0.20161
# Poissons Ratio (y) = 0.29395 0.94281
# Poissons Ratio (z) = 0.41880 0.43558
#
# Static dielectric constant tensor:
#      x y z
#    x 2.659890 0.000000 0.000000 
#    y 0.000000 2.338290 0.000000 
#    z 0.000000 0.000000 2.385210 
# 
# 
# High freq. dielectric constant tensor:
#      x y z
#    x 1.472350 0.000000 0.000000 
#    y 0.000000 1.397350 0.000000 
#    z 0.000000 0.000000 1.426010 
# 
# From -- ./inp_files/65238.got.cif
#   From: 2010.03.12/outbox.cif.g09.slc.cpg/sg74_33_cif.got.tgz:65238.got - 2010.04.16 15:46:19.
