data_PCOD8297734
_publ_section_title
;
Structure prediction by ZEFSAII (Michael W. Deem and Ramdas Pophale) SiO2 
 PCOD8297734
Probable space group: I M M A
;
_chemical_formula_sum "Si O2"
_cell_formula_units_Z 104
_cell_length_a 9.013765
_cell_length_b 24.196943
_cell_length_c 25.251431
_cell_angle_alpha 90.000000
_cell_angle_beta 90.000000
_cell_angle_gamma 90.000000
_cell_volume 5507.477447
_symmetry_space_group_name_H-M "I M M A"
_symmetry_group_IT_number 74
_symmetry_cell_setting 'orthorhombic'
loop_
_space_group_symop_operation_xyz
x,y,z
-x,1/2-y,z
x,-y,-z
-x,1/2+y,-z
-x,-y,-z
x,1/2+y,-z
-x,y,z
x,1/2-y,z
1/2+x,1/2+y,1/2+z
1/2-x,-y,1/2+z
1/2+x,1/2-y,1/2-z
1/2-x,y,1/2-z
1/2-x,1/2-y,1/2-z
1/2+x,y,1/2-z
1/2-x,1/2+y,1/2+z
1/2+x,-y,1/2+z
loop_
_atom_site_type_symbol
_atom_site_label
_atom_site_fract_x
_atom_site_fract_y
_atom_site_fract_z
Si Si1 0.675834 0.373007 0.589572
Si Si2 0.175873 0.750000 0.691860
Si Si3 0.675640 0.187991 0.484111
Si Si4 0.825471 0.813606 0.196313
Si Si5 0.334115 0.909444 0.592287
Si Si6 0.673515 0.513794 0.059316
Si Si7 0.165381 0.353111 0.197609
O O1 0.500000 0.378879 0.589143
O O2 0.728198 0.332796 0.542010
O O3 0.731439 0.348031 0.645464
O O4 0.743758 0.433186 0.581875
O O5 0.250000 0.750000 0.750000
O O6 0.243074 0.694824 0.666252
O O7 0.000000 0.750000 0.690404
O O8 0.500000 0.192207 0.481609
O O9 0.741974 0.250000 0.473803
O O10 0.729938 0.143599 0.440099
O O11 0.780300 0.750000 0.186908
O O12 0.750000 0.836537 0.250000
O O13 0.000000 0.820173 0.203246
O O14 0.500000 0.923800 0.570428
O O15 0.345773 0.900899 0.655010
O O16 0.221249 0.959888 0.591118
O O17 0.500000 0.524385 0.064784
O O18 0.723228 0.500000 0.000000
O O19 0.250000 0.374060 0.250000
O O20 0.000000 0.332779 0.214183
#
# Coordination Sequence:
#
# PCOD8297734 Si02
#       7
#    16   8  16  16  16  16  16
#     4  10  19  34  59  84 110 144 189 231 268 325
#     4  10  18  30  50  74 102 140 178 214 259 312
#     4   9  17  30  53  84 111 136 172 224 275 317
#     4   9  18  33  55  86 120 154 188 228 276 332
#     4  10  21  36  58  82 105 140 185 227 269 325
#     4  11  23  38  56  79 111 146 182 226 277 333
#     4  10  20  34  53  77 105 137 177 223 268 319
#
# _framework density 18.883419
#
# number of rings (size 3 to 8) (size 9 to 14) (size 15 to 20)
#    0.000    2.154    1.538    3.000    1.077    4.308 
#    0.000    0.769    0.000    2.308    0.000    0.000 
#    0.000    0.000    0.000    0.000    0.000    0.000 
#
# Total GULP energy -644489.347673 kJ/mol
# GULP energy per Si atom -12394.025917 kJ/mol
# Density = 1.884044 g / cm^3
# Si number density = 18.883419 Si / 1000 Ang^3
#
#
#
# Elastic Constant Matrix: (Units=GPa)
#
#
# Indices 1 2 3 4 5 6 
#
# 1 60.7110 24.2365 34.2271 0.0000 0.0000 0.0000
# 2 24.2365 120.4481 52.4281 0.0000 0.0000 0.0000
# 3 34.2271 52.4281 118.0721 0.0000 0.0000 0.0000
# 4 0.0000 0.0000 0.0000 29.4444 0.0000 0.0000
# 5 0.0000 0.0000 0.0000 0.0000 24.5564 0.0000
# 6 0.0000 0.0000 0.0000 0.0000 0.0000 18.7433
#
#
#
# Elastic Compliance Matrix: (Units=1/GPa)
#
#
# Indices 1 2 3 4 5 6 
#
# 1 0.020021 -0.001862 -0.004977 0.000000 0.000000 0.000000
# 2 -0.001862 0.010465 -0.004107 0.000000 0.000000 0.000000
# 3 -0.004977 -0.004107 0.011736 0.000000 0.000000 0.000000
# 4 0.000000 0.000000 0.000000 0.033962 0.000000 0.000000
# 5 0.000000 0.000000 0.000000 0.000000 0.040723 0.000000
# 6 0.000000 0.000000 0.000000 0.000000 0.000000 0.053352
#
#
# Mechanical properties :
#
#
# Convention : Reuss Voigt Hill
#
# Bulk Modulus (GPa) = 49.19017 57.89051 53.54034
# Shear Modulus (GPa) = 25.13493 27.10478 26.11986
#
# Velocity S-wave (km/s) = 3.65233 3.79274 3.72320
# Velocity P-wave (km/s) = 6.62510 7.06422 6.84818
#
# Compressibility (1/GPa) = 0.02032927
#
# Stress axis : x y z
#
# Youngs Moduli (GPa) = 49.94843 95.55968 85.21043
#
# Poissons Ratio (x) = 0.17796 0.42407
# Poissons Ratio (y) = 0.09302 0.34994
# Poissons Ratio (z) = 0.24858 0.39245
#
# Static dielectric constant tensor:
#      x y z
#    x 3.331650 0.000000 0.000000 
#    y 0.000000 3.603250 0.000000 
#    z 0.000000 0.000000 3.497840 
# 
# 
# High freq. dielectric constant tensor:
#      x y z
#    x 1.715810 0.000000 0.000000 
#    y 0.000000 1.727400 0.000000 
#    z 0.000000 0.000000 1.734090 
# 
# From -- ./inp_files/64809.got.cif
#   From: 2010.03.12/outbox.cif.g09.slc.cpg/sg74_33_cif.got.tgz:64809.got - 2010.04.16 15:46:19.
