data_PCOD8297049
_publ_section_title
;
Structure prediction by ZEFSAII (Michael W. Deem and Ramdas Pophale) SiO2 
 PCOD8297049
Probable space group: I B C A 
;
_chemical_formula_sum "Si O2"
_cell_formula_units_Z 80
_cell_length_a 8.233675
_cell_length_b 15.102222
_cell_length_c 28.140617
_cell_angle_alpha 90.000000
_cell_angle_beta 90.000000
_cell_angle_gamma 90.000000
_cell_volume 3499.195329
_symmetry_space_group_name_H-M "I B C A "
_symmetry_group_IT_number 73
_symmetry_cell_setting 'orthorhombic'
loop_
_space_group_symop_operation_xyz
x,y,z
-x,1/2-y,z
x,-y,1/2-z
1/2-x,y,-z
-x,-y,-z
x,1/2+y,-z
-x,y,1/2+z
1/2+x,-y,z
1/2+x,1/2+y,1/2+z
1/2-x,-y,1/2+z
1/2+x,1/2-y,-z
-x,1/2+y,1/2-z
1/2-x,1/2-y,1/2-z
1/2+x,y,1/2-z
1/2-x,1/2+y,z
x,1/2-y,1/2+z
loop_
_atom_site_type_symbol
_atom_site_label
_atom_site_fract_x
_atom_site_fract_y
_atom_site_fract_z
Si Si1 0.674268 0.572202 0.885017
Si Si2 0.188583 0.083802 0.718778
Si Si3 0.312551 0.774903 0.051708
Si Si4 0.125826 0.330377 0.705458
Si Si5 0.799257 0.883285 0.110073
O O1 0.723339 0.578040 0.830785
O O2 0.782673 0.640803 0.914728
O O3 0.701762 0.472237 0.903709
O O4 0.486776 0.594398 0.886834
O O5 0.257157 0.170096 0.747797
O O6 0.995194 0.085889 0.710620
O O7 0.233161 0.000000 0.750000
O O8 0.500000 0.750000 0.052072
O O9 0.215489 0.688425 0.068596
O O10 0.250000 0.801600 0.000000
O O11 0.236444 0.339182 0.658862
O O12 0.000000 0.250000 0.700327
#
# Coordination Sequence:
#
# PCOD8297049 Si02
#       5
#    16  16  16  16  16
#     4  12  26  46  75 105 150 196 244 301 368 436
#     4  12  24  41  65  98 142 192 243 297 358 433
#     4  12  27  51  79 111 146 186 243 309 372 440
#     4  12  25  41  65 100 142 192 246 299 361 432
#     4  12  25  46  72 108 145 195 245 302 367 438
#
# _framework density 22.862399
#
# number of rings (size 3 to 8) (size 9 to 14) (size 15 to 20)
#    0.000    0.000    2.000    9.600    0.000    2.400 
#    0.000    4.000    0.000    0.000    0.000    0.000 
#    0.000    0.000    0.000    0.000    0.000    0.000 
#
# Total GULP energy -496122.312583 kJ/mol
# GULP energy per Si atom -12403.057815 kJ/mol
# Density = 2.281036 g / cm^3
# Si number density = 22.862399 Si / 1000 Ang^3
#
#
#
# Elastic Constant Matrix: (Units=GPa)
#
#
# Indices 1 2 3 4 5 6 
#
# 1 91.8421 -21.4252 32.3610 0.0000 0.0000 0.0000
# 2 -21.4252 96.7367 56.4218 0.0000 0.0000 0.0000
# 3 32.3610 56.4218 123.2656 0.0000 0.0000 0.0000
# 4 0.0000 0.0000 0.0000 17.3533 0.0000 0.0000
# 5 0.0000 0.0000 0.0000 0.0000 25.9060 0.0000
# 6 0.0000 0.0000 0.0000 0.0000 0.0000 37.6356
#
#
#
# Elastic Compliance Matrix: (Units=1/GPa)
#
#
# Indices 1 2 3 4 5 6 
#
# 1 0.015425 0.007883 -0.007658 0.000000 0.000000 0.000000
# 2 0.007883 0.018131 -0.010368 0.000000 0.000000 0.000000
# 3 -0.007658 -0.010368 0.014869 0.000000 0.000000 0.000000
# 4 0.000000 0.000000 0.000000 0.057626 0.000000 0.000000
# 5 0.000000 0.000000 0.000000 0.000000 0.038601 0.000000
# 6 0.000000 0.000000 0.000000 0.000000 0.000000 0.026571
#
#
# Mechanical properties :
#
#
# Convention : Reuss Voigt Hill
#
# Bulk Modulus (GPa) = 35.53877 49.61775 42.57826
# Shear Modulus (GPa) = 24.88942 32.47809 28.68375
#
# Velocity S-wave (km/s) = 3.30307 3.77316 3.54591
# Velocity P-wave (km/s) = 5.48866 6.38218 5.95221
#
# Compressibility (1/GPa) = 0.02813828
#
# Stress axis : x y z
#
# Youngs Moduli (GPa) = 64.82784 55.15542 67.25479
#
# Poissons Ratio (x) = -0.43478 0.51503
# Poissons Ratio (y) = -0.51103 0.69732
# Poissons Ratio (z) = 0.49644 0.57187
#
# Static dielectric constant tensor:
#      x y z
#    x 4.621580 0.000000 0.000000 
#    y 0.000000 4.208900 0.000000 
#    z 0.000000 0.000000 5.256980 
# 
# 
# High freq. dielectric constant tensor:
#      x y z
#    x 1.929920 0.000000 0.000000 
#    y 0.000000 1.922600 0.000000 
#    z 0.000000 0.000000 1.894430 
# 
# From -- ./inp_files/31105.got.cif
#   From: 2010.03.12/outbox.cif.g09.slc.cpg/sg73_16_cif.got.tgz:31105.got - 2010.04.16 15:25:48.
