data_PCOD8297804
_publ_section_title
;
Structure prediction by ZEFSAII (Michael W. Deem and Ramdas Pophale) SiO2 
 PCOD8297804
Probable space group: I M M A
;
_chemical_formula_sum "Si O2"
_cell_formula_units_Z 96
_cell_length_a 19.714763
_cell_length_b 17.341177
_cell_length_c 16.553267
_cell_angle_alpha 90.000000
_cell_angle_beta 90.000000
_cell_angle_gamma 90.000000
_cell_volume 5659.184485
_symmetry_space_group_name_H-M "I M M A"
_symmetry_group_IT_number 74
_symmetry_cell_setting 'orthorhombic'
loop_
_space_group_symop_operation_xyz
x,y,z
-x,1/2-y,z
x,-y,-z
-x,1/2+y,-z
-x,-y,-z
x,1/2+y,-z
-x,y,z
x,1/2-y,z
1/2+x,1/2+y,1/2+z
1/2-x,-y,1/2+z
1/2+x,1/2-y,1/2-z
1/2-x,y,1/2-z
1/2-x,1/2-y,1/2-z
1/2+x,y,1/2-z
1/2-x,1/2+y,1/2+z
1/2+x,-y,1/2+z
loop_
_atom_site_type_symbol
_atom_site_label
_atom_site_fract_x
_atom_site_fract_y
_atom_site_fract_z
Si Si1 0.775106 0.067669 0.553483
Si Si2 0.924574 0.414775 0.983227
Si Si3 0.682696 0.161179 0.801583
Si Si4 0.576770 0.078223 0.702233
Si Si5 0.695984 0.525453 0.679688
Si Si6 0.691705 0.338524 0.430870
O O1 0.824190 0.108784 0.617895
O O2 0.747915 0.133914 0.494675
O O3 0.811761 0.000000 0.500000
O O4 0.712970 0.028200 0.602141
O O5 0.926237 0.393776 0.889481
O O6 0.000000 0.412476 0.020477
O O7 0.893501 0.500000 0.000000
O O8 0.881938 0.350494 0.029934
O O9 0.686367 0.250000 0.827116
O O10 0.750000 0.138400 0.750000
O O11 0.614606 0.146218 0.750794
O O12 0.500000 0.064358 0.735049
O O13 0.621353 0.999753 0.711203
O O14 0.750000 0.512923 0.750000
O O15 0.696211 0.614431 0.653004
O O16 0.704091 0.250000 0.409589
#
# Coordination Sequence:
#
# PCOD8297804 Si02
#       6
#    16  16  16  16  16  16
#     4  10  18  32  54  76  98 132 171 209 251 305
#     4  10  18  31  49  69 101 140 172 198 236 301
#     4  11  20  33  53  78 107 137 169 208 260 310
#     4  11  20  32  52  77 104 137 173 205 247 300
#     4  11  19  35  54  72  99 137 177 210 247 301
#     4  11  21  31  48  77 105 130 166 213 260 299
#
# _framework density 16.963574999999999
#
# number of rings (size 3 to 8) (size 9 to 14) (size 15 to 20)
#    0.000    1.333    6.667    1.000    0.000    3.000 
#    0.000    1.667    0.000    0.500    0.000    0.000 
#    0.000    0.000    0.000    0.000    0.000    0.000 
#
# Total GULP energy -595065.417502 kJ/mol
# GULP energy per Si atom -12397.196198 kJ/mol
# Density = 1.692497 g / cm^3
# Si number density = 16.963575 Si / 1000 Ang^3
#
#
#
# Elastic Constant Matrix: (Units=GPa)
#
#
# Indices 1 2 3 4 5 6 
#
# 1 87.1446 21.4767 32.4504 0.0000 0.0000 0.0000
# 2 21.4767 114.4539 37.4346 0.0000 0.0000 0.0000
# 3 32.4504 37.4346 68.3711 0.0000 0.0000 0.0000
# 4 0.0000 0.0000 0.0000 30.2507 0.0000 0.0000
# 5 0.0000 0.0000 0.0000 0.0000 22.5327 0.0000
# 6 0.0000 0.0000 0.0000 0.0000 0.0000 17.1100
#
#
#
# Elastic Compliance Matrix: (Units=1/GPa)
#
#
# Indices 1 2 3 4 5 6 
#
# 1 0.013967 -0.000551 -0.006327 0.000000 0.000000 0.000000
# 2 -0.000551 0.010665 -0.005578 0.000000 0.000000 0.000000
# 3 -0.006327 -0.005578 0.020683 0.000000 0.000000 0.000000
# 4 0.000000 0.000000 0.000000 0.033057 0.000000 0.000000
# 5 0.000000 0.000000 0.000000 0.000000 0.044380 0.000000
# 6 0.000000 0.000000 0.000000 0.000000 0.000000 0.058445
#
#
# Mechanical properties :
#
#
# Convention : Reuss Voigt Hill
#
# Bulk Modulus (GPa) = 49.01327 50.29923 49.65625
# Shear Modulus (GPa) = 23.48406 25.88588 24.68497
#
# Velocity S-wave (km/s) = 3.72476 3.91060 3.81881
# Velocity P-wave (km/s) = 6.88872 7.07857 6.98429
#
# Compressibility (1/GPa) = 0.02040264
#
# Stress axis : x y z
#
# Youngs Moduli (GPa) = 71.59647 93.76593 48.34913
#
# Poissons Ratio (x) = 0.05170 0.30591
# Poissons Ratio (y) = 0.03948 0.26967
# Poissons Ratio (z) = 0.45301 0.52298
#
# Static dielectric constant tensor:
#      x y z
#    x 3.027560 0.000000 0.000000 
#    y 0.000000 3.117270 0.000000 
#    z 0.000000 0.000000 3.162110 
# 
# 
# High freq. dielectric constant tensor:
#      x y z
#    x 1.627960 0.000000 0.000000 
#    y 0.000000 1.646500 0.000000 
#    z 0.000000 0.000000 1.644120 
# 
# From -- ./inp_files/44127.got.cif
#   From: 2010.03.12/outbox.cif.g09.slc.cpg/sg74_23_cif.got.tgz:44127.got - 2010.04.16 15:46:19.
