data_PCOD8297825
_publ_section_title
;
Structure prediction by ZEFSAII (Michael W. Deem and Ramdas Pophale) SiO2 
 PCOD8297825
Probable space group: I M M A
;
_chemical_formula_sum "Si O2"
_cell_formula_units_Z 112
_cell_length_a 13.842169
_cell_length_b 16.968370
_cell_length_c 26.391937
_cell_angle_alpha 90.000000
_cell_angle_beta 90.000000
_cell_angle_gamma 90.000000
_cell_volume 6198.912963
_symmetry_space_group_name_H-M "I M M A"
_symmetry_group_IT_number 74
_symmetry_cell_setting 'orthorhombic'
loop_
_space_group_symop_operation_xyz
x,y,z
-x,1/2-y,z
x,-y,-z
-x,1/2+y,-z
-x,-y,-z
x,1/2+y,-z
-x,y,z
x,1/2-y,z
1/2+x,1/2+y,1/2+z
1/2-x,-y,1/2+z
1/2+x,1/2-y,1/2-z
1/2-x,y,1/2-z
1/2-x,1/2-y,1/2-z
1/2+x,y,1/2-z
1/2-x,1/2+y,1/2+z
1/2+x,-y,1/2+z
loop_
_atom_site_type_symbol
_atom_site_label
_atom_site_fract_x
_atom_site_fract_y
_atom_site_fract_z
Si Si1 0.890338 0.337051 0.328548
Si Si2 0.110436 0.658681 0.101831
Si Si3 0.267110 0.922120 0.904822
Si Si4 0.605753 0.050875 0.950213
Si Si5 0.110051 0.004390 0.275841
Si Si6 0.739805 0.158774 0.508302
Si Si7 0.300998 0.531892 0.328613
O O1 0.866451 0.250000 0.306597
O O2 0.824389 0.351484 0.377940
O O3 0.872470 0.401910 0.284882
O O4 0.000000 0.341140 0.348101
O O5 0.121148 0.750000 0.115808
O O6 0.149858 0.642558 0.045246
O O7 0.170333 0.612847 0.144367
O O8 0.000000 0.630592 0.102376
O O9 0.338514 0.997213 0.909974
O O10 0.185469 0.958001 0.867538
O O11 0.221581 0.891899 0.957300
O O12 0.500000 0.074076 0.928764
O O13 0.663343 0.130831 0.963068
O O14 0.593403 0.000000 0.000000
O O15 0.189669 0.958587 0.309496
O O16 0.126330 0.985639 0.217159
O O17 0.000000 0.979937 0.290653
O O18 0.750728 0.250000 0.494117
#
# Coordination Sequence:
#
# PCOD8297825 Si02
#       7
#    16  16  16  16  16  16  16
#     4   9  17  30  50  76 106 144 182 214 261 320
#     4  10  21  38  58  78 103 138 177 219 267 318
#     4  10  18  31  50  76 108 139 180 221 255 304
#     4   9  17  29  47  70 102 140 174 213 261 304
#     4   9  19  35  55  80 109 138 171 222 273 314
#     4  10  20  34  50  74 109 143 178 221 265 308
#     4  10  19  35  57  80 102 135 179 216 264 325
#
# _framework density 18.067684
#
# number of rings (size 3 to 8) (size 9 to 14) (size 15 to 20)
#    0.000    2.429    1.429    1.286    0.000    1.429 
#    0.000   10.000    0.000    1.286    0.000    0.000 
#    0.000    0.000    0.000    0.000    0.000    0.000 
#
# Total GULP energy -694148.329459 kJ/mol
# GULP energy per Si atom -12395.505883 kJ/mol
# Density = 1.802656 g / cm^3
# Si number density = 18.067684 Si / 1000 Ang^3
#
#
#
# Elastic Constant Matrix: (Units=GPa)
#
#
# Indices 1 2 3 4 5 6 
#
# 1 102.3937 47.4627 41.4557 0.0000 0.0000 0.0000
# 2 47.4627 81.5943 53.7168 0.0000 0.0000 0.0000
# 3 41.4557 53.7168 97.5667 0.0000 0.0000 0.0000
# 4 0.0000 0.0000 0.0000 26.6336 0.0000 0.0000
# 5 0.0000 0.0000 0.0000 0.0000 21.8630 0.0000
# 6 0.0000 0.0000 0.0000 0.0000 0.0000 43.8005
#
#
#
# Elastic Compliance Matrix: (Units=1/GPa)
#
#
# Indices 1 2 3 4 5 6 
#
# 1 0.013678 -0.006479 -0.002245 0.000000 0.000000 0.000000
# 2 -0.006479 0.022292 -0.009520 0.000000 0.000000 0.000000
# 3 -0.002245 -0.009520 0.016445 0.000000 0.000000 0.000000
# 4 0.000000 0.000000 0.000000 0.037547 0.000000 0.000000
# 5 0.000000 0.000000 0.000000 0.000000 0.045739 0.000000
# 6 0.000000 0.000000 0.000000 0.000000 0.000000 0.022831
#
#
# Mechanical properties :
#
#
# Convention : Reuss Voigt Hill
#
# Bulk Modulus (GPa) = 62.78591 62.98054 62.88323
# Shear Modulus (GPa) = 24.95900 27.72073 26.33986
#
# Velocity S-wave (km/s) = 3.72077 3.92123 3.82231
# Velocity P-wave (km/s) = 7.29964 7.44548 7.37292
#
# Compressibility (1/GPa) = 0.01592714
#
# Stress axis : x y z
#
# Youngs Moduli (GPa) = 73.10951 44.85919 60.80911
#
# Poissons Ratio (x) = 0.29062 0.13651
# Poissons Ratio (y) = 0.47364 0.57893
# Poissons Ratio (z) = 0.16413 0.42708
#
# Static dielectric constant tensor:
#      x y z
#    x 3.438190 0.000000 0.000000 
#    y 0.000000 3.276720 0.000000 
#    z 0.000000 0.000000 3.378950 
# 
# 
# High freq. dielectric constant tensor:
#      x y z
#    x 1.690100 0.000000 0.000000 
#    y 0.000000 1.687050 0.000000 
#    z 0.000000 0.000000 1.700470 
# 
# From -- ./inp_files/67205.got.cif
#   From: 2010.03.12/outbox.cif.g09.slc.cpg/sg74_34_cif.got.tgz:67205.got - 2010.04.16 15:46:19.
