data_PCOD8297140
_publ_section_title
;
Structure prediction by ZEFSAII (Michael W. Deem and Ramdas Pophale) SiO2 
 PCOD8297140
Probable space group: I M M A
;
_chemical_formula_sum "Si O2"
_cell_formula_units_Z 80
_cell_length_a 25.708733
_cell_length_b 10.476811
_cell_length_c 16.920749
_cell_angle_alpha 90.000000
_cell_angle_beta 90.000000
_cell_angle_gamma 90.000000
_cell_volume 4557.528221
_symmetry_space_group_name_H-M "I M M A"
_symmetry_group_IT_number 74
_symmetry_cell_setting 'orthorhombic'
loop_
_space_group_symop_operation_xyz
x,y,z
-x,1/2-y,z
x,-y,-z
-x,1/2+y,-z
-x,-y,-z
x,1/2+y,-z
-x,y,z
x,1/2-y,z
1/2+x,1/2+y,1/2+z
1/2-x,-y,1/2+z
1/2+x,1/2-y,1/2-z
1/2-x,y,1/2-z
1/2-x,1/2-y,1/2-z
1/2+x,y,1/2-z
1/2-x,1/2+y,1/2+z
1/2+x,-y,1/2+z
loop_
_atom_site_type_symbol
_atom_site_label
_atom_site_fract_x
_atom_site_fract_y
_atom_site_fract_z
Si Si1 0.308106 0.750000 0.220695
Si Si2 0.060926 0.894883 0.647274
Si Si3 0.894158 0.442689 0.765925
Si Si4 0.653676 0.750000 0.054629
Si Si5 0.882808 0.500000 0.500000
Si Si6 0.439584 0.602201 0.433088
Si Si7 0.444162 0.750000 0.158590
O O1 0.250000 0.750000 0.250000
O O2 0.337966 0.877528 0.250203
O O3 0.304672 0.750000 0.125527
O O4 0.070456 0.750000 0.620497
O O5 0.080581 0.987975 0.577067
O O6 0.000000 0.919036 0.664408
O O7 0.097338 0.917820 0.726299
O O8 0.904893 0.438500 0.858700
O O9 0.938654 0.369362 0.717116
O O10 0.657023 0.879578 0.004003
O O11 0.595478 0.750000 0.087742
O O12 0.423885 0.500000 0.500000
O O13 0.500000 0.587585 0.411487
O O14 0.427622 0.750000 0.458120
O O15 0.500000 0.750000 0.117721
#
# Coordination Sequence:
#
# PCOD8297140 Si02
#       7
#     8  16  16   8   8  16   8
#     4  10  20  38  64  80  89 124 198 249 288 321
#     4  11  22  31  47  80 121 160 186 210 251 321
#     4  10  19  34  53  75 101 140 179 231 275 318
#     4  10  22  32  54  80 107 152 182 232 275 316
#     4  12  19  34  48  78 120 152 190 214 257 314
#     4  10  19  31  51  78 108 141 175 213 265 334
#     4  10  16  26  48  72  97 134 187 215 243 309
#
# _framework density 17.553374000000002
#
# number of rings (size 3 to 8) (size 9 to 14) (size 15 to 20)
#    0.000    1.800    7.000    2.100    0.000    1.600 
#    0.000    2.000    2.200    0.600    0.000    0.000 
#    0.000    0.000    0.000    0.000    0.000    0.000 
#
# Total GULP energy -495613.482956 kJ/mol
# GULP energy per Si atom -12390.337074 kJ/mol
# Density = 1.751342 g / cm^3
# Si number density = 17.553374 Si / 1000 Ang^3
#
#
#
# Elastic Constant Matrix: (Units=GPa)
#
#
# Indices 1 2 3 4 5 6 
#
# 1 84.8007 24.8252 27.2239 0.0000 0.0000 0.0000
# 2 24.8252 106.9042 40.7051 0.0000 0.0000 0.0000
# 3 27.2239 40.7051 95.7245 0.0000 0.0000 0.0000
# 4 0.0000 0.0000 0.0000 27.8060 0.0000 0.0000
# 5 0.0000 0.0000 0.0000 0.0000 13.1170 0.0000
# 6 0.0000 0.0000 0.0000 0.0000 0.0000 11.5553
#
#
#
# Elastic Compliance Matrix: (Units=1/GPa)
#
#
# Indices 1 2 3 4 5 6 
#
# 1 0.013316 -0.001969 -0.002950 0.000000 0.000000 0.000000
# 2 -0.001969 0.011452 -0.004310 0.000000 0.000000 0.000000
# 3 -0.002950 -0.004310 0.013118 0.000000 0.000000 0.000000
# 4 0.000000 0.000000 0.000000 0.035963 0.000000 0.000000
# 5 0.000000 0.000000 0.000000 0.000000 0.076237 0.000000
# 6 0.000000 0.000000 0.000000 0.000000 0.000000 0.086541
#
#
# Mechanical properties :
#
#
# Convention : Reuss Voigt Hill
#
# Bulk Modulus (GPa) = 51.46913 52.54863 52.00888
# Shear Modulus (GPa) = 19.11600 23.47401 21.29501
#
# Velocity S-wave (km/s) = 3.30361 3.66087 3.48682
# Velocity P-wave (km/s) = 6.62850 6.91887 6.77524
#
# Compressibility (1/GPa) = 0.01942912
#
# Stress axis : x y z
#
# Youngs Moduli (GPa) = 75.09909 87.31723 76.22961
#
# Poissons Ratio (x) = 0.17193 0.22485
# Poissons Ratio (y) = 0.14787 0.32855
# Poissons Ratio (z) = 0.22152 0.37633
#
# Static dielectric constant tensor:
#      x y z
#    x 2.722840 0.000000 0.000000 
#    y 0.000000 3.992400 0.000000 
#    z 0.000000 0.000000 3.248050 
# 
# 
# High freq. dielectric constant tensor:
#      x y z
#    x 1.619150 0.000000 0.000000 
#    y 0.000000 1.693210 0.000000 
#    z 0.000000 0.000000 1.674540 
# 
# From -- ./inp_files/37181.got.cif
#   From: 2010.03.12/outbox.cif.g09.slc.cpg/sg74_19_cif.got.tgz:37181.got - 2010.04.16 15:46:19.
