data_PCOD8297981
_publ_section_title
;
Structure prediction by ZEFSAII (Michael W. Deem and Ramdas Pophale) SiO2 
 PCOD8297981
Probable space group: I M M A
;
_chemical_formula_sum "Si O2"
_cell_formula_units_Z 64
_cell_length_a 13.452026
_cell_length_b 14.277935
_cell_length_c 16.551838
_cell_angle_alpha 90.000000
_cell_angle_beta 90.000000
_cell_angle_gamma 90.000000
_cell_volume 3179.064399
_symmetry_space_group_name_H-M "I M M A"
_symmetry_group_IT_number 74
_symmetry_cell_setting 'orthorhombic'
loop_
_space_group_symop_operation_xyz
x,y,z
-x,1/2-y,z
x,-y,-z
-x,1/2+y,-z
-x,-y,-z
x,1/2+y,-z
-x,y,z
x,1/2-y,z
1/2+x,1/2+y,1/2+z
1/2-x,-y,1/2+z
1/2+x,1/2-y,1/2-z
1/2-x,y,1/2-z
1/2-x,1/2-y,1/2-z
1/2+x,y,1/2-z
1/2-x,1/2+y,1/2+z
1/2+x,-y,1/2+z
loop_
_atom_site_type_symbol
_atom_site_label
_atom_site_fract_x
_atom_site_fract_y
_atom_site_fract_z
Si Si1 0.780799 0.854579 0.140774
Si Si2 0.114889 0.460020 0.722941
Si Si3 0.617199 0.646170 0.694480
Si Si4 0.389003 0.108362 0.483452
O O1 0.755935 0.750000 0.170903
O O2 0.867957 0.898667 0.196168
O O3 0.681836 0.918689 0.150460
O O4 0.815497 0.846910 0.048715
O O5 0.151210 0.567076 0.741371
O O6 0.000000 0.455154 0.697288
O O7 0.500000 0.636745 0.685982
O O8 0.649113 0.750000 0.725354
O O9 0.659420 0.628171 0.604298
O O10 0.500000 0.152508 0.490399
O O11 0.395637 0.000000 0.500000
#
# Coordination Sequence:
#
# PCOD8297981 Si02
#       4
#    16  16  16  16
#     4  11  22  33  51  80 109 143 182 218 266 325
#     4  10  20  35  52  76 110 142 176 220 267 318
#     4   9  17  31  54  81 105 134 173 218 273 325
#     4  10  18  32  55  81 111 140 169 219 276 322
#
# _framework density 20.131709000000001
#
# number of rings (size 3 to 8) (size 9 to 14) (size 15 to 20)
#    0.000    2.000    2.500    3.000    0.000    4.500 
#    0.000    2.500    0.000    0.750    0.000    0.000 
#    0.000    0.000    0.000    0.000    0.000    0.000 
#
# Total GULP energy -396589.929577 kJ/mol
# GULP energy per Si atom -12393.435299 kJ/mol
# Density = 2.008589 g / cm^3
# Si number density = 20.131709 Si / 1000 Ang^3
#
#
#
# Elastic Constant Matrix: (Units=GPa)
#
#
# Indices 1 2 3 4 5 6 
#
# 1 95.9348 29.1858 36.2560 0.0000 0.0000 0.0000
# 2 29.1858 170.3184 30.9306 0.0000 0.0000 0.0000
# 3 36.2560 30.9306 62.1656 0.0000 0.0000 0.0000
# 4 0.0000 0.0000 0.0000 19.3893 0.0000 0.0000
# 5 0.0000 0.0000 0.0000 0.0000 30.1366 0.0000
# 6 0.0000 0.0000 0.0000 0.0000 0.0000 27.7108
#
#
#
# Elastic Compliance Matrix: (Units=1/GPa)
#
#
# Indices 1 2 3 4 5 6 
#
# 1 0.013516 -0.000972 -0.007399 0.000000 0.000000 0.000000
# 2 -0.000972 0.006525 -0.002679 0.000000 0.000000 0.000000
# 3 -0.007399 -0.002679 0.021734 0.000000 0.000000 0.000000
# 4 0.000000 0.000000 0.000000 0.051575 0.000000 0.000000
# 5 0.000000 0.000000 0.000000 0.000000 0.033182 0.000000
# 6 0.000000 0.000000 0.000000 0.000000 0.000000 0.036087
#
#
# Mechanical properties :
#
#
# Convention : Reuss Voigt Hill
#
# Bulk Modulus (GPa) = 50.82916 57.90705 54.36810
# Shear Modulus (GPa) = 26.14008 30.91711 28.52859
#
# Velocity S-wave (km/s) = 3.60731 3.92311 3.76852
# Velocity P-wave (km/s) = 6.53096 7.02478 6.78237
#
# Compressibility (1/GPa) = 0.01967375
#
# Stress axis : x y z
#
# Youngs Moduli (GPa) = 73.98778 153.26753 46.01052
#
# Poissons Ratio (x) = 0.14904 0.34042
# Poissons Ratio (y) = 0.07195 0.12327
# Poissons Ratio (z) = 0.54742 0.41063
#
# Static dielectric constant tensor:
#      x y z
#    x 3.407880 0.000000 0.000000 
#    y 0.000000 4.059820 0.000000 
#    z 0.000000 0.000000 3.431880 
# 
# 
# High freq. dielectric constant tensor:
#      x y z
#    x 1.760800 0.000000 0.000000 
#    y 0.000000 1.810620 0.000000 
#    z 0.000000 0.000000 1.754470 
# 
# From -- ./inp_files/31693.got.cif
#   From: 2010.03.12/outbox.cif.g09.slc.cpg/sg74_16_cif.got.tgz:31693.got - 2010.04.16 15:46:19.
