data_PCOD8297463
_publ_section_title
;
Structure prediction by ZEFSAII (Michael W. Deem and Ramdas Pophale) SiO2 
 PCOD8297463
Probable space group: I M M A
;
_chemical_formula_sum "Si O2"
_cell_formula_units_Z 80
_cell_length_a 29.061865
_cell_length_b 7.851271
_cell_length_c 25.820990
_cell_angle_alpha 90.000000
_cell_angle_beta 90.000000
_cell_angle_gamma 90.000000
_cell_volume 5891.641852
_symmetry_space_group_name_H-M "I M M A"
_symmetry_group_IT_number 74
_symmetry_cell_setting 'orthorhombic'
loop_
_space_group_symop_operation_xyz
x,y,z
-x,1/2-y,z
x,-y,-z
-x,1/2+y,-z
-x,-y,-z
x,1/2+y,-z
-x,y,z
x,1/2-y,z
1/2+x,1/2+y,1/2+z
1/2-x,-y,1/2+z
1/2+x,1/2-y,1/2-z
1/2-x,y,1/2-z
1/2-x,1/2-y,1/2-z
1/2+x,y,1/2-z
1/2-x,1/2+y,1/2+z
1/2+x,-y,1/2+z
loop_
_atom_site_type_symbol
_atom_site_label
_atom_site_fract_x
_atom_site_fract_y
_atom_site_fract_z
Si Si1 0.824865 0.750000 0.762088
Si Si2 0.743559 0.750000 0.834796
Si Si3 0.696475 0.938135 0.123695
Si Si4 0.948034 0.452001 0.351937
Si Si5 0.617739 0.050482 0.057487
Si Si6 0.128160 0.439103 0.719568
O O1 0.796025 0.750000 0.815182
O O2 0.790903 0.750000 0.713409
O O3 0.856882 0.581067 0.761496
O O4 0.735819 0.581367 0.869885
O O5 0.719396 0.750000 0.122204
O O6 0.661867 0.955662 0.171208
O O7 0.666650 0.964802 0.071639
O O8 0.946507 0.250000 0.347821
O O9 0.922534 0.514393 0.404230
O O10 0.923368 0.528073 0.301085
O O11 0.000000 0.521409 0.353499
O O12 0.624445 0.250000 0.063681
O O13 0.602871 0.000000 0.000000
O O14 0.131153 0.250000 0.744553
#
# Coordination Sequence:
#
# PCOD8297463 Si02
#       6
#     8   8  16  16  16  16
#     4   9  16  26  39  56  76  92 113 142 180 227
#     4   9  16  26  40  56  74  94 112 142 180 227
#     4   9  16  27  40  54  72  93 117 145 183 229
#     4   9  17  29  42  53  70  98 127 160 202 238
#     4  10  18  28  40  54  72  95 126 162 200 242
#     4   9  16  26  40  55  72  94 118 145 182 227
#
# _framework density 13.578557999999999
#
# number of rings (size 3 to 8) (size 9 to 14) (size 15 to 20)
#    0.000    2.800    2.000    0.600    0.000    2.400 
#    0.000    4.000    0.000    0.000    0.000    0.000 
#    0.000    0.000    0.000    0.000    0.000    0.000 
#
# Total GULP energy -495818.448522 kJ/mol
# GULP energy per Si atom -12395.461213 kJ/mol
# Density = 1.354765 g / cm^3
# Si number density = 13.578558 Si / 1000 Ang^3
#
#
#
# Elastic Constant Matrix: (Units=GPa)
#
#
# Indices 1 2 3 4 5 6 
#
# 1 71.6338 43.8392 40.7798 0.0000 0.0000 0.0000
# 2 43.8392 95.2919 25.5274 0.0000 0.0000 0.0000
# 3 40.7798 25.5274 25.2201 0.0000 0.0000 0.0000
# 4 0.0000 0.0000 0.0000 13.6988 0.0000 0.0000
# 5 0.0000 0.0000 0.0000 0.0000 15.5834 0.0000
# 6 0.0000 0.0000 0.0000 0.0000 0.0000 9.9918
#
#
#
# Elastic Compliance Matrix: (Units=1/GPa)
#
#
# Indices 1 2 3 4 5 6 
#
# 1 0.178566 -0.006588 -0.282065 0.000000 0.000000 0.000000
# 2 -0.006588 0.014641 -0.004167 0.000000 0.000000 0.000000
# 3 -0.282065 -0.004167 0.499954 0.000000 0.000000 0.000000
# 4 0.000000 0.000000 0.000000 0.072999 0.000000 0.000000
# 5 0.000000 0.000000 0.000000 0.000000 0.064171 0.000000
# 6 0.000000 0.000000 0.000000 0.000000 0.000000 0.100082
#
#
# Mechanical properties :
#
#
# Convention : Reuss Voigt Hill
#
# Bulk Modulus (GPa) = 9.30038 45.82650 27.56344
# Shear Modulus (GPa) = 3.22187 13.32144 8.27166
#
# Velocity S-wave (km/s) = 1.54205 3.13559 2.47082
# Velocity P-wave (km/s) = 3.16777 6.85067 5.33697
#
# Compressibility (1/GPa) = 0.10752249
#
# Stress axis : x y z
#
# Youngs Moduli (GPa) = 5.60017 68.30039 2.00018
#
# Poissons Ratio (x) = 0.44999 0.56418
# Poissons Ratio (y) = 0.03690 0.00833
# Poissons Ratio (z) = 1.57961 0.28458
#
# Static dielectric constant tensor:
#      x y z
#    x 2.609440 0.000000 0.000000 
#    y 0.000000 2.907970 0.000000 
#    z 0.000000 0.000000 2.438980 
# 
# 
# High freq. dielectric constant tensor:
#      x y z
#    x 1.484230 0.000000 0.000000 
#    y 0.000000 1.538260 0.000000 
#    z 0.000000 0.000000 1.459760 
# 
# From -- ./inp_files/55497.got.cif
#   From: 2010.03.12/outbox.cif.g09.slc.cpg/sg74_28_cif.got.tgz:55497.got - 2010.04.16 15:46:19.
