data_PCOD8297862
_publ_section_title
;
Structure prediction by ZEFSAII (Michael W. Deem and Ramdas Pophale) SiO2 
 PCOD8297862
Probable space group: I M M A
;
_chemical_formula_sum "Si O2"
_cell_formula_units_Z 80
_cell_length_a 8.449706
_cell_length_b 25.069438
_cell_length_c 20.481381
_cell_angle_alpha 90.000000
_cell_angle_beta 90.000000
_cell_angle_gamma 90.000000
_cell_volume 4338.558253
_symmetry_space_group_name_H-M "I M M A"
_symmetry_group_IT_number 74
_symmetry_cell_setting 'orthorhombic'
loop_
_space_group_symop_operation_xyz
x,y,z
-x,1/2-y,z
x,-y,-z
-x,1/2+y,-z
-x,-y,-z
x,1/2+y,-z
-x,y,z
x,1/2-y,z
1/2+x,1/2+y,1/2+z
1/2-x,-y,1/2+z
1/2+x,1/2-y,1/2-z
1/2-x,y,1/2-z
1/2-x,1/2-y,1/2-z
1/2+x,y,1/2-z
1/2-x,1/2+y,1/2+z
1/2+x,-y,1/2+z
loop_
_atom_site_type_symbol
_atom_site_label
_atom_site_fract_x
_atom_site_fract_y
_atom_site_fract_z
Si Si1 0.683756 0.859471 0.619740
Si Si2 0.687496 0.364862 0.977773
Si Si3 0.184250 0.528033 0.067141
Si Si4 0.823958 0.750000 0.629600
Si Si5 0.825051 0.250000 0.525509
Si Si6 0.815271 0.960887 0.682247
O O1 0.500000 0.859008 0.601555
O O2 0.781214 0.872522 0.554408
O O3 0.732013 0.803102 0.652467
O O4 0.721799 0.905856 0.670706
O O5 0.500000 0.369068 0.966293
O O6 0.778440 0.409156 0.936125
O O7 0.755203 0.306406 0.953793
O O8 0.284115 0.503647 0.125769
O O9 0.000000 0.518270 0.080530
O O10 0.237802 0.500000 0.000000
O O11 0.833666 0.750000 0.552138
O O12 0.000000 0.750000 0.660074
O O13 0.000000 0.250000 0.555513
O O14 0.750000 0.985056 0.750000
O O15 0.000000 0.948944 0.686646
#
# Coordination Sequence:
#
# PCOD8297862 Si02
#       6
#    16  16  16   8   8  16
#     4  11  20  33  52  78 109 143 183 229 277 325
#     4  10  18  31  53  80 110 146 184 225 275 326
#     4  11  22  36  56  83 114 144 185 233 276 326
#     4   9  17  31  50  74 103 142 186 228 272 321
#     4   7  14  27  45  74 109 138 173 220 267 319
#     4  12  25  41  59  79 108 146 186 229 281 335
#
# _framework density 18.439304
#
# number of rings (size 3 to 8) (size 9 to 14) (size 15 to 20)
#    0.000    1.600    2.000    6.300    0.000    0.800 
#    0.000    2.000    0.000    0.000    0.000    0.700 
#    0.000    0.000    0.000    0.000    0.000    0.000 
#
# Total GULP energy -495927.850348 kJ/mol
# GULP energy per Si atom -12398.196259 kJ/mol
# Density = 1.839734 g / cm^3
# Si number density = 18.439304 Si / 1000 Ang^3
#
#
#
# Elastic Constant Matrix: (Units=GPa)
#
#
# Indices 1 2 3 4 5 6 
#
# 1 66.5108 24.2759 11.9862 0.0000 0.0000 0.0000
# 2 24.2759 138.7033 39.9739 0.0000 0.0000 0.0000
# 3 11.9862 39.9739 64.8464 0.0002 0.0000 0.0000
# 4 0.0000 0.0000 0.0002 12.3227 0.0000 0.0000
# 5 0.0000 0.0000 0.0000 0.0000 21.4339 0.0000
# 6 0.0000 0.0000 0.0000 0.0000 0.0000 30.5589
#
#
#
# Elastic Compliance Matrix: (Units=1/GPa)
#
#
# Indices 1 2 3 4 5 6 
#
# 1 0.016183 -0.002396 -0.001514 0.000000 0.000000 0.000000
# 2 -0.002396 0.009122 -0.005180 0.000000 0.000000 0.000000
# 3 -0.001514 -0.005180 0.018894 0.000000 0.000000 0.000000
# 4 0.000000 0.000000 0.000000 0.081151 0.000000 0.000000
# 5 0.000000 0.000000 0.000000 0.000000 0.046655 0.000000
# 6 0.000000 0.000000 0.000000 0.000000 0.000000 0.032724
#
#
# Mechanical properties :
#
#
# Convention : Reuss Voigt Hill
#
# Bulk Modulus (GPa) = 38.43507 46.94805 42.69156
# Shear Modulus (GPa) = 21.59065 25.78474 23.68769
#
# Velocity S-wave (km/s) = 3.42556 3.74352 3.58806
# Velocity P-wave (km/s) = 6.04444 6.64841 6.35361
#
# Compressibility (1/GPa) = 0.02601791
#
# Stress axis : x y z
#
# Youngs Moduli (GPa) = 61.79511 109.62650 52.92612
#
# Poissons Ratio (x) = 0.26265 0.08015
# Poissons Ratio (y) = 0.14805 0.27417
# Poissons Ratio (z) = 0.09358 0.56789
#
# Static dielectric constant tensor:
#      x y z
#    x 3.364040 0.000000 0.000000 
#    y 0.000000 3.853430 0.000000 
#    z 0.000000 0.000000 2.952750 
# 
# 
# High freq. dielectric constant tensor:
#      x y z
#    x 1.720960 0.000000 0.000000 
#    y 0.000000 1.731590 0.000000 
#    z 0.000000 0.000000 1.659300 
# 
# From -- ./inp_files/48601.got.cif
#   From: 2010.03.12/outbox.cif.g09.slc.cpg/sg74_25_cif.got.tgz:48601.got - 2010.04.16 15:46:19.
