data_PCOD8297799
_publ_section_title
;
Structure prediction by ZEFSAII (Michael W. Deem and Ramdas Pophale) SiO2 
 PCOD8297799
Probable space group: I M M A
;
_chemical_formula_sum "Si O2"
_cell_formula_units_Z 96
_cell_length_a 9.091398
_cell_length_b 22.991731
_cell_length_c 27.519391
_cell_angle_alpha 90.000000
_cell_angle_beta 90.000000
_cell_angle_gamma 90.000000
_cell_volume 5752.295116
_symmetry_space_group_name_H-M "I M M A"
_symmetry_group_IT_number 74
_symmetry_cell_setting 'orthorhombic'
loop_
_space_group_symop_operation_xyz
x,y,z
-x,1/2-y,z
x,-y,-z
-x,1/2+y,-z
-x,-y,-z
x,1/2+y,-z
-x,y,z
x,1/2-y,z
1/2+x,1/2+y,1/2+z
1/2-x,-y,1/2+z
1/2+x,1/2-y,1/2-z
1/2-x,y,1/2-z
1/2-x,1/2-y,1/2-z
1/2+x,y,1/2-z
1/2-x,1/2+y,1/2+z
1/2+x,-y,1/2+z
loop_
_atom_site_type_symbol
_atom_site_label
_atom_site_fract_x
_atom_site_fract_y
_atom_site_fract_z
Si Si1 0.831363 0.539512 0.102331
Si Si2 0.670314 0.484860 0.298939
Si Si3 0.172697 0.125186 0.142043
Si Si4 0.674487 0.435281 0.056195
Si Si5 0.327961 0.250000 0.378502
Si Si6 0.669806 0.627862 0.473567
Si Si7 0.674405 0.250000 0.488367
O O1 0.786688 0.531475 0.158979
O O2 0.729247 0.499420 0.069150
O O3 0.814390 0.606080 0.082879
O O4 0.000000 0.517966 0.096803
O O5 0.500000 0.486644 0.286974
O O6 0.750000 0.503519 0.250000
O O7 0.718244 0.419175 0.314973
O O8 0.262606 0.111217 0.093934
O O9 0.215305 0.192641 0.153020
O O10 0.000000 0.117942 0.130919
O O11 0.500000 0.434364 0.056307
O O12 0.734080 0.417609 0.003769
O O13 0.500000 0.250000 0.387369
O O14 0.259401 0.250000 0.433326
O O15 0.500000 0.623915 0.490282
O O16 0.729800 0.693355 0.481578
O O17 0.500000 0.250000 0.486952
#
# Coordination Sequence:
#
# PCOD8297799 Si02
#       7
#    16  16  16  16   8  16   8
#     4   9  19  33  49  67  89 120 154 188 228 275
#     4   9  18  32  49  68  88 113 148 191 240 282
#     4   9  17  31  49  67  89 122 161 192 225 270
#     4  11  20  28  42  67  98 126 154 188 226 265
#     4   9  14  26  49  69  87 118 163 197 216 254
#     4  10  18  31  48  67  93 123 156 187 219 266
#     4   9  16  26  48  73  90 120 159 190 217 252
#
# _framework density 16.688991999999999
#
# number of rings (size 3 to 8) (size 9 to 14) (size 15 to 20)
#    0.000    2.500    1.667    3.000    0.000    5.333 
#    0.000    2.083    0.000    0.000    0.000    0.583 
#    0.000    0.000    0.000    0.000    0.000    0.000 
#
# Total GULP energy -594725.008213 kJ/mol
# GULP energy per Si atom -12390.104338 kJ/mol
# Density = 1.665101 g / cm^3
# Si number density = 16.688992 Si / 1000 Ang^3
#
#
#
# Elastic Constant Matrix: (Units=GPa)
#
#
# Indices 1 2 3 4 5 6 
#
# 1 51.0824 11.8792 27.2899 0.0000 0.0000 0.0000
# 2 11.8792 51.0984 41.9290 0.0000 0.0000 0.0000
# 3 27.2899 41.9290 100.8894 0.0000 0.0000 0.0000
# 4 0.0000 0.0000 0.0000 16.1471 0.0000 0.0000
# 5 0.0000 0.0000 0.0000 0.0000 21.1582 0.0000
# 6 0.0000 0.0000 0.0000 0.0000 0.0000 5.2918
#
#
#
# Elastic Compliance Matrix: (Units=1/GPa)
#
#
# Indices 1 2 3 4 5 6 
#
# 1 0.022887 -0.000365 -0.006039 0.000000 0.000000 0.000000
# 2 -0.000365 0.029703 -0.012246 0.000000 0.000000 0.000000
# 3 -0.006039 -0.012246 0.016635 0.000000 0.000000 0.000000
# 4 0.000000 0.000000 0.000000 0.061930 0.000000 0.000000
# 5 0.000000 0.000000 0.000000 0.000000 0.047263 0.000000
# 6 0.000000 0.000000 0.000000 0.000000 0.000000 0.188972
#
#
# Mechanical properties :
#
#
# Convention : Reuss Voigt Hill
#
# Bulk Modulus (GPa) = 31.32339 40.58514 35.95426
# Shear Modulus (GPa) = 12.03855 16.65091 14.34473
#
# Velocity S-wave (km/s) = 2.68870 3.16209 2.93496
# Velocity P-wave (km/s) = 5.33371 6.14028 5.75115
#
# Compressibility (1/GPa) = 0.03192503
#
# Stress axis : x y z
#
# Youngs Moduli (GPa) = 43.69208 33.66637 60.11587
#
# Poissons Ratio (x) = 0.01231 0.36304
# Poissons Ratio (y) = 0.01597 0.73615
# Poissons Ratio (z) = 0.26386 0.41227
#
# Static dielectric constant tensor:
#      x y z
#    x 2.888690 0.000000 0.000000 
#    y 0.000000 3.346700 0.000000 
#    z 0.000000 0.000000 2.974090 
# 
# 
# High freq. dielectric constant tensor:
#      x y z
#    x 1.620050 0.000000 0.000000 
#    y 0.000000 1.634110 0.000000 
#    z 0.000000 0.000000 1.617080 
# 
# From -- ./inp_files/64729.got.cif
#   From: 2010.03.12/outbox.cif.g09.slc.cpg/sg74_33_cif.got.tgz:64729.got - 2010.04.16 15:46:19.
