data_PCOD8297816
_publ_section_title
;
Structure prediction by ZEFSAII (Michael W. Deem and Ramdas Pophale) SiO2 
 PCOD8297816
Probable space group: I M M A
;
_chemical_formula_sum "Si O2"
_cell_formula_units_Z 96
_cell_length_a 20.191814
_cell_length_b 9.115230
_cell_length_c 29.926962
_cell_angle_alpha 90.000000
_cell_angle_beta 90.000000
_cell_angle_gamma 90.000000
_cell_volume 5508.147997
_symmetry_space_group_name_H-M "I M M A"
_symmetry_group_IT_number 74
_symmetry_cell_setting 'orthorhombic'
loop_
_space_group_symop_operation_xyz
x,y,z
-x,1/2-y,z
x,-y,-z
-x,1/2+y,-z
-x,-y,-z
x,1/2+y,-z
-x,y,z
x,1/2-y,z
1/2+x,1/2+y,1/2+z
1/2-x,-y,1/2+z
1/2+x,1/2-y,1/2-z
1/2-x,y,1/2-z
1/2-x,1/2-y,1/2-z
1/2+x,y,1/2-z
1/2-x,1/2+y,1/2+z
1/2+x,-y,1/2+z
loop_
_atom_site_type_symbol
_atom_site_label
_atom_site_fract_x
_atom_site_fract_y
_atom_site_fract_z
Si Si1 0.271424 0.917319 0.629153
Si Si2 0.425055 0.082202 0.781592
Si Si3 0.275710 0.414553 0.542913
Si Si4 0.817550 0.420187 0.226491
Si Si5 0.118319 0.922207 0.631986
Si Si6 0.117875 0.083472 0.543332
O O1 0.276081 0.750000 0.613247
O O2 0.313768 0.946349 0.673488
O O3 0.195522 0.956618 0.639864
O O4 0.301190 0.013674 0.588974
O O5 0.500000 0.072836 0.763638
O O6 0.404197 0.250000 0.791064
O O7 0.378348 0.015707 0.743597
O O8 0.421044 0.990182 0.826961
O O9 0.304452 0.500000 0.500000
O O10 0.303032 0.250000 0.540811
O O11 0.196828 0.419250 0.542141
O O12 0.830088 0.250000 0.238402
O O13 0.750000 0.473105 0.250000
O O14 0.103815 0.750000 0.628845
O O15 0.092004 0.998524 0.586924
O O16 0.091230 0.250000 0.543823
O O17 0.089339 0.000000 0.500000
#
# Coordination Sequence:
#
# PCOD8297816 Si02
#       6
#    16  16  16  16  16  16
#     4   9  17  29  47  71  99 126 160 206 249 294
#     4  11  24  38  51  72 102 134 169 210 254 303
#     4   9  16  25  39  62  95 131 164 196 240 292
#     4  10  19  35  55  77 101 130 168 211 256 303
#     4  10  18  31  50  70  94 127 166 209 254 300
#     4   9  16  26  41  65  94 125 162 204 250 299
#
# _framework density 17.428725
#
# number of rings (size 3 to 8) (size 9 to 14) (size 15 to 20)
#    0.000    2.333    1.667    2.000    0.000    7.000 
#    0.000    0.000    0.000    0.500    0.000    0.000 
#    0.000    0.667    0.000    2.167    0.000    3.167 
#
# Total GULP energy -595275.337510 kJ/mol
# GULP energy per Si atom -12401.569531 kJ/mol
# Density = 1.738906 g / cm^3
# Si number density = 17.428725 Si / 1000 Ang^3
#
#
#
# Elastic Constant Matrix: (Units=GPa)
#
#
# Indices 1 2 3 4 5 6 
#
# 1 48.2646 36.2143 34.9100 0.0000 0.0000 0.0000
# 2 36.2143 128.9034 63.7438 0.0000 0.0000 0.0000
# 3 34.9100 63.7438 110.6888 0.0000 0.0000 0.0000
# 4 0.0000 0.0000 0.0000 38.9964 0.0000 0.0000
# 5 0.0000 0.0000 0.0000 0.0000 10.1930 0.0000
# 6 0.0000 0.0000 0.0000 0.0000 0.0000 16.9288
#
#
#
# Elastic Compliance Matrix: (Units=1/GPa)
#
#
# Indices 1 2 3 4 5 6 
#
# 1 0.029037 -0.005074 -0.006236 0.000000 0.000000 0.000000
# 2 -0.005074 0.011733 -0.005157 0.000000 0.000000 0.000000
# 3 -0.006236 -0.005157 0.013971 0.000000 0.000000 0.000000
# 4 0.000000 0.000000 0.000000 0.025643 0.000000 0.000000
# 5 0.000000 0.000000 0.000000 0.000000 0.098106 0.000000
# 6 0.000000 0.000000 0.000000 0.000000 0.000000 0.059071
#
#
# Mechanical properties :
#
#
# Convention : Reuss Voigt Hill
#
# Bulk Modulus (GPa) = 45.85545 61.95476 53.90511
# Shear Modulus (GPa) = 18.00093 23.42288 20.71190
#
# Velocity S-wave (km/s) = 3.21726 3.66993 3.45102
# Velocity P-wave (km/s) = 6.33785 7.32001 6.84657
#
# Compressibility (1/GPa) = 0.02180766
#
# Stress axis : x y z
#
# Youngs Moduli (GPa) = 34.43922 85.22768 71.57815
#
# Poissons Ratio (x) = 0.43244 0.44635
# Poissons Ratio (y) = 0.17474 0.36911
# Poissons Ratio (z) = 0.21476 0.43950
#
# Static dielectric constant tensor:
#      x y z
#    x 2.705570 0.000000 0.000000 
#    y 0.000000 3.385760 0.000000 
#    z 0.000000 0.000000 3.354310 
# 
# 
# High freq. dielectric constant tensor:
#      x y z
#    x 1.608700 0.000000 0.000000 
#    y 0.000000 1.686610 0.000000 
#    z 0.000000 0.000000 1.683920 
# 
# From -- ./inp_files/68124.got.cif
#   From: 2010.03.12/outbox.cif.g09.slc.cpg/sg74_35_cif.got.tgz:68124.got - 2010.04.16 15:46:19.
