data_PCOD8297167
_publ_section_title
;
Structure prediction by ZEFSAII (Michael W. Deem and Ramdas Pophale) SiO2 
 PCOD8297167
Probable space group: I M M A
;
_chemical_formula_sum "Si O2"
_cell_formula_units_Z 56
_cell_length_a 10.023550
_cell_length_b 14.301695
_cell_length_c 23.742945
_cell_angle_alpha 90.000000
_cell_angle_beta 90.000000
_cell_angle_gamma 90.000000
_cell_volume 3403.640319
_symmetry_space_group_name_H-M "I M M A"
_symmetry_group_IT_number 74
_symmetry_cell_setting 'orthorhombic'
loop_
_space_group_symop_operation_xyz
x,y,z
-x,1/2-y,z
x,-y,-z
-x,1/2+y,-z
-x,-y,-z
x,1/2+y,-z
-x,y,z
x,1/2-y,z
1/2+x,1/2+y,1/2+z
1/2-x,-y,1/2+z
1/2+x,1/2-y,1/2-z
1/2-x,y,1/2-z
1/2-x,1/2-y,1/2-z
1/2+x,y,1/2-z
1/2-x,1/2+y,1/2+z
1/2+x,-y,1/2+z
loop_
_atom_site_type_symbol
_atom_site_label
_atom_site_fract_x
_atom_site_fract_y
_atom_site_fract_z
Si Si1 0.500000 0.956936 0.563174
Si Si2 0.000000 0.415916 0.657611
Si Si3 0.219907 0.750000 0.059661
Si Si4 0.208153 0.065297 0.867212
Si Si5 0.000000 0.859711 0.214719
Si Si6 0.000000 0.750000 0.968495
Si Si7 0.500000 0.750000 0.071420
O O1 0.500000 0.844651 0.567320
O O2 0.500000 0.000000 0.500000
O O3 0.366485 0.987148 0.596050
O O4 0.140676 0.470925 0.647054
O O5 0.000000 0.337545 0.611522
O O6 0.000000 0.370379 0.718662
O O7 0.198268 0.840074 0.097491
O O8 0.368798 0.750000 0.033071
O O9 0.129180 0.750000 0.006288
O O10 0.130977 0.088140 0.809322
O O11 0.000000 0.750000 0.199023
#
# Coordination Sequence:
#
# PCOD8297167 Si02
#       7
#     8   8   8  16   8   4   4
#     4  11  21  35  53  74  93 129 170 210 254 297
#     4  10  19  30  45  71 108 143 166 193 238 296
#     4  10  16  29  47  71 104 134 160 201 242 280
#     4  10  20  32  47  73 107 139 165 201 241 291
#     4  11  18  27  47  76 109 143 169 191 234 301
#     4  12  20  34  57  70  90 126 175 212 248 298
#     4   8  18  26  39  70 110 136 159 186 240 292
#
# _framework density 16.452971999999999
#
# number of rings (size 3 to 8) (size 9 to 14) (size 15 to 20)
#    0.000    1.714    5.000    1.714    0.000    1.143 
#    0.000    2.143    0.000    0.000    0.000   16.000 
#    0.000    0.000    0.000    0.000    0.000    0.000 
#
# Total GULP energy -346891.490662 kJ/mol
# GULP energy per Si atom -12388.981809 kJ/mol
# Density = 1.641552 g / cm^3
# Si number density = 16.452972 Si / 1000 Ang^3
#
#
#
# Elastic Constant Matrix: (Units=GPa)
#
#
# Indices 1 2 3 4 5 6 
#
# 1 175.3209 39.5814 52.2001 0.0000 0.0000 0.0000
# 2 39.5814 84.9991 26.6490 0.0000 0.0000 0.0000
# 3 52.2001 26.6490 57.1858 0.0000 0.0000 0.0000
# 4 0.0000 0.0000 0.0000 32.4757 0.0000 0.0000
# 5 0.0000 0.0000 0.0000 0.0000 28.9326 0.0000
# 6 0.0000 0.0000 0.0000 0.0000 0.0000 15.6584
#
#
#
# Elastic Compliance Matrix: (Units=1/GPa)
#
#
# Indices 1 2 3 4 5 6 
#
# 1 0.008034 -0.001689 -0.006547 0.000000 0.000000 0.000000
# 2 -0.001689 0.014133 -0.005044 0.000000 0.000000 0.000000
# 3 -0.006547 -0.005044 0.025814 0.000000 0.000000 0.000000
# 4 0.000000 0.000000 0.000000 0.030792 0.000000 0.000000
# 5 0.000000 0.000000 0.000000 0.000000 0.034563 0.000000
# 6 0.000000 0.000000 0.000000 0.000000 0.000000 0.063863
#
#
# Mechanical properties :
#
#
# Convention : Reuss Voigt Hill
#
# Bulk Modulus (GPa) = 46.68403 61.59632 54.14018
# Shear Modulus (GPa) = 23.70790 28.68503 26.19646
#
# Velocity S-wave (km/s) = 3.80010 4.18000 3.99457
# Velocity P-wave (km/s) = 6.90581 7.79844 7.36566
#
# Compressibility (1/GPa) = 0.02142060
#
# Stress axis : x y z
#
# Youngs Moduli (GPa) = 124.46530 70.75750 38.73908
#
# Poissons Ratio (x) = 0.11949 0.25362
# Poissons Ratio (y) = 0.21019 0.19542
# Poissons Ratio (z) = 0.81486 0.35693
#
# Static dielectric constant tensor:
#      x y z
#    x 3.892410 0.000000 0.000000 
#    y 0.000000 2.809160 0.000000 
#    z 0.000000 0.000000 2.929910 
# 
# 
# High freq. dielectric constant tensor:
#      x y z
#    x 1.660590 0.000000 0.000000 
#    y 0.000000 1.586520 0.000000 
#    z 0.000000 0.000000 1.616800 
# 
# From -- ./inp_files/40668.got.cif
#   From: 2010.03.12/outbox.cif.g09.slc.cpg/sg74_21_cif.got.tgz:40668.got - 2010.04.16 15:46:19.
