data_PCOD8297102
_publ_section_title
;
Structure prediction by ZEFSAII (Michael W. Deem and Ramdas Pophale) SiO2 
 PCOD8297102
Probable space group: I M M A
;
_chemical_formula_sum "Si O2"
_cell_formula_units_Z 72
_cell_length_a 15.094831
_cell_length_b 14.299668
_cell_length_c 18.011513
_cell_angle_alpha 90.000000
_cell_angle_beta 90.000000
_cell_angle_gamma 90.000000
_cell_volume 3887.804386
_symmetry_space_group_name_H-M "I M M A"
_symmetry_group_IT_number 74
_symmetry_cell_setting 'orthorhombic'
loop_
_space_group_symop_operation_xyz
x,y,z
-x,1/2-y,z
x,-y,-z
-x,1/2+y,-z
-x,-y,-z
x,1/2+y,-z
-x,y,z
x,1/2-y,z
1/2+x,1/2+y,1/2+z
1/2-x,-y,1/2+z
1/2+x,1/2-y,1/2-z
1/2-x,y,1/2-z
1/2-x,1/2-y,1/2-z
1/2+x,y,1/2-z
1/2-x,1/2+y,1/2+z
1/2+x,-y,1/2+z
loop_
_atom_site_type_symbol
_atom_site_label
_atom_site_fract_x
_atom_site_fract_y
_atom_site_fract_z
Si Si1 0.352537 0.750000 0.729964
Si Si2 0.396134 0.750000 0.410806
Si Si3 0.100916 0.448006 0.856316
Si Si4 0.195684 0.250000 0.066537
Si Si5 0.151008 0.944695 0.721749
Si Si6 0.263909 0.450268 0.074752
O O1 0.250000 0.750000 0.750000
O O2 0.364517 0.750000 0.640691
O O3 0.397314 0.844048 0.764407
O O4 0.500000 0.750000 0.408520
O O5 0.362262 0.657374 0.367862
O O6 0.367581 0.750000 0.495855
O O7 0.102710 0.473761 0.768541
O O8 0.165096 0.516723 0.901903
O O9 0.000000 0.458644 0.886039
O O10 0.260136 0.339219 0.063938
O O11 0.250000 0.931855 0.750000
O O12 0.159136 0.973095 0.635237
O O13 0.295083 0.500000 0.000000
#
# Coordination Sequence:
#
# PCOD8297102 Si02
#       6
#     8   8  16   8  16  16
#     4  10  14  28  48  65  93 133 158 197 246 290
#     4  10  22  34  46  71 108 141 165 202 249 303
#     4  10  20  34  50  70 100 135 170 204 246 300
#     4  12  18  30  47  73 103 131 162 197 255 301
#     4   9  17  32  49  70  95 133 168 206 245 297
#     4  11  20  32  51  74 102 131 164 210 255 300
#
# _framework density 18.519449000000002
#
# number of rings (size 3 to 8) (size 9 to 14) (size 15 to 20)
#    0.000    1.778    8.889    0.000    0.000    1.333 
#    0.000    6.667    0.000    0.667    0.000    0.000 
#    0.000    0.000    0.000    0.000    0.000    0.000 
#
# Total GULP energy -446159.601345 kJ/mol
# GULP energy per Si atom -12393.322260 kJ/mol
# Density = 1.847730 g / cm^3
# Si number density = 18.519449 Si / 1000 Ang^3
#
#
#
# Elastic Constant Matrix: (Units=GPa)
#
#
# Indices 1 2 3 4 5 6 
#
# 1 20.5576 20.5897 12.5127 0.0000 0.0000 0.0000
# 2 20.5897 129.3948 71.5453 0.0000 0.0000 0.0000
# 3 12.5127 71.5453 148.2376 0.0000 0.0000 0.0000
# 4 0.0000 0.0000 0.0000 33.9320 0.0000 0.0000
# 5 0.0000 0.0000 0.0000 0.0000 18.8395 0.0000
# 6 0.0000 0.0000 0.0000 0.0000 0.0000 4.7070
#
#
#
# Elastic Compliance Matrix: (Units=1/GPa)
#
#
# Indices 1 2 3 4 5 6 
#
# 1 0.057905 -0.008882 -0.000601 0.000000 0.000000 0.000000
# 2 -0.008882 0.011904 -0.004995 0.000000 0.000000 0.000000
# 3 -0.000601 -0.004995 0.009208 0.000000 0.000000 0.000000
# 4 0.000000 0.000000 0.000000 0.029471 0.000000 0.000000
# 5 0.000000 0.000000 0.000000 0.000000 0.053080 0.000000
# 6 0.000000 0.000000 0.000000 0.000000 0.000000 0.212451
#
#
# Mechanical properties :
#
#
# Convention : Reuss Voigt Hill
#
# Bulk Modulus (GPa) = 19.97597 56.38726 38.18162
# Shear Modulus (GPa) = 11.91436 24.39851 18.15644
#
# Velocity S-wave (km/s) = 2.53917 3.63361 3.13453
# Velocity P-wave (km/s) = 4.40527 6.93670 5.81052
#
# Compressibility (1/GPa) = 0.05006014
#
# Stress axis : x y z
#
# Youngs Moduli (GPa) = 17.26954 84.00758 108.60493
#
# Poissons Ratio (x) = 0.74613 0.06529
# Poissons Ratio (y) = 0.15338 0.54253
# Poissons Ratio (z) = 0.01038 0.41966
#
# Static dielectric constant tensor:
#      x y z
#    x 2.946980 0.000000 0.000000 
#    y 0.000000 4.047350 0.000000 
#    z 0.000000 0.000000 3.982460 
# 
# 
# High freq. dielectric constant tensor:
#      x y z
#    x 1.660270 0.000000 0.000000 
#    y 0.000000 1.732580 0.000000 
#    z 0.000000 0.000000 1.715930 
# 
# From -- ./inp_files/42535.got.cif
#   From: 2010.03.12/outbox.cif.g09.slc.cpg/sg74_22_cif.got.tgz:42535.got - 2010.04.16 15:46:19.
