data_PCOD8297990
_publ_section_title
;
Structure prediction by ZEFSAII (Michael W. Deem and Ramdas Pophale) SiO2 
 PCOD8297990
Probable space group: I M M A
;
_chemical_formula_sum "Si O2"
_cell_formula_units_Z 104
_cell_length_a 8.827535
_cell_length_b 26.155803
_cell_length_c 23.699817
_cell_angle_alpha 90.000000
_cell_angle_beta 90.000000
_cell_angle_gamma 90.000000
_cell_volume 5472.080761
_symmetry_space_group_name_H-M "I M M A"
_symmetry_group_IT_number 74
_symmetry_cell_setting 'orthorhombic'
loop_
_space_group_symop_operation_xyz
x,y,z
-x,1/2-y,z
x,-y,-z
-x,1/2+y,-z
-x,-y,-z
x,1/2+y,-z
-x,y,z
x,1/2-y,z
1/2+x,1/2+y,1/2+z
1/2-x,-y,1/2+z
1/2+x,1/2-y,1/2-z
1/2-x,y,1/2-z
1/2-x,1/2-y,1/2-z
1/2+x,y,1/2-z
1/2-x,1/2+y,1/2+z
1/2+x,-y,1/2+z
loop_
_atom_site_type_symbol
_atom_site_label
_atom_site_fract_x
_atom_site_fract_y
_atom_site_fract_z
Si Si1 0.672305 0.570763 0.094238
Si Si2 0.677726 0.308925 0.395451
Si Si3 0.821199 0.386100 0.311336
Si Si4 0.679711 0.250000 0.687700
Si Si5 0.673658 0.035826 0.391540
Si Si6 0.174098 0.349829 0.690589
Si Si7 0.827459 0.386012 0.010230
O O1 0.500000 0.553185 0.084733
O O2 0.779037 0.521961 0.097432
O O3 0.691042 0.600628 0.152387
O O4 0.719660 0.608174 0.043426
O O5 0.500000 0.316077 0.383162
O O6 0.726458 0.250000 0.398134
O O7 0.767170 0.336104 0.345149
O O8 0.718747 0.334957 0.455354
O O9 0.750000 0.384731 0.250000
O O10 0.772639 0.438208 0.342606
O O11 0.000000 0.384971 0.305889
O O12 0.500000 0.250000 0.687061
O O13 0.750000 0.250000 0.750000
O O14 0.742518 0.198024 0.659286
O O15 0.500000 0.037800 0.371742
O O16 0.695938 0.065083 0.450083
O O17 0.250000 0.363398 0.750000
O O18 0.000000 0.334943 0.700909
O O19 0.000000 0.382279 0.989073
#
# Coordination Sequence:
#
# PCOD8297990 Si02
#       7
#    16  16  16   8  16  16  16
#     4  11  23  36  54  83 114 145 183 230 280 333
#     4   9  19  38  61  84 115 152 190 237 288 336
#     4  11  22  37  58  85 117 152 193 235 281 340
#     4  10  18  32  56  78  98 132 172 210 257 312
#     4  10  21  38  59  81 110 147 186 232 281 330
#     4  10  21  37  55  77 108 141 177 220 270 322
#     4   9  19  36  57  81 110 146 188 229 277 334
#
# _framework density 19.005568
#
# number of rings (size 3 to 8) (size 9 to 14) (size 15 to 20)
#    0.000    2.000    0.000    5.769    0.000    8.615 
#    1.385    1.538    0.000    0.000    0.000    0.000 
#    0.000    0.000    0.000    0.000    0.000    0.000 
#
# Total GULP energy -644899.403282 kJ/mol
# GULP energy per Si atom -12401.911602 kJ/mol
# Density = 1.896231 g / cm^3
# Si number density = 19.005568 Si / 1000 Ang^3
#
#
#
# Elastic Constant Matrix: (Units=GPa)
#
#
# Indices 1 2 3 4 5 6 
#
# 1 119.1995 31.7756 51.8186 0.0000 0.0000 0.0000
# 2 31.7756 65.2538 39.5704 0.0000 0.0000 0.0000
# 3 51.8186 39.5704 99.9897 0.0000 0.0000 0.0000
# 4 0.0000 0.0000 0.0000 13.8615 0.0000 0.0000
# 5 0.0000 0.0000 0.0000 0.0000 33.2733 0.0000
# 6 0.0000 0.0000 0.0000 0.0000 0.0000 28.8170
#
#
#
# Elastic Compliance Matrix: (Units=1/GPa)
#
#
# Indices 1 2 3 4 5 6 
#
# 1 0.011138 -0.002531 -0.004771 0.000000 0.000000 0.000000
# 2 -0.002531 0.020739 -0.006896 0.000000 0.000000 0.000000
# 3 -0.004771 -0.006896 0.015202 0.000000 0.000000 0.000000
# 4 0.000000 0.000000 0.000000 0.072142 0.000000 0.000000
# 5 0.000000 0.000000 0.000000 0.000000 0.030054 0.000000
# 6 0.000000 0.000000 0.000000 0.000000 0.000000 0.034702
#
#
# Mechanical properties :
#
#
# Convention : Reuss Voigt Hill
#
# Bulk Modulus (GPa) = 53.51928 58.97466 56.24697
# Shear Modulus (GPa) = 22.87293 25.94225 24.40759
#
# Velocity S-wave (km/s) = 3.47289 3.69857 3.58751
# Velocity P-wave (km/s) = 6.65599 7.02402 6.84248
#
# Compressibility (1/GPa) = 0.01868485
#
# Stress axis : x y z
#
# Youngs Moduli (GPa) = 89.78463 48.21891 65.77978
#
# Poissons Ratio (x) = 0.12203 0.31380
# Poissons Ratio (y) = 0.22722 0.45360
# Poissons Ratio (z) = 0.42832 0.33250
#
# Static dielectric constant tensor:
#      x y z
#    x 3.569140 0.000000 0.000000 
#    y 0.000000 3.719940 0.000000 
#    z 0.000000 0.000000 3.364850 
# 
# 
# High freq. dielectric constant tensor:
#      x y z
#    x 1.748600 0.000000 0.000000 
#    y 0.000000 1.744790 0.000000 
#    z 0.000000 0.000000 1.728170 
# 
# From -- ./inp_files/49282.got.cif
#   From: 2010.03.12/outbox.cif.g09.slc.cpg/sg74_25_cif.got.tgz:49282.got - 2010.04.16 15:46:19.
