data_PCOD8297084
_publ_section_title
;
Structure prediction by ZEFSAII (Michael W. Deem and Ramdas Pophale) SiO2 
 PCOD8297084
Probable space group: I B C A 
;
_chemical_formula_sum "Si O2"
_cell_formula_units_Z 56
_cell_length_a 9.590811
_cell_length_b 10.677071
_cell_length_c 23.513924
_cell_angle_alpha 90.000000
_cell_angle_beta 90.000000
_cell_angle_gamma 90.000000
_cell_volume 2407.867437
_symmetry_space_group_name_H-M "I B C A "
_symmetry_group_IT_number 73
_symmetry_cell_setting 'orthorhombic'
loop_
_space_group_symop_operation_xyz
x,y,z
-x,1/2-y,z
x,-y,1/2-z
1/2-x,y,-z
-x,-y,-z
x,1/2+y,-z
-x,y,1/2+z
1/2+x,-y,z
1/2+x,1/2+y,1/2+z
1/2-x,-y,1/2+z
1/2+x,1/2-y,-z
-x,1/2+y,1/2-z
1/2-x,1/2-y,1/2-z
1/2+x,y,1/2-z
1/2-x,1/2+y,z
x,1/2-y,1/2+z
loop_
_atom_site_type_symbol
_atom_site_label
_atom_site_fract_x
_atom_site_fract_y
_atom_site_fract_z
Si Si1 0.736262 0.114555 0.647873
Si Si2 0.874493 0.034025 0.040976
Si Si3 0.000000 0.250000 0.790114
Si Si4 0.000000 0.250000 0.606894
Si Si5 0.635289 0.500000 0.750000
O O1 0.633762 0.220967 0.671100
O O2 0.893323 0.166205 0.642420
O O3 0.666266 0.065859 0.589708
O O4 0.761829 0.006143 0.695014
O O5 0.901337 0.166082 0.068808
O O6 0.750000 0.057746 0.000000
O O7 0.000000 0.000000 0.000000
O O8 0.040095 0.373734 0.753508
#
# Coordination Sequence:
#
# PCOD8297084 Si02
#       5
#    16  16   8   8   8
#     4  12  27  50  76 117 153 209 261 328 393 477
#     4  12  28  50  74 111 152 204 265 323 391 465
#     4  12  27  47  86 110 166 204 268 324 402 470
#     4  12  27  47  78 104 158 200 260 324 400 462
#     4  12  26  52  78 122 160 210 264 330 402 478
#
# _framework density 23.257093999999999
#
# number of rings (size 3 to 8) (size 9 to 14) (size 15 to 20)
#    0.000    0.000    2.857    6.000    8.000    0.000 
#    0.000    0.000    0.000    0.000    0.000    0.000 
#    0.000    0.000    0.000    0.000    0.000    0.000 
#
# Total GULP energy -347062.726460 kJ/mol
# GULP energy per Si atom -12395.097374 kJ/mol
# Density = 2.320416 g / cm^3
# Si number density = 23.257094 Si / 1000 Ang^3
#
#
#
# Elastic Constant Matrix: (Units=GPa)
#
#
# Indices 1 2 3 4 5 6 
#
# 1 163.8826 52.1046 79.7457 0.0000 0.0000 0.0000
# 2 52.1046 128.6364 51.2789 0.0000 0.0000 0.0000
# 3 79.7457 51.2789 150.9253 0.0000 0.0000 0.0000
# 4 0.0000 0.0000 0.0000 -11.8753 0.0000 0.0000
# 5 0.0000 0.0000 0.0000 0.0000 72.5613 0.0000
# 6 0.0000 0.0000 0.0000 0.0000 0.0000 53.5020
#
#
#
# Elastic Compliance Matrix: (Units=1/GPa)
#
#
# Indices 1 2 3 4 5 6 
#
# 1 0.008612 -0.001937 -0.003892 0.000000 0.000000 0.000000
# 2 -0.001937 0.009427 -0.002180 0.000000 0.000000 0.000000
# 3 -0.003892 -0.002180 0.009423 0.000000 0.000000 0.000000
# 4 0.000000 0.000000 0.000000 -0.084208 0.000000 0.000000
# 5 0.000000 0.000000 0.000000 0.000000 0.013781 0.000000
# 6 0.000000 0.000000 0.000000 0.000000 0.000000 0.018691
#
#
# Mechanical properties :
#
#
# Convention : Reuss Voigt Hill
#
# Bulk Modulus (GPa) = 87.37715 89.96697 88.67206
# Shear Modulus (GPa) = -1125.59394 40.19195 -542.70099
#
# Velocity S-wave (km/s) = -22.02338 4.16162 -15.29232
# Velocity P-wave (km/s) = 24.67902 7.86510 16.54077
#
# Compressibility (1/GPa) = 0.01144464
#
# Stress axis : x y z
#
# Youngs Moduli (GPa) = 116.12242 106.07602 106.12390
#
# Poissons Ratio (x) = 0.20543 0.41306
# Poissons Ratio (y) = 0.22488 0.23132
# Poissons Ratio (z) = 0.45197 0.23122
#
# Static dielectric constant tensor:
#      x y z
#    x 4.300500 0.000000 0.000000 
#    y 0.000000 4.150540 0.000000 
#    z 0.000000 0.000000 4.575220 
# 
# 
# High freq. dielectric constant tensor:
#      x y z
#    x 1.942950 0.000000 0.000000 
#    y 0.000000 1.918370 0.000000 
#    z 0.000000 0.000000 1.938290 
# 
# From -- ./inp_files/3882.got.cif
#   From: 2010.03.12/outbox.cif.g09.slc.cpg/sg73_2_cif.got.tgz:3882.got - 2010.04.16 15:25:48.
