data_PCOD8297272
_publ_section_title
;
Structure prediction by ZEFSAII (Michael W. Deem and Ramdas Pophale) SiO2 
 PCOD8297272
Probable space group: I M M A
;
_chemical_formula_sum "Si O2"
_cell_formula_units_Z 80
_cell_length_a 8.869176
_cell_length_b 23.541815
_cell_length_c 26.338170
_cell_angle_alpha 90.000000
_cell_angle_beta 90.000000
_cell_angle_gamma 90.000000
_cell_volume 5499.317728
_symmetry_space_group_name_H-M "I M M A"
_symmetry_group_IT_number 74
_symmetry_cell_setting 'orthorhombic'
loop_
_space_group_symop_operation_xyz
x,y,z
-x,1/2-y,z
x,-y,-z
-x,1/2+y,-z
-x,-y,-z
x,1/2+y,-z
-x,y,z
x,1/2-y,z
1/2+x,1/2+y,1/2+z
1/2-x,-y,1/2+z
1/2+x,1/2-y,1/2-z
1/2-x,y,1/2-z
1/2-x,1/2-y,1/2-z
1/2+x,y,1/2-z
1/2-x,1/2+y,1/2+z
1/2+x,-y,1/2+z
loop_
_atom_site_type_symbol
_atom_site_label
_atom_site_fract_x
_atom_site_fract_y
_atom_site_fract_z
Si Si1 0.833251 0.539489 0.950918
Si Si2 0.179134 0.250000 0.648414
Si Si3 0.676440 0.127424 0.988483
Si Si4 0.820839 0.132401 0.696029
Si Si5 0.678683 0.567375 0.393412
Si Si6 0.176534 0.750000 0.464845
O O1 0.781110 0.499136 0.904375
O O2 0.000000 0.564104 0.940646
O O3 0.835577 0.500000 0.000000
O O4 0.722464 0.592704 0.960760
O O5 0.237317 0.305867 0.677648
O O6 0.249171 0.250000 0.591651
O O7 0.000000 0.250000 0.646733
O O8 0.500000 0.119423 0.978448
O O9 0.764288 0.106462 0.939159
O O10 0.721975 0.193587 0.996224
O O11 0.750000 0.118499 0.750000
O O12 0.762618 0.084136 0.657908
O O13 0.000000 0.129756 0.699153
O O14 0.500000 0.575661 0.388293
O O15 0.000000 0.750000 0.455540
#
# Coordination Sequence:
#
# PCOD8297272 Si02
#       6
#    16   8  16  16  16   8
#     4   8  16  29  42  58  82 105 130 169 211 250
#     4   9  17  31  45  57  80 110 142 181 219 247
#     4  10  17  27  44  62  82 108 139 171 207 251
#     4  11  21  33  47  61  80 107 142 182 219 256
#     4  10  19  31  44  59  81 107 136 174 216 252
#     4   9  16  27  41  61  86 111 138 176 214 241
#
# _framework density 14.547259
#
# number of rings (size 3 to 8) (size 9 to 14) (size 15 to 20)
#    0.000    2.400    2.000    3.300    0.000    4.400 
#    0.000    4.500    0.000    0.000    0.000    0.000 
#    0.000    0.000    0.000    0.900    0.000   11.600 
#
# Total GULP energy -495779.365556 kJ/mol
# GULP energy per Si atom -12394.484139 kJ/mol
# Density = 1.451415 g / cm^3
# Si number density = 14.547259 Si / 1000 Ang^3
#
#
#
# Elastic Constant Matrix: (Units=GPa)
#
#
# Indices 1 2 3 4 5 6 
#
# 1 60.1875 40.0311 29.1352 0.0000 0.0000 0.0000
# 2 40.0311 104.1875 57.5706 0.0000 0.0000 0.0000
# 3 29.1352 57.5706 70.4631 0.0000 0.0000 0.0000
# 4 0.0000 0.0000 0.0000 15.2391 0.0000 0.0000
# 5 0.0000 0.0000 0.0000 0.0000 21.1314 0.0000
# 6 0.0000 0.0000 0.0000 0.0000 0.0000 8.9131
#
#
#
# Elastic Compliance Matrix: (Units=1/GPa)
#
#
# Indices 1 2 3 4 5 6 
#
# 1 0.022971 -0.006522 -0.004169 0.000000 0.000000 0.000000
# 2 -0.006522 0.019349 -0.013112 0.000000 0.000000 0.000000
# 3 -0.004169 -0.013112 0.026629 0.000000 0.000000 0.000000
# 4 0.000000 0.000000 0.000000 0.065621 0.000000 0.000000
# 5 0.000000 0.000000 0.000000 0.000000 0.047323 0.000000
# 6 0.000000 0.000000 0.000000 0.000000 0.000000 0.112194
#
#
# Mechanical properties :
#
#
# Convention : Reuss Voigt Hill
#
# Bulk Modulus (GPa) = 46.85633 54.25687 50.55660
# Shear Modulus (GPa) = 14.33450 16.26347 15.29899
#
# Velocity S-wave (km/s) = 3.14247 3.34724 3.24647
# Velocity P-wave (km/s) = 6.74140 7.23302 6.99154
#
# Compressibility (1/GPa) = 0.02134183
#
# Stress axis : x y z
#
# Youngs Moduli (GPa) = 43.53339 51.68097 37.55310
#
# Poissons Ratio (x) = 0.33707 0.15657
# Poissons Ratio (y) = 0.28393 0.49241
# Poissons Ratio (z) = 0.18150 0.67766
#
# Static dielectric constant tensor:
#      x y z
#    x 2.828830 0.000000 0.000000 
#    y 0.000000 3.120110 0.000000 
#    z 0.000000 0.000000 2.711230 
# 
# 
# High freq. dielectric constant tensor:
#      x y z
#    x 1.557190 0.000000 0.000000 
#    y 0.000000 1.548530 0.000000 
#    z 0.000000 0.000000 1.516030 
# 
# From -- ./inp_files/64208.got.cif
#   From: 2010.03.12/outbox.cif.g09.slc.cpg/sg74_33_cif.got.tgz:64208.got - 2010.04.16 15:46:19.
