data_PCOD8297901
_publ_section_title
;
Structure prediction by ZEFSAII (Michael W. Deem and Ramdas Pophale) SiO2 
 PCOD8297901
Probable space group: I M M A
;
_chemical_formula_sum "Si O2"
_cell_formula_units_Z 104
_cell_length_a 8.714452
_cell_length_b 26.935959
_cell_length_c 24.188436
_cell_angle_alpha 90.000000
_cell_angle_beta 90.000000
_cell_angle_gamma 90.000000
_cell_volume 5677.802905
_symmetry_space_group_name_H-M "I M M A"
_symmetry_group_IT_number 74
_symmetry_cell_setting 'orthorhombic'
loop_
_space_group_symop_operation_xyz
x,y,z
-x,1/2-y,z
x,-y,-z
-x,1/2+y,-z
-x,-y,-z
x,1/2+y,-z
-x,y,z
x,1/2-y,z
1/2+x,1/2+y,1/2+z
1/2-x,-y,1/2+z
1/2+x,1/2-y,1/2-z
1/2-x,y,1/2-z
1/2-x,1/2-y,1/2-z
1/2+x,y,1/2-z
1/2-x,1/2+y,1/2+z
1/2+x,-y,1/2+z
loop_
_atom_site_type_symbol
_atom_site_label
_atom_site_fract_x
_atom_site_fract_y
_atom_site_fract_z
Si Si1 0.817682 0.538487 0.611502
Si Si2 0.318585 0.623526 0.809942
Si Si3 0.182510 0.391060 0.484688
Si Si4 0.182132 0.928131 0.398992
Si Si5 0.817408 0.805618 0.592661
Si Si6 0.682154 0.250000 0.688746
Si Si7 0.318656 0.150941 0.810101
O O1 0.763076 0.570443 0.664835
O O2 0.760160 0.565392 0.555909
O O3 0.748152 0.482960 0.611644
O O4 0.000000 0.536095 0.611650
O O5 0.500000 0.624274 0.804985
O O6 0.250000 0.632432 0.750000
O O7 0.262690 0.667597 0.850797
O O8 0.250341 0.402832 0.545368
O O9 0.239664 0.337846 0.460462
O O10 0.000000 0.390482 0.486580
O O11 0.231442 0.895335 0.347058
O O12 0.000000 0.931327 0.404691
O O13 0.747378 0.750000 0.589423
O O14 0.000000 0.803295 0.592340
O O15 0.500000 0.250000 0.689092
O O16 0.750000 0.250000 0.750000
O O17 0.746962 0.299980 0.660530
O O18 0.500000 0.157576 0.805817
O O19 0.250000 0.141348 0.750000
#
# Coordination Sequence:
#
# PCOD8297901 Si02
#       7
#    16  16  16  16  16   8  16
#     4   8  14  25  41  60  88 121 149 182 226 272
#     4   9  17  28  43  64  90 121 154 184 219 264
#     4   8  13  23  39  61  88 119 149 181 229 274
#     4   9  16  25  40  65  92 117 147 185 226 267
#     4   8  14  25  40  60  89 120 146 181 231 275
#     4  10  18  32  52  66  82 114 150 178 215 260
#     4  10  19  31  46  67  94 118 146 182 224 267
#
# _framework density 18.316943999999999
#
# number of rings (size 3 to 8) (size 9 to 14) (size 15 to 20)
#    0.000    3.231    0.000    4.385    0.000    2.769 
#    1.385    0.000    0.000    0.923    0.000    8.615 
#    0.000    9.846    0.000    0.000    0.000    0.000 
#
# Total GULP energy -644343.495721 kJ/mol
# GULP energy per Si atom -12391.221072 kJ/mol
# Density = 1.827525 g / cm^3
# Si number density = 18.316944 Si / 1000 Ang^3
#
#
#
# Elastic Constant Matrix: (Units=GPa)
#
#
# Indices 1 2 3 4 5 6 
#
# 1 32.9705 23.3413 15.6303 0.0000 0.0000 0.0000
# 2 23.3413 201.8827 87.4918 0.0000 0.0000 0.0000
# 3 15.6303 87.4918 107.0815 -0.0001 0.0000 0.0000
# 4 0.0000 0.0000 -0.0001 19.8484 0.0000 0.0000
# 5 0.0000 0.0000 0.0000 0.0000 17.2062 0.0000
# 6 0.0000 0.0000 0.0000 0.0000 0.0000 9.9197
#
#
#
# Elastic Compliance Matrix: (Units=1/GPa)
#
#
# Indices 1 2 3 4 5 6 
#
# 1 0.033521 -0.002717 -0.002673 0.000000 0.000000 0.000000
# 2 -0.002717 0.007889 -0.006049 0.000000 0.000000 0.000000
# 3 -0.002673 -0.006049 0.014671 0.000000 0.000000 0.000000
# 4 0.000000 0.000000 0.000000 0.050382 0.000000 0.000000
# 5 0.000000 0.000000 0.000000 0.000000 0.058119 0.000000
# 6 0.000000 0.000000 0.000000 0.000000 0.000000 0.100810
#
#
# Mechanical properties :
#
#
# Convention : Reuss Voigt Hill
#
# Bulk Modulus (GPa) = 30.11787 66.09572 48.10680
# Shear Modulus (GPa) = 16.70353 23.75961 20.23157
#
# Velocity S-wave (km/s) = 3.02307 3.60549 3.32705
# Velocity P-wave (km/s) = 5.35384 7.31406 6.40933
#
# Compressibility (1/GPa) = 0.03320287
#
# Stress axis : x y z
#
# Youngs Moduli (GPa) = 29.83212 126.75597 68.15974
#
# Poissons Ratio (x) = 0.34444 0.18217
# Poissons Ratio (y) = 0.08106 0.41232
# Poissons Ratio (z) = 0.07973 0.76678
#
# Static dielectric constant tensor:
#      x y z
#    x 2.765890 0.000000 0.000000 
#    y 0.000000 4.065730 0.000000 
#    z 0.000000 0.000000 3.499110 
# 
# 
# High freq. dielectric constant tensor:
#      x y z
#    x 1.647650 0.000000 0.000000 
#    y 0.000000 1.725480 0.000000 
#    z 0.000000 0.000000 1.702630 
# 
# From -- ./inp_files/57603.got.cif
#   From: 2010.03.12/outbox.cif.g09.slc.cpg/sg74_29_cif.got.tgz:57603.got - 2010.04.16 15:46:19.
