data_PCOD8297860
_publ_section_title
;
Structure prediction by ZEFSAII (Michael W. Deem and Ramdas Pophale) SiO2 
 PCOD8297860
Probable space group: I M M A
;
_chemical_formula_sum "Si O2"
_cell_formula_units_Z 96
_cell_length_a 9.673414
_cell_length_b 22.611427
_cell_length_c 23.242107
_cell_angle_alpha 90.000000
_cell_angle_beta 90.000000
_cell_angle_gamma 90.000000
_cell_volume 5083.738964
_symmetry_space_group_name_H-M "I M M A"
_symmetry_group_IT_number 74
_symmetry_cell_setting 'orthorhombic'
loop_
_space_group_symop_operation_xyz
x,y,z
-x,1/2-y,z
x,-y,-z
-x,1/2+y,-z
-x,-y,-z
x,1/2+y,-z
-x,y,z
x,1/2-y,z
1/2+x,1/2+y,1/2+z
1/2-x,-y,1/2+z
1/2+x,1/2-y,1/2-z
1/2-x,y,1/2-z
1/2-x,1/2-y,1/2-z
1/2+x,y,1/2-z
1/2-x,1/2+y,1/2+z
1/2+x,-y,1/2+z
loop_
_atom_site_type_symbol
_atom_site_label
_atom_site_fract_x
_atom_site_fract_y
_atom_site_fract_z
Si Si1 0.500000 0.684563 0.682383
Si Si2 0.841434 0.180086 0.802519
Si Si3 0.158295 0.476262 0.090321
Si Si4 0.338803 0.180716 0.913073
Si Si5 0.750355 0.395190 0.317702
Si Si6 0.500000 0.315587 0.181986
Si Si7 0.160016 0.092878 0.974607
O O1 0.500000 0.750000 0.653722
O O2 0.627255 0.646307 0.661861
O O3 0.500000 0.693033 0.750222
O O4 0.852399 0.250000 0.796205
O O5 0.750000 0.154058 0.750000
O O6 0.755446 0.162294 0.858854
O O7 0.000000 0.154361 0.803563
O O8 0.247698 0.456006 0.145840
O O9 0.203887 0.541215 0.070028
O O10 0.000000 0.478268 0.109713
O O11 0.179391 0.429691 0.039125
O O12 0.500000 0.162505 0.904105
O O13 0.328973 0.250000 0.925772
O O14 0.267585 0.146658 0.966283
O O15 0.750000 0.411137 0.250000
O O16 0.873992 0.354675 0.338280
O O17 0.500000 0.250000 0.153395
O O18 0.000000 0.112022 0.964424
#
# Coordination Sequence:
#
# PCOD8297860 Si02
#       7
#     8  16  16  16  16   8  16
#     4   9  16  28  50  73 102 144 181 210 256 316
#     4   9  16  27  47  75 105 139 176 212 258 320
#     4   9  18  37  60  79 101 134 184 229 265 319
#     4  10  20  35  54  78 111 143 174 220 275 328
#     4  10  18  31  53  78 108 142 175 221 270 315
#     4   9  18  30  44  73 110 144 179 210 252 320
#     4   9  19  37  61  79  97 136 184 229 271 320
#
# _framework density 18.88374
#
# number of rings (size 3 to 8) (size 9 to 14) (size 15 to 20)
#    0.000    2.667    0.833    2.500    0.000    5.000 
#    3.000    3.333    0.000    2.000    0.000    0.000 
#    0.000    0.000    0.000    0.000    0.000    0.000 
#
# Total GULP energy -594813.611805 kJ/mol
# GULP energy per Si atom -12391.950246 kJ/mol
# Density = 1.884076 g / cm^3
# Si number density = 18.883740 Si / 1000 Ang^3
#
#
#
# Elastic Constant Matrix: (Units=GPa)
#
#
# Indices 1 2 3 4 5 6 
#
# 1 140.2916 35.1067 34.0727 0.0000 0.0000 0.0000
# 2 35.1067 56.8230 32.0655 0.0000 0.0000 0.0000
# 3 34.0727 32.0655 59.5069 0.0000 0.0000 0.0000
# 4 0.0000 0.0000 0.0000 26.2976 0.0000 0.0000
# 5 0.0000 0.0000 0.0000 0.0000 26.5245 0.0000
# 6 0.0000 0.0000 0.0000 0.0000 0.0000 30.6087
#
#
#
# Elastic Compliance Matrix: (Units=1/GPa)
#
#
# Indices 1 2 3 4 5 6 
#
# 1 0.008796 -0.003725 -0.003029 0.000000 0.000000 0.000000
# 2 -0.003725 0.026865 -0.012344 0.000000 0.000000 0.000000
# 3 -0.003029 -0.012344 0.025191 0.000000 0.000000 0.000000
# 4 0.000000 0.000000 0.000000 0.038026 0.000000 0.000000
# 5 0.000000 0.000000 0.000000 0.000000 0.037701 0.000000
# 6 0.000000 0.000000 0.000000 0.000000 0.000000 0.032670
#
#
# Mechanical properties :
#
#
# Convention : Reuss Voigt Hill
#
# Bulk Modulus (GPa) = 44.13771 51.01238 47.57505
# Shear Modulus (GPa) = 23.25608 27.04460 25.15034
#
# Velocity S-wave (km/s) = 3.51314 3.78850 3.65341
# Velocity P-wave (km/s) = 6.31509 6.79776 6.56086
#
# Compressibility (1/GPa) = 0.02265636
#
# Stress axis : x y z
#
# Youngs Moduli (GPa) = 113.69025 37.22247 39.69722
#
# Poissons Ratio (x) = 0.13865 0.12025
# Poissons Ratio (y) = 0.42349 0.49001
# Poissons Ratio (z) = 0.34439 0.45946
#
# Static dielectric constant tensor:
#      x y z
#    x 3.081090 0.000000 0.000000 
#    y 0.000000 3.321530 0.000000 
#    z 0.000000 0.000000 3.229260 
# 
# 
# High freq. dielectric constant tensor:
#      x y z
#    x 1.737710 0.000000 0.000000 
#    y 0.000000 1.715240 0.000000 
#    z 0.000000 0.000000 1.713760 
# 
# From -- ./inp_files/57361.got.cif
#   From: 2010.03.12/outbox.cif.g09.slc.cpg/sg74_29_cif.got.tgz:57361.got - 2010.04.16 15:46:19.
