data_PCOD8297045
_publ_section_title
;
Structure prediction by ZEFSAII (Michael W. Deem and Ramdas Pophale) SiO2 
 PCOD8297045
Probable space group: I B C A 
;
_chemical_formula_sum "Si O2"
_cell_formula_units_Z 112
_cell_length_a 22.212289
_cell_length_b 12.936130
_cell_length_c 18.786784
_cell_angle_alpha 90.000000
_cell_angle_beta 90.000000
_cell_angle_gamma 90.000000
_cell_volume 5398.214393
_symmetry_space_group_name_H-M "I B C A "
_symmetry_group_IT_number 73
_symmetry_cell_setting 'orthorhombic'
loop_
_space_group_symop_operation_xyz
x,y,z
-x,1/2-y,z
x,-y,1/2-z
1/2-x,y,-z
-x,-y,-z
x,1/2+y,-z
-x,y,1/2+z
1/2+x,-y,z
1/2+x,1/2+y,1/2+z
1/2-x,-y,1/2+z
1/2+x,1/2-y,-z
-x,1/2+y,1/2-z
1/2-x,1/2-y,1/2-z
1/2+x,y,1/2-z
1/2-x,1/2+y,z
x,1/2-y,1/2+z
loop_
_atom_site_type_symbol
_atom_site_label
_atom_site_fract_x
_atom_site_fract_y
_atom_site_fract_z
Si Si1 0.755765 0.091053 0.381763
Si Si2 0.422524 0.333027 0.788426
Si Si3 0.054795 0.196033 0.352638
Si Si4 0.625475 0.326656 0.897006
Si Si5 0.750000 0.921055 0.500000
Si Si6 0.841425 0.745615 0.042736
Si Si7 0.325263 0.500000 0.750000
Si Si8 0.460568 0.471325 0.323502
O O1 0.691805 0.145537 0.368134
O O2 0.796215 0.177534 0.418509
O O3 0.751322 0.990647 0.430471
O O4 0.782445 0.049919 0.308707
O O5 0.433967 0.251107 0.724530
O O6 0.403267 0.271188 0.858136
O O7 0.367038 0.407808 0.775654
O O8 0.481537 0.400459 0.806105
O O9 0.114878 0.198388 0.398327
O O10 0.000000 0.250000 0.393719
O O11 0.023382 0.084092 0.351357
O O12 0.582786 0.423182 0.881856
O O13 0.624054 0.309037 0.981683
O O14 0.691458 0.848870 0.496382
O O15 0.425251 0.500000 0.250000
#
# Coordination Sequence:
#
# PCOD8297045 Si02
#       8
#    16  16  16  16   8  16   8  16
#     4  12  26  45  72 105 144 183 236 287 354 421
#     4  12  24  46  74  99 144 184 232 296 354 412
#     4  12  24  45  70 103 142 184 233 290 352 418
#     4  12  25  46  70 105 138 186 239 289 351 422
#     4  12  22  50  72  96 144 196 224 288 356 418
#     4  12  26  47  70 101 144 190 230 287 357 416
#     4  12  26  42  70 110 138 184 242 288 346 422
#     4  12  24  44  75 102 135 186 231 292 359 412
#
# _framework density 20.747602000000001
#
# number of rings (size 3 to 8) (size 9 to 14) (size 15 to 20)
#    0.000    0.000    7.857    2.143    1.000    2.857 
#    0.000    1.429    0.000    0.000    0.000    0.000 
#    0.000    0.000    0.000    0.000    0.000    0.000 
#
# Total GULP energy -694084.047874 kJ/mol
# GULP energy per Si atom -12394.357998 kJ/mol
# Density = 2.070038 g / cm^3
# Si number density = 20.747602 Si / 1000 Ang^3
#
#
#
# Elastic Constant Matrix: (Units=GPa)
#
#
# Indices 1 2 3 4 5 6 
#
# 1 109.5145 55.2455 62.2809 0.0000 0.0000 0.0000
# 2 55.2455 141.4163 42.0409 0.0000 0.0000 0.0000
# 3 62.2809 42.0409 77.4287 0.0000 0.0000 0.0000
# 4 0.0000 0.0000 0.0000 33.3509 0.0000 0.0000
# 5 0.0000 0.0000 0.0000 0.0000 42.6018 0.0000
# 6 0.0000 0.0000 0.0000 0.0000 0.0000 33.7200
#
#
#
# Elastic Compliance Matrix: (Units=1/GPa)
#
#
# Indices 1 2 3 4 5 6 
#
# 1 0.018003 -0.003253 -0.012715 0.000000 0.000000 0.000000
# 2 -0.003253 0.009020 -0.002281 0.000000 0.000000 0.000000
# 3 -0.012715 -0.002281 0.024381 0.000000 0.000000 0.000000
# 4 0.000000 0.000000 0.000000 0.029984 0.000000 0.000000
# 5 0.000000 0.000000 0.000000 0.000000 0.023473 0.000000
# 6 0.000000 0.000000 0.000000 0.000000 0.000000 0.029656
#
#
# Mechanical properties :
#
#
# Convention : Reuss Voigt Hill
#
# Bulk Modulus (GPa) = 67.08445 71.94376 69.51410
# Shear Modulus (GPa) = 28.41161 33.18735 30.79948
#
# Velocity S-wave (km/s) = 3.70454 4.00381 3.85708
# Velocity P-wave (km/s) = 7.12053 7.49166 7.30845
#
# Compressibility (1/GPa) = 0.01490658
#
# Stress axis : x y z
#
# Youngs Moduli (GPa) = 55.54570 110.86110 41.01577
#
# Poissons Ratio (x) = 0.36065 0.52151
# Poissons Ratio (y) = 0.18070 0.09355
# Poissons Ratio (z) = 0.70625 0.25287
#
# Static dielectric constant tensor:
#      x y z
#    x 3.976060 0.000000 0.000000 
#    y 0.000000 4.060070 0.000000 
#    z 0.000000 0.000000 4.188670 
# 
# 
# High freq. dielectric constant tensor:
#      x y z
#    x 1.818450 0.000000 0.000000 
#    y 0.000000 1.842790 0.000000 
#    z 0.000000 0.000000 1.806120 
# 
# From -- ./inp_files/27324.got.cif
#   From: 2010.03.12/outbox.cif.g09.slc.cpg/sg73_14_cif.got.tgz:27324.got - 2010.04.16 15:25:48.
