data_PCOD8297537
_publ_section_title
;
Structure prediction by ZEFSAII (Michael W. Deem and Ramdas Pophale) SiO2 
 PCOD8297537
Probable space group: I M M A
;
_chemical_formula_sum "Si O2"
_cell_formula_units_Z 112
_cell_length_a 25.009330
_cell_length_b 20.840591
_cell_length_c 11.712642
_cell_angle_alpha 90.000000
_cell_angle_beta 90.000000
_cell_angle_gamma 90.000000
_cell_volume 6104.736974
_symmetry_space_group_name_H-M "I M M A"
_symmetry_group_IT_number 74
_symmetry_cell_setting 'orthorhombic'
loop_
_space_group_symop_operation_xyz
x,y,z
-x,1/2-y,z
x,-y,-z
-x,1/2+y,-z
-x,-y,-z
x,1/2+y,-z
-x,y,z
x,1/2-y,z
1/2+x,1/2+y,1/2+z
1/2-x,-y,1/2+z
1/2+x,1/2-y,1/2-z
1/2-x,y,1/2-z
1/2-x,1/2-y,1/2-z
1/2+x,y,1/2-z
1/2-x,1/2+y,1/2+z
1/2+x,-y,1/2+z
loop_
_atom_site_type_symbol
_atom_site_label
_atom_site_fract_x
_atom_site_fract_y
_atom_site_fract_z
Si Si1 0.191587 0.176092 0.242209
Si Si2 0.758993 0.826167 0.376181
Si Si3 0.439363 0.027272 0.316400
Si Si4 0.437263 0.436008 0.070390
Si Si5 0.361871 0.824427 0.984231
Si Si6 0.155906 0.174643 0.005640
Si Si7 0.561097 0.403997 0.552490
O O1 0.201759 0.250000 0.211099
O O2 0.250000 0.142405 0.250000
O O3 0.160151 0.167822 0.357723
O O4 0.156663 0.148383 0.136485
O O5 0.757068 0.750000 0.376350
O O6 0.750000 0.854297 0.250000
O O7 0.816341 0.847163 0.426805
O O8 0.710309 0.853431 0.451232
O O9 0.500000 0.013586 0.281979
O O10 0.412796 0.053579 0.198990
O O11 0.436162 0.076777 0.419818
O O12 0.417098 0.959246 0.362546
O O13 0.500000 0.420722 0.072611
O O14 0.410901 0.374238 0.007690
O O15 0.424073 0.500000 0.000000
O O16 0.379717 0.750000 0.006206
O O17 0.154518 0.250000 0.996220
O O18 0.103324 0.153196 0.935694
O O19 0.500000 0.383227 0.582122
#
# Coordination Sequence:
#
# PCOD8297537 Si02
#       7
#    16  16  16  16  16  16  16
#     4   9  15  27  48  75 103 132 170 216 265 317
#     4   9  18  32  49  71 100 136 173 207 248 304
#     4   8  16  33  52  70  94 131 177 211 246 309
#     4  10  21  36  55  77 105 141 176 212 261 319
#     4  10  19  33  56  81 105 134 173 220 263 308
#     4  10  18  28  47  76 106 135 170 210 260 316
#     4   9  17  30  51  75 100 134 174 214 256 307
#
# _framework density 18.346408
#
# number of rings (size 3 to 8) (size 9 to 14) (size 15 to 20)
#    0.000    2.714    1.429    1.714    0.000    1.714 
#    0.000    0.000    3.143    6.000    0.000    8.000 
#    0.000    0.000    0.000    0.000    0.000    0.000 
#
# Total GULP energy -693777.336700 kJ/mol
# GULP energy per Si atom -12388.881013 kJ/mol
# Density = 1.830465 g / cm^3
# Si number density = 18.346408 Si / 1000 Ang^3
#
#
#
# Elastic Constant Matrix: (Units=GPa)
#
#
# Indices 1 2 3 4 5 6 
#
# 1 94.0600 49.8173 30.8674 0.0000 0.0000 0.0000
# 2 49.8173 61.3446 29.9975 0.0000 0.0000 0.0000
# 3 30.8674 29.9975 97.3517 0.0000 0.0000 0.0000
# 4 0.0000 0.0000 0.0000 16.5368 0.0000 0.0000
# 5 0.0000 0.0000 0.0000 0.0000 21.1862 0.0000
# 6 0.0000 0.0000 0.0000 0.0000 0.0000 10.9749
#
#
#
# Elastic Compliance Matrix: (Units=1/GPa)
#
#
# Indices 1 2 3 4 5 6 
#
# 1 0.018835 -0.014571 -0.001482 0.000000 0.000000 0.000000
# 2 -0.014571 0.030466 -0.004768 0.000000 0.000000 0.000000
# 3 -0.001482 -0.004768 0.012211 0.000000 0.000000 0.000000
# 4 0.000000 0.000000 0.000000 0.060471 0.000000 0.000000
# 5 0.000000 0.000000 0.000000 0.000000 0.047201 0.000000
# 6 0.000000 0.000000 0.000000 0.000000 0.000000 0.091117
#
#
# Mechanical properties :
#
#
# Convention : Reuss Voigt Hill
#
# Bulk Modulus (GPa) = 50.32627 52.68007 51.50317
# Shear Modulus (GPa) = 16.20401 19.21120 17.70761
#
# Velocity S-wave (km/s) = 2.97513 3.23946 3.11011
# Velocity P-wave (km/s) = 6.26838 6.53977 6.40551
#
# Compressibility (1/GPa) = 0.01987034
#
# Stress axis : x y z
#
# Youngs Moduli (GPa) = 53.09195 32.82383 81.89305
#
# Poissons Ratio (x) = 0.47828 0.12138
# Poissons Ratio (y) = 0.77361 0.39043
# Poissons Ratio (z) = 0.07869 0.15649
#
# Static dielectric constant tensor:
#      x y z
#    x 3.383300 0.000000 0.000000 
#    y 0.000000 3.030930 0.000000 
#    z 0.000000 0.000000 3.656970 
# 
# 
# High freq. dielectric constant tensor:
#      x y z
#    x 1.701610 0.000000 0.000000 
#    y 0.000000 1.669580 0.000000 
#    z 0.000000 0.000000 1.719840 
# 
# From -- ./inp_files/24155.got.cif
#   From: 2010.03.12/outbox.cif.g09.slc.cpg/sg74_13_cif.got.tgz:24155.got - 2010.04.16 15:46:19.
