data_PCOD8297611
_publ_section_title
;
Structure prediction by ZEFSAII (Michael W. Deem and Ramdas Pophale) SiO2 
 PCOD8297611
Probable space group: I M M A
;
_chemical_formula_sum "Si O2"
_cell_formula_units_Z 112
_cell_length_a 15.596808
_cell_length_b 14.405325
_cell_length_c 25.128125
_cell_angle_alpha 90.000000
_cell_angle_beta 90.000000
_cell_angle_gamma 90.000000
_cell_volume 5645.713957
_symmetry_space_group_name_H-M "I M M A"
_symmetry_group_IT_number 74
_symmetry_cell_setting 'orthorhombic'
loop_
_space_group_symop_operation_xyz
x,y,z
-x,1/2-y,z
x,-y,-z
-x,1/2+y,-z
-x,-y,-z
x,1/2+y,-z
-x,y,z
x,1/2-y,z
1/2+x,1/2+y,1/2+z
1/2-x,-y,1/2+z
1/2+x,1/2-y,1/2-z
1/2-x,y,1/2-z
1/2-x,1/2-y,1/2-z
1/2+x,y,1/2-z
1/2-x,1/2+y,1/2+z
1/2+x,-y,1/2+z
loop_
_atom_site_type_symbol
_atom_site_label
_atom_site_fract_x
_atom_site_fract_y
_atom_site_fract_z
Si Si1 0.748924 0.643090 0.812830
Si Si2 0.899421 0.647136 0.083035
Si Si3 0.355538 0.853485 0.534257
Si Si4 0.401246 0.850503 0.085456
Si Si5 0.826760 0.401137 0.477887
Si Si6 0.903778 0.961339 0.867659
Si Si7 0.901814 0.956382 0.626927
O O1 0.750859 0.750000 0.831764
O O2 0.750000 0.635575 0.750000
O O3 0.835119 0.592926 0.832686
O O4 0.661725 0.594846 0.832769
O O5 0.864765 0.750000 0.100027
O O6 0.875813 0.570123 0.127543
O O7 0.000000 0.651270 0.074672
O O8 0.859438 0.614734 0.027093
O O9 0.393173 0.750000 0.540539
O O10 0.255255 0.854651 0.550625
O O11 0.408806 0.920329 0.572668
O O12 0.500000 0.870988 0.074427
O O13 0.386417 0.750000 0.113940
O O14 0.368829 0.935851 0.122117
O O15 0.358546 0.841331 0.027546
O O16 0.797937 0.500000 0.500000
O O17 0.898595 0.410883 0.431966
O O18 0.000000 0.953233 0.842881
O O19 0.000000 0.949049 0.647949
#
# Coordination Sequence:
#
# PCOD8297611 Si02
#       7
#    16  16  16  16  16  16  16
#     4  11  26  46  64  84 109 137 181 242 297 343
#     4   9  19  34  53  83 121 157 191 224 264 324
#     4  11  20  29  48  82 122 159 193 227 267 321
#     4   9  18  32  52  84 123 158 191 225 265 323
#     4  10  18  29  48  79 120 159 193 227 265 318
#     4  11  22  38  61  85 113 151 190 231 281 335
#     4  10  21  38  61  85 113 152 192 231 280 335
#
# _framework density 19.838058
#
# number of rings (size 3 to 8) (size 9 to 14) (size 15 to 20)
#    0.000    1.857    1.429    3.000    2.000    6.000 
#    0.000    1.429    0.000    1.714    0.000    4.000 
#    0.000    0.000    0.000    0.000    0.000    0.000 
#
# Total GULP energy -694096.795098 kJ/mol
# GULP energy per Si atom -12394.585627 kJ/mol
# Density = 1.979291 g / cm^3
# Si number density = 19.838058 Si / 1000 Ang^3
#
#
#
# Elastic Constant Matrix: (Units=GPa)
#
#
# Indices 1 2 3 4 5 6 
#
# 1 92.2506 44.8357 33.9755 0.0000 0.0000 0.0000
# 2 44.8357 134.3915 49.0619 0.0000 0.0000 0.0000
# 3 33.9755 49.0619 55.8060 0.0000 0.0000 0.0000
# 4 0.0000 0.0000 0.0000 23.4427 0.0000 0.0000
# 5 0.0000 0.0000 0.0000 0.0000 17.5357 0.0000
# 6 0.0000 0.0000 0.0000 0.0000 0.0000 27.4461
#
#
#
# Elastic Compliance Matrix: (Units=1/GPa)
#
#
# Indices 1 2 3 4 5 6 
#
# 1 0.014469 -0.002373 -0.006723 0.000000 0.000000 0.000000
# 2 -0.002373 0.011347 -0.008531 0.000000 0.000000 0.000000
# 3 -0.006723 -0.008531 0.029512 0.000000 0.000000 0.000000
# 4 0.000000 0.000000 0.000000 0.042657 0.000000 0.000000
# 5 0.000000 0.000000 0.000000 0.000000 0.057027 0.000000
# 6 0.000000 0.000000 0.000000 0.000000 0.000000 0.036435
#
#
# Mechanical properties :
#
#
# Convention : Reuss Voigt Hill
#
# Bulk Modulus (GPa) = 49.81376 59.79935 54.80655
# Shear Modulus (GPa) = 21.42310 23.98992 22.70651
#
# Velocity S-wave (km/s) = 3.28975 3.48125 3.38685
# Velocity P-wave (km/s) = 6.29243 6.80941 6.55601
#
# Compressibility (1/GPa) = 0.02007478
#
# Stress axis : x y z
#
# Youngs Moduli (GPa) = 69.11153 88.12897 33.88416
#
# Poissons Ratio (x) = 0.20912 0.22780
# Poissons Ratio (y) = 0.16400 0.28907
# Poissons Ratio (z) = 0.46464 0.75183
#
# Static dielectric constant tensor:
#      x y z
#    x 3.548030 0.000000 0.000000 
#    y 0.000000 4.031500 0.000000 
#    z 0.000000 0.000000 3.150570 
# 
# 
# High freq. dielectric constant tensor:
#      x y z
#    x 1.779060 0.000000 0.000000 
#    y 0.000000 1.793420 0.000000 
#    z 0.000000 0.000000 1.715320 
# 
# From -- ./inp_files/60198.got.cif
#   From: 2010.03.12/outbox.cif.g09.slc.cpg/sg74_31_cif.got.tgz:60198.got - 2010.04.16 15:46:19.
