data_PCOD8297549
_publ_section_title
;
Structure prediction by ZEFSAII (Michael W. Deem and Ramdas Pophale) SiO2 
 PCOD8297549
Probable space group: I M M A
;
_chemical_formula_sum "Si O2"
_cell_formula_units_Z 104
_cell_length_a 25.622136
_cell_length_b 9.151676
_cell_length_c 28.920145
_cell_angle_alpha 90.000000
_cell_angle_beta 90.000000
_cell_angle_gamma 90.000000
_cell_volume 6781.354287
_symmetry_space_group_name_H-M "I M M A"
_symmetry_group_IT_number 74
_symmetry_cell_setting 'orthorhombic'
loop_
_space_group_symop_operation_xyz
x,y,z
-x,1/2-y,z
x,-y,-z
-x,1/2+y,-z
-x,-y,-z
x,1/2+y,-z
-x,y,z
x,1/2-y,z
1/2+x,1/2+y,1/2+z
1/2-x,-y,1/2+z
1/2+x,1/2-y,1/2-z
1/2-x,y,1/2-z
1/2-x,1/2-y,1/2-z
1/2+x,y,1/2-z
1/2-x,1/2+y,1/2+z
1/2+x,-y,1/2+z
loop_
_atom_site_type_symbol
_atom_site_label
_atom_site_fract_x
_atom_site_fract_y
_atom_site_fract_z
Si Si1 0.098460 0.077467 0.887441
Si Si2 0.273612 0.591059 0.958043
Si Si3 0.500000 0.078089 0.549883
Si Si4 0.848025 0.421444 0.187819
Si Si5 0.307012 0.084768 0.771559
Si Si6 0.846663 0.410799 0.041183
Si Si7 0.735056 0.422193 0.145420
O O1 0.103267 0.250000 0.881184
O O2 0.048667 0.031442 0.917972
O O3 0.102408 0.000130 0.837285
O O4 0.148386 0.008976 0.913322
O O5 0.300796 0.750000 0.957841
O O6 0.213294 0.611929 0.970715
O O7 0.277315 0.520900 0.906716
O O8 0.300234 0.500000 0.000000
O O9 0.500000 0.250000 0.540307
O O10 0.500000 0.000000 0.500000
O O11 0.859134 0.250000 0.191991
O O12 0.845041 0.490878 0.238853
O O13 0.794761 0.453796 0.159703
O O14 0.328298 0.250000 0.776571
O O15 0.250000 0.085005 0.750000
O O16 0.304881 0.008365 0.821614
O O17 0.872973 0.250000 0.046949
O O18 0.875285 0.500000 0.000000
O O19 0.724427 0.250000 0.149373
#
# Coordination Sequence:
#
# PCOD8297549 Si02
#       7
#    16  16   8  16  16  16  16
#     4  11  21  33  47  61  77  98 126 165 208 255
#     4   9  17  27  37  53  76 101 130 160 193 232
#     4  10  24  40  50  62  80 104 134 172 221 268
#     4  10  18  30  45  61  79 101 127 158 201 249
#     4   9  17  27  40  61  82 101 127 157 192 237
#     4  10  18  29  41  57  74  94 123 158 199 243
#     4   9  16  28  41  56  80 107 130 158 197 240
#
# _framework density 15.336169999999999
#
# number of rings (size 3 to 8) (size 9 to 14) (size 15 to 20)
#    0.000    2.308    1.538    2.308    0.000    6.154 
#    0.000    0.000    0.000    0.000    0.000    0.000 
#    0.000    0.000    0.000    0.000    0.000    0.000 
#
# Total GULP energy -644285.767939 kJ/mol
# GULP energy per Si atom -12390.110922 kJ/mol
# Density = 1.530126 g / cm^3
# Si number density = 15.336170 Si / 1000 Ang^3
#
#
#
# Elastic Constant Matrix: (Units=GPa)
#
#
# Indices 1 2 3 4 5 6 
#
# 1 24.2315 24.4284 27.3310 0.0000 0.0000 0.0000
# 2 24.4284 98.3935 64.6227 0.0000 0.0000 0.0000
# 3 27.3310 64.6227 135.6383 0.0000 0.0000 0.0000
# 4 0.0000 0.0000 0.0000 31.9957 0.0000 0.0000
# 5 0.0000 0.0000 0.0000 0.0000 20.5127 0.0000
# 6 0.0000 0.0000 0.0000 0.0000 0.0000 11.3506
#
#
#
# Elastic Compliance Matrix: (Units=1/GPa)
#
#
# Indices 1 2 3 4 5 6 
#
# 1 0.059525 -0.010044 -0.007209 0.000000 0.000000 0.000000
# 2 -0.010044 0.016486 -0.005831 0.000000 0.000000 0.000000
# 3 -0.007209 -0.005831 0.011603 0.000000 0.000000 0.000000
# 4 0.000000 0.000000 0.000000 0.031254 0.000000 0.000000
# 5 0.000000 0.000000 0.000000 0.000000 0.048750 0.000000
# 6 0.000000 0.000000 0.000000 0.000000 0.000000 0.088101
#
#
# Mechanical properties :
#
#
# Convention : Reuss Voigt Hill
#
# Bulk Modulus (GPa) = 24.12695 54.55860 39.34277
# Shear Modulus (GPa) = 15.83764 22.23056 19.03410
#
# Velocity S-wave (km/s) = 3.21705 3.81143 3.52678
# Velocity P-wave (km/s) = 5.43741 7.41766 6.50335
#
# Compressibility (1/GPa) = 0.04144743
#
# Stress axis : x y z
#
# Youngs Moduli (GPa) = 16.79963 60.65590 86.18300
#
# Poissons Ratio (x) = 0.60921 0.62130
# Poissons Ratio (y) = 0.16873 0.50253
# Poissons Ratio (z) = 0.12111 0.35368
#
# Static dielectric constant tensor:
#      x y z
#    x 2.397690 0.000000 0.000000 
#    y 0.000000 3.256140 0.000000 
#    z 0.000000 0.000000 3.174660 
# 
# 
# High freq. dielectric constant tensor:
#      x y z
#    x 1.499920 0.000000 0.000000 
#    y 0.000000 1.603860 0.000000 
#    z 0.000000 0.000000 1.594930 
# 
# From -- ./inp_files/70825.got.cif
#   From: 2010.03.12/outbox.cif.g09.slc.cpg/sg74_36_cif.got.tgz:70825.got - 2010.04.16 15:46:19.
