data_PCOD8297208
_publ_section_title
;
Structure prediction by ZEFSAII (Michael W. Deem and Ramdas Pophale) SiO2 
 PCOD8297208
Probable space group: I M M A
;
_chemical_formula_sum "Si O2"
_cell_formula_units_Z 88
_cell_length_a 8.844196
_cell_length_b 23.915310
_cell_length_c 30.824218
_cell_angle_alpha 90.000000
_cell_angle_beta 90.000000
_cell_angle_gamma 90.000000
_cell_volume 6519.682413
_symmetry_space_group_name_H-M "I M M A"
_symmetry_group_IT_number 74
_symmetry_cell_setting 'orthorhombic'
loop_
_space_group_symop_operation_xyz
x,y,z
-x,1/2-y,z
x,-y,-z
-x,1/2+y,-z
-x,-y,-z
x,1/2+y,-z
-x,y,z
x,1/2-y,z
1/2+x,1/2+y,1/2+z
1/2-x,-y,1/2+z
1/2+x,1/2-y,1/2-z
1/2-x,y,1/2-z
1/2-x,1/2-y,1/2-z
1/2+x,y,1/2-z
1/2-x,1/2+y,1/2+z
1/2+x,-y,1/2+z
loop_
_atom_site_type_symbol
_atom_site_label
_atom_site_fract_x
_atom_site_fract_y
_atom_site_fract_z
Si Si1 0.339185 0.750000 0.928707
Si Si2 0.669988 0.524653 0.047770
Si Si3 0.321585 0.080104 0.418568
Si Si4 0.319987 0.127915 0.511828
Si Si5 0.180173 0.250000 0.202785
Si Si6 0.672766 0.250000 0.510702
Si Si7 0.829644 0.339948 0.356814
O O1 0.500000 0.750000 0.954996
O O2 0.335187 0.804199 0.899800
O O3 0.192228 0.750000 0.958743
O O4 0.500000 0.530389 0.065792
O O5 0.764720 0.483821 0.078799
O O6 0.747415 0.585535 0.046335
O O7 0.670736 0.500000 0.000000
O O8 0.500000 0.080807 0.414074
O O9 0.270501 0.113777 0.462192
O O10 0.252277 0.103921 0.373553
O O11 0.500000 0.124279 0.515290
O O12 0.258556 0.190165 0.526060
O O13 0.250000 0.250000 0.250000
O O14 0.235814 0.193144 0.179630
O O15 0.000000 0.250000 0.204321
O O16 0.500000 0.250000 0.523496
O O17 0.000000 0.352249 0.339513
#
# Coordination Sequence:
#
# PCOD8297208 Si02
#       7
#     8  16  16  16   8   8  16
#     4   9  17  25  35  51  72  92 113 148 186 221
#     4   9  17  27  37  49  69  95 121 152 192 234
#     4  10  17  26  41  57  73  94 122 156 192 232
#     4   9  17  26  36  51  71  95 123 155 193 235
#     4  11  22  36  50  63  82 106 130 158 198 242
#     4  10  17  25  36  50  69  92 120 154 190 229
#     4  10  19  30  43  61  79  97 123 155 192 234
#
# _framework density 13.497590000000001
#
# number of rings (size 3 to 8) (size 9 to 14) (size 15 to 20)
#    0.000    2.364    1.818    3.000    0.000    5.091 
#    0.000    0.000    0.000    0.000    0.000    0.000 
#    0.000    0.000    0.000    0.000    0.000    0.000 
#
# Total GULP energy -545088.848801 kJ/mol
# GULP energy per Si atom -12388.382927 kJ/mol
# Density = 1.346687 g / cm^3
# Si number density = 13.497590 Si / 1000 Ang^3
#
#
#
# Elastic Constant Matrix: (Units=GPa)
#
#
# Indices 1 2 3 4 5 6 
#
# 1 71.1452 38.7439 26.9856 0.0000 0.0000 0.0000
# 2 38.7439 114.4757 33.5777 0.0000 0.0000 0.0000
# 3 26.9856 33.5777 41.3278 0.0000 0.0000 0.0000
# 4 0.0000 0.0000 0.0000 6.6223 0.0000 0.0000
# 5 0.0000 0.0000 0.0000 0.0000 15.9358 0.0000
# 6 0.0000 0.0000 0.0000 0.0000 0.0000 27.1454
#
#
#
# Elastic Compliance Matrix: (Units=1/GPa)
#
#
# Indices 1 2 3 4 5 6 
#
# 1 0.019888 -0.003836 -0.009870 0.000000 0.000000 0.000000
# 2 -0.003836 0.012209 -0.007414 0.000000 0.000000 0.000000
# 3 -0.009870 -0.007414 0.036665 0.000000 0.000000 0.000000
# 4 0.000000 0.000000 0.000000 0.151004 0.000000 0.000000
# 5 0.000000 0.000000 0.000000 0.000000 0.062752 0.000000
# 6 0.000000 0.000000 0.000000 0.000000 0.000000 0.036839
#
#
# Mechanical properties :
#
#
# Convention : Reuss Voigt Hill
#
# Bulk Modulus (GPa) = 37.70448 47.28479 42.49464
# Shear Modulus (GPa) = 13.49755 18.45015 15.97385
#
# Velocity S-wave (km/s) = 3.16570 3.70120 3.44388
# Velocity P-wave (km/s) = 6.43095 7.30570 6.88224
#
# Compressibility (1/GPa) = 0.02652204
#
# Stress axis : x y z
#
# Youngs Moduli (GPa) = 50.28037 81.90983 27.27385
#
# Poissons Ratio (x) = 0.31423 0.26918
# Poissons Ratio (y) = 0.19289 0.20221
# Poissons Ratio (z) = 0.49625 0.60729
#
# Static dielectric constant tensor:
#      x y z
#    x 2.892950 0.000000 0.000000 
#    y 0.000000 0.937780 0.000000 
#    z 0.000000 0.000000 2.233520 
# 
# 
# High freq. dielectric constant tensor:
#      x y z
#    x 1.528560 0.000000 0.000000 
#    y 0.000000 1.514810 0.000000 
#    z 0.000000 0.000000 1.439420 
# 
# From -- ./inp_files/70768.got.cif
#   From: 2010.03.12/outbox.cif.g09.slc.cpg/sg74_36_cif.got.tgz:70768.got - 2010.04.16 15:46:19.
