data_PCOD8297022
_publ_section_title
;
Structure prediction by ZEFSAII (Michael W. Deem and Ramdas Pophale) SiO2 
 PCOD8297022
Probable space group: I B C A 
;
_chemical_formula_sum "Si O2"
_cell_formula_units_Z 88
_cell_length_a 17.832838
_cell_length_b 11.101130
_cell_length_c 18.629725
_cell_angle_alpha 90.000000
_cell_angle_beta 90.000000
_cell_angle_gamma 90.000000
_cell_volume 3688.027043
_symmetry_space_group_name_H-M "I B C A "
_symmetry_group_IT_number 73
_symmetry_cell_setting 'orthorhombic'
loop_
_space_group_symop_operation_xyz
x,y,z
-x,1/2-y,z
x,-y,1/2-z
1/2-x,y,-z
-x,-y,-z
x,1/2+y,-z
-x,y,1/2+z
1/2+x,-y,z
1/2+x,1/2+y,1/2+z
1/2-x,-y,1/2+z
1/2+x,1/2-y,-z
-x,1/2+y,1/2-z
1/2-x,1/2-y,1/2-z
1/2+x,y,1/2-z
1/2-x,1/2+y,z
x,1/2-y,1/2+z
loop_
_atom_site_type_symbol
_atom_site_label
_atom_site_fract_x
_atom_site_fract_y
_atom_site_fract_z
Si Si1 0.209122 0.363782 0.879027
Si Si2 0.126187 0.974028 0.484611
Si Si3 0.000000 0.250000 0.706891
Si Si4 0.750000 0.709796 0.500000
Si Si5 0.024356 0.466095 0.101486
Si Si6 0.286058 0.000000 0.250000
Si Si7 0.101364 0.823587 0.675505
O O1 0.184556 0.473438 0.928519
O O2 0.268366 0.289750 0.928334
O O3 0.237831 0.411978 0.802071
O O4 0.136747 0.278914 0.873283
O O5 0.172580 0.861355 0.515833
O O6 0.099535 0.055395 0.552907
O O7 0.049000 0.942358 0.445545
O O8 0.984832 0.370639 0.663688
O O9 0.927373 0.245355 0.757255
O O10 0.034107 0.601334 0.135697
O O11 0.335332 0.081620 0.198349
#
# Coordination Sequence:
#
# PCOD8297022 Si02
#       7
#    16  16   8   8  16   8  16
#     4  12  28  44  80 106 159 201 261 319 403 466
#     4  11  27  47  74 109 151 193 264 322 392 478
#     4  12  26  40  82  98 150 202 254 324 394 446
#     4  12  26  48  78 116 152 210 256 322 398 480
#     4  11  26  48  73 109 150 199 262 324 391 472
#     4  12  28  48  70 116 158 204 260 330 388 492
#     4  12  25  49  71 110 153 204 264 321 394 477
#
# _framework density 23.860996
#
# number of rings (size 3 to 8) (size 9 to 14) (size 15 to 20)
#    0.000    0.364    3.636    3.273   10.182    0.000 
#    0.000    0.000    0.000    0.000    0.000    0.000 
#    0.000    0.000    0.000    0.000    0.000    0.000 
#
# Total GULP energy -545091.997451 kJ/mol
# GULP energy per Si atom -12388.454488 kJ/mol
# Density = 2.380669 g / cm^3
# Si number density = 23.860996 Si / 1000 Ang^3
#
#
#
# Elastic Constant Matrix: (Units=GPa)
#
#
# Indices 1 2 3 4 5 6 
#
# 1 107.5736 36.3063 37.9732 0.0000 0.0000 0.0000
# 2 36.3063 75.5750 39.7683 0.0000 0.0000 0.0000
# 3 37.9732 39.7683 117.6642 0.0000 0.0000 0.0000
# 4 0.0000 0.0000 0.0000 41.1722 0.0000 0.0000
# 5 0.0000 0.0000 0.0000 0.0000 41.4815 0.0000
# 6 0.0000 0.0000 0.0000 0.0000 0.0000 33.1913
#
#
#
# Elastic Compliance Matrix: (Units=1/GPa)
#
#
# Indices 1 2 3 4 5 6 
#
# 1 0.011567 -0.004370 -0.002256 0.000000 0.000000 0.000000
# 2 -0.004370 0.017745 -0.004587 0.000000 0.000000 0.000000
# 3 -0.002256 -0.004587 0.010777 0.000000 0.000000 0.000000
# 4 0.000000 0.000000 0.000000 0.024288 0.000000 0.000000
# 5 0.000000 0.000000 0.000000 0.000000 0.024107 0.000000
# 6 0.000000 0.000000 0.000000 0.000000 0.000000 0.030128
#
#
# Mechanical properties :
#
#
# Convention : Reuss Voigt Hill
#
# Bulk Modulus (GPa) = 56.61475 58.76761 57.69118
# Shear Modulus (GPa) = 34.03051 35.62001 34.82526
#
# Velocity S-wave (km/s) = 3.78060 3.86789 3.82449
# Velocity P-wave (km/s) = 6.54490 6.68057 6.61308
#
# Compressibility (1/GPa) = 0.01766324
#
# Stress axis : x y z
#
# Youngs Moduli (GPa) = 86.45182 56.35406 92.78767
#
# Poissons Ratio (x) = 0.24625 0.20934
# Poissons Ratio (y) = 0.37776 0.42564
# Poissons Ratio (z) = 0.19505 0.25851
#
# Static dielectric constant tensor:
#      x y z
#    x 4.313350 0.000000 0.000000 
#    y 0.000000 4.701460 0.000000 
#    z 0.000000 0.000000 4.892660 
# 
# 
# High freq. dielectric constant tensor:
#      x y z
#    x 1.945600 0.000000 0.000000 
#    y 0.000000 1.940920 0.000000 
#    z 0.000000 0.000000 1.973790 
# 
# From -- ./inp_files/26443.got.cif
#   From: 2010.03.12/outbox.cif.g09.slc.cpg/sg73_14_cif.got.tgz:26443.got - 2010.04.16 15:25:48.
