data_PCOD8297169
_publ_section_title
;
Structure prediction by ZEFSAII (Michael W. Deem and Ramdas Pophale) SiO2 
 PCOD8297169
Probable space group: I M M A
;
_chemical_formula_sum "Si O2"
_cell_formula_units_Z 96
_cell_length_a 25.889714
_cell_length_b 18.002975
_cell_length_c 11.092764
_cell_angle_alpha 90.000000
_cell_angle_beta 90.000000
_cell_angle_gamma 90.000000
_cell_volume 5170.247159
_symmetry_space_group_name_H-M "I M M A"
_symmetry_group_IT_number 74
_symmetry_cell_setting 'orthorhombic'
loop_
_space_group_symop_operation_xyz
x,y,z
-x,1/2-y,z
x,-y,-z
-x,1/2+y,-z
-x,-y,-z
x,1/2+y,-z
-x,y,z
x,1/2-y,z
1/2+x,1/2+y,1/2+z
1/2-x,-y,1/2+z
1/2+x,1/2-y,1/2-z
1/2-x,y,1/2-z
1/2-x,1/2-y,1/2-z
1/2+x,y,1/2-z
1/2-x,1/2+y,1/2+z
1/2+x,-y,1/2+z
loop_
_atom_site_type_symbol
_atom_site_label
_atom_site_fract_x
_atom_site_fract_y
_atom_site_fract_z
Si Si1 0.873800 0.567097 0.424865
Si Si2 0.196685 0.463199 0.786042
Si Si3 0.560520 0.835765 0.255325
Si Si4 0.691911 0.373638 0.354947
Si Si5 0.301595 0.168858 0.085714
Si Si6 0.615799 0.416129 0.537169
O O1 0.901703 0.500000 0.500000
O O2 0.839829 0.523651 0.327712
O O3 0.914142 0.621115 0.357730
O O4 0.834683 0.611646 0.509030
O O5 0.250000 0.422122 0.750000
O O6 0.210611 0.541857 0.843049
O O7 0.167609 0.413867 0.883358
O O8 0.500000 0.839842 0.233980
O O9 0.579583 0.750000 0.257683
O O10 0.571951 0.874373 0.385415
O O11 0.683836 0.335847 0.226543
O O12 0.739422 0.338248 0.429516
O O13 0.635424 0.369874 0.420543
O O14 0.317549 0.250000 0.038851
O O15 0.597686 0.500000 0.500000
#
# Coordination Sequence:
#
# PCOD8297169 Si02
#       6
#    16  16  16  16  16  16
#     4  11  20  35  57  79 106 139 181 223 263 314
#     4  10  16  29  50  79 109 143 179 215 252 296
#     4  10  23  42  61  80 103 134 176 231 288 327
#     4  10  17  31  48  76 114 146 177 206 245 308
#     4  11  21  31  48  78 115 151 178 205 251 310
#     4   9  20  33  57  82 106 140 181 221 265 316
#
# _framework density 18.567778000000001
#
# number of rings (size 3 to 8) (size 9 to 14) (size 15 to 20)
#    0.000    1.833    3.333    2.500    0.000    3.333 
#    0.000    0.000    0.000    5.500    0.000    2.333 
#    0.000    0.000    0.000    0.000    0.000    0.000 
#
# Total GULP energy -594780.119772 kJ/mol
# GULP energy per Si atom -12391.252495 kJ/mol
# Density = 1.852552 g / cm^3
# Si number density = 18.567778 Si / 1000 Ang^3
#
#
#
# Elastic Constant Matrix: (Units=GPa)
#
#
# Indices 1 2 3 4 5 6 
#
# 1 57.3532 22.2016 24.8671 0.0000 0.0000 0.0000
# 2 22.2016 93.6043 33.6791 0.0000 0.0000 0.0000
# 3 24.8671 33.6791 73.5174 0.0000 0.0000 0.0000
# 4 0.0000 0.0000 0.0000 12.9617 0.0000 0.0000
# 5 0.0000 0.0000 0.0000 0.0000 25.1923 0.0000
# 6 0.0000 0.0000 0.0000 0.0000 0.0000 16.4130
#
#
#
# Elastic Compliance Matrix: (Units=1/GPa)
#
#
# Indices 1 2 3 4 5 6 
#
# 1 0.021076 -0.002914 -0.005794 0.000000 0.000000 0.000000
# 2 -0.002914 0.013195 -0.005059 0.000000 0.000000 0.000000
# 3 -0.005794 -0.005059 0.017879 0.000000 0.000000 0.000000
# 4 0.000000 0.000000 0.000000 0.077150 0.000000 0.000000
# 5 0.000000 0.000000 0.000000 0.000000 0.039695 0.000000
# 6 0.000000 0.000000 0.000000 0.000000 0.000000 0.060927
#
#
# Mechanical properties :
#
#
# Convention : Reuss Voigt Hill
#
# Bulk Modulus (GPa) = 40.62368 42.88562 41.75465
# Shear Modulus (GPa) = 18.82092 20.49522 19.65807
#
# Velocity S-wave (km/s) = 3.18721 3.32596 3.25733
# Velocity P-wave (km/s) = 5.95571 6.15600 6.05668
#
# Compressibility (1/GPa) = 0.02461619
#
# Stress axis : x y z
#
# Youngs Moduli (GPa) = 47.44728 75.78803 55.93001
#
# Poissons Ratio (x) = 0.22087 0.32405
# Poissons Ratio (y) = 0.13828 0.28294
# Poissons Ratio (z) = 0.27490 0.38340
#
# Static dielectric constant tensor:
#      x y z
#    x 3.296550 0.000000 0.000000 
#    y 0.000000 3.416300 0.000000 
#    z 0.000000 0.000000 3.702420 
# 
# 
# High freq. dielectric constant tensor:
#      x y z
#    x 1.685910 0.000000 0.000000 
#    y 0.000000 1.718240 0.000000 
#    z 0.000000 0.000000 1.730080 
# 
# From -- ./inp_files/25177.got.cif
#   From: 2010.03.12/outbox.cif.g09.slc.cpg/sg74_13_cif.got.tgz:25177.got - 2010.04.16 15:46:19.
