data_PCOD8297180
_publ_section_title
;
Structure prediction by ZEFSAII (Michael W. Deem and Ramdas Pophale) SiO2 
 PCOD8297180
Probable space group: I M M A
;
_chemical_formula_sum "Si O2"
_cell_formula_units_Z 88
_cell_length_a 12.037543
_cell_length_b 19.967116
_cell_length_c 19.883676
_cell_angle_alpha 90.000000
_cell_angle_beta 90.000000
_cell_angle_gamma 90.000000
_cell_volume 4779.141292
_symmetry_space_group_name_H-M "I M M A"
_symmetry_group_IT_number 74
_symmetry_cell_setting 'orthorhombic'
loop_
_space_group_symop_operation_xyz
x,y,z
-x,1/2-y,z
x,-y,-z
-x,1/2+y,-z
-x,-y,-z
x,1/2+y,-z
-x,y,z
x,1/2-y,z
1/2+x,1/2+y,1/2+z
1/2-x,-y,1/2+z
1/2+x,1/2-y,1/2-z
1/2-x,y,1/2-z
1/2-x,1/2-y,1/2-z
1/2+x,y,1/2-z
1/2-x,1/2+y,1/2+z
1/2+x,-y,1/2+z
loop_
_atom_site_type_symbol
_atom_site_label
_atom_site_fract_x
_atom_site_fract_y
_atom_site_fract_z
Si Si1 0.772466 0.062974 0.826294
Si Si2 0.000000 0.960296 0.114205
Si Si3 0.000000 0.345268 0.974719
Si Si4 0.000000 0.890719 0.883386
Si Si5 0.871692 0.671990 0.565572
Si Si6 0.256399 0.675830 0.431453
Si Si7 0.761842 0.590925 0.827535
O O1 0.750000 0.084760 0.750000
O O2 0.902722 0.061055 0.836408
O O3 0.722691 0.120235 0.875722
O O4 0.731364 0.987229 0.842146
O O5 0.000000 0.923253 0.043162
O O6 0.000000 0.034929 0.087468
O O7 0.888537 0.314169 0.943144
O O8 0.000000 0.337489 0.055480
O O9 0.887180 0.883735 0.841420
O O10 0.856925 0.750000 0.580943
O O11 0.801889 0.650980 0.499839
O O12 0.826009 0.632246 0.629416
O O13 0.000000 0.653058 0.553774
O O14 0.211459 0.750000 0.410235
O O15 0.750000 0.607859 0.750000
#
# Coordination Sequence:
#
# PCOD8297180 Si02
#       7
#    16   8   8   8  16  16  16
#     4   9  19  36  54  81 111 144 180 221 270 318
#     4   8  17  29  51  76 112 138 169 220 277 316
#     4  10  16  30  54  82 104 134 179 227 268 315
#     4  10  17  31  53  82 106 139 172 222 271 315
#     4  10  22  40  57  77 110 146 177 219 272 321
#     4  10  20  35  56  81 110 143 183 226 269 317
#     4  10  21  36  57  82 111 142 180 223 269 321
#
# _framework density 18.413349
#
# number of rings (size 3 to 8) (size 9 to 14) (size 15 to 20)
#    0.000    2.364    1.818    0.545    1.273    1.455 
#    3.273    1.364    0.000    0.000    0.000    0.000 
#    0.000    0.000    0.000    0.000    0.000    0.000 
#
# Total GULP energy -545179.566471 kJ/mol
# GULP energy per Si atom -12390.444693 kJ/mol
# Density = 1.837144 g / cm^3
# Si number density = 18.413349 Si / 1000 Ang^3
#
#
#
# Elastic Constant Matrix: (Units=GPa)
#
#
# Indices 1 2 3 4 5 6 
#
# 1 81.5340 27.2999 36.9910 0.0000 0.0000 0.0000
# 2 27.2999 80.4239 59.6860 0.0000 0.0000 0.0000
# 3 36.9910 59.6860 129.5508 0.0000 0.0000 0.0000
# 4 0.0000 0.0000 0.0000 29.6200 0.0000 0.0000
# 5 0.0000 0.0000 0.0000 0.0000 11.5998 0.0000
# 6 0.0000 0.0000 0.0000 0.0000 0.0000 16.0509
#
#
#
# Elastic Compliance Matrix: (Units=1/GPa)
#
#
# Indices 1 2 3 4 5 6 
#
# 1 0.014496 -0.002810 -0.002845 0.000000 0.000000 0.000000
# 2 -0.002810 0.019439 -0.008154 0.000000 0.000000 0.000000
# 3 -0.002845 -0.008154 0.012288 0.000000 0.000000 0.000000
# 4 0.000000 0.000000 0.000000 0.033761 0.000000 0.000000
# 5 0.000000 0.000000 0.000000 0.000000 0.086208 0.000000
# 6 0.000000 0.000000 0.000000 0.000000 0.000000 0.062302
#
#
# Mechanical properties :
#
#
# Convention : Reuss Voigt Hill
#
# Bulk Modulus (GPa) = 53.74290 59.94027 56.84159
# Shear Modulus (GPa) = 19.06127 22.62293 20.84210
#
# Velocity S-wave (km/s) = 3.22092 3.50896 3.36802
# Velocity P-wave (km/s) = 6.56374 7.00288 6.78687
#
# Compressibility (1/GPa) = 0.01860711
#
# Stress axis : x y z
#
# Youngs Moduli (GPa) = 68.98382 51.44317 81.38201
#
# Poissons Ratio (x) = 0.14453 0.23151
# Poissons Ratio (y) = 0.19381 0.66356
# Poissons Ratio (z) = 0.19624 0.41945
#
# Static dielectric constant tensor:
#      x y z
#    x 3.405760 0.000000 0.000000 
#    y 0.000000 3.458970 0.000000 
#    z 0.000000 0.000000 3.258970 
# 
# 
# High freq. dielectric constant tensor:
#      x y z
#    x 1.709360 0.000000 0.000000 
#    y 0.000000 1.715890 0.000000 
#    z 0.000000 0.000000 1.708580 
# 
# From -- ./inp_files/41334.got.cif
#   From: 2010.03.12/outbox.cif.g09.slc.cpg/sg74_21_cif.got.tgz:41334.got - 2010.04.16 15:46:19.
