data_PCOD8297566
_publ_section_title
;
Structure prediction by ZEFSAII (Michael W. Deem and Ramdas Pophale) SiO2 
 PCOD8297566
Probable space group: I M M A
;
_chemical_formula_sum "Si O2"
_cell_formula_units_Z 72
_cell_length_a 10.230676
_cell_length_b 21.322524
_cell_length_c 20.321187
_cell_angle_alpha 90.000000
_cell_angle_beta 90.000000
_cell_angle_gamma 90.000000
_cell_volume 4432.941655
_symmetry_space_group_name_H-M "I M M A"
_symmetry_group_IT_number 74
_symmetry_cell_setting 'orthorhombic'
loop_
_space_group_symop_operation_xyz
x,y,z
-x,1/2-y,z
x,-y,-z
-x,1/2+y,-z
-x,-y,-z
x,1/2+y,-z
-x,y,z
x,1/2-y,z
1/2+x,1/2+y,1/2+z
1/2-x,-y,1/2+z
1/2+x,1/2-y,1/2-z
1/2-x,y,1/2-z
1/2-x,1/2-y,1/2-z
1/2+x,y,1/2-z
1/2-x,1/2+y,1/2+z
1/2+x,-y,1/2+z
loop_
_atom_site_type_symbol
_atom_site_label
_atom_site_fract_x
_atom_site_fract_y
_atom_site_fract_z
Si Si1 0.500000 0.465731 0.901060
Si Si2 0.159734 0.250000 0.185931
Si Si3 0.751518 0.498711 0.327667
Si Si4 0.500000 0.033158 0.604624
Si Si5 0.500000 0.601217 0.966611
Si Si6 0.258610 0.632938 0.599507
Si Si7 0.000000 0.095190 0.025002
O O1 0.625892 0.461733 0.854212
O O2 0.500000 0.531837 0.937602
O O3 0.500000 0.408460 0.953959
O O4 0.250000 0.250000 0.250000
O O5 0.206305 0.310463 0.146774
O O6 0.000000 0.250000 0.198985
O O7 0.750000 0.493106 0.250000
O O8 0.625539 0.537666 0.349362
O O9 0.748399 0.428892 0.356210
O O10 0.500000 0.090568 0.553760
O O11 0.500000 0.970852 0.561491
O O12 0.375765 0.640744 0.941040
O O13 0.370646 0.632079 0.544816
#
# Coordination Sequence:
#
# PCOD8297566 Si02
#       7
#     8   8  16   8   8  16   8
#     4   9  17  30  46  70  97 124 162 199 241 295
#     4  12  26  40  52  70  98 134 175 216 248 278
#     4  10  18  29  44  69  99 132 161 193 238 293
#     4   9  17  26  46  66  89 120 158 197 239 295
#     4   9  18  31  51  70  90 124 165 208 247 289
#     4  10  20  34  50  67  93 129 171 210 243 276
#     4   9  16  31  47  66  86 118 163 204 245 285
#
# _framework density 16.242037
#
# number of rings (size 3 to 8) (size 9 to 14) (size 15 to 20)
#    0.000    2.222    1.111    2.667    1.556    5.333 
#    4.000    0.000    0.000    0.000    0.000    0.000 
#    0.000    0.000    0.000   70.000    0.000    0.000 
#
# Total GULP energy -446203.261408 kJ/mol
# GULP energy per Si atom -12394.535039 kJ/mol
# Density = 1.620507 g / cm^3
# Si number density = 16.242037 Si / 1000 Ang^3
#
#
#
# Elastic Constant Matrix: (Units=GPa)
#
#
# Indices 1 2 3 4 5 6 
#
# 1 181.0371 40.2059 72.5831 0.0000 0.0000 0.0000
# 2 40.2059 44.3761 39.7983 0.0000 0.0000 0.0000
# 3 72.5831 39.7983 111.8561 0.0000 0.0000 0.0000
# 4 0.0000 0.0000 0.0000 24.9675 0.0000 0.0000
# 5 0.0000 0.0000 0.0000 0.0000 35.0250 0.0000
# 6 0.0000 0.0000 0.0000 0.0000 0.0000 4.6107
#
#
#
# Elastic Compliance Matrix: (Units=1/GPa)
#
#
# Indices 1 2 3 4 5 6 
#
# 1 0.007868 -0.003745 -0.003773 0.000000 0.000000 0.000000
# 2 -0.003745 0.034877 -0.009979 0.000000 0.000000 0.000000
# 3 -0.003773 -0.009979 0.014939 0.000000 0.000000 0.000000
# 4 0.000000 0.000000 0.000000 0.040052 0.000000 0.000000
# 5 0.000000 0.000000 0.000000 0.000000 0.028551 0.000000
# 6 0.000000 0.000000 0.000000 0.000000 0.000000 0.216886
#
#
# Mechanical properties :
#
#
# Convention : Reuss Voigt Hill
#
# Bulk Modulus (GPa) = 44.07239 71.38265 57.72752
# Shear Modulus (GPa) = 12.96237 25.23277 19.09757
#
# Velocity S-wave (km/s) = 2.82809 3.94578 3.43273
# Velocity P-wave (km/s) = 6.15287 8.05007 7.16455
#
# Compressibility (1/GPa) = 0.02268994
#
# Stress axis : x y z
#
# Youngs Moduli (GPa) = 127.09367 28.67189 66.93812
#
# Poissons Ratio (x) = 0.10737 0.25258
# Poissons Ratio (y) = 0.47594 0.66800
# Poissons Ratio (z) = 0.47956 0.28613
#
# Static dielectric constant tensor:
#      x y z
#    x 3.378040 0.000000 0.000000 
#    y 0.000000 2.705960 0.000000 
#    z 0.000000 0.000000 3.180140 
# 
# 
# High freq. dielectric constant tensor:
#      x y z
#    x 1.651370 0.000000 0.000000 
#    y 0.000000 1.567530 0.000000 
#    z 0.000000 0.000000 1.626250 
# 
# From -- ./inp_files/41022.got.cif
#   From: 2010.03.12/outbox.cif.g09.slc.cpg/sg74_21_cif.got.tgz:41022.got - 2010.04.16 15:46:19.
