data_PCOD8297509
_publ_section_title
;
Structure prediction by ZEFSAII (Michael W. Deem and Ramdas Pophale) SiO2 
 PCOD8297509
Probable space group: I M M A
;
_chemical_formula_sum "Si O2"
_cell_formula_units_Z 72
_cell_length_a 22.210045
_cell_length_b 9.296673
_cell_length_c 19.636616
_cell_angle_alpha 90.000000
_cell_angle_beta 90.000000
_cell_angle_gamma 90.000000
_cell_volume 4054.559158
_symmetry_space_group_name_H-M "I M M A"
_symmetry_group_IT_number 74
_symmetry_cell_setting 'orthorhombic'
loop_
_space_group_symop_operation_xyz
x,y,z
-x,1/2-y,z
x,-y,-z
-x,1/2+y,-z
-x,-y,-z
x,1/2+y,-z
-x,y,z
x,1/2-y,z
1/2+x,1/2+y,1/2+z
1/2-x,-y,1/2+z
1/2+x,1/2-y,1/2-z
1/2-x,y,1/2-z
1/2-x,1/2-y,1/2-z
1/2+x,y,1/2-z
1/2-x,1/2+y,1/2+z
1/2+x,-y,1/2+z
loop_
_atom_site_type_symbol
_atom_site_label
_atom_site_fract_x
_atom_site_fract_y
_atom_site_fract_z
Si Si1 0.283065 0.582022 0.932221
Si Si2 0.068363 0.578552 0.805038
Si Si3 0.354698 0.081442 0.432010
Si Si4 0.388948 0.420053 0.161416
Si Si5 0.500000 0.579528 0.929206
O O1 0.292521 0.750000 0.946645
O O2 0.214376 0.546087 0.913157
O O3 0.324719 0.530041 0.869288
O O4 0.303527 0.500000 0.000000
O O5 0.068971 0.750000 0.803904
O O6 0.104546 0.521980 0.870602
O O7 0.100885 0.516391 0.737214
O O8 0.000000 0.521079 0.808337
O O9 0.364278 0.250000 0.444342
O O10 0.374980 0.000000 0.500000
O O11 0.391771 0.250000 0.167068
O O12 0.441778 0.473460 0.112102
O O13 0.500000 0.750000 0.941034
O O14 0.500000 0.500000 0.000000
#
# Coordination Sequence:
#
# PCOD8297509 Si02
#       5
#    16  16  16  16   8
#     4   9  17  29  45  67  93 119 148 184 223 264
#     4   9  16  28  46  68  92 117 148 188 228 264
#     4   9  18  31  48  69  91 116 148 186 227 269
#     4   9  16  27  44  66  91 118 149 184 221 261
#     4  10  18  28  44  66  89 118 152 182 215 258
#
# _framework density 17.757787
#
# number of rings (size 3 to 8) (size 9 to 14) (size 15 to 20)
#    0.000    2.889    1.111    0.667    0.000    1.333 
#    0.000    4.444    0.000    2.667    0.000    6.222 
#    0.000    0.000    0.000    0.000    0.000    0.000 
#
# Total GULP energy -446313.711513 kJ/mol
# GULP energy per Si atom -12397.603098 kJ/mol
# Density = 1.771737 g / cm^3
# Si number density = 17.757787 Si / 1000 Ang^3
#
#
#
# Elastic Constant Matrix: (Units=GPa)
#
#
# Indices 1 2 3 4 5 6 
#
# 1 117.5785 19.8538 102.2281 0.0000 0.0000 0.0000
# 2 19.8538 18.2229 31.4809 0.0000 0.0000 0.0000
# 3 102.2281 31.4809 194.7887 0.0000 0.0000 0.0000
# 4 0.0000 0.0000 0.0000 24.6144 0.0000 0.0000
# 5 0.0000 0.0000 0.0000 0.0000 38.8585 0.0000
# 6 0.0000 0.0000 0.0000 0.0000 0.0000 13.1314
#
#
#
# Elastic Compliance Matrix: (Units=1/GPa)
#
#
# Indices 1 2 3 4 5 6 
#
# 1 0.015852 -0.004021 -0.007670 0.000000 0.000000 0.000000
# 2 -0.004021 0.077152 -0.010358 0.000000 0.000000 0.000000
# 3 -0.007670 -0.010358 0.010833 0.000000 0.000000 0.000000
# 4 0.000000 0.000000 0.000000 0.040627 0.000000 0.000000
# 5 0.000000 0.000000 0.000000 0.000000 0.025734 0.000000
# 6 0.000000 0.000000 0.000000 0.000000 0.000000 0.076153
#
#
# Mechanical properties :
#
#
# Convention : Reuss Voigt Hill
#
# Bulk Modulus (GPa) = 16.73971 70.85730 43.79851
# Shear Modulus (GPa) = 16.11016 27.12269 21.61642
#
# Velocity S-wave (km/s) = 3.01527 3.91240 3.49276
# Velocity P-wave (km/s) = 4.64431 7.77161 6.40185
#
# Compressibility (1/GPa) = 0.05973819
#
# Stress axis : x y z
#
# Youngs Moduli (GPa) = 63.08229 12.96145 92.31069
#
# Poissons Ratio (x) = 0.05212 0.70799
# Poissons Ratio (y) = 0.25368 0.95619
# Poissons Ratio (z) = 0.48382 0.13426
#
# Static dielectric constant tensor:
#      x y z
#    x 3.486790 0.000000 0.000000 
#    y 0.000000 2.804730 0.000000 
#    z 0.000000 0.000000 3.524350 
# 
# 
# High freq. dielectric constant tensor:
#      x y z
#    x 1.696680 0.000000 0.000000 
#    y 0.000000 1.630340 0.000000 
#    z 0.000000 0.000000 1.695090 
# 
# From -- ./inp_files/30599.got.cif
#   From: 2010.03.12/outbox.cif.g09.slc.cpg/sg74_16_cif.got.tgz:30599.got - 2010.04.16 15:46:19.
