data_PCOD8297754
_publ_section_title
;
Structure prediction by ZEFSAII (Michael W. Deem and Ramdas Pophale) SiO2 
 PCOD8297754
Probable space group: I M M A
;
_chemical_formula_sum "Si O2"
_cell_formula_units_Z 80
_cell_length_a 8.592103
_cell_length_b 25.928020
_cell_length_c 19.741780
_cell_angle_alpha 90.000000
_cell_angle_beta 90.000000
_cell_angle_gamma 90.000000
_cell_volume 4397.999093
_symmetry_space_group_name_H-M "I M M A"
_symmetry_group_IT_number 74
_symmetry_cell_setting 'orthorhombic'
loop_
_space_group_symop_operation_xyz
x,y,z
-x,1/2-y,z
x,-y,-z
-x,1/2+y,-z
-x,-y,-z
x,1/2+y,-z
-x,y,z
x,1/2-y,z
1/2+x,1/2+y,1/2+z
1/2-x,-y,1/2+z
1/2+x,1/2-y,1/2-z
1/2-x,y,1/2-z
1/2-x,1/2-y,1/2-z
1/2+x,y,1/2-z
1/2-x,1/2+y,1/2+z
1/2+x,-y,1/2+z
loop_
_atom_site_type_symbol
_atom_site_label
_atom_site_fract_x
_atom_site_fract_y
_atom_site_fract_z
Si Si1 0.317410 0.750000 0.823589
Si Si2 0.816170 0.644699 0.175241
Si Si3 0.315909 0.444355 0.069684
Si Si4 0.184414 0.750000 0.325227
Si Si5 0.316006 0.139030 0.175454
Si Si6 0.316842 0.446345 0.575163
O O1 0.500000 0.750000 0.817429
O O2 0.250000 0.750000 0.750000
O O3 0.265046 0.804733 0.856599
O O4 0.750000 0.634594 0.250000
O O5 0.747730 0.697202 0.141056
O O6 0.764755 0.597614 0.127616
O O7 0.000000 0.650209 0.180174
O O8 0.500000 0.440507 0.058668
O O9 0.251849 0.404542 0.125417
O O10 0.272003 0.501356 0.095197
O O11 0.231069 0.429520 0.000102
O O12 0.250000 0.750000 0.250000
O O13 0.000000 0.750000 0.326509
O O14 0.500000 0.134935 0.181091
O O15 0.250000 0.129759 0.250000
O O16 0.500000 0.456443 0.578046
#
# Coordination Sequence:
#
# PCOD8297754 Si02
#       6
#     8  16  16   8  16  16
#     4   8  14  28  47  68  97 127 157 193 235 284
#     4  10  20  34  53  76 102 131 166 207 248 296
#     4  10  20  34  52  73  99 131 167 207 250 298
#     4  10  18  30  51  76 103 133 163 199 247 298
#     4   9  18  31  50  75 100 129 163 201 243 287
#     4  10  21  36  53  72  97 132 168 204 249 298
#
# _framework density 18.190089
#
# number of rings (size 3 to 8) (size 9 to 14) (size 15 to 20)
#    0.000    2.400    0.000    5.100    0.000    5.600 
#    0.000    5.000    0.000    1.200    0.000    0.000 
#    0.000    0.000    0.000    0.000    0.000    0.000 
#
# Total GULP energy -495702.814225 kJ/mol
# GULP energy per Si atom -12392.570356 kJ/mol
# Density = 1.814869 g / cm^3
# Si number density = 18.190089 Si / 1000 Ang^3
#
#
#
# Elastic Constant Matrix: (Units=GPa)
#
#
# Indices 1 2 3 4 5 6 
#
# 1 49.4269 31.3182 18.2120 -0.0001 0.0000 0.0000
# 2 31.3182 169.4706 89.6310 -0.0001 0.0000 0.0000
# 3 18.2120 89.6310 84.1604 -0.0004 0.0000 0.0000
# 4 -0.0001 -0.0001 -0.0004 11.7358 0.0000 0.0001
# 5 0.0000 0.0000 0.0000 0.0000 24.8611 -0.0001
# 6 0.0000 0.0000 0.0000 0.0001 -0.0001 26.9276
#
#
#
# Elastic Compliance Matrix: (Units=1/GPa)
#
#
# Indices 1 2 3 4 5 6 
#
# 1 0.022954 -0.003698 -0.001029 0.000000 0.000000 0.000000
# 2 -0.003698 0.014107 -0.014224 0.000000 0.000000 0.000000
# 3 -0.001029 -0.014224 0.027253 0.000001 0.000000 0.000000
# 4 0.000000 0.000000 0.000001 0.085209 0.000000 0.000000
# 5 0.000000 0.000000 0.000000 0.000000 0.040224 0.000000
# 6 0.000000 0.000000 0.000000 0.000000 0.000000 0.037137
#
#
# Mechanical properties :
#
#
# Convention : Reuss Voigt Hill
#
# Bulk Modulus (GPa) = 37.86028 64.59780 51.22904
# Shear Modulus (GPa) = 18.27568 23.63136 20.95352
#
# Velocity S-wave (km/s) = 3.17315 3.60826 3.39768
# Velocity P-wave (km/s) = 5.85526 7.27661 6.60428
#
# Compressibility (1/GPa) = 0.02641291
#
# Stress axis : x y z
#
# Youngs Moduli (GPa) = 43.56545 70.88835 36.69334
#
# Poissons Ratio (x) = 0.26211 0.03777
# Poissons Ratio (y) = 0.16108 0.52191
# Poissons Ratio (z) = 0.04484 1.00828
#
# Static dielectric constant tensor:
#      x y z
#    x 3.406340 0.000000 0.000000 
#    y 0.000000 4.178420 0.000000 
#    z 0.000000 0.000000 3.192530 
# 
# 
# High freq. dielectric constant tensor:
#      x y z
#    x 1.713080 0.000000 0.000000 
#    y 0.000000 1.727770 0.000000 
#    z 0.000000 0.000000 1.672510 
# 
# From -- ./inp_files/48628.got.cif
#   From: 2010.03.12/outbox.cif.g09.slc.cpg/sg74_25_cif.got.tgz:48628.got - 2010.04.16 15:46:19.
