data_PCOD8297839
_publ_section_title
;
Structure prediction by ZEFSAII (Michael W. Deem and Ramdas Pophale) SiO2 
 PCOD8297839
Probable space group: I M M A
;
_chemical_formula_sum "Si O2"
_cell_formula_units_Z 112
_cell_length_a 27.640100
_cell_length_b 13.565105
_cell_length_c 14.277084
_cell_angle_alpha 90.000000
_cell_angle_beta 90.000000
_cell_angle_gamma 90.000000
_cell_volume 5353.062135
_symmetry_space_group_name_H-M "I M M A"
_symmetry_group_IT_number 74
_symmetry_cell_setting 'orthorhombic'
loop_
_space_group_symop_operation_xyz
x,y,z
-x,1/2-y,z
x,-y,-z
-x,1/2+y,-z
-x,-y,-z
x,1/2+y,-z
-x,y,z
x,1/2-y,z
1/2+x,1/2+y,1/2+z
1/2-x,-y,1/2+z
1/2+x,1/2-y,1/2-z
1/2-x,y,1/2-z
1/2-x,1/2-y,1/2-z
1/2+x,y,1/2-z
1/2-x,1/2+y,1/2+z
1/2+x,-y,1/2+z
loop_
_atom_site_type_symbol
_atom_site_label
_atom_site_fract_x
_atom_site_fract_y
_atom_site_fract_z
Si Si1 0.735241 0.863616 0.348058
Si Si2 0.444720 0.483232 0.604934
Si Si3 0.221914 0.868925 0.538279
Si Si4 0.554529 0.636342 0.762795
Si Si5 0.368062 0.637258 0.287049
Si Si6 0.143896 0.460605 0.330267
Si Si7 0.704713 0.143888 0.316208
O O1 0.750771 0.750000 0.342628
O O2 0.750000 0.917596 0.250000
O O3 0.767711 0.907818 0.432809
O O4 0.677622 0.874675 0.357930
O O5 0.424954 0.500000 0.500000
O O6 0.500000 0.446202 0.601720
O O7 0.439646 0.585031 0.661730
O O8 0.414732 0.398077 0.656521
O O9 0.214385 0.750000 0.546902
O O10 0.175490 0.926237 0.580651
O O11 0.271865 0.901301 0.589761
O O12 0.500000 0.622288 0.801392
O O13 0.567605 0.750000 0.748899
O O14 0.590698 0.588021 0.839526
O O15 0.374762 0.750000 0.256186
O O16 0.360601 0.578328 0.187600
O O17 0.164984 0.425689 0.229537
O O18 0.680019 0.250000 0.335920
O O19 0.750000 0.160698 0.250000
#
# Coordination Sequence:
#
# PCOD8297839 Si02
#       7
#    16  16  16  16  16  16  16
#     4   9  19  36  54  75 110 150 186 231 284 341
#     4   9  19  35  54  78 105 137 188 246 292 344
#     4   9  17  31  55  83 105 135 182 230 284 343
#     4   9  17  29  47  74 109 144 175 222 294 354
#     4  10  22  37  51  72 108 153 192 230 282 338
#     4  10  18  31  51  76 107 144 187 231 273 334
#     4   8  14  25  43  71 103 130 168 228 285 330
#
# _framework density 20.922604
#
# number of rings (size 3 to 8) (size 9 to 14) (size 15 to 20)
#    0.000    2.857    0.000    2.143    0.000    4.857 
#    0.000    5.000    0.000    0.000    0.000    6.000 
#    0.000    8.571    0.000    0.429    0.000    1.571 
#
# Total GULP energy -693941.694644 kJ/mol
# GULP energy per Si atom -12391.815976 kJ/mol
# Density = 2.087498 g / cm^3
# Si number density = 20.922604 Si / 1000 Ang^3
#
#
#
# Elastic Constant Matrix: (Units=GPa)
#
#
# Indices 1 2 3 4 5 6 
#
# 1 102.6499 51.4193 48.4062 0.0000 0.0000 0.0000
# 2 51.4193 116.0190 36.6114 0.0000 0.0000 0.0000
# 3 48.4062 36.6114 123.3439 0.0000 0.0000 0.0000
# 4 0.0000 0.0000 0.0000 19.6646 0.0000 0.0000
# 5 0.0000 0.0000 0.0000 0.0000 23.2991 0.0000
# 6 0.0000 0.0000 0.0000 0.0000 0.0000 27.2593
#
#
#
# Elastic Compliance Matrix: (Units=1/GPa)
#
#
# Indices 1 2 3 4 5 6 
#
# 1 0.014165 -0.004991 -0.004077 0.000000 0.000000 0.000000
# 2 -0.004991 0.011269 -0.001386 0.000000 0.000000 0.000000
# 3 -0.004077 -0.001386 0.010119 0.000000 0.000000 0.000000
# 4 0.000000 0.000000 0.000000 0.050853 0.000000 0.000000
# 5 0.000000 0.000000 0.000000 0.000000 0.042920 0.000000
# 6 0.000000 0.000000 0.000000 0.000000 0.000000 0.036685
#
#
# Mechanical properties :
#
#
# Convention : Reuss Voigt Hill
#
# Bulk Modulus (GPa) = 68.29088 68.32073 68.30580
# Shear Modulus (GPa) = 26.06875 27.74966 26.90920
#
# Velocity S-wave (km/s) = 3.53365 3.64579 3.59016
# Velocity P-wave (km/s) = 7.02563 7.10263 7.06423
#
# Compressibility (1/GPa) = 0.01464324
#
# Stress axis : x y z
#
# Youngs Moduli (GPa) = 70.59765 88.74132 98.82358
#
# Poissons Ratio (x) = 0.44292 0.40295
# Poissons Ratio (y) = 0.35236 0.13698
# Poissons Ratio (z) = 0.28786 0.12300
#
# Static dielectric constant tensor:
#      x y z
#    x 4.045780 0.000000 0.000000 
#    y 0.000000 3.858530 0.000000 
#    z 0.000000 0.000000 4.673450 
# 
# 
# High freq. dielectric constant tensor:
#      x y z
#    x 1.812220 0.000000 0.000000 
#    y 0.000000 1.832810 0.000000 
#    z 0.000000 0.000000 1.788200 
# 
# From -- ./inp_files/37381.got.cif
#   From: 2010.03.12/outbox.cif.g09.slc.cpg/sg74_19_cif.got.tgz:37381.got - 2010.04.16 15:46:19.
