data_PCOD8297117
_publ_section_title
;
Structure prediction by ZEFSAII (Michael W. Deem and Ramdas Pophale) SiO2 
 PCOD8297117
Probable space group: I M M A
;
_chemical_formula_sum "Si O2"
_cell_formula_units_Z 128
_cell_length_a 20.670377
_cell_length_b 25.160160
_cell_length_c 18.163852
_cell_angle_alpha 90.000000
_cell_angle_beta 90.000000
_cell_angle_gamma 90.000000
_cell_volume 9446.474375
_symmetry_space_group_name_H-M "I M M A"
_symmetry_group_IT_number 74
_symmetry_cell_setting 'orthorhombic'
loop_
_space_group_symop_operation_xyz
x,y,z
-x,1/2-y,z
x,-y,-z
-x,1/2+y,-z
-x,-y,-z
x,1/2+y,-z
-x,y,z
x,1/2-y,z
1/2+x,1/2+y,1/2+z
1/2-x,-y,1/2+z
1/2+x,1/2-y,1/2-z
1/2-x,y,1/2-z
1/2-x,1/2-y,1/2-z
1/2+x,y,1/2-z
1/2-x,1/2+y,1/2+z
1/2+x,-y,1/2+z
loop_
_atom_site_type_symbol
_atom_site_label
_atom_site_fract_x
_atom_site_fract_y
_atom_site_fract_z
Si Si1 0.802273 0.689818 0.687683
Si Si2 0.885257 0.309435 0.078564
Si Si3 0.427181 0.450261 0.332838
Si Si4 0.070766 0.094802 0.004288
Si Si5 0.198570 0.445847 0.956682
Si Si6 0.763554 0.884147 0.910610
Si Si7 0.070900 0.663452 0.769231
Si Si8 0.708256 0.009499 0.322402
O O1 0.787592 0.750000 0.662110
O O2 0.750000 0.672726 0.750000
O O3 0.798131 0.649095 0.618291
O O4 0.875262 0.686448 0.715432
O O5 0.870039 0.250000 0.049823
O O6 0.925263 0.341461 0.016328
O O7 0.820832 0.341944 0.097474
O O8 0.926387 0.306013 0.153102
O O9 0.500000 0.474665 0.323768
O O10 0.415603 0.433782 0.417647
O O11 0.419875 0.399388 0.280569
O O12 0.369950 0.491007 0.308904
O O13 0.000000 0.079766 0.973053
O O14 0.125423 0.076423 0.947236
O O15 0.226586 0.459615 0.876060
O O16 0.193463 0.500000 0.000000
O O17 0.242371 0.404096 0.004074
O O18 0.773827 0.934076 0.857414
O O19 0.000000 0.674715 0.734834
O O20 0.750000 0.999837 0.250000
#
# Coordination Sequence:
#
# PCOD8297117 Si02
#       8
#    16  16  16  16  16  16  16  16
#     4  11  19  26  38  56  77 107 140 163 190 225
#     4  10  16  24  36  52  79 113 140 155 175 215
#     4   9  15  25  39  56  78 108 136 159 192 233
#     4   9  16  25  37  54  80 108 134 159 185 226
#     4   9  17  28  38  56  74  99 133 167 201 241
#     4  10  17  28  40  54  77 104 135 169 191 228
#     4  10  18  26  34  52  81 110 138 166 189 216
#     4  11  18  28  43  58  78 101 133 175 212 236
#
# _framework density 13.550027999999999
#
# number of rings (size 3 to 8) (size 9 to 14) (size 15 to 20)
#    0.000    2.125    6.250    3.000    0.000    2.500 
#    0.000    0.000    0.000    0.000    0.000    0.875 
#    0.000   17.500    0.000    0.000    0.000    0.750 
#
# Total GULP energy -792902.864181 kJ/mol
# GULP energy per Si atom -12389.107253 kJ/mol
# Density = 1.351919 g / cm^3
# Si number density = 13.550028 Si / 1000 Ang^3
#
#
#
# Elastic Constant Matrix: (Units=GPa)
#
#
# Indices 1 2 3 4 5 6 
#
# 1 63.3383 29.3915 32.8324 0.0000 0.0000 0.0000
# 2 29.3915 54.8409 38.4865 0.0000 0.0000 0.0000
# 3 32.8324 38.4865 57.6373 0.0000 0.0000 0.0000
# 4 0.0000 0.0000 0.0000 14.8799 0.0000 0.0000
# 5 0.0000 0.0000 0.0000 0.0000 11.6405 0.0000
# 6 0.0000 0.0000 0.0000 0.0000 0.0000 12.7846
#
#
#
# Elastic Compliance Matrix: (Units=1/GPa)
#
#
# Indices 1 2 3 4 5 6 
#
# 1 0.023407 -0.005998 -0.009328 0.000000 0.000000 0.000000
# 2 -0.005998 0.035852 -0.020523 0.000000 0.000000 0.000000
# 3 -0.009328 -0.020523 0.036367 0.000000 0.000000 0.000000
# 4 0.000000 0.000000 0.000000 0.067205 0.000000 0.000000
# 5 0.000000 0.000000 0.000000 0.000000 0.085907 0.000000
# 6 0.000000 0.000000 0.000000 0.000000 0.000000 0.078219
#
#
# Mechanical properties :
#
#
# Convention : Reuss Voigt Hill
#
# Bulk Modulus (GPa) = 41.79256 41.91523 41.85389
# Shear Modulus (GPa) = 12.29615 12.86809 12.58212
#
# Velocity S-wave (km/s) = 3.01568 3.08502 3.05055
# Velocity P-wave (km/s) = 6.56017 6.60989 6.58508
#
# Compressibility (1/GPa) = 0.02392771
#
# Stress axis : x y z
#
# Youngs Moduli (GPa) = 42.72191 27.89257 27.49722
#
# Poissons Ratio (x) = 0.16731 0.25650
# Poissons Ratio (y) = 0.25627 0.56431
# Poissons Ratio (z) = 0.39852 0.57243
#
# Static dielectric constant tensor:
#      x y z
#    x 2.740940 0.000000 0.000000 
#    y 0.000000 2.804850 0.000000 
#    z 0.000000 0.000000 2.536540 
# 
# 
# High freq. dielectric constant tensor:
#      x y z
#    x 1.510120 0.000000 0.000000 
#    y 0.000000 1.507690 0.000000 
#    z 0.000000 0.000000 1.458270 
# 
# From -- ./inp_files/53481.got.cif
#   From: 2010.03.12/outbox.cif.g09.slc.cpg/sg74_27_cif.got.tgz:53481.got - 2010.04.16 15:46:19.
