data_PCOD8297215
_publ_section_title
;
Structure prediction by ZEFSAII (Michael W. Deem and Ramdas Pophale) SiO2 
 PCOD8297215
Probable space group: I M M A
;
_chemical_formula_sum "Si O2"
_cell_formula_units_Z 80
_cell_length_a 28.907564
_cell_length_b 8.761104
_cell_length_c 22.992093
_cell_angle_alpha 90.000000
_cell_angle_beta 90.000000
_cell_angle_gamma 90.000000
_cell_volume 5823.027472
_symmetry_space_group_name_H-M "I M M A"
_symmetry_group_IT_number 74
_symmetry_cell_setting 'orthorhombic'
loop_
_space_group_symop_operation_xyz
x,y,z
-x,1/2-y,z
x,-y,-z
-x,1/2+y,-z
-x,-y,-z
x,1/2+y,-z
-x,y,z
x,1/2-y,z
1/2+x,1/2+y,1/2+z
1/2-x,-y,1/2+z
1/2+x,1/2-y,1/2-z
1/2-x,y,1/2-z
1/2-x,1/2-y,1/2-z
1/2+x,y,1/2-z
1/2-x,1/2+y,1/2+z
1/2+x,-y,1/2+z
loop_
_atom_site_type_symbol
_atom_site_label
_atom_site_fract_x
_atom_site_fract_y
_atom_site_fract_z
Si Si1 0.180289 0.930118 0.264138
Si Si2 0.946189 0.427693 0.560915
Si Si3 0.783455 0.425500 0.438687
Si Si4 0.267152 0.428125 0.327883
Si Si5 0.870257 0.568961 0.636100
O O1 0.175229 0.750000 0.258547
O O2 0.225869 0.977801 0.298821
O O3 0.184939 0.004132 0.198850
O O4 0.136655 0.997822 0.299446
O O5 0.930436 0.500000 0.500000
O O6 0.933894 0.250000 0.559450
O O7 0.919154 0.510168 0.612715
O O8 0.000000 0.457521 0.572506
O O9 0.773247 0.500000 0.500000
O O10 0.792005 0.250000 0.451074
O O11 0.738318 0.452125 0.397395
O O12 0.829681 0.489882 0.407333
O O13 0.261976 0.250000 0.312277
O O14 0.869899 0.750000 0.641883
#
# Coordination Sequence:
#
# PCOD8297215 Si02
#       5
#    16  16  16  16  16
#     4  10  17  25  39  57  72  91 120 154 190 225
#     4  10  20  32  44  58  76  98 125 158 195 234
#     4   9  18  27  37  53  73  97 124 155 188 221
#     4   9  16  27  38  51  73  98 122 150 186 225
#     4  10  19  30  42  56  74  97 125 159 196 231
#
# _framework density 13.738557999999999
#
# number of rings (size 3 to 8) (size 9 to 14) (size 15 to 20)
#    0.000    2.400    0.000    6.600    0.000    7.600 
#    0.000    0.000    0.000    0.000    0.000    0.000 
#    0.000    0.000    0.000    0.000    0.000    1.000 
#
# Total GULP energy -495716.762984 kJ/mol
# GULP energy per Si atom -12392.919075 kJ/mol
# Density = 1.370729 g / cm^3
# Si number density = 13.738558 Si / 1000 Ang^3
#
#
#
# Elastic Constant Matrix: (Units=GPa)
#
#
# Indices 1 2 3 4 5 6 
#
# 1 43.5910 26.0364 35.2485 0.0000 0.0000 0.0000
# 2 26.0364 75.9607 37.3299 0.0000 0.0000 0.0000
# 3 35.2485 37.3299 75.3187 0.0000 0.0000 0.0000
# 4 0.0000 0.0000 0.0000 25.3285 0.0000 0.0000
# 5 0.0000 0.0000 0.0000 0.0000 24.1121 0.0000
# 6 0.0000 0.0000 0.0000 0.0000 0.0000 19.0096
#
#
#
# Elastic Compliance Matrix: (Units=1/GPa)
#
#
# Indices 1 2 3 4 5 6 
#
# 1 0.038733 -0.005774 -0.015265 0.000000 0.000000 0.000000
# 2 -0.005774 0.018265 -0.006350 0.000000 0.000000 0.000000
# 3 -0.015265 -0.006350 0.023568 0.000000 0.000000 0.000000
# 4 0.000000 0.000000 0.000000 0.039481 0.000000 0.000000
# 5 0.000000 0.000000 0.000000 0.000000 0.041473 0.000000
# 6 0.000000 0.000000 0.000000 0.000000 0.000000 0.052605
#
#
# Mechanical properties :
#
#
# Convention : Reuss Voigt Hill
#
# Bulk Modulus (GPa) = 38.77919 43.56666 41.17293
# Shear Modulus (GPa) = 18.01814 20.10710 19.06262
#
# Velocity S-wave (km/s) = 3.62539 3.82979 3.72899
# Velocity P-wave (km/s) = 6.76849 7.16495 6.96954
#
# Compressibility (1/GPa) = 0.02578702
#
# Stress axis : x y z
#
# Youngs Moduli (GPa) = 25.81792 54.75070 42.43071
#
# Poissons Ratio (x) = 0.31616 0.64769
# Poissons Ratio (y) = 0.14909 0.26944
# Poissons Ratio (z) = 0.39410 0.34767
#
# Static dielectric constant tensor:
#      x y z
#    x 2.576520 0.000000 0.000000 
#    y 0.000000 2.788630 0.000000 
#    z 0.000000 0.000000 3.138030 
# 
# 
# High freq. dielectric constant tensor:
#      x y z
#    x 1.474220 0.000000 0.000000 
#    y 0.000000 1.541380 0.000000 
#    z 0.000000 0.000000 1.513800 
# 
# From -- ./inp_files/55484.got.cif
#   From: 2010.03.12/outbox.cif.g09.slc.cpg/sg74_28_cif.got.tgz:55484.got - 2010.04.16 15:46:19.
