data_PCOD8297233
_publ_section_title
;
Structure prediction by ZEFSAII (Michael W. Deem and Ramdas Pophale) SiO2 
 PCOD8297233
Probable space group: I M M A
;
_chemical_formula_sum "Si O2"
_cell_formula_units_Z 96
_cell_length_a 14.821888
_cell_length_b 13.522040
_cell_length_c 31.401344
_cell_angle_alpha 90.000000
_cell_angle_beta 90.000000
_cell_angle_gamma 90.000000
_cell_volume 6293.525267
_symmetry_space_group_name_H-M "I M M A"
_symmetry_group_IT_number 74
_symmetry_cell_setting 'orthorhombic'
loop_
_space_group_symop_operation_xyz
x,y,z
-x,1/2-y,z
x,-y,-z
-x,1/2+y,-z
-x,-y,-z
x,1/2+y,-z
-x,y,z
x,1/2-y,z
1/2+x,1/2+y,1/2+z
1/2-x,-y,1/2+z
1/2+x,1/2-y,1/2-z
1/2-x,y,1/2-z
1/2-x,1/2-y,1/2-z
1/2+x,y,1/2-z
1/2-x,1/2+y,1/2+z
1/2+x,-y,1/2+z
loop_
_atom_site_type_symbol
_atom_site_label
_atom_site_fract_x
_atom_site_fract_y
_atom_site_fract_z
Si Si1 0.355622 0.638165 0.243730
Si Si2 0.604187 0.141652 0.378647
Si Si3 0.777281 0.137090 0.892989
Si Si4 0.398173 0.956015 0.328121
Si Si5 0.399909 0.132571 0.850213
Si Si6 0.103726 0.006360 0.950709
O O1 0.394101 0.750000 0.249815
O O2 0.250000 0.638907 0.250000
O O3 0.398193 0.561988 0.277692
O O4 0.381802 0.594230 0.197731
O O5 0.500000 0.158578 0.369721
O O6 0.652439 0.250000 0.375252
O O7 0.640862 0.063888 0.342892
O O8 0.619024 0.097596 0.426232
O O9 0.768450 0.250000 0.906304
O O10 0.837688 0.128049 0.850348
O O11 0.677026 0.092499 0.882602
O O12 0.825104 0.083631 0.932055
O O13 0.500000 0.947634 0.345912
O O14 0.500000 0.098613 0.865309
O O15 0.391677 0.250000 0.848684
O O16 0.000000 0.042200 0.944509
O O17 0.127807 0.000000 0.000000
#
# Coordination Sequence:
#
# PCOD8297233 Si02
#       6
#    16  16  16  16  16  16
#     4  10  17  26  39  59  89 120 144 172 213 258
#     4   8  15  28  43  58  80 112 145 174 206 247
#     4  10  18  28  42  63  90 115 140 173 212 255
#     4  10  18  26  40  62  86 114 146 178 211 252
#     4   9  17  28  41  58  83 117 151 176 206 253
#     4   9  18  30  44  66  91 112 137 168 209 265
#
# _framework density 15.253773000000001
#
# number of rings (size 3 to 8) (size 9 to 14) (size 15 to 20)
#    0.000    2.667    1.667    2.500    0.000    3.667 
#    0.000    1.667    0.000    1.000    0.000    0.000 
#    0.000   10.667    0.000    0.000    0.000    0.000 
#
# Total GULP energy -594728.691379 kJ/mol
# GULP energy per Si atom -12390.181070 kJ/mol
# Density = 1.521905 g / cm^3
# Si number density = 15.253773 Si / 1000 Ang^3
#
#
#
# Elastic Constant Matrix: (Units=GPa)
#
#
# Indices 1 2 3 4 5 6 
#
# 1 96.3996 23.7223 40.9713 0.0000 0.0000 0.0000
# 2 23.7223 72.1079 42.4716 0.0000 0.0000 0.0000
# 3 40.9713 42.4716 99.4423 0.0000 0.0000 0.0000
# 4 0.0000 0.0000 0.0000 16.8093 0.0000 0.0000
# 5 0.0000 0.0000 0.0000 0.0000 23.9915 0.0000
# 6 0.0000 0.0000 0.0000 0.0000 0.0000 9.8744
#
#
#
# Elastic Compliance Matrix: (Units=1/GPa)
#
#
# Indices 1 2 3 4 5 6 
#
# 1 0.012690 -0.001463 -0.004603 0.000000 0.000000 0.000000
# 2 -0.001463 0.018698 -0.007383 0.000000 0.000000 0.000000
# 3 -0.004603 -0.007383 0.015106 0.000000 0.000000 0.000000
# 4 0.000000 0.000000 0.000000 0.059491 0.000000 0.000000
# 5 0.000000 0.000000 0.000000 0.000000 0.041681 0.000000
# 6 0.000000 0.000000 0.000000 0.000000 0.000000 0.101272
#
#
# Mechanical properties :
#
#
# Convention : Reuss Voigt Hill
#
# Bulk Modulus (GPa) = 51.03453 53.58668 52.31060
# Shear Modulus (GPa) = 17.70730 20.85403 19.28067
#
# Velocity S-wave (km/s) = 3.41082 3.70150 3.55913
# Velocity P-wave (km/s) = 7.00294 7.31262 7.15946
#
# Compressibility (1/GPa) = 0.01959458
#
# Stress axis : x y z
#
# Youngs Moduli (GPa) = 78.80124 53.48132 66.19875
#
# Poissons Ratio (x) = 0.07826 0.30474
# Poissons Ratio (y) = 0.11532 0.48874
# Poissons Ratio (z) = 0.36276 0.39485
#
# Static dielectric constant tensor:
#      x y z
#    x 2.981030 0.000000 0.000000 
#    y 0.000000 2.897000 0.000000 
#    z 0.000000 0.000000 2.885070 
# 
# 
# High freq. dielectric constant tensor:
#      x y z
#    x 1.572740 0.000000 0.000000 
#    y 0.000000 1.551140 0.000000 
#    z 0.000000 0.000000 1.572430 
# 
# From -- ./inp_files/72567.got.cif
#   From: 2010.03.12/outbox.cif.g09.slc.cpg/sg74_37_cif.got.tgz:72567.got - 2010.04.16 15:46:19.
