data_PCOD8297422
_publ_section_title
;
Structure prediction by ZEFSAII (Michael W. Deem and Ramdas Pophale) SiO2 
 PCOD8297422
Probable space group: I M M A
;
_chemical_formula_sum "Si O2"
_cell_formula_units_Z 88
_cell_length_a 26.017749
_cell_length_b 9.060910
_cell_length_c 27.248071
_cell_angle_alpha 90.000000
_cell_angle_beta 90.000000
_cell_angle_gamma 90.000000
_cell_volume 6423.582386
_symmetry_space_group_name_H-M "I M M A"
_symmetry_group_IT_number 74
_symmetry_cell_setting 'orthorhombic'
loop_
_space_group_symop_operation_xyz
x,y,z
-x,1/2-y,z
x,-y,-z
-x,1/2+y,-z
-x,-y,-z
x,1/2+y,-z
-x,y,z
x,1/2-y,z
1/2+x,1/2+y,1/2+z
1/2-x,-y,1/2+z
1/2+x,1/2-y,1/2-z
1/2-x,y,1/2-z
1/2-x,1/2-y,1/2-z
1/2+x,y,1/2-z
1/2-x,1/2+y,1/2+z
1/2+x,-y,1/2+z
loop_
_atom_site_type_symbol
_atom_site_label
_atom_site_fract_x
_atom_site_fract_y
_atom_site_fract_z
Si Si1 0.851700 0.415916 0.694308
Si Si2 0.500000 0.576220 0.947947
Si Si3 0.196223 0.416797 0.221826
Si Si4 0.601929 0.421977 0.107862
Si Si5 0.755352 0.916842 0.137912
Si Si6 0.205590 0.423578 0.448150
O O1 0.869618 0.250000 0.706160
O O2 0.847399 0.505736 0.745073
O O3 0.893535 0.491598 0.659078
O O4 0.797234 0.416162 0.667730
O O5 0.500000 0.750000 0.956722
O O6 0.549965 0.524834 0.918078
O O7 0.500000 0.500000 0.000000
O O8 0.178839 0.250000 0.210539
O O9 0.250000 0.417564 0.250000
O O10 0.200953 0.505199 0.170746
O O11 0.601107 0.250000 0.120761
O O12 0.648737 0.459993 0.071576
O O13 0.772582 0.750000 0.125533
O O14 0.748345 0.009348 0.088133
O O15 0.212623 0.500000 0.500000
O O16 0.214876 0.250000 0.453021
#
# Coordination Sequence:
#
# PCOD8297422 Si02
#       6
#    16   8  16  16  16  16
#     4   9  16  25  38  54  70  88 110 138 173 213
#     4  10  20  32  44  56  70  90 118 154 195 234
#     4   9  15  23  36  53  72  91 109 132 166 207
#     4   9  18  30  41  53  69  89 115 149 189 230
#     4   9  16  25  36  51  70  90 113 140 170 206
#     4  10  18  27  38  51  68  91 119 150 184 219
#
# _framework density 13.69952
#
# number of rings (size 3 to 8) (size 9 to 14) (size 15 to 20)
#    0.000    2.727    0.000    2.727    0.000    8.000 
#    0.000    0.000    0.000    0.000    0.000    0.000 
#    0.000    0.000    0.000    0.000    0.000    0.000 
#
# Total GULP energy -545584.017301 kJ/mol
# GULP energy per Si atom -12399.636757 kJ/mol
# Density = 1.366834 g / cm^3
# Si number density = 13.699520 Si / 1000 Ang^3
#
#
#
# Elastic Constant Matrix: (Units=GPa)
#
#
# Indices 1 2 3 4 5 6 
#
# 1 36.9729 31.0270 48.6334 0.0000 0.0000 0.0000
# 2 31.0270 105.3407 65.8854 0.0000 0.0000 0.0000
# 3 48.6334 65.8854 111.5691 0.0000 0.0000 0.0000
# 4 0.0000 0.0000 0.0000 30.5896 0.0000 0.0000
# 5 0.0000 0.0000 0.0000 0.0000 20.7977 0.0000
# 6 0.0000 0.0000 0.0000 0.0000 0.0000 12.1293
#
#
#
# Elastic Compliance Matrix: (Units=1/GPa)
#
#
# Indices 1 2 3 4 5 6 
#
# 1 0.063722 -0.002213 -0.026470 0.000000 0.000000 0.000000
# 2 -0.002213 0.015130 -0.007970 0.000000 0.000000 0.000000
# 3 -0.026470 -0.007970 0.025208 0.000000 0.000000 0.000000
# 4 0.000000 0.000000 0.000000 0.032691 0.000000 0.000000
# 5 0.000000 0.000000 0.000000 0.000000 0.048082 0.000000
# 6 0.000000 0.000000 0.000000 0.000000 0.000000 0.082445
#
#
# Mechanical properties :
#
#
# Convention : Reuss Voigt Hill
#
# Bulk Modulus (GPa) = 32.51625 60.55272 46.53448
# Shear Modulus (GPa) = 14.25177 19.92577 17.08877
#
# Velocity S-wave (km/s) = 3.22888 3.81791 3.53569
# Velocity P-wave (km/s) = 6.13904 7.98322 7.12108
#
# Compressibility (1/GPa) = 0.03075386
#
# Stress axis : x y z
#
# Youngs Moduli (GPa) = 15.69324 66.09557 39.67031
#
# Poissons Ratio (x) = 0.14628 1.05006
# Poissons Ratio (y) = 0.03473 0.31617
# Poissons Ratio (z) = 0.41539 0.52677
#
# Static dielectric constant tensor:
#      x y z
#    x 2.352950 0.000000 0.000000 
#    y 0.000000 2.904290 0.000000 
#    z 0.000000 0.000000 2.723270 
# 
# 
# High freq. dielectric constant tensor:
#      x y z
#    x 1.456330 0.000000 0.000000 
#    y 0.000000 1.541580 0.000000 
#    z 0.000000 0.000000 1.516500 
# 
# From -- ./inp_files/49483.got.cif
#   From: 2010.03.12/outbox.cif.g09.slc.cpg/sg74_25_cif.got.tgz:49483.got - 2010.04.16 15:46:19.
