data_PCOD8297552
_publ_section_title
;
Structure prediction by ZEFSAII (Michael W. Deem and Ramdas Pophale) SiO2 
 PCOD8297552
Probable space group: I M M A
;
_chemical_formula_sum "Si O2"
_cell_formula_units_Z 80
_cell_length_a 26.580704
_cell_length_b 9.341270
_cell_length_c 19.375260
_cell_angle_alpha 90.000000
_cell_angle_beta 90.000000
_cell_angle_gamma 90.000000
_cell_volume 4810.829256
_symmetry_space_group_name_H-M "I M M A"
_symmetry_group_IT_number 74
_symmetry_cell_setting 'orthorhombic'
loop_
_space_group_symop_operation_xyz
x,y,z
-x,1/2-y,z
x,-y,-z
-x,1/2+y,-z
-x,-y,-z
x,1/2+y,-z
-x,y,z
x,1/2-y,z
1/2+x,1/2+y,1/2+z
1/2-x,-y,1/2+z
1/2+x,1/2-y,1/2-z
1/2-x,y,1/2-z
1/2-x,1/2-y,1/2-z
1/2+x,y,1/2-z
1/2-x,1/2+y,1/2+z
1/2+x,-y,1/2+z
loop_
_atom_site_type_symbol
_atom_site_label
_atom_site_fract_x
_atom_site_fract_y
_atom_site_fract_z
Si Si1 0.195840 0.079973 0.782689
Si Si2 0.691636 0.592431 0.059837
Si Si3 0.193089 0.405323 0.939388
Si Si4 0.942944 0.415708 0.431579
Si Si5 0.355398 0.080699 0.171253
O O1 0.187586 0.250000 0.774847
O O2 0.250000 0.037661 0.750000
O O3 0.190750 0.029914 0.862297
O O4 0.150298 0.991557 0.746366
O O5 0.666011 0.750000 0.067274
O O6 0.749092 0.615896 0.040110
O O7 0.688473 0.499795 0.129089
O O8 0.664009 0.500000 0.000000
O O9 0.166345 0.250000 0.940562
O O10 0.167168 0.500000 0.000000
O O11 0.926502 0.500000 0.500000
O O12 0.936754 0.250000 0.449609
O O13 0.908361 0.456840 0.365753
O O14 0.000000 0.454199 0.410293
O O15 0.345726 0.250000 0.174968
#
# Coordination Sequence:
#
# PCOD8297552 Si02
#       5
#    16  16  16  16  16
#     4  10  19  34  48  63  92 128 158 191 238 283
#     4  10  18  29  42  60  87 119 155 193 231 273
#     4   9  18  31  46  61  83 119 156 188 225 269
#     4   9  19  35  51  68  94 126 161 201 244 287
#     4  11  21  30  45  69  91 119 158 199 240 281
#
# _framework density 16.629149000000002
#
# number of rings (size 3 to 8) (size 9 to 14) (size 15 to 20)
#    0.000    2.200    2.000    1.800    0.000    5.200 
#    0.000    0.000    0.000    0.000    0.000    0.000 
#    0.000    0.800    0.000    1.800    0.000    2.800 
#
# Total GULP energy -495595.365999 kJ/mol
# GULP energy per Si atom -12389.884150 kJ/mol
# Density = 1.659130 g / cm^3
# Si number density = 16.629149 Si / 1000 Ang^3
#
#
#
# Elastic Constant Matrix: (Units=GPa)
#
#
# Indices 1 2 3 4 5 6 
#
# 1 47.3601 27.3287 32.0766 0.0000 0.0000 0.0000
# 2 27.3287 88.8324 65.5146 0.0000 0.0000 0.0000
# 3 32.0766 65.5146 148.8068 0.0000 0.0000 0.0000
# 4 0.0000 0.0000 0.0000 31.5883 0.0000 0.0000
# 5 0.0000 0.0000 0.0000 0.0000 19.6864 0.0000
# 6 0.0000 0.0000 0.0000 0.0000 0.0000 14.2208
#
#
#
# Elastic Compliance Matrix: (Units=1/GPa)
#
#
# Indices 1 2 3 4 5 6 
#
# 1 0.026639 -0.005865 -0.003160 0.000000 0.000000 0.000000
# 2 -0.005865 0.017961 -0.006643 0.000000 0.000000 0.000000
# 3 -0.003160 -0.006643 0.010326 0.000000 0.000000 0.000000
# 4 0.000000 0.000000 0.000000 0.031657 0.000000 0.000000
# 5 0.000000 0.000000 0.000000 0.000000 0.050796 0.000000
# 6 0.000000 0.000000 0.000000 0.000000 0.000000 0.070320
#
#
# Mechanical properties :
#
#
# Convention : Reuss Voigt Hill
#
# Bulk Modulus (GPa) = 42.39129 59.42656 50.90892
# Shear Modulus (GPa) = 20.25111 23.77106 22.01108
#
# Velocity S-wave (km/s) = 3.49350 3.78495 3.64214
# Velocity P-wave (km/s) = 6.46685 7.41047 6.95468
#
# Compressibility (1/GPa) = 0.02358975
#
# Stress axis : x y z
#
# Youngs Moduli (GPa) = 37.53832 55.67634 96.84076
#
# Poissons Ratio (x) = 0.32652 0.30605
# Poissons Ratio (y) = 0.22015 0.64335
# Poissons Ratio (z) = 0.11863 0.36988
#
# Static dielectric constant tensor:
#      x y z
#    x 2.775610 0.000000 0.000000 
#    y 0.000000 3.499510 0.000000 
#    z 0.000000 0.000000 3.247920 
# 
# 
# High freq. dielectric constant tensor:
#      x y z
#    x 1.582010 0.000000 0.000000 
#    y 0.000000 1.651930 0.000000 
#    z 0.000000 0.000000 1.638250 
# 
# From -- ./inp_files/39741.got.cif
#   From: 2010.03.12/outbox.cif.g09.slc.cpg/sg74_20_cif.got.tgz:39741.got - 2010.04.16 15:46:19.
