data_PCOD8297967
_publ_section_title
;
Structure prediction by ZEFSAII (Michael W. Deem and Ramdas Pophale) SiO2 
 PCOD8297967
Probable space group: I M M A
;
_chemical_formula_sum "Si O2"
_cell_formula_units_Z 56
_cell_length_a 9.724196
_cell_length_b 8.934174
_cell_length_c 38.811959
_cell_angle_alpha 90.000000
_cell_angle_beta 90.000000
_cell_angle_gamma 90.000000
_cell_volume 3371.892142
_symmetry_space_group_name_H-M "I M M A"
_symmetry_group_IT_number 74
_symmetry_cell_setting 'orthorhombic'
loop_
_space_group_symop_operation_xyz
x,y,z
-x,1/2-y,z
x,-y,-z
-x,1/2+y,-z
-x,-y,-z
x,1/2+y,-z
-x,y,z
x,1/2-y,z
1/2+x,1/2+y,1/2+z
1/2-x,-y,1/2+z
1/2+x,1/2-y,1/2-z
1/2-x,y,1/2-z
1/2-x,1/2-y,1/2-z
1/2+x,y,1/2-z
1/2-x,1/2+y,1/2+z
1/2+x,-y,1/2+z
loop_
_atom_site_type_symbol
_atom_site_label
_atom_site_fract_x
_atom_site_fract_y
_atom_site_fract_z
Si Si1 0.661068 0.422422 0.352054
Si Si2 0.650832 0.419515 0.906579
Si Si3 0.658225 0.424387 0.718238
Si Si4 0.000000 0.572180 0.537194
O O1 0.500000 0.447762 0.357540
O O2 0.703101 0.250000 0.353295
O O3 0.736345 0.507625 0.382488
O O4 0.708000 0.487285 0.315378
O O5 0.500000 0.420273 0.888082
O O6 0.696094 0.250000 0.915297
O O7 0.636193 0.513948 0.942237
O O8 0.500000 0.459680 0.727078
O O9 0.681809 0.250000 0.710902
O O10 0.750000 0.480693 0.750000
O O11 0.000000 0.500000 0.500000
O O12 0.000000 0.750000 0.534566
#
# Coordination Sequence:
#
# PCOD8297967 Si02
#       4
#    16  16  16   8
#     4  10  20  33  50  73 102 135 170 211 260 311
#     4   9  19  33  51  77 102 132 172 209 249 298
#     4   9  18  32  48  66  91 127 168 211 258 307
#     4  10  18  32  54  80 110 138 168 208 252 300
#
# _framework density 16.607885
#
# number of rings (size 3 to 8) (size 9 to 14) (size 15 to 20)
#    0.857    1.714    0.000    2.571    0.000    3.429 
#    0.000    2.857    0.000    0.857    0.000    0.000 
#    0.000    0.000    0.000    0.000    0.000    0.000 
#
# Total GULP energy -347078.369616 kJ/mol
# GULP energy per Si atom -12395.656058 kJ/mol
# Density = 1.657008 g / cm^3
# Si number density = 16.607885 Si / 1000 Ang^3
#
#
#
# Elastic Constant Matrix: (Units=GPa)
#
#
# Indices 1 2 3 4 5 6 
#
# 1 43.3436 40.3317 52.3291 0.0000 0.0000 0.0000
# 2 40.3317 137.9357 82.4283 0.0000 0.0000 0.0000
# 3 52.3291 82.4283 141.1488 0.0000 0.0000 0.0000
# 4 0.0000 0.0000 0.0000 34.1366 0.0000 0.0000
# 5 0.0000 0.0000 0.0000 0.0000 28.0291 0.0000
# 6 0.0000 0.0000 0.0000 0.0000 0.0000 24.9941
#
#
#
# Elastic Compliance Matrix: (Units=1/GPa)
#
#
# Indices 1 2 3 4 5 6 
#
# 1 0.043707 -0.004756 -0.013426 0.000000 0.000000 0.000000
# 2 -0.004756 0.011654 -0.005042 0.000000 0.000000 0.000000
# 3 -0.013426 -0.005042 0.015007 0.000000 0.000000 0.000000
# 4 0.000000 0.000000 0.000000 0.029294 0.000000 0.000000
# 5 0.000000 0.000000 0.000000 0.000000 0.035677 0.000000
# 6 0.000000 0.000000 0.000000 0.000000 0.000000 0.040009
#
#
# Mechanical properties :
#
#
# Convention : Reuss Voigt Hill
#
# Bulk Modulus (GPa) = 41.80961 74.73403 58.27182
# Shear Modulus (GPa) = 21.76094 27.25457 24.50775
#
# Velocity S-wave (km/s) = 3.62370 4.05540 3.84561
# Velocity P-wave (km/s) = 6.53739 8.18689 7.40819
#
# Compressibility (1/GPa) = 0.02391795
#
# Stress axis : x y z
#
# Youngs Moduli (GPa) = 22.87975 85.81041 66.63680
#
# Poissons Ratio (x) = 0.40815 0.89467
# Poissons Ratio (y) = 0.10883 0.33599
# Poissons Ratio (z) = 0.30718 0.43266
#
# Static dielectric constant tensor:
#      x y z
#    x 2.933150 0.000000 0.000000 
#    y 0.000000 3.246830 0.000000 
#    z 0.000000 0.000000 3.013310 
# 
# 
# High freq. dielectric constant tensor:
#      x y z
#    x 1.620240 0.000000 0.000000 
#    y 0.000000 1.654600 0.000000 
#    z 0.000000 0.000000 1.631790 
# 
# From -- ./inp_files/71201.got.cif
#   From: 2010.03.12/outbox.cif.g09.slc.cpg/sg74_36_cif.got.tgz:71201.got - 2010.04.16 15:46:19.
