data_PCOD8297170
_publ_section_title
;
Structure prediction by ZEFSAII (Michael W. Deem and Ramdas Pophale) SiO2 
 PCOD8297170
Probable space group: I M M A
;
_chemical_formula_sum "Si O2"
_cell_formula_units_Z 80
_cell_length_a 10.284045
_cell_length_b 23.693130
_cell_length_c 21.562217
_cell_angle_alpha 90.000000
_cell_angle_beta 90.000000
_cell_angle_gamma 90.000000
_cell_volume 5253.875995
_symmetry_space_group_name_H-M "I M M A"
_symmetry_group_IT_number 74
_symmetry_cell_setting 'orthorhombic'
loop_
_space_group_symop_operation_xyz
x,y,z
-x,1/2-y,z
x,-y,-z
-x,1/2+y,-z
-x,-y,-z
x,1/2+y,-z
-x,y,z
x,1/2-y,z
1/2+x,1/2+y,1/2+z
1/2-x,-y,1/2+z
1/2+x,1/2-y,1/2-z
1/2-x,y,1/2-z
1/2-x,1/2-y,1/2-z
1/2+x,y,1/2-z
1/2-x,1/2+y,1/2+z
1/2+x,-y,1/2+z
loop_
_atom_site_type_symbol
_atom_site_label
_atom_site_fract_x
_atom_site_fract_y
_atom_site_fract_z
Si Si1 0.738216 0.583717 0.877777
Si Si2 0.000000 0.136064 0.166791
Si Si3 0.000000 0.250000 0.088787
Si Si4 0.855854 0.024053 0.568839
Si Si5 0.000000 0.250000 0.386267
Si Si6 0.232515 0.750000 0.517720
Si Si7 0.000000 0.135609 0.311328
Si Si8 0.654824 0.367199 0.992859
O O1 0.735349 0.515716 0.889151
O O2 0.627412 0.600236 0.828987
O O3 0.718487 0.616751 0.941803
O O4 0.876725 0.598569 0.850396
O O5 0.000000 0.195325 0.131799
O O6 0.000000 0.148833 0.239056
O O7 0.876526 0.250000 0.044216
O O8 0.804074 0.088716 0.561690
O O9 0.000000 0.023559 0.598484
O O10 0.864453 0.000000 0.500000
O O11 0.130093 0.250000 0.426438
O O12 0.000000 0.195447 0.344196
O O13 0.207722 0.805204 0.474935
O O14 0.500000 0.367703 0.002024
#
# Coordination Sequence:
#
# PCOD8297170 Si02
#       8
#    16   8   4  16   4   8   8  16
#     4  11  18  34  46  64  87 114 152 194 233 268
#     4  12  25  32  44  63  89 125 159 202 227 260
#     4  12  23  36  38  56 100 126 154 188 245 252
#     4   8  15  27  50  70  83 106 144 189 232 276
#     4  12  19  32  50  60  80 118 170 204 219 244
#     4  12  18  30  49  66  92 122 149 193 222 269
#     4  12  21  34  48  61  83 121 169 198 227 254
#     4  10  16  29  51  71  84 113 153 184 226 275
#
# _framework density 15.226853999999999
#
# number of rings (size 3 to 8) (size 9 to 14) (size 15 to 20)
#    0.000    1.400    7.000    2.100    0.000    0.000 
#    0.000    8.500    0.000    0.000    0.000    0.000 
#    0.000    0.000    0.000    5.400    0.000    0.100 
#
# Total GULP energy -495827.230411 kJ/mol
# GULP energy per Si atom -12395.680760 kJ/mol
# Density = 1.519220 g / cm^3
# Si number density = 15.226854 Si / 1000 Ang^3
#
#
#
# Elastic Constant Matrix: (Units=GPa)
#
#
# Indices 1 2 3 4 5 6 
#
# 1 105.3734 46.0201 23.5194 0.0000 0.0000 0.0000
# 2 46.0201 152.7214 38.3839 0.0000 0.0000 0.0000
# 3 23.5194 38.3839 25.2690 0.0000 0.0000 0.0000
# 4 0.0000 0.0000 0.0000 -6.7574 0.0000 0.0000
# 5 0.0000 0.0000 0.0000 0.0000 8.1335 0.0000
# 6 0.0000 0.0000 0.0000 0.0000 0.0000 15.1119
#
#
#
# Elastic Compliance Matrix: (Units=1/GPa)
#
#
# Indices 1 2 3 4 5 6 
#
# 1 0.012142 -0.001324 -0.009290 0.000000 0.000000 0.000000
# 2 -0.001324 0.010736 -0.015076 0.000000 0.000000 0.000000
# 3 -0.009290 -0.015076 0.071122 0.000000 0.000000 0.000000
# 4 0.000000 0.000000 0.000000 -0.147986 0.000000 0.000000
# 5 0.000000 0.000000 0.000000 0.000000 0.122948 0.000000
# 6 0.000000 0.000000 0.000000 0.000000 0.000000 0.066173
#
#
# Mechanical properties :
#
#
# Convention : Reuss Voigt Hill
#
# Bulk Modulus (GPa) = 23.46340 55.46784 39.46562
# Shear Modulus (GPa) = 24.91030 14.99363 19.95196
#
# Velocity S-wave (km/s) = 4.04907 3.14137 3.62375
# Velocity P-wave (km/s) = 6.10759 7.04729 6.59420
#
# Compressibility (1/GPa) = 0.04261956
#
# Stress axis : x y z
#
# Youngs Moduli (GPa) = 82.36020 93.14638 14.06045
#
# Poissons Ratio (x) = 0.12330 0.13063
# Poissons Ratio (y) = 0.10903 0.21197
# Poissons Ratio (z) = 0.76515 1.40425
#
# Static dielectric constant tensor:
#      x y z
#    x 2.903960 0.000000 0.000000 
#    y 0.000000 3.533020 0.000000 
#    z 0.000000 0.000000 2.600210 
# 
# 
# High freq. dielectric constant tensor:
#      x y z
#    x 1.580370 0.000000 0.000000 
#    y 0.000000 1.597500 0.000000 
#    z 0.000000 0.000000 1.526860 
# 
# From -- ./inp_files/48681.got.cif
#   From: 2010.03.12/outbox.cif.g09.slc.cpg/sg74_25_cif.got.tgz:48681.got - 2010.04.16 15:46:19.
