data_PCOD8297135
_publ_section_title
;
Structure prediction by ZEFSAII (Michael W. Deem and Ramdas Pophale) SiO2 
 PCOD8297135
Probable space group: I M M A
;
_chemical_formula_sum "Si O2"
_cell_formula_units_Z 80
_cell_length_a 19.427063
_cell_length_b 8.888710
_cell_length_c 32.851399
_cell_angle_alpha 90.000000
_cell_angle_beta 90.000000
_cell_angle_gamma 90.000000
_cell_volume 5672.829814
_symmetry_space_group_name_H-M "I M M A"
_symmetry_group_IT_number 74
_symmetry_cell_setting 'orthorhombic'
loop_
_space_group_symop_operation_xyz
x,y,z
-x,1/2-y,z
x,-y,-z
-x,1/2+y,-z
-x,-y,-z
x,1/2+y,-z
-x,y,z
x,1/2-y,z
1/2+x,1/2+y,1/2+z
1/2-x,-y,1/2+z
1/2+x,1/2-y,1/2-z
1/2-x,y,1/2-z
1/2-x,1/2-y,1/2-z
1/2+x,y,1/2-z
1/2-x,1/2+y,1/2+z
1/2+x,-y,1/2+z
loop_
_atom_site_type_symbol
_atom_site_label
_atom_site_fract_x
_atom_site_fract_y
_atom_site_fract_z
Si Si1 0.220907 0.428223 0.186018
Si Si2 0.365239 0.425011 0.619657
Si Si3 0.578995 0.572751 0.542261
Si Si4 0.000000 0.077901 0.828833
Si Si5 0.648094 0.571596 0.767707
Si Si6 0.000000 0.072676 0.255889
O O1 0.214738 0.250000 0.179679
O O2 0.199695 0.511430 0.144697
O O3 0.299531 0.478042 0.196671
O O4 0.173258 0.485522 0.223402
O O5 0.354219 0.250000 0.611288
O O6 0.370535 0.509454 0.576778
O O7 0.433896 0.459256 0.644508
O O8 0.602731 0.500000 0.500000
O O9 0.500000 0.527219 0.551947
O O10 0.587790 0.750000 0.539168
O O11 0.000000 0.250000 0.813465
O O12 0.000000 0.965246 0.791447
O O13 0.648323 0.750000 0.765417
O O14 0.570564 0.508637 0.776358
O O15 0.000000 0.250000 0.260379
#
# Coordination Sequence:
#
# PCOD8297135 Si02
#       6
#    16  16  16   8  16   8
#     4   9  16  28  41  57  79 104 134 172 211 246
#     4  11  20  30  42  58  81 108 138 173 207 243
#     4  10  20  32  46  62  81 106 135 168 206 244
#     4  10  20  28  35  55  82 104 133 175 211 236
#     4   8  15  25  40  59  79 101 134 175 210 244
#     4  10  16  26  44  59  73 104 143 175 207 248
#
# _framework density 14.102308000000001
#
# number of rings (size 3 to 8) (size 9 to 14) (size 15 to 20)
#    0.000    2.400    3.000    2.400    0.000    1.600 
#    0.000    3.000    0.000    0.000    0.000    0.000 
#    0.000    0.000    0.000    0.900    0.000    9.000 
#
# Total GULP energy -495816.655932 kJ/mol
# GULP energy per Si atom -12395.416398 kJ/mol
# Density = 1.407021 g / cm^3
# Si number density = 14.102308 Si / 1000 Ang^3
#
#
#
# Elastic Constant Matrix: (Units=GPa)
#
#
# Indices 1 2 3 4 5 6 
#
# 1 107.1327 24.6815 49.9643 0.0000 0.0000 0.0000
# 2 24.6815 40.1544 31.5727 0.0000 0.0000 0.0000
# 3 49.9643 31.5727 93.1828 0.0000 0.0000 0.0000
# 4 0.0000 0.0000 0.0000 22.5174 0.0000 0.0000
# 5 0.0000 0.0000 0.0000 0.0000 21.3210 0.0000
# 6 0.0000 0.0000 0.0000 0.0000 0.0000 12.8379
#
#
#
# Elastic Compliance Matrix: (Units=1/GPa)
#
#
# Indices 1 2 3 4 5 6 
#
# 1 0.012771 -0.003361 -0.005709 0.000000 0.000000 0.000000
# 2 -0.003361 0.034833 -0.010000 0.000000 0.000000 0.000000
# 3 -0.005709 -0.010000 0.017181 0.000000 0.000000 0.000000
# 4 0.000000 0.000000 0.000000 0.044410 0.000000 0.000000
# 5 0.000000 0.000000 0.000000 0.000000 0.046902 0.000000
# 6 0.000000 0.000000 0.000000 0.000000 0.000000 0.077894
#
#
# Mechanical properties :
#
#
# Convention : Reuss Voigt Hill
#
# Bulk Modulus (GPa) = 37.53105 50.32299 43.92702
# Shear Modulus (GPa) = 17.79280 20.28537 19.03909
#
# Velocity S-wave (km/s) = 3.55589 3.79680 3.67831
# Velocity P-wave (km/s) = 6.59775 7.41502 7.01829
#
# Compressibility (1/GPa) = 0.02664460
#
# Stress axis : x y z
#
# Youngs Moduli (GPa) = 78.30172 28.70874 58.20385
#
# Poissons Ratio (x) = 0.09649 0.33229
# Poissons Ratio (y) = 0.26318 0.58204
# Poissons Ratio (z) = 0.44703 0.28709
#
# Static dielectric constant tensor:
#      x y z
#    x 3.073780 0.000000 0.000000 
#    y 0.000000 2.621160 0.000000 
#    z 0.000000 0.000000 2.601010 
# 
# 
# High freq. dielectric constant tensor:
#      x y z
#    x 1.520410 0.000000 0.000000 
#    y 0.000000 1.531380 0.000000 
#    z 0.000000 0.000000 1.511040 
# 
# From -- ./inp_files/68055.got.cif
#   From: 2010.03.12/outbox.cif.g09.slc.cpg/sg74_35_cif.got.tgz:68055.got - 2010.04.16 15:46:19.
