data_PCOD8297702
_publ_section_title
;
Structure prediction by ZEFSAII (Michael W. Deem and Ramdas Pophale) SiO2 
 PCOD8297702
Probable space group: I M M A
;
_chemical_formula_sum "Si O2"
_cell_formula_units_Z 88
_cell_length_a 24.359478
_cell_length_b 17.363261
_cell_length_c 12.445905
_cell_angle_alpha 90.000000
_cell_angle_beta 90.000000
_cell_angle_gamma 90.000000
_cell_volume 5264.119659
_symmetry_space_group_name_H-M "I M M A"
_symmetry_group_IT_number 74
_symmetry_cell_setting 'orthorhombic'
loop_
_space_group_symop_operation_xyz
x,y,z
-x,1/2-y,z
x,-y,-z
-x,1/2+y,-z
-x,-y,-z
x,1/2+y,-z
-x,y,z
x,1/2-y,z
1/2+x,1/2+y,1/2+z
1/2-x,-y,1/2+z
1/2+x,1/2-y,1/2-z
1/2-x,y,1/2-z
1/2-x,1/2-y,1/2-z
1/2+x,y,1/2-z
1/2-x,1/2+y,1/2+z
1/2+x,-y,1/2+z
loop_
_atom_site_type_symbol
_atom_site_label
_atom_site_fract_x
_atom_site_fract_y
_atom_site_fract_z
Si Si1 0.150492 0.552712 0.694530
Si Si2 0.861978 0.163129 0.507867
Si Si3 0.438886 0.048429 0.891720
Si Si4 0.798387 0.163035 0.162779
Si Si5 0.241375 0.163949 0.928480
Si Si6 0.250000 0.551222 0.250000
O O1 0.148869 0.609293 0.593592
O O2 0.096668 0.498725 0.696157
O O3 0.152609 0.605472 0.801941
O O4 0.205024 0.500326 0.689024
O O5 0.876978 0.250000 0.470043
O O6 0.910810 0.130340 0.582156
O O7 0.807214 0.164353 0.578715
O O8 0.500000 0.062428 0.845324
O O9 0.441766 0.000000 0.000000
O O10 0.820753 0.250000 0.160491
O O11 0.750000 0.155094 0.250000
O O12 0.777543 0.137036 0.046417
O O13 0.219024 0.250000 0.903680
O O14 0.219551 0.104515 0.839078
#
# Coordination Sequence:
#
# PCOD8297702 Si02
#       6
#    16  16  16  16  16   8
#     4  11  19  29  49  74 100 129 169 216 253 314
#     4  10  18  31  50  69  97 135 169 210 257 300
#     4   9  19  33  48  70 101 135 169 207 257 312
#     4  10  18  30  48  72 100 133 170 213 260 311
#     4  10  20  32  46  70 106 138 168 207 255 315
#     4  12  21  30  47  74 104 144 170 206 265 318
#
# _framework density 16.716946
#
# number of rings (size 3 to 8) (size 9 to 14) (size 15 to 20)
#    0.000    1.818    4.545    0.818    0.000    2.545 
#    0.000    0.000    0.000    1.636    0.000    2.545 
#    0.000    1.455    0.000    0.000    0.000    0.000 
#
# Total GULP energy -545381.970448 kJ/mol
# GULP energy per Si atom -12395.044783 kJ/mol
# Density = 1.667890 g / cm^3
# Si number density = 16.716946 Si / 1000 Ang^3
#
#
#
# Elastic Constant Matrix: (Units=GPa)
#
#
# Indices 1 2 3 4 5 6 
#
# 1 92.3808 47.6328 27.4617 0.0000 0.0000 0.0000
# 2 47.6328 121.9156 54.1481 0.0000 0.0000 0.0000
# 3 27.4617 54.1481 80.8441 0.0000 0.0000 0.0000
# 4 0.0000 0.0000 0.0000 28.9045 0.0000 0.0000
# 5 0.0000 0.0000 0.0000 0.0000 18.0467 0.0000
# 6 0.0000 0.0000 0.0000 0.0000 0.0000 18.9981
#
#
#
# Elastic Compliance Matrix: (Units=1/GPa)
#
#
# Indices 1 2 3 4 5 6 
#
# 1 0.013685 -0.004672 -0.001519 0.000000 0.000000 0.000000
# 2 -0.004672 0.013271 -0.007301 0.000000 0.000000 0.000000
# 3 -0.001519 -0.007301 0.017776 0.000000 0.000000 0.000000
# 4 0.000000 0.000000 0.000000 0.034597 0.000000 0.000000
# 5 0.000000 0.000000 0.000000 0.000000 0.055412 0.000000
# 6 0.000000 0.000000 0.000000 0.000000 0.000000 0.052637
#
#
# Mechanical properties :
#
#
# Convention : Reuss Voigt Hill
#
# Bulk Modulus (GPa) = 56.35033 61.51398 58.93215
# Shear Modulus (GPa) = 22.69850 24.24972 23.47411
#
# Velocity S-wave (km/s) = 3.68885 3.81282 3.75134
# Velocity P-wave (km/s) = 7.20591 7.50071 7.35479
#
# Compressibility (1/GPa) = 0.01774613
#
# Stress axis : x y z
#
# Youngs Moduli (GPa) = 73.07033 75.35413 56.25558
#
# Poissons Ratio (x) = 0.35206 0.08548
# Poissons Ratio (y) = 0.34139 0.41075
# Poissons Ratio (z) = 0.11103 0.55019
#
# Static dielectric constant tensor:
#      x y z
#    x 3.095640 0.000000 0.000000 
#    y 0.000000 3.530520 0.000000 
#    z 0.000000 0.000000 2.977560 
# 
# 
# High freq. dielectric constant tensor:
#      x y z
#    x 1.597960 0.000000 0.000000 
#    y 0.000000 1.668080 0.000000 
#    z 0.000000 0.000000 1.618990 
# 
# From -- ./inp_files/27290.got.cif
#   From: 2010.03.12/outbox.cif.g09.slc.cpg/sg74_14_cif.got.tgz:27290.got - 2010.04.16 15:46:19.
