data_PCOD8297065
_publ_section_title
;
Structure prediction by ZEFSAII (Michael W. Deem and Ramdas Pophale) SiO2 
 PCOD8297065
Probable space group: I B C A 
;
_chemical_formula_sum "Si O2"
_cell_formula_units_Z 80
_cell_length_a 16.588566
_cell_length_b 9.604685
_cell_length_c 22.281321
_cell_angle_alpha 90.000000
_cell_angle_beta 90.000000
_cell_angle_gamma 90.000000
_cell_volume 3550.037221
_symmetry_space_group_name_H-M "I B C A "
_symmetry_group_IT_number 73
_symmetry_cell_setting 'orthorhombic'
loop_
_space_group_symop_operation_xyz
x,y,z
-x,1/2-y,z
x,-y,1/2-z
1/2-x,y,-z
-x,-y,-z
x,1/2+y,-z
-x,y,1/2+z
1/2+x,-y,z
1/2+x,1/2+y,1/2+z
1/2-x,-y,1/2+z
1/2+x,1/2-y,-z
-x,1/2+y,1/2-z
1/2-x,1/2-y,1/2-z
1/2+x,y,1/2-z
1/2-x,1/2+y,z
x,1/2-y,1/2+z
loop_
_atom_site_type_symbol
_atom_site_label
_atom_site_fract_x
_atom_site_fract_y
_atom_site_fract_z
Si Si1 0.407771 0.000000 0.250000
Si Si2 0.500000 0.250000 0.210951
Si Si3 0.630130 0.892656 0.371141
Si Si4 0.812188 0.062387 0.132689
Si Si5 0.332451 0.825274 0.466735
Si Si6 0.086372 0.684088 0.913491
O O1 0.465707 0.132694 0.254530
O O2 0.355476 0.995586 0.310159
O O3 0.575105 0.197765 0.172167
O O4 0.720475 0.913549 0.346332
O O5 0.636866 0.813507 0.434269
O O6 0.587620 0.041662 0.376437
O O7 0.679564 0.455095 0.077679
O O8 0.846466 0.210985 0.112132
O O9 0.250000 0.788869 0.500000
O O10 0.398616 0.858341 0.517319
O O11 0.000000 0.750000 0.905297
#
# Coordination Sequence:
#
# PCOD8297065 Si02
#       6
#     8   8  16  16  16  16
#     4  12  30  52  80 110 154 206 264 328 386 470
#     4  12  30  52  76 108 158 202 262 334 386 458
#     4  12  26  50  76 111 153 203 264 315 389 471
#     4  12  26  51  79 113 149 208 266 308 398 472
#     4  12  24  48  77 115 155 202 254 321 381 471
#     4  12  28  43  77 115 157 199 252 325 396 456
#
# _framework density 22.534973999999998
#
# number of rings (size 3 to 8) (size 9 to 14) (size 15 to 20)
#    0.000    0.000    6.000    2.400    5.600    3.200 
#    0.000    0.000    0.000    0.000    0.000    0.000 
#    0.000    0.000    0.000    0.000    0.000    0.000 
#
# Total GULP energy -496214.295284 kJ/mol
# GULP energy per Si atom -12405.357382 kJ/mol
# Density = 2.248368 g / cm^3
# Si number density = 22.534974 Si / 1000 Ang^3
#
#
#
# Elastic Constant Matrix: (Units=GPa)
#
#
# Indices 1 2 3 4 5 6 
#
# 1 154.5648 59.3473 38.4939 0.0000 0.0000 0.0000
# 2 59.3473 132.6485 11.6186 0.0000 0.0000 0.0000
# 3 38.4939 11.6186 65.6590 0.0000 0.0000 0.0000
# 4 0.0000 0.0000 0.0000 9.8428 0.0000 0.0000
# 5 0.0000 0.0000 0.0000 0.0000 -126.8313 0.0000
# 6 0.0000 0.0000 0.0000 0.0000 0.0000 35.7759
#
#
#
# Elastic Compliance Matrix: (Units=1/GPa)
#
#
# Indices 1 2 3 4 5 6 
#
# 1 0.009020 -0.003629 -0.004646 0.000000 0.000000 0.000000
# 2 -0.003629 0.009117 0.000514 0.000000 0.000000 0.000000
# 3 -0.004646 0.000514 0.017863 0.000000 0.000000 0.000000
# 4 0.000000 0.000000 0.000000 0.101597 0.000000 0.000000
# 5 0.000000 0.000000 0.000000 0.000000 -0.007884 0.000000
# 6 0.000000 0.000000 0.000000 0.000000 0.000000 0.027952
#
#
# Mechanical properties :
#
#
# Convention : Reuss Voigt Hill
#
# Bulk Modulus (GPa) = 48.83060 63.53242 56.18151
# Shear Modulus (GPa) = 27.77576 -0.01503 13.88037
#
# Velocity S-wave (km/s) = 3.51460 -0.08175 2.48452
# Velocity P-wave (km/s) = 6.17946 5.31461 5.76328
#
# Compressibility (1/GPa) = 0.02047896
#
# Stress axis : x y z
#
# Youngs Moduli (GPa) = 110.86253 109.68292 55.98124
#
# Poissons Ratio (x) = 0.39801 0.26010
# Poissons Ratio (y) = 0.40229 -0.02878
# Poissons Ratio (z) = 0.51508 -0.05639
#
# Static dielectric constant tensor:
#      x y z
#    x 4.261510 0.000000 0.000000 
#    y 0.000000 4.415050 0.000000 
#    z 0.000000 0.000000 4.228300 
# 
# 
# High freq. dielectric constant tensor:
#      x y z
#    x 1.900680 0.000000 0.000000 
#    y 0.000000 1.910800 0.000000 
#    z 0.000000 0.000000 1.885610 
# 
# From -- ./inp_files/29375.got.cif
#   From: 2010.03.12/outbox.cif.g09.slc.cpg/sg73_15_cif.got.tgz:29375.got - 2010.04.16 15:25:48.
