data_PCOD8297487
_publ_section_title
;
Structure prediction by ZEFSAII (Michael W. Deem and Ramdas Pophale) SiO2 
 PCOD8297487
Probable space group: I M M A
;
_chemical_formula_sum "Si O2"
_cell_formula_units_Z 112
_cell_length_a 28.326204
_cell_length_b 15.556473
_cell_length_c 13.233220
_cell_angle_alpha 90.000000
_cell_angle_beta 90.000000
_cell_angle_gamma 90.000000
_cell_volume 5831.295512
_symmetry_space_group_name_H-M "I M M A"
_symmetry_group_IT_number 74
_symmetry_cell_setting 'orthorhombic'
loop_
_space_group_symop_operation_xyz
x,y,z
-x,1/2-y,z
x,-y,-z
-x,1/2+y,-z
-x,-y,-z
x,1/2+y,-z
-x,y,z
x,1/2-y,z
1/2+x,1/2+y,1/2+z
1/2-x,-y,1/2+z
1/2+x,1/2-y,1/2-z
1/2-x,y,1/2-z
1/2-x,1/2-y,1/2-z
1/2+x,y,1/2-z
1/2-x,1/2+y,1/2+z
1/2+x,-y,1/2+z
loop_
_atom_site_type_symbol
_atom_site_label
_atom_site_fract_x
_atom_site_fract_y
_atom_site_fract_z
Si Si1 0.353943 0.105997 0.361440
Si Si2 0.948320 0.653402 0.188771
Si Si3 0.795539 0.342340 0.318618
Si Si4 0.647285 0.420385 0.717417
Si Si5 0.792630 0.153742 0.946731
Si Si6 0.052710 0.097698 0.031253
Si Si7 0.722175 0.474727 0.854739
O O1 0.341222 0.148886 0.254346
O O2 0.318474 0.137463 0.447843
O O3 0.408303 0.128763 0.387944
O O4 0.347055 0.004437 0.351750
O O5 0.945214 0.750000 0.229624
O O6 0.907482 0.598102 0.241782
O O7 0.000000 0.613594 0.215352
O O8 0.941657 0.655413 0.068075
O O9 0.800576 0.250000 0.377756
O O10 0.750000 0.336861 0.250000
O O11 0.789587 0.426579 0.392213
O O12 0.670850 0.347260 0.647306
O O13 0.672872 0.427919 0.826210
O O14 0.770820 0.250000 0.949328
O O15 0.751139 0.082317 0.934313
O O16 0.000000 0.107640 0.078004
O O17 0.062873 0.000000 0.000000
O O18 0.750000 0.483386 0.750000
#
# Coordination Sequence:
#
# PCOD8297487 Si02
#       7
#    16  16  16  16  16  16  16
#     4  11  19  30  47  67  89 118 157 196 231 272
#     4  10  19  28  39  58  83 113 154 197 230 266
#     4   9  18  32  48  64  84 112 147 188 233 277
#     4  10  18  29  42  58  84 118 150 186 229 269
#     4  11  20  29  44  65  87 115 151 188 227 271
#     4  10  18  28  42  60  86 120 155 192 230 262
#     4   8  18  31  43  60  84 109 144 185 224 272
#
# _framework density 19.206709
#
# number of rings (size 3 to 8) (size 9 to 14) (size 15 to 20)
#    0.000    2.143    2.857    2.143    0.000    3.714 
#    0.000    0.000    0.000    0.000    0.000    0.000 
#    0.000    0.000    0.000    1.286    0.000  110.857 
#
# Total GULP energy -693839.711735 kJ/mol
# GULP energy per Si atom -12389.994852 kJ/mol
# Density = 1.916299 g / cm^3
# Si number density = 19.206709 Si / 1000 Ang^3
#
#
#
# Elastic Constant Matrix: (Units=GPa)
#
#
# Indices 1 2 3 4 5 6 
#
# 1 136.4996 42.2920 28.1284 0.0000 0.0000 0.0000
# 2 42.2920 133.4683 16.1079 0.0000 0.0000 0.0000
# 3 28.1284 16.1079 27.5172 0.0000 0.0000 0.0000
# 4 0.0000 0.0000 0.0000 -1.2917 0.0000 0.0000
# 5 0.0000 0.0000 0.0000 0.0000 26.5597 0.0000
# 6 0.0000 0.0000 0.0000 0.0000 0.0000 15.5058
#
#
#
# Elastic Compliance Matrix: (Units=1/GPa)
#
#
# Indices 1 2 3 4 5 6 
#
# 1 0.009769 -0.002034 -0.008795 0.000000 0.000000 0.000000
# 2 -0.002034 0.008485 -0.002888 0.000000 0.000000 0.000000
# 3 -0.008795 -0.002888 0.047022 0.000000 0.000000 0.000000
# 4 0.000000 0.000000 0.000000 -0.774190 0.000000 0.000000
# 5 0.000000 0.000000 0.000000 0.000000 0.037651 0.000000
# 6 0.000000 0.000000 0.000000 0.000000 0.000000 0.064492
#
#
# Mechanical properties :
#
#
# Convention : Reuss Voigt Hill
#
# Bulk Modulus (GPa) = 26.42568 52.28240 39.35404
# Shear Modulus (GPa) = -8.82264 22.21856 6.69796
#
# Velocity S-wave (km/s) = -2.14558 3.40488 1.86946
# Velocity P-wave (km/s) = 2.76594 6.53740 5.01937
#
# Compressibility (1/GPa) = 0.03784198
#
# Stress axis : x y z
#
# Youngs Moduli (GPa) = 102.36919 117.84873 21.26672
#
# Poissons Ratio (x) = 0.23970 0.18704
# Poissons Ratio (y) = 0.20821 0.06142
# Poissons Ratio (z) = 0.90033 0.34036
#
# Static dielectric constant tensor:
#      x y z
#    x 3.937530 0.000000 0.000000 
#    y 0.000000 3.909000 0.000000 
#    z 0.000000 0.000000 3.041990 
# 
# 
# High freq. dielectric constant tensor:
#      x y z
#    x 1.743540 0.000000 0.000000 
#    y 0.000000 1.759770 0.000000 
#    z 0.000000 0.000000 1.676300 
# 
# From -- ./inp_files/37973.got.cif
#   From: 2010.03.12/outbox.cif.g09.slc.cpg/sg74_19_cif.got.tgz:37973.got - 2010.04.16 15:46:19.
