data_PCOD8297603
_publ_section_title
;
Structure prediction by ZEFSAII (Michael W. Deem and Ramdas Pophale) SiO2 
 PCOD8297603
Probable space group: I M M A
;
_chemical_formula_sum "Si O2"
_cell_formula_units_Z 88
_cell_length_a 10.118384
_cell_length_b 28.270327
_cell_length_c 17.790738
_cell_angle_alpha 90.000000
_cell_angle_beta 90.000000
_cell_angle_gamma 90.000000
_cell_volume 5089.041039
_symmetry_space_group_name_H-M "I M M A"
_symmetry_group_IT_number 74
_symmetry_cell_setting 'orthorhombic'
loop_
_space_group_symop_operation_xyz
x,y,z
-x,1/2-y,z
x,-y,-z
-x,1/2+y,-z
-x,-y,-z
x,1/2+y,-z
-x,y,z
x,1/2-y,z
1/2+x,1/2+y,1/2+z
1/2-x,-y,1/2+z
1/2+x,1/2-y,1/2-z
1/2-x,y,1/2-z
1/2-x,1/2-y,1/2-z
1/2+x,y,1/2-z
1/2-x,1/2+y,1/2+z
1/2+x,-y,1/2+z
loop_
_atom_site_type_symbol
_atom_site_label
_atom_site_fract_x
_atom_site_fract_y
_atom_site_fract_z
Si Si1 0.347850 0.394378 0.613830
Si Si2 0.142527 0.750000 0.342267
Si Si3 0.345315 0.649677 0.535073
Si Si4 0.250000 0.331348 0.750000
Si Si5 0.346679 0.250000 0.522743
Si Si6 0.653759 0.403335 0.319877
Si Si7 0.649573 0.489686 0.683938
O O1 0.500000 0.383962 0.601714
O O2 0.277623 0.375644 0.537555
O O3 0.309464 0.365553 0.687467
O O4 0.318498 0.450443 0.620684
O O5 0.144985 0.703258 0.290036
O O6 0.261773 0.750000 0.401419
O O7 0.000000 0.750000 0.383685
O O8 0.500000 0.639007 0.537454
O O9 0.313759 0.705230 0.529370
O O10 0.288861 0.629172 0.613068
O O11 0.500000 0.250000 0.548649
O O12 0.500000 0.392258 0.298571
O O13 0.750000 0.393699 0.250000
O O14 0.666787 0.457572 0.348377
O O15 0.500000 0.482297 0.714292
O O16 0.750000 0.479853 0.750000
#
# Coordination Sequence:
#
# PCOD8297603 Si02
#       7
#    16   8  16   8   8  16  16
#     4  10  18  29  48  74 101 133 173 206 236 282
#     4  11  23  33  48  75 104 136 174 210 243 284
#     4   9  18  32  52  75  97 128 170 210 248 295
#     4  11  20  32  48  68 106 142 172 197 242 282
#     4  10  19  35  55  72  98 134 170 208 251 298
#     4   9  18  34  55  76  99 127 163 206 257 308
#     4   9  17  29  48  74 102 132 164 204 246 292
#
# _framework density 17.292058999999998
#
# number of rings (size 3 to 8) (size 9 to 14) (size 15 to 20)
#    0.000    2.364    2.727    0.545    0.000    2.182 
#    0.000    5.000    0.000    0.000    0.000    5.091 
#    0.000    0.000    0.000    0.000    0.000    0.000 
#
# Total GULP energy -545228.736890 kJ/mol
# GULP energy per Si atom -12391.562202 kJ/mol
# Density = 1.725270 g / cm^3
# Si number density = 17.292059 Si / 1000 Ang^3
#
#
#
# Elastic Constant Matrix: (Units=GPa)
#
#
# Indices 1 2 3 4 5 6 
#
# 1 52.1228 43.7054 34.3568 0.0000 0.0000 0.0000
# 2 43.7054 117.3178 89.4034 -0.0001 0.0000 0.0002
# 3 34.3568 89.4034 129.2779 -0.0002 0.0000 0.0004
# 4 0.0000 -0.0001 -0.0002 35.6993 0.0000 0.0001
# 5 0.0000 0.0000 0.0000 0.0000 21.3836 -0.0001
# 6 0.0000 0.0002 0.0004 0.0001 -0.0001 -2.1721
#
#
#
# Elastic Compliance Matrix: (Units=1/GPa)
#
#
# Indices 1 2 3 4 5 6 
#
# 1 0.027915 -0.010034 -0.000480 0.000000 0.000000 0.000000
# 2 -0.010034 0.021628 -0.012290 0.000000 0.000000 -0.000001
# 3 -0.000480 -0.012290 0.016362 0.000000 0.000000 0.000002
# 4 0.000000 0.000000 0.000000 0.028012 0.000000 0.000001
# 5 0.000000 0.000000 0.000000 0.000000 0.046765 -0.000002
# 6 0.000000 -0.000001 0.000002 0.000001 -0.000002 -0.460395
#
#
# Mechanical properties :
#
#
# Convention : Reuss Voigt Hill
#
# Bulk Modulus (GPa) = 49.26736 70.40554 59.83645
# Shear Modulus (GPa) = -18.70287 19.73235 0.51474
#
# Velocity S-wave (km/s) = -3.29232 3.38171 0.54619
# Velocity P-wave (km/s) = 3.75509 7.48678 5.92253
#
# Compressibility (1/GPa) = 0.02029741
#
# Stress axis : x y z
#
# Youngs Moduli (GPa) = 35.82278 46.23645 61.11614
#
# Poissons Ratio (x) = 0.46394 0.02931
# Poissons Ratio (y) = 0.35945 0.75114
# Poissons Ratio (z) = 0.01718 0.56826
#
# Static dielectric constant tensor:
#      x y z
#    x 2.997920 0.000000 0.000000 
#    y 0.000000 3.469840 0.000000 
#    z 0.000000 0.000000 2.895000 
# 
# 
# High freq. dielectric constant tensor:
#      x y z
#    x 1.637310 0.000000 0.000000 
#    y 0.000000 1.682840 0.000000 
#    z 0.000000 0.000000 1.651800 
# 
# From -- ./inp_files/40185.got.cif
#   From: 2010.03.12/outbox.cif.g09.slc.cpg/sg74_21_cif.got.tgz:40185.got - 2010.04.16 15:46:19.
