data_PCOD8297669
_publ_section_title
;
Structure prediction by ZEFSAII (Michael W. Deem and Ramdas Pophale) SiO2 
 PCOD8297669
Probable space group: I M M A
;
_chemical_formula_sum "Si O2"
_cell_formula_units_Z 56
_cell_length_a 29.216143
_cell_length_b 8.393378
_cell_length_c 13.559469
_cell_angle_alpha 90.000000
_cell_angle_beta 90.000000
_cell_angle_gamma 90.000000
_cell_volume 3325.081896
_symmetry_space_group_name_H-M "I M M A"
_symmetry_group_IT_number 74
_symmetry_cell_setting 'orthorhombic'
loop_
_space_group_symop_operation_xyz
x,y,z
-x,1/2-y,z
x,-y,-z
-x,1/2+y,-z
-x,-y,-z
x,1/2+y,-z
-x,y,z
x,1/2-y,z
1/2+x,1/2+y,1/2+z
1/2-x,-y,1/2+z
1/2+x,1/2-y,1/2-z
1/2-x,y,1/2-z
1/2-x,1/2-y,1/2-z
1/2+x,y,1/2-z
1/2-x,1/2+y,1/2+z
1/2+x,-y,1/2+z
loop_
_atom_site_type_symbol
_atom_site_label
_atom_site_fract_x
_atom_site_fract_y
_atom_site_fract_z
Si Si1 0.682825 0.935513 0.785158
Si Si2 0.594922 0.938146 0.111094
Si Si3 0.500000 0.439384 0.110683
Si Si4 0.733161 0.435857 0.604252
O O1 0.684544 0.750000 0.760916
O O2 0.632874 0.984207 0.820146
O O3 0.694420 0.030969 0.685565
O O4 0.719657 0.975045 0.869610
O O5 0.599967 0.750000 0.111197
O O6 0.546266 0.990795 0.159201
O O7 0.600321 0.000000 0.000000
O O8 0.500000 0.250000 0.115793
O O9 0.500000 0.500000 0.000000
O O10 0.715020 0.500000 0.500000
O O11 0.743564 0.250000 0.599017
#
# Coordination Sequence:
#
# PCOD8297669 Si02
#       4
#    16  16   8  16
#     4  11  21  34  50  72  97 127 163 200 238 284
#     4  11  20  32  48  70  98 130 162 198 239 286
#     4  10  18  30  46  68  95 126 159 196 238 286
#     4  11  21  35  51  71  97 128 161 199 240 284
#
# _framework density 16.841688999999999
#
# number of rings (size 3 to 8) (size 9 to 14) (size 15 to 20)
#    0.000    1.143    0.000   13.286    0.000    0.000 
#    0.000    0.000    0.000    0.000    0.000    1.000 
#    0.000    0.000    0.000    0.000    0.000    0.000 
#
# Total GULP energy -347273.744103 kJ/mol
# GULP energy per Si atom -12402.633718 kJ/mol
# Density = 1.680336 g / cm^3
# Si number density = 16.841689 Si / 1000 Ang^3
#
#
#
# Elastic Constant Matrix: (Units=GPa)
#
#
# Indices 1 2 3 4 5 6 
#
# 1 124.6859 8.4055 36.5721 0.0000 0.0000 0.0000
# 2 8.4055 98.8641 9.4584 0.0000 0.0000 0.0000
# 3 36.5721 9.4584 77.8904 0.0000 0.0000 0.0000
# 4 0.0000 0.0000 0.0000 26.2293 0.0000 0.0000
# 5 0.0000 0.0000 0.0000 0.0000 24.0246 0.0000
# 6 0.0000 0.0000 0.0000 0.0000 0.0000 29.0700
#
#
#
# Elastic Compliance Matrix: (Units=1/GPa)
#
#
# Indices 1 2 3 4 5 6 
#
# 1 0.009315 -0.000378 -0.004328 0.000000 0.000000 0.000000
# 2 -0.000378 0.010249 -0.001067 0.000000 0.000000 0.000000
# 3 -0.004328 -0.001067 0.015000 0.000000 0.000000 0.000000
# 4 0.000000 0.000000 0.000000 0.038125 0.000000 0.000000
# 5 0.000000 0.000000 0.000000 0.000000 0.041624 0.000000
# 6 0.000000 0.000000 0.000000 0.000000 0.000000 0.034400
#
#
# Mechanical properties :
#
#
# Convention : Reuss Voigt Hill
#
# Bulk Modulus (GPa) = 43.44312 45.59025 44.51669
# Shear Modulus (GPa) = 29.77396 32.33175 31.05286
#
# Velocity S-wave (km/s) = 4.20917 4.38624 4.29862
# Velocity P-wave (km/s) = 7.03376 7.26504 7.15034
#
# Compressibility (1/GPa) = 0.02301861
#
# Stress axis : x y z
#
# Youngs Moduli (GPa) = 107.35328 97.56939 66.66585
#
# Poissons Ratio (x) = 0.03687 0.28852
# Poissons Ratio (y) = 0.04057 0.07114
# Poissons Ratio (z) = 0.46461 0.10412
#
# Static dielectric constant tensor:
#      x y z
#    x 5.709410 0.000000 0.000000 
#    y 0.000000 3.419480 0.000000 
#    z 0.000000 0.000000 3.021980 
# 
# 
# High freq. dielectric constant tensor:
#      x y z
#    x 1.650240 0.000000 0.000000 
#    y 0.000000 1.679210 0.000000 
#    z 0.000000 0.000000 1.614090 
# 
# From -- ./inp_files/29006.got.cif
#   From: 2010.03.12/outbox.cif.g09.slc.cpg/sg74_15_cif.got.tgz:29006.got - 2010.04.16 15:46:19.
