data_PCOD8297812
_publ_section_title
;
Structure prediction by ZEFSAII (Michael W. Deem and Ramdas Pophale) SiO2 
 PCOD8297812
Probable space group: I M M A
;
_chemical_formula_sum "Si O2"
_cell_formula_units_Z 88
_cell_length_a 12.626204
_cell_length_b 25.099721
_cell_length_c 17.687868
_cell_angle_alpha 90.000000
_cell_angle_beta 90.000000
_cell_angle_gamma 90.000000
_cell_volume 5605.536496
_symmetry_space_group_name_H-M "I M M A"
_symmetry_group_IT_number 74
_symmetry_cell_setting 'orthorhombic'
loop_
_space_group_symop_operation_xyz
x,y,z
-x,1/2-y,z
x,-y,-z
-x,1/2+y,-z
-x,-y,-z
x,1/2+y,-z
-x,y,z
x,1/2-y,z
1/2+x,1/2+y,1/2+z
1/2-x,-y,1/2+z
1/2+x,1/2-y,1/2-z
1/2-x,y,1/2-z
1/2-x,1/2-y,1/2-z
1/2+x,y,1/2-z
1/2-x,1/2+y,1/2+z
1/2+x,-y,1/2+z
loop_
_atom_site_type_symbol
_atom_site_label
_atom_site_fract_x
_atom_site_fract_y
_atom_site_fract_z
Si Si1 0.200472 0.079613 0.990539
Si Si2 0.215300 0.690803 0.331104
Si Si3 0.120574 0.089539 0.620612
Si Si4 0.376472 0.691284 0.460470
Si Si5 0.121408 0.005365 0.115692
Si Si6 0.750000 0.531114 0.250000
O O1 0.320159 0.075107 0.957916
O O2 0.125610 0.052232 0.926364
O O3 0.167602 0.140945 0.008128
O O4 0.191027 0.047868 0.068663
O O5 0.166758 0.750000 0.326536
O O6 0.250000 0.669054 0.250000
O O7 0.125915 0.653319 0.367870
O O8 0.322921 0.688992 0.378904
O O9 0.177736 0.064908 0.693387
O O10 0.000000 0.070015 0.614477
O O11 0.500000 0.683965 0.447977
O O12 0.352513 0.750000 0.498252
O O13 0.000000 0.024175 0.120565
O O14 0.170440 0.004438 0.199594
#
# Coordination Sequence:
#
# PCOD8297812 Si02
#       6
#    16  16  16  16  16   8
#     4   9  18  31  46  67  87 114 153 184 211 268
#     4   9  17  28  38  57  85 116 156 187 209 252
#     4  10  19  31  44  61  88 120 147 184 227 260
#     4   9  16  26  42  63  87 111 138 180 224 256
#     4  10  18  31  50  67  89 118 146 181 221 260
#     4  10  20  32  43  68  87 110 146 188 218 274
#
# _framework density 15.698765
#
# number of rings (size 3 to 8) (size 9 to 14) (size 15 to 20)
#    0.000    2.545    0.909    2.727    0.000    1.091 
#    0.000   10.000    0.000    0.000    0.000    0.636 
#    0.000    0.000    0.000    0.000    0.000    0.000 
#
# Total GULP energy -545219.930099 kJ/mol
# GULP energy per Si atom -12391.362048 kJ/mol
# Density = 1.566303 g / cm^3
# Si number density = 15.698765 Si / 1000 Ang^3
#
#
#
# Elastic Constant Matrix: (Units=GPa)
#
#
# Indices 1 2 3 4 5 6 
#
# 1 109.1916 34.3171 35.5516 0.0000 0.0000 0.0000
# 2 34.3171 93.3247 35.8053 0.0000 0.0000 0.0000
# 3 35.5516 35.8053 63.1483 0.0001 0.0000 0.0000
# 4 0.0000 0.0000 0.0001 18.7914 0.0000 0.0000
# 5 0.0000 0.0000 0.0000 0.0000 15.4005 0.0000
# 6 0.0000 0.0000 0.0000 0.0000 0.0000 14.9417
#
#
#
# Elastic Compliance Matrix: (Units=1/GPa)
#
#
# Indices 1 2 3 4 5 6 
#
# 1 0.011570 -0.002243 -0.005242 0.000000 0.000000 0.000000
# 2 -0.002243 0.014129 -0.006748 0.000000 0.000000 0.000000
# 3 -0.005242 -0.006748 0.022613 0.000000 0.000000 0.000000
# 4 0.000000 0.000000 0.000000 0.053216 0.000000 0.000000
# 5 0.000000 0.000000 0.000000 0.000000 0.064933 0.000000
# 6 0.000000 0.000000 0.000000 0.000000 0.000000 0.066927
#
#
# Mechanical properties :
#
#
# Convention : Reuss Voigt Hill
#
# Bulk Modulus (GPa) = 50.38951 53.00141 51.69546
# Shear Modulus (GPa) = 18.62406 20.49275 19.55841
#
# Velocity S-wave (km/s) = 3.44806 3.61692 3.53350
# Velocity P-wave (km/s) = 6.92962 7.16084 7.04618
#
# Compressibility (1/GPa) = 0.01984540
#
# Stress axis : x y z
#
# Youngs Moduli (GPa) = 86.43105 70.77479 44.22218
#
# Poissons Ratio (x) = 0.15878 0.23180
# Poissons Ratio (y) = 0.19390 0.29843
# Poissons Ratio (z) = 0.45304 0.47761
#
# Static dielectric constant tensor:
#      x y z
#    x 2.897750 0.000000 0.000000 
#    y 0.000000 3.229300 0.000000 
#    z 0.000000 0.000000 2.734360 
# 
# 
# High freq. dielectric constant tensor:
#      x y z
#    x 1.596520 0.000000 0.000000 
#    y 0.000000 1.602810 0.000000 
#    z 0.000000 0.000000 1.565140 
# 
# From -- ./inp_files/30961.got.cif
#   From: 2010.03.12/outbox.cif.g09.slc.cpg/sg74_16_cif.got.tgz:30961.got - 2010.04.16 15:46:19.
