data_PCOD8297316
_publ_section_title
;
Structure prediction by ZEFSAII (Michael W. Deem and Ramdas Pophale) SiO2 
 PCOD8297316
Probable space group: I M M A
;
_chemical_formula_sum "Si O2"
_cell_formula_units_Z 104
_cell_length_a 23.289583
_cell_length_b 11.207543
_cell_length_c 28.073788
_cell_angle_alpha 90.000000
_cell_angle_beta 90.000000
_cell_angle_gamma 90.000000
_cell_volume 7327.792152
_symmetry_space_group_name_H-M "I M M A"
_symmetry_group_IT_number 74
_symmetry_cell_setting 'orthorhombic'
loop_
_space_group_symop_operation_xyz
x,y,z
-x,1/2-y,z
x,-y,-z
-x,1/2+y,-z
-x,-y,-z
x,1/2+y,-z
-x,y,z
x,1/2-y,z
1/2+x,1/2+y,1/2+z
1/2-x,-y,1/2+z
1/2+x,1/2-y,1/2-z
1/2-x,y,1/2-z
1/2-x,1/2-y,1/2-z
1/2+x,y,1/2-z
1/2-x,1/2+y,1/2+z
1/2+x,-y,1/2+z
loop_
_atom_site_type_symbol
_atom_site_label
_atom_site_fract_x
_atom_site_fract_y
_atom_site_fract_z
Si Si1 0.435773 0.750000 0.403431
Si Si2 0.064866 0.009641 0.226944
Si Si3 0.733179 0.510607 0.678000
Si Si4 0.670029 0.109913 0.230506
Si Si5 0.567988 0.492748 0.554922
Si Si6 0.722626 0.750000 0.301364
Si Si7 0.087775 0.250000 0.794134
Si Si8 0.127339 0.387619 0.136364
O O1 0.500000 0.750000 0.423976
O O2 0.406480 0.868877 0.424248
O O3 0.437289 0.750000 0.346979
O O4 0.103030 0.071640 0.268786
O O5 0.088737 0.041192 0.174500
O O6 0.000000 0.057453 0.232263
O O7 0.065449 0.866696 0.233426
O O8 0.698855 0.536211 0.726755
O O9 0.796468 0.572197 0.681857
O O10 0.741609 0.368726 0.670103
O O11 0.693580 0.565138 0.636058
O O12 0.676744 0.250000 0.239252
O O13 0.585124 0.500000 0.500000
O O14 0.500000 0.507400 0.562617
O O15 0.600220 0.596816 0.583997
O O16 0.750000 0.750000 0.250000
O O17 0.655317 0.750000 0.295699
O O18 0.127099 0.250000 0.151021
#
# Coordination Sequence:
#
# PCOD8297316 Si02
#       8
#     8  16  16  16  16   8   8  16
#     4  10  18  32  46  54  70  98 128 161 203 249
#     4  11  20  29  41  59  80 106 138 169 204 243
#     4  10  17  29  43  61  77  98 131 165 205 242
#     4  10  18  28  41  56  80 106 127 161 202 240
#     4  10  21  33  45  60  77 101 131 167 212 256
#     4  12  16  26  44  60  78 100 129 171 206 243
#     4  12  18  30  42  58  78 101 134 172 210 241
#     4  11  21  31  44  60  79 103 134 173 209 248
#
# _framework density 14.192543000000001
#
# number of rings (size 3 to 8) (size 9 to 14) (size 15 to 20)
#    0.000    1.385    6.154    4.385    1.077    2.154 
#    0.000    0.000    0.000    0.000    0.000    0.000 
#    0.000    0.000    0.000    0.000    0.000    0.769 
#
# Total GULP energy -644567.565727 kJ/mol
# GULP energy per Si atom -12395.530110 kJ/mol
# Density = 1.416024 g / cm^3
# Si number density = 14.192543 Si / 1000 Ang^3
#
#
#
# Elastic Constant Matrix: (Units=GPa)
#
#
# Indices 1 2 3 4 5 6 
#
# 1 83.9524 21.9052 34.1076 0.0000 0.0000 0.0000
# 2 21.9052 99.7220 13.1140 0.0000 0.0000 0.0000
# 3 34.1076 13.1140 36.7367 0.0000 0.0000 0.0000
# 4 0.0000 0.0000 0.0000 9.0924 0.0000 0.0000
# 5 0.0000 0.0000 0.0000 0.0000 13.6859 0.0000
# 6 0.0000 0.0000 0.0000 0.0000 0.0000 -4.2741
#
#
#
# Elastic Compliance Matrix: (Units=1/GPa)
#
#
# Indices 1 2 3 4 5 6 
#
# 1 0.019497 -0.001996 -0.017389 0.000000 0.000000 0.000000
# 2 -0.001996 0.010726 -0.001976 0.000000 0.000000 0.000000
# 3 -0.017389 -0.001976 0.044071 0.000000 0.000000 0.000000
# 4 0.000000 0.000000 0.000000 0.109982 0.000000 0.000000
# 5 0.000000 0.000000 0.000000 0.000000 0.073068 0.000000
# 6 0.000000 0.000000 0.000000 0.000000 0.000000 -0.233967
#
#
# Mechanical properties :
#
#
# Convention : Reuss Voigt Hill
#
# Bulk Modulus (GPa) = 31.67364 39.85165 35.76264
# Shear Modulus (GPa) = 65.25368 13.78643 39.52006
#
# Velocity S-wave (km/s) = 6.78802 3.12009 5.28262
# Velocity P-wave (km/s) = 9.15434 6.41250 7.90323
#
# Compressibility (1/GPa) = 0.03157199
#
# Stress axis : x y z
#
# Youngs Moduli (GPa) = 51.28955 93.23005 22.69069
#
# Poissons Ratio (x) = 0.18609 0.39458
# Poissons Ratio (y) = 0.10237 0.04483
# Poissons Ratio (z) = 0.89189 0.18420
#
# Static dielectric constant tensor:
#      x y z
#    x 3.073340 0.000000 0.000000 
#    y 0.000000 3.064630 0.000000 
#    z 0.000000 0.000000 2.449830 
# 
# 
# High freq. dielectric constant tensor:
#      x y z
#    x 1.530500 0.000000 0.000000 
#    y 0.000000 1.567060 0.000000 
#    z 0.000000 0.000000 1.475140 
# 
# From -- ./inp_files/73818.got.cif
#   From: 2010.03.12/outbox.cif.g09.slc.cpg/sg74_37_cif.got.tgz:73818.got - 2010.04.16 15:46:19.
