data_PCOD8297230
_publ_section_title
;
Structure prediction by ZEFSAII (Michael W. Deem and Ramdas Pophale) SiO2 
 PCOD8297230
Probable space group: I M M A
;
_chemical_formula_sum "Si O2"
_cell_formula_units_Z 80
_cell_length_a 29.498371
_cell_length_b 8.471588
_cell_length_c 22.984626
_cell_angle_alpha 90.000000
_cell_angle_beta 90.000000
_cell_angle_gamma 90.000000
_cell_volume 5743.813120
_symmetry_space_group_name_H-M "I M M A"
_symmetry_group_IT_number 74
_symmetry_cell_setting 'orthorhombic'
loop_
_space_group_symop_operation_xyz
x,y,z
-x,1/2-y,z
x,-y,-z
-x,1/2+y,-z
-x,-y,-z
x,1/2+y,-z
-x,y,z
x,1/2-y,z
1/2+x,1/2+y,1/2+z
1/2-x,-y,1/2+z
1/2+x,1/2-y,1/2-z
1/2-x,y,1/2-z
1/2-x,1/2-y,1/2-z
1/2+x,y,1/2-z
1/2-x,1/2+y,1/2+z
1/2+x,-y,1/2+z
loop_
_atom_site_type_symbol
_atom_site_label
_atom_site_fract_x
_atom_site_fract_y
_atom_site_fract_z
Si Si1 0.135436 0.563902 0.367019
Si Si2 0.181268 0.565956 0.736806
Si Si3 0.449672 0.436069 0.938173
Si Si4 0.265557 0.064985 0.668170
Si Si5 0.279529 0.435855 0.064540
O O1 0.143143 0.750000 0.372398
O O2 0.139707 0.510128 0.299556
O O3 0.085668 0.510817 0.388575
O O4 0.172295 0.479377 0.407490
O O5 0.172521 0.750000 0.744932
O O6 0.226328 0.533968 0.699772
O O7 0.187024 0.485251 0.800825
O O8 0.500000 0.502585 0.923081
O O9 0.451120 0.250000 0.942674
O O10 0.432597 0.500000 0.000000
O O11 0.256924 0.250000 0.676096
O O12 0.262298 0.015384 0.600572
O O13 0.273095 0.250000 0.064719
O O14 0.276900 0.500000 0.000000
#
# Coordination Sequence:
#
# PCOD8297230 Si02
#       5
#    16  16  16  16  16
#     4  10  18  28  41  56  73  94 123 158 193 227
#     4  10  17  26  39  55  73  93 118 149 185 221
#     4   9  18  30  42  55  72  95 123 156 194 233
#     4  10  17  27  40  54  72  94 120 149 183 219
#     4  11  20  29  39  54  75  98 125 155 188 222
#
# _framework density 13.92803
#
# number of rings (size 3 to 8) (size 9 to 14) (size 15 to 20)
#    0.000    2.000    0.000   10.200    0.000    3.200 
#    0.000    0.000    0.000    0.000    0.000    0.000 
#    0.000    0.000    0.000    0.000    0.000    1.000 
#
# Total GULP energy -495758.822152 kJ/mol
# GULP energy per Si atom -12393.970554 kJ/mol
# Density = 1.389633 g / cm^3
# Si number density = 13.928030 Si / 1000 Ang^3
#
#
#
# Elastic Constant Matrix: (Units=GPa)
#
#
# Indices 1 2 3 4 5 6 
#
# 1 64.8438 20.2511 49.7882 0.0000 0.0000 0.0000
# 2 20.2511 59.6821 24.1970 0.0000 0.0000 0.0000
# 3 49.7882 24.1970 83.5748 0.0000 0.0000 0.0000
# 4 0.0000 0.0000 0.0000 24.4774 0.0000 0.0000
# 5 0.0000 0.0000 0.0000 0.0000 -59.1530 0.0000
# 6 0.0000 0.0000 0.0000 0.0000 0.0000 12.5620
#
#
#
# Elastic Compliance Matrix: (Units=1/GPa)
#
#
# Indices 1 2 3 4 5 6 
#
# 1 0.028955 -0.003208 -0.016320 0.000000 0.000000 0.000000
# 2 -0.003208 0.019339 -0.003688 0.000000 0.000000 0.000000
# 3 -0.016320 -0.003688 0.022756 0.000000 0.000000 0.000000
# 4 0.000000 0.000000 0.000000 0.040854 0.000000 0.000000
# 5 0.000000 0.000000 0.000000 0.000000 -0.016905 0.000000
# 6 0.000000 0.000000 0.000000 0.000000 0.000000 0.079605
#
#
# Mechanical properties :
#
#
# Convention : Reuss Voigt Hill
#
# Bulk Modulus (GPa) = 40.62296 44.06370 42.34333
# Shear Modulus (GPa) = 21.81101 3.16825 12.48963
#
# Velocity S-wave (km/s) = 3.96154 1.50986 2.99779
# Velocity P-wave (km/s) = 7.08200 5.89448 6.51535
#
# Compressibility (1/GPa) = 0.02461662
#
# Stress axis : x y z
#
# Youngs Moduli (GPa) = 34.53671 51.70840 43.94496
#
# Poissons Ratio (x) = 0.16588 0.71720
# Poissons Ratio (y) = 0.11079 0.16207
# Poissons Ratio (z) = 0.56366 0.19071
#
# Static dielectric constant tensor:
#      x y z
#    x 2.816230 0.000000 0.000000 
#    y 0.000000 2.826090 0.000000 
#    z 0.000000 0.000000 3.120740 
# 
# 
# High freq. dielectric constant tensor:
#      x y z
#    x 1.481560 0.000000 0.000000 
#    y 0.000000 1.551190 0.000000 
#    z 0.000000 0.000000 1.522530 
# 
# From -- ./inp_files/62562.got.cif
#   From: 2010.03.12/outbox.cif.g09.slc.cpg/sg74_32_cif.got.tgz:62562.got - 2010.04.16 15:46:19.
