data_PCOD8297198
_publ_section_title
;
Structure prediction by ZEFSAII (Michael W. Deem and Ramdas Pophale) SiO2 
 PCOD8297198
Probable space group: I M M A
;
_chemical_formula_sum "Si O2"
_cell_formula_units_Z 88
_cell_length_a 7.921263
_cell_length_b 30.920237
_cell_length_c 26.220042
_cell_angle_alpha 90.000000
_cell_angle_beta 90.000000
_cell_angle_gamma 90.000000
_cell_volume 6422.004861
_symmetry_space_group_name_H-M "I M M A"
_symmetry_group_IT_number 74
_symmetry_cell_setting 'orthorhombic'
loop_
_space_group_symop_operation_xyz
x,y,z
-x,1/2-y,z
x,-y,-z
-x,1/2+y,-z
-x,-y,-z
x,1/2+y,-z
-x,y,z
x,1/2-y,z
1/2+x,1/2+y,1/2+z
1/2-x,-y,1/2+z
1/2+x,1/2-y,1/2-z
1/2-x,y,1/2-z
1/2-x,1/2-y,1/2-z
1/2+x,y,1/2-z
1/2-x,1/2+y,1/2+z
1/2+x,-y,1/2+z
loop_
_atom_site_type_symbol
_atom_site_label
_atom_site_fract_x
_atom_site_fract_y
_atom_site_fract_z
Si Si1 0.815313 0.613953 0.975853
Si Si2 0.196982 0.679354 0.114933
Si Si3 0.693283 0.797799 0.005261
Si Si4 0.802330 0.250000 0.808020
Si Si5 0.000000 0.438439 0.457831
Si Si6 0.812185 0.085520 0.907400
Si Si7 0.500000 0.467704 0.925355
O O1 0.794557 0.665872 0.973729
O O2 0.667739 0.589392 0.944928
O O3 0.000000 0.602183 0.952770
O O4 0.806810 0.599544 0.034119
O O5 0.264173 0.706808 0.163348
O O6 0.228342 0.628386 0.125972
O O7 0.000000 0.687724 0.103799
O O8 0.298137 0.695073 0.065780
O O9 0.500000 0.801900 0.988717
O O10 0.763974 0.750000 0.991498
O O11 0.750000 0.250000 0.750000
O O12 0.000000 0.250000 0.810845
O O13 0.000000 0.480479 0.421876
O O14 0.000000 0.452070 0.516600
O O15 0.668617 0.049646 0.896899
O O16 0.000000 0.067188 0.894092
#
# Coordination Sequence:
#
# PCOD8297198 Si02
#       7
#    16  16  16   8   8  16   8
#     4   9  16  25  35  46  66  88 104 128 159 193
#     4   9  17  28  39  49  66  85 102 132 166 199
#     4  10  17  23  35  53  67  81 110 142 164 195
#     4  10  20  32  40  52  72  90 112 134 166 214
#     4   9  16  26  33  48  67  82 104 126 156 192
#     4   8  15  25  36  51  64  78 103 129 155 189
#     4   9  16  24  38  49  64  83 100 130 154 191
#
# _framework density 13.702885
#
# number of rings (size 3 to 8) (size 9 to 14) (size 15 to 20)
#    0.000    2.909    1.818    1.636    3.818    2.545 
#    0.000    3.636    0.000    0.000    0.000    0.000 
#    0.000    0.000    0.000    0.000    0.000    0.000 
#
# Total GULP energy -545232.758511 kJ/mol
# GULP energy per Si atom -12391.653603 kJ/mol
# Density = 1.367170 g / cm^3
# Si number density = 13.702885 Si / 1000 Ang^3
#
#
#
# Elastic Constant Matrix: (Units=GPa)
#
#
# Indices 1 2 3 4 5 6 
#
# 1 95.3540 59.3908 12.0933 0.0000 0.0000 0.0000
# 2 59.3908 111.0231 22.1428 0.0000 0.0000 0.0000
# 3 12.0933 22.1428 14.0243 0.0000 0.0000 0.0000
# 4 0.0000 0.0000 0.0000 8.2119 0.0000 0.0000
# 5 0.0000 0.0000 0.0000 0.0000 7.4405 0.0000
# 6 0.0000 0.0000 0.0000 0.0000 0.0000 18.4648
#
#
#
# Elastic Compliance Matrix: (Units=1/GPa)
#
#
# Indices 1 2 3 4 5 6 
#
# 1 0.015729 -0.008333 -0.000406 0.000000 0.000000 0.000000
# 2 -0.008333 0.017562 -0.020543 0.000000 0.000000 0.000000
# 3 -0.000406 -0.020543 0.104090 0.000000 0.000000 0.000000
# 4 0.000000 0.000000 0.000000 0.121774 0.000000 0.000000
# 5 0.000000 0.000000 0.000000 0.000000 0.134399 0.000000
# 6 0.000000 0.000000 0.000000 0.000000 0.000000 0.054157
#
#
# Mechanical properties :
#
#
# Convention : Reuss Voigt Hill
#
# Bulk Modulus (GPa) = 12.68766 45.29504 28.99135
# Shear Modulus (GPa) = 9.38884 15.27508 12.33196
#
# Velocity S-wave (km/s) = 2.62042 3.34239 3.00318
# Velocity P-wave (km/s) = 4.29356 6.92981 5.76441
#
# Compressibility (1/GPa) = 0.07881673
#
# Stress axis : x y z
#
# Youngs Moduli (GPa) = 63.57695 56.94131 9.60708
#
# Poissons Ratio (x) = 0.47449 0.00390
# Poissons Ratio (y) = 0.52979 0.19736
# Poissons Ratio (z) = 0.02583 1.16973
#
# Static dielectric constant tensor:
#      x y z
#    x 2.950400 0.000000 0.000000 
#    y 0.000000 2.940130 0.000000 
#    z 0.000000 0.000000 1.953360 
# 
# 
# High freq. dielectric constant tensor:
#      x y z
#    x 1.540660 0.000000 0.000000 
#    y 0.000000 1.526130 0.000000 
#    z 0.000000 0.000000 1.418530 
# 
# From -- ./inp_files/55584.got.cif
#   From: 2010.03.12/outbox.cif.g09.slc.cpg/sg74_28_cif.got.tgz:55584.got - 2010.04.16 15:46:19.
