data_PCOD8297224
_publ_section_title
;
Structure prediction by ZEFSAII (Michael W. Deem and Ramdas Pophale) SiO2 
 PCOD8297224
Probable space group: I M M A
;
_chemical_formula_sum "Si O2"
_cell_formula_units_Z 104
_cell_length_a 22.158699
_cell_length_b 8.759210
_cell_length_c 30.575858
_cell_angle_alpha 90.000000
_cell_angle_beta 90.000000
_cell_angle_gamma 90.000000
_cell_volume 5934.550769
_symmetry_space_group_name_H-M "I M M A"
_symmetry_group_IT_number 74
_symmetry_cell_setting 'orthorhombic'
loop_
_space_group_symop_operation_xyz
x,y,z
-x,1/2-y,z
x,-y,-z
-x,1/2+y,-z
-x,-y,-z
x,1/2+y,-z
-x,y,z
x,1/2-y,z
1/2+x,1/2+y,1/2+z
1/2-x,-y,1/2+z
1/2+x,1/2-y,1/2-z
1/2-x,y,1/2-z
1/2-x,1/2-y,1/2-z
1/2+x,y,1/2-z
1/2-x,1/2+y,1/2+z
1/2+x,-y,1/2+z
loop_
_atom_site_type_symbol
_atom_site_label
_atom_site_fract_x
_atom_site_fract_y
_atom_site_fract_z
Si Si1 0.000000 0.431143 0.951577
Si Si2 0.172292 0.570676 0.712120
Si Si3 0.346996 0.928802 0.124206
Si Si4 0.708033 0.076595 0.608935
Si Si5 0.802359 0.926025 0.205097
Si Si6 0.431019 0.430118 0.954369
Si Si7 0.119366 0.428073 0.046993
O O1 0.938845 0.494143 0.929208
O O2 0.000000 0.250000 0.951631
O O3 0.000000 0.500000 0.000000
O O4 0.163360 0.750000 0.715504
O O5 0.135112 0.509485 0.670099
O O6 0.150995 0.493022 0.758423
O O7 0.241675 0.524904 0.706777
O O8 0.356301 0.750000 0.131348
O O9 0.278249 0.967389 0.111874
O O10 0.390177 0.991575 0.085651
O O11 0.701030 0.250000 0.591725
O O12 0.673590 0.058921 0.655603
O O13 0.678172 0.958648 0.575819
O O14 0.787257 0.750000 0.215482
O O15 0.500000 0.480446 0.945445
O O16 0.424775 0.250000 0.958325
O O17 0.407504 0.500000 0.000000
O O18 0.107665 0.250000 0.041687
O O19 0.131344 0.500000 0.000000
#
# Coordination Sequence:
#
# PCOD8297224 Si02
#       7
#     8  16  16  16  16  16  16
#     4  10  18  32  52  70  90 116 154 196 228 266
#     4  10  17  25  42  68  95 121 155 195 233 276
#     4   9  18  32  48  68  97 129 160 196 243 296
#     4   9  18  31  46  68  97 128 160 194 239 290
#     4   9  16  28  45  64  93 128 157 188 232 283
#     4   9  18  33  52  72  94 124 164 208 252 298
#     4  11  21  33  49  69  95 125 159 197 237 278
#
# _framework density 17.524494000000001
#
# number of rings (size 3 to 8) (size 9 to 14) (size 15 to 20)
#    0.000    2.462    0.000    6.692    0.000    4.308 
#    0.000    1.538    0.000    0.000    2.000    0.000 
#    0.000    0.000    0.000    0.000    0.000    0.000 
#
# Total GULP energy -644444.411455 kJ/mol
# GULP energy per Si atom -12393.161759 kJ/mol
# Density = 1.748461 g / cm^3
# Si number density = 17.524494 Si / 1000 Ang^3
#
#
#
# Elastic Constant Matrix: (Units=GPa)
#
#
# Indices 1 2 3 4 5 6 
#
# 1 55.5282 27.6953 50.8510 0.0000 0.0000 0.0000
# 2 27.6953 93.8437 45.5783 0.0000 0.0000 0.0000
# 3 50.8510 45.5783 132.6757 0.0000 0.0000 0.0000
# 4 0.0000 0.0000 0.0000 30.1096 0.0000 0.0000
# 5 0.0000 0.0000 0.0000 0.0000 13.4300 0.0000
# 6 0.0000 0.0000 0.0000 0.0000 0.0000 15.3757
#
#
#
# Elastic Compliance Matrix: (Units=1/GPa)
#
#
# Indices 1 2 3 4 5 6 
#
# 1 0.028818 -0.003769 -0.009750 0.000000 0.000000 0.000000
# 2 -0.003769 0.013283 -0.003118 0.000000 0.000000 0.000000
# 3 -0.009750 -0.003118 0.012345 0.000000 0.000000 0.000000
# 4 0.000000 0.000000 0.000000 0.033212 0.000000 0.000000
# 5 0.000000 0.000000 0.000000 0.000000 0.074460 0.000000
# 6 0.000000 0.000000 0.000000 0.000000 0.000000 0.065038
#
#
# Mechanical properties :
#
#
# Convention : Reuss Voigt Hill
#
# Bulk Modulus (GPa) = 47.23588 58.92187 53.07888
# Shear Modulus (GPa) = 18.69236 22.31125 20.50181
#
# Velocity S-wave (km/s) = 3.26949 3.57199 3.42408
# Velocity P-wave (km/s) = 6.42382 7.12093 6.78134
#
# Compressibility (1/GPa) = 0.02117035
#
# Stress axis : x y z
#
# Youngs Moduli (GPa) = 34.70085 75.28424 81.00149
#
# Poissons Ratio (x) = 0.28376 0.78978
# Poissons Ratio (y) = 0.13080 0.25260
# Poissons Ratio (z) = 0.33834 0.23477
#
# Static dielectric constant tensor:
#      x y z
#    x 3.155930 0.000000 0.000000 
#    y 0.000000 3.195540 0.000000 
#    z 0.000000 0.000000 3.699840 
# 
# 
# High freq. dielectric constant tensor:
#      x y z
#    x 1.630330 0.000000 0.000000 
#    y 0.000000 1.681860 0.000000 
#    z 0.000000 0.000000 1.683350 
# 
# From -- ./inp_files/73666.got.cif
#   From: 2010.03.12/outbox.cif.g09.slc.cpg/sg74_37_cif.got.tgz:73666.got - 2010.04.16 15:46:19.
