data_PCOD8297226
_publ_section_title
;
Structure prediction by ZEFSAII (Michael W. Deem and Ramdas Pophale) SiO2 
 PCOD8297226
Probable space group: I M M A
;
_chemical_formula_sum "Si O2"
_cell_formula_units_Z 128
_cell_length_a 26.283712
_cell_length_b 18.077861
_cell_length_c 20.217365
_cell_angle_alpha 90.000000
_cell_angle_beta 90.000000
_cell_angle_gamma 90.000000
_cell_volume 9606.347537
_symmetry_space_group_name_H-M "I M M A"
_symmetry_group_IT_number 74
_symmetry_cell_setting 'orthorhombic'
loop_
_space_group_symop_operation_xyz
x,y,z
-x,1/2-y,z
x,-y,-z
-x,1/2+y,-z
-x,-y,-z
x,1/2+y,-z
-x,y,z
x,1/2-y,z
1/2+x,1/2+y,1/2+z
1/2-x,-y,1/2+z
1/2+x,1/2-y,1/2-z
1/2-x,y,1/2-z
1/2-x,1/2-y,1/2-z
1/2+x,y,1/2-z
1/2-x,1/2+y,1/2+z
1/2+x,-y,1/2+z
loop_
_atom_site_type_symbol
_atom_site_label
_atom_site_fract_x
_atom_site_fract_y
_atom_site_fract_z
Si Si1 0.381397 0.053423 0.125891
Si Si2 0.940111 0.086365 0.574231
Si Si3 0.733419 0.335021 0.930728
Si Si4 0.729495 0.968672 0.354491
Si Si5 0.669476 0.533527 0.230931
Si Si6 0.281052 0.434829 0.048368
Si Si7 0.135196 0.667046 0.343257
Si Si8 0.441020 0.167670 0.062110
O O1 0.370930 0.025618 0.201021
O O2 0.328806 0.081010 0.094529
O O3 0.416912 0.126033 0.125576
O O4 0.408713 0.988956 0.083539
O O5 0.919917 0.146465 0.626969
O O6 0.928850 0.118364 0.501861
O O7 0.000000 0.072106 0.585426
O O8 0.752197 0.250000 0.926655
O O9 0.771799 0.388019 0.889769
O O10 0.676750 0.344000 0.901395
O O11 0.733377 0.361211 0.007394
O O12 0.679015 0.978635 0.309232
O O13 0.778494 0.974164 0.308572
O O14 0.732916 0.035135 0.408217
O O15 0.647935 0.616052 0.219682
O O16 0.298281 0.500000 0.000000
O O17 0.134324 0.750000 0.316198
O O18 0.500000 0.174486 0.075458
O O19 0.417665 0.250000 0.053662
#
# Coordination Sequence:
#
# PCOD8297226 Si02
#       8
#    16  16  16  16  16  16  16  16
#     4  10  17  26  38  50  66  90 121 154 180 207
#     4  10  18  26  36  49  67  92 121 153 187 217
#     4   9  16  24  36  54  72  89 111 141 178 216
#     4   8  14  25  37  50  67  87 112 144 176 207
#     4   8  15  25  37  50  64  87 118 146 175 206
#     4   9  15  23  36  51  68  89 113 141 174 209
#     4   9  16  24  34  50  71  92 116 146 177 211
#     4  10  19  27  35  49  68  90 118 153 189 215
#
# _framework density 13.324522999999999
#
# number of rings (size 3 to 8) (size 9 to 14) (size 15 to 20)
#    0.000    2.875    0.000    4.875    0.000    3.750 
#    0.000    2.500    0.000    0.750    0.000    3.500 
#    0.000    0.000    0.000    0.000    0.000  140.625 
#
# Total GULP energy -793064.012886 kJ/mol
# GULP energy per Si atom -12391.625201 kJ/mol
# Density = 1.329420 g / cm^3
# Si number density = 13.324523 Si / 1000 Ang^3
#
#
#
# Elastic Constant Matrix: (Units=GPa)
#
#
# Indices 1 2 3 4 5 6 
#
# 1 35.9837 28.9426 26.9273 0.0000 0.0000 0.0000
# 2 28.9426 72.0088 35.4571 0.0000 0.0000 0.0000
# 3 26.9273 35.4571 52.3094 0.0000 0.0000 0.0000
# 4 0.0000 0.0000 0.0000 11.0443 0.0000 0.0000
# 5 0.0000 0.0000 0.0000 0.0000 20.9752 0.0000
# 6 0.0000 0.0000 0.0000 0.0000 0.0000 12.7482
#
#
#
# Elastic Compliance Matrix: (Units=1/GPa)
#
#
# Indices 1 2 3 4 5 6 
#
# 1 0.050658 -0.011288 -0.018426 0.000000 0.000000 0.000000
# 2 -0.011288 0.023360 -0.010023 0.000000 0.000000 0.000000
# 3 -0.018426 -0.010023 0.035396 0.000000 0.000000 0.000000
# 4 0.000000 0.000000 0.000000 0.090544 0.000000 0.000000
# 5 0.000000 0.000000 0.000000 0.000000 0.047675 0.000000
# 6 0.000000 0.000000 0.000000 0.000000 0.000000 0.078442
#
#
# Mechanical properties :
#
#
# Convention : Reuss Voigt Hill
#
# Bulk Modulus (GPa) = 33.40054 38.10622 35.75338
# Shear Modulus (GPa) = 12.03283 13.55187 12.79235
#
# Velocity S-wave (km/s) = 3.00835 3.19260 3.10185
# Velocity P-wave (km/s) = 6.09822 6.50007 6.30235
#
# Compressibility (1/GPa) = 0.02993963
#
# Stress axis : x y z
#
# Youngs Moduli (GPa) = 19.74016 42.80881 28.25170
#
# Poissons Ratio (x) = 0.48324 0.52056
# Poissons Ratio (y) = 0.22283 0.28317
# Poissons Ratio (z) = 0.36373 0.42908
#
# Static dielectric constant tensor:
#      x y z
#    x 2.532760 0.000000 0.000000 
#    y 0.000000 2.794020 0.000000 
#    z 0.000000 0.000000 2.686160 
# 
# 
# High freq. dielectric constant tensor:
#      x y z
#    x 1.471250 0.000000 0.000000 
#    y 0.000000 1.510910 0.000000 
#    z 0.000000 0.000000 1.473290 
# 
# From -- ./inp_files/53475.got.cif
#   From: 2010.03.12/outbox.cif.g09.slc.cpg/sg74_27_cif.got.tgz:53475.got - 2010.04.16 15:46:19.
