data_PCOD8297075
_publ_section_title
;
Structure prediction by ZEFSAII (Michael W. Deem and Ramdas Pophale) SiO2 
 PCOD8297075
Probable space group: I B C A 
;
_chemical_formula_sum "Si O2"
_cell_formula_units_Z 56
_cell_length_a 22.666247
_cell_length_b 5.114798
_cell_length_c 20.576247
_cell_angle_alpha 90.000000
_cell_angle_beta 90.000000
_cell_angle_gamma 90.000000
_cell_volume 2385.471698
_symmetry_space_group_name_H-M "I B C A "
_symmetry_group_IT_number 73
_symmetry_cell_setting 'orthorhombic'
loop_
_space_group_symop_operation_xyz
x,y,z
-x,1/2-y,z
x,-y,1/2-z
1/2-x,y,-z
-x,-y,-z
x,1/2+y,-z
-x,y,1/2+z
1/2+x,-y,z
1/2+x,1/2+y,1/2+z
1/2-x,-y,1/2+z
1/2+x,1/2-y,-z
-x,1/2+y,1/2-z
1/2-x,1/2-y,1/2-z
1/2+x,y,1/2-z
1/2-x,1/2+y,z
x,1/2-y,1/2+z
loop_
_atom_site_type_symbol
_atom_site_label
_atom_site_fract_x
_atom_site_fract_y
_atom_site_fract_z
Si Si1 0.078456 0.500000 0.250000
Si Si2 0.842784 0.500000 0.250000
Si Si3 0.000000 0.750000 0.355450
Si Si4 0.411126 0.570163 0.043324
Si Si5 0.212401 0.576262 0.886730
O O1 0.117669 0.249557 0.268117
O O2 0.038221 0.552403 0.312273
O O3 0.801544 0.430495 0.189586
O O4 0.956609 0.567346 0.397061
O O5 0.345410 0.552526 0.070129
O O6 0.423729 0.330397 0.996738
O O7 0.257000 0.347007 0.905352
#
# Coordination Sequence:
#
# PCOD8297075 Si02
#       5
#     8   8   8  16  16
#     4  12  27  45  80 110 152 191 237 314 380 450
#     4  12  25  49  74 114 154 187 245 310 388 438
#     4  12  28  50  78 114 152 190 250 306 380 442
#     4  12  29  49  75 107 149 202 249 302 362 437
#     4  12  26  48  77 108 147 193 249 309 369 440
#
# _framework density 23.475441
#
# number of rings (size 3 to 8) (size 9 to 14) (size 15 to 20)
#    0.000    0.000    2.857    6.000    4.000    5.714 
#    0.000    0.000    0.000    0.000    0.000    0.000 
#    0.000    0.000    0.000    0.000    0.000    0.000 
#
# Total GULP energy -347501.502858 kJ/mol
# GULP energy per Si atom -12410.767959 kJ/mol
# Density = 2.342201 g / cm^3
# Si number density = 23.475441 Si / 1000 Ang^3
#
#
#
# Elastic Constant Matrix: (Units=GPa)
#
#
# Indices 1 2 3 4 5 6 
#
# 1 86.6035 -1.9936 20.8478 0.0000 0.0000 0.0000
# 2 -1.9936 110.0848 25.8736 0.0000 0.0000 0.0000
# 3 20.8478 25.8736 101.4073 0.0000 0.0000 0.0000
# 4 0.0000 0.0000 0.0000 10.7553 0.0000 0.0000
# 5 0.0000 0.0000 0.0000 0.0000 33.1146 0.0000
# 6 0.0000 0.0000 0.0000 0.0000 0.0000 0.6737
#
#
#
# Elastic Compliance Matrix: (Units=1/GPa)
#
#
# Indices 1 2 3 4 5 6 
#
# 1 0.012225 0.000864 -0.002734 0.000000 0.000000 0.000000
# 2 0.000864 0.009724 -0.002659 0.000000 0.000000 0.000000
# 3 -0.002734 -0.002659 0.011102 0.000000 0.000000 0.000000
# 4 0.000000 0.000000 0.000000 0.092978 0.000000 0.000000
# 5 0.000000 0.000000 0.000000 0.000000 0.030198 0.000000
# 6 0.000000 0.000000 0.000000 0.000000 0.000000 1.484441
#
#
# Mechanical properties :
#
#
# Convention : Reuss Voigt Hill
#
# Bulk Modulus (GPa) = 41.67738 43.06124 42.36931
# Shear Modulus (GPa) = 3.01619 25.79989 14.40804
#
# Velocity S-wave (km/s) = 1.13473 3.31874 2.48008
# Velocity P-wave (km/s) = 4.41690 5.75050 5.12724
#
# Compressibility (1/GPa) = 0.02399383
#
# Stress axis : x y z
#
# Youngs Moduli (GPa) = 81.80079 102.83360 90.07720
#
# Poissons Ratio (x) = -0.08884 0.24624
# Poissons Ratio (y) = -0.07067 0.23949
# Poissons Ratio (z) = 0.22361 0.27341
#
# Static dielectric constant tensor:
#      x y z
#    x 4.494970 0.000000 0.000000 
#    y 0.000000 4.327230 0.000000 
#    z 0.000000 0.000000 4.798580 
# 
# 
# High freq. dielectric constant tensor:
#      x y z
#    x 1.952510 0.000000 0.000000 
#    y 0.000000 1.940850 0.000000 
#    z 0.000000 0.000000 1.942810 
# 
# From -- ./inp_files/1452.got.cif
#   From: 2010.03.12/outbox.cif.g09.slc.cpg/sg73_1_cif.got.tgz:1452.got - 2010.04.16 15:25:48.
