data_PCOD8297249
_publ_section_title
;
Structure prediction by ZEFSAII (Michael W. Deem and Ramdas Pophale) SiO2 
 PCOD8297249
Probable space group: I M M A
;
_chemical_formula_sum "Si O2"
_cell_formula_units_Z 96
_cell_length_a 23.134835
_cell_length_b 13.698347
_cell_length_c 20.535571
_cell_angle_alpha 90.000000
_cell_angle_beta 90.000000
_cell_angle_gamma 90.000000
_cell_volume 6507.907221
_symmetry_space_group_name_H-M "I M M A"
_symmetry_group_IT_number 74
_symmetry_cell_setting 'orthorhombic'
loop_
_space_group_symop_operation_xyz
x,y,z
-x,1/2-y,z
x,-y,-z
-x,1/2+y,-z
-x,-y,-z
x,1/2+y,-z
-x,y,z
x,1/2-y,z
1/2+x,1/2+y,1/2+z
1/2-x,-y,1/2+z
1/2+x,1/2-y,1/2-z
1/2-x,y,1/2-z
1/2-x,1/2-y,1/2-z
1/2+x,y,1/2-z
1/2-x,1/2+y,1/2+z
1/2+x,-y,1/2+z
loop_
_atom_site_type_symbol
_atom_site_label
_atom_site_fract_x
_atom_site_fract_y
_atom_site_fract_z
Si Si1 0.849237 0.954414 0.854532
Si Si2 0.064994 0.365709 0.045334
Si Si3 0.720861 0.445086 0.099686
Si Si4 0.315918 0.860617 0.771779
Si Si5 0.230282 0.358520 0.536687
Si Si6 0.140212 0.140609 0.926816
O O1 0.899447 0.898578 0.892063
O O2 0.787229 0.922876 0.882656
O O3 0.853481 0.925290 0.778563
O O4 0.858023 0.071060 0.863427
O O5 0.065994 0.250000 0.044043
O O6 0.000000 0.406826 0.050012
O O7 0.093020 0.402380 0.977296
O O8 0.678493 0.408555 0.156782
O O9 0.708815 0.560772 0.088733
O O10 0.706301 0.384708 0.034648
O O11 0.339762 0.750000 0.773274
O O12 0.250000 0.861837 0.750000
O O13 0.208438 0.250000 0.556852
O O14 0.299635 0.361579 0.534182
O O15 0.125543 0.250000 0.902607
#
# Coordination Sequence:
#
# PCOD8297249 Si02
#       6
#    16  16  16  16  16  16
#     4  10  17  27  39  53  73  99 128 160 193 229
#     4  10  19  28  40  58  77  99 131 170 205 230
#     4   9  16  25  38  57  74  97 129 156 187 227
#     4   9  17  26  38  54  72  94 123 158 190 225
#     4   9  15  24  39  55  75  99 123 154 189 225
#     4   9  17  27  38  52  71  97 129 160 193 227
#
# _framework density 14.751286
#
# number of rings (size 3 to 8) (size 9 to 14) (size 15 to 20)
#    0.000    2.667    1.667    1.500    0.000    2.667 
#    0.000    0.833    0.000    5.000    0.000    0.000 
#    0.000    0.000    0.000    3.000    0.000    5.333 
#
# Total GULP energy -594997.890668 kJ/mol
# GULP energy per Si atom -12395.789389 kJ/mol
# Density = 1.471771 g / cm^3
# Si number density = 14.751286 Si / 1000 Ang^3
#
#
#
# Elastic Constant Matrix: (Units=GPa)
#
#
# Indices 1 2 3 4 5 6 
#
# 1 28.9324 22.7189 30.1276 0.0000 0.0000 0.0000
# 2 22.7189 99.0056 60.5835 0.0000 0.0000 0.0000
# 3 30.1276 60.5835 107.4344 0.0000 0.0000 0.0000
# 4 0.0000 0.0000 0.0000 24.2706 0.0000 0.0000
# 5 0.0000 0.0000 0.0000 0.0000 12.4790 0.0000
# 6 0.0000 0.0000 0.0000 0.0000 0.0000 11.5951
#
#
#
# Elastic Compliance Matrix: (Units=1/GPa)
#
#
# Indices 1 2 3 4 5 6 
#
# 1 0.050056 -0.004423 -0.011543 0.000000 0.000000 0.000000
# 2 -0.004423 0.015813 -0.007677 0.000000 0.000000 0.000000
# 3 -0.011543 -0.007677 0.016874 0.000000 0.000000 0.000000
# 4 0.000000 0.000000 0.000000 0.041202 0.000000 0.000000
# 5 0.000000 0.000000 0.000000 0.000000 0.080135 0.000000
# 6 0.000000 0.000000 0.000000 0.000000 0.000000 0.086243
#
#
# Mechanical properties :
#
#
# Convention : Reuss Voigt Hill
#
# Bulk Modulus (GPa) = 28.20263 51.35916 39.78089
# Shear Modulus (GPa) = 14.30910 17.79845 16.05378
#
# Velocity S-wave (km/s) = 3.11790 3.47734 3.30251
# Velocity P-wave (km/s) = 5.66763 7.14247 6.44736
#
# Compressibility (1/GPa) = 0.03545769
#
# Stress axis : x y z
#
# Youngs Moduli (GPa) = 19.97748 63.23925 59.26277
#
# Poissons Ratio (x) = 0.27971 0.68407
# Poissons Ratio (y) = 0.08836 0.45495
# Poissons Ratio (z) = 0.23060 0.48547
#
# Static dielectric constant tensor:
#      x y z
#    x 2.487720 0.000000 0.000000 
#    y 0.000000 3.141220 0.000000 
#    z 0.000000 0.000000 2.824560 
# 
# 
# High freq. dielectric constant tensor:
#      x y z
#    x 1.500600 0.000000 0.000000 
#    y 0.000000 1.583390 0.000000 
#    z 0.000000 0.000000 1.546050 
# 
# From -- ./inp_files/52223.got.cif
#   From: 2010.03.12/outbox.cif.g09.slc.cpg/sg74_27_cif.got.tgz:52223.got - 2010.04.16 15:46:19.
