data_PCOD8297938
_publ_section_title
;
Structure prediction by ZEFSAII (Michael W. Deem and Ramdas Pophale) SiO2 
 PCOD8297938
Probable space group: I M M A
;
_chemical_formula_sum "Si O2"
_cell_formula_units_Z 72
_cell_length_a 8.685802
_cell_length_b 15.242438
_cell_length_c 28.491408
_cell_angle_alpha 90.000000
_cell_angle_beta 90.000000
_cell_angle_gamma 90.000000
_cell_volume 3772.057237
_symmetry_space_group_name_H-M "I M M A"
_symmetry_group_IT_number 74
_symmetry_cell_setting 'orthorhombic'
loop_
_space_group_symop_operation_xyz
x,y,z
-x,1/2-y,z
x,-y,-z
-x,1/2+y,-z
-x,-y,-z
x,1/2+y,-z
-x,y,z
x,1/2-y,z
1/2+x,1/2+y,1/2+z
1/2-x,-y,1/2+z
1/2+x,1/2-y,1/2-z
1/2-x,y,1/2-z
1/2-x,1/2-y,1/2-z
1/2+x,y,1/2-z
1/2-x,1/2+y,1/2+z
1/2+x,-y,1/2+z
loop_
_atom_site_type_symbol
_atom_site_label
_atom_site_fract_x
_atom_site_fract_y
_atom_site_fract_z
Si Si1 0.324071 0.649648 0.445222
Si Si2 0.678542 0.849712 0.554308
Si Si3 0.183289 0.250000 0.301979
Si Si4 0.680772 0.572130 0.699087
Si Si5 0.677768 0.501275 0.113369
O O1 0.500000 0.622282 0.435488
O O2 0.295418 0.750000 0.430542
O O3 0.285860 0.636028 0.499671
O O4 0.212895 0.589685 0.414661
O O5 0.500000 0.869267 0.565120
O O6 0.720057 0.750000 0.568899
O O7 0.783365 0.916382 0.582569
O O8 0.250000 0.250000 0.250000
O O9 0.249214 0.161016 0.324777
O O10 0.000000 0.250000 0.302756
O O11 0.500000 0.581909 0.704860
O O12 0.750000 0.550727 0.750000
O O13 0.725675 0.496673 0.662092
O O14 0.500000 0.499013 0.126698
#
# Coordination Sequence:
#
# PCOD8297938 Si02
#       5
#    16  16   8  16  16
#     4   9  19  38  61  82 107 144 189 235 281 334
#     4   9  19  36  57  81 112 149 189 230 275 330
#     4  10  18  32  52  76 106 140 178 218 266 322
#     4  11  22  38  57  78 108 146 186 229 275 327
#     4  12  24  35  53  83 116 149 186 230 278 334
#
# _framework density 19.087727000000001
#
# number of rings (size 3 to 8) (size 9 to 14) (size 15 to 20)
#    0.000    1.778    0.000    8.333    1.556    4.444 
#    0.000    2.222    0.000    0.667    0.000    0.000 
#    0.000    0.000    0.000    0.000    0.000    0.000 
#
# Total GULP energy -446438.063442 kJ/mol
# GULP energy per Si atom -12401.057318 kJ/mol
# Density = 1.904428 g / cm^3
# Si number density = 19.087727 Si / 1000 Ang^3
#
#
#
# Elastic Constant Matrix: (Units=GPa)
#
#
# Indices 1 2 3 4 5 6 
#
# 1 132.1302 32.5648 38.2774 0.0000 0.0000 0.0000
# 2 32.5648 77.3373 44.5864 0.0000 0.0000 0.0000
# 3 38.2774 44.5864 76.3504 0.0000 0.0000 0.0000
# 4 0.0000 0.0000 0.0000 23.9475 0.0000 0.0000
# 5 0.0000 0.0000 0.0000 0.0000 31.1328 0.0000
# 6 0.0000 0.0000 0.0000 0.0000 0.0000 27.3565
#
#
#
# Elastic Compliance Matrix: (Units=1/GPa)
#
#
# Indices 1 2 3 4 5 6 
#
# 1 0.009017 -0.001795 -0.003472 0.000000 0.000000 0.000000
# 2 -0.001795 0.019850 -0.010692 0.000000 0.000000 0.000000
# 3 -0.003472 -0.010692 0.021082 0.000000 0.000000 0.000000
# 4 0.000000 0.000000 0.000000 0.041758 0.000000 0.000000
# 5 0.000000 0.000000 0.000000 0.000000 0.032120 0.000000
# 6 0.000000 0.000000 0.000000 0.000000 0.000000 0.036554
#
#
# Mechanical properties :
#
#
# Convention : Reuss Voigt Hill
#
# Bulk Modulus (GPa) = 55.46130 57.40834 56.43482
# Shear Modulus (GPa) = 25.21295 27.84665 26.52980
#
# Velocity S-wave (km/s) = 3.63836 3.82367 3.73216
# Velocity P-wave (km/s) = 6.83881 7.04523 6.94279
#
# Compressibility (1/GPa) = 0.01803059
#
# Stress axis : x y z
#
# Youngs Moduli (GPa) = 110.90743 50.37677 47.43331
#
# Poissons Ratio (x) = 0.09042 0.16470
# Poissons Ratio (y) = 0.19906 0.50717
# Poissons Ratio (z) = 0.38509 0.53864
#
# Static dielectric constant tensor:
#      x y z
#    x 3.399020 0.000000 0.000000 
#    y 0.000000 3.656540 0.000000 
#    z 0.000000 0.000000 3.460040 
# 
# 
# High freq. dielectric constant tensor:
#      x y z
#    x 1.743960 0.000000 0.000000 
#    y 0.000000 1.727110 0.000000 
#    z 0.000000 0.000000 1.741980 
# 
# From -- ./inp_files/63600.got.cif
#   From: 2010.03.12/outbox.cif.g09.slc.cpg/sg74_32_cif.got.tgz:63600.got - 2010.04.16 15:46:19.
