data_PCOD8297160
_publ_section_title
;
Structure prediction by ZEFSAII (Michael W. Deem and Ramdas Pophale) SiO2 
 PCOD8297160
Probable space group: I M M A
;
_chemical_formula_sum "Si O2"
_cell_formula_units_Z 88
_cell_length_a 11.974468
_cell_length_b 27.474649
_cell_length_c 17.554922
_cell_angle_alpha 90.000000
_cell_angle_beta 90.000000
_cell_angle_gamma 90.000000
_cell_volume 5775.469367
_symmetry_space_group_name_H-M "I M M A"
_symmetry_group_IT_number 74
_symmetry_cell_setting 'orthorhombic'
loop_
_space_group_symop_operation_xyz
x,y,z
-x,1/2-y,z
x,-y,-z
-x,1/2+y,-z
-x,-y,-z
x,1/2+y,-z
-x,y,z
x,1/2-y,z
1/2+x,1/2+y,1/2+z
1/2-x,-y,1/2+z
1/2+x,1/2-y,1/2-z
1/2-x,y,1/2-z
1/2-x,1/2-y,1/2-z
1/2+x,y,1/2-z
1/2-x,1/2+y,1/2+z
1/2+x,-y,1/2+z
loop_
_atom_site_type_symbol
_atom_site_label
_atom_site_fract_x
_atom_site_fract_y
_atom_site_fract_z
Si Si1 0.374395 0.449879 0.454610
Si Si2 0.257283 0.402238 0.919241
Si Si3 0.000000 0.022683 0.414177
Si Si4 0.500000 0.698289 0.088327
Si Si5 0.500000 0.104294 0.982118
Si Si6 0.233307 0.499331 0.661446
Si Si7 0.731824 0.304753 0.838283
O O1 0.371842 0.500000 0.500000
O O2 0.500000 0.432165 0.438234
O O3 0.310281 0.408424 0.502168
O O4 0.310548 0.459092 0.375812
O O5 0.225109 0.444987 0.860161
O O6 0.216666 0.349576 0.886902
O O7 0.389470 0.409783 0.934162
O O8 0.000000 0.080769 0.433395
O O9 0.000000 0.000000 0.500000
O O10 0.106506 0.007670 0.365393
O O11 0.500000 0.750000 0.046910
O O12 0.601203 0.692189 0.146242
O O13 0.500000 0.662870 0.015043
O O14 0.250000 0.506470 0.750000
O O15 0.777851 0.250000 0.860098
O O16 0.750000 0.315285 0.750000
#
# Coordination Sequence:
#
# PCOD8297160 Si02
#       7
#    16  16   8   8   8  16  16
#     4   9  18  32  45  60  89 123 151 184 230 276
#     4  10  17  31  47  65  88 124 164 190 224 279
#     4  12  18  34  50  68  92 128 164 195 238 280
#     4   8  16  28  44  66  89 114 149 196 234 266
#     4  10  16  28  52  66  84 120 163 193 226 272
#     4  11  21  29  46  70  95 122 157 200 232 276
#     4   9  17  29  44  64  92 120 150 194 238 271
#
# _framework density 15.236857000000001
#
# number of rings (size 3 to 8) (size 9 to 14) (size 15 to 20)
#    0.000    2.182    3.636    1.091    1.273    0.000 
#    1.636    0.000    0.000    0.000    0.000    0.000 
#    0.000    2.909    0.000    0.000    0.000    0.000 
#
# Total GULP energy -545092.327753 kJ/mol
# GULP energy per Si atom -12388.461994 kJ/mol
# Density = 1.520218 g / cm^3
# Si number density = 15.236857 Si / 1000 Ang^3
#
#
#
# Elastic Constant Matrix: (Units=GPa)
#
#
# Indices 1 2 3 4 5 6 
#
# 1 83.7804 32.4144 41.8275 -0.0001 0.0000 0.0000
# 2 32.4144 114.9370 59.3205 0.0000 0.0000 0.0000
# 3 41.8275 59.3205 107.7087 -0.0001 0.0001 0.0000
# 4 -0.0001 0.0000 -0.0001 24.7009 0.0001 0.0000
# 5 0.0000 0.0000 0.0001 0.0001 20.2367 0.0000
# 6 0.0000 0.0000 0.0000 0.0000 0.0000 13.5651
#
#
#
# Elastic Compliance Matrix: (Units=1/GPa)
#
#
# Indices 1 2 3 4 5 6 
#
# 1 0.015045 -0.001715 -0.004898 0.000000 0.000000 0.000000
# 2 -0.001715 0.012351 -0.006136 0.000000 0.000000 0.000000
# 3 -0.004898 -0.006136 0.014566 0.000000 0.000000 0.000000
# 4 0.000000 0.000000 0.000000 0.040484 0.000000 0.000000
# 5 0.000000 0.000000 0.000000 0.000000 0.049415 0.000000
# 6 0.000000 0.000000 0.000000 0.000000 0.000000 0.073719
#
#
# Mechanical properties :
#
#
# Convention : Reuss Voigt Hill
#
# Bulk Modulus (GPa) = 60.74136 63.72787 62.23461
# Shear Modulus (GPa) = 21.13570 23.22478 22.18024
#
# Velocity S-wave (km/s) = 3.72848 3.90840 3.81950
# Velocity P-wave (km/s) = 7.64766 7.89196 7.77077
#
# Compressibility (1/GPa) = 0.01646325
#
# Stress axis : x y z
#
# Youngs Moduli (GPa) = 66.46813 80.96402 68.65321
#
# Poissons Ratio (x) = 0.13886 0.33626
# Poissons Ratio (y) = 0.11400 0.42128
# Poissons Ratio (z) = 0.32556 0.49683
#
# Static dielectric constant tensor:
#      x y z
#    x 3.004550 0.000000 0.000000 
#    y 0.000000 3.270080 0.000000 
#    z 0.000000 0.000000 2.755250 
# 
# 
# High freq. dielectric constant tensor:
#      x y z
#    x 1.585610 0.000000 0.000000 
#    y 0.000000 1.576710 0.000000 
#    z 0.000000 0.000000 1.554880 
# 
# From -- ./inp_files/41804.got.cif
#   From: 2010.03.12/outbox.cif.g09.slc.cpg/sg74_21_cif.got.tgz:41804.got - 2010.04.16 15:46:19.
