data_PCOD8297936
_publ_section_title
;
Structure prediction by ZEFSAII (Michael W. Deem and Ramdas Pophale) SiO2 
 PCOD8297936
Probable space group: I M M A
;
_chemical_formula_sum "Si O2"
_cell_formula_units_Z 72
_cell_length_a 32.542122
_cell_length_b 8.562808
_cell_length_c 14.569704
_cell_angle_alpha 90.000000
_cell_angle_beta 90.000000
_cell_angle_gamma 90.000000
_cell_volume 4059.876323
_symmetry_space_group_name_H-M "I M M A"
_symmetry_group_IT_number 74
_symmetry_cell_setting 'orthorhombic'
loop_
_space_group_symop_operation_xyz
x,y,z
-x,1/2-y,z
x,-y,-z
-x,1/2+y,-z
-x,-y,-z
x,1/2+y,-z
-x,y,z
x,1/2-y,z
1/2+x,1/2+y,1/2+z
1/2-x,-y,1/2+z
1/2+x,1/2-y,1/2-z
1/2-x,y,1/2-z
1/2-x,1/2-y,1/2-z
1/2+x,y,1/2-z
1/2-x,1/2+y,1/2+z
1/2+x,-y,1/2+z
loop_
_atom_site_type_symbol
_atom_site_label
_atom_site_fract_x
_atom_site_fract_y
_atom_site_fract_z
Si Si1 0.083426 0.432994 0.899035
Si Si2 0.223920 0.932772 0.096820
Si Si3 0.180285 0.432746 0.596917
Si Si4 0.344031 0.067617 0.281950
Si Si5 0.000000 0.934386 0.897974
O O1 0.078077 0.250000 0.908738
O O2 0.121165 0.471731 0.833879
O O3 0.041994 0.503025 0.851877
O O4 0.091851 0.500000 0.000000
O O5 0.214048 0.750000 0.101288
O O6 0.271696 0.968512 0.110721
O O7 0.200209 0.020545 0.177701
O O8 0.208282 0.000000 0.000000
O O9 0.165020 0.500000 0.500000
O O10 0.170968 0.250000 0.601875
O O11 0.154881 0.521724 0.675155
O O12 0.352162 0.250000 0.294105
O O13 0.000000 0.750000 0.896332
O O14 0.000000 0.000000 0.000000
#
# Coordination Sequence:
#
# PCOD8297936 Si02
#       5
#    16  16  16  16   8
#     4  11  21  35  53  76 106 138 170 204 246 297
#     4  10  20  34  51  72 100 133 169 209 254 304
#     4  10  21  37  54  72  96 130 171 214 258 303
#     4  12  23  34  50  74 102 133 170 212 255 298
#     4  10  18  32  52  76 105 136 167 198 240 296
#
# _framework density 17.734531
#
# number of rings (size 3 to 8) (size 9 to 14) (size 15 to 20)
#    0.000    1.333    0.000    9.000    0.000    5.333 
#    0.000    0.000    0.000    0.000    0.000    0.778 
#    0.000    0.000    0.000    0.000    0.000    0.000 
#
# Total GULP energy -446543.544078 kJ/mol
# GULP energy per Si atom -12403.987336 kJ/mol
# Density = 1.769417 g / cm^3
# Si number density = 17.734531 Si / 1000 Ang^3
#
#
#
# Elastic Constant Matrix: (Units=GPa)
#
#
# Indices 1 2 3 4 5 6 
#
# 1 66.4875 30.4844 35.4603 0.0000 0.0000 0.0000
# 2 30.4844 125.4123 31.4573 0.0000 0.0000 0.0000
# 3 35.4603 31.4573 102.9342 0.0000 0.0000 0.0000
# 4 0.0000 0.0000 0.0000 30.8276 0.0000 0.0000
# 5 0.0000 0.0000 0.0000 0.0000 11.4611 0.0000
# 6 0.0000 0.0000 0.0000 0.0000 0.0000 27.1732
#
#
#
# Elastic Compliance Matrix: (Units=1/GPa)
#
#
# Indices 1 2 3 4 5 6 
#
# 1 0.019632 -0.003331 -0.005745 0.000000 0.000000 0.000000
# 2 -0.003331 0.009201 -0.001664 0.000000 0.000000 0.000000
# 3 -0.005745 -0.001664 0.012203 0.000000 0.000000 0.000000
# 4 0.000000 0.000000 0.000000 0.032438 0.000000 0.000000
# 5 0.000000 0.000000 0.000000 0.000000 0.087251 0.000000
# 6 0.000000 0.000000 0.000000 0.000000 0.000000 0.036801
#
#
# Mechanical properties :
#
#
# Convention : Reuss Voigt Hill
#
# Bulk Modulus (GPa) = 51.13883 54.40420 52.77151
# Shear Modulus (GPa) = 22.17050 27.05452 24.61251
#
# Velocity S-wave (km/s) = 3.53956 3.91004 3.72940
# Velocity P-wave (km/s) = 6.75300 7.15039 6.95453
#
# Compressibility (1/GPa) = 0.01955461
#
# Stress axis : x y z
#
# Youngs Moduli (GPa) = 50.93802 108.68593 81.94889
#
# Poissons Ratio (x) = 0.36202 0.47080
# Poissons Ratio (y) = 0.16967 0.13639
# Poissons Ratio (z) = 0.29264 0.18089
#
# Static dielectric constant tensor:
#      x y z
#    x 3.521640 0.000000 0.000000 
#    y 0.000000 3.446210 0.000000 
#    z 0.000000 0.000000 -3.846580 
# 
# 
# High freq. dielectric constant tensor:
#      x y z
#    x 1.670110 0.000000 0.000000 
#    y 0.000000 1.709450 0.000000 
#    z 0.000000 0.000000 1.667070 
# 
# From -- ./inp_files/37655.got.cif
#   From: 2010.03.12/outbox.cif.g09.slc.cpg/sg74_19_cif.got.tgz:37655.got - 2010.04.16 15:46:19.
