data_PCOD8297251
_publ_section_title
;
Structure prediction by ZEFSAII (Michael W. Deem and Ramdas Pophale) SiO2 
 PCOD8297251
Probable space group: I M M A
;
_chemical_formula_sum "Si O2"
_cell_formula_units_Z 96
_cell_length_a 29.404856
_cell_length_b 13.549643
_cell_length_c 16.533683
_cell_angle_alpha 90.000000
_cell_angle_beta 90.000000
_cell_angle_gamma 90.000000
_cell_volume 6587.437630
_symmetry_space_group_name_H-M "I M M A"
_symmetry_group_IT_number 74
_symmetry_cell_setting 'orthorhombic'
loop_
_space_group_symop_operation_xyz
x,y,z
-x,1/2-y,z
x,-y,-z
-x,1/2+y,-z
-x,-y,-z
x,1/2+y,-z
-x,y,z
x,1/2-y,z
1/2+x,1/2+y,1/2+z
1/2-x,-y,1/2+z
1/2+x,1/2-y,1/2-z
1/2-x,y,1/2-z
1/2-x,1/2-y,1/2-z
1/2+x,y,1/2-z
1/2-x,1/2+y,1/2+z
1/2+x,-y,1/2+z
loop_
_atom_site_type_symbol
_atom_site_label
_atom_site_fract_x
_atom_site_fract_y
_atom_site_fract_z
Si Si1 0.259061 0.941782 0.622591
Si Si2 0.814085 0.135851 0.257111
Si Si3 0.632693 0.134864 0.966593
Si Si4 0.451057 0.532220 0.091621
Si Si5 0.235301 0.863904 0.450857
Si Si6 0.899406 0.136408 0.359116
O O1 0.216889 0.924604 0.681471
O O2 0.305674 0.906517 0.666704
O O3 0.251293 0.876249 0.543040
O O4 0.263643 0.059171 0.604030
O O5 0.799797 0.250000 0.261307
O O6 0.866496 0.122909 0.282388
O O7 0.632677 0.250000 0.973978
O O8 0.592628 0.105048 0.903459
O O9 0.682825 0.101662 0.939089
O O10 0.624460 0.095067 0.058040
O O11 0.500000 0.579458 0.119047
O O12 0.442461 0.436565 0.149883
O O13 0.457057 0.500000 0.000000
O O14 0.243361 0.750000 0.424116
O O15 0.915357 0.250000 0.367540
#
# Coordination Sequence:
#
# PCOD8297251 Si02
#       6
#    16  16  16  16  16  16
#     4  10  18  25  41  58  75 101 132 171 206 239
#     4  10  17  27  40  58  77  98 134 174 206 238
#     4   9  16  25  38  54  72  97 130 165 199 230
#     4   9  17  26  37  54  76 100 129 162 194 234
#     4  10  18  28  40  58  79 104 134 168 206 244
#     4   9  16  25  39  54  73  99 126 162 201 234
#
# _framework density 14.573193
#
# number of rings (size 3 to 8) (size 9 to 14) (size 15 to 20)
#    0.000    2.500    1.667    3.000    4.667    0.667 
#    0.000    5.000    0.000    1.000    0.000    0.000 
#    0.000    0.000    0.000    3.000    0.000    6.000 
#
# Total GULP energy -594637.396179 kJ/mol
# GULP energy per Si atom -12388.279087 kJ/mol
# Density = 1.454002 g / cm^3
# Si number density = 14.573193 Si / 1000 Ang^3
#
#
#
# Elastic Constant Matrix: (Units=GPa)
#
#
# Indices 1 2 3 4 5 6 
#
# 1 58.5072 16.5802 27.8522 0.0000 0.0000 0.0000
# 2 16.5802 40.8543 21.1796 0.0000 0.0000 0.0000
# 3 27.8522 21.1796 46.9989 0.0000 0.0000 0.0000
# 4 0.0000 0.0000 0.0000 18.1311 0.0000 0.0000
# 5 0.0000 0.0000 0.0000 0.0000 -0.4183 0.0000
# 6 0.0000 0.0000 0.0000 0.0000 0.0000 18.1886
#
#
#
# Elastic Compliance Matrix: (Units=1/GPa)
#
#
# Indices 1 2 3 4 5 6 
#
# 1 0.024106 -0.003102 -0.012888 0.000000 0.000000 0.000000
# 2 -0.003102 0.032338 -0.012734 0.000000 0.000000 0.000000
# 3 -0.012888 -0.012734 0.034653 0.000000 0.000000 0.000000
# 4 0.000000 0.000000 0.000000 0.055154 0.000000 0.000000
# 5 0.000000 0.000000 0.000000 0.000000 -2.390396 0.000000
# 6 0.000000 0.000000 0.000000 0.000000 0.000000 0.054980
#
#
# Mechanical properties :
#
#
# Convention : Reuss Voigt Hill
#
# Bulk Modulus (GPa) = 29.71867 30.84270 30.28069
# Shear Modulus (GPa) = -2.35793 12.56350 5.10278
#
# Velocity S-wave (km/s) = -1.27338 2.93933 1.87326
# Velocity P-wave (km/s) = 4.27492 5.72097 5.04997
#
# Compressibility (1/GPa) = 0.03364888
#
# Stress axis : x y z
#
# Youngs Moduli (GPa) = 41.48314 30.92348 28.85732
#
# Poissons Ratio (x) = 0.09592 0.37191
# Poissons Ratio (y) = 0.12868 0.36748
# Poissons Ratio (z) = 0.53463 0.39379
#
# Static dielectric constant tensor:
#      x y z
#    x 3.041750 0.000000 0.000000 
#    y 0.000000 2.948450 0.000000 
#    z 0.000000 0.000000 2.654000 
# 
# 
# High freq. dielectric constant tensor:
#      x y z
#    x 1.532030 0.000000 0.000000 
#    y 0.000000 1.570280 0.000000 
#    z 0.000000 0.000000 1.505160 
# 
# From -- ./inp_files/33068.got.cif
#   From: 2010.03.12/outbox.cif.g09.slc.cpg/sg74_17_cif.got.tgz:33068.got - 2010.04.16 15:46:19.
