data_PCOD8297869
_publ_section_title
;
Structure prediction by ZEFSAII (Michael W. Deem and Ramdas Pophale) SiO2 
 PCOD8297869
Probable space group: I M M A
;
_chemical_formula_sum "Si O2"
_cell_formula_units_Z 72
_cell_length_a 14.426975
_cell_length_b 8.839220
_cell_length_c 30.108267
_cell_angle_alpha 90.000000
_cell_angle_beta 90.000000
_cell_angle_gamma 90.000000
_cell_volume 3839.502734
_symmetry_space_group_name_H-M "I M M A"
_symmetry_group_IT_number 74
_symmetry_cell_setting 'orthorhombic'
loop_
_space_group_symop_operation_xyz
x,y,z
-x,1/2-y,z
x,-y,-z
-x,1/2+y,-z
-x,-y,-z
x,1/2+y,-z
-x,y,z
x,1/2-y,z
1/2+x,1/2+y,1/2+z
1/2-x,-y,1/2+z
1/2+x,1/2-y,1/2-z
1/2-x,y,1/2-z
1/2-x,1/2-y,1/2-z
1/2+x,y,1/2-z
1/2-x,1/2+y,1/2+z
1/2+x,-y,1/2+z
loop_
_atom_site_type_symbol
_atom_site_label
_atom_site_fract_x
_atom_site_fract_y
_atom_site_fract_z
Si Si1 0.303578 0.926004 0.707192
Si Si2 0.685243 0.427655 0.547526
Si Si3 0.000000 0.571108 0.338037
Si Si4 0.304923 0.426239 0.870296
Si Si5 0.000000 0.430798 0.048905
Si Si6 0.500000 0.924016 0.743355
O O1 0.281755 0.750000 0.702485
O O2 0.250000 0.992213 0.750000
O O3 0.412064 0.960468 0.712762
O O4 0.269671 0.004285 0.662792
O O5 0.708998 0.500000 0.500000
O O6 0.666017 0.250000 0.541379
O O7 0.772784 0.459558 0.579395
O O8 0.594664 0.505383 0.570631
O O9 0.092039 0.505261 0.362309
O O10 0.000000 0.750000 0.341635
O O11 0.000000 0.526410 0.286766
O O12 0.306412 0.250000 0.860243
O O13 0.000000 0.250000 0.049623
O O14 0.000000 0.500000 0.000000
O O15 0.500000 0.750000 0.759325
#
# Coordination Sequence:
#
# PCOD8297869 Si02
#       6
#    16  16   8  16   8   8
#     4  10  20  34  54  79 109 141 176 220 267 320
#     4  10  20  36  56  81 112 145 181 225 271 323
#     4  10  20  36  56  78 103 141 183 223 270 321
#     4  10  22  37  56  80 108 141 183 227 271 322
#     4  10  18  31  54  81 107 140 176 214 265 324
#     4  10  20  35  53  79 111 143 177 219 268 317
#
# _framework density 18.752428999999999
#
# number of rings (size 3 to 8) (size 9 to 14) (size 15 to 20)
#    0.000    2.000    2.222    3.000    0.000    4.000 
#    0.000    2.778    0.000    0.000    0.000    0.000 
#    0.000    0.000    0.000    0.000    0.000    0.000 
#
# Total GULP energy -446339.995029 kJ/mol
# GULP energy per Si atom -12398.333195 kJ/mol
# Density = 1.870975 g / cm^3
# Si number density = 18.752429 Si / 1000 Ang^3
#
#
#
# Elastic Constant Matrix: (Units=GPa)
#
#
# Indices 1 2 3 4 5 6 
#
# 1 155.5794 38.4227 63.0267 0.0000 0.0000 0.0000
# 2 38.4227 64.4361 37.4465 0.0000 0.0000 0.0000
# 3 63.0267 37.4465 99.4492 0.0000 0.0000 0.0000
# 4 0.0000 0.0000 0.0000 28.1836 0.0000 0.0000
# 5 0.0000 0.0000 0.0000 0.0000 16.6831 0.0000
# 6 0.0000 0.0000 0.0000 0.0000 0.0000 20.5020
#
#
#
# Elastic Compliance Matrix: (Units=1/GPa)
#
#
# Indices 1 2 3 4 5 6 
#
# 1 0.008981 -0.002621 -0.004705 0.000000 0.000000 0.000000
# 2 -0.002621 0.020631 -0.006107 0.000000 0.000000 0.000000
# 3 -0.004705 -0.006107 0.015337 0.000000 0.000000 0.000000
# 4 0.000000 0.000000 0.000000 0.035482 0.000000 0.000000
# 5 0.000000 0.000000 0.000000 0.000000 0.059941 0.000000
# 6 0.000000 0.000000 0.000000 0.000000 0.000000 0.048776
#
#
# Mechanical properties :
#
#
# Convention : Reuss Voigt Hill
#
# Bulk Modulus (GPa) = 55.30196 66.36186 60.83191
# Shear Modulus (GPa) = 22.51833 25.11165 23.81499
#
# Velocity S-wave (km/s) = 3.46905 3.66336 3.56753
# Velocity P-wave (km/s) = 6.75280 7.30471 7.03417
#
# Compressibility (1/GPa) = 0.01808254
#
# Stress axis : x y z
#
# Youngs Moduli (GPa) = 111.34822 48.46970 65.20290
#
# Poissons Ratio (x) = 0.12704 0.30676
# Poissons Ratio (y) = 0.29185 0.39822
# Poissons Ratio (z) = 0.52386 0.29603
#
# Static dielectric constant tensor:
#      x y z
#    x 4.118230 0.000000 0.000000 
#    y 0.000000 3.393660 0.000000 
#    z 0.000000 0.000000 3.236700 
# 
# 
# High freq. dielectric constant tensor:
#      x y z
#    x 1.741590 0.000000 0.000000 
#    y 0.000000 1.723960 0.000000 
#    z 0.000000 0.000000 1.710700 
# 
# From -- ./inp_files/66767.got.cif
#   From: 2010.03.12/outbox.cif.g09.slc.cpg/sg74_34_cif.got.tgz:66767.got - 2010.04.16 15:46:19.
