data_PCOD8297200
_publ_section_title
;
Structure prediction by ZEFSAII (Michael W. Deem and Ramdas Pophale) SiO2 
 PCOD8297200
Probable space group: I M M A
;
_chemical_formula_sum "Si O2"
_cell_formula_units_Z 80
_cell_length_a 23.287971
_cell_length_b 8.659795
_cell_length_c 29.303782
_cell_angle_alpha 90.000000
_cell_angle_beta 90.000000
_cell_angle_gamma 90.000000
_cell_volume 5909.666019
_symmetry_space_group_name_H-M "I M M A"
_symmetry_group_IT_number 74
_symmetry_cell_setting 'orthorhombic'
loop_
_space_group_symop_operation_xyz
x,y,z
-x,1/2-y,z
x,-y,-z
-x,1/2+y,-z
-x,-y,-z
x,1/2+y,-z
-x,y,z
x,1/2-y,z
1/2+x,1/2+y,1/2+z
1/2-x,-y,1/2+z
1/2+x,1/2-y,1/2-z
1/2-x,y,1/2-z
1/2-x,1/2-y,1/2-z
1/2+x,y,1/2-z
1/2-x,1/2+y,1/2+z
1/2+x,-y,1/2+z
loop_
_atom_site_type_symbol
_atom_site_label
_atom_site_fract_x
_atom_site_fract_y
_atom_site_fract_z
Si Si1 0.735784 0.929854 0.315304
Si Si2 0.125976 0.432427 0.863402
Si Si3 0.565640 0.067378 0.547097
Si Si4 0.668821 0.569448 0.768415
Si Si5 0.565537 0.932844 0.271762
O O1 0.750747 0.750000 0.316621
O O2 0.693690 0.975772 0.357507
O O3 0.699103 0.968166 0.270423
O O4 0.796056 0.025731 0.315008
O O5 0.118012 0.250000 0.864363
O O6 0.102547 0.502341 0.910856
O O7 0.087996 0.494169 0.820913
O O8 0.500000 0.013875 0.554057
O O9 0.570538 0.250000 0.545124
O O10 0.590666 0.000000 0.500000
O O11 0.674405 0.750000 0.758587
O O12 0.602307 0.516034 0.768639
O O13 0.500000 0.984610 0.265606
O O14 0.572639 0.750000 0.267236
#
# Coordination Sequence:
#
# PCOD8297200 Si02
#       5
#    16  16  16  16  16
#     4   9  15  25  39  51  63  84 116 146 171 203
#     4   8  14  24  39  54  65  83 115 152 180 203
#     4   9  16  26  38  51  68  89 113 142 178 216
#     4  10  17  24  34  50  72  91 107 135 177 214
#     4   9  16  26  39  52  66  89 121 150 173 201
#
# _framework density 13.537144
#
# number of rings (size 3 to 8) (size 9 to 14) (size 15 to 20)
#    0.000    3.000    0.000    5.400    0.000    2.800 
#    0.000    5.000    0.000    4.800    0.000    0.000 
#    0.000    0.000    0.000    0.000    0.000    1.000 
#
# Total GULP energy -495549.601151 kJ/mol
# GULP energy per Si atom -12388.740029 kJ/mol
# Density = 1.350633 g / cm^3
# Si number density = 13.537144 Si / 1000 Ang^3
#
#
#
# Elastic Constant Matrix: (Units=GPa)
#
#
# Indices 1 2 3 4 5 6 
#
# 1 110.2552 26.9966 54.4887 0.0000 0.0000 0.0000
# 2 26.9966 23.9664 16.1996 0.0000 0.0000 0.0000
# 3 54.4887 16.1996 56.9333 0.0000 0.0000 0.0000
# 4 0.0000 0.0000 0.0000 12.5856 0.0000 0.0000
# 5 0.0000 0.0000 0.0000 0.0000 22.8791 0.0000
# 6 0.0000 0.0000 0.0000 0.0000 0.0000 12.2382
#
#
#
# Elastic Compliance Matrix: (Units=1/GPa)
#
#
# Indices 1 2 3 4 5 6 
#
# 1 0.019500 -0.011577 -0.015368 0.000000 0.000000 0.000000
# 2 -0.011577 0.058534 -0.005575 0.000000 0.000000 0.000000
# 3 -0.015368 -0.005575 0.033859 0.000000 0.000000 0.000000
# 4 0.000000 0.000000 0.000000 0.079456 0.000000 0.000000
# 5 0.000000 0.000000 0.000000 0.000000 0.043708 0.000000
# 6 0.000000 0.000000 0.000000 0.000000 0.000000 0.081711
#
#
# Mechanical properties :
#
#
# Convention : Reuss Voigt Hill
#
# Bulk Modulus (GPa) = 21.34377 42.94718 32.14548
# Shear Modulus (GPa) = 12.58094 15.77191 14.17643
#
# Velocity S-wave (km/s) = 3.05185 3.41704 3.23960
# Velocity P-wave (km/s) = 5.31220 6.88204 6.14744
#
# Compressibility (1/GPa) = 0.04685208
#
# Stress axis : x y z
#
# Youngs Moduli (GPa) = 51.28279 17.08400 29.53418
#
# Poissons Ratio (x) = 0.19779 0.45389
# Poissons Ratio (y) = 0.59372 0.16465
# Poissons Ratio (z) = 0.78813 0.09524
#
# Static dielectric constant tensor:
#      x y z
#    x 3.180030 0.000000 0.000000 
#    y 0.000000 2.517590 0.000000 
#    z 0.000000 0.000000 2.698260 
# 
# 
# High freq. dielectric constant tensor:
#      x y z
#    x 1.511460 0.000000 0.000000 
#    y 0.000000 1.508370 0.000000 
#    z 0.000000 0.000000 1.464430 
# 
# From -- ./inp_files/70686.got.cif
#   From: 2010.03.12/outbox.cif.g09.slc.cpg/sg74_36_cif.got.tgz:70686.got - 2010.04.16 15:46:19.
