data_PCOD8297158
_publ_section_title
;
Structure prediction by ZEFSAII (Michael W. Deem and Ramdas Pophale) SiO2 
 PCOD8297158
Probable space group: I M M A
;
_chemical_formula_sum "Si O2"
_cell_formula_units_Z 72
_cell_length_a 17.102949
_cell_length_b 25.441553
_cell_length_c 10.470951
_cell_angle_alpha 90.000000
_cell_angle_beta 90.000000
_cell_angle_gamma 90.000000
_cell_volume 4556.178663
_symmetry_space_group_name_H-M "I M M A"
_symmetry_group_IT_number 74
_symmetry_cell_setting 'orthorhombic'
loop_
_space_group_symop_operation_xyz
x,y,z
-x,1/2-y,z
x,-y,-z
-x,1/2+y,-z
-x,-y,-z
x,1/2+y,-z
-x,y,z
x,1/2-y,z
1/2+x,1/2+y,1/2+z
1/2-x,-y,1/2+z
1/2+x,1/2-y,1/2-z
1/2-x,y,1/2-z
1/2-x,1/2-y,1/2-z
1/2+x,y,1/2-z
1/2-x,1/2+y,1/2+z
1/2+x,-y,1/2+z
loop_
_atom_site_type_symbol
_atom_site_label
_atom_site_fract_x
_atom_site_fract_y
_atom_site_fract_z
Si Si1 0.588062 0.887180 0.204136
Si Si2 0.750000 0.059720 0.250000
Si Si3 0.229550 0.604748 0.483121
Si Si4 0.650058 0.975782 0.372692
Si Si5 0.816881 0.808203 0.145833
O O1 0.500000 0.881095 0.153165
O O2 0.644656 0.890100 0.081802
O O3 0.592061 0.939334 0.292138
O O4 0.608494 0.836913 0.291929
O O5 0.779379 0.095703 0.366590
O O6 0.675556 0.024640 0.286216
O O7 0.272115 0.556470 0.412258
O O8 0.281878 0.657357 0.469726
O O9 0.609006 0.000000 0.500000
O O10 0.841173 0.750000 0.097228
O O11 0.750000 0.803935 0.250000
#
# Coordination Sequence:
#
# PCOD8297158 Si02
#       5
#    16   8  16  16  16
#     4  10  18  28  43  69  98 115 143 194 244 283
#     4  10  16  28  49  62  85 124 166 188 228 268
#     4   9  17  29  46  68  87 120 164 198 223 269
#     4   9  16  28  46  62  86 123 162 189 214 272
#     4   8  15  30  49  66  86 114 151 192 229 272
#
# _framework density 15.802716999999999
#
# number of rings (size 3 to 8) (size 9 to 14) (size 15 to 20)
#    0.000    2.889    2.222    1.333    0.000    0.889 
#    0.000    2.778    0.000    5.333    0.000    0.000 
#    0.000    0.000    0.000    0.000    0.000    0.000 
#
# Total GULP energy -446231.061478 kJ/mol
# GULP energy per Si atom -12395.307263 kJ/mol
# Density = 1.576675 g / cm^3
# Si number density = 15.802717 Si / 1000 Ang^3
#
#
#
# Elastic Constant Matrix: (Units=GPa)
#
#
# Indices 1 2 3 4 5 6 
#
# 1 84.1766 26.9442 32.5418 0.0000 0.0000 0.0000
# 2 26.9442 109.8190 54.2379 0.0000 0.0000 0.0000
# 3 32.5418 54.2379 102.0725 0.0000 0.0000 0.0000
# 4 0.0000 0.0000 0.0000 17.5402 0.0000 0.0000
# 5 0.0000 0.0000 0.0000 0.0000 13.4346 0.0000
# 6 0.0000 0.0000 0.0000 0.0000 0.0000 9.8236
#
#
#
# Elastic Compliance Matrix: (Units=1/GPa)
#
#
# Indices 1 2 3 4 5 6 
#
# 1 0.013764 -0.001640 -0.003517 0.000000 0.000000 0.000000
# 2 -0.001640 0.012541 -0.006141 0.000000 0.000000 0.000000
# 3 -0.003517 -0.006141 0.014181 0.000000 0.000000 0.000000
# 4 0.000000 0.000000 0.000000 0.057012 0.000000 0.000000
# 5 0.000000 0.000000 0.000000 0.000000 0.074435 0.000000
# 6 0.000000 0.000000 0.000000 0.000000 0.000000 0.101796
#
#
# Mechanical properties :
#
#
# Convention : Reuss Voigt Hill
#
# Bulk Modulus (GPa) = 55.89431 58.16843 57.03137
# Shear Modulus (GPa) = 16.54049 20.31597 18.42823
#
# Velocity S-wave (km/s) = 3.23876 3.58942 3.41859
# Velocity P-wave (km/s) = 7.03086 7.35307 7.19377
#
# Compressibility (1/GPa) = 0.01789091
#
# Stress axis : x y z
#
# Youngs Moduli (GPa) = 72.65163 79.73637 70.51556
#
# Poissons Ratio (x) = 0.13079 0.24798
# Poissons Ratio (y) = 0.11917 0.43304
# Poissons Ratio (z) = 0.25549 0.48967
#
# Static dielectric constant tensor:
#      x y z
#    x 2.622490 0.000000 0.000000 
#    y 0.000000 3.439380 0.000000 
#    z 0.000000 0.000000 2.944880 
# 
# 
# High freq. dielectric constant tensor:
#      x y z
#    x 1.574770 0.000000 0.000000 
#    y 0.000000 1.608550 0.000000 
#    z 0.000000 0.000000 1.591020 
# 
# From -- ./inp_files/12557.got.cif
#   From: 2010.03.12/outbox.cif.g09.slc.cpg/sg74_7_cif.got.tgz:12557.got - 2010.04.16 15:46:19.
