data_PCOD8297220
_publ_section_title
;
Structure prediction by ZEFSAII (Michael W. Deem and Ramdas Pophale) SiO2 
 PCOD8297220
Probable space group: I M M A
;
_chemical_formula_sum "Si O2"
_cell_formula_units_Z 72
_cell_length_a 23.089217
_cell_length_b 8.743740
_cell_length_c 23.163747
_cell_angle_alpha 90.000000
_cell_angle_beta 90.000000
_cell_angle_gamma 90.000000
_cell_volume 4676.438781
_symmetry_space_group_name_H-M "I M M A"
_symmetry_group_IT_number 74
_symmetry_cell_setting 'orthorhombic'
loop_
_space_group_symop_operation_xyz
x,y,z
-x,1/2-y,z
x,-y,-z
-x,1/2+y,-z
-x,-y,-z
x,1/2+y,-z
-x,y,z
x,1/2-y,z
1/2+x,1/2+y,1/2+z
1/2-x,-y,1/2+z
1/2+x,1/2-y,1/2-z
1/2-x,y,1/2-z
1/2-x,1/2-y,1/2-z
1/2+x,y,1/2-z
1/2-x,1/2+y,1/2+z
1/2+x,-y,1/2+z
loop_
_atom_site_type_symbol
_atom_site_label
_atom_site_fract_x
_atom_site_fract_y
_atom_site_fract_z
Si Si1 0.826824 0.572477 0.772067
Si Si2 0.391449 0.575299 0.618175
Si Si3 0.716987 0.429968 0.831634
Si Si4 0.500000 0.572919 0.437618
Si Si5 0.269013 0.430140 0.437657
O O1 0.807932 0.750000 0.771354
O O2 0.883445 0.553225 0.812471
O O3 0.776812 0.471356 0.800660
O O4 0.834965 0.508245 0.706632
O O5 0.407291 0.750000 0.603547
O O6 0.443299 0.469388 0.598249
O O7 0.333073 0.526790 0.584785
O O8 0.706867 0.250000 0.834609
O O9 0.719629 0.498402 0.896128
O O10 0.500000 0.750000 0.448363
O O11 0.500000 0.500000 0.500000
O O12 0.259330 0.500000 0.500000
O O13 0.260241 0.250000 0.439166
#
# Coordination Sequence:
#
# PCOD8297220 Si02
#       5
#    16  16  16   8  16
#     4   9  16  28  44  60  78 102 132 169 207 245
#     4   9  19  33  47  60  78 105 139 177 215 250
#     4  10  17  25  40  61  83 106 131 164 202 246
#     4  12  24  34  46  60  80 108 141 180 217 252
#     4  10  19  30  43  60  82 110 141 173 207 247
#
# _framework density 15.396331
#
# number of rings (size 3 to 8) (size 9 to 14) (size 15 to 20)
#    0.000    2.222    0.000    7.667    0.000    7.111 
#    0.000    0.000    0.000    0.000    0.000    0.000 
#    0.000    0.000    0.000    1.000    0.000   13.111 
#
# Total GULP energy -446159.762983 kJ/mol
# GULP energy per Si atom -12393.326750 kJ/mol
# Density = 1.536129 g / cm^3
# Si number density = 15.396331 Si / 1000 Ang^3
#
#
#
# Elastic Constant Matrix: (Units=GPa)
#
#
# Indices 1 2 3 4 5 6 
#
# 1 39.1396 31.8158 47.1927 0.0000 0.0000 0.0000
# 2 31.8158 100.6692 58.7095 0.0000 0.0000 0.0000
# 3 47.1927 58.7095 142.3978 0.0000 0.0000 0.0000
# 4 0.0000 0.0000 0.0000 30.9744 0.0000 0.0000
# 5 0.0000 0.0000 0.0000 0.0000 21.3373 0.0000
# 6 0.0000 0.0000 0.0000 0.0000 0.0000 17.8007
#
#
#
# Elastic Compliance Matrix: (Units=1/GPa)
#
#
# Indices 1 2 3 4 5 6 
#
# 1 0.046508 -0.007517 -0.012314 0.000000 0.000000 0.000000
# 2 -0.007517 0.014293 -0.003402 0.000000 0.000000 0.000000
# 3 -0.012314 -0.003402 0.012506 0.000000 0.000000 0.000000
# 4 0.000000 0.000000 0.000000 0.032285 0.000000 0.000000
# 5 0.000000 0.000000 0.000000 0.000000 0.046866 0.000000
# 6 0.000000 0.000000 0.000000 0.000000 0.000000 0.056178
#
#
# Mechanical properties :
#
#
# Convention : Reuss Voigt Hill
#
# Bulk Modulus (GPa) = 37.25583 61.96027 49.60805
# Shear Modulus (GPa) = 18.93591 23.65506 21.29548
#
# Velocity S-wave (km/s) = 3.51079 3.92396 3.72311
# Velocity P-wave (km/s) = 6.37845 7.80133 7.12550
#
# Compressibility (1/GPa) = 0.02684144
#
# Stress axis : x y z
#
# Youngs Moduli (GPa) = 21.50171 69.96415 79.96043
#
# Poissons Ratio (x) = 0.52592 0.98465
# Poissons Ratio (y) = 0.16163 0.27200
# Poissons Ratio (z) = 0.26478 0.23800
#
# Static dielectric constant tensor:
#      x y z
#    x 2.639090 0.000000 0.000000 
#    y 0.000000 3.019640 0.000000 
#    z 0.000000 0.000000 3.500230 
# 
# 
# High freq. dielectric constant tensor:
#      x y z
#    x 1.523540 0.000000 0.000000 
#    y 0.000000 1.607100 0.000000 
#    z 0.000000 0.000000 1.600900 
# 
# From -- ./inp_files/56807.got.cif
#   From: 2010.03.12/outbox.cif.g09.slc.cpg/sg74_29_cif.got.tgz:56807.got - 2010.04.16 15:46:19.
