data_PCOD8297653
_publ_section_title
;
Structure prediction by ZEFSAII (Michael W. Deem and Ramdas Pophale) SiO2 
 PCOD8297653
Probable space group: I M M A
;
_chemical_formula_sum "Si O2"
_cell_formula_units_Z 80
_cell_length_a 7.722314
_cell_length_b 26.072573
_cell_length_c 28.361496
_cell_angle_alpha 90.000000
_cell_angle_beta 90.000000
_cell_angle_gamma 90.000000
_cell_volume 5710.320494
_symmetry_space_group_name_H-M "I M M A"
_symmetry_group_IT_number 74
_symmetry_cell_setting 'orthorhombic'
loop_
_space_group_symop_operation_xyz
x,y,z
-x,1/2-y,z
x,-y,-z
-x,1/2+y,-z
-x,-y,-z
x,1/2+y,-z
-x,y,z
x,1/2-y,z
1/2+x,1/2+y,1/2+z
1/2-x,-y,1/2+z
1/2+x,1/2-y,1/2-z
1/2-x,y,1/2-z
1/2-x,1/2-y,1/2-z
1/2+x,y,1/2-z
1/2-x,1/2+y,1/2+z
1/2+x,-y,1/2+z
loop_
_atom_site_type_symbol
_atom_site_label
_atom_site_fract_x
_atom_site_fract_y
_atom_site_fract_z
Si Si1 0.500000 0.581628 0.516252
Si Si2 0.800943 0.250000 0.951725
Si Si3 0.202124 0.644837 0.302688
Si Si4 0.500000 0.012508 0.575850
Si Si5 0.807463 0.639951 0.477963
Si Si6 0.699980 0.074099 0.885905
Si Si7 0.293099 0.750000 0.155839
O O1 0.500000 0.548103 0.564141
O O2 0.500000 0.544199 0.472032
O O3 0.671131 0.616975 0.515250
O O4 0.709607 0.299175 0.974311
O O5 0.785964 0.250000 0.895763
O O6 0.000000 0.250000 0.966461
O O7 0.250000 0.628853 0.250000
O O8 0.267435 0.600363 0.337721
O O9 0.280480 0.700368 0.316265
O O10 0.000000 0.649359 0.309493
O O11 0.674885 0.025643 0.604841
O O12 0.775489 0.616601 0.426279
O O13 0.000000 0.626087 0.496040
O O14 0.500000 0.055252 0.883089
O O15 0.500000 0.750000 0.151923
#
# Coordination Sequence:
#
# PCOD8297653 Si02
#       7
#     8   8  16   8  16  16   8
#     4   9  18  31  42  68  78  97 134 169 216 264
#     4  12  20  27  43  63  82 110 145 175 202 263
#     4  10  20  30  41  56  79 104 140 183 221 267
#     4   9  18  30  48  58  84  98 124 178 218 265
#     4  10  18  30  45  59  84 108 133 169 210 248
#     4   9  18  30  44  61  76 105 138 168 217 267
#     4  10  19  31  41  54  76 107 143 178 223 264
#
# _framework density 14.009722
#
# number of rings (size 3 to 8) (size 9 to 14) (size 15 to 20)
#    0.000    2.200    3.000    1.200    1.400    1.600 
#    0.000    4.000    0.000    0.000    0.000    0.000 
#    0.000    0.000    0.000    0.000    0.000    0.000 
#
# Total GULP energy -495934.497478 kJ/mol
# GULP energy per Si atom -12398.362437 kJ/mol
# Density = 1.397783 g / cm^3
# Si number density = 14.009722 Si / 1000 Ang^3
#
#
#
# Elastic Constant Matrix: (Units=GPa)
#
#
# Indices 1 2 3 4 5 6 
#
# 1 84.5089 39.4156 30.7650 0.0000 0.0000 0.0000
# 2 39.4156 79.3360 48.9988 0.0000 0.0000 0.0000
# 3 30.7650 48.9988 54.7331 0.0000 0.0000 0.0000
# 4 0.0000 0.0000 0.0000 22.4392 0.0000 0.0000
# 5 0.0000 0.0000 0.0000 0.0000 16.2205 0.0000
# 6 0.0000 0.0000 0.0000 0.0000 0.0000 16.3674
#
#
#
# Elastic Compliance Matrix: (Units=1/GPa)
#
#
# Indices 1 2 3 4 5 6 
#
# 1 0.015812 -0.005293 -0.004149 0.000000 0.000000 0.000000
# 2 -0.005293 0.029964 -0.023850 0.000000 0.000000 0.000000
# 3 -0.004149 -0.023850 0.041954 0.000000 0.000000 0.000000
# 4 0.000000 0.000000 0.000000 0.044565 0.000000 0.000000
# 5 0.000000 0.000000 0.000000 0.000000 0.061650 0.000000
# 6 0.000000 0.000000 0.000000 0.000000 0.000000 0.061097
#
#
# Mechanical properties :
#
#
# Convention : Reuss Voigt Hill
#
# Bulk Modulus (GPa) = 47.29041 50.77076 49.03058
# Shear Modulus (GPa) = 15.21258 17.63200 16.42229
#
# Velocity S-wave (km/s) = 3.29881 3.55146 3.42746
# Velocity P-wave (km/s) = 6.95257 7.28941 7.12298
#
# Compressibility (1/GPa) = 0.02114594
#
# Stress axis : x y z
#
# Youngs Moduli (GPa) = 63.24134 33.37323 23.83580
#
# Poissons Ratio (x) = 0.17665 0.09890
# Poissons Ratio (y) = 0.33475 0.56847
# Poissons Ratio (z) = 0.26241 0.79594
#
# Static dielectric constant tensor:
#      x y z
#    x 2.904060 0.000000 0.000000 
#    y 0.000000 2.741500 0.000000 
#    z 0.000000 0.000000 2.334220 
# 
# 
# High freq. dielectric constant tensor:
#      x y z
#    x 1.551360 0.000000 0.000000 
#    y 0.000000 1.508740 0.000000 
#    z 0.000000 0.000000 1.485850 
# 
# From -- ./inp_files/61374.got.cif
#   From: 2010.03.12/outbox.cif.g09.slc.cpg/sg74_31_cif.got.tgz:61374.got - 2010.04.16 15:46:19.
