data_PCOD8297716
_publ_section_title
;
Structure prediction by ZEFSAII (Michael W. Deem and Ramdas Pophale) SiO2 
 PCOD8297716
Probable space group: I M M A
;
_chemical_formula_sum "Si O2"
_cell_formula_units_Z 112
_cell_length_a 25.154804
_cell_length_b 9.284136
_cell_length_c 28.985135
_cell_angle_alpha 90.000000
_cell_angle_beta 90.000000
_cell_angle_gamma 90.000000
_cell_volume 6769.206439
_symmetry_space_group_name_H-M "I M M A"
_symmetry_group_IT_number 74
_symmetry_cell_setting 'orthorhombic'
loop_
_space_group_symop_operation_xyz
x,y,z
-x,1/2-y,z
x,-y,-z
-x,1/2+y,-z
-x,-y,-z
x,1/2+y,-z
-x,y,z
x,1/2-y,z
1/2+x,1/2+y,1/2+z
1/2-x,-y,1/2+z
1/2+x,1/2-y,1/2-z
1/2-x,y,1/2-z
1/2-x,1/2-y,1/2-z
1/2+x,y,1/2-z
1/2-x,1/2+y,1/2+z
1/2+x,-y,1/2+z
loop_
_atom_site_type_symbol
_atom_site_label
_atom_site_fract_x
_atom_site_fract_y
_atom_site_fract_z
Si Si1 0.354384 0.080149 0.641814
Si Si2 0.561886 0.082552 0.302320
Si Si3 0.808094 0.083375 0.955614
Si Si4 0.814942 0.918145 0.455217
Si Si5 0.060779 0.917475 0.290010
Si Si6 0.748163 0.078600 0.698147
Si Si7 0.651654 0.079532 0.857441
O O1 0.364424 0.250000 0.647481
O O2 0.341920 0.039144 0.589051
O O3 0.305828 0.027559 0.673799
O O4 0.406654 0.992948 0.656203
O O5 0.500000 0.058331 0.312562
O O6 0.576604 0.250000 0.299457
O O7 0.578247 0.008598 0.254249
O O8 0.814537 0.250000 0.966580
O O9 0.746703 0.044650 0.946274
O O10 0.830599 0.000000 0.000000
O O11 0.823599 0.750000 0.463729
O O12 0.847282 0.974772 0.410399
O O13 0.837143 0.000000 0.500000
O O14 0.070335 0.750000 0.277960
O O15 0.096640 0.966888 0.333259
O O16 0.000000 0.947912 0.303939
O O17 0.750983 0.250000 0.698239
O O18 0.750000 0.017238 0.750000
O O19 0.798643 0.014035 0.670785
O O20 0.658213 0.250000 0.858201
#
# Coordination Sequence:
#
# PCOD8297716 Si02
#       7
#    16  16  16  16  16  16  16
#     4  10  18  30  49  72  93 118 157 197 228 270
#     4  10  21  35  49  67  94 127 157 187 230 280
#     4   9  17  29  46  69  95 121 153 191 231 278
#     4   9  16  28  45  66  93 123 156 191 230 278
#     4   9  17  30  50  73  92 118 162 205 233 264
#     4   9  15  23  40  67  94 119 147 182 229 278
#     4   9  15  26  45  69  95 122 153 194 237 275
#
# _framework density 16.545514000000001
#
# number of rings (size 3 to 8) (size 9 to 14) (size 15 to 20)
#    0.000    2.714    1.429    1.286    0.000    3.714 
#    0.000    0.714    0.000    4.714    0.000    0.000 
#    0.000    0.000    0.000    0.000    0.000    0.000 
#
# Total GULP energy -694351.175580 kJ/mol
# GULP energy per Si atom -12399.128135 kJ/mol
# Density = 1.650786 g / cm^3
# Si number density = 16.545514 Si / 1000 Ang^3
#
#
#
# Elastic Constant Matrix: (Units=GPa)
#
#
# Indices 1 2 3 4 5 6 
#
# 1 77.0097 34.6412 66.5869 0.0000 0.0000 0.0000
# 2 34.6412 46.3224 51.7522 0.0000 0.0000 0.0000
# 3 66.5869 51.7522 162.8015 0.0000 0.0000 0.0000
# 4 0.0000 0.0000 0.0000 25.0698 0.0000 0.0000
# 5 0.0000 0.0000 0.0000 0.0000 26.0193 0.0000
# 6 0.0000 0.0000 0.0000 0.0000 0.0000 14.3401
#
#
#
# Elastic Compliance Matrix: (Units=1/GPa)
#
#
# Indices 1 2 3 4 5 6 
#
# 1 0.022885 -0.010323 -0.006079 0.000000 0.000000 0.000000
# 2 -0.010323 0.038134 -0.007900 0.000000 0.000000 0.000000
# 3 -0.006079 -0.007900 0.011140 0.000000 0.000000 0.000000
# 4 0.000000 0.000000 0.000000 0.039889 0.000000 0.000000
# 5 0.000000 0.000000 0.000000 0.000000 0.038433 0.000000
# 6 0.000000 0.000000 0.000000 0.000000 0.000000 0.069734
#
#
# Mechanical properties :
#
#
# Convention : Reuss Voigt Hill
#
# Bulk Modulus (GPa) = 42.45296 65.78826 54.12061
# Shear Modulus (GPa) = 18.07216 21.96274 20.01745
#
# Velocity S-wave (km/s) = 3.30854 3.64732 3.48205
# Velocity P-wave (km/s) = 6.34895 7.58852 6.99624
#
# Compressibility (1/GPa) = 0.02355548
#
# Stress axis : x y z
#
# Youngs Moduli (GPa) = 43.69730 26.22361 89.76744
#
# Poissons Ratio (x) = 0.27070 0.54565
# Poissons Ratio (y) = 0.45108 0.70916
# Poissons Ratio (z) = 0.26561 0.20717
#
# Static dielectric constant tensor:
#      x y z
#    x 3.021250 0.000000 0.000000 
#    y 0.000000 2.841960 0.000000 
#    z 0.000000 0.000000 3.288040 
# 
# 
# High freq. dielectric constant tensor:
#      x y z
#    x 1.620740 0.000000 0.000000 
#    y 0.000000 1.604890 0.000000 
#    z 0.000000 0.000000 1.643120 
# 
# From -- ./inp_files/62046.got.cif
#   From: 2010.03.12/outbox.cif.g09.slc.cpg/sg74_32_cif.got.tgz:62046.got - 2010.04.16 15:46:19.
