data_PCOD8297253
_publ_section_title
;
Structure prediction by ZEFSAII (Michael W. Deem and Ramdas Pophale) SiO2 
 PCOD8297253
Probable space group: I M M A
;
_chemical_formula_sum "Si O2"
_cell_formula_units_Z 96
_cell_length_a 22.077744
_cell_length_b 13.849412
_cell_length_c 19.934738
_cell_angle_alpha 90.000000
_cell_angle_beta 90.000000
_cell_angle_gamma 90.000000
_cell_volume 6095.320698
_symmetry_space_group_name_H-M "I M M A"
_symmetry_group_IT_number 74
_symmetry_cell_setting 'orthorhombic'
loop_
_space_group_symop_operation_xyz
x,y,z
-x,1/2-y,z
x,-y,-z
-x,1/2+y,-z
-x,-y,-z
x,1/2+y,-z
-x,y,z
x,1/2-y,z
1/2+x,1/2+y,1/2+z
1/2-x,-y,1/2+z
1/2+x,1/2-y,1/2-z
1/2-x,y,1/2-z
1/2-x,1/2-y,1/2-z
1/2+x,y,1/2-z
1/2-x,1/2+y,1/2+z
1/2+x,-y,1/2+z
loop_
_atom_site_type_symbol
_atom_site_label
_atom_site_fract_x
_atom_site_fract_y
_atom_site_fract_z
Si Si1 0.069218 0.359403 0.881289
Si Si2 0.785659 0.031806 0.391010
Si Si3 0.634971 0.641951 0.513536
Si Si4 0.768337 0.139641 0.522550
Si Si5 0.149087 0.970289 0.854762
Si Si6 0.820343 0.141621 0.268745
O O1 0.083382 0.250000 0.857778
O O2 0.112933 0.430834 0.839866
O O3 0.000000 0.387147 0.866773
O O4 0.080311 0.368180 0.961336
O O5 0.786383 0.117041 0.446039
O O6 0.720185 0.011972 0.359561
O O7 0.829963 0.068776 0.332054
O O8 0.804763 0.929964 0.425712
O O9 0.641658 0.750000 0.542421
O O10 0.696463 0.615799 0.472474
O O11 0.622513 0.572678 0.576062
O O12 0.783982 0.250000 0.540230
O O13 0.138733 0.897811 0.792438
O O14 0.842641 0.250000 0.286541
O O15 0.750000 0.145931 0.250000
#
# Coordination Sequence:
#
# PCOD8297253 Si02
#       6
#    16  16  16  16  16  16
#     4  10  20  31  42  57  79 108 143 184 223 250
#     4   9  16  25  39  60  80 106 139 169 204 247
#     4   9  16  26  40  57  76 102 138 176 214 248
#     4   9  15  24  39  57  81 108 135 168 202 240
#     4  10  17  27  41  57  77 106 139 174 211 252
#     4   9  17  28  41  58  80 103 132 169 208 251
#
# _framework density 15.749787
#
# number of rings (size 3 to 8) (size 9 to 14) (size 15 to 20)
#    0.000    2.667    1.667    1.500    0.000    5.333 
#    0.000    0.833    0.000    4.500    0.000    0.000 
#    0.000    0.000    0.000    3.000    0.000   11.333 
#
# Total GULP energy -594905.966082 kJ/mol
# GULP energy per Si atom -12393.874293 kJ/mol
# Density = 1.571394 g / cm^3
# Si number density = 15.749787 Si / 1000 Ang^3
#
#
#
# Elastic Constant Matrix: (Units=GPa)
#
#
# Indices 1 2 3 4 5 6 
#
# 1 20.5793 25.4796 18.3102 0.0000 0.0000 0.0000
# 2 25.4796 123.0410 44.6627 0.0000 0.0000 0.0000
# 3 18.3102 44.6627 63.4859 0.0000 0.0000 0.0000
# 4 0.0000 0.0000 0.0000 26.2302 0.0000 0.0000
# 5 0.0000 0.0000 0.0000 0.0000 10.9848 0.0000
# 6 0.0000 0.0000 0.0000 0.0000 0.0000 14.1302
#
#
#
# Elastic Compliance Matrix: (Units=1/GPa)
#
#
# Indices 1 2 3 4 5 6 
#
# 1 0.073713 -0.010136 -0.014129 0.000000 0.000000 0.000000
# 2 -0.010136 0.012308 -0.005736 0.000000 0.000000 0.000000
# 3 -0.014129 -0.005736 0.023862 0.000000 0.000000 0.000000
# 4 0.000000 0.000000 0.000000 0.038124 0.000000 0.000000
# 5 0.000000 0.000000 0.000000 0.000000 0.091035 0.000000
# 6 0.000000 0.000000 0.000000 0.000000 0.000000 0.070770
#
#
# Mechanical properties :
#
#
# Convention : Reuss Voigt Hill
#
# Bulk Modulus (GPa) = 20.04749 42.66791 31.35770
# Shear Modulus (GPa) = 12.93857 18.17928 15.55892
#
# Velocity S-wave (km/s) = 2.86930 3.40112 3.14647
# Velocity P-wave (km/s) = 4.87171 6.52483 5.75791
#
# Compressibility (1/GPa) = 0.04988157
#
# Stress axis : x y z
#
# Youngs Moduli (GPa) = 13.56610 81.24584 41.90829
#
# Poissons Ratio (x) = 0.82350 0.59213
# Poissons Ratio (y) = 0.13751 0.24037
# Poissons Ratio (z) = 0.19168 0.46600
#
# Static dielectric constant tensor:
#      x y z
#    x 2.429540 0.000000 0.000000 
#    y 0.000000 3.255910 0.000000 
#    z 0.000000 0.000000 2.947020 
# 
# 
# High freq. dielectric constant tensor:
#      x y z
#    x 1.527420 0.000000 0.000000 
#    y 0.000000 1.625830 0.000000 
#    z 0.000000 0.000000 1.586200 
# 
# From -- ./inp_files/53970.got.cif
#   From: 2010.03.12/outbox.cif.g09.slc.cpg/sg74_27_cif.got.tgz:53970.got - 2010.04.16 15:46:19.
