data_PCOD8297691
_publ_section_title
;
Structure prediction by ZEFSAII (Michael W. Deem and Ramdas Pophale) SiO2 
 PCOD8297691
Probable space group: I M M A
;
_chemical_formula_sum "Si O2"
_cell_formula_units_Z 72
_cell_length_a 8.869600
_cell_length_b 15.239588
_cell_length_c 29.183621
_cell_angle_alpha 90.000000
_cell_angle_beta 90.000000
_cell_angle_gamma 90.000000
_cell_volume 3944.722318
_symmetry_space_group_name_H-M "I M M A"
_symmetry_group_IT_number 74
_symmetry_cell_setting 'orthorhombic'
loop_
_space_group_symop_operation_xyz
x,y,z
-x,1/2-y,z
x,-y,-z
-x,1/2+y,-z
-x,-y,-z
x,1/2+y,-z
-x,y,z
x,1/2-y,z
1/2+x,1/2+y,1/2+z
1/2-x,-y,1/2+z
1/2+x,1/2-y,1/2-z
1/2-x,y,1/2-z
1/2-x,1/2-y,1/2-z
1/2+x,y,1/2-z
1/2-x,1/2+y,1/2+z
1/2+x,-y,1/2+z
loop_
_atom_site_type_symbol
_atom_site_label
_atom_site_fract_x
_atom_site_fract_y
_atom_site_fract_z
Si Si1 0.177186 0.150107 0.451666
Si Si2 0.174230 0.923797 0.797860
Si Si3 0.326692 0.993747 0.607934
Si Si4 0.677508 0.348260 0.546648
Si Si5 0.820017 0.750000 0.699858
O O1 0.225914 0.250000 0.439635
O O2 0.231349 0.086515 0.411724
O O3 0.248152 0.119453 0.499636
O O4 0.000000 0.142717 0.456439
O O5 0.250000 0.953718 0.750000
O O6 0.191985 0.998820 0.836664
O O7 0.255010 0.839339 0.821648
O O8 0.000000 0.902103 0.787431
O O9 0.500000 0.976304 0.594809
O O10 0.271094 0.086373 0.587218
O O11 0.500000 0.350457 0.539393
O O12 0.732397 0.250000 0.559579
O O13 0.750000 0.750000 0.750000
O O14 0.000000 0.750000 0.697957
#
# Coordination Sequence:
#
# PCOD8297691 Si02
#       5
#    16  16  16  16   8
#     4  10  21  34  49  75 108 137 165 201 247 299
#     4  10  20  34  50  71  99 131 167 207 248 294
#     4  10  21  34  52  76 100 131 172 210 247 296
#     4   9  18  35  56  75  98 131 169 209 252 297
#     4  10  18  30  48  68  94 128 164 198 240 292
#
# _framework density 18.252236
#
# number of rings (size 3 to 8) (size 9 to 14) (size 15 to 20)
#    0.000    2.222    0.000    4.333    1.556    6.667 
#    0.000    0.000    0.000    0.667    0.000    0.000 
#    0.000    0.000    0.000    0.000    0.000    0.889 
#
# Total GULP energy -446253.560421 kJ/mol
# GULP energy per Si atom -12395.932234 kJ/mol
# Density = 1.821069 g / cm^3
# Si number density = 18.252236 Si / 1000 Ang^3
#
#
#
# Elastic Constant Matrix: (Units=GPa)
#
#
# Indices 1 2 3 4 5 6 
#
# 1 71.8720 26.3601 33.5658 0.0000 0.0000 0.0000
# 2 26.3601 77.9338 58.8380 0.0000 0.0000 0.0000
# 3 33.5658 58.8380 111.7553 0.0000 0.0000 0.0000
# 4 0.0000 0.0000 0.0000 29.2792 0.0000 0.0000
# 5 0.0000 0.0000 0.0000 0.0000 21.6014 0.0000
# 6 0.0000 0.0000 0.0000 0.0000 0.0000 17.8369
#
#
#
# Elastic Compliance Matrix: (Units=1/GPa)
#
#
# Indices 1 2 3 4 5 6 
#
# 1 0.016616 -0.003074 -0.003372 0.000000 0.000000 0.000000
# 2 -0.003074 0.021865 -0.010588 0.000000 0.000000 0.000000
# 3 -0.003372 -0.010588 0.015536 0.000000 0.000000 0.000000
# 4 0.000000 0.000000 0.000000 0.034154 0.000000 0.000000
# 5 0.000000 0.000000 0.000000 0.000000 0.046293 0.000000
# 6 0.000000 0.000000 0.000000 0.000000 0.000000 0.056064
#
#
# Mechanical properties :
#
#
# Convention : Reuss Voigt Hill
#
# Bulk Modulus (GPa) = 50.13226 55.45433 52.79330
# Shear Modulus (GPa) = 21.62194 23.26329 22.44262
#
# Velocity S-wave (km/s) = 3.44556 3.57395 3.51034
# Velocity P-wave (km/s) = 6.58447 6.89050 6.73922
#
# Compressibility (1/GPa) = 0.01994723
#
# Stress axis : x y z
#
# Youngs Moduli (GPa) = 60.18291 45.73459 64.36815
#
# Poissons Ratio (x) = 0.14061 0.21705
# Poissons Ratio (y) = 0.18502 0.68156
# Poissons Ratio (z) = 0.20294 0.48426
#
# Static dielectric constant tensor:
#      x y z
#    x 3.380760 0.000000 0.000000 
#    y 0.000000 3.906640 0.000000 
#    z 0.000000 0.000000 3.307510 
# 
# 
# High freq. dielectric constant tensor:
#      x y z
#    x 1.711820 0.000000 0.000000 
#    y 0.000000 1.688470 0.000000 
#    z 0.000000 0.000000 1.701870 
# 
# From -- ./inp_files/66763.got.cif
#   From: 2010.03.12/outbox.cif.g09.slc.cpg/sg74_34_cif.got.tgz:66763.got - 2010.04.16 15:46:19.
