data_PCOD8297778
_publ_section_title
;
Structure prediction by ZEFSAII (Michael W. Deem and Ramdas Pophale) SiO2 
 PCOD8297778
Probable space group: I M M A
;
_chemical_formula_sum "Si O2"
_cell_formula_units_Z 64
_cell_length_a 20.628596
_cell_length_b 17.682470
_cell_length_c 8.809809
_cell_angle_alpha 90.000000
_cell_angle_beta 90.000000
_cell_angle_gamma 90.000000
_cell_volume 3213.505839
_symmetry_space_group_name_H-M "I M M A"
_symmetry_group_IT_number 74
_symmetry_cell_setting 'orthorhombic'
loop_
_space_group_symop_operation_xyz
x,y,z
-x,1/2-y,z
x,-y,-z
-x,1/2+y,-z
-x,-y,-z
x,1/2+y,-z
-x,y,z
x,1/2-y,z
1/2+x,1/2+y,1/2+z
1/2-x,-y,1/2+z
1/2+x,1/2-y,1/2-z
1/2-x,y,1/2-z
1/2-x,1/2-y,1/2-z
1/2+x,y,1/2-z
1/2-x,1/2+y,1/2+z
1/2+x,-y,1/2+z
loop_
_atom_site_type_symbol
_atom_site_label
_atom_site_fract_x
_atom_site_fract_y
_atom_site_fract_z
Si Si1 0.000000 0.585730 0.946405
Si Si2 0.252604 0.420656 0.572621
Si Si3 0.000000 0.663661 0.633652
Si Si4 0.630032 0.837569 0.559646
Si Si5 0.359761 0.163918 0.087644
O O1 0.000000 0.600520 0.765257
O O2 0.933567 0.621959 0.009542
O O3 0.000000 0.500000 0.000000
O O4 0.272065 0.500000 0.500000
O O5 0.250000 0.432278 0.750000
O O6 0.307509 0.359886 0.536411
O O7 0.183630 0.392551 0.509606
O O8 0.934883 0.654109 0.533343
O O9 0.000000 0.750000 0.704850
O O10 0.617307 0.750000 0.539901
O O11 0.643818 0.858204 0.735133
O O12 0.335797 0.250000 0.062377
#
# Coordination Sequence:
#
# PCOD8297778 Si02
#       5
#     8  16   8  16  16
#     4  10  18  30  55  88 119 151 189 231 275 328
#     4  12  25  39  56  81 114 150 191 239 289 341
#     4   8  16  34  60  86 113 147 188 229 275 338
#     4  10  20  37  60  85 115 152 192 232 281 339
#     4   9  18  36  62  87 112 147 188 230 278 337
#
# _framework density 19.915942000000001
#
# number of rings (size 3 to 8) (size 9 to 14) (size 15 to 20)
#    0.000    2.000    0.000    6.375    0.000    6.000 
#    0.000    1.875    0.000    3.000    0.000    0.000 
#    0.000    0.000    0.000    0.000    0.000    0.000 
#
# Total GULP energy -396725.581458 kJ/mol
# GULP energy per Si atom -12397.674421 kJ/mol
# Density = 1.987061 g / cm^3
# Si number density = 19.915942 Si / 1000 Ang^3
#
#
#
# Elastic Constant Matrix: (Units=GPa)
#
#
# Indices 1 2 3 4 5 6 
#
# 1 148.0091 49.5425 44.3055 0.0000 0.0000 0.0000
# 2 49.5425 106.3501 48.3640 0.0000 0.0000 0.0000
# 3 44.3055 48.3640 87.4062 0.0000 0.0000 0.0000
# 4 0.0000 0.0000 0.0000 23.5911 0.0000 0.0000
# 5 0.0000 0.0000 0.0000 0.0000 5.1823 0.0000
# 6 0.0000 0.0000 0.0000 0.0000 0.0000 32.5974
#
#
#
# Elastic Compliance Matrix: (Units=1/GPa)
#
#
# Indices 1 2 3 4 5 6 
#
# 1 0.008498 -0.002672 -0.002829 0.000000 0.000000 0.000000
# 2 -0.002672 0.013405 -0.006063 0.000000 0.000000 0.000000
# 3 -0.002829 -0.006063 0.016229 0.000000 0.000000 0.000000
# 4 0.000000 0.000000 0.000000 0.042389 0.000000 0.000000
# 5 0.000000 0.000000 0.000000 0.000000 0.192963 0.000000
# 6 0.000000 0.000000 0.000000 0.000000 0.000000 0.030677
#
#
# Mechanical properties :
#
#
# Convention : Reuss Voigt Hill
#
# Bulk Modulus (GPa) = 66.64685 69.57661 68.11173
# Shear Modulus (GPa) = 15.04709 25.57771 20.31240
#
# Velocity S-wave (km/s) = 2.75167 3.58758 3.19706
# Velocity P-wave (km/s) = 6.60548 7.22301 6.92114
#
# Compressibility (1/GPa) = 0.01500446
#
# Stress axis : x y z
#
# Youngs Moduli (GPa) = 117.68113 74.60015 61.61659
#
# Poissons Ratio (x) = 0.19934 0.17430
# Poissons Ratio (y) = 0.31446 0.37357
# Poissons Ratio (z) = 0.33290 0.45228
#
# Static dielectric constant tensor:
#      x y z
#    x 4.011790 0.000000 0.000000 
#    y 0.000000 3.558790 0.000000 
#    z 0.000000 0.000000 3.257770 
# 
# 
# High freq. dielectric constant tensor:
#      x y z
#    x 1.804320 0.000000 0.000000 
#    y 0.000000 1.777490 0.000000 
#    z 0.000000 0.000000 1.734550 
# 
# From -- ./inp_files/11818.got.cif
#   From: 2010.03.12/outbox.cif.g09.slc.cpg/sg74_6_cif.got.tgz:11818.got - 2010.04.16 15:46:19.
