data_PCOD8297581
_publ_section_title
;
Structure prediction by ZEFSAII (Michael W. Deem and Ramdas Pophale) SiO2 
 PCOD8297581
Probable space group: I M M A
;
_chemical_formula_sum "Si O2"
_cell_formula_units_Z 80
_cell_length_a 12.012636
_cell_length_b 17.552101
_cell_length_c 24.382727
_cell_angle_alpha 90.000000
_cell_angle_beta 90.000000
_cell_angle_gamma 90.000000
_cell_volume 5141.024848
_symmetry_space_group_name_H-M "I M M A"
_symmetry_group_IT_number 74
_symmetry_cell_setting 'orthorhombic'
loop_
_space_group_symop_operation_xyz
x,y,z
-x,1/2-y,z
x,-y,-z
-x,1/2+y,-z
-x,-y,-z
x,1/2+y,-z
-x,y,z
x,1/2-y,z
1/2+x,1/2+y,1/2+z
1/2-x,-y,1/2+z
1/2+x,1/2-y,1/2-z
1/2-x,y,1/2-z
1/2-x,1/2-y,1/2-z
1/2+x,y,1/2-z
1/2-x,1/2+y,1/2+z
1/2+x,-y,1/2+z
loop_
_atom_site_type_symbol
_atom_site_label
_atom_site_fract_x
_atom_site_fract_y
_atom_site_fract_z
Si Si1 0.629554 0.895797 0.099159
Si Si2 0.263084 0.031448 0.438627
Si Si3 0.721353 0.162258 0.691515
Si Si4 0.000000 0.012164 0.935886
Si Si5 0.000000 0.658698 0.131059
Si Si6 0.627368 0.837487 0.979761
O O1 0.500000 0.906235 0.108619
O O2 0.677309 0.848342 0.149742
O O3 0.656965 0.850053 0.043544
O O4 0.684747 0.979039 0.098781
O O5 0.210445 0.115876 0.440088
O O6 0.262966 0.000000 0.500000
O O7 0.388161 0.029456 0.413233
O O8 0.701562 0.250000 0.703219
O O9 0.750000 0.122024 0.750000
O O10 0.606514 0.131869 0.665903
O O11 0.000000 0.103562 0.922654
O O12 0.000000 0.000000 0.000000
O O13 0.000000 0.750000 0.115229
O O14 0.500000 0.863759 0.969309
O O15 0.644732 0.750000 0.964622
#
# Coordination Sequence:
#
# PCOD8297581 Si02
#       6
#    16  16  16   8   8  16
#     4  10  18  29  46  65  87 118 153 191 230 273
#     4   9  17  29  44  63  88 118 152 188 230 275
#     4  10  21  33  46  65  90 121 158 198 234 270
#     4  10  18  32  46  66  90 126 164 195 230 281
#     4  10  20  36  52  66  92 134 169 197 238 283
#     4   9  17  29  45  66  91 119 152 188 230 277
#
# _framework density 15.561099
#
# number of rings (size 3 to 8) (size 9 to 14) (size 15 to 20)
#    0.000    2.400    2.000    1.200    1.400    3.600 
#    0.000    0.500    0.000    0.000    0.000    0.000 
#    0.000    0.800    0.000    1.400    0.000    0.000 
#
# Total GULP energy -495755.596944 kJ/mol
# GULP energy per Si atom -12393.889924 kJ/mol
# Density = 1.552568 g / cm^3
# Si number density = 15.561099 Si / 1000 Ang^3
#
#
#
# Elastic Constant Matrix: (Units=GPa)
#
#
# Indices 1 2 3 4 5 6 
#
# 1 115.3209 35.8904 24.0651 0.0000 0.0000 0.0000
# 2 35.8904 67.3591 19.5563 0.0000 0.0000 0.0000
# 3 24.0651 19.5563 42.0537 0.0000 0.0000 0.0000
# 4 0.0000 0.0000 0.0000 15.8726 0.0000 0.0000
# 5 0.0000 0.0000 0.0000 0.0000 17.1968 0.0000
# 6 0.0000 0.0000 0.0000 0.0000 0.0000 26.3902
#
#
#
# Elastic Compliance Matrix: (Units=1/GPa)
#
#
# Indices 1 2 3 4 5 6 
#
# 1 0.010979 -0.004654 -0.004119 0.000000 0.000000 0.000000
# 2 -0.004654 0.019136 -0.006235 0.000000 0.000000 0.000000
# 3 -0.004119 -0.006235 0.029036 0.000000 0.000000 0.000000
# 4 0.000000 0.000000 0.000000 0.063002 0.000000 0.000000
# 5 0.000000 0.000000 0.000000 0.000000 0.058150 0.000000
# 6 0.000000 0.000000 0.000000 0.000000 0.000000 0.037893
#
#
# Mechanical properties :
#
#
# Convention : Reuss Voigt Hill
#
# Bulk Modulus (GPa) = 34.32358 42.63969 38.48163
# Shear Modulus (GPa) = 19.38556 21.57339 20.47948
#
# Velocity S-wave (km/s) = 3.53338 3.72743 3.63170
# Velocity P-wave (km/s) = 6.22507 6.78130 6.50913
#
# Compressibility (1/GPa) = 0.02913449
#
# Stress axis : x y z
#
# Youngs Moduli (GPa) = 91.07923 52.25732 34.44050
#
# Poissons Ratio (x) = 0.24322 0.14184
# Poissons Ratio (y) = 0.42392 0.21475
# Poissons Ratio (z) = 0.37511 0.32585
#
# Static dielectric constant tensor:
#      x y z
#    x 3.444020 0.000000 0.000000 
#    y 0.000000 2.884010 0.000000 
#    z 0.000000 0.000000 2.819990 
# 
# 
# High freq. dielectric constant tensor:
#      x y z
#    x 1.619810 0.000000 0.000000 
#    y 0.000000 1.574540 0.000000 
#    z 0.000000 0.000000 1.553840 
# 
# From -- ./inp_files/50427.got.cif
#   From: 2010.03.12/outbox.cif.g09.slc.cpg/sg74_26_cif.got.tgz:50427.got - 2010.04.16 15:46:19.
