data_PCOD8297667
_publ_section_title
;
Structure prediction by ZEFSAII (Michael W. Deem and Ramdas Pophale) SiO2 
 PCOD8297667
Probable space group: I M M A
;
_chemical_formula_sum "Si O2"
_cell_formula_units_Z 80
_cell_length_a 23.688794
_cell_length_b 8.555213
_cell_length_c 24.374859
_cell_angle_alpha 90.000000
_cell_angle_beta 90.000000
_cell_angle_gamma 90.000000
_cell_volume 4939.874210
_symmetry_space_group_name_H-M "I M M A"
_symmetry_group_IT_number 74
_symmetry_cell_setting 'orthorhombic'
loop_
_space_group_symop_operation_xyz
x,y,z
-x,1/2-y,z
x,-y,-z
-x,1/2+y,-z
-x,-y,-z
x,1/2+y,-z
-x,y,z
x,1/2-y,z
1/2+x,1/2+y,1/2+z
1/2-x,-y,1/2+z
1/2+x,1/2-y,1/2-z
1/2-x,y,1/2-z
1/2-x,1/2-y,1/2-z
1/2+x,y,1/2-z
1/2-x,1/2+y,1/2+z
1/2+x,-y,1/2+z
loop_
_atom_site_type_symbol
_atom_site_label
_atom_site_fract_x
_atom_site_fract_y
_atom_site_fract_z
Si Si1 0.333503 0.933998 0.236705
Si Si2 0.382291 0.065774 0.943574
Si Si3 0.437229 0.435934 0.833247
Si Si4 0.732680 0.567100 0.669112
Si Si5 0.747385 0.934511 0.057012
O O1 0.332416 0.750000 0.248206
O O2 0.394409 0.990625 0.214411
O O3 0.321207 0.025942 0.292999
O O4 0.286718 0.971823 0.190827
O O5 0.386436 0.250000 0.945428
O O6 0.417216 0.997203 0.892194
O O7 0.317558 0.011847 0.937539
O O8 0.408458 0.000000 0.000000
O O9 0.500000 0.499338 0.819994
O O10 0.436562 0.250000 0.836543
O O11 0.745419 0.750000 0.672379
O O12 0.718938 0.513832 0.607224
O O13 0.755219 0.750000 0.059367
O O14 0.772634 0.000000 0.000000
#
# Coordination Sequence:
#
# PCOD8297667 Si02
#       5
#    16  16  16  16  16
#     4  10  18  31  48  66  88 118 154 192 234 278
#     4   9  17  29  43  61  85 116 153 192 228 264
#     4   9  17  30  47  65  87 117 155 196 234 272
#     4  11  20  30  46  68  92 119 150 190 231 278
#     4  10  18  30  46  68  93 122 152 187 230 273
#
# _framework density 16.194742999999999
#
# number of rings (size 3 to 8) (size 9 to 14) (size 15 to 20)
#    0.000    2.200    2.000    4.200    0.000    1.200 
#    0.000    0.000    0.000    4.800    0.000    0.000 
#    0.000    0.800    0.000    2.200    0.000    3.200 
#
# Total GULP energy -495959.558172 kJ/mol
# GULP energy per Si atom -12398.988954 kJ/mol
# Density = 1.615788 g / cm^3
# Si number density = 16.194743 Si / 1000 Ang^3
#
#
#
# Elastic Constant Matrix: (Units=GPa)
#
#
# Indices 1 2 3 4 5 6 
#
# 1 74.4914 12.4955 56.8676 0.0000 0.0000 0.0000
# 2 12.4955 43.4382 24.0083 0.0000 0.0000 0.0000
# 3 56.8676 24.0083 139.9272 0.0000 0.0000 0.0000
# 4 0.0000 0.0000 0.0000 28.8707 0.0000 0.0000
# 5 0.0000 0.0000 0.0000 0.0000 22.9274 0.0000
# 6 0.0000 0.0000 0.0000 0.0000 0.0000 7.6175
#
#
#
# Elastic Compliance Matrix: (Units=1/GPa)
#
#
# Indices 1 2 3 4 5 6 
#
# 1 0.019535 -0.001361 -0.007706 0.000000 0.000000 0.000000
# 2 -0.001361 0.025528 -0.003827 0.000000 0.000000 0.000000
# 3 -0.007706 -0.003827 0.010935 0.000000 0.000000 0.000000
# 4 0.000000 0.000000 0.000000 0.034637 0.000000 0.000000
# 5 0.000000 0.000000 0.000000 0.000000 0.043616 0.000000
# 6 0.000000 0.000000 0.000000 0.000000 0.000000 0.131277
#
#
# Mechanical properties :
#
#
# Convention : Reuss Voigt Hill
#
# Bulk Modulus (GPa) = 33.10036 49.39996 41.25016
# Shear Modulus (GPa) = 16.59003 22.84880 19.71942
#
# Velocity S-wave (km/s) = 3.20411 3.76024 3.49326
# Velocity P-wave (km/s) = 5.84566 7.03011 6.46507
#
# Compressibility (1/GPa) = 0.03021115
#
# Stress axis : x y z
#
# Youngs Moduli (GPa) = 51.18925 39.17297 91.44988
#
# Poissons Ratio (x) = 0.05330 0.70470
# Poissons Ratio (y) = 0.06964 0.34999
# Poissons Ratio (z) = 0.39446 0.14992
#
# Static dielectric constant tensor:
#      x y z
#    x 2.945330 0.000000 0.000000 
#    y 0.000000 2.907670 0.000000 
#    z 0.000000 0.000000 3.295170 
# 
# 
# High freq. dielectric constant tensor:
#      x y z
#    x 1.573520 0.000000 0.000000 
#    y 0.000000 1.617370 0.000000 
#    z 0.000000 0.000000 1.628210 
# 
# From -- ./inp_files/62567.got.cif
#   From: 2010.03.12/outbox.cif.g09.slc.cpg/sg74_32_cif.got.tgz:62567.got - 2010.04.16 15:46:19.
