data_PCOD8297350
_publ_section_title
;
Structure prediction by ZEFSAII (Michael W. Deem and Ramdas Pophale) SiO2 
 PCOD8297350
Probable space group: I M M A
;
_chemical_formula_sum "Si O2"
_cell_formula_units_Z 80
_cell_length_a 15.491530
_cell_length_b 23.554043
_cell_length_c 11.882461
_cell_angle_alpha 90.000000
_cell_angle_beta 90.000000
_cell_angle_gamma 90.000000
_cell_volume 4335.769375
_symmetry_space_group_name_H-M "I M M A"
_symmetry_group_IT_number 74
_symmetry_cell_setting 'orthorhombic'
loop_
_space_group_symop_operation_xyz
x,y,z
-x,1/2-y,z
x,-y,-z
-x,1/2+y,-z
-x,-y,-z
x,1/2+y,-z
-x,y,z
x,1/2-y,z
1/2+x,1/2+y,1/2+z
1/2-x,-y,1/2+z
1/2+x,1/2-y,1/2-z
1/2-x,y,1/2-z
1/2-x,1/2-y,1/2-z
1/2+x,y,1/2-z
1/2-x,1/2+y,1/2+z
1/2+x,-y,1/2+z
loop_
_atom_site_type_symbol
_atom_site_label
_atom_site_fract_x
_atom_site_fract_y
_atom_site_fract_z
Si Si1 0.341750 0.000000 0.000000
Si Si2 0.250000 0.598558 0.750000
Si Si3 0.661746 0.186309 0.818343
Si Si4 0.403695 0.894736 0.357083
Si Si5 0.902409 0.988459 0.741668
Si Si6 0.745048 0.380488 0.007150
O O1 0.402129 0.001977 0.890883
O O2 0.279611 0.946083 0.999081
O O3 0.165002 0.560564 0.771412
O O4 0.257812 0.637929 0.861134
O O5 0.625784 0.250000 0.834289
O O6 0.750000 0.186111 0.750000
O O7 0.594352 0.149095 0.747603
O O8 0.676926 0.158758 0.941032
O O9 0.500000 0.897687 0.407342
O O10 0.340640 0.873488 0.455573
O O11 0.373569 0.955877 0.310839
O O12 0.000000 0.970152 0.774701
#
# Coordination Sequence:
#
# PCOD8297350 Si02
#       6
#     8   8  16  16  16  16
#     4  10  17  30  51  72 106 144 173 208 256 316
#     4  10  22  34  49  74 107 150 178 212 256 316
#     4   9  18  33  53  74  97 129 170 215 263 313
#     4  10  19  31  51  77 103 131 168 219 272 316
#     4  10  19  30  47  75 106 139 176 212 259 318
#     4  10  19  33  52  72 104 140 179 212 261 314
#
# _framework density 18.451165
#
# number of rings (size 3 to 8) (size 9 to 14) (size 15 to 20)
#    0.000    2.200    2.000    2.700    1.400    1.200 
#    0.000    3.000    0.000    0.000    0.000    0.000 
#    0.000    2.000    0.000    0.000    0.000    0.000 
#
# Total GULP energy -495917.163867 kJ/mol
# GULP energy per Si atom -12397.929097 kJ/mol
# Density = 1.840917 g / cm^3
# Si number density = 18.451165 Si / 1000 Ang^3
#
#
#
# Elastic Constant Matrix: (Units=GPa)
#
#
# Indices 1 2 3 4 5 6 
#
# 1 67.5916 12.7797 17.2896 0.0001 0.0000 0.0000
# 2 12.7797 54.3801 35.5736 0.0006 0.0001 0.0001
# 3 17.2896 35.5736 114.5484 0.0018 0.0004 0.0005
# 4 0.0001 0.0006 0.0018 23.0319 0.0002 0.0003
# 5 0.0000 0.0001 0.0004 0.0002 19.1684 0.0000
# 6 0.0000 0.0001 0.0005 0.0003 0.0000 8.4702
#
#
#
# Elastic Compliance Matrix: (Units=1/GPa)
#
#
# Indices 1 2 3 4 5 6 
#
# 1 0.015695 -0.002684 -0.001535 0.000000 0.000000 0.000000
# 2 -0.002684 0.023536 -0.006904 0.000000 0.000000 0.000000
# 3 -0.001535 -0.006904 0.011106 -0.000001 0.000000 0.000000
# 4 0.000000 0.000000 -0.000001 0.043418 0.000000 -0.000001
# 5 0.000000 0.000000 0.000000 0.000000 0.052169 0.000000
# 6 0.000000 0.000000 0.000000 -0.000001 0.000000 0.118060
#
#
# Mechanical properties :
#
#
# Convention : Reuss Voigt Hill
#
# Bulk Modulus (GPa) = 35.60007 40.86733 38.23370
# Shear Modulus (GPa) = 16.91503 21.52594 19.22048
#
# Velocity S-wave (km/s) = 3.03107 3.41932 3.23103
# Velocity P-wave (km/s) = 5.62013 6.14703 5.88948
#
# Compressibility (1/GPa) = 0.02808983
#
# Stress axis : x y z
#
# Youngs Moduli (GPa) = 63.71477 42.48750 90.04281
#
# Poissons Ratio (x) = 0.11404 0.13825
# Poissons Ratio (y) = 0.17101 0.62168
# Poissons Ratio (z) = 0.09783 0.29334
#
# Static dielectric constant tensor:
#      x y z
#    x 3.167290 0.000000 0.000000 
#    y 0.000000 3.254810 0.000000 
#    z 0.000000 0.000000 3.682600 
# 
# 
# High freq. dielectric constant tensor:
#      x y z
#    x 1.708700 0.000000 0.000000 
#    y 0.000000 1.681330 0.000000 
#    z 0.000000 0.000000 1.716440 
# 
# From -- ./inp_files/20550.got.cif
#   From: 2010.03.12/outbox.cif.g09.slc.cpg/sg74_11_cif.got.tgz:20550.got - 2010.04.16 15:46:19.
