data_PCOD8297984
_publ_section_title
;
Structure prediction by ZEFSAII (Michael W. Deem and Ramdas Pophale) SiO2 
 PCOD8297984
Probable space group: I M M A
;
_chemical_formula_sum "Si O2"
_cell_formula_units_Z 64
_cell_length_a 21.057772
_cell_length_b 8.616344
_cell_length_c 18.610623
_cell_angle_alpha 90.000000
_cell_angle_beta 90.000000
_cell_angle_gamma 90.000000
_cell_volume 3376.730186
_symmetry_space_group_name_H-M "I M M A"
_symmetry_group_IT_number 74
_symmetry_cell_setting 'orthorhombic'
loop_
_space_group_symop_operation_xyz
x,y,z
-x,1/2-y,z
x,-y,-z
-x,1/2+y,-z
-x,-y,-z
x,1/2+y,-z
-x,y,z
x,1/2-y,z
1/2+x,1/2+y,1/2+z
1/2-x,-y,1/2+z
1/2+x,1/2-y,1/2-z
1/2-x,y,1/2-z
1/2-x,1/2-y,1/2-z
1/2+x,y,1/2-z
1/2-x,1/2+y,1/2+z
1/2+x,-y,1/2+z
loop_
_atom_site_type_symbol
_atom_site_label
_atom_site_fract_x
_atom_site_fract_y
_atom_site_fract_z
Si Si1 0.000000 0.065848 0.420363
Si Si2 0.256213 0.932528 0.832985
Si Si3 0.636338 0.566574 0.578893
Si Si4 0.500000 0.567503 0.578238
Si Si5 0.370495 0.432806 0.920749
O O1 0.000000 0.250000 0.418422
O O2 0.000000 0.000000 0.500000
O O3 0.935073 0.002301 0.384841
O O4 0.267295 0.750000 0.845058
O O5 0.250000 0.975180 0.750000
O O6 0.191553 0.993967 0.869400
O O7 0.314115 0.025224 0.867240
O O8 0.647108 0.500000 0.500000
O O9 0.639701 0.750000 0.572342
O O10 0.567412 0.514760 0.613539
O O11 0.500000 0.750000 0.572152
O O12 0.500000 0.500000 0.500000
O O13 0.377568 0.250000 0.928238
O O14 0.356839 0.500000 0.000000
#
# Coordination Sequence:
#
# PCOD8297984 Si02
#       5
#     8  16  16   8  16
#     4  10  18  32  55  82 109 135 169 215 267 318
#     4  10  21  36  51  72 105 142 179 219 262 310
#     4   9  17  30  50  73  97 126 163 208 255 305
#     4   8  14  26  45  70  95 119 153 199 249 296
#     4  11  21  35  56  81 108 138 176 220 268 321
#
# _framework density 18.953246
#
# number of rings (size 3 to 8) (size 9 to 14) (size 15 to 20)
#    0.000    2.250    0.000    5.625    0.000    3.500 
#    0.000    1.250    0.000    4.500    0.000    3.500 
#    0.000    0.000    0.000    0.000    0.000    0.000 
#
# Total GULP energy -396507.365419 kJ/mol
# GULP energy per Si atom -12390.855169 kJ/mol
# Density = 1.891011 g / cm^3
# Si number density = 18.953246 Si / 1000 Ang^3
#
#
#
# Elastic Constant Matrix: (Units=GPa)
#
#
# Indices 1 2 3 4 5 6 
#
# 1 215.6231 56.6872 73.0850 0.0000 0.0000 0.0000
# 2 56.6872 94.2075 30.9876 0.0000 0.0000 0.0000
# 3 73.0850 30.9876 83.0644 0.0000 0.0000 0.0000
# 4 0.0000 0.0000 0.0000 20.5426 0.0000 0.0000
# 5 0.0000 0.0000 0.0000 0.0000 10.5390 0.0000
# 6 0.0000 0.0000 0.0000 0.0000 0.0000 -21.3858
#
#
#
# Elastic Compliance Matrix: (Units=1/GPa)
#
#
# Indices 1 2 3 4 5 6 
#
# 1 0.007100 -0.002528 -0.005304 0.000000 0.000000 0.000000
# 2 -0.002528 0.012999 -0.002626 0.000000 0.000000 0.000000
# 3 -0.005304 -0.002626 0.017685 0.000000 0.000000 0.000000
# 4 0.000000 0.000000 0.000000 0.048679 0.000000 0.000000
# 5 0.000000 0.000000 0.000000 0.000000 0.094886 0.000000
# 6 0.000000 0.000000 0.000000 0.000000 0.000000 -0.046760
#
#
# Mechanical properties :
#
#
# Convention : Reuss Voigt Hill
#
# Bulk Modulus (GPa) = 59.27642 79.37939 69.32791
# Shear Modulus (GPa) = 31.03130 17.41485 24.22307
#
# Velocity S-wave (km/s) = 4.05069 3.03451 3.57885
# Velocity P-wave (km/s) = 7.29523 7.36548 7.33044
#
# Compressibility (1/GPa) = 0.01687012
#
# Stress axis : x y z
#
# Youngs Moduli (GPa) = 140.84428 76.92656 56.54454
#
# Poissons Ratio (x) = 0.19444 0.29992
# Poissons Ratio (y) = 0.35600 0.14846
# Poissons Ratio (z) = 0.74705 0.20197
#
# Static dielectric constant tensor:
#      x y z
#    x 4.612580 0.000000 0.000000 
#    y 0.000000 3.458470 0.000000 
#    z 0.000000 0.000000 2.992880 
# 
# 
# High freq. dielectric constant tensor:
#      x y z
#    x 1.772070 0.000000 0.000000 
#    y 0.000000 1.734600 0.000000 
#    z 0.000000 0.000000 1.689780 
# 
# From -- ./inp_files/53613.got.cif
#   From: 2010.03.12/outbox.cif.g09.slc.cpg/sg74_27_cif.got.tgz:53613.got - 2010.04.16 15:46:19.
