data_PCOD8297349
_publ_section_title
;
Structure prediction by ZEFSAII (Michael W. Deem and Ramdas Pophale) SiO2 
 PCOD8297349
Probable space group: I M M A
;
_chemical_formula_sum "Si O2"
_cell_formula_units_Z 72
_cell_length_a 12.249946
_cell_length_b 22.234516
_cell_length_c 17.424584
_cell_angle_alpha 90.000000
_cell_angle_beta 90.000000
_cell_angle_gamma 90.000000
_cell_volume 4745.962178
_symmetry_space_group_name_H-M "I M M A"
_symmetry_group_IT_number 74
_symmetry_cell_setting 'orthorhombic'
loop_
_space_group_symop_operation_xyz
x,y,z
-x,1/2-y,z
x,-y,-z
-x,1/2+y,-z
-x,-y,-z
x,1/2+y,-z
-x,y,z
x,1/2-y,z
1/2+x,1/2+y,1/2+z
1/2-x,-y,1/2+z
1/2+x,1/2-y,1/2-z
1/2-x,y,1/2-z
1/2-x,1/2-y,1/2-z
1/2+x,y,1/2-z
1/2-x,1/2+y,1/2+z
1/2+x,-y,1/2+z
loop_
_atom_site_type_symbol
_atom_site_label
_atom_site_fract_x
_atom_site_fract_y
_atom_site_fract_z
Si Si1 0.319877 0.089967 0.456284
Si Si2 0.000000 0.180913 0.085452
Si Si3 0.623967 0.535147 0.389866
Si Si4 0.000000 0.681724 0.733082
Si Si5 0.879424 0.911648 0.647909
Si Si6 0.250000 0.496481 0.750000
O O1 0.391597 0.149655 0.447332
O O2 0.310835 0.072664 0.545808
O O3 0.198362 0.101419 0.424394
O O4 0.376539 0.035855 0.409367
O O5 0.000000 0.175777 0.176394
O O6 0.000000 0.250000 0.058211
O O7 0.500000 0.558334 0.386272
O O8 0.682261 0.545868 0.308185
O O9 0.108286 0.648971 0.699252
O O10 0.000000 0.750000 0.704948
O O11 0.834370 0.963611 0.702269
O O12 0.000000 0.931191 0.617362
#
# Coordination Sequence:
#
# PCOD8297349 Si02
#       6
#    16   8  16   8  16   8
#     4  10  18  32  47  69  93 129 157 184 236 270
#     4  11  20  29  47  73  93 120 165 198 220 261
#     4  10  17  30  51  67  96 122 153 188 228 291
#     4   9  18  30  43  62  91 131 160 182 216 256
#     4   9  19  30  45  62  97 125 153 189 222 272
#     4  10  18  28  47  72  87 122 148 188 246 268
#
# _framework density 15.170790999999999
#
# number of rings (size 3 to 8) (size 9 to 14) (size 15 to 20)
#    0.667    1.556    2.222    4.000    0.000    0.889 
#    0.000   12.778    0.000    0.000    0.000    0.778 
#    0.000    0.000    0.000    0.000    0.000    0.000 
#
# Total GULP energy -446277.346241 kJ/mol
# GULP energy per Si atom -12396.592951 kJ/mol
# Density = 1.513626 g / cm^3
# Si number density = 15.170791 Si / 1000 Ang^3
#
#
#
# Elastic Constant Matrix: (Units=GPa)
#
#
# Indices 1 2 3 4 5 6 
#
# 1 111.1070 30.5057 47.5810 0.0000 0.0000 0.0000
# 2 30.5057 62.4821 35.5053 0.0000 0.0000 0.0000
# 3 47.5810 35.5053 101.2587 0.0000 0.0000 0.0000
# 4 0.0000 0.0000 0.0000 18.9300 0.0000 0.0000
# 5 0.0000 0.0000 0.0000 0.0000 20.0840 0.0000
# 6 0.0000 0.0000 0.0000 0.0000 0.0000 12.2017
#
#
#
# Elastic Compliance Matrix: (Units=1/GPa)
#
#
# Indices 1 2 3 4 5 6 
#
# 1 0.011774 -0.003253 -0.004392 0.000000 0.000000 0.000000
# 2 -0.003253 0.020886 -0.005795 0.000000 0.000000 0.000000
# 3 -0.004392 -0.005795 0.013971 0.000000 0.000000 0.000000
# 4 0.000000 0.000000 0.000000 0.052826 0.000000 0.000000
# 5 0.000000 0.000000 0.000000 0.000000 0.049791 0.000000
# 6 0.000000 0.000000 0.000000 0.000000 0.000000 0.081956
#
#
# Mechanical properties :
#
#
# Convention : Reuss Voigt Hill
#
# Bulk Modulus (GPa) = 50.62821 55.78130 53.20475
# Shear Modulus (GPa) = 18.89159 20.99352 19.94256
#
# Velocity S-wave (km/s) = 3.53265 3.72400 3.62959
# Velocity P-wave (km/s) = 7.07701 7.43906 7.26029
#
# Compressibility (1/GPa) = 0.01975184
#
# Stress axis : x y z
#
# Youngs Moduli (GPa) = 84.93045 47.87991 71.57455
#
# Poissons Ratio (x) = 0.15574 0.31437
# Poissons Ratio (y) = 0.27626 0.41476
# Poissons Ratio (z) = 0.37303 0.27746
#
# Static dielectric constant tensor:
#      x y z
#    x 2.991620 0.000000 0.000000 
#    y 0.000000 2.685360 0.000000 
#    z 0.000000 0.000000 2.938170 
# 
# 
# High freq. dielectric constant tensor:
#      x y z
#    x 1.586070 0.000000 0.000000 
#    y 0.000000 1.541470 0.000000 
#    z 0.000000 0.000000 1.572620 
# 
# From -- ./inp_files/41400.got.cif
#   From: 2010.03.12/outbox.cif.g09.slc.cpg/sg74_21_cif.got.tgz:41400.got - 2010.04.16 15:46:19.
