data_PCOD8297129
_publ_section_title
;
Structure prediction by ZEFSAII (Michael W. Deem and Ramdas Pophale) SiO2 
 PCOD8297129
Probable space group: I M M A
;
_chemical_formula_sum "Si O2"
_cell_formula_units_Z 64
_cell_length_a 14.089147
_cell_length_b 21.858831
_cell_length_c 10.149445
_cell_angle_alpha 90.000000
_cell_angle_beta 90.000000
_cell_angle_gamma 90.000000
_cell_volume 3125.747750
_symmetry_space_group_name_H-M "I M M A"
_symmetry_group_IT_number 74
_symmetry_cell_setting 'orthorhombic'
loop_
_space_group_symop_operation_xyz
x,y,z
-x,1/2-y,z
x,-y,-z
-x,1/2+y,-z
-x,-y,-z
x,1/2+y,-z
-x,y,z
x,1/2-y,z
1/2+x,1/2+y,1/2+z
1/2-x,-y,1/2+z
1/2+x,1/2-y,1/2-z
1/2-x,y,1/2-z
1/2-x,1/2-y,1/2-z
1/2+x,y,1/2-z
1/2-x,1/2+y,1/2+z
1/2+x,-y,1/2+z
loop_
_atom_site_type_symbol
_atom_site_label
_atom_site_fract_x
_atom_site_fract_y
_atom_site_fract_z
Si Si1 0.389792 0.680483 0.338981
Si Si2 0.702541 0.592077 0.516047
Si Si3 0.392678 0.088532 0.895022
Si Si4 0.608996 0.004384 0.318924
O O1 0.500000 0.673347 0.370637
O O2 0.360659 0.750000 0.308539
O O3 0.334761 0.658650 0.471224
O O4 0.363746 0.640478 0.210757
O O5 0.817643 0.591743 0.514273
O O6 0.664075 0.569454 0.659424
O O7 0.658923 0.545659 0.409881
O O8 0.500000 0.098964 0.948317
O O9 0.384205 0.020605 0.830320
O O10 0.500000 0.012215 0.361028
#
# Coordination Sequence:
#
# PCOD8297129 Si02
#       4
#    16  16  16  16
#     4   9  16  25  38  58  82 107 135 165 197 235
#     4  10  16  25  42  59  79 107 136 164 199 239
#     4   9  18  29  40  57  84 113 137 165 200 239
#     4   9  16  27  42  59  78 103 136 169 204 241
#
# _framework density 20.475100999999999
#
# number of rings (size 3 to 8) (size 9 to 14) (size 15 to 20)
#    0.000    2.750    0.000    7.500    0.000    2.000 
#    0.000    2.500    0.000    4.500    0.000    0.000 
#    0.000   36.000    0.000    9.000    0.000   16.250 
#
# Total GULP energy -396474.561526 kJ/mol
# GULP energy per Si atom -12389.830048 kJ/mol
# Density = 2.042850 g / cm^3
# Si number density = 20.475101 Si / 1000 Ang^3
#
#
#
# Elastic Constant Matrix: (Units=GPa)
#
#
# Indices 1 2 3 4 5 6 
#
# 1 136.5186 48.1233 26.7766 0.0001 0.0000 0.0000
# 2 48.1233 85.5979 12.6945 -0.0001 0.0000 0.0000
# 3 26.7766 12.6945 9.9535 -0.0003 0.0000 0.0001
# 4 0.0001 -0.0001 -0.0003 12.3786 0.0000 0.0001
# 5 0.0000 0.0000 0.0000 0.0000 16.5427 0.0000
# 6 0.0000 0.0000 0.0001 0.0001 0.0000 15.4853
#
#
#
# Elastic Compliance Matrix: (Units=1/GPa)
#
#
# Indices 1 2 3 4 5 6 
#
# 1 0.016215 -0.003264 -0.039457 -0.000001 0.000000 0.000000
# 2 -0.003264 0.015065 -0.010432 0.000000 0.000000 0.000000
# 3 -0.039457 -0.010432 0.219916 0.000006 0.000000 -0.000002
# 4 -0.000001 0.000000 0.000006 0.080785 0.000000 -0.000001
# 5 0.000000 0.000000 0.000000 0.000000 0.060450 0.000000
# 6 0.000000 0.000000 -0.000002 -0.000001 0.000000 0.064577
#
#
# Mechanical properties :
#
#
# Convention : Reuss Voigt Hill
#
# Bulk Modulus (GPa) = 6.90181 45.25099 26.07640
# Shear Modulus (GPa) = 8.17516 18.51303 13.34410
#
# Velocity S-wave (km/s) = 2.00035 3.01021 2.55566
# Velocity P-wave (km/s) = 2.95184 5.85067 4.63377
#
# Compressibility (1/GPa) = 0.14488962
#
# Stress axis : x y z
#
# Youngs Moduli (GPa) = 61.67253 66.37976 4.54720
#
# Poissons Ratio (x) = 0.21669 0.17942
# Poissons Ratio (y) = 0.20132 0.04744
# Poissons Ratio (z) = 2.43339 0.69246
#
# Static dielectric constant tensor:
#      x y z
#    x 3.925850 0.000000 0.000000 
#    y 0.000000 4.086330 0.000000 
#    z 0.000000 0.000000 3.601950 
# 
# 
# High freq. dielectric constant tensor:
#      x y z
#    x 1.826340 0.000000 0.000000 
#    y 0.000000 1.770650 0.000000 
#    z 0.000000 0.000000 1.739730 
# 
# From -- ./inp_files/8818.got.cif
#   From: 2010.03.12/outbox.cif.g09.slc.cpg/sg74_5_cif.got.tgz:8818.got - 2010.04.16 15:46:19.
