data_PCOD8297659
_publ_section_title
;
Structure prediction by ZEFSAII (Michael W. Deem and Ramdas Pophale) SiO2 
 PCOD8297659
Probable space group: I M M A
;
_chemical_formula_sum "Si O2"
_cell_formula_units_Z 104
_cell_length_a 8.803147
_cell_length_b 27.489243
_cell_length_c 23.976686
_cell_angle_alpha 90.000000
_cell_angle_beta 90.000000
_cell_angle_gamma 90.000000
_cell_volume 5802.162531
_symmetry_space_group_name_H-M "I M M A"
_symmetry_group_IT_number 74
_symmetry_cell_setting 'orthorhombic'
loop_
_space_group_symop_operation_xyz
x,y,z
-x,1/2-y,z
x,-y,-z
-x,1/2+y,-z
-x,-y,-z
x,1/2+y,-z
-x,y,z
x,1/2-y,z
1/2+x,1/2+y,1/2+z
1/2-x,-y,1/2+z
1/2+x,1/2-y,1/2-z
1/2-x,y,1/2-z
1/2-x,1/2-y,1/2-z
1/2+x,y,1/2-z
1/2-x,1/2+y,1/2+z
1/2+x,-y,1/2+z
loop_
_atom_site_type_symbol
_atom_site_label
_atom_site_fract_x
_atom_site_fract_y
_atom_site_fract_z
Si Si1 0.179318 0.446239 0.987342
Si Si2 0.181687 0.750000 0.811228
Si Si3 0.672804 0.194441 0.017402
Si Si4 0.674257 0.129508 0.911359
Si Si5 0.824002 0.120543 0.088431
Si Si6 0.821108 0.348165 0.309631
Si Si7 0.319468 0.305595 0.809253
O O1 0.243902 0.420660 0.931071
O O2 0.000000 0.446898 0.979814
O O3 0.243613 0.500000 0.000000
O O4 0.231073 0.417637 0.042410
O O5 0.250000 0.750000 0.750000
O O6 0.248643 0.799257 0.837539
O O7 0.000000 0.750000 0.811698
O O8 0.500000 0.186895 0.038531
O O9 0.715356 0.250000 0.009354
O O10 0.787652 0.173428 0.063127
O O11 0.697515 0.170087 0.957913
O O12 0.500000 0.115486 0.902381
O O13 0.739964 0.154798 0.854941
O O14 0.727376 0.110983 0.145239
O O15 0.000000 0.115551 0.103177
O O16 0.750000 0.361211 0.250000
O O17 0.000000 0.343203 0.302535
O O18 0.500000 0.308044 0.805756
O O19 0.269372 0.250000 0.824664
O O20 0.250000 0.321082 0.750000
#
# Coordination Sequence:
#
# PCOD8297659 Si02
#       7
#    16   8  16  16  16  16  16
#     4   9  19  36  56  76  98 125 159 204 259 310
#     4  10  18  30  46  66  92 126 166 200 231 268
#     4   9  17  29  45  66  95 129 162 197 241 291
#     4   9  17  30  49  73  99 129 166 207 248 294
#     4  10  20  33  49  71  97 125 161 202 246 297
#     4  11  21  34  50  69  96 129 165 201 240 284
#     4   9  17  29  46  71 105 143 178 208 242 287
#
# _framework density 17.924351999999999
#
# number of rings (size 3 to 8) (size 9 to 14) (size 15 to 20)
#    0.000    2.462    0.000    3.923    1.077    3.692 
#    0.000    0.000    0.000    3.692    0.000    2.154 
#    0.000    0.000    0.000    0.000    0.000    0.000 
#
# Total GULP energy -644407.892231 kJ/mol
# GULP energy per Si atom -12392.459466 kJ/mol
# Density = 1.788356 g / cm^3
# Si number density = 17.924352 Si / 1000 Ang^3
#
#
#
# Elastic Constant Matrix: (Units=GPa)
#
#
# Indices 1 2 3 4 5 6 
#
# 1 72.8433 25.5942 39.8226 0.0000 0.0000 0.0000
# 2 25.5942 102.7651 55.2389 0.0000 0.0000 0.0000
# 3 39.8226 55.2389 121.7778 0.0001 0.0000 0.0000
# 4 0.0000 0.0000 0.0001 22.3742 0.0000 0.0000
# 5 0.0000 0.0000 0.0000 0.0000 31.4784 0.0000
# 6 0.0000 0.0000 0.0000 0.0000 0.0000 20.9310
#
#
#
# Elastic Compliance Matrix: (Units=1/GPa)
#
#
# Indices 1 2 3 4 5 6 
#
# 1 0.016923 -0.001640 -0.004790 0.000000 0.000000 0.000000
# 2 -0.001640 0.013028 -0.005373 0.000000 0.000000 0.000000
# 3 -0.004790 -0.005373 0.012215 0.000000 0.000000 0.000000
# 4 0.000000 0.000000 0.000000 0.044694 0.000000 0.000000
# 5 0.000000 0.000000 0.000000 0.000000 0.031768 0.000000
# 6 0.000000 0.000000 0.000000 0.000000 0.000000 0.047776
#
#
# Mechanical properties :
#
#
# Convention : Reuss Voigt Hill
#
# Bulk Modulus (GPa) = 53.88041 59.85529 56.86785
# Shear Modulus (GPa) = 25.48462 26.73876 26.11169
#
# Velocity S-wave (km/s) = 3.77475 3.86652 3.82091
# Velocity P-wave (km/s) = 7.00881 7.30746 7.15970
#
# Compressibility (1/GPa) = 0.01855962
#
# Stress axis : x y z
#
# Youngs Moduli (GPa) = 59.09117 76.76057 81.86439
#
# Poissons Ratio (x) = 0.12588 0.39214
# Poissons Ratio (y) = 0.09691 0.43986
# Poissons Ratio (z) = 0.28305 0.41244
#
# Static dielectric constant tensor:
#      x y z
#    x 3.237820 0.000000 0.000000 
#    y 0.000000 3.540840 0.000000 
#    z 0.000000 0.000000 3.439650 
# 
# 
# High freq. dielectric constant tensor:
#      x y z
#    x 1.689640 0.000000 0.000000 
#    y 0.000000 1.663780 0.000000 
#    z 0.000000 0.000000 1.698730 
# 
# From -- ./inp_files/57576.got.cif
#   From: 2010.03.12/outbox.cif.g09.slc.cpg/sg74_29_cif.got.tgz:57576.got - 2010.04.16 15:46:19.
