data_PCOD8297415
_publ_section_title
;
Structure prediction by ZEFSAII (Michael W. Deem and Ramdas Pophale) SiO2 
 PCOD8297415
Probable space group: I M M A
;
_chemical_formula_sum "Si O2"
_cell_formula_units_Z 80
_cell_length_a 14.638552
_cell_length_b 23.129408
_cell_length_c 11.371831
_cell_angle_alpha 90.000000
_cell_angle_beta 90.000000
_cell_angle_gamma 90.000000
_cell_volume 3850.286386
_symmetry_space_group_name_H-M "I M M A"
_symmetry_group_IT_number 74
_symmetry_cell_setting 'orthorhombic'
loop_
_space_group_symop_operation_xyz
x,y,z
-x,1/2-y,z
x,-y,-z
-x,1/2+y,-z
-x,-y,-z
x,1/2+y,-z
-x,y,z
x,1/2-y,z
1/2+x,1/2+y,1/2+z
1/2-x,-y,1/2+z
1/2+x,1/2-y,1/2-z
1/2-x,y,1/2-z
1/2-x,1/2-y,1/2-z
1/2+x,y,1/2-z
1/2-x,1/2+y,1/2+z
1/2+x,-y,1/2+z
loop_
_atom_site_type_symbol
_atom_site_label
_atom_site_fract_x
_atom_site_fract_y
_atom_site_fract_z
Si Si1 0.280327 0.554758 0.418615
Si Si2 0.105609 0.582397 0.528622
Si Si3 0.899970 0.504976 0.747304
Si Si4 0.898046 0.883142 0.908795
Si Si5 0.608667 0.314404 0.193141
O O1 0.299344 0.500000 0.500000
O O2 0.171929 0.572266 0.415768
O O3 0.322189 0.540450 0.289683
O O4 0.334836 0.608625 0.476861
O O5 0.123923 0.528403 0.616794
O O6 0.138186 0.641764 0.590157
O O7 0.000000 0.584178 0.487936
O O8 0.903718 0.559095 0.832779
O O9 0.000000 0.475082 0.746771
O O10 0.854460 0.834393 0.821735
O O11 0.000000 0.865998 0.951477
O O12 0.500000 0.316942 0.201409
O O13 0.644728 0.250000 0.164659
#
# Coordination Sequence:
#
# PCOD8297415 Si02
#       5
#    16  16  16  16  16
#     4  10  18  26  42  61  82 113 152 185 220 261
#     4   9  18  31  44  62  90 121 154 185 214 258
#     4   8  15  28  44  60  81 113 149 184 221 261
#     4   8  14  24  38  58  81 104 139 181 212 245
#     4   8  14  26  43  60  83 118 151 177 210 256
#
# _framework density 20.777676
#
# number of rings (size 3 to 8) (size 9 to 14) (size 15 to 20)
#    0.000    3.400    0.000    3.000    0.000   10.000 
#    0.000    2.000    0.000    2.400    0.000    0.000 
#    0.000    0.000    0.000   64.800    0.000  478.800 
#
# Total GULP energy -495609.383511 kJ/mol
# GULP energy per Si atom -12390.234588 kJ/mol
# Density = 2.073038 g / cm^3
# Si number density = 20.777676 Si / 1000 Ang^3
#
#
#
# Elastic Constant Matrix: (Units=GPa)
#
#
# Indices 1 2 3 4 5 6 
#
# 1 127.8628 44.4683 55.3084 0.0000 0.0000 0.0000
# 2 44.4683 86.2095 31.2873 0.0000 0.0000 0.0000
# 3 55.3084 31.2873 70.8838 -0.0001 0.0001 0.0000
# 4 0.0000 0.0000 -0.0001 19.1398 0.0000 0.0000
# 5 0.0000 0.0000 0.0001 0.0000 29.4998 0.0000
# 6 0.0000 0.0000 0.0000 0.0000 0.0000 13.0829
#
#
#
# Elastic Compliance Matrix: (Units=1/GPa)
#
#
# Indices 1 2 3 4 5 6 
#
# 1 0.012634 -0.003500 -0.008313 0.000000 0.000000 0.000000
# 2 -0.003500 0.014782 -0.003794 0.000000 0.000000 0.000000
# 3 -0.008313 -0.003794 0.022269 0.000000 0.000000 0.000000
# 4 0.000000 0.000000 0.000000 0.052247 0.000000 0.000000
# 5 0.000000 0.000000 0.000000 0.000000 0.033899 0.000000
# 6 0.000000 0.000000 0.000000 0.000000 0.000000 0.076436
#
#
# Mechanical properties :
#
#
# Convention : Reuss Voigt Hill
#
# Bulk Modulus (GPa) = 54.13889 60.78711 57.46300
# Shear Modulus (GPa) = 20.02917 22.60398 21.31657
#
# Velocity S-wave (km/s) = 3.10816 3.30191 3.20650
# Velocity P-wave (km/s) = 6.24450 6.62241 6.43623
#
# Compressibility (1/GPa) = 0.01847101
#
# Stress axis : x y z
#
# Youngs Moduli (GPa) = 79.15165 67.65116 44.90638
#
# Poissons Ratio (x) = 0.23677 0.37331
# Poissons Ratio (y) = 0.27701 0.17036
# Poissons Ratio (z) = 0.65800 0.25665
#
# Static dielectric constant tensor:
#      x y z
#    x 4.001270 0.000000 0.000000 
#    y 0.000000 3.749560 0.000000 
#    z 0.000000 0.000000 3.791380 
# 
# 
# High freq. dielectric constant tensor:
#      x y z
#    x 1.830810 0.000000 0.000000 
#    y 0.000000 1.760000 0.000000 
#    z 0.000000 0.000000 1.789210 
# 
# From -- ./inp_files/20518.got.cif
#   From: 2010.03.12/outbox.cif.g09.slc.cpg/sg74_11_cif.got.tgz:20518.got - 2010.04.16 15:46:19.
