data_PCOD8297482
_publ_section_title
;
Structure prediction by ZEFSAII (Michael W. Deem and Ramdas Pophale) SiO2 
 PCOD8297482
Probable space group: I M M A
;
_chemical_formula_sum "Si O2"
_cell_formula_units_Z 128
_cell_length_a 17.215190
_cell_length_b 23.485229
_cell_length_c 20.968860
_cell_angle_alpha 90.000000
_cell_angle_beta 90.000000
_cell_angle_gamma 90.000000
_cell_volume 8477.766283
_symmetry_space_group_name_H-M "I M M A"
_symmetry_group_IT_number 74
_symmetry_cell_setting 'orthorhombic'
loop_
_space_group_symop_operation_xyz
x,y,z
-x,1/2-y,z
x,-y,-z
-x,1/2+y,-z
-x,-y,-z
x,1/2+y,-z
-x,y,z
x,1/2-y,z
1/2+x,1/2+y,1/2+z
1/2-x,-y,1/2+z
1/2+x,1/2-y,1/2-z
1/2-x,y,1/2-z
1/2-x,1/2-y,1/2-z
1/2+x,y,1/2-z
1/2-x,1/2+y,1/2+z
1/2+x,-y,1/2+z
loop_
_atom_site_type_symbol
_atom_site_label
_atom_site_fract_x
_atom_site_fract_y
_atom_site_fract_z
Si Si1 0.227663 0.473214 0.597056
Si Si2 0.772367 0.415286 0.026722
Si Si3 0.821481 0.986868 0.792433
Si Si4 0.910747 0.867925 0.684400
Si Si5 0.912106 0.909287 0.890280
Si Si6 0.411744 0.002938 0.824172
Si Si7 0.141983 0.185035 0.186738
Si Si8 0.288515 0.685804 0.896979
O O1 0.255589 0.424748 0.547983
O O2 0.229329 0.535877 0.566468
O O3 0.285562 0.468589 0.657174
O O4 0.138834 0.465598 0.621077
O O5 0.864672 0.418972 0.043788
O O6 0.739941 0.353653 0.045062
O O7 0.750000 0.960486 0.750000
O O8 0.868668 0.939189 0.830940
O O9 0.880766 0.020688 0.746075
O O10 0.901520 0.934940 0.672457
O O11 0.866864 0.849691 0.748288
O O12 0.873275 0.834561 0.625139
O O13 0.000000 0.849786 0.689440
O O14 0.911391 0.843017 0.869132
O O15 0.000000 0.931495 0.899874
O O16 0.500000 0.022779 0.833517
O O17 0.115127 0.250000 0.196600
O O18 0.231291 0.181431 0.163801
O O19 0.292704 0.750000 0.923338
#
# Coordination Sequence:
#
# PCOD8297482 Si02
#       8
#    16  16  16  16  16  16  16  16
#     4   9  17  31  47  61  81 117 145 178 213 260
#     4   9  18  32  46  60  81 111 153 181 213 257
#     4   9  17  27  44  62  83 110 138 165 214 268
#     4  11  20  28  40  61  87 115 146 187 223 248
#     4  10  18  28  42  59  83 112 144 183 222 251
#     4  10  18  28  44  67  90 112 142 180 220 259
#     4  10  20  29  40  58  82 117 157 185 211 247
#     4  10  20  32  45  59  81 115 152 189 217 250
#
# _framework density 15.098317
#
# number of rings (size 3 to 8) (size 9 to 14) (size 15 to 20)
#    0.000    2.250    2.500    1.500    1.750    2.750 
#    0.000    7.500    0.000    0.000    0.000    0.000 
#    0.000    4.500    0.000    0.250    0.000    0.500 
#
# Total GULP energy -793172.818184 kJ/mol
# GULP energy per Si atom -12393.325284 kJ/mol
# Density = 1.506395 g / cm^3
# Si number density = 15.098317 Si / 1000 Ang^3
#
#
#
# Elastic Constant Matrix: (Units=GPa)
#
#
# Indices 1 2 3 4 5 6 
#
# 1 104.4723 26.6215 57.6442 0.0000 0.0000 0.0000
# 2 26.6215 44.4631 38.5381 0.0000 0.0000 0.0000
# 3 57.6442 38.5381 88.6370 0.0000 0.0000 0.0000
# 4 0.0000 0.0000 0.0000 14.5942 0.0000 0.0000
# 5 0.0000 0.0000 0.0000 0.0000 15.0533 0.0000
# 6 0.0000 0.0000 0.0000 0.0000 0.0000 11.9411
#
#
#
# Elastic Compliance Matrix: (Units=1/GPa)
#
#
# Indices 1 2 3 4 5 6 
#
# 1 0.014949 -0.000841 -0.009356 0.000000 0.000000 0.000000
# 2 -0.000841 0.036139 -0.015166 0.000000 0.000000 0.000000
# 3 -0.009356 -0.015166 0.023960 0.000000 0.000000 0.000000
# 4 0.000000 0.000000 0.000000 0.068520 0.000000 0.000000
# 5 0.000000 0.000000 0.000000 0.000000 0.066431 0.000000
# 6 0.000000 0.000000 0.000000 0.000000 0.000000 0.083744
#
#
# Mechanical properties :
#
#
# Convention : Reuss Voigt Hill
#
# Bulk Modulus (GPa) = 41.11434 53.68666 47.40050
# Shear Modulus (GPa) = 14.18134 15.96896 15.07515
#
# Velocity S-wave (km/s) = 3.06807 3.25570 3.16328
# Velocity P-wave (km/s) = 6.31197 7.05465 6.69362
#
# Compressibility (1/GPa) = 0.02432241
#
# Stress axis : x y z
#
# Youngs Moduli (GPa) = 66.89628 27.67107 41.73550
#
# Poissons Ratio (x) = 0.02327 0.39048
# Poissons Ratio (y) = 0.05625 0.63295
# Poissons Ratio (z) = 0.62588 0.41965
#
# Static dielectric constant tensor:
#      x y z
#    x 3.017770 0.000000 0.000000 
#    y 0.000000 2.637460 0.000000 
#    z 0.000000 0.000000 2.842140 
# 
# 
# High freq. dielectric constant tensor:
#      x y z
#    x 1.587550 0.000000 0.000000 
#    y 0.000000 1.532830 0.000000 
#    z 0.000000 0.000000 1.556710 
# 
# From -- ./inp_files/53452.got.cif
#   From: 2010.03.12/outbox.cif.g09.slc.cpg/sg74_27_cif.got.tgz:53452.got - 2010.04.16 15:46:19.
