data_PCOD8297179
_publ_section_title
;
Structure prediction by ZEFSAII (Michael W. Deem and Ramdas Pophale) SiO2 
 PCOD8297179
Probable space group: I M M A
;
_chemical_formula_sum "Si O2"
_cell_formula_units_Z 48
_cell_length_a 15.905050
_cell_length_b 5.336555
_cell_length_c 28.100159
_cell_angle_alpha 90.000000
_cell_angle_beta 90.000000
_cell_angle_gamma 90.000000
_cell_volume 2385.090188
_symmetry_space_group_name_H-M "I M M A"
_symmetry_group_IT_number 74
_symmetry_cell_setting 'orthorhombic'
loop_
_space_group_symop_operation_xyz
x,y,z
-x,1/2-y,z
x,-y,-z
-x,1/2+y,-z
-x,-y,-z
x,1/2+y,-z
-x,y,z
x,1/2-y,z
1/2+x,1/2+y,1/2+z
1/2-x,-y,1/2+z
1/2+x,1/2-y,1/2-z
1/2-x,y,1/2-z
1/2-x,1/2-y,1/2-z
1/2+x,y,1/2-z
1/2-x,1/2+y,1/2+z
1/2+x,-y,1/2+z
loop_
_atom_site_type_symbol
_atom_site_label
_atom_site_fract_x
_atom_site_fract_y
_atom_site_fract_z
Si Si1 0.307714 0.750000 0.622174
Si Si2 0.682432 0.250000 0.207978
Si Si3 0.903369 0.250000 0.850630
Si Si4 0.097111 0.250000 0.548215
Si Si5 0.150156 0.750000 0.256327
Si Si6 0.665731 0.750000 0.944078
O O1 0.229228 0.750000 0.657997
O O2 0.362350 0.500454 0.628073
O O3 0.264453 0.750000 0.570027
O O4 0.750000 0.250000 0.250000
O O5 0.624938 0.499829 0.214053
O O6 0.896576 0.250000 0.793862
O O7 0.000000 0.250000 0.865902
O O8 0.154496 0.250000 0.500838
O O9 0.120693 0.500516 0.577666
O O10 0.000000 0.250000 0.533249
O O11 0.250000 0.750000 0.250000
#
# Coordination Sequence:
#
# PCOD8297179 Si02
#       6
#     8   8   8   8   8   8
#     4  12  21  35  54  86 106 144 195 236 265 336
#     4  10  16  30  54  74  97 137 182 222 272 310
#     4  12  23  35  53  78 109 145 189 246 282 316
#     4  10  19  38  62  89 118 147 175 219 278 336
#     4  10  16  32  53  73  94 140 185 223 276 331
#     4  10  20  32  57  90 112 147 183 220 261 335
#
# _framework density 20.125025000000001
#
# number of rings (size 3 to 8) (size 9 to 14) (size 15 to 20)
#    0.000    1.333    6.667    4.000    0.000    0.000 
#    0.000    0.000    0.000    8.000    0.000   46.667 
#    0.000    0.000    0.000    0.000    0.000    0.000 
#
# Total GULP energy -297404.153568 kJ/mol
# GULP energy per Si atom -12391.839732 kJ/mol
# Density = 2.007922 g / cm^3
# Si number density = 20.125025 Si / 1000 Ang^3
#
#
#
# Elastic Constant Matrix: (Units=GPa)
#
#
# Indices 1 2 3 4 5 6 
#
# 1 109.4330 71.6270 49.1577 0.0000 0.0000 0.0000
# 2 71.6270 265.2014 28.8901 0.0000 0.0000 0.0000
# 3 49.1577 28.8901 46.3294 0.0000 0.0000 0.0000
# 4 0.0000 0.0000 0.0000 10.4328 0.0000 0.0000
# 5 0.0000 0.0000 0.0000 0.0000 18.9459 0.0000
# 6 0.0000 0.0000 0.0000 0.0000 0.0000 15.3481
#
#
#
# Elastic Compliance Matrix: (Units=1/GPa)
#
#
# Indices 1 2 3 4 5 6 
#
# 1 0.019809 -0.003283 -0.018971 0.000000 0.000000 0.000000
# 2 -0.003283 0.004590 0.000622 0.000000 0.000000 0.000000
# 3 -0.018971 0.000622 0.041325 0.000000 0.000000 0.000000
# 4 0.000000 0.000000 0.000000 0.095852 0.000000 0.000000
# 5 0.000000 0.000000 0.000000 0.000000 0.052782 0.000000
# 6 0.000000 0.000000 0.000000 0.000000 0.000000 0.065154
#
#
# Mechanical properties :
#
#
# Convention : Reuss Voigt Hill
#
# Bulk Modulus (GPa) = 44.52435 80.03480 62.27958
# Shear Modulus (GPa) = 15.13945 27.03130 21.08538
#
# Velocity S-wave (km/s) = 2.74573 3.66890 3.24036
# Velocity P-wave (km/s) = 5.67661 7.60282 6.70921
#
# Compressibility (1/GPa) = 0.02245962
#
# Stress axis : x y z
#
# Youngs Moduli (GPa) = 50.48267 217.87438 24.19819
#
# Poissons Ratio (x) = 0.71539 0.45905
# Poissons Ratio (y) = 0.16576 -0.01505
# Poissons Ratio (z) = 0.95768 -0.13548
#
# Static dielectric constant tensor:
#      x y z
#    x 0.000000 0.000000 0.000000 
#    y 0.000000 0.000000 0.000000 
#    z 0.000000 0.000000 0.000000 
# 
# 
# High freq. dielectric constant tensor:
#      x y z
#    x 1.742780 0.000000 0.000000 
#    y 0.000000 1.836850 0.000000 
#    z 0.000000 0.000000 1.741040 
# 
# From -- ./inp_files/66550.got.cif
#   From: 2010.03.12/outbox.cif.g09.slc.cpg/sg74_34_cif.got.tgz:66550.got - 2010.04.16 15:46:19.
