data_PCOD8297443
_publ_section_title
;
Structure prediction by ZEFSAII (Michael W. Deem and Ramdas Pophale) SiO2 
 PCOD8297443
Probable space group: I M M A
;
_chemical_formula_sum "Si O2"
_cell_formula_units_Z 96
_cell_length_a 14.222104
_cell_length_b 14.116568
_cell_length_c 31.002863
_cell_angle_alpha 90.000000
_cell_angle_beta 90.000000
_cell_angle_gamma 90.000000
_cell_volume 6224.361042
_symmetry_space_group_name_H-M "I M M A"
_symmetry_group_IT_number 74
_symmetry_cell_setting 'orthorhombic'
loop_
_space_group_symop_operation_xyz
x,y,z
-x,1/2-y,z
x,-y,-z
-x,1/2+y,-z
-x,-y,-z
x,1/2+y,-z
-x,y,z
x,1/2-y,z
1/2+x,1/2+y,1/2+z
1/2-x,-y,1/2+z
1/2+x,1/2-y,1/2-z
1/2-x,y,1/2-z
1/2-x,1/2-y,1/2-z
1/2+x,y,1/2-z
1/2-x,1/2+y,1/2+z
1/2+x,-y,1/2+z
loop_
_atom_site_type_symbol
_atom_site_label
_atom_site_fract_x
_atom_site_fract_y
_atom_site_fract_z
Si Si1 0.603695 0.638140 0.252480
Si Si2 0.253991 0.048725 0.912494
Si Si3 0.396166 0.896336 0.018375
Si Si4 0.392572 0.138972 0.528596
Si Si5 0.254749 0.146502 0.453416
Si Si6 0.744843 0.638021 0.179387
O O1 0.500000 0.591326 0.253728
O O2 0.596352 0.750000 0.252828
O O3 0.655868 0.608397 0.208553
O O4 0.661331 0.607587 0.294854
O O5 0.340642 0.100865 0.936352
O O6 0.155393 0.084626 0.931709
O O7 0.260177 0.074141 0.862739
O O8 0.260404 0.934243 0.917445
O O9 0.500000 0.851125 0.025447
O O10 0.336926 0.837818 0.983441
O O11 0.406722 0.000000 0.000000
O O12 0.500000 0.105475 0.525002
O O13 0.384559 0.250000 0.538065
O O14 0.341105 0.112890 0.483763
O O15 0.275114 0.250000 0.432021
O O16 0.744722 0.750000 0.168307
#
# Coordination Sequence:
#
# PCOD8297443 Si02
#       6
#    16  16  16  16  16  16
#     4   8  15  29  46  61  81 108 129 150 194 257
#     4  10  18  27  42  64  88 109 137 179 213 241
#     4   8  15  28  43  58  79 109 143 178 215 248
#     4   9  17  29  44  61  83 112 143 175 214 254
#     4   9  18  30  41  56  82 117 152 179 203 236
#     4   9  17  28  42  63  87 105 127 161 201 249
#
# _framework density 15.42327
#
# number of rings (size 3 to 8) (size 9 to 14) (size 15 to 20)
#    0.000    3.167    0.000    3.000    0.000    3.667 
#    0.000    1.667    0.000    0.000    0.000    2.333 
#    0.000    1.333    0.000    0.000    0.000    0.000 
#
# Total GULP energy -594887.636359 kJ/mol
# GULP energy per Si atom -12393.492424 kJ/mol
# Density = 1.538817 g / cm^3
# Si number density = 15.423270 Si / 1000 Ang^3
#
#
#
# Elastic Constant Matrix: (Units=GPa)
#
#
# Indices 1 2 3 4 5 6 
#
# 1 135.7441 18.5828 48.6450 0.0000 0.0000 0.0000
# 2 18.5828 54.2937 45.1123 0.0000 0.0000 0.0000
# 3 48.6450 45.1123 117.2793 0.0000 0.0000 0.0000
# 4 0.0000 0.0000 0.0000 23.6005 0.0000 0.0000
# 5 0.0000 0.0000 0.0000 0.0000 11.2944 0.0000
# 6 0.0000 0.0000 0.0000 0.0000 0.0000 11.9296
#
#
#
# Elastic Compliance Matrix: (Units=1/GPa)
#
#
# Indices 1 2 3 4 5 6 
#
# 1 0.008653 0.000030 -0.003601 0.000000 0.000000 0.000000
# 2 0.000030 0.027070 -0.010425 0.000000 0.000000 0.000000
# 3 -0.003601 -0.010425 0.014030 0.000000 0.000000 0.000000
# 4 0.000000 0.000000 0.000000 0.042372 0.000000 0.000000
# 5 0.000000 0.000000 0.000000 0.000000 0.088539 0.000000
# 6 0.000000 0.000000 0.000000 0.000000 0.000000 0.083825
#
#
# Mechanical properties :
#
#
# Convention : Reuss Voigt Hill
#
# Bulk Modulus (GPa) = 45.95166 59.11081 52.53123
# Shear Modulus (GPa) = 16.68137 22.36339 19.52238
#
# Velocity S-wave (km/s) = 3.29229 3.81199 3.56163
# Velocity P-wave (km/s) = 6.65663 7.60157 7.14474
#
# Compressibility (1/GPa) = 0.02176200
#
# Stress axis : x y z
#
# Youngs Moduli (GPa) = 115.56679 36.94081 71.27423
#
# Poissons Ratio (x) = -0.00111 0.25664
# Poissons Ratio (y) = -0.00349 0.74306
# Poissons Ratio (z) = 0.41612 0.38512
#
# Static dielectric constant tensor:
#      x y z
#    x 3.706020 0.000000 0.000000 
#    y 0.000000 2.989250 0.000000 
#    z 0.000000 0.000000 2.649720 
# 
# 
# High freq. dielectric constant tensor:
#      x y z
#    x 1.604380 0.000000 0.000000 
#    y 0.000000 1.566940 0.000000 
#    z 0.000000 0.000000 1.559050 
# 
# From -- ./inp_files/72569.got.cif
#   From: 2010.03.12/outbox.cif.g09.slc.cpg/sg74_37_cif.got.tgz:72569.got - 2010.04.16 15:46:19.
