data_PCOD8297190
_publ_section_title
;
Structure prediction by ZEFSAII (Michael W. Deem and Ramdas Pophale) SiO2 
 PCOD8297190
Probable space group: I M M A
;
_chemical_formula_sum "Si O2"
_cell_formula_units_Z 120
_cell_length_a 9.118570
_cell_length_b 29.090979
_cell_length_c 24.285430
_cell_angle_alpha 90.000000
_cell_angle_beta 90.000000
_cell_angle_gamma 90.000000
_cell_volume 6442.150563
_symmetry_space_group_name_H-M "I M M A"
_symmetry_group_IT_number 74
_symmetry_cell_setting 'orthorhombic'
loop_
_space_group_symop_operation_xyz
x,y,z
-x,1/2-y,z
x,-y,-z
-x,1/2+y,-z
-x,-y,-z
x,1/2+y,-z
-x,y,z
x,1/2-y,z
1/2+x,1/2+y,1/2+z
1/2-x,-y,1/2+z
1/2+x,1/2-y,1/2-z
1/2-x,y,1/2-z
1/2-x,1/2-y,1/2-z
1/2+x,y,1/2-z
1/2-x,1/2+y,1/2+z
1/2+x,-y,1/2+z
loop_
_atom_site_type_symbol
_atom_site_label
_atom_site_fract_x
_atom_site_fract_y
_atom_site_fract_z
Si Si1 0.325570 0.947246 0.193560
Si Si2 0.662212 0.029728 0.116458
Si Si3 0.249601 0.500000 0.000000
Si Si4 0.675905 0.368959 0.627055
Si Si5 0.834271 0.304131 0.696137
Si Si6 0.827522 0.802593 0.806923
Si Si7 0.837124 0.399342 0.988898
Si Si8 0.174262 0.879956 0.892270
O O1 0.500000 0.941090 0.199789
O O2 0.250000 0.961687 0.250000
O O3 0.250989 0.901008 0.172428
O O4 0.281511 0.986896 0.151129
O O5 0.500000 0.044858 0.134300
O O6 0.767023 0.072219 0.132035
O O7 0.654216 0.013820 0.052778
O O8 0.153072 0.454866 0.987593
O O9 0.500000 0.372096 0.630199
O O10 0.738519 0.318928 0.642762
O O11 0.740396 0.381139 0.566463
O O12 0.840996 0.250000 0.695715
O O13 0.750000 0.322629 0.750000
O O14 0.000000 0.324361 0.695189
O O15 0.787424 0.750000 0.823168
O O16 0.750000 0.816793 0.750000
O O17 0.772487 0.836269 0.856082
O O18 0.000000 0.808225 0.797656
O O19 0.000000 0.379558 0.987611
O O20 0.763410 0.378118 0.044541
O O21 0.000000 0.882843 0.892696
#
# Coordination Sequence:
#
# PCOD8297190 Si02
#       8
#    16  16   8  16  16  16  16  16
#     4  11  23  38  52  74 106 144 182 220 267 320
#     4  10  21  34  52  77 106 139 178 222 268 318
#     4  10  16  34  54  76 103 138 185 224 265 310
#     4  11  21  35  55  81 109 140 178 222 270 318
#     4  10  21  38  59  81 105 137 177 222 272 324
#     4   9  18  34  57  82 107 138 177 220 267 321
#     4   9  18  31  52  80 108 140 180 222 265 314
#     4   9  19  35  54  78 108 141 178 219 266 319
#
# _framework density 18.627320000000001
#
# number of rings (size 3 to 8) (size 9 to 14) (size 15 to 20)
#    0.000    2.133    1.333    2.000    0.000    3.467 
#    0.000    4.000    0.000    2.400    0.000    1.867 
#    0.000    0.000    0.000    0.000    0.000    0.000 
#
# Total GULP energy -743612.526190 kJ/mol
# GULP energy per Si atom -12393.542103 kJ/mol
# Density = 1.858492 g / cm^3
# Si number density = 18.627320 Si / 1000 Ang^3
#
#
#
# Elastic Constant Matrix: (Units=GPa)
#
#
# Indices 1 2 3 4 5 6 
#
# 1 70.7404 27.7848 36.8594 0.0000 0.0000 0.0000
# 2 27.7848 74.3379 54.7081 0.0000 0.0000 0.0000
# 3 36.8594 54.7081 117.8839 -0.0002 0.0000 0.0000
# 4 0.0000 0.0000 -0.0002 35.8431 0.0000 0.0000
# 5 0.0000 0.0000 0.0000 0.0000 22.5759 0.0000
# 6 0.0000 0.0000 0.0000 0.0000 0.0000 28.3560
#
#
#
# Elastic Compliance Matrix: (Units=1/GPa)
#
#
# Indices 1 2 3 4 5 6 
#
# 1 0.017579 -0.003835 -0.003717 0.000000 0.000000 0.000000
# 2 -0.003835 0.021266 -0.008670 0.000000 0.000000 0.000000
# 3 -0.003717 -0.008670 0.013669 0.000000 0.000000 0.000000
# 4 0.000000 0.000000 0.000000 0.027899 0.000000 0.000000
# 5 0.000000 0.000000 0.000000 0.000000 0.044295 0.000000
# 6 0.000000 0.000000 0.000000 0.000000 0.000000 0.035266
#
#
# Mechanical properties :
#
#
# Convention : Reuss Voigt Hill
#
# Bulk Modulus (GPa) = 49.82562 55.74078 52.78320
# Shear Modulus (GPa) = 25.11190 26.92897 26.02044
#
# Velocity S-wave (km/s) = 3.67566 3.80632 3.74156
# Velocity P-wave (km/s) = 6.69483 7.02187 6.86030
#
# Compressibility (1/GPa) = 0.02006999
#
# Stress axis : x y z
#
# Youngs Moduli (GPa) = 56.88561 47.02282 73.15954
#
# Poissons Ratio (x) = 0.18034 0.27191
# Poissons Ratio (y) = 0.21817 0.63431
# Poissons Ratio (z) = 0.21143 0.40770
#
# Static dielectric constant tensor:
#      x y z
#    x 3.320230 0.000000 0.000000 
#    y 0.000000 3.409480 0.000000 
#    z 0.000000 0.000000 3.673470 
# 
# 
# High freq. dielectric constant tensor:
#      x y z
#    x 1.713720 0.000000 0.000000 
#    y 0.000000 1.715140 0.000000 
#    z 0.000000 0.000000 1.727330 
# 
# From -- ./inp_files/65116.got.cif
#   From: 2010.03.12/outbox.cif.g09.slc.cpg/sg74_33_cif.got.tgz:65116.got - 2010.04.16 15:46:19.
