data_PCOD8297685
_publ_section_title
;
Structure prediction by ZEFSAII (Michael W. Deem and Ramdas Pophale) SiO2 
 PCOD8297685
Probable space group: I M M A
;
_chemical_formula_sum "Si O2"
_cell_formula_units_Z 104
_cell_length_a 9.034274
_cell_length_b 28.510239
_cell_length_c 27.963271
_cell_angle_alpha 90.000000
_cell_angle_beta 90.000000
_cell_angle_gamma 90.000000
_cell_volume 7202.480443
_symmetry_space_group_name_H-M "I M M A"
_symmetry_group_IT_number 74
_symmetry_cell_setting 'orthorhombic'
loop_
_space_group_symop_operation_xyz
x,y,z
-x,1/2-y,z
x,-y,-z
-x,1/2+y,-z
-x,-y,-z
x,1/2+y,-z
-x,y,z
x,1/2-y,z
1/2+x,1/2+y,1/2+z
1/2-x,-y,1/2+z
1/2+x,1/2-y,1/2-z
1/2-x,y,1/2-z
1/2-x,1/2-y,1/2-z
1/2+x,y,1/2-z
1/2-x,1/2+y,1/2+z
1/2+x,-y,1/2+z
loop_
_atom_site_type_symbol
_atom_site_label
_atom_site_fract_x
_atom_site_fract_y
_atom_site_fract_z
Si Si1 0.167864 0.750000 0.201825
Si Si2 0.334280 0.964415 0.956428
Si Si3 0.667964 0.804001 0.437084
Si Si4 0.167209 0.601518 0.019976
Si Si5 0.332484 0.829059 0.152504
Si Si6 0.828461 0.570248 0.301253
Si Si7 0.325881 0.965272 0.393329
O O1 0.250000 0.750000 0.250000
O O2 0.208213 0.795400 0.172680
O O3 0.000000 0.750000 0.215256
O O4 0.500000 0.955581 0.936929
O O5 0.232528 0.985638 0.914729
O O6 0.267753 0.915617 0.975980
O O7 0.336253 0.000000 0.000000
O O8 0.500000 0.804363 0.415798
O O9 0.709919 0.750000 0.451412
O O10 0.675129 0.841415 0.480539
O O11 0.789629 0.828240 0.402973
O O12 0.216054 0.578058 0.071110
O O13 0.000000 0.584390 0.010228
O O14 0.500000 0.810392 0.158582
O O15 0.312439 0.877147 0.179997
O O16 0.750000 0.564284 0.250000
O O17 0.751400 0.538872 0.341654
O O18 0.000000 0.555925 0.295945
O O19 0.500000 0.968130 0.384773
#
# Coordination Sequence:
#
# PCOD8297685 Si02
#       7
#     8  16  16  16  16  16  16
#     4  12  24  36  48  58  72  94 130 178 226 270
#     4   9  17  28  44  66  88 109 135 170 215 260
#     4  10  19  31  47  65  85 114 145 179 220 264
#     4   9  17  29  45  65  87 111 141 175 216 262
#     4  11  22  34  47  62  79 103 137 179 223 265
#     4  11  23  35  47  63  84 110 143 179 220 266
#     4  10  18  30  48  66  86 110 138 175 218 262
#
# _framework density 14.43947
#
# number of rings (size 3 to 8) (size 9 to 14) (size 15 to 20)
#    0.000    1.846    2.308    3.000    0.000    6.154 
#    0.000    0.000    0.000    0.000    0.000    0.000 
#    0.000    0.000    0.000    0.000    0.000    0.769 
#
# Total GULP energy -644342.934382 kJ/mol
# GULP energy per Si atom -12391.210277 kJ/mol
# Density = 1.440660 g / cm^3
# Si number density = 14.439470 Si / 1000 Ang^3
#
#
#
# Elastic Constant Matrix: (Units=GPa)
#
#
# Indices 1 2 3 4 5 6 
#
# 1 97.7140 37.9427 43.1953 0.0000 0.0000 0.0000
# 2 37.9427 65.1038 46.3530 0.0000 0.0000 0.0000
# 3 43.1953 46.3530 63.4054 0.0000 0.0000 0.0000
# 4 0.0000 0.0000 0.0000 22.1293 0.0000 0.0000
# 5 0.0000 0.0000 0.0000 0.0000 24.3990 0.0000
# 6 0.0000 0.0000 0.0000 0.0000 0.0000 27.6853
#
#
#
# Elastic Compliance Matrix: (Units=1/GPa)
#
#
# Indices 1 2 3 4 5 6 
#
# 1 0.014928 -0.003043 -0.007945 0.000000 0.000000 0.000000
# 2 -0.003043 0.032654 -0.021799 0.000000 0.000000 0.000000
# 3 -0.007945 -0.021799 0.037120 0.000000 0.000000 0.000000
# 4 0.000000 0.000000 0.000000 0.045189 0.000000 0.000000
# 5 0.000000 0.000000 0.000000 0.000000 0.040985 0.000000
# 6 0.000000 0.000000 0.000000 0.000000 0.000000 0.036120
#
#
# Mechanical properties :
#
#
# Convention : Reuss Voigt Hill
#
# Bulk Modulus (GPa) = 52.27871 53.46725 52.87298
# Shear Modulus (GPa) = 17.92460 21.42487 19.67474
#
# Velocity S-wave (km/s) = 3.52712 3.85615 3.69530
# Velocity P-wave (km/s) = 7.27128 7.54556 7.40969
#
# Compressibility (1/GPa) = 0.01912825
#
# Stress axis : x y z
#
# Youngs Moduli (GPa) = 66.98943 30.62393 26.93964
#
# Poissons Ratio (x) = 0.09320 0.21403
# Poissons Ratio (y) = 0.20388 0.58725
# Poissons Ratio (z) = 0.53221 0.66756
#
# Static dielectric constant tensor:
#      x y z
#    x 3.017640 0.000000 0.000000 
#    y 0.000000 2.738860 0.000000 
#    z 0.000000 0.000000 2.553010 
# 
# 
# High freq. dielectric constant tensor:
#      x y z
#    x 1.570910 0.000000 0.000000 
#    y 0.000000 1.527300 0.000000 
#    z 0.000000 0.000000 1.513700 
# 
# From -- ./inp_files/57837.got.cif
#   From: 2010.03.12/outbox.cif.g09.slc.cpg/sg74_29_cif.got.tgz:57837.got - 2010.04.16 15:46:19.
