data_PCOD8297437
_publ_section_title
;
Structure prediction by ZEFSAII (Michael W. Deem and Ramdas Pophale) SiO2 
 PCOD8297437
Probable space group: I M M A
;
_chemical_formula_sum "Si O2"
_cell_formula_units_Z 128
_cell_length_a 18.821565
_cell_length_b 21.690398
_cell_length_c 19.281212
_cell_angle_alpha 90.000000
_cell_angle_beta 90.000000
_cell_angle_gamma 90.000000
_cell_volume 7871.501503
_symmetry_space_group_name_H-M "I M M A"
_symmetry_group_IT_number 74
_symmetry_cell_setting 'orthorhombic'
loop_
_space_group_symop_operation_xyz
x,y,z
-x,1/2-y,z
x,-y,-z
-x,1/2+y,-z
-x,-y,-z
x,1/2+y,-z
-x,y,z
x,1/2-y,z
1/2+x,1/2+y,1/2+z
1/2-x,-y,1/2+z
1/2+x,1/2-y,1/2-z
1/2-x,y,1/2-z
1/2-x,1/2-y,1/2-z
1/2+x,y,1/2-z
1/2-x,1/2+y,1/2+z
1/2+x,-y,1/2+z
loop_
_atom_site_type_symbol
_atom_site_label
_atom_site_fract_x
_atom_site_fract_y
_atom_site_fract_z
Si Si1 0.583076 0.027858 0.720731
Si Si2 0.165106 0.544999 0.354508
Si Si3 0.417905 0.320342 0.380051
Si Si4 0.182702 0.545892 0.101282
Si Si5 0.918598 0.887785 0.741779
Si Si6 0.689385 0.407815 0.451698
Si Si7 0.839656 0.902800 0.608298
Si Si8 0.579069 0.571576 0.019360
O O1 0.500000 0.043477 0.725847
O O2 0.625284 0.060852 0.783147
O O3 0.612928 0.055959 0.648619
O O4 0.597914 0.954639 0.724902
O O5 0.248935 0.558874 0.350040
O O6 0.155617 0.474382 0.374628
O O7 0.129314 0.585524 0.415096
O O8 0.500000 0.331033 0.398422
O O9 0.394825 0.250000 0.391642
O O10 0.403622 0.337182 0.300113
O O11 0.374388 0.363546 0.431197
O O12 0.178668 0.476324 0.075141
O O13 0.188802 0.591564 0.035585
O O14 0.866463 0.869126 0.678266
O O15 0.000000 0.886474 0.715214
O O16 0.761716 0.381588 0.416998
O O17 0.893323 0.888309 0.545434
O O18 0.500000 0.593046 0.038257
O O19 0.581188 0.500000 0.000000
#
# Coordination Sequence:
#
# PCOD8297437 Si02
#       8
#    16  16  16  16  16  16  16  16
#     4  10  18  27  41  64  92 124 160 193 224 273
#     4   9  16  26  39  60  91 126 152 183 228 282
#     4  10  21  37  52  65  88 123 164 209 247 277
#     4  10  18  29  45  65  95 126 154 192 235 286
#     4   9  17  30  45  64  87 117 158 198 239 280
#     4  10  19  31  47  66  90 121 160 196 237 288
#     4   9  16  26  42  62  89 117 152 193 233 278
#     4   9  14  22  37  59  86 121 156 183 220 276
#
# _framework density 16.261192999999999
#
# number of rings (size 3 to 8) (size 9 to 14) (size 15 to 20)
#    0.000    2.500    2.500    1.125    0.000    4.000 
#    0.000    2.500    0.000    0.000    0.000    0.000 
#    0.000    2.000    0.000    0.250    0.000    1.250 
#
# Total GULP energy -793273.303115 kJ/mol
# GULP energy per Si atom -12394.895361 kJ/mol
# Density = 1.622418 g / cm^3
# Si number density = 16.261193 Si / 1000 Ang^3
#
#
#
# Elastic Constant Matrix: (Units=GPa)
#
#
# Indices 1 2 3 4 5 6 
#
# 1 104.0658 28.5902 64.6773 0.0000 0.0000 0.0000
# 2 28.5902 31.0770 21.8457 0.0000 0.0000 0.0000
# 3 64.6773 21.8457 106.1052 0.0000 0.0000 0.0000
# 4 0.0000 0.0000 0.0000 9.8229 0.0000 0.0000
# 5 0.0000 0.0000 0.0000 0.0000 36.8885 0.0000
# 6 0.0000 0.0000 0.0000 0.0000 0.0000 8.3550
#
#
#
# Elastic Compliance Matrix: (Units=1/GPa)
#
#
# Indices 1 2 3 4 5 6 
#
# 1 0.017901 -0.010287 -0.008794 0.000000 0.000000 0.000000
# 2 -0.010287 0.043535 -0.002693 0.000000 0.000000 0.000000
# 3 -0.008794 -0.002693 0.015339 0.000000 0.000000 0.000000
# 4 0.000000 0.000000 0.000000 0.101803 0.000000 0.000000
# 5 0.000000 0.000000 0.000000 0.000000 0.027109 0.000000
# 6 0.000000 0.000000 0.000000 0.000000 0.000000 0.119689
#
#
# Mechanical properties :
#
#
# Convention : Reuss Voigt Hill
#
# Bulk Modulus (GPa) = 30.09494 52.38605 41.24049
# Shear Modulus (GPa) = 13.15796 19.42226 16.29011
#
# Velocity S-wave (km/s) = 2.84767 3.45975 3.16852
# Velocity P-wave (km/s) = 5.41846 6.94587 6.22916
#
# Compressibility (1/GPa) = 0.03322818
#
# Stress axis : x y z
#
# Youngs Moduli (GPa) = 55.86386 22.97022 65.19226
#
# Poissons Ratio (x) = 0.23629 0.57327
# Poissons Ratio (y) = 0.57466 0.17555
# Poissons Ratio (z) = 0.49124 0.06185
#
# Static dielectric constant tensor:
#      x y z
#    x 3.206960 0.000000 0.000000 
#    y 0.000000 2.448300 0.000000 
#    z 0.000000 0.000000 3.240250 
# 
# 
# High freq. dielectric constant tensor:
#      x y z
#    x 1.639810 0.000000 0.000000 
#    y 0.000000 1.539000 0.000000 
#    z 0.000000 0.000000 1.634860 
# 
# From -- ./inp_files/46295.got.cif
#   From: 2010.03.12/outbox.cif.g09.slc.cpg/sg74_24_cif.got.tgz:46295.got - 2010.04.16 15:46:19.
