data_PCOD8297199
_publ_section_title
;
Structure prediction by ZEFSAII (Michael W. Deem and Ramdas Pophale) SiO2 
 PCOD8297199
Probable space group: I M M A
;
_chemical_formula_sum "Si O2"
_cell_formula_units_Z 80
_cell_length_a 17.960605
_cell_length_b 14.304011
_cell_length_c 19.732142
_cell_angle_alpha 90.000000
_cell_angle_beta 90.000000
_cell_angle_gamma 90.000000
_cell_volume 5069.358781
_symmetry_space_group_name_H-M "I M M A"
_symmetry_group_IT_number 74
_symmetry_cell_setting 'orthorhombic'
loop_
_space_group_symop_operation_xyz
x,y,z
-x,1/2-y,z
x,-y,-z
-x,1/2+y,-z
-x,-y,-z
x,1/2+y,-z
-x,y,z
x,1/2-y,z
1/2+x,1/2+y,1/2+z
1/2-x,-y,1/2+z
1/2+x,1/2-y,1/2-z
1/2-x,y,1/2-z
1/2-x,1/2-y,1/2-z
1/2+x,y,1/2-z
1/2-x,1/2+y,1/2+z
1/2+x,-y,1/2+z
loop_
_atom_site_type_symbol
_atom_site_label
_atom_site_fract_x
_atom_site_fract_y
_atom_site_fract_z
Si Si1 0.911552 0.853060 0.830558
Si Si2 0.841926 0.638755 0.113111
Si Si3 0.582674 0.139517 0.478938
Si Si4 0.300553 0.146652 0.816054
Si Si5 0.086819 0.538043 0.237405
O O1 0.880735 0.750000 0.809574
O O2 0.881758 0.884103 0.905215
O O3 0.000000 0.847995 0.837335
O O4 0.887898 0.930271 0.775356
O O5 0.850201 0.750000 0.118287
O O6 0.754858 0.610872 0.124409
O O7 0.896110 0.597506 0.170414
O O8 0.866344 0.598817 0.039684
O O9 0.500000 0.096230 0.486712
O O10 0.577665 0.250000 0.486205
O O11 0.332913 0.250000 0.832620
O O12 0.250000 0.152415 0.750000
O O13 0.368519 0.075339 0.803213
O O14 0.000000 0.545009 0.254413
#
# Coordination Sequence:
#
# PCOD8297199 Si02
#       5
#    16  16  16  16  16
#     4   8  15  26  36  50  75 101 124 153 184 210
#     4   9  16  25  36  50  71  99 125 150 184 221
#     4   8  13  22  36  53  74 100 128 153 175 209
#     4   8  15  26  36  48  70  98 124 152 186 219
#     4  10  17  23  36  54  71  97 127 151 178 215
#
# _framework density 15.781089
#
# number of rings (size 3 to 8) (size 9 to 14) (size 15 to 20)
#    0.000    3.400    0.000    3.600    0.000    3.200 
#    0.000    3.000    0.000    5.400    0.000    0.000 
#    0.000    0.000    0.000   34.200    0.000  114.400 
#
# Total GULP energy -495565.750110 kJ/mol
# GULP energy per Si atom -12389.143753 kJ/mol
# Density = 1.574517 g / cm^3
# Si number density = 15.781089 Si / 1000 Ang^3
#
#
#
# Elastic Constant Matrix: (Units=GPa)
#
#
# Indices 1 2 3 4 5 6 
#
# 1 76.6515 39.8103 38.0761 0.0000 0.0000 0.0000
# 2 39.8103 64.3817 24.8076 0.0000 0.0000 0.0000
# 3 38.0761 24.8076 40.7386 0.0000 0.0000 0.0000
# 4 0.0000 0.0000 0.0000 14.3734 0.0000 0.0000
# 5 0.0000 0.0000 0.0000 0.0000 16.5800 0.0000
# 6 0.0000 0.0000 0.0000 0.0000 0.0000 12.5613
#
#
#
# Elastic Compliance Matrix: (Units=1/GPa)
#
#
# Indices 1 2 3 4 5 6 
#
# 1 0.028204 -0.009515 -0.020567 0.000000 0.000000 0.000000
# 2 -0.009515 0.023504 -0.005419 0.000000 0.000000 0.000000
# 3 -0.020567 -0.005419 0.047069 0.000000 0.000000 0.000000
# 4 0.000000 0.000000 0.000000 0.069573 0.000000 0.000000
# 5 0.000000 0.000000 0.000000 0.000000 0.060314 0.000000
# 6 0.000000 0.000000 0.000000 0.000000 0.000000 0.079610
#
#
# Mechanical properties :
#
#
# Convention : Reuss Voigt Hill
#
# Bulk Modulus (GPa) = 36.00334 43.01777 39.51056
# Shear Modulus (GPa) = 12.86881 13.97477 13.42179
#
# Velocity S-wave (km/s) = 2.85872 2.97903 2.91949
# Velocity P-wave (km/s) = 5.81035 6.25708 6.03785
#
# Compressibility (1/GPa) = 0.02777520
#
# Stress axis : x y z
#
# Youngs Moduli (GPa) = 35.45536 42.54518 21.24520
#
# Poissons Ratio (x) = 0.40483 0.43695
# Poissons Ratio (y) = 0.33737 0.11514
# Poissons Ratio (z) = 0.72920 0.23057
#
# Static dielectric constant tensor:
#      x y z
#    x 3.028500 0.000000 0.000000 
#    y 0.000000 3.186480 0.000000 
#    z 0.000000 0.000000 3.057450 
# 
# 
# High freq. dielectric constant tensor:
#      x y z
#    x 1.567950 0.000000 0.000000 
#    y 0.000000 1.611910 0.000000 
#    z 0.000000 0.000000 1.564840 
# 
# From -- ./inp_files/42658.got.cif
#   From: 2010.03.12/outbox.cif.g09.slc.cpg/sg74_22_cif.got.tgz:42658.got - 2010.04.16 15:46:19.
