data_PCOD8297024
_publ_section_title
;
Structure prediction by ZEFSAII (Michael W. Deem and Ramdas Pophale) SiO2 
 PCOD8297024
Probable space group: I B C A 
;
_chemical_formula_sum "Si O2"
_cell_formula_units_Z 64
_cell_length_a 18.267885
_cell_length_b 10.749522
_cell_length_c 14.576476
_cell_angle_alpha 90.000000
_cell_angle_beta 90.000000
_cell_angle_gamma 90.000000
_cell_volume 2862.397631
_symmetry_space_group_name_H-M "I B C A "
_symmetry_group_IT_number 73
_symmetry_cell_setting 'orthorhombic'
loop_
_space_group_symop_operation_xyz
x,y,z
-x,1/2-y,z
x,-y,1/2-z
1/2-x,y,-z
-x,-y,-z
x,1/2+y,-z
-x,y,1/2+z
1/2+x,-y,z
1/2+x,1/2+y,1/2+z
1/2-x,-y,1/2+z
1/2+x,1/2-y,-z
-x,1/2+y,1/2-z
1/2-x,1/2-y,1/2-z
1/2+x,y,1/2-z
1/2-x,1/2+y,z
x,1/2-y,1/2+z
loop_
_atom_site_type_symbol
_atom_site_label
_atom_site_fract_x
_atom_site_fract_y
_atom_site_fract_z
Si Si1 0.600958 0.000000 0.750000
Si Si2 0.306084 0.218111 0.328969
Si Si3 0.006721 0.385572 0.399134
Si Si4 0.750000 0.427491 0.500000
Si Si5 0.112480 0.570294 0.940094
O O1 0.646182 0.881184 0.723215
O O2 0.552817 0.977379 0.838301
O O3 0.250000 0.250000 0.250000
O O4 0.259534 0.161227 0.412561
O O5 0.357720 0.332688 0.363371
O O6 0.049998 0.366715 0.495919
O O7 0.000000 0.250000 0.353832
O O8 0.925919 0.445842 0.401129
O O9 0.818733 0.519868 0.496700
#
# Coordination Sequence:
#
# PCOD8297024 Si02
#       5
#     8  16  16   8  16
#     4  12  28  48  70 116 144 192 254 310 378 454
#     4  12  28  46  78 110 151 193 254 314 384 451
#     4  11  27  47  75 107 150 197 249 304 380 453
#     4  12  24  50  74 110 150 192 254 308 376 452
#     4  11  26  48  76 107 148 201 245 310 380 455
#
# _framework density 22.358879000000002
#
# number of rings (size 3 to 8) (size 9 to 14) (size 15 to 20)
#    0.000    0.500    2.500    3.750   14.000    0.000 
#    0.000    0.000    0.000    0.000    0.000    0.000 
#    0.000    0.000    0.000    0.000    0.000    0.000 
#
# Total GULP energy -396674.213875 kJ/mol
# GULP energy per Si atom -12396.069184 kJ/mol
# Density = 2.230799 g / cm^3
# Si number density = 22.358879 Si / 1000 Ang^3
#
#
#
# Elastic Constant Matrix: (Units=GPa)
#
#
# Indices 1 2 3 4 5 6 
#
# 1 146.3241 68.0627 45.4066 0.0000 0.0000 0.0000
# 2 68.0627 143.0484 37.6804 0.0000 0.0000 0.0000
# 3 45.4066 37.6804 103.8078 0.0000 0.0000 0.0000
# 4 0.0000 0.0000 0.0000 49.0109 0.0000 0.0000
# 5 0.0000 0.0000 0.0000 0.0000 28.4250 0.0000
# 6 0.0000 0.0000 0.0000 0.0000 0.0000 46.0848
#
#
#
# Elastic Compliance Matrix: (Units=1/GPa)
#
#
# Indices 1 2 3 4 5 6 
#
# 1 0.009443 -0.003765 -0.002764 0.000000 0.000000 0.000000
# 2 -0.003765 0.009231 -0.001704 0.000000 0.000000 0.000000
# 3 -0.002764 -0.001704 0.011461 0.000000 0.000000 0.000000
# 4 0.000000 0.000000 0.000000 0.020404 0.000000 0.000000
# 5 0.000000 0.000000 0.000000 0.000000 0.035180 0.000000
# 6 0.000000 0.000000 0.000000 0.000000 0.000000 0.021699
#
#
# Mechanical properties :
#
#
# Convention : Reuss Voigt Hill
#
# Bulk Modulus (GPa) = 73.15725 77.27552 75.21639
# Shear Modulus (GPa) = 38.92888 40.83951 39.88420
#
# Velocity S-wave (km/s) = 4.17717 4.27845 4.22811
# Velocity P-wave (km/s) = 7.48703 7.68396 7.58613
#
# Compressibility (1/GPa) = 0.01366918
#
# Stress axis : x y z
#
# Youngs Moduli (GPa) = 105.89717 108.33257 87.25570
#
# Poissons Ratio (x) = 0.40787 0.24116
# Poissons Ratio (y) = 0.39871 0.14866
# Poissons Ratio (z) = 0.29269 0.18457
#
# Static dielectric constant tensor:
#      x y z
#    x 3.011720 0.000000 0.000000 
#    y 0.000000 4.561020 0.000000 
#    z 0.000000 0.000000 4.067860 
# 
# 
# High freq. dielectric constant tensor:
#      x y z
#    x 1.901410 0.000000 0.000000 
#    y 0.000000 1.896070 0.000000 
#    z 0.000000 0.000000 1.879630 
# 
# From -- ./inp_files/11530.got.cif
#   From: 2010.03.12/outbox.cif.g09.slc.cpg/sg73_6_cif.got.tgz:11530.got - 2010.04.16 15:25:48.
