data_PCOD8297439
_publ_section_title
;
Structure prediction by ZEFSAII (Michael W. Deem and Ramdas Pophale) SiO2 
 PCOD8297439
Probable space group: I M M A
;
_chemical_formula_sum "Si O2"
_cell_formula_units_Z 120
_cell_length_a 23.633648
_cell_length_b 15.583951
_cell_length_c 21.731334
_cell_angle_alpha 90.000000
_cell_angle_beta 90.000000
_cell_angle_gamma 90.000000
_cell_volume 8003.772277
_symmetry_space_group_name_H-M "I M M A"
_symmetry_group_IT_number 74
_symmetry_cell_setting 'orthorhombic'
loop_
_space_group_symop_operation_xyz
x,y,z
-x,1/2-y,z
x,-y,-z
-x,1/2+y,-z
-x,-y,-z
x,1/2+y,-z
-x,y,z
x,1/2-y,z
1/2+x,1/2+y,1/2+z
1/2-x,-y,1/2+z
1/2+x,1/2-y,1/2-z
1/2-x,y,1/2-z
1/2-x,1/2-y,1/2-z
1/2+x,y,1/2-z
1/2-x,1/2+y,1/2+z
1/2+x,-y,1/2+z
loop_
_atom_site_type_symbol
_atom_site_label
_atom_site_fract_x
_atom_site_fract_y
_atom_site_fract_z
Si Si1 0.174573 0.844975 0.958273
Si Si2 0.750000 0.971440 0.250000
Si Si3 0.436920 0.597545 0.480626
Si Si4 0.560978 0.850359 0.217706
Si Si5 0.823252 0.348253 0.670579
Si Si6 0.274415 0.847240 0.414725
Si Si7 0.822994 0.514785 0.856833
Si Si8 0.563336 0.555666 0.343292
O O1 0.182901 0.750000 0.930193
O O2 0.190570 0.914501 0.907547
O O3 0.110666 0.848037 0.984572
O O4 0.219735 0.861648 0.012601
O O5 0.796345 0.910106 0.279455
O O6 0.782276 0.032783 0.201330
O O7 0.426528 0.500000 0.500000
O O8 0.500000 0.627759 0.500999
O O9 0.430223 0.608219 0.407166
O O10 0.500000 0.887649 0.194892
O O11 0.556148 0.750000 0.224372
O O12 0.610129 0.874404 0.168353
O O13 0.575330 0.883012 0.285957
O O14 0.817417 0.250000 0.693487
O O15 0.791660 0.360145 0.604908
O O16 0.294215 0.750000 0.397062
O O17 0.312479 0.917100 0.379627
O O18 0.889815 0.520368 0.840555
O O19 0.500000 0.515111 0.340338
#
# Coordination Sequence:
#
# PCOD8297439 Si02
#       8
#    16   8  16  16  16  16  16  16
#     4  11  21  32  45  61  84 120 156 189 223 255
#     4  10  19  28  43  64  82 112 146 184 224 264
#     4  10  18  29  43  60  82 112 147 186 224 253
#     4   9  17  27  39  60  91 121 144 167 201 254
#     4   9  16  26  41  64  90 113 139 174 214 264
#     4   9  18  29  45  66  87 112 143 178 220 265
#     4  11  19  32  46  63  88 113 147 188 222 262
#     4  10  18  27  42  59  84 119 149 176 212 248
#
# _framework density 14.992929999999999
#
# number of rings (size 3 to 8) (size 9 to 14) (size 15 to 20)
#    0.000    2.133    4.000    0.600    0.000    1.867 
#    0.000    1.667    0.000    0.000    0.000    0.000 
#    0.000    9.600    0.000    2.267    0.000    0.533 
#
# Total GULP energy -743401.837577 kJ/mol
# GULP energy per Si atom -12390.030626 kJ/mol
# Density = 1.495881 g / cm^3
# Si number density = 14.992930 Si / 1000 Ang^3
#
#
#
# Elastic Constant Matrix: (Units=GPa)
#
#
# Indices 1 2 3 4 5 6 
#
# 1 112.6210 35.3804 61.2129 0.0000 0.0000 0.0000
# 2 35.3804 48.2106 34.5658 0.0000 0.0000 0.0000
# 3 61.2129 34.5658 72.9235 0.0000 0.0000 0.0000
# 4 0.0000 0.0000 0.0000 17.6531 0.0000 0.0000
# 5 0.0000 0.0000 0.0000 0.0000 24.7467 0.0000
# 6 0.0000 0.0000 0.0000 0.0000 0.0000 -8.1928
#
#
#
# Elastic Compliance Matrix: (Units=1/GPa)
#
#
# Indices 1 2 3 4 5 6 
#
# 1 0.016676 -0.003335 -0.012417 0.000000 0.000000 0.000000
# 2 -0.003335 0.032088 -0.012410 0.000000 0.000000 0.000000
# 3 -0.012417 -0.012410 0.030019 0.000000 0.000000 0.000000
# 4 0.000000 0.000000 0.000000 0.056647 0.000000 0.000000
# 5 0.000000 0.000000 0.000000 0.000000 0.040410 0.000000
# 6 0.000000 0.000000 0.000000 0.000000 0.000000 -0.122058
#
#
# Mechanical properties :
#
#
# Convention : Reuss Voigt Hill
#
# Bulk Modulus (GPa) = 44.52876 55.11927 49.82401
# Shear Modulus (GPa) = 42.51998 13.68114 28.10056
#
# Velocity S-wave (km/s) = 5.33119 3.02405 4.33396
# Velocity P-wave (km/s) = 8.22556 7.00260 7.63859
#
# Compressibility (1/GPa) = 0.02245740
#
# Stress axis : x y z
#
# Youngs Moduli (GPa) = 59.96515 31.16474 33.31275
#
# Poissons Ratio (x) = 0.10395 0.41366
# Poissons Ratio (y) = 0.20000 0.41340
# Poissons Ratio (z) = 0.74461 0.38675
#
# Static dielectric constant tensor:
#      x y z
#    x 3.371720 0.000000 0.000000 
#    y 0.000000 2.643560 0.000000 
#    z 0.000000 0.000000 2.800130 
# 
# 
# High freq. dielectric constant tensor:
#      x y z
#    x 1.582590 0.000000 0.000000 
#    y 0.000000 1.540680 0.000000 
#    z 0.000000 0.000000 1.548090 
# 
# From -- ./inp_files/54828.got.cif
#   From: 2010.03.12/outbox.cif.g09.slc.cpg/sg74_28_cif.got.tgz:54828.got - 2010.04.16 15:46:19.
