data_PCOD8297298
_publ_section_title
;
Structure prediction by ZEFSAII (Michael W. Deem and Ramdas Pophale) SiO2 
 PCOD8297298
Probable space group: I M M A
;
_chemical_formula_sum "Si O2"
_cell_formula_units_Z 96
_cell_length_a 16.704520
_cell_length_b 14.348912
_cell_length_c 26.967454
_cell_angle_alpha 90.000000
_cell_angle_beta 90.000000
_cell_angle_gamma 90.000000
_cell_volume 6463.874556
_symmetry_space_group_name_H-M "I M M A"
_symmetry_group_IT_number 74
_symmetry_cell_setting 'orthorhombic'
loop_
_space_group_symop_operation_xyz
x,y,z
-x,1/2-y,z
x,-y,-z
-x,1/2+y,-z
-x,-y,-z
x,1/2+y,-z
-x,y,z
x,1/2-y,z
1/2+x,1/2+y,1/2+z
1/2-x,-y,1/2+z
1/2+x,1/2-y,1/2-z
1/2-x,y,1/2-z
1/2-x,1/2-y,1/2-z
1/2+x,y,1/2-z
1/2-x,1/2+y,1/2+z
1/2+x,-y,1/2+z
loop_
_atom_site_type_symbol
_atom_site_label
_atom_site_fract_x
_atom_site_fract_y
_atom_site_fract_z
Si Si1 0.593885 0.452282 0.551603
Si Si2 0.405944 0.750000 0.419971
Si Si3 0.404696 0.250000 0.691065
Si Si4 0.592337 0.556794 0.266020
Si Si5 0.592467 0.250000 0.335036
Si Si6 0.807184 0.074363 0.294796
Si Si7 0.093045 0.250000 0.282568
Si Si8 0.341782 0.555013 0.644603
O O1 0.616147 0.500000 0.500000
O O2 0.500000 0.463555 0.563977
O O3 0.619564 0.343147 0.550219
O O4 0.645712 0.502957 0.593182
O O5 0.500000 0.750000 0.413199
O O6 0.368122 0.750000 0.364535
O O7 0.500000 0.250000 0.687923
O O8 0.374623 0.159155 0.720515
O O9 0.500000 0.558659 0.250312
O O10 0.643234 0.517983 0.219961
O O11 0.602050 0.490108 0.313375
O O12 0.500000 0.250000 0.349101
O O13 0.606317 0.250000 0.276276
O O14 0.633646 0.162054 0.360720
O O15 0.750000 0.107167 0.250000
O O16 0.867190 0.158775 0.306924
O O17 0.752492 0.048448 0.341922
O O18 0.000000 0.250000 0.296425
#
# Coordination Sequence:
#
# PCOD8297298 Si02
#       8
#    16   8   8  16   8  16   8  16
#     4  10  20  33  49  66  85 115 156 193 221 256
#     4   9  16  29  46  63  84 111 147 187 222 253
#     4   9  16  26  45  63  81 113 149 182 218 253
#     4  10  17  28  44  62  83 114 151 180 213 260
#     4  11  19  26  43  63  86 120 154 181 208 258
#     4  10  19  28  40  62  91 118 148 182 217 265
#     4  11  18  28  44  63  88 125 157 178 211 262
#     4  11  20  30  43  62  91 118 145 184 229 263
#
# _framework density 14.851774000000001
#
# number of rings (size 3 to 8) (size 9 to 14) (size 15 to 20)
#    0.000    1.833    5.000    2.750    0.000    0.667 
#    0.000    6.250    0.000    0.000    0.000    0.000 
#    0.000    2.667    0.000    2.167    0.000    0.000 
#
# Total GULP energy -595213.161717 kJ/mol
# GULP energy per Si atom -12400.274202 kJ/mol
# Density = 1.481797 g / cm^3
# Si number density = 14.851774 Si / 1000 Ang^3
#
#
#
# Elastic Constant Matrix: (Units=GPa)
#
#
# Indices 1 2 3 4 5 6 
#
# 1 71.8520 40.6027 38.2883 0.0000 0.0000 0.0000
# 2 40.6027 144.0070 50.1169 0.0000 0.0000 0.0000
# 3 38.2883 50.1169 73.5418 0.0000 0.0000 0.0000
# 4 0.0000 0.0000 0.0000 -1.0507 0.0000 0.0000
# 5 0.0000 0.0000 0.0000 0.0000 16.5790 0.0000
# 6 0.0000 0.0000 0.0000 0.0000 0.0000 14.2917
#
#
#
# Elastic Compliance Matrix: (Units=1/GPa)
#
#
# Indices 1 2 3 4 5 6 
#
# 1 0.019999 -0.002642 -0.008612 0.000000 0.000000 0.000000
# 2 -0.002642 0.009452 -0.005066 0.000000 0.000000 0.000000
# 3 -0.008612 -0.005066 0.021534 0.000000 0.000000 0.000000
# 4 0.000000 0.000000 0.000000 -0.951766 0.000000 0.000000
# 5 0.000000 0.000000 0.000000 0.000000 0.060317 0.000000
# 6 0.000000 0.000000 0.000000 0.000000 0.000000 0.069971
#
#
# Mechanical properties :
#
#
# Convention : Reuss Voigt Hill
#
# Bulk Modulus (GPa) = 54.50863 60.82404 57.66634
# Shear Modulus (GPa) = -6.83305 16.65686 4.91191
#
# Velocity S-wave (km/s) = -2.14728 3.35257 1.82057
# Velocity P-wave (km/s) = 5.53477 7.48527 6.58267
#
# Compressibility (1/GPa) = 0.01834572
#
# Stress axis : x y z
#
# Youngs Moduli (GPa) = 50.00127 105.79828 46.43871
#
# Poissons Ratio (x) = 0.27948 0.39994
# Poissons Ratio (y) = 0.13209 0.23525
# Poissons Ratio (z) = 0.43062 0.53597
#
# Static dielectric constant tensor:
#      x y z
#    x 2.785960 0.000000 0.000000 
#    y 0.000000 3.196990 0.000000 
#    z 0.000000 0.000000 2.570180 
# 
# 
# High freq. dielectric constant tensor:
#      x y z
#    x 1.543920 0.000000 0.000000 
#    y 0.000000 1.589950 0.000000 
#    z 0.000000 0.000000 1.520420 
# 
# From -- ./inp_files/72639.got.cif
#   From: 2010.03.12/outbox.cif.g09.slc.cpg/sg74_37_cif.got.tgz:72639.got - 2010.04.16 15:46:19.
