data_PCOD8297569
_publ_section_title
;
Structure prediction by ZEFSAII (Michael W. Deem and Ramdas Pophale) SiO2 
 PCOD8297569
Probable space group: I M M A
;
_chemical_formula_sum "Si O2"
_cell_formula_units_Z 80
_cell_length_a 23.548881
_cell_length_b 9.029714
_cell_length_c 25.807379
_cell_angle_alpha 90.000000
_cell_angle_beta 90.000000
_cell_angle_gamma 90.000000
_cell_volume 5487.672308
_symmetry_space_group_name_H-M "I M M A"
_symmetry_group_IT_number 74
_symmetry_cell_setting 'orthorhombic'
loop_
_space_group_symop_operation_xyz
x,y,z
-x,1/2-y,z
x,-y,-z
-x,1/2+y,-z
-x,-y,-z
x,1/2+y,-z
-x,y,z
x,1/2-y,z
1/2+x,1/2+y,1/2+z
1/2-x,-y,1/2+z
1/2+x,1/2-y,1/2-z
1/2-x,y,1/2-z
1/2-x,1/2-y,1/2-z
1/2+x,y,1/2-z
1/2-x,1/2+y,1/2+z
1/2+x,-y,1/2+z
loop_
_atom_site_type_symbol
_atom_site_label
_atom_site_fract_x
_atom_site_fract_y
_atom_site_fract_z
Si Si1 0.718177 0.586732 0.695645
Si Si2 0.683689 0.578860 0.152454
Si Si3 0.500000 0.073644 0.777153
Si Si4 0.614046 0.925411 0.758697
Si Si5 0.885453 0.078820 0.552640
Si Si6 0.000000 0.073839 0.604444
O O1 0.719101 0.750000 0.669915
O O2 0.750000 0.592724 0.750000
O O3 0.750644 0.472839 0.657816
O O4 0.653658 0.537452 0.708645
O O5 0.678161 0.750000 0.168560
O O6 0.642116 0.485291 0.188700
O O7 0.665173 0.553380 0.093357
O O8 0.500000 0.250000 0.772521
O O9 0.500000 0.017175 0.836518
O O10 0.554811 0.007155 0.748479
O O11 0.605617 0.750000 0.764744
O O12 0.894360 0.250000 0.540347
O O13 0.944356 0.012432 0.575202
O O14 0.867603 0.000000 0.500000
O O15 0.000000 0.250000 0.606067
#
# Coordination Sequence:
#
# PCOD8297569 Si02
#       6
#    16  16   8  16  16   8
#     4   8  16  29  43  60  83 106 132 170 209 252
#     4  10  18  29  45  62  81 106 139 178 216 253
#     4  11  19  30  46  62  85 112 141 181 215 246
#     4  10  19  30  43  62  85 109 139 171 209 256
#     4  10  20  32  44  59  80 108 142 184 222 254
#     4   9  17  32  44  54  79 107 139 182 220 246
#
# _framework density 14.57813
#
# number of rings (size 3 to 8) (size 9 to 14) (size 15 to 20)
#    0.000    2.400    2.000    3.000    0.000    6.000 
#    0.000    0.000    0.000    0.000    0.000    0.000 
#    0.000    0.000    0.000    0.900    0.000   11.800 
#
# Total GULP energy -495881.384553 kJ/mol
# GULP energy per Si atom -12397.034614 kJ/mol
# Density = 1.454495 g / cm^3
# Si number density = 14.578130 Si / 1000 Ang^3
#
#
#
# Elastic Constant Matrix: (Units=GPa)
#
#
# Indices 1 2 3 4 5 6 
#
# 1 111.7054 52.2085 47.1205 0.0000 0.0000 0.0000
# 2 52.2085 74.9441 33.8442 0.0000 0.0000 0.0000
# 3 47.1205 33.8442 50.6737 0.0000 0.0000 0.0000
# 4 0.0000 0.0000 0.0000 20.1493 0.0000 0.0000
# 5 0.0000 0.0000 0.0000 0.0000 17.5940 0.0000
# 6 0.0000 0.0000 0.0000 0.0000 0.0000 26.3214
#
#
#
# Elastic Compliance Matrix: (Units=1/GPa)
#
#
# Indices 1 2 3 4 5 6 
#
# 1 0.016758 -0.006640 -0.011149 0.000000 0.000000 0.000000
# 2 -0.006640 0.021736 -0.008343 0.000000 0.000000 0.000000
# 3 -0.011149 -0.008343 0.035673 0.000000 0.000000 0.000000
# 4 0.000000 0.000000 0.000000 0.049629 0.000000 0.000000
# 5 0.000000 0.000000 0.000000 0.000000 0.056838 0.000000
# 6 0.000000 0.000000 0.000000 0.000000 0.000000 0.037992
#
#
# Mechanical properties :
#
#
# Convention : Reuss Voigt Hill
#
# Bulk Modulus (GPa) = 45.65210 55.96327 50.80769
# Shear Modulus (GPa) = 17.97324 19.75629 18.86476
#
# Velocity S-wave (km/s) = 3.51506 3.68530 3.60119
# Velocity P-wave (km/s) = 6.91792 7.52200 7.22627
#
# Compressibility (1/GPa) = 0.02190480
#
# Stress axis : x y z
#
# Youngs Moduli (GPa) = 59.67269 46.00568 28.03221
#
# Poissons Ratio (x) = 0.30546 0.31252
# Poissons Ratio (y) = 0.39621 0.23388
# Poissons Ratio (z) = 0.66526 0.38384
#
# Static dielectric constant tensor:
#      x y z
#    x 3.143000 0.000000 0.000000 
#    y 0.000000 2.864130 0.000000 
#    z 0.000000 0.000000 2.571330 
# 
# 
# High freq. dielectric constant tensor:
#      x y z
#    x 1.553860 0.000000 0.000000 
#    y 0.000000 1.562530 0.000000 
#    z 0.000000 0.000000 1.509620 
# 
# From -- ./inp_files/48620.got.cif
#   From: 2010.03.12/outbox.cif.g09.slc.cpg/sg74_25_cif.got.tgz:48620.got - 2010.04.16 15:46:19.
