data_PCOD8297414
_publ_section_title
;
Structure prediction by ZEFSAII (Michael W. Deem and Ramdas Pophale) SiO2 
 PCOD8297414
Probable space group: I M M A
;
_chemical_formula_sum "Si O2"
_cell_formula_units_Z 96
_cell_length_a 20.157199
_cell_length_b 22.745836
_cell_length_c 13.578967
_cell_angle_alpha 90.000000
_cell_angle_beta 90.000000
_cell_angle_gamma 90.000000
_cell_volume 6225.852391
_symmetry_space_group_name_H-M "I M M A"
_symmetry_group_IT_number 74
_symmetry_cell_setting 'orthorhombic'
loop_
_space_group_symop_operation_xyz
x,y,z
-x,1/2-y,z
x,-y,-z
-x,1/2+y,-z
-x,-y,-z
x,1/2+y,-z
-x,y,z
x,1/2-y,z
1/2+x,1/2+y,1/2+z
1/2-x,-y,1/2+z
1/2+x,1/2-y,1/2-z
1/2-x,y,1/2-z
1/2-x,1/2-y,1/2-z
1/2+x,y,1/2-z
1/2-x,1/2+y,1/2+z
1/2+x,-y,1/2+z
loop_
_atom_site_type_symbol
_atom_site_label
_atom_site_fract_x
_atom_site_fract_y
_atom_site_fract_z
Si Si1 0.399956 0.559596 0.959948
Si Si2 0.927165 0.620417 0.357322
Si Si3 0.425544 0.493299 0.234255
Si Si4 0.706991 0.817388 0.153349
Si Si5 0.795086 0.523387 0.844147
Si Si6 0.245851 0.079486 0.522589
O O1 0.417661 0.560561 0.844142
O O2 0.433849 0.500000 0.000000
O O3 0.428783 0.614506 0.022830
O O4 0.321783 0.556332 0.975719
O O5 0.909271 0.556286 0.314825
O O6 0.869487 0.664893 0.324000
O O7 0.000000 0.642680 0.321546
O O8 0.500000 0.492433 0.278392
O O9 0.372534 0.483312 0.319605
O O10 0.709042 0.750000 0.120014
O O11 0.750000 0.828430 0.250000
O O12 0.738660 0.854629 0.063917
O O13 0.750000 0.540427 0.750000
O O14 0.768248 0.462055 0.887863
O O15 0.794847 0.574468 0.928398
#
# Coordination Sequence:
#
# PCOD8297414 Si02
#       6
#    16  16  16  16  16  16
#     4   9  13  25  40  64  92 118 148 178 224 275
#     4   9  17  27  43  67  95 123 148 186 234 284
#     4  10  18  26  41  68 100 126 151 184 230 283
#     4  10  20  33  49  67  91 122 158 198 236 275
#     4  11  17  28  47  70  95 125 157 188 227 286
#     4  10  18  28  46  69  90 120 160 193 225 273
#
# _framework density 15.419575
#
# number of rings (size 3 to 8) (size 9 to 14) (size 15 to 20)
#    0.000    2.167    3.333    4.000    0.000    2.333 
#    0.000    1.667    0.000    1.500    0.000    0.000 
#    0.000    0.000    0.000    0.000    0.000    0.000 
#
# Total GULP energy -594696.685322 kJ/mol
# GULP energy per Si atom -12389.514278 kJ/mol
# Density = 1.538448 g / cm^3
# Si number density = 15.419575 Si / 1000 Ang^3
#
#
#
# Elastic Constant Matrix: (Units=GPa)
#
#
# Indices 1 2 3 4 5 6 
#
# 1 115.7575 38.5924 45.2303 0.0000 0.0000 0.0000
# 2 38.5924 76.8485 39.8803 0.0000 0.0000 0.0000
# 3 45.2303 39.8803 75.9283 0.0000 0.0000 0.0000
# 4 0.0000 0.0000 0.0000 19.2303 0.0000 0.0000
# 5 0.0000 0.0000 0.0000 0.0000 22.4188 0.0000
# 6 0.0000 0.0000 0.0000 0.0000 0.0000 14.6061
#
#
#
# Elastic Compliance Matrix: (Units=1/GPa)
#
#
# Indices 1 2 3 4 5 6 
#
# 1 0.011782 -0.003127 -0.005376 0.000000 0.000000 0.000000
# 2 -0.003127 0.018718 -0.007969 0.000000 0.000000 0.000000
# 3 -0.005376 -0.007969 0.020558 0.000000 0.000000 0.000000
# 4 0.000000 0.000000 0.000000 0.052001 0.000000 0.000000
# 5 0.000000 0.000000 0.000000 0.000000 0.044605 0.000000
# 6 0.000000 0.000000 0.000000 0.000000 0.000000 0.068464
#
#
# Mechanical properties :
#
#
# Convention : Reuss Voigt Hill
#
# Bulk Modulus (GPa) = 55.20305 57.32668 56.26487
# Shear Modulus (GPa) = 19.59930 20.90649 20.25289
#
# Velocity S-wave (km/s) = 3.56907 3.68617 3.62809
# Velocity P-wave (km/s) = 7.27067 7.44148 7.35657
#
# Compressibility (1/GPa) = 0.01811494
#
# Stress axis : x y z
#
# Youngs Moduli (GPa) = 84.87664 53.42373 48.64188
#
# Poissons Ratio (x) = 0.16704 0.26150
# Poissons Ratio (y) = 0.26539 0.38762
# Poissons Ratio (z) = 0.45631 0.42573
#
# Static dielectric constant tensor:
#      x y z
#    x 3.076650 0.000000 0.000000 
#    y 0.000000 2.634830 0.000000 
#    z 0.000000 0.000000 2.938470 
# 
# 
# High freq. dielectric constant tensor:
#      x y z
#    x 1.602720 0.000000 0.000000 
#    y 0.000000 1.542960 0.000000 
#    z 0.000000 0.000000 1.577030 
# 
# From -- ./inp_files/35604.got.cif
#   From: 2010.03.12/outbox.cif.g09.slc.cpg/sg74_18_cif.got.tgz:35604.got - 2010.04.16 15:46:19.
