data_PCOD8297345
_publ_section_title
;
Structure prediction by ZEFSAII (Michael W. Deem and Ramdas Pophale) SiO2 
 PCOD8297345
Probable space group: I M M A
;
_chemical_formula_sum "Si O2"
_cell_formula_units_Z 120
_cell_length_a 15.403052
_cell_length_b 14.189392
_cell_length_c 26.816942
_cell_angle_alpha 90.000000
_cell_angle_beta 90.000000
_cell_angle_gamma 90.000000
_cell_volume 5861.109310
_symmetry_space_group_name_H-M "I M M A"
_symmetry_group_IT_number 74
_symmetry_cell_setting 'orthorhombic'
loop_
_space_group_symop_operation_xyz
x,y,z
-x,1/2-y,z
x,-y,-z
-x,1/2+y,-z
-x,-y,-z
x,1/2+y,-z
-x,y,z
x,1/2-y,z
1/2+x,1/2+y,1/2+z
1/2-x,-y,1/2+z
1/2+x,1/2-y,1/2-z
1/2-x,y,1/2-z
1/2-x,1/2-y,1/2-z
1/2+x,y,1/2-z
1/2-x,1/2+y,1/2+z
1/2+x,-y,1/2+z
loop_
_atom_site_type_symbol
_atom_site_label
_atom_site_fract_x
_atom_site_fract_y
_atom_site_fract_z
Si Si1 0.095543 0.002728 0.165221
Si Si2 0.899302 0.355347 0.750431
Si Si3 0.271412 0.861039 0.616997
Si Si4 0.145120 0.854865 0.095673
Si Si5 0.832456 0.644591 0.356437
Si Si6 0.863739 0.500000 0.500000
Si Si7 0.225663 0.144310 0.004272
Si Si8 0.907030 0.959978 0.605928
O O1 0.127320 0.936519 0.210550
O O2 0.082473 0.934697 0.117160
O O3 0.000000 0.047008 0.175857
O O4 0.164704 0.085982 0.155359
O O5 0.886092 0.250000 0.773714
O O6 0.835276 0.366450 0.703454
O O7 0.000000 0.367656 0.734198
O O8 0.277658 0.750000 0.627773
O O9 0.301005 0.887629 0.560328
O O10 0.171988 0.894852 0.625189
O O11 0.111792 0.750000 0.109086
O O12 0.237153 0.875128 0.122349
O O13 0.147299 0.864456 0.035281
O O14 0.863243 0.750000 0.371644
O O15 0.897763 0.568109 0.378351
O O16 0.802321 0.583773 0.480258
O O17 0.917972 0.459728 0.454036
O O18 0.261310 0.250000 0.007326
O O19 0.000000 0.921738 0.626804
#
# Coordination Sequence:
#
# PCOD8297345 Si02
#       8
#    16  16  16  16  16   8  16  16
#     4  11  22  38  59  83 111 150 195 243 296 347
#     4   9  19  35  56  87 124 156 186 227 283 349
#     4  10  22  41  60  79 107 148 198 250 296 336
#     4  10  18  32  55  86 118 152 188 222 276 347
#     4  10  19  34  58  87 121 156 186 217 269 344
#     4  10  17  30  48  78 115 150 195 234 270 330
#     4   9  17  32  55  77 110 153 188 232 286 336
#     4  11  21  34  55  83 117 155 192 233 282 339
#
# _framework density 20.473939000000001
#
# number of rings (size 3 to 8) (size 9 to 14) (size 15 to 20)
#    0.000    2.000    2.667    1.800    0.000    2.667 
#    0.000    3.333    0.000    6.400    0.000    1.867 
#    0.000    0.000    0.000    0.000    0.000    0.000 
#
# Total GULP energy -743478.417168 kJ/mol
# GULP energy per Si atom -12391.306953 kJ/mol
# Density = 2.042734 g / cm^3
# Si number density = 20.473939 Si / 1000 Ang^3
#
#
#
# Elastic Constant Matrix: (Units=GPa)
#
#
# Indices 1 2 3 4 5 6 
#
# 1 86.9419 40.0789 30.0033 0.0000 0.0000 0.0000
# 2 40.0789 100.9026 33.4024 0.0000 0.0000 0.0000
# 3 30.0033 33.4024 75.7121 0.0000 0.0000 0.0000
# 4 0.0000 0.0000 0.0000 33.0926 0.0000 0.0000
# 5 0.0000 0.0000 0.0000 0.0000 -9.6398 0.0000
# 6 0.0000 0.0000 0.0000 0.0000 0.0000 -1.0888
#
#
#
# Elastic Compliance Matrix: (Units=1/GPa)
#
#
# Indices 1 2 3 4 5 6 
#
# 1 0.014995 -0.004671 -0.003881 0.000000 0.000000 0.000000
# 2 -0.004671 0.013061 -0.003911 0.000000 0.000000 0.000000
# 3 -0.003881 -0.003911 0.016471 0.000000 0.000000 0.000000
# 4 0.000000 0.000000 0.000000 0.030218 0.000000 0.000000
# 5 0.000000 0.000000 0.000000 0.000000 -0.103736 0.000000
# 6 0.000000 0.000000 0.000000 0.000000 0.000000 -0.918458
#
#
# Mechanical properties :
#
#
# Convention : Reuss Voigt Hill
#
# Bulk Modulus (GPa) = 51.02053 52.28066 51.65059
# Shear Modulus (GPa) = -5.45858 15.14427 4.84284
#
# Velocity S-wave (km/s) = -1.63459 2.72267 1.53964
# Velocity P-wave (km/s) = 4.62724 5.95605 5.33319
#
# Compressibility (1/GPa) = 0.01959995
#
# Stress axis : x y z
#
# Youngs Moduli (GPa) = 66.69040 76.56619 60.71104
#
# Poissons Ratio (x) = 0.35765 0.23564
# Poissons Ratio (y) = 0.31152 0.23744
# Poissons Ratio (z) = 0.25885 0.29945
#
# Static dielectric constant tensor:
#      x y z
#    x 3.507330 0.000000 0.000000 
#    y 0.000000 3.704470 0.000000 
#    z 0.000000 0.000000 3.691940 
# 
# 
# High freq. dielectric constant tensor:
#      x y z
#    x 1.778520 0.000000 0.000000 
#    y 0.000000 1.792900 0.000000 
#    z 0.000000 0.000000 1.790790 
# 
# From -- ./inp_files/72745.got.cif
#   From: 2010.03.12/outbox.cif.g09.slc.cpg/sg74_37_cif.got.tgz:72745.got - 2010.04.16 15:46:19.
