data_PCOD8297139
_publ_section_title
;
Structure prediction by ZEFSAII (Michael W. Deem and Ramdas Pophale) SiO2 
 PCOD8297139
Probable space group: I M M A
;
_chemical_formula_sum "Si O2"
_cell_formula_units_Z 60
_cell_length_a 24.841818
_cell_length_b 7.723286
_cell_length_c 18.638518
_cell_angle_alpha 90.000000
_cell_angle_beta 90.000000
_cell_angle_gamma 90.000000
_cell_volume 3575.994734
_symmetry_space_group_name_H-M "I M M A"
_symmetry_group_IT_number 74
_symmetry_cell_setting 'orthorhombic'
loop_
_space_group_symop_operation_xyz
x,y,z
-x,1/2-y,z
x,-y,-z
-x,1/2+y,-z
-x,-y,-z
x,1/2+y,-z
-x,y,z
x,1/2-y,z
1/2+x,1/2+y,1/2+z
1/2-x,-y,1/2+z
1/2+x,1/2-y,1/2-z
1/2-x,y,1/2-z
1/2-x,1/2-y,1/2-z
1/2+x,y,1/2-z
1/2-x,1/2+y,1/2+z
1/2+x,-y,1/2+z
loop_
_atom_site_type_symbol
_atom_site_label
_atom_site_fract_x
_atom_site_fract_y
_atom_site_fract_z
Si Si1 0.273374 0.750000 0.670862
Si Si2 0.615184 0.250000 0.267182
Si Si3 0.388542 0.440737 0.127603
Si Si4 0.000000 0.250000 0.231748
Si Si5 0.500000 0.556991 0.156815
Si Si6 0.723166 0.054903 0.919491
O O1 0.250000 0.750000 0.750000
O O2 0.338252 0.750000 0.673504
O O3 0.253824 0.576772 0.632317
O O4 0.618902 0.081434 0.214536
O O5 0.557219 0.250000 0.310416
O O6 0.386820 0.250000 0.091176
O O7 0.445800 0.530189 0.109568
O O8 0.340707 0.553931 0.095065
O O9 0.000000 0.418939 0.280458
O O10 0.500000 0.750000 0.189047
O O11 0.744266 0.250000 0.905897
O O12 0.736104 0.000000 0.000000
#
# Coordination Sequence:
#
# PCOD8297139 Si02
#       6
#     8   8  16   4   8  16
#     4  12  20  40  56  84 117 140 191 236 268 328
#     4   8  16  32  58  76 110 146 170 236 268 320
#     4   9  16  33  50  71 107 142 184 227 271 314
#     4   8  16  32  48  78 110 138 176 216 294 308
#     4  10  16  26  47  73 101 145 186 225 262 314
#     4  12  23  37  56  78 112 154 185 226 287 333
#
# _framework density 16.778549000000002
#
# number of rings (size 3 to 8) (size 9 to 14) (size 15 to 20)
#    0.800    1.067    6.667    0.800    0.000    0.533 
#    0.000    2.000    0.000    0.000    0.000    0.933 
#    0.000    0.000    0.000    0.000    0.000    0.000 
#
# Total GULP energy -371647.002539 kJ/mol
# GULP energy per Si atom -12388.233418 kJ/mol
# Density = 1.674036 g / cm^3
# Si number density = 16.778549 Si / 1000 Ang^3
#
#
#
# Elastic Constant Matrix: (Units=GPa)
#
#
# Indices 1 2 3 4 5 6 
#
# 1 120.1521 35.2801 41.9075 0.0000 0.0000 0.0000
# 2 35.2801 137.9124 35.6361 0.0000 0.0000 0.0000
# 3 41.9075 35.6361 69.6365 0.0000 0.0000 0.0000
# 4 0.0000 0.0000 0.0000 21.4952 0.0000 0.0000
# 5 0.0000 0.0000 0.0000 0.0000 12.4933 0.0000
# 6 0.0000 0.0000 0.0000 0.0000 0.0000 13.6914
#
#
#
# Elastic Compliance Matrix: (Units=1/GPa)
#
#
# Indices 1 2 3 4 5 6 
#
# 1 0.010714 -0.001239 -0.005814 0.000000 0.000000 0.000000
# 2 -0.001239 0.008499 -0.003604 0.000000 0.000000 0.000000
# 3 -0.005814 -0.003604 0.019704 0.000000 0.000000 0.000000
# 4 0.000000 0.000000 0.000000 0.046522 0.000000 0.000000
# 5 0.000000 0.000000 0.000000 0.000000 0.080043 0.000000
# 6 0.000000 0.000000 0.000000 0.000000 0.000000 0.073038
#
#
# Mechanical properties :
#
#
# Convention : Reuss Voigt Hill
#
# Bulk Modulus (GPa) = 56.80633 61.48316 59.14475
# Shear Modulus (GPa) = 18.81808 23.86112 21.33960
#
# Velocity S-wave (km/s) = 3.35260 3.77519 3.57015
# Velocity P-wave (km/s) = 6.99404 7.46500 7.23335
#
# Compressibility (1/GPa) = 0.01760367
#
# Stress axis : x y z
#
# Youngs Moduli (GPa) = 93.33282 117.65978 50.75226
#
# Poissons Ratio (x) = 0.14573 0.29508
# Poissons Ratio (y) = 0.11560 0.18291
# Poissons Ratio (z) = 0.54265 0.42405
#
# Static dielectric constant tensor:
#      x y z
#    x 3.523820 0.000000 0.000000 
#    y 0.000000 3.191530 0.000000 
#    z 0.000000 0.000000 2.766160 
# 
# 
# High freq. dielectric constant tensor:
#      x y z
#    x 1.654190 0.000000 0.000000 
#    y 0.000000 1.649970 0.000000 
#    z 0.000000 0.000000 1.586590 
# 
# From -- ./inp_files/46411.got.cif
#   From: 2010.03.12/outbox.cif.g09.slc.cpg/sg74_24_cif.got.tgz:46411.got - 2010.04.16 15:46:19.
