data_PCOD8297813
_publ_section_title
;
Structure prediction by ZEFSAII (Michael W. Deem and Ramdas Pophale) SiO2 
 PCOD8297813
Probable space group: I M M A
;
_chemical_formula_sum "Si O2"
_cell_formula_units_Z 112
_cell_length_a 27.226665
_cell_length_b 16.518985
_cell_length_c 14.468749
_cell_angle_alpha 90.000000
_cell_angle_beta 90.000000
_cell_angle_gamma 90.000000
_cell_volume 6507.419274
_symmetry_space_group_name_H-M "I M M A"
_symmetry_group_IT_number 74
_symmetry_cell_setting 'orthorhombic'
loop_
_space_group_symop_operation_xyz
x,y,z
-x,1/2-y,z
x,-y,-z
-x,1/2+y,-z
-x,-y,-z
x,1/2+y,-z
-x,y,z
x,1/2-y,z
1/2+x,1/2+y,1/2+z
1/2-x,-y,1/2+z
1/2+x,1/2-y,1/2-z
1/2-x,y,1/2-z
1/2-x,1/2-y,1/2-z
1/2+x,y,1/2-z
1/2-x,1/2+y,1/2+z
1/2+x,-y,1/2+z
loop_
_atom_site_type_symbol
_atom_site_label
_atom_site_fract_x
_atom_site_fract_y
_atom_site_fract_z
Si Si1 0.194223 0.153552 0.427115
Si Si2 0.290895 0.655600 0.133517
Si Si3 0.445255 0.153571 0.375388
Si Si4 0.686210 0.089732 0.679274
Si Si5 0.365464 0.345533 0.518927
Si Si6 0.703252 0.094312 0.369242
Si Si7 0.630228 0.658612 0.768090
O O1 0.202392 0.250000 0.420534
O O2 0.189540 0.125976 0.533435
O O3 0.239046 0.109154 0.376235
O O4 0.145302 0.125089 0.369929
O O5 0.300849 0.750000 0.147124
O O6 0.321200 0.607155 0.211771
O O7 0.233029 0.639317 0.141989
O O8 0.500000 0.116347 0.377762
O O9 0.447334 0.250000 0.367671
O O10 0.416923 0.129916 0.470238
O O11 0.415549 0.116247 0.286371
O O12 0.637815 0.121824 0.624229
O O13 0.693705 0.995268 0.667018
O O14 0.357233 0.250000 0.514212
O O15 0.320428 0.391227 0.469324
O O16 0.678201 0.155783 0.297292
O O17 0.613959 0.750000 0.782148
#
# Coordination Sequence:
#
# PCOD8297813 Si02
#       7
#    16  16  16  16  16  16  16
#     4  10  19  31  47  65  92 130 164 194 230 282
#     4  10  21  34  46  60  88 130 171 197 223 265
#     4   8  15  29  50  75  96 116 151 200 250 299
#     4  11  21  31  44  65  91 128 166 202 227 263
#     4  10  18  31  50  68  93 128 160 193 238 289
#     4  11  20  29  43  67  97 124 157 195 232 274
#     4   9  18  30  47  68  94 124 152 188 242 295
#
# _framework density 17.211124000000002
#
# number of rings (size 3 to 8) (size 9 to 14) (size 15 to 20)
#    0.000    2.143    1.429    4.714    4.000    1.143 
#    0.000    0.000    0.000    6.857    0.000    1.000 
#    0.000   10.286    0.000    0.000    0.000    0.000 
#
# Total GULP energy -693940.497672 kJ/mol
# GULP energy per Si atom -12391.794601 kJ/mol
# Density = 1.717195 g / cm^3
# Si number density = 17.211124 Si / 1000 Ang^3
#
#
#
# Elastic Constant Matrix: (Units=GPa)
#
#
# Indices 1 2 3 4 5 6 
#
# 1 100.7531 13.9041 62.6842 0.0000 0.0000 0.0000
# 2 13.9041 39.1857 8.1521 0.0000 0.0000 0.0000
# 3 62.6842 8.1521 122.8604 0.0000 0.0000 0.0000
# 4 0.0000 0.0000 0.0000 11.7028 0.0000 0.0000
# 5 0.0000 0.0000 0.0000 0.0000 19.2487 0.0000
# 6 0.0000 0.0000 0.0000 0.0000 0.0000 4.6629
#
#
#
# Elastic Compliance Matrix: (Units=1/GPa)
#
#
# Indices 1 2 3 4 5 6 
#
# 1 0.015080 -0.003803 -0.007441 0.000000 0.000000 0.000000
# 2 -0.003803 0.026836 0.000159 0.000000 0.000000 0.000000
# 3 -0.007441 0.000159 0.011925 0.000000 0.000000 0.000000
# 4 0.000000 0.000000 0.000000 0.085450 0.000000 0.000000
# 5 0.000000 0.000000 0.000000 0.000000 0.051951 0.000000
# 6 0.000000 0.000000 0.000000 0.000000 0.000000 0.214460
#
#
# Mechanical properties :
#
#
# Convention : Reuss Voigt Hill
#
# Bulk Modulus (GPa) = 31.57399 48.03111 39.80255
# Shear Modulus (GPa) = 11.40438 18.99348 15.19893
#
# Velocity S-wave (km/s) = 2.57693 3.32559 2.97490
# Velocity P-wave (km/s) = 5.21910 6.53557 5.91408
#
# Compressibility (1/GPa) = 0.03167164
#
# Stress axis : x y z
#
# Youngs Moduli (GPa) = 66.31399 37.26396 83.85444
#
# Poissons Ratio (x) = 0.14170 0.62400
# Poissons Ratio (y) = 0.25216 -0.01337
# Poissons Ratio (z) = 0.49347 -0.00594
#
# Static dielectric constant tensor:
#      x y z
#    x 3.141110 0.000000 0.000000 
#    y 0.000000 3.021330 0.000000 
#    z 0.000000 0.000000 3.607620 
# 
# 
# High freq. dielectric constant tensor:
#      x y z
#    x 1.611640 0.000000 0.000000 
#    y 0.000000 1.648910 0.000000 
#    z 0.000000 0.000000 1.674610 
# 
# From -- ./inp_files/32885.got.cif
#   From: 2010.03.12/outbox.cif.g09.slc.cpg/sg74_17_cif.got.tgz:32885.got - 2010.04.16 15:46:19.
