data_PCOD8297165
_publ_section_title
;
Structure prediction by ZEFSAII (Michael W. Deem and Ramdas Pophale) SiO2 
 PCOD8297165
Probable space group: I M M A
;
_chemical_formula_sum "Si O2"
_cell_formula_units_Z 88
_cell_length_a 19.567034
_cell_length_b 9.173020
_cell_length_c 27.235082
_cell_angle_alpha 90.000000
_cell_angle_beta 90.000000
_cell_angle_gamma 90.000000
_cell_volume 4888.392029
_symmetry_space_group_name_H-M "I M M A"
_symmetry_group_IT_number 74
_symmetry_cell_setting 'orthorhombic'
loop_
_space_group_symop_operation_xyz
x,y,z
-x,1/2-y,z
x,-y,-z
-x,1/2+y,-z
-x,-y,-z
x,1/2+y,-z
-x,y,z
x,1/2-y,z
1/2+x,1/2+y,1/2+z
1/2-x,-y,1/2+z
1/2+x,1/2-y,1/2-z
1/2-x,y,1/2-z
1/2-x,1/2-y,1/2-z
1/2+x,y,1/2-z
1/2-x,1/2+y,1/2+z
1/2+x,-y,1/2+z
loop_
_atom_site_type_symbol
_atom_site_label
_atom_site_fract_x
_atom_site_fract_y
_atom_site_fract_z
Si Si1 0.000000 0.088128 0.396793
Si Si2 0.000000 0.003875 0.710625
Si Si3 0.365590 0.079660 0.674005
Si Si4 0.135932 0.424925 0.447693
Si Si5 0.773942 0.921171 0.373234
Si Si6 0.500000 0.086089 0.319742
Si Si7 0.851675 0.410261 0.719244
O O1 0.069103 0.016043 0.418178
O O2 0.000000 0.250000 0.417887
O O3 0.000000 0.095464 0.337865
O O4 0.000000 0.908932 0.760359
O O5 0.932659 0.102635 0.709145
O O6 0.384328 0.250000 0.680103
O O7 0.307245 0.055168 0.633445
O O8 0.339115 0.017932 0.727139
O O9 0.433606 0.994496 0.658236
O O10 0.133476 0.500000 0.500000
O O11 0.140416 0.250000 0.451796
O O12 0.202861 0.485421 0.419939
O O13 0.791353 0.750000 0.380971
O O14 0.812803 0.989976 0.325434
O O15 0.500000 0.250000 0.339707
O O16 0.819108 0.250000 0.720442
#
# Coordination Sequence:
#
# PCOD8297165 Si02
#       7
#     8   8  16  16  16   8  16
#     4  10  20  34  51  69  98 137 180 220 263 302
#     4  10  16  29  46  69 104 140 179 214 258 292
#     4   9  18  32  51  74 105 138 170 207 254 308
#     4  11  23  39  55  74 100 135 176 225 270 312
#     4  10  19  33  53  77 101 132 171 215 262 312
#     4  10  20  31  49  74 107 140 175 213 250 301
#     4   9  16  27  46  73 102 135 175 213 249 297
#
# _framework density 18.001829000000001
#
# number of rings (size 3 to 8) (size 9 to 14) (size 15 to 20)
#    0.000    2.182    1.818    2.182    0.000    5.091 
#    0.000    1.364    0.000    3.273    0.000    0.636 
#    0.000    0.000    0.000    0.000    0.000    0.000 
#
# Total GULP energy -545303.804827 kJ/mol
# GULP energy per Si atom -12393.268292 kJ/mol
# Density = 1.796086 g / cm^3
# Si number density = 18.001829 Si / 1000 Ang^3
#
#
#
# Elastic Constant Matrix: (Units=GPa)
#
#
# Indices 1 2 3 4 5 6 
#
# 1 108.8697 40.5319 46.5609 0.0000 0.0000 0.0000
# 2 40.5319 73.0004 25.9850 0.0000 0.0000 0.0000
# 3 46.5609 25.9850 67.0306 0.0000 0.0000 0.0000
# 4 0.0000 0.0000 0.0000 21.0335 0.0000 0.0000
# 5 0.0000 0.0000 0.0000 0.0000 25.5107 0.0000
# 6 0.0000 0.0000 0.0000 0.0000 0.0000 22.1784
#
#
#
# Elastic Compliance Matrix: (Units=1/GPa)
#
#
# Indices 1 2 3 4 5 6 
#
# 1 0.014600 -0.005216 -0.008119 0.000000 0.000000 0.000000
# 2 -0.005216 0.017755 -0.003260 0.000000 0.000000 0.000000
# 3 -0.008119 -0.003260 0.021822 0.000000 0.000000 0.000000
# 4 0.000000 0.000000 0.000000 0.047543 0.000000 0.000000
# 5 0.000000 0.000000 0.000000 0.000000 0.039199 0.000000
# 6 0.000000 0.000000 0.000000 0.000000 0.000000 0.045089
#
#
# Mechanical properties :
#
#
# Convention : Reuss Voigt Hill
#
# Bulk Modulus (GPa) = 47.64914 52.78403 50.21658
# Shear Modulus (GPa) = 22.10501 22.79938 22.45219
#
# Velocity S-wave (km/s) = 3.50799 3.56266 3.53543
# Velocity P-wave (km/s) = 6.55244 6.80504 6.67993
#
# Compressibility (1/GPa) = 0.02098674
#
# Stress axis : x y z
#
# Youngs Moduli (GPa) = 68.49529 56.32231 45.82543
#
# Poissons Ratio (x) = 0.29378 0.37206
# Poissons Ratio (y) = 0.35727 0.14938
# Poissons Ratio (z) = 0.55612 0.18359
#
# Static dielectric constant tensor:
#      x y z
#    x 3.400770 0.000000 0.000000 
#    y 0.000000 3.010850 0.000000 
#    z 0.000000 0.000000 3.083430 
# 
# 
# High freq. dielectric constant tensor:
#      x y z
#    x 1.701810 0.000000 0.000000 
#    y 0.000000 1.669870 0.000000 
#    z 0.000000 0.000000 1.666200 
# 
# From -- ./inp_files/70508.got.cif
#   From: 2010.03.12/outbox.cif.g09.slc.cpg/sg74_36_cif.got.tgz:70508.got - 2010.04.16 15:46:19.
