data_PCOD8297263
_publ_section_title
;
Structure prediction by ZEFSAII (Michael W. Deem and Ramdas Pophale) SiO2 
 PCOD8297263
Probable space group: I M M A
;
_chemical_formula_sum "Si O2"
_cell_formula_units_Z 96
_cell_length_a 26.230137
_cell_length_b 9.297283
_cell_length_c 28.323871
_cell_angle_alpha 90.000000
_cell_angle_beta 90.000000
_cell_angle_gamma 90.000000
_cell_volume 6907.314290
_symmetry_space_group_name_H-M "I M M A"
_symmetry_group_IT_number 74
_symmetry_cell_setting 'orthorhombic'
loop_
_space_group_symop_operation_xyz
x,y,z
-x,1/2-y,z
x,-y,-z
-x,1/2+y,-z
-x,-y,-z
x,1/2+y,-z
-x,y,z
x,1/2-y,z
1/2+x,1/2+y,1/2+z
1/2-x,-y,1/2+z
1/2+x,1/2-y,1/2-z
1/2-x,y,1/2-z
1/2-x,1/2-y,1/2-z
1/2+x,y,1/2-z
1/2-x,1/2+y,1/2+z
1/2+x,-y,1/2+z
loop_
_atom_site_type_symbol
_atom_site_label
_atom_site_fract_x
_atom_site_fract_y
_atom_site_fract_z
Si Si1 0.701498 0.908443 0.216200
Si Si2 0.941284 0.915873 0.854310
Si Si3 0.215522 0.585621 0.956019
Si Si4 0.401476 0.917408 0.545188
Si Si5 0.354647 0.920084 0.305921
Si Si6 0.238643 0.582111 0.852433
O O1 0.693216 0.750000 0.193767
O O2 0.750000 0.905134 0.250000
O O3 0.653971 0.950890 0.249869
O O4 0.710994 0.022970 0.174395
O O5 0.924097 0.750000 0.848192
O O6 0.932277 0.964382 0.908311
O O7 0.000000 0.937293 0.841074
O O8 0.909458 0.015908 0.818971
O O9 0.217954 0.750000 0.970989
O O10 0.157271 0.538240 0.946812
O O11 0.247249 0.556893 0.908225
O O12 0.239782 0.500000 0.000000
O O13 0.408066 0.750000 0.535096
O O14 0.424388 0.000000 0.500000
O O15 0.352265 0.750000 0.316375
O O16 0.311719 0.997759 0.336973
O O17 0.231110 0.750000 0.840770
#
# Coordination Sequence:
#
# PCOD8297263 Si02
#       6
#    16  16  16  16  16  16
#     4   8  16  28  40  59  81 100 122 152 193 234
#     4  10  20  33  46  58  75  99 128 166 209 246
#     4   9  17  27  39  56  78 102 130 161 195 234
#     4   9  17  30  42  55  73  95 126 165 206 244
#     4  10  19  30  43  58  79 101 125 160 197 239
#     4  10  17  27  43  62  80 100 128 160 193 233
#
# _framework density 13.89831
#
# number of rings (size 3 to 8) (size 9 to 14) (size 15 to 20)
#    0.000    2.667    1.667    2.000    0.000    6.333 
#    0.000    0.000    0.000    0.000    0.000    0.000 
#    0.000    0.000    0.000    0.000    0.000    0.833 
#
# Total GULP energy -595024.796108 kJ/mol
# GULP energy per Si atom -12396.349919 kJ/mol
# Density = 1.386668 g / cm^3
# Si number density = 13.898310 Si / 1000 Ang^3
#
#
#
# Elastic Constant Matrix: (Units=GPa)
#
#
# Indices 1 2 3 4 5 6 
#
# 1 45.4054 34.7058 41.9174 0.0000 0.0000 0.0000
# 2 34.7058 80.7589 56.9787 0.0000 0.0000 0.0000
# 3 41.9174 56.9787 84.0637 0.0000 0.0000 0.0000
# 4 0.0000 0.0000 0.0000 26.8646 0.0000 0.0000
# 5 0.0000 0.0000 0.0000 0.0000 19.0960 0.0000
# 6 0.0000 0.0000 0.0000 0.0000 0.0000 13.0669
#
#
#
# Elastic Compliance Matrix: (Units=1/GPa)
#
#
# Indices 1 2 3 4 5 6 
#
# 1 0.042438 -0.006339 -0.016865 0.000000 0.000000 0.000000
# 2 -0.006339 0.024678 -0.013566 0.000000 0.000000 0.000000
# 3 -0.016865 -0.013566 0.029500 0.000000 0.000000 0.000000
# 4 0.000000 0.000000 0.000000 0.037224 0.000000 0.000000
# 5 0.000000 0.000000 0.000000 0.000000 0.052367 0.000000
# 6 0.000000 0.000000 0.000000 0.000000 0.000000 0.076529
#
#
# Mechanical properties :
#
#
# Convention : Reuss Voigt Hill
#
# Bulk Modulus (GPa) = 43.33300 53.04799 48.19050
# Shear Modulus (GPa) = 14.53621 16.91391 15.72506
#
# Velocity S-wave (km/s) = 3.23754 3.49230 3.36733
# Velocity P-wave (km/s) = 6.72472 7.38330 7.06169
#
# Compressibility (1/GPa) = 0.02307710
#
# Stress axis : x y z
#
# Youngs Moduli (GPa) = 23.56361 40.52179 33.89780
#
# Poissons Ratio (x) = 0.25686 0.57168
# Poissons Ratio (y) = 0.14936 0.45986
# Poissons Ratio (z) = 0.39740 0.54972
#
# Static dielectric constant tensor:
#      x y z
#    x 2.507890 0.000000 0.000000 
#    y 0.000000 2.835030 0.000000 
#    z 0.000000 0.000000 2.892510 
# 
# 
# High freq. dielectric constant tensor:
#      x y z
#    x 1.477440 0.000000 0.000000 
#    y 0.000000 1.540510 0.000000 
#    z 0.000000 0.000000 1.521810 
# 
# From -- ./inp_files/64932.got.cif
#   From: 2010.03.12/outbox.cif.g09.slc.cpg/sg74_33_cif.got.tgz:64932.got - 2010.04.16 15:46:19.
