data_PCOD8297098
_publ_section_title
;
Structure prediction by ZEFSAII (Michael W. Deem and Ramdas Pophale) SiO2 
 PCOD8297098
Probable space group: I M M A
;
_chemical_formula_sum "Si O2"
_cell_formula_units_Z 80
_cell_length_a 17.397234
_cell_length_b 23.597299
_cell_length_c 12.563634
_cell_angle_alpha 90.000000
_cell_angle_beta 90.000000
_cell_angle_gamma 90.000000
_cell_volume 5157.720178
_symmetry_space_group_name_H-M "I M M A"
_symmetry_group_IT_number 74
_symmetry_cell_setting 'orthorhombic'
loop_
_space_group_symop_operation_xyz
x,y,z
-x,1/2-y,z
x,-y,-z
-x,1/2+y,-z
-x,-y,-z
x,1/2+y,-z
-x,y,z
x,1/2-y,z
1/2+x,1/2+y,1/2+z
1/2-x,-y,1/2+z
1/2+x,1/2-y,1/2-z
1/2-x,y,1/2-z
1/2-x,1/2-y,1/2-z
1/2+x,y,1/2-z
1/2-x,1/2+y,1/2+z
1/2+x,-y,1/2+z
loop_
_atom_site_type_symbol
_atom_site_label
_atom_site_fract_x
_atom_site_fract_y
_atom_site_fract_z
Si Si1 0.695976 0.634136 0.647883
Si Si2 0.414777 0.959523 0.101111
Si Si3 0.909879 0.063759 0.272641
Si Si4 0.337113 0.250000 0.290085
Si Si5 0.343515 0.869557 0.970058
Si Si6 0.090428 0.750000 0.565885
O O1 0.750000 0.637726 0.750000
O O2 0.635737 0.582691 0.665803
O O3 0.649576 0.693688 0.638515
O O4 0.751222 0.624952 0.546504
O O5 0.500000 0.936455 0.126482
O O6 0.384825 0.999042 0.198481
O O7 0.360961 0.905491 0.077218
O O8 0.417920 0.000000 0.000000
O O9 0.890761 0.106323 0.369438
O O10 0.000000 0.066898 0.249737
O O11 0.250000 0.250000 0.250000
O O12 0.396253 0.250000 0.192371
O O13 0.369229 0.804771 0.987043
O O14 0.000000 0.750000 0.541275
#
# Coordination Sequence:
#
# PCOD8297098 Si02
#       6
#    16  16  16   8  16   8
#     4   9  15  22  33  44  66  92 117 143 170 198
#     4   8  14  23  33  45  65  90 115 145 176 206
#     4   9  15  23  34  47  64  89 119 146 175 207
#     4  10  14  24  28  40  66  96 113 142 168 186
#     4  10  16  23  31  47  69  93 119 145 170 199
#     4  12  18  20  32  48  66  96 126 143 160 200
#
# _framework density 15.510730000000001
#
# number of rings (size 3 to 8) (size 9 to 14) (size 15 to 20)
#    0.000    2.600    6.000    3.000    0.000    0.000 
#    0.000    0.000    0.000    0.000    0.000    0.000 
#    0.000   42.400    0.000   45.900    0.000   40.800 
#
# Total GULP energy -495545.934440 kJ/mol
# GULP energy per Si atom -12388.648361 kJ/mol
# Density = 1.547543 g / cm^3
# Si number density = 15.510730 Si / 1000 Ang^3
#
#
#
# Elastic Constant Matrix: (Units=GPa)
#
#
# Indices 1 2 3 4 5 6 
#
# 1 78.4935 60.5553 28.4053 0.0000 0.0000 0.0000
# 2 60.5553 133.8187 37.4413 0.0000 0.0000 0.0000
# 3 28.4053 37.4413 18.4680 0.0000 0.0000 0.0000
# 4 0.0000 0.0000 0.0000 12.4894 0.0000 0.0000
# 5 0.0000 0.0000 0.0000 0.0000 11.8742 0.0000
# 6 0.0000 0.0000 0.0000 0.0000 0.0000 20.3983
#
#
#
# Elastic Compliance Matrix: (Units=1/GPa)
#
#
# Indices 1 2 3 4 5 6 
#
# 1 0.028859 -0.001479 -0.041389 0.000000 0.000000 0.000000
# 2 -0.001479 0.017344 -0.032887 0.000000 0.000000 0.000000
# 3 -0.041389 -0.032887 0.184482 0.000000 0.000000 0.000000
# 4 0.000000 0.000000 0.000000 0.080068 0.000000 0.000000
# 5 0.000000 0.000000 0.000000 0.000000 0.084216 0.000000
# 6 0.000000 0.000000 0.000000 0.000000 0.000000 0.049024
#
#
# Mechanical properties :
#
#
# Convention : Reuss Voigt Hill
#
# Bulk Modulus (GPa) = 12.63040 53.73155 33.18098
# Shear Modulus (GPa) = 8.03998 15.91094 11.97546
#
# Velocity S-wave (km/s) = 2.27920 3.20629 2.78164
# Velocity P-wave (km/s) = 3.88420 6.95872 5.63519
#
# Compressibility (1/GPa) = 0.07917406
#
# Stress axis : x y z
#
# Youngs Moduli (GPa) = 34.65181 57.65845 5.42059
#
# Poissons Ratio (x) = 0.08526 0.22435
# Poissons Ratio (y) = 0.05124 0.17827
# Poissons Ratio (z) = 1.43420 1.89623
#
# Static dielectric constant tensor:
#      x y z
#    x 3.082350 0.000000 0.000000 
#    y 0.000000 3.466870 0.000000 
#    z 0.000000 0.000000 2.446480 
# 
# 
# High freq. dielectric constant tensor:
#      x y z
#    x 1.587800 0.000000 0.000000 
#    y 0.000000 1.605500 0.000000 
#    z 0.000000 0.000000 1.498920 
# 
# From -- ./inp_files/22353.got.cif
#   From: 2010.03.12/outbox.cif.g09.slc.cpg/sg74_12_cif.got.tgz:22353.got - 2010.04.16 15:46:19.
