data_PCOD8297061
_publ_section_title
;
Structure prediction by ZEFSAII (Michael W. Deem and Ramdas Pophale) SiO2 
 PCOD8297061
Probable space group: I B C A 
;
_chemical_formula_sum "Si O2"
_cell_formula_units_Z 64
_cell_length_a 15.214841
_cell_length_b 10.940504
_cell_length_c 16.428896
_cell_angle_alpha 90.000000
_cell_angle_beta 90.000000
_cell_angle_gamma 90.000000
_cell_volume 2734.721644
_symmetry_space_group_name_H-M "I B C A "
_symmetry_group_IT_number 73
_symmetry_cell_setting 'orthorhombic'
loop_
_space_group_symop_operation_xyz
x,y,z
-x,1/2-y,z
x,-y,1/2-z
1/2-x,y,-z
-x,-y,-z
x,1/2+y,-z
-x,y,1/2+z
1/2+x,-y,z
1/2+x,1/2+y,1/2+z
1/2-x,-y,1/2+z
1/2+x,1/2-y,-z
-x,1/2+y,1/2-z
1/2-x,1/2-y,1/2-z
1/2+x,y,1/2-z
1/2-x,1/2+y,z
x,1/2-y,1/2+z
loop_
_atom_site_type_symbol
_atom_site_label
_atom_site_fract_x
_atom_site_fract_y
_atom_site_fract_z
Si Si1 0.153354 0.251283 0.277650
Si Si2 0.500000 0.750000 0.532795
Si Si3 0.411871 0.569296 0.147545
Si Si4 0.338534 0.144426 0.556063
Si Si5 0.942347 0.500000 0.750000
O O1 0.250000 0.250000 0.250000
O O2 0.110534 0.130684 0.235940
O O3 0.157063 0.249995 0.375698
O O4 0.112563 0.376437 0.245979
O O5 0.570461 0.675885 0.584364
O O6 0.566120 0.843059 0.486728
O O7 0.337076 0.484538 0.105774
O O8 0.500498 0.493463 0.166744
O O9 0.250000 0.153591 0.500000
#
# Coordination Sequence:
#
# PCOD8297061 Si02
#       5
#    16   8  16  16   8
#     4  12  27  47  77 111 145 201 265 313 380 466
#     4  12  26  48  72 116 154 202 254 320 410 452
#     4  12  25  48  79 109 148 206 260 310 387 477
#     4  12  28  48  75 114 161 201 253 331 396 466
#     4  12  24  46  84 106 146 196 270 320 372 454
#
# _framework density 23.402747999999999
#
# number of rings (size 3 to 8) (size 9 to 14) (size 15 to 20)
#    0.000    0.000    5.000    3.750    3.500    3.000 
#    0.000    0.000    0.000    0.000    0.000    0.000 
#    0.000    0.000    0.000    0.000    0.000    0.000 
#
# Total GULP energy -396488.932762 kJ/mol
# GULP energy per Si atom -12390.279149 kJ/mol
# Density = 2.334948 g / cm^3
# Si number density = 23.402748 Si / 1000 Ang^3
#
#
#
# Elastic Constant Matrix: (Units=GPa)
#
#
# Indices 1 2 3 4 5 6 
#
# 1 136.8261 47.2227 50.5771 0.0000 0.0000 0.0000
# 2 47.2227 108.7186 28.2198 0.0000 0.0000 0.0000
# 3 50.5771 28.2198 131.0602 0.0000 0.0000 0.0000
# 4 0.0000 0.0000 0.0000 34.0645 0.0000 0.0000
# 5 0.0000 0.0000 0.0000 0.0000 50.9141 0.0000
# 6 0.0000 0.0000 0.0000 0.0000 0.0000 38.0356
#
#
#
# Elastic Compliance Matrix: (Units=1/GPa)
#
#
# Indices 1 2 3 4 5 6 
#
# 1 0.009574 -0.003389 -0.002965 0.000000 0.000000 0.000000
# 2 -0.003389 0.010942 -0.001048 0.000000 0.000000 0.000000
# 3 -0.002965 -0.001048 0.009000 0.000000 0.000000 0.000000
# 4 0.000000 0.000000 0.000000 0.029356 0.000000 0.000000
# 5 0.000000 0.000000 0.000000 0.000000 0.019641 0.000000
# 6 0.000000 0.000000 0.000000 0.000000 0.000000 0.026291
#
#
# Mechanical properties :
#
#
# Convention : Reuss Voigt Hill
#
# Bulk Modulus (GPa) = 67.97229 69.84934 68.91081
# Shear Modulus (GPa) = 40.15643 41.30851 40.73247
#
# Velocity S-wave (km/s) = 4.14682 4.20588 4.17646
# Velocity P-wave (km/s) = 7.21358 7.31419 7.26406
#
# Compressibility (1/GPa) = 0.01471188
#
# Stress axis : x y z
#
# Youngs Moduli (GPa) = 104.44743 91.38947 111.11097
#
# Poissons Ratio (x) = 0.30972 0.32945
# Poissons Ratio (y) = 0.35397 0.11647
# Poissons Ratio (z) = 0.30969 0.09580
#
# Static dielectric constant tensor:
#      x y z
#    x 4.004560 0.000000 0.000000 
#    y 0.000000 3.948080 0.000000 
#    z 0.000000 0.000000 4.335080 
# 
# 
# High freq. dielectric constant tensor:
#      x y z
#    x 1.927650 0.000000 0.000000 
#    y 0.000000 1.934000 0.000000 
#    z 0.000000 0.000000 1.940960 
# 
# From -- ./inp_files/10494.got.cif
#   From: 2010.03.12/outbox.cif.g09.slc.cpg/sg73_6_cif.got.tgz:10494.got - 2010.04.16 15:25:48.
