data_PCOD8297388
_publ_section_title
;
Structure prediction by ZEFSAII (Michael W. Deem and Ramdas Pophale) SiO2 
 PCOD8297388
Probable space group: I M M A
;
_chemical_formula_sum "Si O2"
_cell_formula_units_Z 88
_cell_length_a 28.768668
_cell_length_b 14.681086
_cell_length_c 13.925977
_cell_angle_alpha 90.000000
_cell_angle_beta 90.000000
_cell_angle_gamma 90.000000
_cell_volume 5881.710041
_symmetry_space_group_name_H-M "I M M A"
_symmetry_group_IT_number 74
_symmetry_cell_setting 'orthorhombic'
loop_
_space_group_symop_operation_xyz
x,y,z
-x,1/2-y,z
x,-y,-z
-x,1/2+y,-z
-x,-y,-z
x,1/2+y,-z
-x,y,z
x,1/2-y,z
1/2+x,1/2+y,1/2+z
1/2-x,-y,1/2+z
1/2+x,1/2-y,1/2-z
1/2-x,y,1/2-z
1/2-x,1/2-y,1/2-z
1/2+x,y,1/2-z
1/2-x,1/2+y,1/2+z
1/2+x,-y,1/2+z
loop_
_atom_site_type_symbol
_atom_site_label
_atom_site_fract_x
_atom_site_fract_y
_atom_site_fract_z
Si Si1 0.757846 0.649589 0.094384
Si Si2 0.175580 0.647921 0.276055
Si Si3 0.382482 0.487907 0.668832
Si Si4 0.447345 0.146669 0.331767
Si Si5 0.687697 0.500000 0.500000
Si Si6 0.447478 0.851199 0.441599
O O1 0.753728 0.750000 0.049131
O O2 0.793227 0.651456 0.182018
O O3 0.707053 0.618427 0.132757
O O4 0.777941 0.585405 0.011838
O O5 0.154502 0.750000 0.292757
O O6 0.136446 0.570592 0.259336
O O7 0.410338 0.574873 0.712280
O O8 0.342229 0.520022 0.595606
O O9 0.416687 0.425080 0.609030
O O10 0.500000 0.125969 0.296259
O O11 0.433564 0.250000 0.302423
O O12 0.444828 0.134006 0.445376
O O13 0.500000 0.863503 0.405426
O O14 0.429251 0.750000 0.415556
#
# Coordination Sequence:
#
# PCOD8297388 Si02
#       6
#    16  16  16  16   8  16
#     4   8  15  28  39  52  73  93 116 153 197 231
#     4   8  15  26  40  53  70  94 118 152 197 233
#     4  11  16  23  36  56  71  92 131 165 183 206
#     4   9  17  26  33  45  71 104 130 152 180 208
#     4  10  18  22  37  58  70  90 129 162 186 212
#     4   9  16  24  33  48  73  99 122 154 190 215
#
# _framework density 14.961636
#
# number of rings (size 3 to 8) (size 9 to 14) (size 15 to 20)
#    0.000    2.909    1.818    3.273    0.000    2.909 
#    0.000    0.000    0.000    1.091    0.000    5.091 
#    0.000    0.000    0.000    3.273    0.000   16.000 
#
# Total GULP energy -545235.930966 kJ/mol
# GULP energy per Si atom -12391.725704 kJ/mol
# Density = 1.492758 g / cm^3
# Si number density = 14.961636 Si / 1000 Ang^3
#
#
#
# Elastic Constant Matrix: (Units=GPa)
#
#
# Indices 1 2 3 4 5 6 
#
# 1 76.0784 68.2971 22.2500 0.0000 0.0000 0.0000
# 2 68.2971 120.3524 24.5895 0.0000 0.0000 0.0000
# 3 22.2500 24.5895 14.7988 0.0000 0.0000 0.0000
# 4 0.0000 0.0000 0.0000 13.9266 0.0000 0.0000
# 5 0.0000 0.0000 0.0000 0.0000 8.7860 0.0000
# 6 0.0000 0.0000 0.0000 0.0000 0.0000 37.1038
#
#
#
# Elastic Compliance Matrix: (Units=1/GPa)
#
#
# Indices 1 2 3 4 5 6 
#
# 1 0.033025 -0.013014 -0.028028 0.000000 0.000000 0.000000
# 2 -0.013014 0.017708 -0.009857 0.000000 0.000000 0.000000
# 3 -0.028028 -0.009857 0.126090 0.000000 0.000000 0.000000
# 4 0.000000 0.000000 0.000000 0.071805 0.000000 0.000000
# 5 0.000000 0.000000 0.000000 0.000000 0.113817 0.000000
# 6 0.000000 0.000000 0.000000 0.000000 0.000000 0.026951
#
#
# Mechanical properties :
#
#
# Convention : Reuss Voigt Hill
#
# Bulk Modulus (GPa) = 13.32883 49.05586 31.19235
# Shear Modulus (GPa) = 9.68611 18.36948 14.02780
#
# Velocity S-wave (km/s) = 2.54716 3.50776 3.06532
# Velocity P-wave (km/s) = 4.19270 7.01889 5.78115
#
# Compressibility (1/GPa) = 0.07502532
#
# Stress axis : x y z
#
# Youngs Moduli (GPa) = 30.28050 56.47171 7.93081
#
# Poissons Ratio (x) = 0.73493 0.22229
# Poissons Ratio (y) = 0.39408 0.07817
# Poissons Ratio (z) = 0.84871 0.55662
#
# Static dielectric constant tensor:
#      x y z
#    x 3.122110 0.000000 0.000000 
#    y 0.000000 3.331160 0.000000 
#    z 0.000000 0.000000 2.370370 
# 
# 
# High freq. dielectric constant tensor:
#      x y z
#    x 1.569200 0.000000 0.000000 
#    y 0.000000 1.587620 0.000000 
#    z 0.000000 0.000000 1.492070 
# 
# From -- ./inp_files/21018.got.cif
#   From: 2010.03.12/outbox.cif.g09.slc.cpg/sg74_11_cif.got.tgz:21018.got - 2010.04.16 15:46:19.
