data_PCOD8297171
_publ_section_title
;
Structure prediction by ZEFSAII (Michael W. Deem and Ramdas Pophale) SiO2 
 PCOD8297171
Probable space group: I M M A
;
_chemical_formula_sum "Si O2"
_cell_formula_units_Z 84
_cell_length_a 14.695997
_cell_length_b 18.744357
_cell_length_c 15.476920
_cell_angle_alpha 90.000000
_cell_angle_beta 90.000000
_cell_angle_gamma 90.000000
_cell_volume 4263.380942
_symmetry_space_group_name_H-M "I M M A"
_symmetry_group_IT_number 74
_symmetry_cell_setting 'orthorhombic'
loop_
_space_group_symop_operation_xyz
x,y,z
-x,1/2-y,z
x,-y,-z
-x,1/2+y,-z
-x,-y,-z
x,1/2+y,-z
-x,y,z
x,1/2-y,z
1/2+x,1/2+y,1/2+z
1/2-x,-y,1/2+z
1/2+x,1/2-y,1/2-z
1/2-x,y,1/2-z
1/2-x,1/2-y,1/2-z
1/2+x,y,1/2-z
1/2-x,1/2+y,1/2+z
1/2+x,-y,1/2+z
loop_
_atom_site_type_symbol
_atom_site_label
_atom_site_fract_x
_atom_site_fract_y
_atom_site_fract_z
Si Si1 0.000000 0.750000 0.400858
Si Si2 0.682239 0.874505 0.441519
Si Si3 0.103227 0.607896 0.889091
Si Si4 0.693312 0.750000 0.017196
Si Si5 0.797533 0.250000 0.158332
Si Si6 0.845761 0.022632 0.783151
Si Si7 0.500000 0.604941 0.213002
Si Si8 0.000000 0.824918 0.111727
O O1 0.085622 0.750000 0.465147
O O2 0.000000 0.822583 0.342882
O O3 0.672149 0.916558 0.532877
O O4 0.768006 0.821458 0.437696
O O5 0.683234 0.922285 0.357555
O O6 0.590114 0.827358 0.446358
O O7 0.138872 0.680929 0.847554
O O8 0.100768 0.545263 0.818621
O O9 0.000000 0.617225 0.922376
O O10 0.719253 0.750000 0.915973
O O11 0.750000 0.250000 0.250000
O O12 0.750000 0.993412 0.750000
O O13 0.906196 0.058910 0.704836
O O14 0.500000 0.614242 0.316700
O O15 0.000000 0.750000 0.162614
#
# Coordination Sequence:
#
# PCOD8297171 Si02
#       8
#     4  16  16   8   8  16   8   8
#     4  12  22  40  56  78 126 174 210 236 256 342
#     4  10  20  33  57  86 118 150 192 242 301 350
#     4  11  21  37  61  91 115 144 187 250 315 360
#     4  10  22  37  59  84 115 159 201 237 284 343
#     4  10  23  43  63  88 110 143 190 247 308 361
#     4  11  22  36  55  84 122 160 197 241 287 353
#     4  10  22  35  54  82 118 166 205 230 281 334
#     4  10  16  29  51  83 116 141 180 242 284 337
#
# _framework density 19.702673000000001
#
# number of rings (size 3 to 8) (size 9 to 14) (size 15 to 20)
#    0.000    1.524    3.333    2.571    0.000    0.762 
#    1.714    2.857    0.000    0.000    0.000    8.000 
#    0.000    0.000    0.000    0.000    0.000    0.000 
#
# Total GULP energy -520376.221321 kJ/mol
# GULP energy per Si atom -12389.910031 kJ/mol
# Density = 1.965783 g / cm^3
# Si number density = 19.702673 Si / 1000 Ang^3
#
#
#
# Elastic Constant Matrix: (Units=GPa)
#
#
# Indices 1 2 3 4 5 6 
#
# 1 128.0116 30.5120 23.3673 0.0000 0.0000 0.0000
# 2 30.5120 88.9806 21.7354 -0.0002 -0.0001 0.0000
# 3 23.3673 21.7354 56.0125 -0.0002 -0.0001 0.0000
# 4 0.0000 -0.0002 -0.0002 22.1003 -0.0001 0.0000
# 5 0.0000 -0.0001 -0.0001 -0.0001 29.4010 0.0000
# 6 0.0000 0.0000 0.0000 0.0000 0.0000 27.5027
#
#
#
# Elastic Compliance Matrix: (Units=1/GPa)
#
#
# Indices 1 2 3 4 5 6 
#
# 1 0.008885 -0.002365 -0.002789 0.000000 0.000000 0.000000
# 2 -0.002365 0.013045 -0.004075 0.000000 0.000000 0.000000
# 3 -0.002789 -0.004075 0.020598 0.000000 0.000000 0.000000
# 4 0.000000 0.000000 0.000000 0.045248 0.000000 0.000000
# 5 0.000000 0.000000 0.000000 0.000000 0.034012 0.000000
# 6 0.000000 0.000000 0.000000 0.000000 0.000000 0.036360
#
#
# Mechanical properties :
#
#
# Convention : Reuss Voigt Hill
#
# Bulk Modulus (GPa) = 41.54725 47.13712 44.34218
# Shear Modulus (GPa) = 27.08120 28.96011 28.02066
#
# Velocity S-wave (km/s) = 3.71144 3.83803 3.77527
# Velocity P-wave (km/s) = 6.28484 6.60430 6.44655
#
# Compressibility (1/GPa) = 0.02406898
#
# Stress axis : x y z
#
# Youngs Moduli (GPa) = 112.55386 76.65784 48.54866
#
# Poissons Ratio (x) = 0.18133 0.13538
# Poissons Ratio (y) = 0.26624 0.19785
# Poissons Ratio (z) = 0.31387 0.31240
#
# Static dielectric constant tensor:
#      x y z
#    x 3.636450 0.000000 0.000000 
#    y 0.000000 3.519030 0.000000 
#    z 0.000000 0.000000 3.300460 
# 
# 
# High freq. dielectric constant tensor:
#      x y z
#    x 1.768650 0.000000 0.000000 
#    y 0.000000 1.771840 0.000000 
#    z 0.000000 0.000000 1.744570 
# 
# From -- ./inp_files/32284.got.cif
#   From: 2010.03.12/outbox.cif.g09.slc.cpg/sg74_17_cif.got.tgz:32284.got - 2010.04.16 15:46:19.
