data_PCOD8297761
_publ_section_title
;
Structure prediction by ZEFSAII (Michael W. Deem and Ramdas Pophale) SiO2 
 PCOD8297761
Probable space group: I M M A
;
_chemical_formula_sum "Si O2"
_cell_formula_units_Z 88
_cell_length_a 13.089447
_cell_length_b 13.547962
_cell_length_c 27.327428
_cell_angle_alpha 90.000000
_cell_angle_beta 90.000000
_cell_angle_gamma 90.000000
_cell_volume 4846.118478
_symmetry_space_group_name_H-M "I M M A"
_symmetry_group_IT_number 74
_symmetry_cell_setting 'orthorhombic'
loop_
_space_group_symop_operation_xyz
x,y,z
-x,1/2-y,z
x,-y,-z
-x,1/2+y,-z
-x,-y,-z
x,1/2+y,-z
-x,y,z
x,1/2-y,z
1/2+x,1/2+y,1/2+z
1/2-x,-y,1/2+z
1/2+x,1/2-y,1/2-z
1/2-x,y,1/2-z
1/2-x,1/2-y,1/2-z
1/2+x,y,1/2-z
1/2-x,1/2+y,1/2+z
1/2+x,-y,1/2+z
loop_
_atom_site_type_symbol
_atom_site_label
_atom_site_fract_x
_atom_site_fract_y
_atom_site_fract_z
Si Si1 0.307604 0.862843 0.679830
Si Si2 0.382211 0.864203 0.065954
Si Si3 0.120372 0.864584 0.926218
Si Si4 0.741781 0.000000 0.500000
Si Si5 0.116318 0.054591 0.276544
Si Si6 0.879333 0.856622 0.323886
O O1 0.341955 0.750000 0.686012
O O2 0.333226 0.899809 0.625652
O O3 0.186748 0.872382 0.691350
O O4 0.371337 0.927217 0.718811
O O5 0.500000 0.896908 0.060122
O O6 0.369450 0.750000 0.050970
O O7 0.342494 0.881453 0.121231
O O8 0.313137 0.930796 0.031909
O O9 0.146851 0.750000 0.936038
O O10 0.000000 0.882437 0.925590
O O11 0.169502 0.930957 0.967830
O O12 0.000000 0.071887 0.293198
O O13 0.154145 0.942696 0.286871
O O14 0.833756 0.750000 0.306987
O O15 0.000000 0.847309 0.325458
#
# Coordination Sequence:
#
# PCOD8297761 Si02
#       6
#    16  16  16   8  16  16
#     4  10  21  35  50  72 103 135 165 199 248 307
#     4   9  18  32  50  76 111 143 166 198 252 309
#     4  10  22  39  55  72  98 133 171 212 262 313
#     4  12  20  32  56  80  96 126 178 228 252 284
#     4  10  18  30  52  78 101 129 167 205 241 291
#     4   8  15  29  48  70  99 133 163 193 237 294
#
# _framework density 18.158864000000001
#
# number of rings (size 3 to 8) (size 9 to 14) (size 15 to 20)
#    0.000    2.364    0.000    4.909    0.000    2.182 
#    0.000    2.727    0.000    4.364    0.000    2.545 
#    0.000    0.000    0.000    0.000    0.000    0.000 
#
# Total GULP energy -545468.900088 kJ/mol
# GULP energy per Si atom -12397.020457 kJ/mol
# Density = 1.811753 g / cm^3
# Si number density = 18.158864 Si / 1000 Ang^3
#
#
#
# Elastic Constant Matrix: (Units=GPa)
#
#
# Indices 1 2 3 4 5 6 
#
# 1 82.0099 33.2826 39.0766 0.0000 0.0000 0.0000
# 2 33.2826 100.0641 74.0290 0.0000 0.0000 0.0000
# 3 39.0766 74.0290 117.4626 0.0000 0.0000 0.0000
# 4 0.0000 0.0000 0.0000 27.6837 0.0000 0.0000
# 5 0.0000 0.0000 0.0000 0.0000 25.6374 0.0000
# 6 0.0000 0.0000 0.0000 0.0000 0.0000 26.0875
#
#
#
# Elastic Compliance Matrix: (Units=1/GPa)
#
#
# Indices 1 2 3 4 5 6 
#
# 1 0.014791 -0.002397 -0.003410 0.000000 0.000000 0.000000
# 2 -0.002397 0.019112 -0.011248 0.000000 0.000000 0.000000
# 3 -0.003410 -0.011248 0.016736 0.000000 0.000000 0.000000
# 4 0.000000 0.000000 0.000000 0.036122 0.000000 0.000000
# 5 0.000000 0.000000 0.000000 0.000000 0.039006 0.000000
# 6 0.000000 0.000000 0.000000 0.000000 0.000000 0.038333
#
#
# Mechanical properties :
#
#
# Convention : Reuss Voigt Hill
#
# Bulk Modulus (GPa) = 60.49442 65.81255 63.15349
# Shear Modulus (GPa) = 24.54353 26.09160 25.31756
#
# Velocity S-wave (km/s) = 3.68040 3.79470 3.73798
# Velocity P-wave (km/s) = 7.17264 7.45124 7.31327
#
# Compressibility (1/GPa) = 0.01653045
#
# Stress axis : x y z
#
# Youngs Moduli (GPa) = 67.60756 52.32295 59.74990
#
# Poissons Ratio (x) = 0.12542 0.20375
# Poissons Ratio (y) = 0.16206 0.67205
# Poissons Ratio (z) = 0.23054 0.58851
#
# Static dielectric constant tensor:
#      x y z
#    x 3.236840 0.000000 0.000000 
#    y 0.000000 3.910890 0.000000 
#    z 0.000000 0.000000 3.371940 
# 
# 
# High freq. dielectric constant tensor:
#      x y z
#    x 1.693600 0.000000 0.000000 
#    y 0.000000 1.709550 0.000000 
#    z 0.000000 0.000000 1.700340 
# 
# From -- ./inp_files/66941.got.cif
#   From: 2010.03.12/outbox.cif.g09.slc.cpg/sg74_34_cif.got.tgz:66941.got - 2010.04.16 15:46:19.
