data_PCOD8297794
_publ_section_title
;
Structure prediction by ZEFSAII (Michael W. Deem and Ramdas Pophale) SiO2 
 PCOD8297794
Probable space group: I M M A
;
_chemical_formula_sum "Si O2"
_cell_formula_units_Z 96
_cell_length_a 23.068143
_cell_length_b 8.955870
_cell_length_c 27.177665
_cell_angle_alpha 90.000000
_cell_angle_beta 90.000000
_cell_angle_gamma 90.000000
_cell_volume 5614.777578
_symmetry_space_group_name_H-M "I M M A"
_symmetry_group_IT_number 74
_symmetry_cell_setting 'orthorhombic'
loop_
_space_group_symop_operation_xyz
x,y,z
-x,1/2-y,z
x,-y,-z
-x,1/2+y,-z
-x,-y,-z
x,1/2+y,-z
-x,y,z
x,1/2-y,z
1/2+x,1/2+y,1/2+z
1/2-x,-y,1/2+z
1/2+x,1/2-y,1/2-z
1/2-x,y,1/2-z
1/2-x,1/2-y,1/2-z
1/2+x,y,1/2-z
1/2-x,1/2+y,1/2+z
1/2+x,-y,1/2+z
loop_
_atom_site_type_symbol
_atom_site_label
_atom_site_fract_x
_atom_site_fract_y
_atom_site_fract_z
Si Si1 0.220598 0.074596 0.949782
Si Si2 0.619717 0.422587 0.783704
Si Si3 0.214843 0.921523 0.353402
Si Si4 0.500000 0.572238 0.368506
Si Si5 0.814180 0.580944 0.799604
Si Si6 0.615510 0.922278 0.603119
Si Si7 0.000000 0.572246 0.245442
O O1 0.211075 0.250000 0.957019
O O2 0.271642 0.039822 0.910232
O O3 0.159747 0.002007 0.933997
O O4 0.242278 0.000000 0.000000
O O5 0.613182 0.250000 0.771798
O O6 0.646804 0.448657 0.838704
O O7 0.666657 0.484737 0.746311
O O8 0.556078 0.494447 0.774671
O O9 0.232292 0.750000 0.343248
O O10 0.252426 0.025278 0.318203
O O11 0.500000 0.750000 0.371752
O O12 0.445294 0.507730 0.398030
O O13 0.500000 0.518339 0.311394
O O14 0.807088 0.750000 0.782207
O O15 0.861837 0.564242 0.841693
O O16 0.608013 0.750000 0.587035
O O17 0.000000 0.750000 0.247277
#
# Coordination Sequence:
#
# PCOD8297794 Si02
#       7
#    16  16  16   8  16  16   8
#     4  10  20  36  55  75  95 121 157 204 256 304
#     4  10  18  31  47  68  97 131 166 198 234 280
#     4   9  19  32  49  70  95 125 159 197 242 294
#     4  11  19  31  50  72  97 134 176 210 238 276
#     4  10  19  29  44  68  99 130 162 198 237 281
#     4  10  20  33  49  71  99 133 167 204 243 288
#     4   9  18  29  47  70  97 134 172 204 231 267
#
# _framework density 17.097738
#
# number of rings (size 3 to 8) (size 9 to 14) (size 15 to 20)
#    0.000    2.167    1.667    2.250    0.000    4.667 
#    0.000    0.833    0.000    0.000    0.000    0.583 
#    0.000    0.000    0.000    0.000    0.000    0.000 
#
# Total GULP energy -594976.808071 kJ/mol
# GULP energy per Si atom -12395.350168 kJ/mol
# Density = 1.705882 g / cm^3
# Si number density = 17.097738 Si / 1000 Ang^3
#
#
#
# Elastic Constant Matrix: (Units=GPa)
#
#
# Indices 1 2 3 4 5 6 
#
# 1 65.1780 28.5734 54.3170 0.0000 0.0000 0.0000
# 2 28.5734 57.0392 28.3519 0.0000 0.0000 0.0000
# 3 54.3170 28.3519 91.0436 0.0000 0.0000 0.0000
# 4 0.0000 0.0000 0.0000 22.6077 0.0000 0.0000
# 5 0.0000 0.0000 0.0000 0.0000 14.0523 0.0000
# 6 0.0000 0.0000 0.0000 0.0000 0.0000 15.3544
#
#
#
# Elastic Compliance Matrix: (Units=1/GPa)
#
#
# Indices 1 2 3 4 5 6 
#
# 1 0.033386 -0.008074 -0.017404 0.000000 0.000000 0.000000
# 2 -0.008074 0.022695 -0.002251 0.000000 0.000000 0.000000
# 3 -0.017404 -0.002251 0.022068 0.000000 0.000000 0.000000
# 4 0.000000 0.000000 0.000000 0.044233 0.000000 0.000000
# 5 0.000000 0.000000 0.000000 0.000000 0.071163 0.000000
# 6 0.000000 0.000000 0.000000 0.000000 0.000000 0.065128
#
#
# Mechanical properties :
#
#
# Convention : Reuss Voigt Hill
#
# Bulk Modulus (GPa) = 44.06799 48.41617 46.24208
# Shear Modulus (GPa) = 15.54280 17.20412 16.37346
#
# Velocity S-wave (km/s) = 3.01833 3.17554 3.09793
# Velocity P-wave (km/s) = 6.16256 6.46716 6.31670
#
# Compressibility (1/GPa) = 0.02269221
#
# Stress axis : x y z
#
# Youngs Moduli (GPa) = 29.95287 44.06269 45.31470
#
# Poissons Ratio (x) = 0.35574 0.78865
# Poissons Ratio (y) = 0.24183 0.10199
# Poissons Ratio (z) = 0.52130 0.09917
#
# Static dielectric constant tensor:
#      x y z
#    x 3.367440 0.000000 0.000000 
#    y 0.000000 3.202090 0.000000 
#    z 0.000000 0.000000 3.192310 
# 
# 
# High freq. dielectric constant tensor:
#      x y z
#    x 1.650390 0.000000 0.000000 
#    y 0.000000 1.661760 0.000000 
#    z 0.000000 0.000000 1.636640 
# 
# From -- ./inp_files/61929.got.cif
#   From: 2010.03.12/outbox.cif.g09.slc.cpg/sg74_31_cif.got.tgz:61929.got - 2010.04.16 15:46:19.
