data_PCOD8297529
_publ_section_title
;
Structure prediction by ZEFSAII (Michael W. Deem and Ramdas Pophale) SiO2 
 PCOD8297529
Probable space group: I M M A
;
_chemical_formula_sum "Si O2"
_cell_formula_units_Z 80
_cell_length_a 8.989809
_cell_length_b 24.788918
_cell_length_c 20.589334
_cell_angle_alpha 90.000000
_cell_angle_beta 90.000000
_cell_angle_gamma 90.000000
_cell_volume 4588.284453
_symmetry_space_group_name_H-M "I M M A"
_symmetry_group_IT_number 74
_symmetry_cell_setting 'orthorhombic'
loop_
_space_group_symop_operation_xyz
x,y,z
-x,1/2-y,z
x,-y,-z
-x,1/2+y,-z
-x,-y,-z
x,1/2+y,-z
-x,y,z
x,1/2-y,z
1/2+x,1/2+y,1/2+z
1/2-x,-y,1/2+z
1/2+x,1/2-y,1/2-z
1/2-x,y,1/2-z
1/2-x,1/2-y,1/2-z
1/2+x,y,1/2-z
1/2-x,1/2+y,1/2+z
1/2+x,-y,1/2+z
loop_
_atom_site_type_symbol
_atom_site_label
_atom_site_fract_x
_atom_site_fract_y
_atom_site_fract_z
Si Si1 0.324956 0.464350 0.938999
Si Si2 0.169046 0.750000 0.884593
Si Si3 0.168048 0.133402 0.130201
Si Si4 0.174939 0.250000 0.517071
Si Si5 0.326340 0.858230 0.477979
Si Si6 0.325969 0.034018 0.184593
O O1 0.500000 0.453300 0.942658
O O2 0.239884 0.407928 0.937897
O O3 0.277414 0.495418 0.873985
O O4 0.272063 0.500000 0.000000
O O5 0.188476 0.804985 0.843077
O O6 0.291301 0.750000 0.940669
O O7 0.000000 0.750000 0.915380
O O8 0.278118 0.095261 0.169542
O O9 0.000000 0.113030 0.141855
O O10 0.207300 0.132706 0.053994
O O11 0.247096 0.196138 0.547963
O O12 0.000000 0.250000 0.530009
O O13 0.500000 0.853433 0.463756
O O14 0.500000 0.033723 0.195357
O O15 0.250000 0.012500 0.250000
#
# Coordination Sequence:
#
# PCOD8297529 Si02
#       6
#    16   8  16   8  16  16
#     4  10  20  35  54  78 106 134 173 220 265 310
#     4   8  16  30  47  71 100 133 172 219 262 305
#     4   9  17  31  50  72 101 134 172 214 260 306
#     4  10  18  28  46  73 108 141 170 209 259 309
#     4  10  19  31  51  78 107 137 172 215 260 310
#     4  11  23  37  53  73 103 138 174 217 262 314
#
# _framework density 17.435711000000001
#
# number of rings (size 3 to 8) (size 9 to 14) (size 15 to 20)
#    0.000    2.200    2.000    3.300    0.000    5.200 
#    0.000    0.500    0.000    0.000    0.000    0.700 
#    0.000    0.000    0.000    0.000    0.000    0.000 
#
# Total GULP energy -495962.534065 kJ/mol
# GULP energy per Si atom -12399.063352 kJ/mol
# Density = 1.739603 g / cm^3
# Si number density = 17.435711 Si / 1000 Ang^3
#
#
#
# Elastic Constant Matrix: (Units=GPa)
#
#
# Indices 1 2 3 4 5 6 
#
# 1 83.8470 62.0461 42.6080 0.0000 0.0000 0.0000
# 2 62.0461 142.2918 53.9244 0.0000 0.0000 0.0000
# 3 42.6080 53.9244 85.3547 -0.0001 0.0000 0.0000
# 4 0.0000 0.0000 -0.0001 15.0915 0.0000 0.0000
# 5 0.0000 0.0000 0.0000 0.0000 23.1811 0.0000
# 6 0.0000 0.0000 0.0000 0.0000 0.0000 32.8856
#
#
#
# Elastic Compliance Matrix: (Units=1/GPa)
#
#
# Indices 1 2 3 4 5 6 
#
# 1 0.019541 -0.006343 -0.005747 0.000000 0.000000 0.000000
# 2 -0.006343 0.011299 -0.003972 0.000000 0.000000 0.000000
# 3 -0.005747 -0.003972 0.017094 0.000000 0.000000 0.000000
# 4 0.000000 0.000000 0.000000 0.066263 0.000000 0.000000
# 5 0.000000 0.000000 0.000000 0.000000 0.043139 0.000000
# 6 0.000000 0.000000 0.000000 0.000000 0.000000 0.030408
#
#
# Mechanical properties :
#
#
# Convention : Reuss Voigt Hill
#
# Bulk Modulus (GPa) = 63.25281 69.85006 66.55143
# Shear Modulus (GPa) = 22.20869 24.42596 23.31732
#
# Velocity S-wave (km/s) = 3.57283 3.74694 3.66092
# Velocity P-wave (km/s) = 7.30593 7.67254 7.49148
#
# Compressibility (1/GPa) = 0.01580957
#
# Stress axis : x y z
#
# Youngs Moduli (GPa) = 51.17571 88.50519 58.49917
#
# Poissons Ratio (x) = 0.56135 0.33622
# Poissons Ratio (y) = 0.32458 0.23236
# Poissons Ratio (z) = 0.29413 0.35155
#
# Static dielectric constant tensor:
#      x y z
#    x 3.204120 0.000000 0.000000 
#    y 0.000000 3.500400 0.000000 
#    z 0.000000 0.000000 2.895540 
# 
# 
# High freq. dielectric constant tensor:
#      x y z
#    x 1.680250 0.000000 0.000000 
#    y 0.000000 1.686060 0.000000 
#    z 0.000000 0.000000 1.620910 
# 
# From -- ./inp_files/46537.got.cif
#   From: 2010.03.12/outbox.cif.g09.slc.cpg/sg74_24_cif.got.tgz:46537.got - 2010.04.16 15:46:19.
