data_PCOD8297413
_publ_section_title
;
Structure prediction by ZEFSAII (Michael W. Deem and Ramdas Pophale) SiO2 
 PCOD8297413
Probable space group: I M M A
;
_chemical_formula_sum "Si O2"
_cell_formula_units_Z 80
_cell_length_a 14.274328
_cell_length_b 14.263374
_cell_length_c 21.477664
_cell_angle_alpha 90.000000
_cell_angle_beta 90.000000
_cell_angle_gamma 90.000000
_cell_volume 4372.854084
_symmetry_space_group_name_H-M "I M M A"
_symmetry_group_IT_number 74
_symmetry_cell_setting 'orthorhombic'
loop_
_space_group_symop_operation_xyz
x,y,z
-x,1/2-y,z
x,-y,-z
-x,1/2+y,-z
-x,-y,-z
x,1/2+y,-z
-x,y,z
x,1/2-y,z
1/2+x,1/2+y,1/2+z
1/2-x,-y,1/2+z
1/2+x,1/2-y,1/2-z
1/2-x,y,1/2-z
1/2-x,1/2-y,1/2-z
1/2+x,y,1/2-z
1/2-x,1/2+y,1/2+z
1/2+x,-y,1/2+z
loop_
_atom_site_type_symbol
_atom_site_label
_atom_site_fract_x
_atom_site_fract_y
_atom_site_fract_z
Si Si1 0.110986 0.354647 0.230693
Si Si2 0.390564 0.461601 0.151123
Si Si3 0.208048 0.360151 0.461211
Si Si4 0.602790 0.361028 0.406175
Si Si5 0.391563 0.355743 0.913280
O O1 0.152538 0.250000 0.240599
O O2 0.153907 0.422470 0.284385
O O3 0.136401 0.396107 0.162409
O O4 0.000000 0.350368 0.235601
O O5 0.500000 0.440838 0.151973
O O6 0.351090 0.408645 0.091900
O O7 0.371140 0.573440 0.143917
O O8 0.195152 0.250000 0.451864
O O9 0.317935 0.390044 0.456070
O O10 0.171152 0.390554 0.528747
O O11 0.500000 0.402879 0.424613
O O12 0.593082 0.250000 0.401531
O O13 0.500000 0.360708 0.933960
O O14 0.364816 0.250000 0.892453
#
# Coordination Sequence:
#
# PCOD8297413 Si02
#       5
#    16  16  16  16  16
#     4   8  14  25  41  63  91 117 139 166 203 252
#     4  10  18  27  41  61  87 117 144 172 209 254
#     4  10  18  26  41  64  88 116 145 170 204 255
#     4   8  15  28  43  61  89 119 142 169 207 251
#     4   9  18  31  44  60  85 115 146 180 214 249
#
# _framework density 18.294688000000001
#
# number of rings (size 3 to 8) (size 9 to 14) (size 15 to 20)
#    0.000    3.000    0.000    3.000    0.000    4.400 
#    0.000    3.000    0.000    2.400    0.000    2.800 
#    0.000    1.600    0.000    0.000    0.000    0.000 
#
# Total GULP energy -495671.912775 kJ/mol
# GULP energy per Si atom -12391.797819 kJ/mol
# Density = 1.825305 g / cm^3
# Si number density = 18.294688 Si / 1000 Ang^3
#
#
#
# Elastic Constant Matrix: (Units=GPa)
#
#
# Indices 1 2 3 4 5 6 
#
# 1 50.0712 23.4935 32.9172 0.0000 0.0000 0.0000
# 2 23.4935 41.4336 37.6259 0.0000 0.0000 0.0000
# 3 32.9172 37.6259 58.4235 0.0000 0.0000 0.0000
# 4 0.0000 0.0000 0.0000 11.2206 0.0000 0.0000
# 5 0.0000 0.0000 0.0000 0.0000 13.8928 0.0000
# 6 0.0000 0.0000 0.0000 0.0000 0.0000 10.8215
#
#
#
# Elastic Compliance Matrix: (Units=1/GPa)
#
#
# Indices 1 2 3 4 5 6 
#
# 1 0.032032 -0.004272 -0.015296 0.000000 0.000000 0.000000
# 2 -0.004272 0.058703 -0.035399 0.000000 0.000000 0.000000
# 3 -0.015296 -0.035399 0.048532 0.000000 0.000000 0.000000
# 4 0.000000 0.000000 0.000000 0.089122 0.000000 0.000000
# 5 0.000000 0.000000 0.000000 0.000000 0.071980 0.000000
# 6 0.000000 0.000000 0.000000 0.000000 0.000000 0.092409
#
#
# Mechanical properties :
#
#
# Convention : Reuss Voigt Hill
#
# Bulk Modulus (GPa) = 34.09153 37.55571 35.82362
# Shear Modulus (GPa) = 9.75627 10.91308 10.33467
#
# Velocity S-wave (km/s) = 2.31180 2.44502 2.37934
# Velocity P-wave (km/s) = 5.07947 5.34262 5.21271
#
# Compressibility (1/GPa) = 0.02933280
#
# Stress axis : x y z
#
# Youngs Moduli (GPa) = 31.21890 17.03478 20.60479
#
# Poissons Ratio (x) = 0.07277 0.31518
# Poissons Ratio (y) = 0.13337 0.72939
# Poissons Ratio (z) = 0.47753 0.60302
#
# Static dielectric constant tensor:
#      x y z
#    x 3.541970 0.000000 0.000000 
#    y 0.000000 3.373000 0.000000 
#    z 0.000000 0.000000 3.423800 
# 
# 
# High freq. dielectric constant tensor:
#      x y z
#    x 1.709220 0.000000 0.000000 
#    y 0.000000 1.682430 0.000000 
#    z 0.000000 0.000000 1.686440 
# 
# From -- ./inp_files/42656.got.cif
#   From: 2010.03.12/outbox.cif.g09.slc.cpg/sg74_22_cif.got.tgz:42656.got - 2010.04.16 15:46:19.
