data_PCOD8297664
_publ_section_title
;
Structure prediction by ZEFSAII (Michael W. Deem and Ramdas Pophale) SiO2 
 PCOD8297664
Probable space group: I M M A
;
_chemical_formula_sum "Si O2"
_cell_formula_units_Z 104
_cell_length_a 8.745146
_cell_length_b 27.298506
_cell_length_c 24.048383
_cell_angle_alpha 90.000000
_cell_angle_beta 90.000000
_cell_angle_gamma 90.000000
_cell_volume 5741.056539
_symmetry_space_group_name_H-M "I M M A"
_symmetry_group_IT_number 74
_symmetry_cell_setting 'orthorhombic'
loop_
_space_group_symop_operation_xyz
x,y,z
-x,1/2-y,z
x,-y,-z
-x,1/2+y,-z
-x,-y,-z
x,1/2+y,-z
-x,y,z
x,1/2-y,z
1/2+x,1/2+y,1/2+z
1/2-x,-y,1/2+z
1/2+x,1/2-y,1/2-z
1/2-x,y,1/2-z
1/2-x,1/2-y,1/2-z
1/2+x,y,1/2-z
1/2-x,1/2+y,1/2+z
1/2+x,-y,1/2+z
loop_
_atom_site_type_symbol
_atom_site_label
_atom_site_fract_x
_atom_site_fract_y
_atom_site_fract_z
Si Si1 0.324532 0.442691 0.991005
Si Si2 0.182569 0.750000 0.811116
Si Si3 0.176444 0.303041 0.010296
Si Si4 0.182136 0.129542 0.913042
Si Si5 0.824962 0.113602 0.090177
Si Si6 0.679595 0.349060 0.190373
Si Si7 0.319124 0.305883 0.690719
O O1 0.500000 0.426140 0.994399
O O2 0.230214 0.422360 0.042642
O O3 0.306631 0.500000 0.000000
O O4 0.256605 0.422950 0.931327
O O5 0.250000 0.750000 0.750000
O O6 0.247492 0.799946 0.837193
O O7 0.000000 0.750000 0.813199
O O8 0.257021 0.250000 0.015712
O O9 0.195960 0.331066 0.068109
O O10 0.000000 0.295774 0.995720
O O11 0.247655 0.333107 0.959246
O O12 0.235984 0.153045 0.854143
O O13 0.000000 0.123025 0.914503
O O14 0.724314 0.108286 0.146487
O O15 0.000000 0.101501 0.104602
O O16 0.500000 0.343486 0.197421
O O17 0.750000 0.362271 0.250000
O O18 0.500000 0.307532 0.695397
O O19 0.268052 0.250000 0.674291
O O20 0.250000 0.321051 0.750000
#
# Coordination Sequence:
#
# PCOD8297664 Si02
#       7
#    16   8  16  16  16  16  16
#     4  10  21  37  56  77 101 129 163 212 271 323
#     4  10  18  30  46  66  94 132 176 212 245 284
#     4   8  14  25  43  68  96 127 161 199 244 294
#     4   9  17  30  50  74 100 132 172 213 253 302
#     4  10  20  33  52  77 101 131 169 209 256 311
#     4  11  21  34  50  71 101 136 174 214 253 298
#     4   9  17  29  47  74 109 147 182 212 245 293
#
# _framework density 18.115131999999999
#
# number of rings (size 3 to 8) (size 9 to 14) (size 15 to 20)
#    0.000    2.462    0.000    5.308    1.077    3.692 
#    0.000    0.000    0.000    8.769    0.000    2.154 
#    0.000    0.000    0.000    0.000    0.000    0.000 
#
# Total GULP energy -644220.201241 kJ/mol
# GULP energy per Si atom -12388.850024 kJ/mol
# Density = 1.807390 g / cm^3
# Si number density = 18.115132 Si / 1000 Ang^3
#
#
#
# Elastic Constant Matrix: (Units=GPa)
#
#
# Indices 1 2 3 4 5 6 
#
# 1 95.7499 26.3023 41.4757 0.0000 0.0000 0.0000
# 2 26.3023 66.5415 33.5922 0.0000 0.0000 0.0000
# 3 41.4757 33.5922 117.0807 0.0000 0.0000 0.0000
# 4 0.0000 0.0000 0.0000 21.9848 0.0000 0.0000
# 5 0.0000 0.0000 0.0000 0.0000 29.6198 0.0000
# 6 0.0000 0.0000 0.0000 0.0000 0.0000 22.9128
#
#
#
# Elastic Compliance Matrix: (Units=1/GPa)
#
#
# Indices 1 2 3 4 5 6 
#
# 1 0.012918 -0.003270 -0.003638 0.000000 0.000000 0.000000
# 2 -0.003270 0.018401 -0.004121 0.000000 0.000000 0.000000
# 3 -0.003638 -0.004121 0.011012 0.000000 0.000000 0.000000
# 4 0.000000 0.000000 0.000000 0.045486 0.000000 0.000000
# 5 0.000000 0.000000 0.000000 0.000000 0.033761 0.000000
# 6 0.000000 0.000000 0.000000 0.000000 0.000000 0.043644
#
#
# Mechanical properties :
#
#
# Convention : Reuss Voigt Hill
#
# Bulk Modulus (GPa) = 49.32536 53.56807 51.44672
# Shear Modulus (GPa) = 25.76813 26.77026 26.26919
#
# Velocity S-wave (km/s) = 3.77565 3.84837 3.81218
# Velocity P-wave (km/s) = 6.80406 7.02721 6.91654
#
# Compressibility (1/GPa) = 0.02027354
#
# Stress axis : x y z
#
# Youngs Moduli (GPa) = 77.41190 54.34435 90.80689
#
# Poissons Ratio (x) = 0.17768 0.33036
# Poissons Ratio (y) = 0.25310 0.37425
# Poissons Ratio (z) = 0.28163 0.22397
#
# Static dielectric constant tensor:
#      x y z
#    x 3.270570 0.000000 0.000000 
#    y 0.000000 3.440800 0.000000 
#    z 0.000000 0.000000 3.369550 
# 
# 
# High freq. dielectric constant tensor:
#      x y z
#    x 1.692680 0.000000 0.000000 
#    y 0.000000 1.673260 0.000000 
#    z 0.000000 0.000000 1.702900 
# 
# From -- ./inp_files/57574.got.cif
#   From: 2010.03.12/outbox.cif.g09.slc.cpg/sg74_29_cif.got.tgz:57574.got - 2010.04.16 15:46:19.
