data_PCOD8297698
_publ_section_title
;
Structure prediction by ZEFSAII (Michael W. Deem and Ramdas Pophale) SiO2 
 PCOD8297698
Probable space group: I M M A
;
_chemical_formula_sum "Si O2"
_cell_formula_units_Z 72
_cell_length_a 8.910952
_cell_length_b 15.194295
_cell_length_c 28.886919
_cell_angle_alpha 90.000000
_cell_angle_beta 90.000000
_cell_angle_gamma 90.000000
_cell_volume 3911.162696
_symmetry_space_group_name_H-M "I M M A"
_symmetry_group_IT_number 74
_symmetry_cell_setting 'orthorhombic'
loop_
_space_group_symop_operation_xyz
x,y,z
-x,1/2-y,z
x,-y,-z
-x,1/2+y,-z
-x,-y,-z
x,1/2+y,-z
-x,y,z
x,1/2-y,z
1/2+x,1/2+y,1/2+z
1/2-x,-y,1/2+z
1/2+x,1/2-y,1/2-z
1/2-x,y,1/2-z
1/2-x,1/2-y,1/2-z
1/2+x,y,1/2-z
1/2-x,1/2+y,1/2+z
1/2+x,-y,1/2+z
loop_
_atom_site_type_symbol
_atom_site_label
_atom_site_fract_x
_atom_site_fract_y
_atom_site_fract_z
Si Si1 0.679043 0.250000 0.699308
Si Si2 0.824812 0.649727 0.949885
Si Si3 0.672072 0.491844 0.108563
Si Si4 0.673783 0.922939 0.201627
Si Si5 0.676867 0.651226 0.045294
O O1 0.500000 0.250000 0.698738
O O2 0.750000 0.250000 0.750000
O O3 0.744561 0.160832 0.677138
O O4 0.781590 0.750000 0.937898
O O5 0.771078 0.589971 0.907423
O O6 0.000000 0.637785 0.956946
O O7 0.746172 0.618704 0.997000
O O8 0.500000 0.473753 0.095028
O O9 0.690017 0.499306 0.164164
O O10 0.727317 0.582574 0.084605
O O11 0.500000 0.899895 0.211210
O O12 0.750000 0.951570 0.250000
O O13 0.500000 0.652598 0.039325
O O14 0.735353 0.750000 0.058075
#
# Coordination Sequence:
#
# PCOD8297698 Si02
#       5
#     8  16  16  16  16
#     4  10  18  30  48  70  98 136 174 206 248 300
#     4  10  21  36  53  75 105 137 169 213 266 311
#     4  10  21  34  54  79 102 136 178 216 255 303
#     4  10  20  34  52  74 104 137 173 216 259 305
#     4   9  18  33  53  76 105 139 173 208 249 303
#
# _framework density 18.408847999999999
#
# number of rings (size 3 to 8) (size 9 to 14) (size 15 to 20)
#    0.000    2.222    0.000    4.333    1.556    6.667 
#    0.000    0.000    0.000    0.667    0.000    0.000 
#    0.000    0.000    0.000    0.000    0.000    0.000 
#
# Total GULP energy -446323.894063 kJ/mol
# GULP energy per Si atom -12397.885946 kJ/mol
# Density = 1.836695 g / cm^3
# Si number density = 18.408848 Si / 1000 Ang^3
#
#
#
# Elastic Constant Matrix: (Units=GPa)
#
#
# Indices 1 2 3 4 5 6 
#
# 1 72.9441 35.5096 33.6454 0.0000 0.0000 0.0000
# 2 35.5096 77.6807 48.7192 0.0000 0.0000 0.0000
# 3 33.6454 48.7192 92.7256 0.0000 0.0000 0.0000
# 4 0.0000 0.0000 0.0000 25.8793 0.0000 0.0000
# 5 0.0000 0.0000 0.0000 0.0000 21.8670 0.0000
# 6 0.0000 0.0000 0.0000 0.0000 0.0000 29.1551
#
#
#
# Elastic Compliance Matrix: (Units=1/GPa)
#
#
# Indices 1 2 3 4 5 6 
#
# 1 0.018305 -0.006267 -0.003349 0.000000 0.000000 0.000000
# 2 -0.006267 0.021346 -0.008941 0.000000 0.000000 0.000000
# 3 -0.003349 -0.008941 0.016698 0.000000 0.000000 0.000000
# 4 0.000000 0.000000 0.000000 0.038641 0.000000 0.000000
# 5 0.000000 0.000000 0.000000 0.000000 0.045731 0.000000
# 6 0.000000 0.000000 0.000000 0.000000 0.000000 0.034299
#
#
# Mechanical properties :
#
#
# Convention : Reuss Voigt Hill
#
# Bulk Modulus (GPa) = 51.99348 53.23320 52.61334
# Shear Modulus (GPa) = 22.87854 23.74535 23.31194
#
# Velocity S-wave (km/s) = 3.52916 3.59540 3.56243
# Velocity P-wave (km/s) = 6.70162 6.79822 6.75009
#
# Compressibility (1/GPa) = 0.01923318
#
# Stress axis : x y z
#
# Youngs Moduli (GPa) = 54.63070 46.84767 59.88879
#
# Poissons Ratio (x) = 0.29360 0.20057
# Poissons Ratio (y) = 0.34237 0.53549
# Poissons Ratio (z) = 0.18296 0.41888
#
# Static dielectric constant tensor:
#      x y z
#    x 3.381760 0.000000 0.000000 
#    y 0.000000 3.622620 0.000000 
#    z 0.000000 0.000000 3.285670 
# 
# 
# High freq. dielectric constant tensor:
#      x y z
#    x 1.717340 0.000000 0.000000 
#    y 0.000000 1.698600 0.000000 
#    z 0.000000 0.000000 1.702640 
# 
# From -- ./inp_files/63599.got.cif
#   From: 2010.03.12/outbox.cif.g09.slc.cpg/sg74_32_cif.got.tgz:63599.got - 2010.04.16 15:46:19.
