data_PCOD8297242
_publ_section_title
;
Structure prediction by ZEFSAII (Michael W. Deem and Ramdas Pophale) SiO2 
 PCOD8297242
Probable space group: I M M A
;
_chemical_formula_sum "Si O2"
_cell_formula_units_Z 104
_cell_length_a 9.553661
_cell_length_b 26.767673
_cell_length_c 20.963820
_cell_angle_alpha 90.000000
_cell_angle_beta 90.000000
_cell_angle_gamma 90.000000
_cell_volume 5361.062460
_symmetry_space_group_name_H-M "I M M A"
_symmetry_group_IT_number 74
_symmetry_cell_setting 'orthorhombic'
loop_
_space_group_symop_operation_xyz
x,y,z
-x,1/2-y,z
x,-y,-z
-x,1/2+y,-z
-x,-y,-z
x,1/2+y,-z
-x,y,z
x,1/2-y,z
1/2+x,1/2+y,1/2+z
1/2-x,-y,1/2+z
1/2+x,1/2-y,1/2-z
1/2-x,y,1/2-z
1/2-x,1/2-y,1/2-z
1/2+x,y,1/2-z
1/2-x,1/2+y,1/2+z
1/2+x,-y,1/2+z
loop_
_atom_site_type_symbol
_atom_site_label
_atom_site_fract_x
_atom_site_fract_y
_atom_site_fract_z
Si Si1 0.154435 0.803512 0.662495
Si Si2 0.659051 0.060371 0.375436
Si Si3 0.340437 0.462343 0.689344
Si Si4 0.165343 0.348835 0.814059
Si Si5 0.665290 0.367428 0.050085
Si Si6 0.250000 0.617265 0.750000
Si Si7 0.339660 0.193058 0.925719
O O1 0.227474 0.750000 0.680629
O O2 0.229960 0.828296 0.601359
O O3 0.140539 0.843543 0.719498
O O4 0.000000 0.791017 0.639216
O O5 0.500000 0.069947 0.396452
O O6 0.757455 0.080530 0.432532
O O7 0.681613 0.084138 0.305200
O O8 0.690844 0.001096 0.368058
O O9 0.500000 0.467093 0.712120
O O10 0.250000 0.477266 0.750000
O O11 0.308382 0.406315 0.665688
O O12 0.250000 0.336341 0.750000
O O13 0.231507 0.314251 0.868314
O O14 0.000000 0.337043 0.805424
O O15 0.500000 0.376349 0.058331
O O16 0.702102 0.346262 0.980690
O O17 0.500000 0.183169 0.903532
O O18 0.325158 0.250000 0.950764
#
# Coordination Sequence:
#
# PCOD8297242 Si02
#       7
#    16  16  16  16  16   8  16
#     4   9  16  26  41  62  91 129 174 220 264 308
#     4  10  19  31  49  75 107 142 183 229 273 318
#     4   9  18  33  53  79 110 146 182 221 271 325
#     4  10  21  38  61  88 116 142 174 217 268 327
#     4   9  19  34  52  74 102 140 184 225 267 318
#     4  10  17  26  42  66  98 134 177 224 268 318
#     4  10  21  39  62  84 109 143 182 223 271 327
#
# _framework density 19.399139000000002
#
# number of rings (size 3 to 8) (size 9 to 14) (size 15 to 20)
#    0.000    2.462    0.769    1.615    0.000    4.923 
#    0.000    0.769    0.000   13.385    0.000    0.000 
#    0.000    0.000    0.000    0.000    0.000    0.000 
#
# Total GULP energy -644277.537313 kJ/mol
# GULP energy per Si atom -12389.952641 kJ/mol
# Density = 1.935499 g / cm^3
# Si number density = 19.399139 Si / 1000 Ang^3
#
#
#
# Elastic Constant Matrix: (Units=GPa)
#
#
# Indices 1 2 3 4 5 6 
#
# 1 82.8024 28.3145 41.1598 0.0000 0.0000 0.0000
# 2 28.3145 57.4422 25.0623 -0.0001 0.0000 0.0000
# 3 41.1598 25.0623 87.9973 0.0000 0.0000 0.0000
# 4 0.0000 -0.0001 0.0000 25.2235 0.0000 0.0000
# 5 0.0000 0.0000 0.0000 0.0000 29.7302 0.0000
# 6 0.0000 0.0000 0.0000 0.0000 0.0000 25.7301
#
#
#
# Elastic Compliance Matrix: (Units=1/GPa)
#
#
# Indices 1 2 3 4 5 6 
#
# 1 0.017218 -0.005679 -0.006436 0.000000 0.000000 0.000000
# 2 -0.005679 0.021752 -0.003539 0.000000 0.000000 0.000000
# 3 -0.006436 -0.003539 0.015382 0.000000 0.000000 0.000000
# 4 0.000000 0.000000 0.000000 0.039646 0.000000 0.000000
# 5 0.000000 0.000000 0.000000 0.000000 0.033636 0.000000
# 6 0.000000 0.000000 0.000000 0.000000 0.000000 0.038865
#
#
# Mechanical properties :
#
#
# Convention : Reuss Voigt Hill
#
# Bulk Modulus (GPa) = 43.39435 46.36833 44.88134
# Shear Modulus (GPa) = 24.33220 25.05044 24.69132
#
# Velocity S-wave (km/s) = 3.54544 3.59739 3.57151
# Velocity P-wave (km/s) = 6.25923 6.41943 6.33984
#
# Compressibility (1/GPa) = 0.02304447
#
# Stress axis : x y z
#
# Youngs Moduli (GPa) = 58.07783 45.97239 65.00965
#
# Poissons Ratio (x) = 0.26108 0.41842
# Poissons Ratio (y) = 0.32983 0.23006
# Poissons Ratio (z) = 0.37380 0.16269
#
# Static dielectric constant tensor:
#      x y z
#    x 3.423750 0.000000 0.000000 
#    y 0.000000 3.823640 0.000000 
#    z 0.000000 0.000000 3.281350 
# 
# 
# High freq. dielectric constant tensor:
#      x y z
#    x 1.740400 0.000000 0.000000 
#    y 0.000000 1.764210 0.000000 
#    z 0.000000 0.000000 1.731750 
# 
# From -- ./inp_files/49270.got.cif
#   From: 2010.03.12/outbox.cif.g09.slc.cpg/sg74_25_cif.got.tgz:49270.got - 2010.04.16 15:46:19.
