data_PCOD8297753
_publ_section_title
;
Structure prediction by ZEFSAII (Michael W. Deem and Ramdas Pophale) SiO2 
 PCOD8297753
Probable space group: I M M A
;
_chemical_formula_sum "Si O2"
_cell_formula_units_Z 112
_cell_length_a 17.041704
_cell_length_b 26.526562
_cell_length_c 14.139589
_cell_angle_alpha 90.000000
_cell_angle_beta 90.000000
_cell_angle_gamma 90.000000
_cell_volume 6391.911747
_symmetry_space_group_name_H-M "I M M A"
_symmetry_group_IT_number 74
_symmetry_cell_setting 'orthorhombic'
loop_
_space_group_symop_operation_xyz
x,y,z
-x,1/2-y,z
x,-y,-z
-x,1/2+y,-z
-x,-y,-z
x,1/2+y,-z
-x,y,z
x,1/2-y,z
1/2+x,1/2+y,1/2+z
1/2-x,-y,1/2+z
1/2+x,1/2-y,1/2-z
1/2-x,y,1/2-z
1/2-x,1/2-y,1/2-z
1/2+x,y,1/2-z
1/2-x,1/2+y,1/2+z
1/2+x,-y,1/2+z
loop_
_atom_site_type_symbol
_atom_site_label
_atom_site_fract_x
_atom_site_fract_y
_atom_site_fract_z
Si Si1 0.830288 0.061938 0.802326
Si Si2 0.669140 0.952648 0.618448
Si Si3 0.091884 0.616082 0.736209
Si Si4 0.342411 0.569853 0.932449
Si Si5 0.090673 0.038145 0.616372
Si Si6 0.592446 0.694377 0.612038
Si Si7 0.908472 0.390663 0.969994
O O1 0.750000 0.076759 0.750000
O O2 0.897146 0.055833 0.723530
O O3 0.858497 0.105732 0.873411
O O4 0.819546 0.012018 0.866303
O O5 0.642137 0.929087 0.717569
O O6 0.749764 0.928371 0.582020
O O7 0.604954 0.939206 0.538190
O O8 0.117594 0.616101 0.626106
O O9 0.114296 0.668655 0.787306
O O10 0.000000 0.604595 0.748506
O O11 0.379059 0.518371 0.893499
O O12 0.362296 0.574803 0.043763
O O13 0.000000 0.040804 0.589969
O O14 0.500000 0.699593 0.604398
O O15 0.631576 0.750000 0.606513
O O16 0.621373 0.659298 0.525510
O O17 0.000000 0.388117 0.944672
#
# Coordination Sequence:
#
# PCOD8297753 Si02
#       7
#    16  16  16  16  16  16  16
#     4  12  21  33  47  70 103 139 170 202 242 294
#     4  11  20  32  48  68 102 135 166 199 247 294
#     4  10  18  30  51  75  98 128 167 207 248 298
#     4  11  20  33  45  66  96 138 173 202 237 287
#     4  11  22  32  46  64  93 137 179 210 226 272
#     4   8  16  33  55  79 101 122 157 210 268 318
#     4  10  22  34  52  77 100 129 168 214 260 300
#
# _framework density 17.522143
#
# number of rings (size 3 to 8) (size 9 to 14) (size 15 to 20)
#    0.000    1.571    2.857    5.143    2.000    2.286 
#    0.000    0.000    0.000    7.286    0.000    1.000 
#    0.000    5.714    0.000    0.000    0.000    0.000 
#
# Total GULP energy -694249.150019 kJ/mol
# GULP energy per Si atom -12397.306250 kJ/mol
# Density = 1.748226 g / cm^3
# Si number density = 17.522143 Si / 1000 Ang^3
#
#
#
# Elastic Constant Matrix: (Units=GPa)
#
#
# Indices 1 2 3 4 5 6 
#
# 1 74.5473 25.5052 14.0821 0.0000 0.0000 0.0000
# 2 25.5052 79.6076 49.1868 -0.0002 0.0000 0.0000
# 3 14.0821 49.1868 99.4516 -0.0004 0.0000 -0.0001
# 4 0.0000 -0.0002 -0.0004 16.8264 0.0000 -0.0001
# 5 0.0000 0.0000 0.0000 0.0000 30.7482 0.0000
# 6 0.0000 0.0000 -0.0001 -0.0001 0.0000 9.6864
#
#
#
# Elastic Compliance Matrix: (Units=1/GPa)
#
#
# Indices 1 2 3 4 5 6 
#
# 1 0.015075 -0.005056 0.000366 0.000000 0.000000 0.000000
# 2 -0.005056 0.019785 -0.009069 0.000000 0.000000 0.000000
# 3 0.000366 -0.009069 0.014489 0.000000 0.000000 0.000000
# 4 0.000000 0.000000 0.000000 0.059430 0.000000 0.000000
# 5 0.000000 0.000000 0.000000 0.000000 0.032522 0.000000
# 6 0.000000 0.000000 0.000000 0.000000 0.000000 0.103237
#
#
# Mechanical properties :
#
#
# Convention : Reuss Voigt Hill
#
# Bulk Modulus (GPa) = 45.80804 47.90609 46.85707
# Shear Modulus (GPa) = 17.89968 22.44103 20.17036
#
# Velocity S-wave (km/s) = 3.19963 3.58260 3.39652
# Velocity P-wave (km/s) = 6.31268 6.67181 6.49473
#
# Compressibility (1/GPa) = 0.02183023
#
# Stress axis : x y z
#
# Youngs Moduli (GPa) = 66.33504 50.54289 69.01840
#
# Poissons Ratio (x) = 0.25554 -0.02526
# Poissons Ratio (y) = 0.33539 0.62596
# Poissons Ratio (z) = -0.02428 0.45840
#
# Static dielectric constant tensor:
#      x y z
#    x 3.257710 0.000000 0.000000 
#    y 0.000000 3.125470 0.000000 
#    z 0.000000 0.000000 3.552740 
# 
# 
# High freq. dielectric constant tensor:
#      x y z
#    x 1.680870 0.000000 0.000000 
#    y 0.000000 1.615650 0.000000 
#    z 0.000000 0.000000 1.689550 
# 
# From -- ./inp_files/33143.got.cif
#   From: 2010.03.12/outbox.cif.g09.slc.cpg/sg74_17_cif.got.tgz:33143.got - 2010.04.16 15:46:19.
