data_PCOD8297835
_publ_section_title
;
Structure prediction by ZEFSAII (Michael W. Deem and Ramdas Pophale) SiO2 
 PCOD8297835
Probable space group: I M M A
;
_chemical_formula_sum "Si O2"
_cell_formula_units_Z 64
_cell_length_a 10.470139
_cell_length_b 18.912804
_cell_length_c 16.283328
_cell_angle_alpha 90.000000
_cell_angle_beta 90.000000
_cell_angle_gamma 90.000000
_cell_volume 3224.419510
_symmetry_space_group_name_H-M "I M M A"
_symmetry_group_IT_number 74
_symmetry_cell_setting 'orthorhombic'
loop_
_space_group_symop_operation_xyz
x,y,z
-x,1/2-y,z
x,-y,-z
-x,1/2+y,-z
-x,-y,-z
x,1/2+y,-z
-x,y,z
x,1/2-y,z
1/2+x,1/2+y,1/2+z
1/2-x,-y,1/2+z
1/2+x,1/2-y,1/2-z
1/2-x,y,1/2-z
1/2-x,1/2-y,1/2-z
1/2+x,y,1/2-z
1/2-x,1/2+y,1/2+z
1/2+x,-y,1/2+z
loop_
_atom_site_type_symbol
_atom_site_label
_atom_site_fract_x
_atom_site_fract_y
_atom_site_fract_z
Si Si1 0.500000 0.330641 0.347136
Si Si2 0.000000 0.670310 0.650970
Si Si3 0.250719 0.098951 0.156452
Si Si4 0.147271 0.830019 0.321519
Si Si5 0.147062 0.469242 0.588620
O O1 0.500000 0.250000 0.377125
O O2 0.500000 0.336016 0.249070
O O3 0.622685 0.370661 0.385135
O O4 0.874814 0.633281 0.612466
O O5 0.000000 0.750000 0.620241
O O6 0.250000 0.123852 0.250000
O O7 0.263239 0.014108 0.150560
O O8 0.166158 0.750000 0.355231
O O9 0.250000 0.845097 0.250000
O O10 0.174235 0.885899 0.395699
O O11 0.000000 0.839409 0.289542
O O12 0.185731 0.500000 0.500000
O O13 0.000000 0.486193 0.607993
#
# Coordination Sequence:
#
# PCOD8297835 Si02
#       5
#     8   8  16  16  16
#     4   9  18  30  47  72 105 135 167 216 258 294
#     4   9  16  28  47  72  99 131 173 210 246 296
#     4  10  18  31  51  75 101 136 178 220 262 314
#     4   9  18  35  60  86 110 141 185 235 282 326
#     4  10  20  35  54  78 112 141 175 224 276 330
#
# _framework density 19.848534999999998
#
# number of rings (size 3 to 8) (size 9 to 14) (size 15 to 20)
#    0.000    2.500    1.250    1.500    0.000    3.000 
#    2.250    3.125    0.000    0.000    0.000    0.000 
#    0.000    0.000    0.000    0.000    0.000    0.000 
#
# Total GULP energy -396488.226127 kJ/mol
# GULP energy per Si atom -12390.257066 kJ/mol
# Density = 1.980336 g / cm^3
# Si number density = 19.848535 Si / 1000 Ang^3
#
#
#
# Elastic Constant Matrix: (Units=GPa)
#
#
# Indices 1 2 3 4 5 6 
#
# 1 140.8466 74.5343 28.0447 0.0000 0.0000 0.0000
# 2 74.5343 170.8727 39.0624 0.0000 0.0000 0.0000
# 3 28.0447 39.0624 43.2950 0.0000 0.0000 0.0000
# 4 0.0000 0.0000 0.0000 22.6815 0.0000 0.0000
# 5 0.0000 0.0000 0.0000 0.0000 12.8947 0.0000
# 6 0.0000 0.0000 0.0000 0.0000 0.0000 34.2575
#
#
#
# Elastic Compliance Matrix: (Units=1/GPa)
#
#
# Indices 1 2 3 4 5 6 
#
# 1 0.009541 -0.003463 -0.003056 0.000000 0.000000 0.000000
# 2 -0.003463 0.008630 -0.005543 0.000000 0.000000 0.000000
# 3 -0.003056 -0.005543 0.030078 0.000000 0.000000 0.000000
# 4 0.000000 0.000000 0.000000 0.044089 0.000000 0.000000
# 5 0.000000 0.000000 0.000000 0.000000 0.077551 0.000000
# 6 0.000000 0.000000 0.000000 0.000000 0.000000 0.029191
#
#
# Mechanical properties :
#
#
# Convention : Reuss Voigt Hill
#
# Bulk Modulus (GPa) = 41.45062 70.92190 56.18626
# Shear Modulus (GPa) = 21.62205 28.19160 24.90682
#
# Velocity S-wave (km/s) = 3.30411 3.77282 3.54622
# Velocity P-wave (km/s) = 5.95693 7.40190 6.71837
#
# Compressibility (1/GPa) = 0.02412509
#
# Stress axis : x y z
#
# Youngs Moduli (GPa) = 104.81018 115.87281 33.24708
#
# Poissons Ratio (x) = 0.40130 0.10159
# Poissons Ratio (y) = 0.36298 0.18429
# Poissons Ratio (z) = 0.32026 0.64229
#
# Static dielectric constant tensor:
#      x y z
#    x 3.936830 0.000000 0.000000 
#    y 0.000000 3.811670 0.000000 
#    z 0.000000 0.000000 3.007960 
# 
# 
# High freq. dielectric constant tensor:
#      x y z
#    x 1.779100 0.000000 0.000000 
#    y 0.000000 1.791140 0.000000 
#    z 0.000000 0.000000 1.709070 
# 
# From -- ./inp_files/30265.got.cif
#   From: 2010.03.12/outbox.cif.g09.slc.cpg/sg74_16_cif.got.tgz:30265.got - 2010.04.16 15:46:19.
