data_PCOD8297900
_publ_section_title
;
Structure prediction by ZEFSAII (Michael W. Deem and Ramdas Pophale) SiO2 
 PCOD8297900
Probable space group: I M M A
;
_chemical_formula_sum "Si O2"
_cell_formula_units_Z 112
_cell_length_a 17.364321
_cell_length_b 24.213054
_cell_length_c 15.131463
_cell_angle_alpha 90.000000
_cell_angle_beta 90.000000
_cell_angle_gamma 90.000000
_cell_volume 6361.921361
_symmetry_space_group_name_H-M "I M M A"
_symmetry_group_IT_number 74
_symmetry_cell_setting 'orthorhombic'
loop_
_space_group_symop_operation_xyz
x,y,z
-x,1/2-y,z
x,-y,-z
-x,1/2+y,-z
-x,-y,-z
x,1/2+y,-z
-x,y,z
x,1/2-y,z
1/2+x,1/2+y,1/2+z
1/2-x,-y,1/2+z
1/2+x,1/2-y,1/2-z
1/2-x,y,1/2-z
1/2-x,1/2-y,1/2-z
1/2+x,y,1/2-z
1/2-x,1/2+y,1/2+z
1/2+x,-y,1/2+z
loop_
_atom_site_type_symbol
_atom_site_label
_atom_site_fract_x
_atom_site_fract_y
_atom_site_fract_z
Si Si1 0.237843 0.186430 0.982440
Si Si2 0.415922 0.188032 0.427719
Si Si3 0.912531 0.441905 0.547857
Si Si4 0.287728 0.476673 0.345378
Si Si5 0.327104 0.887057 0.900434
Si Si6 0.268801 0.411013 0.850826
Si Si7 0.087832 0.401577 0.218848
O O1 0.257058 0.250000 0.958095
O O2 0.147091 0.177241 0.997394
O O3 0.284329 0.169863 0.071959
O O4 0.259374 0.145852 0.903014
O O5 0.500000 0.177572 0.471097
O O6 0.407963 0.250000 0.391436
O O7 0.405315 0.150918 0.342477
O O8 0.900476 0.500000 0.500000
O O9 0.893193 0.396873 0.473002
O O10 0.856163 0.434072 0.632594
O O11 0.000000 0.434290 0.581489
O O12 0.250000 0.483203 0.250000
O O13 0.237429 0.435353 0.405582
O O14 0.287632 0.539104 0.385541
O O15 0.374213 0.453691 0.331976
O O16 0.364450 0.883742 0.804707
O O17 0.250000 0.396499 0.750000
O O18 0.000000 0.417221 0.242909
#
# Coordination Sequence:
#
# PCOD8297900 Si02
#       7
#    16  16  16  16  16  16  16
#     4  10  21  35  55  77 100 141 192 237 276 324
#     4   9  18  33  50  72 105 144 184 223 263 314
#     4  10  19  32  54  82 109 139 177 220 269 333
#     4   9  17  31  49  74 105 141 168 209 264 323
#     4  10  18  32  51  77 111 139 175 221 271 329
#     4  10  21  38  56  78 107 141 179 231 279 326
#     4  10  19  31  50  78 114 149 178 213 268 335
#
# _framework density 17.604745000000001
#
# number of rings (size 3 to 8) (size 9 to 14) (size 15 to 20)
#    0.000    2.286    2.857    0.429    0.000    0.857 
#    0.000    2.857    0.000   12.000    0.000    0.000 
#    0.000    0.000    0.000    0.000    0.000    0.000 
#
# Total GULP energy -693960.036845 kJ/mol
# GULP energy per Si atom -12392.143515 kJ/mol
# Density = 1.756468 g / cm^3
# Si number density = 17.604745 Si / 1000 Ang^3
#
#
#
# Elastic Constant Matrix: (Units=GPa)
#
#
# Indices 1 2 3 4 5 6 
#
# 1 124.3825 59.5794 48.6273 0.0000 0.0000 0.0000
# 2 59.5794 116.3748 34.2440 0.0000 0.0000 0.0000
# 3 48.6273 34.2440 62.7215 0.0000 0.0000 0.0000
# 4 0.0000 0.0000 0.0000 24.9911 0.0000 0.0000
# 5 0.0000 0.0000 0.0000 0.0000 25.1261 0.0000
# 6 0.0000 0.0000 0.0000 0.0000 0.0000 24.0422
#
#
#
# Elastic Compliance Matrix: (Units=1/GPa)
#
#
# Indices 1 2 3 4 5 6 
#
# 1 0.013243 -0.004478 -0.007822 0.000000 0.000000 0.000000
# 2 -0.004478 0.011752 -0.002944 0.000000 0.000000 0.000000
# 3 -0.007822 -0.002944 0.023615 0.000000 0.000000 0.000000
# 4 0.000000 0.000000 0.000000 0.040014 0.000000 0.000000
# 5 0.000000 0.000000 0.000000 0.000000 0.039799 0.000000
# 6 0.000000 0.000000 0.000000 0.000000 0.000000 0.041594
#
#
# Mechanical properties :
#
#
# Convention : Reuss Voigt Hill
#
# Bulk Modulus (GPa) = 55.18454 65.37560 60.28007
# Shear Modulus (GPa) = 24.20761 25.56708 24.88734
#
# Velocity S-wave (km/s) = 3.71221 3.81502 3.76396
# Velocity P-wave (km/s) = 7.05609 7.52474 7.29418
#
# Compressibility (1/GPa) = 0.01812102
#
# Stress axis : x y z
#
# Youngs Moduli (GPa) = 75.51291 85.09234 42.34523
#
# Poissons Ratio (x) = 0.38105 0.33123
# Poissons Ratio (y) = 0.33815 0.12468
# Poissons Ratio (z) = 0.59067 0.25054
#
# Static dielectric constant tensor:
#      x y z
#    x 3.502990 0.000000 0.000000 
#    y 0.000000 3.373310 0.000000 
#    z 0.000000 0.000000 3.059670 
# 
# 
# High freq. dielectric constant tensor:
#      x y z
#    x 1.681350 0.000000 0.000000 
#    y 0.000000 1.676570 0.000000 
#    z 0.000000 0.000000 1.659810 
# 
# From -- ./inp_files/44380.got.cif
#   From: 2010.03.12/outbox.cif.g09.slc.cpg/sg74_23_cif.got.tgz:44380.got - 2010.04.16 15:46:19.
