data_PCOD8297173
_publ_section_title
;
Structure prediction by ZEFSAII (Michael W. Deem and Ramdas Pophale) SiO2 
 PCOD8297173
Probable space group: I M M A
;
_chemical_formula_sum "Si O2"
_cell_formula_units_Z 120
_cell_length_a 24.110803
_cell_length_b 9.842933
_cell_length_c 29.322058
_cell_angle_alpha 90.000000
_cell_angle_beta 90.000000
_cell_angle_gamma 90.000000
_cell_volume 6958.740669
_symmetry_space_group_name_H-M "I M M A"
_symmetry_group_IT_number 74
_symmetry_cell_setting 'orthorhombic'
loop_
_space_group_symop_operation_xyz
x,y,z
-x,1/2-y,z
x,-y,-z
-x,1/2+y,-z
-x,-y,-z
x,1/2+y,-z
-x,y,z
x,1/2-y,z
1/2+x,1/2+y,1/2+z
1/2-x,-y,1/2+z
1/2+x,1/2-y,1/2-z
1/2-x,y,1/2-z
1/2-x,1/2-y,1/2-z
1/2+x,y,1/2-z
1/2-x,1/2+y,1/2+z
1/2+x,-y,1/2+z
loop_
_atom_site_type_symbol
_atom_site_label
_atom_site_fract_x
_atom_site_fract_y
_atom_site_fract_z
Si Si1 0.859683 0.588598 0.130613
Si Si2 0.564212 0.592083 0.456279
Si Si3 0.878800 0.093778 0.631318
Si Si4 0.935927 0.596953 0.699674
Si Si5 0.364402 0.404000 0.285155
Si Si6 0.562361 0.401689 0.961567
Si Si7 0.250000 0.497620 0.750000
Si Si8 0.239176 0.402248 0.651293
O O1 0.863420 0.750000 0.140833
O O2 0.895158 0.550997 0.085575
O O3 0.881727 0.505544 0.174059
O O4 0.795023 0.538685 0.127381
O O5 0.579782 0.500000 0.500000
O O6 0.500000 0.566763 0.441864
O O7 0.573244 0.750000 0.469302
O O8 0.879957 0.250000 0.649021
O O9 0.895715 0.084609 0.579440
O O10 0.817373 0.025684 0.634602
O O11 0.922059 0.006521 0.659698
O O12 0.918743 0.750000 0.685205
O O13 0.904791 0.551345 0.745007
O O14 0.000000 0.587591 0.710927
O O15 0.374867 0.250000 0.301814
O O16 0.302077 0.410846 0.265109
O O17 0.500000 0.443244 0.946433
O O18 0.562538 0.250000 0.981438
O O19 0.585677 0.500000 0.000000
O O20 0.238383 0.404031 0.706276
O O21 0.235468 0.250000 0.633796
#
# Coordination Sequence:
#
# PCOD8297173 Si02
#       8
#    16  16  16  16  16  16   8  16
#     4   9  19  34  51  74 103 133 166 205 250 300
#     4   9  18  34  56  79 102 131 169 212 257 308
#     4  10  19  33  52  74  97 126 166 210 246 288
#     4  10  21  35  48  68 101 136 165 200 251 303
#     4  10  20  32  48  72 100 133 169 207 247 292
#     4   9  18  32  50  70  92 119 155 198 243 290
#     4  10  16  30  50  70  95 134 171 210 241 290
#     4   9  17  29  49  74 100 131 167 207 248 292
#
# _framework density 17.244498
#
# number of rings (size 3 to 8) (size 9 to 14) (size 15 to 20)
#    0.000    2.533    1.333    0.800    0.000    3.467 
#    0.000    2.000    0.000    0.000    0.000    0.000 
#    0.000    0.000    0.000    0.000    0.000    0.000 
#
# Total GULP energy -743572.070067 kJ/mol
# GULP energy per Si atom -12392.867834 kJ/mol
# Density = 1.720525 g / cm^3
# Si number density = 17.244498 Si / 1000 Ang^3
#
#
#
# Elastic Constant Matrix: (Units=GPa)
#
#
# Indices 1 2 3 4 5 6 
#
# 1 78.5758 25.5049 53.6348 0.0000 0.0000 0.0000
# 2 25.5049 64.6355 49.4785 0.0000 0.0000 0.0000
# 3 53.6348 49.4785 100.5213 0.0000 0.0000 0.0000
# 4 0.0000 0.0000 0.0000 31.9322 0.0000 0.0000
# 5 0.0000 0.0000 0.0000 0.0000 29.0171 0.0000
# 6 0.0000 0.0000 0.0000 0.0000 0.0000 20.4503
#
#
#
# Elastic Compliance Matrix: (Units=1/GPa)
#
#
# Indices 1 2 3 4 5 6 
#
# 1 0.020025 0.000445 -0.010904 0.000000 0.000000 0.000000
# 2 0.000445 0.024835 -0.012462 0.000000 0.000000 0.000000
# 3 -0.010904 -0.012462 0.021900 0.000000 0.000000 0.000000
# 4 0.000000 0.000000 0.000000 0.031316 0.000000 0.000000
# 5 0.000000 0.000000 0.000000 0.000000 0.034462 0.000000
# 6 0.000000 0.000000 0.000000 0.000000 0.000000 0.048899
#
#
# Mechanical properties :
#
#
# Convention : Reuss Voigt Hill
#
# Bulk Modulus (GPa) = 47.80317 55.66321 51.73319
# Shear Modulus (GPa) = 21.34455 23.95421 22.64938
#
# Velocity S-wave (km/s) = 3.52200 3.73110 3.62805
# Velocity P-wave (km/s) = 6.65735 7.13515 6.90039
#
# Compressibility (1/GPa) = 0.02091911
#
# Stress axis : x y z
#
# Youngs Moduli (GPa) = 49.93810 40.26521 45.66228
#
# Poissons Ratio (x) = -0.01792 0.49788
# Poissons Ratio (y) = -0.02222 0.56904
# Poissons Ratio (z) = 0.54451 0.50178
#
# Static dielectric constant tensor:
#      x y z
#    x 3.425820 0.000000 0.000000 
#    y 0.000000 3.195260 0.000000 
#    z 0.000000 0.000000 3.053200 
# 
# 
# High freq. dielectric constant tensor:
#      x y z
#    x 1.673500 0.000000 0.000000 
#    y 0.000000 1.658190 0.000000 
#    z 0.000000 0.000000 1.650060 
# 
# From -- ./inp_files/68443.got.cif
#   From: 2010.03.12/outbox.cif.g09.slc.cpg/sg74_35_cif.got.tgz:68443.got - 2010.04.16 15:46:19.
