data_PCOD8297446
_publ_section_title
;
Structure prediction by ZEFSAII (Michael W. Deem and Ramdas Pophale) SiO2 
 PCOD8297446
Probable space group: I M M A
;
_chemical_formula_sum "Si O2"
_cell_formula_units_Z 112
_cell_length_a 28.624093
_cell_length_b 13.946789
_cell_length_c 17.585073
_cell_angle_alpha 90.000000
_cell_angle_beta 90.000000
_cell_angle_gamma 90.000000
_cell_volume 7020.210593
_symmetry_space_group_name_H-M "I M M A"
_symmetry_group_IT_number 74
_symmetry_cell_setting 'orthorhombic'
loop_
_space_group_symop_operation_xyz
x,y,z
-x,1/2-y,z
x,-y,-z
-x,1/2+y,-z
-x,-y,-z
x,1/2+y,-z
-x,y,z
x,1/2-y,z
1/2+x,1/2+y,1/2+z
1/2-x,-y,1/2+z
1/2+x,1/2-y,1/2-z
1/2-x,y,1/2-z
1/2-x,1/2-y,1/2-z
1/2+x,y,1/2-z
1/2-x,1/2+y,1/2+z
1/2+x,-y,1/2+z
loop_
_atom_site_type_symbol
_atom_site_label
_atom_site_fract_x
_atom_site_fract_y
_atom_site_fract_z
Si Si1 0.722892 0.552984 0.427309
Si Si2 0.053141 0.983056 0.589338
Si Si3 0.639118 0.863256 0.885457
Si Si4 0.215961 0.467450 0.306883
Si Si5 0.678850 0.138844 0.714478
Si Si6 0.683464 0.359680 0.961073
Si Si7 0.889260 0.640138 0.338103
O O1 0.698855 0.500000 0.500000
O O2 0.755249 0.475150 0.385055
O O3 0.683234 0.600748 0.372962
O O4 0.760646 0.631233 0.455552
O O5 0.085180 0.894807 0.616574
O O6 0.000000 0.955840 0.608193
O O7 0.059994 0.000000 0.500000
O O8 0.066045 0.077400 0.638845
O O9 0.642070 0.750000 0.877499
O O10 0.667278 0.910963 0.815522
O O11 0.663454 0.905833 0.961608
O O12 0.250000 0.407918 0.250000
O O13 0.210407 0.573128 0.268689
O O14 0.695429 0.250000 0.719706
O O15 0.625798 0.130971 0.748819
O O16 0.669767 0.250000 0.964543
O O17 0.655015 0.401335 0.888038
O O18 0.901438 0.750000 0.357891
#
# Coordination Sequence:
#
# PCOD8297446 Si02
#       7
#    16  16  16  16  16  16  16
#     4  11  19  28  43  66 100 130 166 205 246 300
#     4  11  22  34  50  71 100 135 173 216 255 297
#     4  11  21  34  49  66  95 137 178 214 245 290
#     4  10  20  31  48  71  96 129 169 209 250 296
#     4  10  20  31  49  73  97 126 167 216 260 302
#     4  10  18  27  43  63  90 129 173 210 247 289
#     4  10  19  32  50  70  94 124 162 211 263 307
#
# _framework density 15.953937
#
# number of rings (size 3 to 8) (size 9 to 14) (size 15 to 20)
#    0.000    1.571    5.714    0.429    0.000    3.429 
#    0.000    1.429    0.000    0.000    0.000    0.000 
#    0.000    0.571    0.000    0.000    1.143    0.000 
#
# Total GULP energy -693806.012208 kJ/mol
# GULP energy per Si atom -12389.393075 kJ/mol
# Density = 1.591762 g / cm^3
# Si number density = 15.953937 Si / 1000 Ang^3
#
#
#
# Elastic Constant Matrix: (Units=GPa)
#
#
# Indices 1 2 3 4 5 6 
#
# 1 89.0464 38.3895 44.2765 0.0000 0.0000 0.0000
# 2 38.3895 70.9777 43.5515 0.0000 0.0000 0.0000
# 3 44.2765 43.5515 84.6253 0.0000 0.0000 0.0000
# 4 0.0000 0.0000 0.0000 24.4857 0.0000 0.0000
# 5 0.0000 0.0000 0.0000 0.0000 21.1048 0.0000
# 6 0.0000 0.0000 0.0000 0.0000 0.0000 14.2583
#
#
#
# Elastic Compliance Matrix: (Units=1/GPa)
#
#
# Indices 1 2 3 4 5 6 
#
# 1 0.016429 -0.005278 -0.005879 0.000000 0.000000 0.000000
# 2 -0.005278 0.022287 -0.008708 0.000000 0.000000 0.000000
# 3 -0.005879 -0.008708 0.019374 0.000000 0.000000 0.000000
# 4 0.000000 0.000000 0.000000 0.040840 0.000000 0.000000
# 5 0.000000 0.000000 0.000000 0.000000 0.047383 0.000000
# 6 0.000000 0.000000 0.000000 0.000000 0.000000 0.070135
#
#
# Mechanical properties :
#
#
# Convention : Reuss Voigt Hill
#
# Bulk Modulus (GPa) = 54.46949 55.23161 54.85055
# Shear Modulus (GPa) = 19.06218 19.86521 19.46369
#
# Velocity S-wave (km/s) = 3.46038 3.53251 3.49663
# Velocity P-wave (km/s) = 7.08389 7.16469 7.12440
#
# Compressibility (1/GPa) = 0.01835890
#
# Stress axis : x y z
#
# Youngs Moduli (GPa) = 60.86762 44.86893 51.61435
#
# Poissons Ratio (x) = 0.23684 0.30346
# Poissons Ratio (y) = 0.32129 0.44946
# Poissons Ratio (z) = 0.35786 0.39072
#
# Static dielectric constant tensor:
#      x y z
#    x 2.820540 0.000000 0.000000 
#    y 0.000000 2.911980 0.000000 
#    z 0.000000 0.000000 3.174660 
# 
# 
# High freq. dielectric constant tensor:
#      x y z
#    x 1.572600 0.000000 0.000000 
#    y 0.000000 1.614070 0.000000 
#    z 0.000000 0.000000 1.596760 
# 
# From -- ./inp_files/37926.got.cif
#   From: 2010.03.12/outbox.cif.g09.slc.cpg/sg74_19_cif.got.tgz:37926.got - 2010.04.16 15:46:19.
