data_PCOD8297518
_publ_section_title
;
Structure prediction by ZEFSAII (Michael W. Deem and Ramdas Pophale) SiO2 
 PCOD8297518
Probable space group: I M M A
;
_chemical_formula_sum "Si O2"
_cell_formula_units_Z 96
_cell_length_a 13.622826
_cell_length_b 18.093286
_cell_length_c 23.573907
_cell_angle_alpha 90.000000
_cell_angle_beta 90.000000
_cell_angle_gamma 90.000000
_cell_volume 5810.536365
_symmetry_space_group_name_H-M "I M M A"
_symmetry_group_IT_number 74
_symmetry_cell_setting 'orthorhombic'
loop_
_space_group_symop_operation_xyz
x,y,z
-x,1/2-y,z
x,-y,-z
-x,1/2+y,-z
-x,-y,-z
x,1/2+y,-z
-x,y,z
x,1/2-y,z
1/2+x,1/2+y,1/2+z
1/2-x,-y,1/2+z
1/2+x,1/2-y,1/2-z
1/2-x,y,1/2-z
1/2-x,1/2-y,1/2-z
1/2+x,y,1/2-z
1/2-x,1/2+y,1/2+z
1/2+x,-y,1/2+z
loop_
_atom_site_type_symbol
_atom_site_label
_atom_site_fract_x
_atom_site_fract_y
_atom_site_fract_z
Si Si1 0.887488 0.057156 0.665319
Si Si2 0.886936 0.663366 0.890274
Si Si3 0.743216 0.836032 0.381162
Si Si4 0.271550 0.944908 0.686619
Si Si5 0.388357 0.587885 0.294833
Si Si6 0.608071 0.162334 0.517851
O O1 0.844128 0.117720 0.621919
O O2 0.873794 0.093168 0.727431
O O3 0.000000 0.040844 0.650265
O O4 0.828425 0.979942 0.660779
O O5 0.868883 0.750000 0.883096
O O6 0.809438 0.623575 0.849656
O O7 0.862877 0.637379 0.954426
O O8 0.000000 0.644064 0.874930
O O9 0.768849 0.750000 0.385925
O O10 0.676938 0.849871 0.325350
O O11 0.686303 0.866811 0.436553
O O12 0.250000 0.916166 0.750000
O O13 0.355800 0.006900 0.685083
O O14 0.500000 0.601294 0.312685
O O15 0.500000 0.130533 0.533068
O O16 0.603250 0.250000 0.520428
#
# Coordination Sequence:
#
# PCOD8297518 Si02
#       6
#    16  16  16  16  16  16
#     4   9  19  33  45  60  87 124 160 192 226 260
#     4   9  17  30  50  75  98 116 138 175 224 275
#     4  10  18  28  45  67  90 119 155 191 226 266
#     4   9  17  30  49  68  90 121 151 179 217 268
#     4   9  17  29  44  64  92 122 150 184 229 276
#     4   8  15  28  45  67  95 121 141 170 222 280
#
# _framework density 16.521709000000001
#
# number of rings (size 3 to 8) (size 9 to 14) (size 15 to 20)
#    0.000    3.000    0.000    3.500    0.000    3.667 
#    0.000    5.000    0.000   11.500    0.000    2.333 
#    0.000    0.000    0.000    0.000    0.000    0.000 
#
# Total GULP energy -595029.580759 kJ/mol
# GULP energy per Si atom -12396.449599 kJ/mol
# Density = 1.648411 g / cm^3
# Si number density = 16.521709 Si / 1000 Ang^3
#
#
#
# Elastic Constant Matrix: (Units=GPa)
#
#
# Indices 1 2 3 4 5 6 
#
# 1 123.6001 47.0846 53.3550 0.0000 0.0000 0.0000
# 2 47.0846 58.6325 41.4096 0.0000 0.0000 0.0000
# 3 53.3550 41.4096 81.2772 0.0000 0.0000 0.0000
# 4 0.0000 0.0000 0.0000 13.4407 0.0000 0.0000
# 5 0.0000 0.0000 0.0000 0.0000 28.5439 0.0000
# 6 0.0000 0.0000 0.0000 0.0000 0.0000 24.9059
#
#
#
# Elastic Compliance Matrix: (Units=1/GPa)
#
#
# Indices 1 2 3 4 5 6 
#
# 1 0.012817 -0.006795 -0.004951 0.000000 0.000000 0.000000
# 2 -0.006795 0.030245 -0.010948 0.000000 0.000000 0.000000
# 3 -0.004951 -0.010948 0.021132 0.000000 0.000000 0.000000
# 4 0.000000 0.000000 0.000000 0.074401 0.000000 0.000000
# 5 0.000000 0.000000 0.000000 0.000000 0.035034 0.000000
# 6 0.000000 0.000000 0.000000 0.000000 0.000000 0.040151
#
#
# Mechanical properties :
#
#
# Convention : Reuss Voigt Hill
#
# Bulk Modulus (GPa) = 53.18296 60.80093 56.99194
# Shear Modulus (GPa) = 18.83685 21.48881 20.16283
#
# Velocity S-wave (km/s) = 3.38024 3.61035 3.49719
# Velocity P-wave (km/s) = 6.89161 7.36614 7.13282
#
# Compressibility (1/GPa) = 0.01880302
#
# Stress axis : x y z
#
# Youngs Moduli (GPa) = 78.02333 33.06361 47.32157
#
# Poissons Ratio (x) = 0.22468 0.23431
# Poissons Ratio (y) = 0.53020 0.51809
# Poissons Ratio (z) = 0.38633 0.36199
#
# Static dielectric constant tensor:
#      x y z
#    x 3.221110 0.000000 0.000000 
#    y 0.000000 2.783720 0.000000 
#    z 0.000000 0.000000 3.147970 
# 
# 
# High freq. dielectric constant tensor:
#      x y z
#    x 1.632290 0.000000 0.000000 
#    y 0.000000 1.611260 0.000000 
#    z 0.000000 0.000000 1.626500 
# 
# From -- ./inp_files/52235.got.cif
#   From: 2010.03.12/outbox.cif.g09.slc.cpg/sg74_27_cif.got.tgz:52235.got - 2010.04.16 15:46:19.
