data_PCOD8297020
_publ_section_title
;
Structure prediction by ZEFSAII (Michael W. Deem and Ramdas Pophale) SiO2 
 PCOD8297020
Probable space group: I B C A 
;
_chemical_formula_sum "Si O2"
_cell_formula_units_Z 56
_cell_length_a 11.914127
_cell_length_b 11.590025
_cell_length_c 15.511726
_cell_angle_alpha 90.000000
_cell_angle_beta 90.000000
_cell_angle_gamma 90.000000
_cell_volume 2141.937147
_symmetry_space_group_name_H-M "I B C A "
_symmetry_group_IT_number 73
_symmetry_cell_setting 'orthorhombic'
loop_
_space_group_symop_operation_xyz
x,y,z
-x,1/2-y,z
x,-y,1/2-z
1/2-x,y,-z
-x,-y,-z
x,1/2+y,-z
-x,y,1/2+z
1/2+x,-y,z
1/2+x,1/2+y,1/2+z
1/2-x,-y,1/2+z
1/2+x,1/2-y,-z
-x,1/2+y,1/2-z
1/2-x,1/2-y,1/2-z
1/2+x,y,1/2-z
1/2-x,1/2+y,z
x,1/2-y,1/2+z
loop_
_atom_site_type_symbol
_atom_site_label
_atom_site_fract_x
_atom_site_fract_y
_atom_site_fract_z
Si Si1 0.938551 0.968257 0.412132
Si Si2 0.114651 0.124849 0.213648
Si Si3 0.750000 0.164271 0.000000
Si Si4 0.151548 0.200497 0.856741
O O1 0.816431 0.914431 0.430997
O O2 0.009143 0.881028 0.351983
O O3 0.922316 0.084966 0.357383
O O4 0.000000 0.000000 0.500000
O O5 0.219831 0.173669 0.162384
O O6 0.090364 0.213559 0.290867
O O7 0.146248 0.000000 0.250000
O O8 0.844302 0.239691 0.950913
#
# Coordination Sequence:
#
# PCOD8297020 Si02
#       4
#    16  16   8  16
#     4  12  26  46  73 108 149 199 257 311 380 467
#     4  11  26  47  75 109 147 194 249 314 389 466
#     4  12  26  48  74 106 152 202 260 326 388 466
#     4  11  26  48  73 108 152 193 246 321 387 455
#
# _framework density 26.144558
#
# number of rings (size 3 to 8) (size 9 to 14) (size 15 to 20)
#    0.000    0.571    0.000    7.714    0.000   16.000 
#    0.000    0.000    0.000    0.000    0.000    0.000 
#    0.000    0.000    0.000    0.000    0.000    0.000 
#
# Total GULP energy -347439.328397 kJ/mol
# GULP energy per Si atom -12408.547443 kJ/mol
# Density = 2.608505 g / cm^3
# Si number density = 26.144558 Si / 1000 Ang^3
#
#
#
# Elastic Constant Matrix: (Units=GPa)
#
#
# Indices 1 2 3 4 5 6 
#
# 1 119.8310 61.9815 43.5147 0.0000 0.0000 0.0000
# 2 61.9815 158.6980 67.3289 0.0000 0.0000 0.0000
# 3 43.5147 67.3289 148.0359 0.0000 0.0000 0.0000
# 4 0.0000 0.0000 0.0000 56.2047 0.0000 0.0000
# 5 0.0000 0.0000 0.0000 0.0000 42.1529 0.0000
# 6 0.0000 0.0000 0.0000 0.0000 0.0000 57.8639
#
#
#
# Elastic Compliance Matrix: (Units=1/GPa)
#
#
# Indices 1 2 3 4 5 6 
#
# 1 0.010736 -0.003537 -0.001547 0.000000 0.000000 0.000000
# 2 -0.003537 0.008973 -0.003041 0.000000 0.000000 0.000000
# 3 -0.001547 -0.003041 0.008593 0.000000 0.000000 0.000000
# 4 0.000000 0.000000 0.000000 0.017792 0.000000 0.000000
# 5 0.000000 0.000000 0.000000 0.000000 0.023723 0.000000
# 6 0.000000 0.000000 0.000000 0.000000 0.000000 0.017282
#
#
# Mechanical properties :
#
#
# Convention : Reuss Voigt Hill
#
# Bulk Modulus (GPa) = 82.97718 85.80167 84.38943
# Shear Modulus (GPa) = 46.56888 48.16029 47.36458
#
# Velocity S-wave (km/s) = 4.22501 4.29660 4.26096
# Velocity P-wave (km/s) = 7.45706 7.58312 7.52036
#
# Compressibility (1/GPa) = 0.01205151
#
# Stress axis : x y z
#
# Youngs Moduli (GPa) = 93.14170 111.44623 116.37062
#
# Poissons Ratio (x) = 0.39416 0.18007
# Poissons Ratio (y) = 0.32942 0.35393
# Poissons Ratio (z) = 0.14412 0.33895
#
# Static dielectric constant tensor:
#      x y z
#    x 4.606120 0.000000 0.000000 
#    y 0.000000 5.054550 0.000000 
#    z 0.000000 0.000000 4.803820 
# 
# 
# High freq. dielectric constant tensor:
#      x y z
#    x 2.060910 0.000000 0.000000 
#    y 0.000000 2.064810 0.000000 
#    z 0.000000 0.000000 2.054440 
# 
# From -- ./inp_files/16534.got.cif
#   From: 2010.03.12/outbox.cif.g09.slc.cpg/sg73_9_cif.got.tgz:16534.got - 2010.04.16 15:25:48.
