data_PCOD8297101
_publ_section_title
;
Structure prediction by ZEFSAII (Michael W. Deem and Ramdas Pophale) SiO2 
 PCOD8297101
Probable space group: I M M A
;
_chemical_formula_sum "Si O2"
_cell_formula_units_Z 96
_cell_length_a 17.973806
_cell_length_b 24.499169
_cell_length_c 14.925882
_cell_angle_alpha 90.000000
_cell_angle_beta 90.000000
_cell_angle_gamma 90.000000
_cell_volume 6572.512296
_symmetry_space_group_name_H-M "I M M A"
_symmetry_group_IT_number 74
_symmetry_cell_setting 'orthorhombic'
loop_
_space_group_symop_operation_xyz
x,y,z
-x,1/2-y,z
x,-y,-z
-x,1/2+y,-z
-x,-y,-z
x,1/2+y,-z
-x,y,z
x,1/2-y,z
1/2+x,1/2+y,1/2+z
1/2-x,-y,1/2+z
1/2+x,1/2-y,1/2-z
1/2-x,y,1/2-z
1/2-x,1/2-y,1/2-z
1/2+x,y,1/2-z
1/2-x,1/2+y,1/2+z
1/2+x,-y,1/2+z
loop_
_atom_site_type_symbol
_atom_site_label
_atom_site_fract_x
_atom_site_fract_y
_atom_site_fract_z
Si Si1 0.827556 0.600450 0.485445
Si Si2 0.587884 0.687937 0.113568
Si Si3 0.417298 0.016954 0.886857
Si Si4 0.720374 0.949545 0.844651
Si Si5 0.081123 0.391657 0.762119
Si Si6 0.715687 0.561582 0.347599
O O1 0.873205 0.655899 0.469300
O O2 0.881013 0.545951 0.476551
O O3 0.786287 0.598834 0.582172
O O4 0.762247 0.599563 0.412804
O O5 0.500000 0.683128 0.098434
O O6 0.615758 0.750000 0.110576
O O7 0.609350 0.663477 0.211825
O O8 0.500000 0.992804 0.907253
O O9 0.424575 0.065864 0.817921
O O10 0.363407 0.973712 0.837896
O O11 0.750000 0.925483 0.750000
O O12 0.777695 0.997656 0.876812
O O13 0.132757 0.413771 0.842791
O O14 0.000000 0.382364 0.805973
O O15 0.750000 0.566037 0.250000
#
# Coordination Sequence:
#
# PCOD8297101 Si02
#       6
#    16  16  16  16  16  16
#     4  10  18  26  42  61  84 115 150 179 219 268
#     4   9  17  29  44  66  94 116 140 181 232 275
#     4   9  15  24  40  62  84 105 136 177 220 272
#     4  10  18  28  39  58  86 117 146 181 224 261
#     4   9  15  25  41  59  85 118 142 168 216 271
#     4  10  14  26  41  61  88 114 143 174 217 268
#
# _framework density 14.606287
#
# number of rings (size 3 to 8) (size 9 to 14) (size 15 to 20)
#    0.000    2.500    6.667    3.500    0.000    2.000 
#    0.000    1.667    0.000    3.500    0.000    0.000 
#    0.000    0.000    0.000    4.500    0.000    0.000 
#
# Total GULP energy -594647.192438 kJ/mol
# GULP energy per Si atom -12388.483176 kJ/mol
# Density = 1.457304 g / cm^3
# Si number density = 14.606287 Si / 1000 Ang^3
#
#
#
# Elastic Constant Matrix: (Units=GPa)
#
#
# Indices 1 2 3 4 5 6 
#
# 1 82.6810 30.1702 38.4965 0.0000 0.0000 0.0000
# 2 30.1702 64.0460 17.6133 0.0000 0.0000 0.0000
# 3 38.4965 17.6133 49.6969 0.0001 0.0000 0.0000
# 4 0.0000 0.0000 0.0001 14.6216 0.0000 0.0000
# 5 0.0000 0.0000 0.0000 0.0000 19.3362 0.0000
# 6 0.0000 0.0000 0.0000 0.0000 0.0000 15.1527
#
#
#
# Elastic Compliance Matrix: (Units=1/GPa)
#
#
# Indices 1 2 3 4 5 6 
#
# 1 0.020775 -0.005940 -0.013987 0.000000 0.000000 0.000000
# 2 -0.005940 0.018998 -0.002132 0.000000 0.000000 0.000000
# 3 -0.013987 -0.002132 0.031713 0.000000 0.000000 0.000000
# 4 0.000000 0.000000 0.000000 0.068392 0.000000 0.000000
# 5 0.000000 0.000000 0.000000 0.000000 0.051717 0.000000
# 6 0.000000 0.000000 0.000000 0.000000 0.000000 0.065995
#
#
# Mechanical properties :
#
#
# Convention : Reuss Voigt Hill
#
# Bulk Modulus (GPa) = 36.54054 40.99818 38.76936
# Shear Modulus (GPa) = 16.08597 17.16502 16.62550
#
# Velocity S-wave (km/s) = 3.32219 3.43181 3.37745
# Velocity P-wave (km/s) = 6.30771 6.62064 6.46607
#
# Compressibility (1/GPa) = 0.02736686
#
# Stress axis : x y z
#
# Youngs Moduli (GPa) = 48.13561 52.63670 31.53311
#
# Poissons Ratio (x) = 0.31264 0.44107
# Poissons Ratio (y) = 0.28591 0.06724
# Poissons Ratio (z) = 0.67330 0.11223
#
# Static dielectric constant tensor:
#      x y z
#    x 3.359320 0.000000 0.000000 
#    y 0.000000 2.707960 0.000000 
#    z 0.000000 0.000000 2.842690 
# 
# 
# High freq. dielectric constant tensor:
#      x y z
#    x 1.558970 0.000000 0.000000 
#    y 0.000000 1.521830 0.000000 
#    z 0.000000 0.000000 1.530550 
# 
# From -- ./inp_files/44508.got.cif
#   From: 2010.03.12/outbox.cif.g09.slc.cpg/sg74_23_cif.got.tgz:44508.got - 2010.04.16 15:46:19.
