data_PCOD8297162
_publ_section_title
;
Structure prediction by ZEFSAII (Michael W. Deem and Ramdas Pophale) SiO2 
 PCOD8297162
Probable space group: I M M A
;
_chemical_formula_sum "Si O2"
_cell_formula_units_Z 80
_cell_length_a 15.172007
_cell_length_b 13.894249
_cell_length_c 22.189533
_cell_angle_alpha 90.000000
_cell_angle_beta 90.000000
_cell_angle_gamma 90.000000
_cell_volume 4677.634395
_symmetry_space_group_name_H-M "I M M A"
_symmetry_group_IT_number 74
_symmetry_cell_setting 'orthorhombic'
loop_
_space_group_symop_operation_xyz
x,y,z
-x,1/2-y,z
x,-y,-z
-x,1/2+y,-z
-x,-y,-z
x,1/2+y,-z
-x,y,z
x,1/2-y,z
1/2+x,1/2+y,1/2+z
1/2-x,-y,1/2+z
1/2+x,1/2-y,1/2-z
1/2-x,y,1/2-z
1/2-x,1/2-y,1/2-z
1/2+x,y,1/2-z
1/2-x,1/2+y,1/2+z
1/2+x,-y,1/2+z
loop_
_atom_site_type_symbol
_atom_site_label
_atom_site_fract_x
_atom_site_fract_y
_atom_site_fract_z
Si Si1 0.000000 0.040226 0.683814
Si Si2 0.339623 0.139005 0.028285
Si Si3 0.152577 0.639965 0.098682
Si Si4 0.000000 0.138951 0.809352
Si Si5 0.500000 0.859487 0.884172
Si Si6 0.854828 0.358647 0.608390
Si Si7 0.195028 0.500000 0.000000
O O1 0.088501 0.076679 0.652447
O O2 0.000000 0.067298 0.753374
O O3 0.000000 0.924622 0.675714
O O4 0.308648 0.250000 0.030996
O O5 0.414773 0.116452 0.076033
O O6 0.375103 0.115097 0.961129
O O7 0.255987 0.070545 0.041189
O O8 0.137848 0.750000 0.076132
O O9 0.086602 0.615140 0.152311
O O10 0.251701 0.626240 0.122736
O O11 0.134814 0.566205 0.043424
O O12 0.000000 0.250000 0.787680
O O13 0.500000 0.750000 0.862187
O O14 0.883691 0.250000 0.621544
#
# Coordination Sequence:
#
# PCOD8297162 Si02
#       7
#     8  16  16   8   8  16   8
#     4  12  21  30  48  70  94 131 169 193 225 277
#     4   9  17  28  44  71 103 128 152 189 238 287
#     4   9  19  34  51  73 100 124 150 192 240 282
#     4  10  22  38  51  67  93 124 161 203 241 275
#     4  10  19  29  43  65  97 132 160 190 230 279
#     4   9  17  29  47  74 102 125 153 191 234 283
#     4  10  16  28  52  74  94 120 152 191 236 287
#
# _framework density 17.102661000000001
#
# number of rings (size 3 to 8) (size 9 to 14) (size 15 to 20)
#    0.000    2.400    0.000    5.700    0.000    4.000 
#    0.000    3.000    0.000    2.400    0.000    4.200 
#    0.000    0.000    0.000    0.000    0.000    0.000 
#
# Total GULP energy -495900.364936 kJ/mol
# GULP energy per Si atom -12397.509123 kJ/mol
# Density = 1.706373 g / cm^3
# Si number density = 17.102661 Si / 1000 Ang^3
#
#
#
# Elastic Constant Matrix: (Units=GPa)
#
#
# Indices 1 2 3 4 5 6 
#
# 1 68.4690 39.1599 51.8564 0.0000 0.0000 0.0000
# 2 39.1599 107.6627 74.6369 0.0000 0.0000 0.0000
# 3 51.8564 74.6369 107.2710 0.0000 0.0000 0.0000
# 4 0.0000 0.0000 0.0000 31.0323 0.0000 0.0000
# 5 0.0000 0.0000 0.0000 0.0000 17.5161 0.0000
# 6 0.0000 0.0000 0.0000 0.0000 0.0000 14.4128
#
#
#
# Elastic Compliance Matrix: (Units=1/GPa)
#
#
# Indices 1 2 3 4 5 6 
#
# 1 0.023132 -0.001278 -0.010293 0.000000 0.000000 0.000000
# 2 -0.001278 0.018014 -0.011916 0.000000 0.000000 0.000000
# 3 -0.010293 -0.011916 0.022589 0.000000 0.000000 0.000000
# 4 0.000000 0.000000 0.000000 0.032225 0.000000 0.000000
# 5 0.000000 0.000000 0.000000 0.000000 0.057090 0.000000
# 6 0.000000 0.000000 0.000000 0.000000 0.000000 0.069383
#
#
# Mechanical properties :
#
#
# Convention : Reuss Voigt Hill
#
# Bulk Modulus (GPa) = 59.66384 68.30102 63.98243
# Shear Modulus (GPa) = 18.18237 20.44221 19.31229
#
# Velocity S-wave (km/s) = 3.26411 3.46101 3.36400
# Velocity P-wave (km/s) = 7.01194 7.48292 7.25125
#
# Compressibility (1/GPa) = 0.01676057
#
# Stress axis : x y z
#
# Youngs Moduli (GPa) = 43.23069 55.51343 44.27002
#
# Poissons Ratio (x) = 0.07095 0.45567
# Poissons Ratio (y) = 0.05525 0.52751
# Poissons Ratio (z) = 0.44497 0.66148
#
# Static dielectric constant tensor:
#      x y z
#    x 3.208730 0.000000 0.000000 
#    y 0.000000 3.446460 0.000000 
#    z 0.000000 0.000000 2.894600 
# 
# 
# High freq. dielectric constant tensor:
#      x y z
#    x 1.651560 0.000000 0.000000 
#    y 0.000000 1.671250 0.000000 
#    z 0.000000 0.000000 1.620210 
# 
# From -- ./inp_files/52984.got.cif
#   From: 2010.03.12/outbox.cif.g09.slc.cpg/sg74_27_cif.got.tgz:52984.got - 2010.04.16 15:46:19.
