data_PCOD8297571
_publ_section_title
;
Structure prediction by ZEFSAII (Michael W. Deem and Ramdas Pophale) SiO2 
 PCOD8297571
Probable space group: I M M A
;
_chemical_formula_sum "Si O2"
_cell_formula_units_Z 80
_cell_length_a 8.959573
_cell_length_b 23.447830
_cell_length_c 25.848912
_cell_angle_alpha 90.000000
_cell_angle_beta 90.000000
_cell_angle_gamma 90.000000
_cell_volume 5430.405207
_symmetry_space_group_name_H-M "I M M A"
_symmetry_group_IT_number 74
_symmetry_cell_setting 'orthorhombic'
loop_
_space_group_symop_operation_xyz
x,y,z
-x,1/2-y,z
x,-y,-z
-x,1/2+y,-z
-x,-y,-z
x,1/2+y,-z
-x,y,z
x,1/2-y,z
1/2+x,1/2+y,1/2+z
1/2-x,-y,1/2+z
1/2+x,1/2-y,1/2-z
1/2-x,y,1/2-z
1/2-x,1/2-y,1/2-z
1/2+x,y,1/2-z
1/2-x,1/2+y,1/2+z
1/2+x,-y,1/2+z
loop_
_atom_site_type_symbol
_atom_site_label
_atom_site_fract_x
_atom_site_fract_y
_atom_site_fract_z
Si Si1 0.174699 0.562183 0.107402
Si Si2 0.827708 0.750000 0.036808
Si Si3 0.822464 0.867698 0.304728
Si Si4 0.171734 0.627531 0.003016
Si Si5 0.668064 0.965607 0.946984
Si Si6 0.176130 0.750000 0.353700
O O1 0.266250 0.584033 0.156324
O O2 0.212094 0.603891 0.059745
O O3 0.230655 0.498168 0.095002
O O4 0.000000 0.560877 0.120216
O O5 0.790894 0.805305 0.002147
O O6 0.731576 0.750000 0.088084
O O7 0.000000 0.750000 0.054234
O O8 0.750000 0.881180 0.250000
O O9 0.765125 0.805791 0.323787
O O10 0.000000 0.870228 0.300641
O O11 0.000000 0.614701 0.990604
O O12 0.267747 0.597468 0.958085
O O13 0.500000 0.960282 0.925803
O O14 0.673927 0.000000 0.000000
O O15 0.000000 0.750000 0.355975
#
# Coordination Sequence:
#
# PCOD8297571 Si02
#       6
#    16   8  16  16  16   8
#     4  10  18  30  47  63  82 108 141 181 222 262
#     4  10  18  29  45  64  87 116 147 181 218 259
#     4  11  22  34  46  62  83 111 148 188 228 265
#     4   9  17  28  43  63  85 111 143 176 214 259
#     4   9  17  28  43  62  84 108 137 174 215 260
#     4  10  21  33  45  60  82 112 148 189 227 261
#
# _framework density 14.731865000000001
#
# number of rings (size 3 to 8) (size 9 to 14) (size 15 to 20)
#    0.000    2.200    2.000    2.100    0.000    4.800 
#    0.000    0.000    0.000    0.000    0.000    0.000 
#    0.000    0.000    0.000    0.900    0.000   11.400 
#
# Total GULP energy -496050.224615 kJ/mol
# GULP energy per Si atom -12401.255615 kJ/mol
# Density = 1.469833 g / cm^3
# Si number density = 14.731865 Si / 1000 Ang^3
#
#
#
# Elastic Constant Matrix: (Units=GPa)
#
#
# Indices 1 2 3 4 5 6 
#
# 1 55.8737 30.2036 27.0441 0.0000 0.0000 0.0000
# 2 30.2036 93.6089 44.6929 0.0000 0.0000 0.0000
# 3 27.0441 44.6929 53.9721 0.0000 0.0000 0.0000
# 4 0.0000 0.0000 0.0000 12.4954 0.0000 0.0000
# 5 0.0000 0.0000 0.0000 0.0000 23.6268 0.0000
# 6 0.0000 0.0000 0.0000 0.0000 0.0000 23.0373
#
#
#
# Elastic Compliance Matrix: (Units=1/GPa)
#
#
# Indices 1 2 3 4 5 6 
#
# 1 0.024245 -0.003345 -0.009379 0.000000 0.000000 0.000000
# 2 -0.003345 0.018129 -0.013336 0.000000 0.000000 0.000000
# 3 -0.009379 -0.013336 0.034271 0.000000 0.000000 0.000000
# 4 0.000000 0.000000 0.000000 0.080030 0.000000 0.000000
# 5 0.000000 0.000000 0.000000 0.000000 0.042325 0.000000
# 6 0.000000 0.000000 0.000000 0.000000 0.000000 0.043408
#
#
# Mechanical properties :
#
#
# Convention : Reuss Voigt Hill
#
# Bulk Modulus (GPa) = 40.77413 45.25956 43.01684
# Shear Modulus (GPa) = 16.51781 18.59950 17.55866
#
# Velocity S-wave (km/s) = 3.35211 3.55707 3.45611
# Velocity P-wave (km/s) = 6.53604 6.90357 6.72232
#
# Compressibility (1/GPa) = 0.02452536
#
# Stress axis : x y z
#
# Youngs Moduli (GPa) = 41.24509 55.15901 29.17920
#
# Poissons Ratio (x) = 0.18451 0.27366
# Poissons Ratio (y) = 0.13797 0.38914
# Poissons Ratio (z) = 0.38683 0.73562
#
# Static dielectric constant tensor:
#      x y z
#    x 2.937740 0.000000 0.000000 
#    y 0.000000 2.975610 0.000000 
#    z 0.000000 0.000000 2.547800 
# 
# 
# High freq. dielectric constant tensor:
#      x y z
#    x 1.576490 0.000000 0.000000 
#    y 0.000000 1.555800 0.000000 
#    z 0.000000 0.000000 1.519540 
# 
# From -- ./inp_files/46529.got.cif
#   From: 2010.03.12/outbox.cif.g09.slc.cpg/sg74_24_cif.got.tgz:46529.got - 2010.04.16 15:46:19.
