data_PCOD8297488
_publ_section_title
;
Structure prediction by ZEFSAII (Michael W. Deem and Ramdas Pophale) SiO2 
 PCOD8297488
Probable space group: I M M A
;
_chemical_formula_sum "Si O2"
_cell_formula_units_Z 72
_cell_length_a 8.668786
_cell_length_b 18.154571
_cell_length_c 23.923736
_cell_angle_alpha 90.000000
_cell_angle_beta 90.000000
_cell_angle_gamma 90.000000
_cell_volume 3765.071899
_symmetry_space_group_name_H-M "I M M A"
_symmetry_group_IT_number 74
_symmetry_cell_setting 'orthorhombic'
loop_
_space_group_symop_operation_xyz
x,y,z
-x,1/2-y,z
x,-y,-z
-x,1/2+y,-z
-x,-y,-z
x,1/2+y,-z
-x,y,z
x,1/2-y,z
1/2+x,1/2+y,1/2+z
1/2-x,-y,1/2+z
1/2+x,1/2-y,1/2-z
1/2-x,y,1/2-z
1/2-x,1/2-y,1/2-z
1/2+x,y,1/2-z
1/2-x,1/2+y,1/2+z
1/2+x,-y,1/2+z
loop_
_atom_site_type_symbol
_atom_site_label
_atom_site_fract_x
_atom_site_fract_y
_atom_site_fract_z
Si Si1 0.683528 0.106905 0.376242
Si Si2 0.316884 0.250000 0.311107
Si Si3 0.683673 0.464251 0.688482
Si Si4 0.816407 0.167493 0.886710
Si Si5 0.816719 0.667284 0.989853
O O1 0.500000 0.105621 0.375383
O O2 0.745224 0.177496 0.342466
O O3 0.743496 0.113029 0.440662
O O4 0.747679 0.032861 0.347692
O O5 0.500000 0.250000 0.308813
O O6 0.250000 0.250000 0.250000
O O7 0.500000 0.465138 0.691478
O O8 0.750000 0.469161 0.750000
O O9 0.746688 0.389842 0.659072
O O10 0.756700 0.250000 0.872231
O O11 0.000000 0.166820 0.886625
O O12 0.757070 0.143162 0.948606
O O13 0.759155 0.750000 0.976657
O O14 0.000000 0.666712 0.989974
#
# Coordination Sequence:
#
# PCOD8297488 Si02
#       5
#    16   8  16  16  16
#     4   9  16  26  42  64  90 118 146 179 219 262
#     4  10  18  28  42  62  88 120 153 178 208 254
#     4  10  20  32  45  65  92 119 150 185 217 258
#     4   8  15  27  44  66  91 115 141 181 231 271
#     4   8  12  22  41  65  92 115 137 177 231 270
#
# _framework density 19.123142000000001
#
# number of rings (size 3 to 8) (size 9 to 14) (size 15 to 20)
#    0.000    3.111    1.111    2.000    0.000    1.333 
#    0.000    4.444    0.000    0.000    0.000    4.667 
#    0.000    0.000    0.000    0.000    0.000    0.000 
#
# Total GULP energy -446086.562361 kJ/mol
# GULP energy per Si atom -12391.293399 kJ/mol
# Density = 1.907962 g / cm^3
# Si number density = 19.123142 Si / 1000 Ang^3
#
#
#
# Elastic Constant Matrix: (Units=GPa)
#
#
# Indices 1 2 3 4 5 6 
#
# 1 5.1513 10.6834 9.6268 0.0000 0.0000 0.0000
# 2 10.6834 153.3832 87.4087 0.0000 0.0000 0.0000
# 3 9.6268 87.4087 137.7672 0.0000 0.0000 0.0000
# 4 0.0000 0.0000 0.0000 41.4140 0.0000 0.0000
# 5 0.0000 0.0000 0.0000 0.0000 21.4776 0.0000
# 6 0.0000 0.0000 0.0000 0.0000 0.0000 6.2068
#
#
#
# Elastic Compliance Matrix: (Units=1/GPa)
#
#
# Indices 1 2 3 4 5 6 
#
# 1 0.234478 -0.010956 -0.009434 0.000000 0.000000 0.000000
# 2 -0.010956 0.010724 -0.006038 0.000000 0.000000 0.000000
# 3 -0.009434 -0.006038 0.011749 0.000000 0.000000 0.000000
# 4 0.000000 0.000000 0.000000 0.024146 0.000000 0.000000
# 5 0.000000 0.000000 0.000000 0.000000 0.046560 0.000000
# 6 0.000000 0.000000 0.000000 0.000000 0.000000 0.161114
#
#
# Mechanical properties :
#
#
# Convention : Reuss Voigt Hill
#
# Bulk Modulus (GPa) = 4.89967 56.85993 30.87980
# Shear Modulus (GPa) = 8.20130 26.39184 17.29657
#
# Velocity S-wave (km/s) = 2.07316 3.71900 3.01073
# Velocity P-wave (km/s) = 2.88069 6.94546 5.31685
#
# Compressibility (1/GPa) = 0.20409557
#
# Stress axis : x y z
#
# Youngs Moduli (GPa) = 4.26479 93.25072 85.11416
#
# Poissons Ratio (x) = 1.02164 0.80293
# Poissons Ratio (y) = 0.04672 0.51395
# Poissons Ratio (z) = 0.04023 0.56308
#
# Static dielectric constant tensor:
#      x y z
#    x 2.729130 0.000000 0.000000 
#    y 0.000000 3.876800 0.000000 
#    z 0.000000 0.000000 3.768350 
# 
# 
# High freq. dielectric constant tensor:
#      x y z
#    x 1.661130 0.000000 0.000000 
#    y 0.000000 1.745350 0.000000 
#    z 0.000000 0.000000 1.761140 
# 
# From -- ./inp_files/40976.got.cif
#   From: 2010.03.12/outbox.cif.g09.slc.cpg/sg74_21_cif.got.tgz:40976.got - 2010.04.16 15:46:19.
