data_PCOD8297705
_publ_section_title
;
Structure prediction by ZEFSAII (Michael W. Deem and Ramdas Pophale) SiO2 
 PCOD8297705
Probable space group: I M M A
;
_chemical_formula_sum "Si O2"
_cell_formula_units_Z 80
_cell_length_a 27.825902
_cell_length_b 7.619338
_cell_length_c 22.290772
_cell_angle_alpha 90.000000
_cell_angle_beta 90.000000
_cell_angle_gamma 90.000000
_cell_volume 4725.976967
_symmetry_space_group_name_H-M "I M M A"
_symmetry_group_IT_number 74
_symmetry_cell_setting 'orthorhombic'
loop_
_space_group_symop_operation_xyz
x,y,z
-x,1/2-y,z
x,-y,-z
-x,1/2+y,-z
-x,-y,-z
x,1/2+y,-z
-x,y,z
x,1/2-y,z
1/2+x,1/2+y,1/2+z
1/2-x,-y,1/2+z
1/2+x,1/2-y,1/2-z
1/2-x,y,1/2-z
1/2-x,1/2-y,1/2-z
1/2+x,y,1/2-z
1/2-x,1/2+y,1/2+z
1/2+x,-y,1/2+z
loop_
_atom_site_type_symbol
_atom_site_label
_atom_site_fract_x
_atom_site_fract_y
_atom_site_fract_z
Si Si1 0.328093 0.750000 0.268885
Si Si2 0.000000 0.045890 0.607024
Si Si3 0.000000 0.457753 0.741418
Si Si4 0.399214 0.451495 0.108764
Si Si5 0.298316 0.456711 0.066547
Si Si6 0.736294 0.750000 0.152123
Si Si7 0.602389 0.048162 0.243988
O O1 0.303455 0.750000 0.203916
O O2 0.289416 0.750000 0.321400
O O3 0.360015 0.574929 0.278606
O O4 0.000000 0.964022 0.673682
O O5 0.000000 0.250000 0.609988
O O6 0.049729 0.986269 0.574718
O O7 0.951278 0.529978 0.772627
O O8 0.000000 0.250000 0.743331
O O9 0.390164 0.250000 0.117280
O O10 0.354025 0.523795 0.071070
O O11 0.399908 0.530706 0.176015
O O12 0.291595 0.250000 0.081215
O O13 0.268044 0.572189 0.113200
O O14 0.280007 0.500000 0.000000
O O15 0.619809 0.250000 0.248068
#
# Coordination Sequence:
#
# PCOD8297705 Si02
#       7
#     8   8   8  16  16   8  16
#     4  11  22  35  54  76 108 143 168 227 270 320
#     4   9  17  23  42  66  92 128 163 210 260 308
#     4   9  15  25  45  71 100 137 178 204 244 311
#     4   9  18  30  45  68  95 127 170 214 260 310
#     4  11  22  37  58  76  95 131 178 227 269 316
#     4  11  24  38  54  78 104 131 182 226 278 317
#     4  10  18  30  48  73 105 140 174 209 255 312
#
# _framework density 16.927717999999999
#
# number of rings (size 3 to 8) (size 9 to 14) (size 15 to 20)
#    0.000    2.000    4.000    0.600    2.800    3.200 
#    0.000    2.500    0.000    0.000    0.000    0.000 
#    0.000    0.000    0.000    3.600    0.000    0.200 
#
# Total GULP energy -495697.508428 kJ/mol
# GULP energy per Si atom -12392.437711 kJ/mol
# Density = 1.688919 g / cm^3
# Si number density = 16.927718 Si / 1000 Ang^3
#
#
#
# Elastic Constant Matrix: (Units=GPa)
#
#
# Indices 1 2 3 4 5 6 
#
# 1 111.9956 49.9095 44.6316 0.0000 0.0000 0.0000
# 2 49.9095 107.0430 31.0535 0.0000 0.0000 0.0000
# 3 44.6316 31.0535 55.8763 0.0000 0.0000 0.0000
# 4 0.0000 0.0000 0.0000 15.8516 0.0000 0.0000
# 5 0.0000 0.0000 0.0000 0.0000 16.7039 0.0000
# 6 0.0000 0.0000 0.0000 0.0000 0.0000 24.7904
#
#
#
# Elastic Compliance Matrix: (Units=1/GPa)
#
#
# Indices 1 2 3 4 5 6 
#
# 1 0.014425 -0.004033 -0.009280 0.000000 0.000000 0.000000
# 2 -0.004033 0.012266 -0.003595 0.000000 0.000000 0.000000
# 3 -0.009280 -0.003595 0.027307 0.000000 0.000000 0.000000
# 4 0.000000 0.000000 0.000000 0.063085 0.000000 0.000000
# 5 0.000000 0.000000 0.000000 0.000000 0.059866 0.000000
# 6 0.000000 0.000000 0.000000 0.000000 0.000000 0.040338
#
#
# Mechanical properties :
#
#
# Convention : Reuss Voigt Hill
#
# Bulk Modulus (GPa) = 49.55323 58.45601 54.00462
# Shear Modulus (GPa) = 19.39259 21.42387 20.40823
#
# Velocity S-wave (km/s) = 3.38836 3.56140 3.47596
# Velocity P-wave (km/s) = 6.68169 7.17768 6.93412
#
# Compressibility (1/GPa) = 0.02018032
#
# Stress axis : x y z
#
# Youngs Moduli (GPa) = 69.32596 81.52930 36.62037
#
# Poissons Ratio (x) = 0.32884 0.33984
# Poissons Ratio (y) = 0.27962 0.13165
# Poissons Ratio (z) = 0.64336 0.29309
#
# Static dielectric constant tensor:
#      x y z
#    x 3.208380 0.000000 0.000000 
#    y 0.000000 3.147900 0.000000 
#    z 0.000000 0.000000 2.677370 
# 
# 
# High freq. dielectric constant tensor:
#      x y z
#    x 1.649350 0.000000 0.000000 
#    y 0.000000 1.668150 0.000000 
#    z 0.000000 0.000000 1.577890 
# 
# From -- ./inp_files/48662.got.cif
#   From: 2010.03.12/outbox.cif.g09.slc.cpg/sg74_25_cif.got.tgz:48662.got - 2010.04.16 15:46:19.
