data_PCOD8297793
_publ_section_title
;
Structure prediction by ZEFSAII (Michael W. Deem and Ramdas Pophale) SiO2 
 PCOD8297793
Probable space group: I M M A
;
_chemical_formula_sum "Si O2"
_cell_formula_units_Z 80
_cell_length_a 9.044959
_cell_length_b 23.458443
_cell_length_c 25.855176
_cell_angle_alpha 90.000000
_cell_angle_beta 90.000000
_cell_angle_gamma 90.000000
_cell_volume 5485.968182
_symmetry_space_group_name_H-M "I M M A"
_symmetry_group_IT_number 74
_symmetry_cell_setting 'orthorhombic'
loop_
_space_group_symop_operation_xyz
x,y,z
-x,1/2-y,z
x,-y,-z
-x,1/2+y,-z
-x,-y,-z
x,1/2+y,-z
-x,y,z
x,1/2-y,z
1/2+x,1/2+y,1/2+z
1/2-x,-y,1/2+z
1/2+x,1/2-y,1/2-z
1/2-x,y,1/2-z
1/2-x,1/2-y,1/2-z
1/2+x,y,1/2-z
1/2-x,1/2+y,1/2+z
1/2+x,-y,1/2+z
loop_
_atom_site_type_symbol
_atom_site_label
_atom_site_fract_x
_atom_site_fract_y
_atom_site_fract_z
Si Si1 0.832723 0.535932 0.947839
Si Si2 0.676844 0.250000 0.647549
Si Si3 0.670483 0.127810 0.996529
Si Si4 0.825173 0.140024 0.696612
Si Si5 0.829610 0.559081 0.396487
Si Si6 0.171326 0.750000 0.461180
O O1 0.757730 0.500526 0.901426
O O2 0.000000 0.546741 0.931940
O O3 0.814457 0.500000 0.000000
O O4 0.758540 0.597592 0.956859
O O5 0.500000 0.250000 0.652624
O O6 0.744080 0.195584 0.675695
O O7 0.722006 0.250000 0.587823
O O8 0.500000 0.114840 0.006535
O O9 0.720399 0.103722 0.940685
O O10 0.704298 0.195151 0.996698
O O11 0.750000 0.121841 0.750000
O O12 0.795532 0.087239 0.658489
O O13 0.000000 0.152263 0.702585
O O14 0.000000 0.543856 0.403037
O O15 0.000000 0.750000 0.441814
#
# Coordination Sequence:
#
# PCOD8297793 Si02
#       6
#    16   8  16  16  16   8
#     4   9  17  27  41  62  86 106 133 173 213 255
#     4  12  23  33  46  62  83 114 148 187 227 261
#     4   9  16  28  45  62  82 110 143 173 211 256
#     4  11  22  36  49  63  83 110 147 188 226 263
#     4   9  17  30  47  61  79 108 141 177 215 258
#     4  10  18  31  47  64  86 116 148 183 216 255
#
# _framework density 14.582659
#
# number of rings (size 3 to 8) (size 9 to 14) (size 15 to 20)
#    0.000    2.200    2.000    2.400    0.000    4.800 
#    0.000    0.000    0.000    0.000    0.000    0.000 
#    0.000    0.000    0.000    0.900    0.000   10.600 
#
# Total GULP energy -495979.554542 kJ/mol
# GULP energy per Si atom -12399.488864 kJ/mol
# Density = 1.454947 g / cm^3
# Si number density = 14.582659 Si / 1000 Ang^3
#
#
#
# Elastic Constant Matrix: (Units=GPa)
#
#
# Indices 1 2 3 4 5 6 
#
# 1 95.9837 59.8081 47.8599 0.0000 0.0000 0.0000
# 2 59.8081 108.6117 55.2318 0.0000 0.0000 0.0000
# 3 47.8599 55.2318 57.2566 0.0000 0.0000 0.0000
# 4 0.0000 0.0000 0.0000 32.4319 0.0000 0.0000
# 5 0.0000 0.0000 0.0000 0.0000 21.8513 0.0000
# 6 0.0000 0.0000 0.0000 0.0000 0.0000 16.5878
#
#
#
# Elastic Compliance Matrix: (Units=1/GPa)
#
#
# Indices 1 2 3 4 5 6 
#
# 1 0.019006 -0.004685 -0.011367 0.000000 0.000000 0.000000
# 2 -0.004685 0.019227 -0.014631 0.000000 0.000000 0.000000
# 3 -0.011367 -0.014631 0.041080 0.000000 0.000000 0.000000
# 4 0.000000 0.000000 0.000000 0.030834 0.000000 0.000000
# 5 0.000000 0.000000 0.000000 0.000000 0.045764 0.000000
# 6 0.000000 0.000000 0.000000 0.000000 0.000000 0.060285
#
#
# Mechanical properties :
#
#
# Convention : Reuss Voigt Hill
#
# Bulk Modulus (GPa) = 55.72028 65.29463 60.50746
# Shear Modulus (GPa) = 17.63387 20.77103 19.20245
#
# Velocity S-wave (km/s) = 3.48118 3.77817 3.63271
# Velocity P-wave (km/s) = 7.37910 7.99409 7.69274
#
# Compressibility (1/GPa) = 0.01794679
#
# Stress axis : x y z
#
# Youngs Moduli (GPa) = 52.61566 52.00923 24.34254
#
# Poissons Ratio (x) = 0.24368 0.27670
# Poissons Ratio (y) = 0.24652 0.35616
# Poissons Ratio (z) = 0.59808 0.76095
#
# Static dielectric constant tensor:
#      x y z
#    x 2.925210 0.000000 0.000000 
#    y 0.000000 2.398020 0.000000 
#    z 0.000000 0.000000 2.613160 
# 
# 
# High freq. dielectric constant tensor:
#      x y z
#    x 1.567960 0.000000 0.000000 
#    y 0.000000 1.549360 0.000000 
#    z 0.000000 0.000000 1.513980 
# 
# From -- ./inp_files/54406.got.cif
#   From: 2010.03.12/outbox.cif.g09.slc.cpg/sg74_28_cif.got.tgz:54406.got - 2010.04.16 15:46:19.
