data_PCOD8297418
_publ_section_title
;
Structure prediction by ZEFSAII (Michael W. Deem and Ramdas Pophale) SiO2 
 PCOD8297418
Probable space group: I M M A
;
_chemical_formula_sum "Si O2"
_cell_formula_units_Z 48
_cell_length_a 13.830424
_cell_length_b 17.723718
_cell_length_c 8.183217
_cell_angle_alpha 90.000000
_cell_angle_beta 90.000000
_cell_angle_gamma 90.000000
_cell_volume 2005.923627
_symmetry_space_group_name_H-M "I M M A"
_symmetry_group_IT_number 74
_symmetry_cell_setting 'orthorhombic'
loop_
_space_group_symop_operation_xyz
x,y,z
-x,1/2-y,z
x,-y,-z
-x,1/2+y,-z
-x,-y,-z
x,1/2+y,-z
-x,y,z
x,1/2-y,z
1/2+x,1/2+y,1/2+z
1/2-x,-y,1/2+z
1/2+x,1/2-y,1/2-z
1/2-x,y,1/2-z
1/2-x,1/2-y,1/2-z
1/2+x,y,1/2-z
1/2-x,1/2+y,1/2+z
1/2+x,-y,1/2+z
loop_
_atom_site_type_symbol
_atom_site_label
_atom_site_fract_x
_atom_site_fract_y
_atom_site_fract_z
Si Si1 0.886519 0.390530 0.310356
Si Si2 0.893630 0.456290 0.830039
Si Si3 0.719117 0.336069 0.508555
O O1 0.862910 0.480454 0.302736
O O2 0.829661 0.359283 0.467815
O O3 0.849070 0.347496 0.149335
O O4 0.000000 0.374813 0.330894
O O5 0.000000 0.424291 0.786871
O O6 0.898068 0.500000 0.000000
O O7 0.819253 0.386607 0.840025
O O8 0.715127 0.250000 0.565888
#
# Coordination Sequence:
#
# PCOD8297418 Si02
#       3
#    16  16  16
#     4   9  17  29  44  64  93 127 158 190 234 289
#     4   8  15  28  44  63  91 126 158 190 233 287
#     4  10  18  26  44  73  95 115 152 206 253 275
#
# _framework density 23.929127000000001
#
# number of rings (size 3 to 8) (size 9 to 14) (size 15 to 20)
#    0.000    3.000    0.000    5.000    0.000    4.667 
#    0.000    0.000    0.000   27.000    0.000   44.333 
#    0.000    0.000    0.000    0.000    0.000    0.000 
#
# Total GULP energy -297538.008996 kJ/mol
# GULP energy per Si atom -12397.417042 kJ/mol
# Density = 2.387466 g / cm^3
# Si number density = 23.929127 Si / 1000 Ang^3
#
#
#
# Elastic Constant Matrix: (Units=GPa)
#
#
# Indices 1 2 3 4 5 6 
#
# 1 168.3988 77.6570 20.6054 0.0000 0.0000 0.0000
# 2 77.6570 192.9501 19.7396 0.0000 0.0000 0.0000
# 3 20.6054 19.7396 28.3727 0.0000 0.0000 0.0000
# 4 0.0000 0.0000 0.0000 16.3629 0.0000 0.0000
# 5 0.0000 0.0000 0.0000 0.0000 17.7820 0.0000
# 6 0.0000 0.0000 0.0000 0.0000 0.0000 15.3770
#
#
#
# Elastic Compliance Matrix: (Units=1/GPa)
#
#
# Indices 1 2 3 4 5 6 
#
# 1 0.007630 -0.002696 -0.003666 0.000000 0.000000 0.000000
# 2 -0.002696 0.006532 -0.002587 0.000000 0.000000 0.000000
# 3 -0.003666 -0.002587 0.039707 0.000000 0.000000 0.000000
# 4 0.000000 0.000000 0.000000 0.061114 0.000000 0.000000
# 5 0.000000 0.000000 0.000000 0.000000 0.056237 0.000000
# 6 0.000000 0.000000 0.000000 0.000000 0.000000 0.065032
#
#
# Mechanical properties :
#
#
# Convention : Reuss Voigt Hill
#
# Bulk Modulus (GPa) = 27.79888 69.52505 48.66197
# Shear Modulus (GPa) = 18.78713 28.01903 23.40308
#
# Velocity S-wave (km/s) = 2.80503 3.42558 3.13072
# Velocity P-wave (km/s) = 4.70461 6.69057 5.78347
#
# Compressibility (1/GPa) = 0.03597267
#
# Stress axis : x y z
#
# Youngs Moduli (GPa) = 131.06155 153.08455 25.18443
#
# Poissons Ratio (x) = 0.41269 0.09232
# Poissons Ratio (y) = 0.35332 0.06515
# Poissons Ratio (z) = 0.48042 0.39601
#
# Static dielectric constant tensor:
#      x y z
#    x 4.439020 0.000000 0.000000 
#    y 0.000000 4.320930 0.000000 
#    z 0.000000 0.000000 3.947130 
# 
# 
# High freq. dielectric constant tensor:
#      x y z
#    x 1.960620 0.000000 0.000000 
#    y 0.000000 1.933560 0.000000 
#    z 0.000000 0.000000 1.916390 
# 
# From -- ./inp_files/7981.got.cif
#   From: 2010.03.12/outbox.cif.g09.slc.cpg/sg74_4_cif.got.tgz:7981.got - 2010.04.16 15:46:19.
