data_PCOD8297941
_publ_section_title
;
Structure prediction by ZEFSAII (Michael W. Deem and Ramdas Pophale) SiO2 
 PCOD8297941
Probable space group: I M M A
;
_chemical_formula_sum "Si O2"
_cell_formula_units_Z 72
_cell_length_a 18.989072
_cell_length_b 14.461774
_cell_length_c 14.702103
_cell_angle_alpha 90.000000
_cell_angle_beta 90.000000
_cell_angle_gamma 90.000000
_cell_volume 4037.427832
_symmetry_space_group_name_H-M "I M M A"
_symmetry_group_IT_number 74
_symmetry_cell_setting 'orthorhombic'
loop_
_space_group_symop_operation_xyz
x,y,z
-x,1/2-y,z
x,-y,-z
-x,1/2+y,-z
-x,-y,-z
x,1/2+y,-z
-x,y,z
x,1/2-y,z
1/2+x,1/2+y,1/2+z
1/2-x,-y,1/2+z
1/2+x,1/2-y,1/2-z
1/2-x,y,1/2-z
1/2-x,1/2-y,1/2-z
1/2+x,y,1/2-z
1/2-x,1/2+y,1/2+z
1/2+x,-y,1/2+z
loop_
_atom_site_type_symbol
_atom_site_label
_atom_site_fract_x
_atom_site_fract_y
_atom_site_fract_z
Si Si1 0.671381 0.455237 0.235705
Si Si2 0.636496 0.250000 0.194907
Si Si3 0.082750 0.250000 0.509831
Si Si4 0.584027 0.947407 0.590596
Si Si5 0.422358 0.250000 0.381402
Si Si6 0.421249 0.057984 0.909486
O O1 0.750000 0.493375 0.250000
O O2 0.678452 0.345219 0.214833
O O3 0.624794 0.486222 0.322406
O O4 0.635509 0.508527 0.153106
O O5 0.574367 0.250000 0.270592
O O6 0.612590 0.250000 0.091680
O O7 0.107129 0.160452 0.566451
O O8 0.000000 0.250000 0.496502
O O9 0.500000 0.952222 0.608311
O O10 0.613176 0.842375 0.578955
O O11 0.606647 0.000000 0.500000
O O12 0.500000 0.250000 0.420605
O O13 0.500000 0.062254 0.864816
O O14 0.427518 0.000000 0.000000
#
# Coordination Sequence:
#
# PCOD8297941 Si02
#       6
#    16   8   8  16   8  16
#     4  11  22  35  54  79 115 148 183 222 276 334
#     4  10  18  32  52  81 110 141 176 227 277 325
#     4  10  19  33  57  87 114 140 180 232 284 335
#     4   9  18  34  54  75 100 134 180 225 263 307
#     4   8  15  27  50  78 100 123 167 223 270 308
#     4  10  20  35  57  84 112 144 182 228 281 335
#
# _framework density 17.833137000000001
#
# number of rings (size 3 to 8) (size 9 to 14) (size 15 to 20)
#    0.000    2.222    2.222    1.333    0.000    2.667 
#    0.000    1.667    0.000    4.000    0.000    0.000 
#    0.000    0.000    0.000    0.000    0.000    0.000 
#
# Total GULP energy -446001.180580 kJ/mol
# GULP energy per Si atom -12388.921683 kJ/mol
# Density = 1.779255 g / cm^3
# Si number density = 17.833137 Si / 1000 Ang^3
#
#
#
# Elastic Constant Matrix: (Units=GPa)
#
#
# Indices 1 2 3 4 5 6 
#
# 1 80.8442 39.2300 53.2455 0.0000 0.0000 0.0000
# 2 39.2300 108.3568 54.7180 0.0000 0.0000 0.0000
# 3 53.2455 54.7180 109.5016 0.0000 0.0000 0.0000
# 4 0.0000 0.0000 0.0000 26.9156 0.0000 0.0000
# 5 0.0000 0.0000 0.0000 0.0000 12.1608 0.0000
# 6 0.0000 0.0000 0.0000 0.0000 0.0000 15.4744
#
#
#
# Elastic Compliance Matrix: (Units=1/GPa)
#
#
# Indices 1 2 3 4 5 6 
#
# 1 0.018873 -0.002941 -0.007707 0.000000 0.000000 0.000000
# 2 -0.002941 0.012802 -0.004967 0.000000 0.000000 0.000000
# 3 -0.007707 -0.004967 0.015362 0.000000 0.000000 0.000000
# 4 0.000000 0.000000 0.000000 0.037153 0.000000 0.000000
# 5 0.000000 0.000000 0.000000 0.000000 0.082232 0.000000
# 6 0.000000 0.000000 0.000000 0.000000 0.000000 0.064623
#
#
# Mechanical properties :
#
#
# Convention : Reuss Voigt Hill
#
# Bulk Modulus (GPa) = 63.26677 65.89885 64.58281
# Shear Modulus (GPa) = 18.68857 21.01077 19.84967
#
# Velocity S-wave (km/s) = 3.24075 3.43620 3.33990
# Velocity P-wave (km/s) = 7.03970 7.26474 7.15311
#
# Compressibility (1/GPa) = 0.01580609
#
# Stress axis : x y z
#
# Youngs Moduli (GPa) = 52.98653 78.11449 65.09509
#
# Poissons Ratio (x) = 0.22971 0.50172
# Poissons Ratio (y) = 0.15581 0.32334
# Poissons Ratio (z) = 0.40839 0.38800
#
# Static dielectric constant tensor:
#      x y z
#    x 3.072010 0.000000 0.000000 
#    y 0.000000 4.246090 0.000000 
#    z 0.000000 0.000000 3.173020 
# 
# 
# High freq. dielectric constant tensor:
#      x y z
#    x 1.667450 0.000000 0.000000 
#    y 0.000000 1.694490 0.000000 
#    z 0.000000 0.000000 1.680240 
# 
# From -- ./inp_files/31945.got.cif
#   From: 2010.03.12/outbox.cif.g09.slc.cpg/sg74_16_cif.got.tgz:31945.got - 2010.04.16 15:46:19.
