data_PCOD8297042
_publ_section_title
;
Structure prediction by ZEFSAII (Michael W. Deem and Ramdas Pophale) SiO2 
 PCOD8297042
Probable space group: I B C A 
;
_chemical_formula_sum "Si O2"
_cell_formula_units_Z 64
_cell_length_a 14.619351
_cell_length_b 22.218388
_cell_length_c 8.685442
_cell_angle_alpha 90.000000
_cell_angle_beta 90.000000
_cell_angle_gamma 90.000000
_cell_volume 2821.191485
_symmetry_space_group_name_H-M "I B C A "
_symmetry_group_IT_number 73
_symmetry_cell_setting 'orthorhombic'
loop_
_space_group_symop_operation_xyz
x,y,z
-x,1/2-y,z
x,-y,1/2-z
1/2-x,y,-z
-x,-y,-z
x,1/2+y,-z
-x,y,1/2+z
1/2+x,-y,z
1/2+x,1/2+y,1/2+z
1/2-x,-y,1/2+z
1/2+x,1/2-y,-z
-x,1/2+y,1/2-z
1/2-x,1/2-y,1/2-z
1/2+x,y,1/2-z
1/2-x,1/2+y,z
x,1/2-y,1/2+z
loop_
_atom_site_type_symbol
_atom_site_label
_atom_site_fract_x
_atom_site_fract_y
_atom_site_fract_z
Si Si1 0.913236 0.932129 0.299582
Si Si2 0.068060 0.866217 0.484805
Si Si3 0.326426 0.199789 0.744843
Si Si4 0.250000 0.887328 0.000000
Si Si5 0.500000 0.750000 0.883972
O O1 0.821701 0.928026 0.403939
O O2 0.006295 0.912591 0.386757
O O3 0.929174 0.000000 0.250000
O O4 0.897753 0.893095 0.146069
O O5 0.158798 0.842777 0.394633
O O6 0.004336 0.808881 0.511140
O O7 0.250000 0.250000 0.750000
O O8 0.311834 0.154701 0.605255
O O9 0.413910 0.242048 0.725823
#
# Coordination Sequence:
#
# PCOD8297042 Si02
#       5
#    16  16  16   8   8
#     4  12  27  49  79 108 154 207 262 318 373 457
#     4  12  25  48  74 111 150 199 254 313 385 459
#     4  12  26  44  74 114 157 195 247 309 393 462
#     4  12  26  48  66 112 150 196 256 318 368 452
#     4  12  22  44  74 110 156 194 240 314 388 462
#
# _framework density 22.685451
#
# number of rings (size 3 to 8) (size 9 to 14) (size 15 to 20)
#    0.000    0.000    5.000    4.500    0.000    5.000 
#    0.000    1.250    0.000    0.000    0.000    0.000 
#    0.000    0.000    0.000    0.000    0.000    0.000 
#
# Total GULP energy -396755.464232 kJ/mol
# GULP energy per Si atom -12398.608257 kJ/mol
# Density = 2.263382 g / cm^3
# Si number density = 22.685451 Si / 1000 Ang^3
#
#
#
# Elastic Constant Matrix: (Units=GPa)
#
#
# Indices 1 2 3 4 5 6 
#
# 1 132.0908 47.0993 53.5684 0.0000 -0.0001 0.0000
# 2 47.0993 150.9639 55.2906 0.0000 0.0000 0.0000
# 3 53.5684 55.2906 141.2619 0.0001 0.0001 0.0001
# 4 0.0000 0.0000 0.0001 33.7928 0.0000 -0.0001
# 5 -0.0001 0.0000 0.0001 0.0000 29.2143 0.0000
# 6 0.0000 0.0000 0.0001 -0.0001 0.0000 29.3148
#
#
#
# Elastic Compliance Matrix: (Units=1/GPa)
#
#
# Indices 1 2 3 4 5 6 
#
# 1 0.009390 -0.001897 -0.002818 0.000000 0.000000 0.000000
# 2 -0.001897 0.008116 -0.002457 0.000000 0.000000 0.000000
# 3 -0.002818 -0.002457 0.009109 0.000000 0.000000 0.000000
# 4 0.000000 0.000000 0.000000 0.029592 0.000000 0.000000
# 5 0.000000 0.000000 0.000000 0.000000 0.034230 0.000000
# 6 0.000000 0.000000 0.000000 0.000000 0.000000 0.034112
#
#
# Mechanical properties :
#
#
# Convention : Reuss Voigt Hill
#
# Bulk Modulus (GPa) = 81.49920 81.80370 81.65145
# Shear Modulus (GPa) = 34.96864 36.35493 35.66178
#
# Velocity S-wave (km/s) = 3.93040 4.00755 3.96916
# Velocity P-wave (km/s) = 7.52337 7.58632 7.55491
#
# Compressibility (1/GPa) = 0.01227006
#
# Stress axis : x y z
#
# Youngs Moduli (GPa) = 106.49632 123.21335 109.77605
#
# Poissons Ratio (x) = 0.23379 0.30936
# Poissons Ratio (y) = 0.20207 0.26973
# Poissons Ratio (z) = 0.30012 0.30275
#
# Static dielectric constant tensor:
#      x y z
#    x 3.668230 0.000000 0.000000 
#    y 0.000000 4.281550 0.000000 
#    z 0.000000 0.000000 4.416950 
# 
# 
# High freq. dielectric constant tensor:
#      x y z
#    x 1.901190 0.000000 0.000000 
#    y 0.000000 1.895740 0.000000 
#    z 0.000000 0.000000 1.913510 
# 
# From -- ./inp_files/4668.got.cif
#   From: 2010.03.12/outbox.cif.g09.slc.cpg/sg73_3_cif.got.tgz:4668.got - 2010.04.16 15:25:48.
