data_PCOD8297711
_publ_section_title
;
Structure prediction by ZEFSAII (Michael W. Deem and Ramdas Pophale) SiO2 
 PCOD8297711
Probable space group: I M M A
;
_chemical_formula_sum "Si O2"
_cell_formula_units_Z 128
_cell_length_a 19.348567
_cell_length_b 19.757110
_cell_length_c 20.409202
_cell_angle_alpha 90.000000
_cell_angle_beta 90.000000
_cell_angle_gamma 90.000000
_cell_volume 7801.861703
_symmetry_space_group_name_H-M "I M M A"
_symmetry_group_IT_number 74
_symmetry_cell_setting 'orthorhombic'
loop_
_space_group_symop_operation_xyz
x,y,z
-x,1/2-y,z
x,-y,-z
-x,1/2+y,-z
-x,-y,-z
x,1/2+y,-z
-x,y,z
x,1/2-y,z
1/2+x,1/2+y,1/2+z
1/2-x,-y,1/2+z
1/2+x,1/2-y,1/2-z
1/2-x,y,1/2-z
1/2-x,1/2-y,1/2-z
1/2+x,y,1/2-z
1/2-x,1/2+y,1/2+z
1/2+x,-y,1/2+z
loop_
_atom_site_type_symbol
_atom_site_label
_atom_site_fract_x
_atom_site_fract_y
_atom_site_fract_z
Si Si1 0.576902 0.533501 0.304425
Si Si2 0.079662 0.672937 0.599625
Si Si3 0.077960 0.950739 0.683891
Si Si4 0.078340 0.553759 0.049508
Si Si5 0.304635 0.014153 0.895100
Si Si6 0.816476 0.826175 0.055844
Si Si7 0.710914 0.891735 0.314105
Si Si8 0.804191 0.108254 0.484292
O O1 0.500000 0.562970 0.288998
O O2 0.589559 0.465201 0.261450
O O3 0.582459 0.515888 0.380894
O O4 0.633776 0.590692 0.289001
O O5 0.096715 0.750000 0.619156
O O6 0.094271 0.627213 0.664532
O O7 0.128740 0.649475 0.540098
O O8 0.000000 0.665531 0.576453
O O9 0.000000 0.968235 0.663162
O O10 0.125289 0.002567 0.644338
O O11 0.119910 0.623228 0.046762
O O12 0.000000 0.571315 0.029398
O O13 0.112151 0.500000 0.000000
O O14 0.245310 0.040620 0.845784
O O15 0.278542 0.944550 0.928672
O O16 0.324458 0.068992 0.949749
O O17 0.842903 0.750000 0.045813
O O18 0.788063 0.833965 0.130239
O O19 0.757986 0.840765 0.001428
O O20 0.750000 0.864620 0.250000
#
# Coordination Sequence:
#
# PCOD8297711 Si02
#       8
#    16  16  16  16  16  16  16  16
#     4   9  17  29  47  71  95 117 148 194 244 282
#     4   9  17  29  45  65  92 130 167 193 226 281
#     4   9  16  27  44  68  94 118 154 199 241 280
#     4   9  19  34  54  76  96 122 159 202 243 288
#     4   9  17  28  44  72  91 122 153 203 245 280
#     4  10  21  32  48  72 100 131 158 193 241 291
#     4  10  18  30  49  69  95 121 158 194 238 287
#     4   9  18  29  46  66  98 124 161 197 241 281
#
# _framework density 16.40634
#
# number of rings (size 3 to 8) (size 9 to 14) (size 15 to 20)
#    0.000    2.750    1.250    0.375    5.250    1.000 
#    0.000    2.500    0.000    0.750    0.000    5.250 
#    0.000    0.000    0.000    0.000    0.000    0.000 
#
# Total GULP energy -793142.057555 kJ/mol
# GULP energy per Si atom -12392.844649 kJ/mol
# Density = 1.636900 g / cm^3
# Si number density = 16.406340 Si / 1000 Ang^3
#
#
#
# Elastic Constant Matrix: (Units=GPa)
#
#
# Indices 1 2 3 4 5 6 
#
# 1 80.1431 44.3529 40.5453 0.0000 0.0000 0.0000
# 2 44.3529 106.5699 47.2360 0.0000 0.0000 0.0000
# 3 40.5453 47.2360 78.3081 0.0000 0.0000 0.0000
# 4 0.0000 0.0000 0.0000 14.4425 0.0000 0.0000
# 5 0.0000 0.0000 0.0000 0.0000 24.1329 0.0000
# 6 0.0000 0.0000 0.0000 0.0000 0.0000 20.1724
#
#
#
# Elastic Compliance Matrix: (Units=1/GPa)
#
#
# Indices 1 2 3 4 5 6 
#
# 1 0.018491 -0.004712 -0.006732 0.000000 0.000000 0.000000
# 2 -0.004712 0.014009 -0.006010 0.000000 0.000000 0.000000
# 3 -0.006732 -0.006010 0.019881 0.000000 0.000000 0.000000
# 4 0.000000 0.000000 0.000000 0.069240 0.000000 0.000000
# 5 0.000000 0.000000 0.000000 0.000000 0.041437 0.000000
# 6 0.000000 0.000000 0.000000 0.000000 0.000000 0.049573
#
#
# Mechanical properties :
#
#
# Convention : Reuss Voigt Hill
#
# Bulk Modulus (GPa) = 57.23279 58.80995 58.02137
# Shear Modulus (GPa) = 19.73453 20.60869 20.17161
#
# Velocity S-wave (km/s) = 3.47199 3.54805 3.51023
# Velocity P-wave (km/s) = 7.14376 7.26007 7.20215
#
# Compressibility (1/GPa) = 0.01747250
#
# Stress axis : x y z
#
# Youngs Moduli (GPa) = 54.08025 71.38472 50.29906
#
# Poissons Ratio (x) = 0.33636 0.33860
# Poissons Ratio (y) = 0.25482 0.30232
# Poissons Ratio (z) = 0.36406 0.42905
#
# Static dielectric constant tensor:
#      x y z
#    x 3.235290 0.000000 0.000000 
#    y 0.000000 2.904660 0.000000 
#    z 0.000000 0.000000 3.212150 
# 
# 
# High freq. dielectric constant tensor:
#      x y z
#    x 1.639480 0.000000 0.000000 
#    y 0.000000 1.604160 0.000000 
#    z 0.000000 0.000000 1.629580 
# 
# From -- ./inp_files/53402.got.cif
#   From: 2010.03.12/outbox.cif.g09.slc.cpg/sg74_27_cif.got.tgz:53402.got - 2010.04.16 15:46:19.
