data_PCOD8297187
_publ_section_title
;
Structure prediction by ZEFSAII (Michael W. Deem and Ramdas Pophale) SiO2 
 PCOD8297187
Probable space group: I M M A
;
_chemical_formula_sum "Si O2"
_cell_formula_units_Z 72
_cell_length_a 10.056732
_cell_length_b 24.878785
_cell_length_c 15.423175
_cell_angle_alpha 90.000000
_cell_angle_beta 90.000000
_cell_angle_gamma 90.000000
_cell_volume 3858.867176
_symmetry_space_group_name_H-M "I M M A"
_symmetry_group_IT_number 74
_symmetry_cell_setting 'orthorhombic'
loop_
_space_group_symop_operation_xyz
x,y,z
-x,1/2-y,z
x,-y,-z
-x,1/2+y,-z
-x,-y,-z
x,1/2+y,-z
-x,y,z
x,1/2-y,z
1/2+x,1/2+y,1/2+z
1/2-x,-y,1/2+z
1/2+x,1/2-y,1/2-z
1/2-x,y,1/2-z
1/2-x,1/2-y,1/2-z
1/2+x,y,1/2-z
1/2-x,1/2+y,1/2+z
1/2+x,-y,1/2+z
loop_
_atom_site_type_symbol
_atom_site_label
_atom_site_fract_x
_atom_site_fract_y
_atom_site_fract_z
Si Si1 0.500000 0.421406 0.372892
Si Si2 0.348276 0.750000 0.169365
Si Si3 0.724682 0.444608 0.044891
Si Si4 0.000000 0.309403 0.051909
Si Si5 0.500000 0.919132 0.823427
Si Si6 0.779357 0.831290 0.475402
Si Si7 0.000000 0.307117 0.388717
O O1 0.625402 0.445969 0.421768
O O2 0.500000 0.356147 0.375555
O O3 0.500000 0.441200 0.273899
O O4 0.500000 0.750000 0.202825
O O5 0.250000 0.750000 0.250000
O O6 0.324798 0.695434 0.114424
O O7 0.631256 0.438744 0.128151
O O8 0.686683 0.500000 0.000000
O O9 0.702996 0.396236 0.975486
O O10 0.000000 0.250000 0.095564
O O11 0.127170 0.315381 0.990270
O O12 0.500000 0.854261 0.818587
O O13 0.868706 0.808558 0.552572
O O14 0.000000 0.250000 0.338765
#
# Coordination Sequence:
#
# PCOD8297187 Si02
#       7
#     8   8  16   8   8  16   8
#     4  10  21  36  54  87 118 142 176 240 288 321
#     4  12  24  38  58  84 117 149 188 244 297 331
#     4  10  21  38  62  81 106 155 197 224 278 352
#     4  10  18  30  56  83 110 149 179 210 275 348
#     4  10  21  34  56  87 114 138 184 234 282 321
#     4  10  19  35  57  78 109 144 190 229 270 340
#     4  10  16  32  56  79 104 153 177 208 271 338
#
# _framework density 18.658325999999999
#
# number of rings (size 3 to 8) (size 9 to 14) (size 15 to 20)
#    0.000    1.778    3.333    1.333    1.556    0.444 
#    0.000    2.222    0.000    8.000    0.000    0.000 
#    0.000    0.000    0.000    0.000    0.000    0.000 
#
# Total GULP energy -446327.547636 kJ/mol
# GULP energy per Si atom -12397.987434 kJ/mol
# Density = 1.861586 g / cm^3
# Si number density = 18.658326 Si / 1000 Ang^3
#
#
#
# Elastic Constant Matrix: (Units=GPa)
#
#
# Indices 1 2 3 4 5 6 
#
# 1 121.3684 10.3989 16.1652 -0.0001 0.0000 -0.0001
# 2 10.3989 134.8531 30.8031 0.0000 0.0000 -0.0001
# 3 16.1652 30.8031 78.6902 -0.0001 0.0002 -0.0004
# 4 -0.0001 0.0000 -0.0001 16.9999 0.0001 -0.0002
# 5 0.0000 0.0000 0.0002 0.0001 18.5132 0.0001
# 6 -0.0001 -0.0001 -0.0004 -0.0002 0.0001 -8.8896
#
#
#
# Elastic Compliance Matrix: (Units=1/GPa)
#
#
# Indices 1 2 3 4 5 6 
#
# 1 0.008481 -0.000281 -0.001632 0.000000 0.000000 0.000000
# 2 -0.000281 0.008153 -0.003134 0.000000 0.000000 0.000000
# 3 -0.001632 -0.003134 0.014270 0.000000 0.000000 -0.000001
# 4 0.000000 0.000000 0.000000 0.058824 0.000000 -0.000001
# 5 0.000000 0.000000 0.000000 0.000000 0.054015 0.000001
# 6 0.000000 0.000000 -0.000001 -0.000001 0.000001 -0.112491
#
#
# Mechanical properties :
#
#
# Convention : Reuss Voigt Hill
#
# Bulk Modulus (GPa) = 48.05424 49.96068 49.00746
# Shear Modulus (GPa) = 103.55687 23.82767 63.69227
#
# Velocity S-wave (km/s) = 7.45803 3.57746 5.84895
# Velocity P-wave (km/s) = 9.99868 6.62564 8.48153
#
# Compressibility (1/GPa) = 0.02080982
#
# Stress axis : x y z
#
# Youngs Moduli (GPa) = 117.91260 122.65487 70.07688
#
# Poissons Ratio (x) = 0.03449 0.11438
# Poissons Ratio (y) = 0.03315 0.21960
# Poissons Ratio (z) = 0.19245 0.38436
#
# Static dielectric constant tensor:
#      x y z
#    x 3.678950 0.000000 0.000000 
#    y 0.000000 3.613930 0.000000 
#    z 0.000000 0.000000 2.983880 
# 
# 
# High freq. dielectric constant tensor:
#      x y z
#    x 1.752150 0.000000 0.000000 
#    y 0.000000 1.726790 0.000000 
#    z 0.000000 0.000000 1.683020 
# 
# From -- ./inp_files/29265.got.cif
#   From: 2010.03.12/outbox.cif.g09.slc.cpg/sg74_15_cif.got.tgz:29265.got - 2010.04.16 15:46:19.
