data_PCOD8297886
_publ_section_title
;
Structure prediction by ZEFSAII (Michael W. Deem and Ramdas Pophale) SiO2 
 PCOD8297886
Probable space group: I M M A
;
_chemical_formula_sum "Si O2"
_cell_formula_units_Z 112
_cell_length_a 19.184946
_cell_length_b 18.026446
_cell_length_c 19.212910
_cell_angle_alpha 90.000000
_cell_angle_beta 90.000000
_cell_angle_gamma 90.000000
_cell_volume 6644.523495
_symmetry_space_group_name_H-M "I M M A"
_symmetry_group_IT_number 74
_symmetry_cell_setting 'orthorhombic'
loop_
_space_group_symop_operation_xyz
x,y,z
-x,1/2-y,z
x,-y,-z
-x,1/2+y,-z
-x,-y,-z
x,1/2+y,-z
-x,y,z
x,1/2-y,z
1/2+x,1/2+y,1/2+z
1/2-x,-y,1/2+z
1/2+x,1/2-y,1/2-z
1/2-x,y,1/2-z
1/2-x,1/2-y,1/2-z
1/2+x,y,1/2-z
1/2-x,1/2+y,1/2+z
1/2+x,-y,1/2+z
loop_
_atom_site_type_symbol
_atom_site_label
_atom_site_fract_x
_atom_site_fract_y
_atom_site_fract_z
Si Si1 0.577288 0.166677 0.410399
Si Si2 0.418059 0.041593 0.301760
Si Si3 0.153400 0.533290 0.655342
Si Si4 0.842699 0.666161 0.548345
Si Si5 0.701532 0.984375 0.384613
Si Si6 0.422520 0.932632 0.053110
Si Si7 0.800330 0.884501 0.993520
O O1 0.500000 0.147349 0.437519
O O2 0.583112 0.250000 0.382771
O O3 0.595610 0.117786 0.343015
O O4 0.626663 0.155383 0.477182
O O5 0.500000 0.019092 0.300362
O O6 0.387221 0.051857 0.225469
O O7 0.370788 0.980494 0.341446
O O8 0.145867 0.609367 0.611850
O O9 0.233631 0.506594 0.665764
O O10 0.117903 0.461536 0.620525
O O11 0.866422 0.750000 0.568723
O O12 0.885740 0.638358 0.481279
O O13 0.761950 0.670148 0.527118
O O14 0.707422 0.905486 0.424634
O O15 0.702193 0.043218 0.446157
O O16 0.500000 0.908625 0.075039
O O17 0.423556 0.000000 0.000000
#
# Coordination Sequence:
#
# PCOD8297886 Si02
#       7
#    16  16  16  16  16  16  16
#     4   9  18  31  46  68 101 136 163 192 238 293
#     4  10  20  31  46  71 100 130 167 203 235 283
#     4  10  18  32  49  69  98 134 165 195 242 293
#     4  10  19  30  48  74  99 125 163 205 244 289
#     4   9  17  30  49  69  92 123 164 205 242 282
#     4   9  17  30  47  66  92 126 164 204 243 284
#     4   9  16  30  49  69  93 125 161 204 247 281
#
# _framework density 16.855986999999999
#
# number of rings (size 3 to 8) (size 9 to 14) (size 15 to 20)
#    0.000    2.571    1.429    1.286    0.000    2.000 
#    0.000    2.857    0.000    5.143    0.000    3.000 
#    0.000    2.286    0.000    0.000    0.000    0.000 
#
# Total GULP energy -693910.515164 kJ/mol
# GULP energy per Si atom -12391.259199 kJ/mol
# Density = 1.681762 g / cm^3
# Si number density = 16.855987 Si / 1000 Ang^3
#
#
#
# Elastic Constant Matrix: (Units=GPa)
#
#
# Indices 1 2 3 4 5 6 
#
# 1 132.7854 30.4186 45.9414 0.0000 0.0000 0.0000
# 2 30.4186 45.7128 42.5839 0.0000 0.0000 0.0000
# 3 45.9414 42.5839 62.8258 0.0000 0.0000 0.0000
# 4 0.0000 0.0000 0.0000 13.6935 0.0000 0.0000
# 5 0.0000 0.0000 0.0000 0.0000 27.7068 0.0000
# 6 0.0000 0.0000 0.0000 0.0000 0.0000 17.3829
#
#
#
# Elastic Compliance Matrix: (Units=1/GPa)
#
#
# Indices 1 2 3 4 5 6 
#
# 1 0.010085 0.000431 -0.007667 0.000000 0.000000 0.000000
# 2 0.000431 0.059369 -0.040556 0.000000 0.000000 0.000000
# 3 -0.007667 -0.040556 0.049013 0.000000 0.000000 0.000000
# 4 0.000000 0.000000 0.000000 0.073027 0.000000 0.000000
# 5 0.000000 0.000000 0.000000 0.000000 0.036092 0.000000
# 6 0.000000 0.000000 0.000000 0.000000 0.000000 0.057528
#
#
# Mechanical properties :
#
#
# Convention : Reuss Voigt Hill
#
# Bulk Modulus (GPa) = 43.70050 53.24575 48.47313
# Shear Modulus (GPa) = 12.87585 19.91533 16.39559
#
# Velocity S-wave (km/s) = 2.76683 3.44102 3.12218
# Velocity P-wave (km/s) = 6.01574 6.88801 6.46660
#
# Compressibility (1/GPa) = 0.02288304
#
# Stress axis : x y z
#
# Youngs Moduli (GPa) = 99.15996 16.84391 20.40289
#
# Poissons Ratio (x) = -0.00727 0.15643
# Poissons Ratio (y) = -0.04278 0.82746
# Poissons Ratio (z) = 0.76025 0.68312
#
# Static dielectric constant tensor:
#      x y z
#    x 3.542330 0.000000 0.000000 
#    y 0.000000 2.973100 0.000000 
#    z 0.000000 0.000000 3.019580 
# 
# 
# High freq. dielectric constant tensor:
#      x y z
#    x 1.669400 0.000000 0.000000 
#    y 0.000000 1.617660 0.000000 
#    z 0.000000 0.000000 1.625450 
# 
# From -- ./inp_files/53224.got.cif
#   From: 2010.03.12/outbox.cif.g09.slc.cpg/sg74_27_cif.got.tgz:53224.got - 2010.04.16 15:46:19.
