data_PCOD8297047
_publ_section_title
;
Structure prediction by ZEFSAII (Michael W. Deem and Ramdas Pophale) SiO2 
 PCOD8297047
Probable space group: I B C A 
;
_chemical_formula_sum "Si O2"
_cell_formula_units_Z 72
_cell_length_a 27.226580
_cell_length_b 22.843188
_cell_length_c 4.830072
_cell_angle_alpha 90.000000
_cell_angle_beta 90.000000
_cell_angle_gamma 90.000000
_cell_volume 3004.024087
_symmetry_space_group_name_H-M "I B C A "
_symmetry_group_IT_number 73
_symmetry_cell_setting 'orthorhombic'
loop_
_space_group_symop_operation_xyz
x,y,z
-x,1/2-y,z
x,-y,1/2-z
1/2-x,y,-z
-x,-y,-z
x,1/2+y,-z
-x,y,1/2+z
1/2+x,-y,z
1/2+x,1/2+y,1/2+z
1/2-x,-y,1/2+z
1/2+x,1/2-y,-z
-x,1/2+y,1/2-z
1/2-x,1/2-y,1/2-z
1/2+x,y,1/2-z
1/2-x,1/2+y,z
x,1/2-y,1/2+z
loop_
_atom_site_type_symbol
_atom_site_label
_atom_site_fract_x
_atom_site_fract_y
_atom_site_fract_z
Si Si1 0.908936 0.000000 0.750000
Si Si2 0.324214 0.054072 0.405060
Si Si3 0.303347 0.370642 0.408588
Si Si4 0.610938 0.210294 0.275857
Si Si5 0.466743 0.888491 0.579222
O O1 0.942785 0.048070 0.607715
O O2 0.876470 0.968935 0.513602
O O3 0.294753 0.080625 0.667017
O O4 0.295974 0.000000 0.250000
O O5 0.333150 0.102967 0.169680
O O6 0.250000 0.348186 0.500000
O O7 0.334305 0.316153 0.298313
O O8 0.604379 0.267576 0.464175
O O9 0.571291 0.161701 0.343864
O O10 0.484416 0.881929 0.264787
#
# Coordination Sequence:
#
# PCOD8297047 Si02
#       5
#     8  16  16  16  16
#     4  12  26  46  78 106 150 192 240 298 370 442
#     4  12  23  44  71 103 153 194 238 295 367 442
#     4  12  27  47  72 107 149 194 252 306 365 435
#     4  12  27  49  79 103 145 196 245 311 367 426
#     4  12  28  46  74 110 146 188 243 300 369 445
#
# _framework density 23.967851
#
# number of rings (size 3 to 8) (size 9 to 14) (size 15 to 20)
#    0.000    0.000    4.444    4.000    6.222    5.333 
#    2.000    0.000    0.000    0.000    0.000    0.000 
#    0.000    0.000    0.000    0.000    0.000    0.000 
#
# Total GULP energy -446569.294852 kJ/mol
# GULP energy per Si atom -12404.702635 kJ/mol
# Density = 2.391330 g / cm^3
# Si number density = 23.967851 Si / 1000 Ang^3
#
#
#
# Elastic Constant Matrix: (Units=GPa)
#
#
# Indices 1 2 3 4 5 6 
#
# 1 93.3031 40.0397 5.3798 0.0000 0.0000 0.0000
# 2 40.0397 95.0656 7.2419 0.0000 0.0000 0.0000
# 3 5.3798 7.2419 99.1409 0.0000 0.0000 0.0000
# 4 0.0000 0.0000 0.0000 36.9973 0.0000 0.0000
# 5 0.0000 0.0000 0.0000 0.0000 41.3593 0.0000
# 6 0.0000 0.0000 0.0000 0.0000 0.0000 -60.0921
#
#
#
# Elastic Compliance Matrix: (Units=1/GPa)
#
#
# Indices 1 2 3 4 5 6 
#
# 1 0.013092 -0.005490 -0.000309 0.000000 0.000000 0.000000
# 2 -0.005490 0.012880 -0.000643 0.000000 0.000000 0.000000
# 3 -0.000309 -0.000643 0.010150 0.000000 0.000000 0.000000
# 4 0.000000 0.000000 0.000000 0.027029 0.000000 0.000000
# 5 0.000000 0.000000 0.000000 0.000000 0.024178 0.000000
# 6 0.000000 0.000000 0.000000 0.000000 0.000000 -0.016641
#
#
# Mechanical properties :
#
#
# Convention : Reuss Voigt Hill
#
# Bulk Modulus (GPa) = 43.03445 43.64805 43.34125
# Shear Modulus (GPa) = 54.75253 19.30945 37.03099
#
# Velocity S-wave (km/s) = 4.78474 2.84146 3.93495
# Velocity P-wave (km/s) = 6.96556 5.38663 6.22635
#
# Compressibility (1/GPa) = 0.02323720
#
# Stress axis : x y z
#
# Youngs Moduli (GPa) = 76.38409 77.63683 98.51826
#
# Poissons Ratio (x) = 0.42626 0.03048
# Poissons Ratio (y) = 0.41938 0.06334
# Poissons Ratio (z) = 0.02363 0.04992
#
# Static dielectric constant tensor:
#      x y z
#    x 4.086180 0.000000 0.000000 
#    y 0.000000 4.284750 0.000000 
#    z 0.000000 0.000000 4.673250 
# 
# 
# High freq. dielectric constant tensor:
#      x y z
#    x 1.944560 0.000000 0.000000 
#    y 0.000000 1.949420 0.000000 
#    z 0.000000 0.000000 1.973610 
# 
# From -- ./inp_files/2532.got.cif
#   From: 2010.03.12/outbox.cif.g09.slc.cpg/sg73_2_cif.got.tgz:2532.got - 2010.04.16 15:25:48.
