data_PCOD8297957
_publ_section_title
;
Structure prediction by ZEFSAII (Michael W. Deem and Ramdas Pophale) SiO2 
 PCOD8297957
Probable space group: I M M A
;
_chemical_formula_sum "Si O2"
_cell_formula_units_Z 96
_cell_length_a 8.878515
_cell_length_b 19.732353
_cell_length_c 30.181467
_cell_angle_alpha 90.000000
_cell_angle_beta 90.000000
_cell_angle_gamma 90.000000
_cell_volume 5287.611691
_symmetry_space_group_name_H-M "I M M A"
_symmetry_group_IT_number 74
_symmetry_cell_setting 'orthorhombic'
loop_
_space_group_symop_operation_xyz
x,y,z
-x,1/2-y,z
x,-y,-z
-x,1/2+y,-z
-x,-y,-z
x,1/2+y,-z
-x,y,z
x,1/2-y,z
1/2+x,1/2+y,1/2+z
1/2-x,-y,1/2+z
1/2+x,1/2-y,1/2-z
1/2-x,y,1/2-z
1/2-x,1/2-y,1/2-z
1/2+x,y,1/2-z
1/2-x,1/2+y,1/2+z
1/2+x,-y,1/2+z
loop_
_atom_site_type_symbol
_atom_site_label
_atom_site_fract_x
_atom_site_fract_y
_atom_site_fract_z
Si Si1 0.673819 0.673083 0.586847
Si Si2 0.178065 0.968231 0.201741
Si Si3 0.178839 0.176385 0.986692
Si Si4 0.825509 0.035551 0.952959
Si Si5 0.322964 0.547384 0.875499
Si Si6 0.324368 0.678603 0.297233
O O1 0.500000 0.649638 0.589098
O O2 0.691552 0.750000 0.603892
O O3 0.736453 0.666348 0.536818
O O4 0.773489 0.624907 0.617579
O O5 0.250000 0.976459 0.250000
O O6 0.218746 0.893425 0.180278
O O7 0.000000 0.979156 0.205493
O O8 0.247007 0.023975 0.169816
O O9 0.235703 0.250000 0.968296
O O10 0.232345 0.113778 0.956238
O O11 0.000000 0.176590 0.988769
O O12 0.000000 0.032264 0.938512
O O13 0.726877 0.998813 0.916496
O O14 0.801985 0.000000 0.000000
O O15 0.500000 0.542837 0.870216
O O16 0.500000 0.677635 0.288565
O O17 0.280890 0.750000 0.322960
O O18 0.250000 0.680647 0.250000
#
# Coordination Sequence:
#
# PCOD8297957 Si02
#       6
#    16  16  16  16  16  16
#     4   9  17  33  57  81 104 134 177 223 265 316
#     4  10  20  36  57  79 106 139 180 226 274 323
#     4   8  14  27  50  77 103 135 177 223 268 316
#     4  10  18  32  54  77 104 139 180 223 268 317
#     4  12  24  35  51  78 113 146 180 218 266 323
#     4   8  14  26  47  74  99 125 162 210 260 309
#
# _framework density 18.155646000000001
#
# number of rings (size 3 to 8) (size 9 to 14) (size 15 to 20)
#    0.000    2.500    1.667    3.000    0.000    1.333 
#    0.000    0.833    0.000    6.000    0.000    0.000 
#    0.000    0.000    0.000    0.000    0.000    0.000 
#
# Total GULP energy -594650.147086 kJ/mol
# GULP energy per Si atom -12388.544731 kJ/mol
# Density = 1.811432 g / cm^3
# Si number density = 18.155646 Si / 1000 Ang^3
#
#
#
# Elastic Constant Matrix: (Units=GPa)
#
#
# Indices 1 2 3 4 5 6 
#
# 1 71.9315 38.9192 33.4066 0.0000 0.0000 0.0000
# 2 38.9192 136.6893 42.5216 0.0000 0.0000 0.0000
# 3 33.4066 42.5216 60.7835 0.0000 0.0000 0.0000
# 4 0.0000 0.0000 0.0000 24.4877 0.0000 0.0000
# 5 0.0000 0.0000 0.0000 0.0000 21.6831 0.0000
# 6 0.0000 0.0000 0.0000 0.0000 0.0000 17.8757
#
#
#
# Elastic Compliance Matrix: (Units=1/GPa)
#
#
# Indices 1 2 3 4 5 6 
#
# 1 0.019489 -0.002834 -0.008729 0.000000 0.000000 0.000000
# 2 -0.002834 0.009763 -0.005272 0.000000 0.000000 0.000000
# 3 -0.008729 -0.005272 0.024938 0.000000 0.000000 0.000000
# 4 0.000000 0.000000 0.000000 0.040837 0.000000 0.000000
# 5 0.000000 0.000000 0.000000 0.000000 0.046119 0.000000
# 6 0.000000 0.000000 0.000000 0.000000 0.000000 0.055942
#
#
# Mechanical properties :
#
#
# Convention : Reuss Voigt Hill
#
# Bulk Modulus (GPa) = 48.73351 55.45546 52.09449
# Shear Modulus (GPa) = 21.04404 23.11308 22.07856
#
# Velocity S-wave (km/s) = 3.40824 3.57186 3.49100
# Velocity P-wave (km/s) = 6.51064 6.90084 6.70858
#
# Compressibility (1/GPa) = 0.02051976
#
# Stress axis : x y z
#
# Youngs Moduli (GPa) = 51.31034 102.42960 40.10019
#
# Poissons Ratio (x) = 0.29026 0.35003
# Poissons Ratio (y) = 0.14540 0.21142
# Poissons Ratio (z) = 0.44789 0.54003
#
# Static dielectric constant tensor:
#      x y z
#    x 3.119360 0.000000 0.000000 
#    y 0.000000 4.117080 0.000000 
#    z 0.000000 0.000000 3.001620 
# 
# 
# High freq. dielectric constant tensor:
#      x y z
#    x 1.681180 0.000000 0.000000 
#    y 0.000000 1.727520 0.000000 
#    z 0.000000 0.000000 1.661210 
# 
# From -- ./inp_files/64297.got.cif
#   From: 2010.03.12/outbox.cif.g09.slc.cpg/sg74_33_cif.got.tgz:64297.got - 2010.04.16 15:46:19.
