data_PCOD8297807
_publ_section_title
;
Structure prediction by ZEFSAII (Michael W. Deem and Ramdas Pophale) SiO2 
 PCOD8297807
Probable space group: I M M A
;
_chemical_formula_sum "Si O2"
_cell_formula_units_Z 80
_cell_length_a 17.792138
_cell_length_b 17.415571
_cell_length_c 13.607756
_cell_angle_alpha 90.000000
_cell_angle_beta 90.000000
_cell_angle_gamma 90.000000
_cell_volume 4216.502575
_symmetry_space_group_name_H-M "I M M A"
_symmetry_group_IT_number 74
_symmetry_cell_setting 'orthorhombic'
loop_
_space_group_symop_operation_xyz
x,y,z
-x,1/2-y,z
x,-y,-z
-x,1/2+y,-z
-x,-y,-z
x,1/2+y,-z
-x,y,z
x,1/2-y,z
1/2+x,1/2+y,1/2+z
1/2-x,-y,1/2+z
1/2+x,1/2-y,1/2-z
1/2-x,y,1/2-z
1/2-x,1/2-y,1/2-z
1/2+x,y,1/2-z
1/2-x,1/2+y,1/2+z
1/2+x,-y,1/2+z
loop_
_atom_site_type_symbol
_atom_site_label
_atom_site_fract_x
_atom_site_fract_y
_atom_site_fract_z
Si Si1 0.274455 0.337106 0.148820
Si Si2 0.916323 0.162489 0.814775
Si Si3 0.414975 0.409042 0.090715
Si Si4 0.225908 0.840985 0.060376
Si Si5 0.870523 0.077753 0.624112
O O1 0.248257 0.250000 0.156428
O O2 0.250000 0.379761 0.250000
O O3 0.365005 0.341371 0.137196
O O4 0.232779 0.371506 0.052197
O O5 0.901016 0.250000 0.781402
O O6 0.856529 0.138726 0.898516
O O7 0.912157 0.108959 0.719696
O O8 0.000000 0.153716 0.860092
O O9 0.500000 0.406695 0.130986
O O10 0.371189 0.485571 0.125491
O O11 0.416575 0.397930 0.973145
O O12 0.243877 0.750000 0.067445
O O13 0.286311 0.888074 0.124596
#
# Coordination Sequence:
#
# PCOD8297807 Si02
#       5
#    16  16  16  16  16
#     4   9  19  36  54  71  94 126 165 206 247 293
#     4  10  19  30  47  74 106 136 164 197 241 293
#     4  10  20  33  50  74  99 124 161 206 248 288
#     4   9  18  32  50  73 100 130 165 201 240 293
#     4  10  18  31  49  71 101 133 161 196 242 294
#
# _framework density 18.97307
#
# number of rings (size 3 to 8) (size 9 to 14) (size 15 to 20)
#    0.000    2.400    0.000    3.600    0.000    4.400 
#    0.000    1.000    0.000    3.600    0.000   14.000 
#    0.000    0.000    0.000    0.000    0.000    0.000 
#
# Total GULP energy -495773.820275 kJ/mol
# GULP energy per Si atom -12394.345507 kJ/mol
# Density = 1.892989 g / cm^3
# Si number density = 18.973070 Si / 1000 Ang^3
#
#
#
# Elastic Constant Matrix: (Units=GPa)
#
#
# Indices 1 2 3 4 5 6 
#
# 1 144.9971 26.9637 62.0435 0.0000 0.0000 0.0000
# 2 26.9637 26.3602 26.8603 0.0000 0.0000 0.0000
# 3 62.0435 26.8603 100.5673 0.0000 0.0000 0.0000
# 4 0.0000 0.0000 0.0000 21.7194 0.0000 0.0000
# 5 0.0000 0.0000 0.0000 0.0000 22.6532 0.0000
# 6 0.0000 0.0000 0.0000 0.0000 0.0000 18.7819
#
#
#
# Elastic Compliance Matrix: (Units=1/GPa)
#
#
# Indices 1 2 3 4 5 6 
#
# 1 0.009892 -0.005358 -0.004672 0.000000 0.000000 0.000000
# 2 -0.005358 0.055023 -0.011390 0.000000 0.000000 0.000000
# 3 -0.004672 -0.011390 0.015868 0.000000 0.000000 0.000000
# 4 0.000000 0.000000 0.000000 0.046042 0.000000 0.000000
# 5 0.000000 0.000000 0.000000 0.000000 0.044144 0.000000
# 6 0.000000 0.000000 0.000000 0.000000 0.000000 0.053243
#
#
# Mechanical properties :
#
#
# Convention : Reuss Voigt Hill
#
# Bulk Modulus (GPa) = 26.35543 55.96219 41.15881
# Shear Modulus (GPa) = 17.87629 23.03471 20.45550
#
# Velocity S-wave (km/s) = 3.07285 3.48814 3.28706
# Velocity P-wave (km/s) = 5.14888 6.76627 6.01221
#
# Compressibility (1/GPa) = 0.03794285
#
# Stress axis : x y z
#
# Youngs Moduli (GPa) = 101.09086 18.17407 63.02029
#
# Poissons Ratio (x) = 0.09738 0.29441
# Poissons Ratio (y) = 0.54168 0.71782
# Poissons Ratio (z) = 0.47226 0.20701
#
# Static dielectric constant tensor:
#      x y z
#    x 3.455170 0.000000 0.000000 
#    y 0.000000 3.334160 0.000000 
#    z 0.000000 0.000000 3.573070 
# 
# 
# High freq. dielectric constant tensor:
#      x y z
#    x 1.733840 0.000000 0.000000 
#    y 0.000000 1.719360 0.000000 
#    z 0.000000 0.000000 1.726120 
# 
# From -- ./inp_files/33980.got.cif
#   From: 2010.03.12/outbox.cif.g09.slc.cpg/sg74_17_cif.got.tgz:33980.got - 2010.04.16 15:46:19.
