data_PCOD8297312
_publ_section_title
;
Structure prediction by ZEFSAII (Michael W. Deem and Ramdas Pophale) SiO2 
 PCOD8297312
Probable space group: I M M A
;
_chemical_formula_sum "Si O2"
_cell_formula_units_Z 128
_cell_length_a 18.641844
_cell_length_b 21.800403
_cell_length_c 17.113971
_cell_angle_alpha 90.000000
_cell_angle_beta 90.000000
_cell_angle_gamma 90.000000
_cell_volume 6955.112883
_symmetry_space_group_name_H-M "I M M A"
_symmetry_group_IT_number 74
_symmetry_cell_setting 'orthorhombic'
loop_
_space_group_symop_operation_xyz
x,y,z
-x,1/2-y,z
x,-y,-z
-x,1/2+y,-z
-x,-y,-z
x,1/2+y,-z
-x,y,z
x,1/2-y,z
1/2+x,1/2+y,1/2+z
1/2-x,-y,1/2+z
1/2+x,1/2-y,1/2-z
1/2-x,y,1/2-z
1/2-x,1/2-y,1/2-z
1/2+x,y,1/2-z
1/2-x,1/2+y,1/2+z
1/2+x,-y,1/2+z
loop_
_atom_site_type_symbol
_atom_site_label
_atom_site_fract_x
_atom_site_fract_y
_atom_site_fract_z
Si Si1 0.206723 0.981822 0.167418
Si Si2 0.586288 0.623869 0.815965
Si Si3 0.203711 0.680128 0.580362
Si Si4 0.421947 0.007928 0.882044
Si Si5 0.308148 0.883327 0.684352
Si Si6 0.310041 0.093884 0.934379
Si Si7 0.921539 0.085883 0.773481
Si Si8 0.674812 0.179420 0.791421
O O1 0.250000 0.973459 0.250000
O O2 0.244154 0.945808 0.097298
O O3 0.127544 0.954292 0.170745
O O4 0.193676 0.051531 0.140098
O O5 0.500000 0.635738 0.818262
O O6 0.630988 0.672403 0.868013
O O7 0.608063 0.556970 0.850104
O O8 0.614557 0.629927 0.725806
O O9 0.204013 0.750000 0.548370
O O10 0.278607 0.670599 0.628074
O O11 0.205410 0.628333 0.514385
O O12 0.500000 0.997730 0.919774
O O13 0.373279 0.043056 0.946160
O O14 0.426061 0.053254 0.809518
O O15 0.250000 0.891606 0.750000
O O16 0.330016 0.147295 0.874624
O O17 0.887699 0.153491 0.764097
O O18 0.000000 0.092276 0.811668
O O19 0.660477 0.250000 0.805482
O O20 0.750000 0.165654 0.750000
#
# Coordination Sequence:
#
# PCOD8297312 Si02
#       8
#    16  16  16  16  16  16  16  16
#     4  11  16  31  54  85 107 134 184 229 273 325
#     4  10  20  37  61  86 109 136 172 227 291 343
#     4  11  25  39  51  76 111 150 192 227 266 324
#     4   9  17  30  53  84 111 135 170 212 272 334
#     4   9  19  34  58  82 105 131 170 235 284 329
#     4  11  19  33  52  74 111 153 180 220 266 313
#     4  10  17  28  48  77 109 135 165 221 273 312
#     4  10  18  30  49  73 102 143 193 226 250 303
#
# _framework density 18.403727
#
# number of rings (size 3 to 8) (size 9 to 14) (size 15 to 20)
#    0.000    1.875    5.000    1.875    0.000    5.250 
#    0.000    1.250    0.000    3.000    0.000    1.750 
#    0.000    0.000    0.000    0.000    0.000    0.000 
#
# Total GULP energy -792971.433454 kJ/mol
# GULP energy per Si atom -12390.178648 kJ/mol
# Density = 1.836184 g / cm^3
# Si number density = 18.403727 Si / 1000 Ang^3
#
#
#
# Elastic Constant Matrix: (Units=GPa)
#
#
# Indices 1 2 3 4 5 6 
#
# 1 98.1151 31.2948 31.8691 0.0000 0.0000 0.0000
# 2 31.2948 76.0001 24.9736 0.0000 0.0000 0.0000
# 3 31.8691 24.9736 51.0183 0.0000 0.0000 0.0000
# 4 0.0000 0.0000 0.0000 21.4531 0.0000 0.0000
# 5 0.0000 0.0000 0.0000 0.0000 11.2556 0.0000
# 6 0.0000 0.0000 0.0000 0.0000 0.0000 16.5963
#
#
#
# Elastic Compliance Matrix: (Units=1/GPa)
#
#
# Indices 1 2 3 4 5 6 
#
# 1 0.013451 -0.003310 -0.006782 0.000000 0.000000 0.000000
# 2 -0.003310 0.016495 -0.006006 0.000000 0.000000 0.000000
# 3 -0.006782 -0.006006 0.026777 0.000000 0.000000 0.000000
# 4 0.000000 0.000000 0.000000 0.046613 0.000000 0.000000
# 5 0.000000 0.000000 0.000000 0.000000 0.088845 0.000000
# 6 0.000000 0.000000 0.000000 0.000000 0.000000 0.060254
#
#
# Mechanical properties :
#
#
# Convention : Reuss Voigt Hill
#
# Bulk Modulus (GPa) = 40.77328 44.60093 42.68711
# Shear Modulus (GPa) = 17.07607 18.99405 18.03506
#
# Velocity S-wave (km/s) = 3.04938 3.21608 3.13384
# Velocity P-wave (km/s) = 5.88229 6.17076 6.02825
#
# Compressibility (1/GPa) = 0.02452587
#
# Stress axis : x y z
#
# Youngs Moduli (GPa) = 74.34527 60.62576 37.34501
#
# Poissons Ratio (x) = 0.20068 0.25327
# Poissons Ratio (y) = 0.24609 0.22431
# Poissons Ratio (z) = 0.50420 0.36415
#
# Static dielectric constant tensor:
#      x y z
#    x 5.715830 0.000000 0.000000 
#    y 0.000000 3.456200 0.000000 
#    z 0.000000 0.000000 3.236530 
# 
# 
# High freq. dielectric constant tensor:
#      x y z
#    x 1.707550 0.000000 0.000000 
#    y 0.000000 1.720050 0.000000 
#    z 0.000000 0.000000 1.677270 
# 
# From -- ./inp_files/44595.got.cif
#   From: 2010.03.12/outbox.cif.g09.slc.cpg/sg74_23_cif.got.tgz:44595.got - 2010.04.16 15:46:19.
