data_PCOD8297963
_publ_section_title
;
Structure prediction by ZEFSAII (Michael W. Deem and Ramdas Pophale) SiO2 
 PCOD8297963
Probable space group: I M M A
;
_chemical_formula_sum "Si O2"
_cell_formula_units_Z 88
_cell_length_a 8.925720
_cell_length_b 29.497609
_cell_length_c 19.909506
_cell_angle_alpha 90.000000
_cell_angle_beta 90.000000
_cell_angle_gamma 90.000000
_cell_volume 5241.922042
_symmetry_space_group_name_H-M "I M M A"
_symmetry_group_IT_number 74
_symmetry_cell_setting 'orthorhombic'
loop_
_space_group_symop_operation_xyz
x,y,z
-x,1/2-y,z
x,-y,-z
-x,1/2+y,-z
-x,-y,-z
x,1/2+y,-z
-x,y,z
x,1/2-y,z
1/2+x,1/2+y,1/2+z
1/2-x,-y,1/2+z
1/2+x,1/2-y,1/2-z
1/2-x,y,1/2-z
1/2-x,1/2-y,1/2-z
1/2+x,y,1/2-z
1/2-x,1/2+y,1/2+z
1/2+x,-y,1/2+z
loop_
_atom_site_type_symbol
_atom_site_label
_atom_site_fract_x
_atom_site_fract_y
_atom_site_fract_z
Si Si1 0.669994 0.200137 0.065560
Si Si2 0.166659 0.533433 0.185778
Si Si3 0.664076 0.859183 0.313766
Si Si4 0.820476 0.250000 0.176657
Si Si5 0.828618 0.040124 0.552099
Si Si6 0.820904 0.866187 0.038796
O O1 0.500000 0.182789 0.078496
O O2 0.666150 0.250000 0.030786
O O3 0.759327 0.205283 0.136630
O O4 0.757746 0.166153 0.018069
O O5 0.250000 0.511926 0.250000
O O6 0.155589 0.587113 0.194139
O O7 0.261467 0.520468 0.120689
O O8 0.000000 0.512614 0.180092
O O9 0.500000 0.837366 0.310935
O O10 0.750000 0.837648 0.250000
O O11 0.735605 0.848867 0.387353
O O12 0.750000 0.250000 0.250000
O O13 0.000000 0.250000 0.180049
O O14 0.737272 0.083241 0.525031
O O15 0.000000 0.054859 0.563827
O O16 0.813833 0.000000 0.500000
O O17 0.000000 0.867002 0.036933
#
# Coordination Sequence:
#
# PCOD8297963 Si02
#       6
#    16  16  16   8  16  16
#     4   9  19  33  51  77 103 130 164 202 248 300
#     4   9  16  27  44  65  89 118 156 201 244 287
#     4   8  15  25  39  63  90 119 157 197 237 278
#     4  10  18  32  54  80 107 132 163 204 246 296
#     4  10  20  32  47  69  98 132 168 207 250 299
#     4  10  19  31  49  72  99 131 166 208 255 301
#
# _framework density 16.787735000000001
#
# number of rings (size 3 to 8) (size 9 to 14) (size 15 to 20)
#    0.545    2.182    0.000    3.818    0.000    6.545 
#    0.000    0.000    0.000    1.636    0.000    2.545 
#    0.000    0.000    0.000    0.000    0.000    0.000 
#
# Total GULP energy -545203.299667 kJ/mol
# GULP energy per Si atom -12390.984083 kJ/mol
# Density = 1.674953 g / cm^3
# Si number density = 16.787735 Si / 1000 Ang^3
#
#
#
# Elastic Constant Matrix: (Units=GPa)
#
#
# Indices 1 2 3 4 5 6 
#
# 1 134.6611 35.8175 75.8266 0.0000 0.0000 0.0000
# 2 35.8175 38.7084 42.3197 0.0001 0.0000 0.0000
# 3 75.8266 42.3197 143.0538 0.0003 0.0000 0.0000
# 4 0.0000 0.0001 0.0003 22.6437 0.0000 0.0000
# 5 0.0000 0.0000 0.0000 0.0000 35.0694 0.0000
# 6 0.0000 0.0000 0.0000 0.0000 0.0000 17.8412
#
#
#
# Elastic Compliance Matrix: (Units=1/GPa)
#
#
# Indices 1 2 3 4 5 6 
#
# 1 0.011412 -0.005833 -0.004323 0.000000 0.000000 0.000000
# 2 -0.005833 0.041165 -0.009086 0.000000 0.000000 0.000000
# 3 -0.004323 -0.009086 0.011970 0.000000 0.000000 0.000000
# 4 0.000000 0.000000 0.000000 0.044162 0.000000 0.000000
# 5 0.000000 0.000000 0.000000 0.000000 0.028515 0.000000
# 6 0.000000 0.000000 0.000000 0.000000 0.000000 0.056050
#
#
# Mechanical properties :
#
#
# Convention : Reuss Voigt Hill
#
# Bulk Modulus (GPa) = 38.36961 69.37231 53.87096
# Shear Modulus (GPa) = 20.79458 25.94151 23.36804
#
# Velocity S-wave (km/s) = 3.52330 3.93525 3.73496
# Velocity P-wave (km/s) = 6.28147 7.87789 7.12454
#
# Compressibility (1/GPa) = 0.02606230
#
# Stress axis : x y z
#
# Youngs Moduli (GPa) = 87.62702 24.29222 83.54196
#
# Poissons Ratio (x) = 0.14169 0.36119
# Poissons Ratio (y) = 0.51112 0.75908
# Poissons Ratio (z) = 0.37885 0.22072
#
# Static dielectric constant tensor:
#      x y z
#    x 3.436050 0.000000 0.000000 
#    y 0.000000 2.634400 0.000000 
#    z 0.000000 0.000000 3.296240 
# 
# 
# High freq. dielectric constant tensor:
#      x y z
#    x 1.666290 0.000000 0.000000 
#    y 0.000000 1.587290 0.000000 
#    z 0.000000 0.000000 1.652920 
# 
# From -- ./inp_files/49501.got.cif
#   From: 2010.03.12/outbox.cif.g09.slc.cpg/sg74_25_cif.got.tgz:49501.got - 2010.04.16 15:46:19.
