data_PCOD8297582
_publ_section_title
;
Structure prediction by ZEFSAII (Michael W. Deem and Ramdas Pophale) SiO2 
 PCOD8297582
Probable space group: I M M A
;
_chemical_formula_sum "Si O2"
_cell_formula_units_Z 128
_cell_length_a 16.339144
_cell_length_b 18.744615
_cell_length_c 23.357232
_cell_angle_alpha 90.000000
_cell_angle_beta 90.000000
_cell_angle_gamma 90.000000
_cell_volume 7153.641954
_symmetry_space_group_name_H-M "I M M A"
_symmetry_group_IT_number 74
_symmetry_cell_setting 'orthorhombic'
loop_
_space_group_symop_operation_xyz
x,y,z
-x,1/2-y,z
x,-y,-z
-x,1/2+y,-z
-x,-y,-z
x,1/2+y,-z
-x,y,z
x,1/2-y,z
1/2+x,1/2+y,1/2+z
1/2-x,-y,1/2+z
1/2+x,1/2-y,1/2-z
1/2-x,y,1/2-z
1/2-x,1/2-y,1/2-z
1/2+x,y,1/2-z
1/2-x,1/2+y,1/2+z
1/2+x,-y,1/2+z
loop_
_atom_site_type_symbol
_atom_site_label
_atom_site_fract_x
_atom_site_fract_y
_atom_site_fract_z
Si Si1 0.205895 0.943729 0.822311
Si Si2 0.308302 0.931438 0.137038
Si Si3 0.408484 0.421402 0.977061
Si Si4 0.096341 0.170794 0.420120
Si Si5 0.593052 0.328940 0.323090
Si Si6 0.596170 0.448248 0.748575
Si Si7 0.307992 0.829569 0.304393
Si Si8 0.662501 0.167744 0.200936
O O1 0.141071 0.892855 0.856257
O O2 0.261070 0.884563 0.790286
O O3 0.256688 0.994576 0.864568
O O4 0.156907 0.990141 0.774595
O O5 0.350737 0.916386 0.077402
O O6 0.378149 0.935466 0.185749
O O7 0.244498 0.866847 0.145696
O O8 0.500000 0.393847 0.960871
O O9 0.415390 0.500000 0.000000
O O10 0.366990 0.375850 0.028166
O O11 0.131159 0.250000 0.428063
O O12 0.118700 0.141796 0.357349
O O13 0.000000 0.168115 0.425192
O O14 0.500000 0.336069 0.341353
O O15 0.625940 0.250000 0.340160
O O16 0.600913 0.340810 0.254319
O O17 0.500000 0.468720 0.744455
O O18 0.611926 0.376420 0.711474
O O19 0.335291 0.750000 0.323409
O O20 0.250000 0.826019 0.250000
O O21 0.692828 0.250000 0.196402
#
# Coordination Sequence:
#
# PCOD8297582 Si02
#       8
#    16  16  16  16  16  16  16  16
#     4  11  20  30  43  63  91 123 158 191 222 261
#     4  10  19  31  47  65  90 125 158 186 222 267
#     4  10  20  32  46  66  93 124 158 194 225 255
#     4   9  18  32  48  67  92 121 154 191 226 260
#     4  10  19  29  43  65  93 124 156 188 221 261
#     4  10  19  30  46  67  92 123 155 186 221 266
#     4   8  16  31  48  67  91 117 146 183 227 274
#     4  10  18  29  46  65  90 126 160 186 218 262
#
# _framework density 17.892983000000001
#
# number of rings (size 3 to 8) (size 9 to 14) (size 15 to 20)
#    0.000    2.250    0.000    5.250    0.000    3.250 
#    0.000    3.750    0.000    2.250    0.000    0.000 
#    0.000   61.500    0.000   16.250    0.000    0.000 
#
# Total GULP energy -792982.919382 kJ/mol
# GULP energy per Si atom -12390.358115 kJ/mol
# Density = 1.785226 g / cm^3
# Si number density = 17.892983 Si / 1000 Ang^3
#
#
#
# Elastic Constant Matrix: (Units=GPa)
#
#
# Indices 1 2 3 4 5 6 
#
# 1 64.6621 30.9189 23.4892 0.0000 0.0000 0.0000
# 2 30.9189 111.7993 19.0216 0.0000 0.0000 0.0000
# 3 23.4892 19.0216 64.5098 0.0000 0.0000 0.0000
# 4 0.0000 0.0000 0.0000 13.8668 0.0000 0.0000
# 5 0.0000 0.0000 0.0000 0.0000 25.3631 0.0000
# 6 0.0000 0.0000 0.0000 0.0000 0.0000 19.4780
#
#
#
# Elastic Compliance Matrix: (Units=1/GPa)
#
#
# Indices 1 2 3 4 5 6 
#
# 1 0.019728 -0.004457 -0.005869 0.000000 0.000000 0.000000
# 2 -0.004457 0.010424 -0.001451 0.000000 0.000000 0.000000
# 3 -0.005869 -0.001451 0.018066 0.000000 0.000000 0.000000
# 4 0.000000 0.000000 0.000000 0.072115 0.000000 0.000000
# 5 0.000000 0.000000 0.000000 0.000000 0.039427 0.000000
# 6 0.000000 0.000000 0.000000 0.000000 0.000000 0.051340
#
#
# Mechanical properties :
#
#
# Convention : Reuss Voigt Hill
#
# Bulk Modulus (GPa) = 40.54430 43.09230 41.81830
# Shear Modulus (GPa) = 20.58656 22.91100 21.74878
#
# Velocity S-wave (km/s) = 3.39564 3.58221 3.49017
# Velocity P-wave (km/s) = 6.17109 6.42225 6.29792
#
# Compressibility (1/GPa) = 0.02466438
#
# Stress axis : x y z
#
# Youngs Moduli (GPa) = 50.68825 95.93094 55.35157
#
# Poissons Ratio (x) = 0.42761 0.32487
# Poissons Ratio (y) = 0.22594 0.08030
# Poissons Ratio (z) = 0.29750 0.13916
#
# Static dielectric constant tensor:
#      x y z
#    x 3.314400 0.000000 0.000000 
#    y 0.000000 3.872030 0.000000 
#    z 0.000000 0.000000 3.015540 
# 
# 
# High freq. dielectric constant tensor:
#      x y z
#    x 1.681490 0.000000 0.000000 
#    y 0.000000 1.710900 0.000000 
#    z 0.000000 0.000000 1.644880 
# 
# From -- ./inp_files/61141.got.cif
#   From: 2010.03.12/outbox.cif.g09.slc.cpg/sg74_31_cif.got.tgz:61141.got - 2010.04.16 15:46:19.
