data_PCOD8297929
_publ_section_title
;
Structure prediction by ZEFSAII (Michael W. Deem and Ramdas Pophale) SiO2 
 PCOD8297929
Probable space group: I M M A
;
_chemical_formula_sum "Si O2"
_cell_formula_units_Z 72
_cell_length_a 8.848872
_cell_length_b 14.308161
_cell_length_c 36.629762
_cell_angle_alpha 90.000000
_cell_angle_beta 90.000000
_cell_angle_gamma 90.000000
_cell_volume 4637.733919
_symmetry_space_group_name_H-M "I M M A"
_symmetry_group_IT_number 74
_symmetry_cell_setting 'orthorhombic'
loop_
_space_group_symop_operation_xyz
x,y,z
-x,1/2-y,z
x,-y,-z
-x,1/2+y,-z
-x,-y,-z
x,1/2+y,-z
-x,y,z
x,1/2-y,z
1/2+x,1/2+y,1/2+z
1/2-x,-y,1/2+z
1/2+x,1/2-y,1/2-z
1/2-x,y,1/2-z
1/2-x,1/2-y,1/2-z
1/2+x,y,1/2-z
1/2-x,1/2+y,1/2+z
1/2+x,-y,1/2+z
loop_
_atom_site_type_symbol
_atom_site_label
_atom_site_fract_x
_atom_site_fract_y
_atom_site_fract_z
Si Si1 0.674143 0.857842 0.520302
Si Si2 0.177148 0.857278 0.445024
Si Si3 0.320670 0.750000 0.710373
Si Si4 0.678334 0.975194 0.589905
Si Si5 0.827886 0.147250 0.349920
O O1 0.500000 0.879832 0.511263
O O2 0.699171 0.750000 0.530053
O O3 0.770518 0.888368 0.485311
O O4 0.731805 0.916227 0.554821
O O5 0.222879 0.750000 0.437755
O O6 0.000000 0.873294 0.441657
O O7 0.261558 0.919350 0.414686
O O8 0.500000 0.750000 0.712681
O O9 0.250000 0.750000 0.750000
O O10 0.261579 0.657460 0.688643
O O11 0.500000 0.974443 0.594414
O O12 0.749403 0.931177 0.625923
O O13 0.822680 0.250000 0.369541
O O14 0.000000 0.116922 0.342147
#
# Coordination Sequence:
#
# PCOD8297929 Si02
#       5
#    16  16   8  16  16
#     4   9  18  31  45  62  85 114 150 192 242 296
#     4  10  21  34  45  59  82 116 158 204 250 292
#     4  10  18  32  52  74 104 136 162 186 220 270
#     4  11  20  30  47  67  89 119 154 197 243 287
#     4   9  19  32  47  71  99 127 156 186 224 271
#
# _framework density 15.524824000000001
#
# number of rings (size 3 to 8) (size 9 to 14) (size 15 to 20)
#    0.667    1.556    0.000    4.000    0.000    6.667 
#    0.000    2.222    0.000    0.000    0.000    0.000 
#    0.000    0.889    0.000    3.333    0.000    5.111 
#
# Total GULP energy -446328.518818 kJ/mol
# GULP energy per Si atom -12398.014412 kJ/mol
# Density = 1.548949 g / cm^3
# Si number density = 15.524824 Si / 1000 Ang^3
#
#
#
# Elastic Constant Matrix: (Units=GPa)
#
#
# Indices 1 2 3 4 5 6 
#
# 1 103.2202 39.7031 57.9297 0.0000 0.0000 0.0000
# 2 39.7031 65.7965 55.1047 0.0000 0.0000 0.0000
# 3 57.9297 55.1047 106.1890 0.0000 0.0000 0.0000
# 4 0.0000 0.0000 0.0000 18.8417 0.0000 0.0000
# 5 0.0000 0.0000 0.0000 0.0000 27.8967 0.0000
# 6 0.0000 0.0000 0.0000 0.0000 0.0000 24.5919
#
#
#
# Elastic Compliance Matrix: (Units=1/GPa)
#
#
# Indices 1 2 3 4 5 6 
#
# 1 0.014468 -0.003750 -0.005947 0.000000 0.000000 0.000000
# 2 -0.003750 0.027853 -0.012408 0.000000 0.000000 0.000000
# 3 -0.005947 -0.012408 0.019100 0.000000 0.000000 0.000000
# 4 0.000000 0.000000 0.000000 0.053074 0.000000 0.000000
# 5 0.000000 0.000000 0.000000 0.000000 0.035847 0.000000
# 6 0.000000 0.000000 0.000000 0.000000 0.000000 0.040664
#
#
# Mechanical properties :
#
#
# Convention : Reuss Voigt Hill
#
# Bulk Modulus (GPa) = 58.10009 64.52008 61.31008
# Shear Modulus (GPa) = 20.75105 22.43061 21.59083
#
# Velocity S-wave (km/s) = 3.65997 3.80521 3.73329
# Velocity P-wave (km/s) = 7.44082 7.80741 7.62632
#
# Compressibility (1/GPa) = 0.01721168
#
# Stress axis : x y z
#
# Youngs Moduli (GPa) = 69.11875 35.90304 52.35517
#
# Poissons Ratio (x) = 0.13463 0.31135
# Poissons Ratio (y) = 0.25917 0.64963
# Poissons Ratio (z) = 0.41104 0.44549
#
# Static dielectric constant tensor:
#      x y z
#    x 3.026570 0.000000 0.000000 
#    y 0.000000 2.947670 0.000000 
#    z 0.000000 0.000000 2.702060 
# 
# 
# High freq. dielectric constant tensor:
#      x y z
#    x 1.611580 0.000000 0.000000 
#    y 0.000000 1.582920 0.000000 
#    z 0.000000 0.000000 1.560220 
# 
# From -- ./inp_files/69979.got.cif
#   From: 2010.03.12/outbox.cif.g09.slc.cpg/sg74_35_cif.got.tgz:69979.got - 2010.04.16 15:46:19.
