data_PCOD8297164
_publ_section_title
;
Structure prediction by ZEFSAII (Michael W. Deem and Ramdas Pophale) SiO2 
 PCOD8297164
Probable space group: I M M A
;
_chemical_formula_sum "Si O2"
_cell_formula_units_Z 112
_cell_length_a 24.682683
_cell_length_b 21.383337
_cell_length_c 13.434680
_cell_angle_alpha 90.000000
_cell_angle_beta 90.000000
_cell_angle_gamma 90.000000
_cell_volume 7090.798963
_symmetry_space_group_name_H-M "I M M A"
_symmetry_group_IT_number 74
_symmetry_cell_setting 'orthorhombic'
loop_
_space_group_symop_operation_xyz
x,y,z
-x,1/2-y,z
x,-y,-z
-x,1/2+y,-z
-x,-y,-z
x,1/2+y,-z
-x,y,z
x,1/2-y,z
1/2+x,1/2+y,1/2+z
1/2-x,-y,1/2+z
1/2+x,1/2-y,1/2-z
1/2-x,y,1/2-z
1/2-x,1/2-y,1/2-z
1/2+x,y,1/2-z
1/2-x,1/2+y,1/2+z
1/2+x,-y,1/2+z
loop_
_atom_site_type_symbol
_atom_site_label
_atom_site_fract_x
_atom_site_fract_y
_atom_site_fract_z
Si Si1 0.640556 0.682446 0.365218
Si Si2 0.060973 0.974867 0.837187
Si Si3 0.830239 0.519586 0.736613
Si Si4 0.751588 0.052476 0.087077
Si Si5 0.193168 0.619804 0.303966
Si Si6 0.439589 0.903985 0.466925
Si Si7 0.751531 0.820487 0.476501
O O1 0.614781 0.750000 0.347294
O O2 0.643557 0.648971 0.258422
O O3 0.603019 0.649220 0.445132
O O4 0.700457 0.687915 0.406680
O O5 0.000000 0.976362 0.791070
O O6 0.105821 0.965878 0.750641
O O7 0.074304 0.037669 0.896929
O O8 0.065340 0.919054 0.916446
O O9 0.800389 0.527361 0.843063
O O10 0.803275 0.562824 0.651996
O O11 0.820739 0.452490 0.686386
O O12 0.763621 0.123642 0.052868
O O13 0.746036 0.000000 0.000000
O O14 0.250000 0.628372 0.250000
O O15 0.197418 0.654371 0.411036
O O16 0.500000 0.880380 0.443014
O O17 0.764457 0.750000 0.521731
#
# Coordination Sequence:
#
# PCOD8297164 Si02
#       7
#    16  16  16  16  16  16  16
#     4  10  18  27  43  66  94 127 156 187 229 281
#     4   9  18  30  46  67  93 124 158 197 239 281
#     4  11  19  29  50  74  95 126 162 201 245 283
#     4  11  20  31  48  76 100 126 164 201 244 287
#     4  10  16  29  43  67  94 124 158 190 232 289
#     4   9  17  28  43  65  92 125 156 187 230 279
#     4  10  20  32  46  66  98 132 158 192 238 291
#
# _framework density 15.795116999999999
#
# number of rings (size 3 to 8) (size 9 to 14) (size 15 to 20)
#    0.000    2.000    4.286    3.000    2.000    2.000 
#    0.000    1.429    0.000    1.286    0.000    0.000 
#    0.000    2.286    0.000    0.000    0.000    0.000 
#
# Total GULP energy -693740.501487 kJ/mol
# GULP energy per Si atom -12388.223241 kJ/mol
# Density = 1.575917 g / cm^3
# Si number density = 15.795117 Si / 1000 Ang^3
#
#
#
# Elastic Constant Matrix: (Units=GPa)
#
#
# Indices 1 2 3 4 5 6 
#
# 1 73.2490 13.4419 17.8897 0.0000 0.0000 0.0000
# 2 13.4419 91.0056 13.6000 0.0000 0.0000 0.0000
# 3 17.8897 13.6000 35.9828 0.0000 0.0000 0.0000
# 4 0.0000 0.0000 0.0000 17.0500 0.0000 0.0000
# 5 0.0000 0.0000 0.0000 0.0000 19.9937 0.0000
# 6 0.0000 0.0000 0.0000 0.0000 0.0000 9.2200
#
#
#
# Elastic Compliance Matrix: (Units=1/GPa)
#
#
# Indices 1 2 3 4 5 6 
#
# 1 0.015665 -0.001219 -0.007328 0.000000 0.000000 0.000000
# 2 -0.001219 0.011741 -0.003832 0.000000 0.000000 0.000000
# 3 -0.007328 -0.003832 0.032882 0.000000 0.000000 0.000000
# 4 0.000000 0.000000 0.000000 0.058651 0.000000 0.000000
# 5 0.000000 0.000000 0.000000 0.000000 0.050016 0.000000
# 6 0.000000 0.000000 0.000000 0.000000 0.000000 0.108460
#
#
# Mechanical properties :
#
#
# Convention : Reuss Voigt Hill
#
# Bulk Modulus (GPa) = 28.14332 32.23339 30.18836
# Shear Modulus (GPa) = 15.92274 19.60645 17.76460
#
# Velocity S-wave (km/s) = 3.17847 3.52703 3.35728
# Velocity P-wave (km/s) = 5.59702 6.08589 5.84657
#
# Compressibility (1/GPa) = 0.03553241
#
# Stress axis : x y z
#
# Youngs Moduli (GPa) = 63.83504 85.17188 30.41141
#
# Poissons Ratio (x) = 0.10381 0.22285
# Poissons Ratio (y) = 0.07780 0.11653
# Poissons Ratio (z) = 0.46777 0.32635
#
# Static dielectric constant tensor:
#      x y z
#    x 2.946860 0.000000 0.000000 
#    y 0.000000 3.118030 0.000000 
#    z 0.000000 0.000000 2.949580 
# 
# 
# High freq. dielectric constant tensor:
#      x y z
#    x 1.587880 0.000000 0.000000 
#    y 0.000000 1.603110 0.000000 
#    z 0.000000 0.000000 1.578170 
# 
# From -- ./inp_files/25545.got.cif
#   From: 2010.03.12/outbox.cif.g09.slc.cpg/sg74_13_cif.got.tgz:25545.got - 2010.04.16 15:46:19.
