data_PCOD8297276
_publ_section_title
;
Structure prediction by ZEFSAII (Michael W. Deem and Ramdas Pophale) SiO2 
 PCOD8297276
Probable space group: I M M A
;
_chemical_formula_sum "Si O2"
_cell_formula_units_Z 96
_cell_length_a 8.724742
_cell_length_b 30.684110
_cell_length_c 19.876213
_cell_angle_alpha 90.000000
_cell_angle_beta 90.000000
_cell_angle_gamma 90.000000
_cell_volume 5321.079730
_symmetry_space_group_name_H-M "I M M A"
_symmetry_group_IT_number 74
_symmetry_cell_setting 'orthorhombic'
loop_
_space_group_symop_operation_xyz
x,y,z
-x,1/2-y,z
x,-y,-z
-x,1/2+y,-z
-x,-y,-z
x,1/2+y,-z
-x,y,z
x,1/2-y,z
1/2+x,1/2+y,1/2+z
1/2-x,-y,1/2+z
1/2+x,1/2-y,1/2-z
1/2-x,y,1/2-z
1/2-x,1/2-y,1/2-z
1/2+x,y,1/2-z
1/2-x,1/2+y,1/2+z
1/2+x,-y,1/2+z
loop_
_atom_site_type_symbol
_atom_site_label
_atom_site_fract_x
_atom_site_fract_y
_atom_site_fract_z
Si Si1 0.178469 0.635217 0.322824
Si Si2 0.321255 0.960748 0.176894
Si Si3 0.176747 0.699198 0.923069
Si Si4 0.681538 0.045641 0.324710
Si Si5 0.678821 0.800079 0.063797
Si Si6 0.319507 0.366697 0.176619
O O1 0.250000 0.642555 0.250000
O O2 0.210153 0.586988 0.354948
O O3 0.243236 0.670602 0.375194
O O4 0.000000 0.642327 0.312135
O O5 0.500000 0.971413 0.181503
O O6 0.250000 0.957692 0.250000
O O7 0.238864 0.001154 0.137568
O O8 0.205717 0.750000 0.910247
O O9 0.280410 0.674149 0.869656
O O10 0.000000 0.686457 0.913172
O O11 0.227757 0.686286 0.997883
O O12 0.500000 0.047660 0.324264
O O13 0.750000 0.044019 0.250000
O O14 0.748632 0.089615 0.358118
O O15 0.500000 0.809014 0.050013
O O16 0.708884 0.750000 0.083215
O O17 0.500000 0.372250 0.183586
O O18 0.250000 0.358436 0.250000
#
# Coordination Sequence:
#
# PCOD8297276 Si02
#       6
#    16  16  16  16  16  16
#     4   9  18  30  47  73 103 133 167 209 252 294
#     4   9  15  25  41  64  95 129 164 200 242 290
#     4  10  21  37  55  75  99 129 166 205 246 295
#     4  10  17  27  44  68  98 129 162 199 241 288
#     4   9  18  34  53  72  97 132 171 207 248 300
#     4  11  21  34  53  77 104 132 163 201 245 289
#
# _framework density 18.041450999999999
#
# number of rings (size 3 to 8) (size 9 to 14) (size 15 to 20)
#    0.000    2.333    0.000    6.000    0.000    3.000 
#    0.000    0.000    0.000    1.000    0.000    7.000 
#    0.000    0.000    0.000    0.000    0.000    0.000 
#
# Total GULP energy -594931.310738 kJ/mol
# GULP energy per Si atom -12394.402307 kJ/mol
# Density = 1.800039 g / cm^3
# Si number density = 18.041451 Si / 1000 Ang^3
#
#
#
# Elastic Constant Matrix: (Units=GPa)
#
#
# Indices 1 2 3 4 5 6 
#
# 1 119.4391 56.0769 36.0640 0.0000 0.0000 0.0000
# 2 56.0769 123.7365 63.3566 0.0000 0.0000 0.0000
# 3 36.0640 63.3566 68.2905 0.0000 0.0000 0.0000
# 4 0.0000 0.0000 0.0000 3.5184 0.0000 0.0000
# 5 0.0000 0.0000 0.0000 0.0000 23.2674 0.0000
# 6 0.0000 0.0000 0.0000 0.0000 0.0000 26.6961
#
#
#
# Elastic Compliance Matrix: (Units=1/GPa)
#
#
# Indices 1 2 3 4 5 6 
#
# 1 0.010809 -0.003764 -0.002216 0.000000 0.000000 0.000000
# 2 -0.003764 0.016705 -0.013511 0.000000 0.000000 0.000000
# 3 -0.002216 -0.013511 0.028348 0.000000 0.000000 0.000000
# 4 0.000000 0.000000 0.000000 0.284222 0.000000 0.000000
# 5 0.000000 0.000000 0.000000 0.000000 0.042979 0.000000
# 6 0.000000 0.000000 0.000000 0.000000 0.000000 0.037459
#
#
# Mechanical properties :
#
#
# Convention : Reuss Voigt Hill
#
# Bulk Modulus (GPa) = 59.23852 69.16232 64.20042
# Shear Modulus (GPa) = 10.74967 21.09427 15.92197
#
# Velocity S-wave (km/s) = 2.44362 3.42308 2.97395
# Velocity P-wave (km/s) = 6.39278 7.35131 6.88874
#
# Compressibility (1/GPa) = 0.01688091
#
# Stress axis : x y z
#
# Youngs Moduli (GPa) = 92.51793 59.86141 35.27544
#
# Poissons Ratio (x) = 0.22530 0.07818
# Poissons Ratio (y) = 0.34821 0.47660
# Poissons Ratio (z) = 0.20505 0.80877
#
# Static dielectric constant tensor:
#      x y z
#    x 3.411300 0.000000 0.000000 
#    y 0.000000 4.394190 0.000000 
#    z 0.000000 0.000000 2.917690 
# 
# 
# High freq. dielectric constant tensor:
#      x y z
#    x 1.710190 0.000000 0.000000 
#    y 0.000000 1.721930 0.000000 
#    z 0.000000 0.000000 1.645630 
# 
# From -- ./inp_files/49110.got.cif
#   From: 2010.03.12/outbox.cif.g09.slc.cpg/sg74_25_cif.got.tgz:49110.got - 2010.04.16 15:46:19.
