data_PCOD8297774
_publ_section_title
;
Structure prediction by ZEFSAII (Michael W. Deem and Ramdas Pophale) SiO2 
 PCOD8297774
Probable space group: I M M A
;
_chemical_formula_sum "Si O2"
_cell_formula_units_Z 96
_cell_length_a 23.090837
_cell_length_b 8.853792
_cell_length_c 23.684661
_cell_angle_alpha 90.000000
_cell_angle_beta 90.000000
_cell_angle_gamma 90.000000
_cell_volume 4842.126862
_symmetry_space_group_name_H-M "I M M A"
_symmetry_group_IT_number 74
_symmetry_cell_setting 'orthorhombic'
loop_
_space_group_symop_operation_xyz
x,y,z
-x,1/2-y,z
x,-y,-z
-x,1/2+y,-z
-x,-y,-z
x,1/2+y,-z
-x,y,z
x,1/2-y,z
1/2+x,1/2+y,1/2+z
1/2-x,-y,1/2+z
1/2+x,1/2-y,1/2-z
1/2-x,y,1/2-z
1/2-x,1/2-y,1/2-z
1/2+x,y,1/2-z
1/2-x,1/2+y,1/2+z
1/2+x,-y,1/2+z
loop_
_atom_site_type_symbol
_atom_site_label
_atom_site_fract_x
_atom_site_fract_y
_atom_site_fract_z
Si Si1 0.266890 0.071887 0.440235
Si Si2 0.000000 0.074350 0.880590
Si Si3 0.500000 0.418315 0.266442
Si Si4 0.374574 0.078915 0.252965
Si Si5 0.160840 0.069957 0.364129
Si Si6 0.933288 0.072939 0.558725
Si Si7 0.881993 0.570116 0.879136
O O1 0.265034 0.250000 0.447085
O O2 0.219232 0.017175 0.395047
O O3 0.329544 0.016962 0.418824
O O4 0.252027 0.000000 0.500000
O O5 0.000000 0.250000 0.895529
O O6 0.941052 0.999515 0.905185
O O7 0.000000 0.046735 0.813843
O O8 0.500000 0.250000 0.295531
O O9 0.558653 0.434698 0.230441
O O10 0.354541 0.250000 0.261125
O O11 0.336199 0.011150 0.201563
O O12 0.369300 0.004823 0.315413
O O13 0.153231 0.250000 0.365721
O O14 0.105089 0.995519 0.391951
O O15 0.922504 0.250000 0.554368
O O16 0.000000 0.033983 0.571870
O O17 0.913269 0.000000 0.500000
O O18 0.888382 0.750000 0.877409
#
# Coordination Sequence:
#
# PCOD8297774 Si02
#       7
#    16   8   8  16  16  16  16
#     4  10  22  38  57  80 106 141 183 226 272 324
#     4  10  18  30  53  85 112 135 168 214 265 318
#     4   8  14  28  48  73 108 149 182 210 255 312
#     4   8  15  28  51  80 108 139 177 218 261 314
#     4  10  20  33  53  82 110 140 179 223 272 321
#     4  10  21  36  52  72 101 141 188 234 277 316
#     4   9  18  36  58  79 109 146 180 215 263 323
#
# _framework density 19.825997999999998
#
# number of rings (size 3 to 8) (size 9 to 14) (size 15 to 20)
#    0.000    2.667    0.000    2.750    1.167    4.333 
#    0.000    7.083    0.000    0.000    0.000    7.000 
#    0.000    0.000    0.000    0.000    0.000    0.000 
#
# Total GULP energy -594773.477166 kJ/mol
# GULP energy per Si atom -12391.114108 kJ/mol
# Density = 1.978087 g / cm^3
# Si number density = 19.825998 Si / 1000 Ang^3
#
#
#
# Elastic Constant Matrix: (Units=GPa)
#
#
# Indices 1 2 3 4 5 6 
#
# 1 92.1231 24.1131 23.2082 0.0000 0.0000 0.0000
# 2 24.1131 40.8851 11.0410 0.0000 0.0000 0.0000
# 3 23.2082 11.0410 51.2750 0.0000 0.0000 0.0000
# 4 0.0000 0.0000 0.0000 21.5510 0.0000 0.0000
# 5 0.0000 0.0000 0.0000 0.0000 38.1598 0.0000
# 6 0.0000 0.0000 0.0000 0.0000 0.0000 20.2306
#
#
#
# Elastic Compliance Matrix: (Units=1/GPa)
#
#
# Indices 1 2 3 4 5 6 
#
# 1 0.013864 -0.006882 -0.004793 0.000000 0.000000 0.000000
# 2 -0.006882 0.029385 -0.003212 0.000000 0.000000 0.000000
# 3 -0.004793 -0.003212 0.022364 0.000000 0.000000 0.000000
# 4 0.000000 0.000000 0.000000 0.046402 0.000000 0.000000
# 5 0.000000 0.000000 0.000000 0.000000 0.026206 0.000000
# 6 0.000000 0.000000 0.000000 0.000000 0.000000 0.049430
#
#
# Mechanical properties :
#
#
# Convention : Reuss Voigt Hill
#
# Bulk Modulus (GPa) = 27.90381 33.44531 30.67456
# Shear Modulus (GPa) = 21.79864 24.38301 23.09082
#
# Velocity S-wave (km/s) = 3.31946 3.51073 3.41643
# Velocity P-wave (km/s) = 5.36626 5.77405 5.57388
#
# Compressibility (1/GPa) = 0.03583740
#
# Stress axis : x y z
#
# Youngs Moduli (GPa) = 72.12934 34.03064 44.71490
#
# Poissons Ratio (x) = 0.23421 0.21433
# Poissons Ratio (y) = 0.49641 0.14364
# Poissons Ratio (z) = 0.34573 0.10932
#
# Static dielectric constant tensor:
#      x y z
#    x 3.838290 0.000000 0.000000 
#    y 0.000000 3.252470 0.000000 
#    z 0.000000 0.000000 3.588880 
# 
# 
# High freq. dielectric constant tensor:
#      x y z
#    x 1.780690 0.000000 0.000000 
#    y 0.000000 1.736720 0.000000 
#    z 0.000000 0.000000 1.761260 
# 
# From -- ./inp_files/61936.got.cif
#   From: 2010.03.12/outbox.cif.g09.slc.cpg/sg74_31_cif.got.tgz:61936.got - 2010.04.16 15:46:19.
