data_PCOD8297195
_publ_section_title
;
Structure prediction by ZEFSAII (Michael W. Deem and Ramdas Pophale) SiO2 
 PCOD8297195
Probable space group: I M M A
;
_chemical_formula_sum "Si O2"
_cell_formula_units_Z 80
_cell_length_a 23.419592
_cell_length_b 16.876593
_cell_length_c 12.955095
_cell_angle_alpha 90.000000
_cell_angle_beta 90.000000
_cell_angle_gamma 90.000000
_cell_volume 5120.409608
_symmetry_space_group_name_H-M "I M M A"
_symmetry_group_IT_number 74
_symmetry_cell_setting 'orthorhombic'
loop_
_space_group_symop_operation_xyz
x,y,z
-x,1/2-y,z
x,-y,-z
-x,1/2+y,-z
-x,-y,-z
x,1/2+y,-z
-x,y,z
x,1/2-y,z
1/2+x,1/2+y,1/2+z
1/2-x,-y,1/2+z
1/2+x,1/2-y,1/2-z
1/2-x,y,1/2-z
1/2-x,1/2-y,1/2-z
1/2+x,y,1/2-z
1/2-x,1/2+y,1/2+z
1/2+x,-y,1/2+z
loop_
_atom_site_type_symbol
_atom_site_label
_atom_site_fract_x
_atom_site_fract_y
_atom_site_fract_z
Si Si1 0.500000 0.657814 0.685042
Si Si2 0.500000 0.157553 0.559004
Si Si3 0.813540 0.157654 0.031392
Si Si4 0.118393 0.088032 0.219477
Si Si5 0.107182 0.558314 0.092442
Si Si6 0.208165 0.662017 0.653522
O O1 0.500000 0.750000 0.711029
O O2 0.500000 0.641702 0.562994
O O3 0.554271 0.616985 0.738343
O O4 0.500000 0.250000 0.584968
O O5 0.555702 0.119190 0.611523
O O6 0.818470 0.250000 0.004593
O O7 0.855686 0.140384 0.126809
O O8 0.747774 0.133882 0.057254
O O9 0.834672 0.106059 0.934121
O O10 0.155674 0.102501 0.323584
O O11 0.119422 0.994222 0.194014
O O12 0.088936 0.500000 0.000000
O O13 0.183445 0.750000 0.632221
O O14 0.250000 0.665615 0.750000
#
# Coordination Sequence:
#
# PCOD8297195 Si02
#       6
#     8   8  16  16  16  16
#     4  11  17  21  33  47  68 100 126 145 168 205
#     4  11  18  24  32  44  70 102 127 146 168 201
#     4   9  15  24  36  48  66  93 125 152 177 212
#     4  10  17  23  33  49  73  95 120 149 178 209
#     4  10  17  23  32  49  72  96 121 151 177 206
#     4   8  14  24  36  48  65  93 124 151 178 213
#
# _framework density 15.623749999999999
#
# number of rings (size 3 to 8) (size 9 to 14) (size 15 to 20)
#    0.000    2.400    4.000    4.500    0.000    0.000 
#    0.000    0.000    0.000    0.000    0.000    0.000 
#    0.000  123.200    0.000   45.900    0.000   40.800 
#
# Total GULP energy -495779.225733 kJ/mol
# GULP energy per Si atom -12394.480643 kJ/mol
# Density = 1.558819 g / cm^3
# Si number density = 15.623750 Si / 1000 Ang^3
#
#
#
# Elastic Constant Matrix: (Units=GPa)
#
#
# Indices 1 2 3 4 5 6 
#
# 1 131.1697 69.9752 37.8688 0.0000 0.0000 0.0000
# 2 69.9752 112.4806 30.6038 0.0000 0.0000 0.0000
# 3 37.8688 30.6038 19.5058 0.0000 0.0000 0.0000
# 4 0.0000 0.0000 0.0000 7.5652 0.0000 0.0000
# 5 0.0000 0.0000 0.0000 0.0000 5.2091 0.0000
# 6 0.0000 0.0000 0.0000 0.0000 0.0000 26.5630
#
#
#
# Elastic Compliance Matrix: (Units=1/GPa)
#
#
# Indices 1 2 3 4 5 6 
#
# 1 0.017883 -0.002929 -0.030121 0.000000 0.000000 0.000000
# 2 -0.002929 0.015992 -0.019404 0.000000 0.000000 0.000000
# 3 -0.030121 -0.019404 0.140189 0.000000 0.000000 0.000000
# 4 0.000000 0.000000 0.000000 0.132185 0.000000 0.000000
# 5 0.000000 0.000000 0.000000 0.000000 0.191970 0.000000
# 6 0.000000 0.000000 0.000000 0.000000 0.000000 0.037646
#
#
# Mechanical properties :
#
#
# Convention : Reuss Voigt Hill
#
# Bulk Modulus (GPa) = 14.46039 60.00574 37.23307
# Shear Modulus (GPa) = 7.53209 16.18135 11.85672
#
# Velocity S-wave (km/s) = 2.19804 3.22170 2.75779
# Velocity P-wave (km/s) = 3.96451 7.23390 5.83295
#
# Compressibility (1/GPa) = 0.06915443
#
# Stress axis : x y z
#
# Youngs Moduli (GPa) = 55.92045 62.52999 7.13322
#
# Poissons Ratio (x) = 0.18318 0.21486
# Poissons Ratio (y) = 0.16382 0.13841
# Poissons Ratio (z) = 1.68440 1.21333
#
# Static dielectric constant tensor:
#      x y z
#    x 3.247000 0.000000 0.000000 
#    y 0.000000 3.114250 0.000000 
#    z 0.000000 0.000000 2.442110 
# 
# 
# High freq. dielectric constant tensor:
#      x y z
#    x 1.603760 0.000000 0.000000 
#    y 0.000000 1.605440 0.000000 
#    z 0.000000 0.000000 1.505800 
# 
# From -- ./inp_files/22347.got.cif
#   From: 2010.03.12/outbox.cif.g09.slc.cpg/sg74_12_cif.got.tgz:22347.got - 2010.04.16 15:46:19.
