data_PCOD8297506
_publ_section_title
;
Structure prediction by ZEFSAII (Michael W. Deem and Ramdas Pophale) SiO2 
 PCOD8297506
Probable space group: I M M A
;
_chemical_formula_sum "Si O2"
_cell_formula_units_Z 96
_cell_length_a 8.841236
_cell_length_b 28.771542
_cell_length_c 25.931170
_cell_angle_alpha 90.000000
_cell_angle_beta 90.000000
_cell_angle_gamma 90.000000
_cell_volume 6596.267116
_symmetry_space_group_name_H-M "I M M A"
_symmetry_group_IT_number 74
_symmetry_cell_setting 'orthorhombic'
loop_
_space_group_symop_operation_xyz
x,y,z
-x,1/2-y,z
x,-y,-z
-x,1/2+y,-z
-x,-y,-z
x,1/2+y,-z
-x,y,z
x,1/2-y,z
1/2+x,1/2+y,1/2+z
1/2-x,-y,1/2+z
1/2+x,1/2-y,1/2-z
1/2-x,y,1/2-z
1/2-x,1/2-y,1/2-z
1/2+x,y,1/2-z
1/2-x,1/2+y,1/2+z
1/2+x,-y,1/2+z
loop_
_atom_site_type_symbol
_atom_site_label
_atom_site_fract_x
_atom_site_fract_y
_atom_site_fract_z
Si Si1 0.175590 0.801895 0.029559
Si Si2 0.178444 0.109966 0.695853
Si Si3 0.177323 0.392109 0.507464
Si Si4 0.674499 0.197461 0.649730
Si Si5 0.832846 0.024145 0.444718
Si Si6 0.677378 0.057222 0.603115
O O1 0.220233 0.750000 0.011276
O O2 0.274229 0.838894 0.997173
O O3 0.213342 0.807604 0.089687
O O4 0.000000 0.811124 0.019055
O O5 0.250000 0.095707 0.750000
O O6 0.221344 0.162899 0.681987
O O7 0.240014 0.073517 0.654463
O O8 0.000000 0.105818 0.699141
O O9 0.216434 0.422378 0.456046
O O10 0.270887 0.410517 0.556141
O O11 0.000000 0.396046 0.520296
O O12 0.500000 0.184420 0.659535
O O13 0.707797 0.250000 0.668174
O O14 0.000000 0.022226 0.419575
O O15 0.836826 0.000000 0.500000
O O16 0.717659 0.997030 0.407373
O O17 0.500000 0.062714 0.610610
#
# Coordination Sequence:
#
# PCOD8297506 Si02
#       6
#    16  16  16  16  16  16
#     4   9  17  28  43  62  85 112 140 172 209 250
#     4  12  24  36  49  63  80 104 136 173 217 260
#     4  10  18  28  44  65  86 109 136 169 205 246
#     4   9  18  33  49  63  80 103 134 174 217 258
#     4   8  16  29  43  62  86 107 131 163 203 245
#     4  11  20  31  46  63  83 105 133 169 209 252
#
# _framework density 14.553686000000001
#
# number of rings (size 3 to 8) (size 9 to 14) (size 15 to 20)
#    0.000    2.167    1.667    5.500    0.000    4.667 
#    0.000    1.667    0.000    0.000    0.000    0.000 
#    0.000    0.000    0.000    0.000    0.000    0.833 
#
# Total GULP energy -595066.492687 kJ/mol
# GULP energy per Si atom -12397.218598 kJ/mol
# Density = 1.452056 g / cm^3
# Si number density = 14.553686 Si / 1000 Ang^3
#
#
#
# Elastic Constant Matrix: (Units=GPa)
#
#
# Indices 1 2 3 4 5 6 
#
# 1 97.2706 47.7436 33.3326 0.0000 0.0000 0.0000
# 2 47.7436 100.1226 44.4974 0.0000 0.0000 0.0000
# 3 33.3326 44.4974 43.3369 0.0000 0.0000 0.0000
# 4 0.0000 0.0000 0.0000 14.2081 0.0000 0.0000
# 5 0.0000 0.0000 0.0000 0.0000 17.7664 0.0000
# 6 0.0000 0.0000 0.0000 0.0000 0.0000 22.9312
#
#
#
# Elastic Compliance Matrix: (Units=1/GPa)
#
#
# Indices 1 2 3 4 5 6 
#
# 1 0.014647 -0.003637 -0.007531 0.000000 0.000000 0.000000
# 2 -0.003637 0.019274 -0.016993 0.000000 0.000000 0.000000
# 3 -0.007531 -0.016993 0.046315 0.000000 0.000000 0.000000
# 4 0.000000 0.000000 0.000000 0.070382 0.000000 0.000000
# 5 0.000000 0.000000 0.000000 0.000000 0.056286 0.000000
# 6 0.000000 0.000000 0.000000 0.000000 0.000000 0.043609
#
#
# Mechanical properties :
#
#
# Convention : Reuss Voigt Hill
#
# Bulk Modulus (GPa) = 41.81590 54.65303 48.23446
# Shear Modulus (GPa) = 15.88281 18.65823 17.27052
#
# Velocity S-wave (km/s) = 3.30711 3.58443 3.44855
# Velocity P-wave (km/s) = 6.58613 7.40034 7.00508
#
# Compressibility (1/GPa) = 0.02391435
#
# Stress axis : x y z
#
# Youngs Moduli (GPa) = 68.27558 51.88252 21.59133
#
# Poissons Ratio (x) = 0.18872 0.16259
# Poissons Ratio (y) = 0.24835 0.36690
# Poissons Ratio (z) = 0.51415 0.88162
#
# Static dielectric constant tensor:
#      x y z
#    x 2.858000 0.000000 0.000000 
#    y 0.000000 3.163270 0.000000 
#    z 0.000000 0.000000 2.535600 
# 
# 
# High freq. dielectric constant tensor:
#      x y z
#    x 1.566040 0.000000 0.000000 
#    y 0.000000 1.557940 0.000000 
#    z 0.000000 0.000000 1.498530 
# 
# From -- ./inp_files/57482.got.cif
#   From: 2010.03.12/outbox.cif.g09.slc.cpg/sg74_29_cif.got.tgz:57482.got - 2010.04.16 15:46:19.
