data_PCOD8297520
_publ_section_title
;
Structure prediction by ZEFSAII (Michael W. Deem and Ramdas Pophale) SiO2 
 PCOD8297520
Probable space group: I M M A
;
_chemical_formula_sum "Si O2"
_cell_formula_units_Z 96
_cell_length_a 23.541224
_cell_length_b 9.263469
_cell_length_c 26.313896
_cell_angle_alpha 90.000000
_cell_angle_beta 90.000000
_cell_angle_gamma 90.000000
_cell_volume 5738.360735
_symmetry_space_group_name_H-M "I M M A"
_symmetry_group_IT_number 74
_symmetry_cell_setting 'orthorhombic'
loop_
_space_group_symop_operation_xyz
x,y,z
-x,1/2-y,z
x,-y,-z
-x,1/2+y,-z
-x,-y,-z
x,1/2+y,-z
-x,y,z
x,1/2-y,z
1/2+x,1/2+y,1/2+z
1/2-x,-y,1/2+z
1/2+x,1/2-y,1/2-z
1/2-x,y,1/2-z
1/2-x,1/2-y,1/2-z
1/2+x,y,1/2-z
1/2-x,1/2+y,1/2+z
1/2+x,-y,1/2+z
loop_
_atom_site_type_symbol
_atom_site_label
_atom_site_fract_x
_atom_site_fract_y
_atom_site_fract_z
Si Si1 0.621311 0.914750 0.787373
Si Si2 0.500000 0.421050 0.649287
Si Si3 0.812929 0.910351 0.204541
Si Si4 0.788645 0.079372 0.050343
Si Si5 0.776387 0.415244 0.349879
Si Si6 0.000000 0.417270 0.256455
Si Si7 0.382896 0.588783 0.397775
O O1 0.628069 0.750000 0.769273
O O2 0.655589 0.936805 0.840808
O O3 0.554661 0.955074 0.791691
O O4 0.647531 0.013745 0.744725
O O5 0.500000 0.250000 0.659251
O O6 0.500000 0.494730 0.704227
O O7 0.445663 0.468903 0.615931
O O8 0.798217 0.750000 0.223625
O O9 0.847176 0.905389 0.152957
O O10 0.754001 0.994104 0.194836
O O11 0.792005 0.250000 0.041438
O O12 0.742719 0.036398 0.093854
O O13 0.851744 0.020628 0.063690
O O14 0.766329 0.000000 0.000000
O O15 0.757776 0.250000 0.342174
O O16 0.000000 0.250000 0.240786
O O17 0.385774 0.750000 0.421985
#
# Coordination Sequence:
#
# PCOD8297520 Si02
#       7
#    16   8  16  16  16   8  16
#     4  10  19  31  45  66  97 130 162 193 228 274
#     4  10  18  32  49  67  96 133 168 198 233 269
#     4  10  18  28  45  69  97 127 160 195 231 274
#     4  10  20  35  54  72  91 116 151 198 250 297
#     4   9  19  33  48  67  94 125 154 191 241 288
#     4  10  20  30  46  69  96 133 171 200 223 265
#     4   9  18  31  48  69  95 127 161 196 232 276
#
# _framework density 16.729516
#
# number of rings (size 3 to 8) (size 9 to 14) (size 15 to 20)
#    0.000    2.333    1.667    1.500    0.000    4.667 
#    0.000    0.417    0.000    0.000    0.000    0.583 
#    0.000    0.000    0.000    0.000    0.000    0.000 
#
# Total GULP energy -594937.465707 kJ/mol
# GULP energy per Si atom -12394.530536 kJ/mol
# Density = 1.669144 g / cm^3
# Si number density = 16.729516 Si / 1000 Ang^3
#
#
#
# Elastic Constant Matrix: (Units=GPa)
#
#
# Indices 1 2 3 4 5 6 
#
# 1 126.0768 45.5451 59.3499 0.0000 0.0000 0.0000
# 2 45.5451 72.9673 34.0723 0.0000 0.0000 0.0000
# 3 59.3499 34.0723 53.9399 0.0000 0.0000 0.0000
# 4 0.0000 0.0000 0.0000 21.9207 0.0000 0.0000
# 5 0.0000 0.0000 0.0000 0.0000 -4.5367 0.0000
# 6 0.0000 0.0000 0.0000 0.0000 0.0000 11.4560
#
#
#
# Elastic Compliance Matrix: (Units=1/GPa)
#
#
# Indices 1 2 3 4 5 6 
#
# 1 0.016803 -0.002631 -0.016826 0.000000 0.000000 0.000000
# 2 -0.002631 0.019850 -0.009644 0.000000 0.000000 0.000000
# 3 -0.016826 -0.009644 0.043145 0.000000 0.000000 0.000000
# 4 0.000000 0.000000 0.000000 0.045619 0.000000 0.000000
# 5 0.000000 0.000000 0.000000 0.000000 -0.220426 0.000000
# 6 0.000000 0.000000 0.000000 0.000000 0.000000 0.087290
#
#
# Mechanical properties :
#
#
# Convention : Reuss Voigt Hill
#
# Bulk Modulus (GPa) = 46.30575 58.99096 52.64836
# Shear Modulus (GPa) = 86.68112 13.36912 50.02512
#
# Velocity S-wave (km/s) = 7.20595 2.82996 5.47423
# Velocity P-wave (km/s) = 9.84751 6.78354 8.45547
#
# Compressibility (1/GPa) = 0.02159559
#
# Stress axis : x y z
#
# Youngs Moduli (GPa) = 59.51296 50.37705 23.17770
#
# Poissons Ratio (x) = 0.13255 0.39000
# Poissons Ratio (y) = 0.15658 0.22352
# Poissons Ratio (z) = 1.00139 0.48583
#
# Static dielectric constant tensor:
#      x y z
#    x 3.440530 0.000000 0.000000 
#    y 0.000000 3.360800 0.000000 
#    z 0.000000 0.000000 3.001260 
# 
# 
# High freq. dielectric constant tensor:
#      x y z
#    x 1.642910 0.000000 0.000000 
#    y 0.000000 1.651960 0.000000 
#    z 0.000000 0.000000 1.614280 
# 
# From -- ./inp_files/61941.got.cif
#   From: 2010.03.12/outbox.cif.g09.slc.cpg/sg74_31_cif.got.tgz:61941.got - 2010.04.16 15:46:19.
