data_PCOD8297360
_publ_section_title
;
Structure prediction by ZEFSAII (Michael W. Deem and Ramdas Pophale) SiO2 
 PCOD8297360
Probable space group: I M M A
;
_chemical_formula_sum "Si O2"
_cell_formula_units_Z 80
_cell_length_a 8.946736
_cell_length_b 28.120496
_cell_length_c 20.470202
_cell_angle_alpha 90.000000
_cell_angle_beta 90.000000
_cell_angle_gamma 90.000000
_cell_volume 5150.029626
_symmetry_space_group_name_H-M "I M M A"
_symmetry_group_IT_number 74
_symmetry_cell_setting 'orthorhombic'
loop_
_space_group_symop_operation_xyz
x,y,z
-x,1/2-y,z
x,-y,-z
-x,1/2+y,-z
-x,-y,-z
x,1/2+y,-z
-x,y,z
x,1/2-y,z
1/2+x,1/2+y,1/2+z
1/2-x,-y,1/2+z
1/2+x,1/2-y,1/2-z
1/2-x,y,1/2-z
1/2-x,1/2-y,1/2-z
1/2+x,y,1/2-z
1/2-x,1/2+y,1/2+z
1/2+x,-y,1/2+z
loop_
_atom_site_type_symbol
_atom_site_label
_atom_site_fract_x
_atom_site_fract_y
_atom_site_fract_z
Si Si1 0.165060 0.618910 0.477168
Si Si2 0.324949 0.304020 0.457313
Si Si3 0.177028 0.961470 0.816750
Si Si4 0.175422 0.519730 0.429921
Si Si5 0.166851 0.123375 0.378729
O O1 0.276842 0.664473 0.478809
O O2 0.213431 0.576478 0.428982
O O3 0.158583 0.596443 0.550953
O O4 0.000000 0.637665 0.458025
O O5 0.500000 0.307876 0.447005
O O6 0.272765 0.250000 0.468098
O O7 0.244418 0.325167 0.392210
O O8 0.250000 0.980411 0.750000
O O9 0.235586 0.907984 0.829531
O O10 0.000000 0.960729 0.810402
O O11 0.225058 0.996842 0.873926
O O12 0.224556 0.500000 0.500000
O O13 0.000000 0.510691 0.416339
O O14 0.000000 0.130532 0.349707
#
# Coordination Sequence:
#
# PCOD8297360 Si02
#       5
#    16  16  16  16  16
#     4   8  16  27  45  68  92 123 154 190 233 278
#     4   9  16  26  43  69  98 124 154 196 240 279
#     4  12  24  35  49  69  96 129 164 201 240 285
#     4  10  17  31  51  70  95 124 157 196 238 283
#     4   9  17  31  47  66  90 122 158 192 232 277
#
# _framework density 15.533891000000001
#
# number of rings (size 3 to 8) (size 9 to 14) (size 15 to 20)
#    1.200    1.200    2.000    2.400    0.000    2.800 
#    0.000    0.000    0.000    0.600    0.000    0.000 
#    0.000    0.800    0.000    2.600    0.000    3.800 
#
# Total GULP energy -495529.822657 kJ/mol
# GULP energy per Si atom -12388.245566 kJ/mol
# Density = 1.549854 g / cm^3
# Si number density = 15.533891 Si / 1000 Ang^3
#
#
#
# Elastic Constant Matrix: (Units=GPa)
#
#
# Indices 1 2 3 4 5 6 
#
# 1 116.0128 58.3168 41.1028 0.0000 0.0000 0.0000
# 2 58.3168 96.1632 45.1687 -0.0002 0.0000 0.0000
# 3 41.1028 45.1687 45.7861 0.0006 0.0001 0.0000
# 4 0.0000 -0.0002 0.0006 11.8994 0.0000 0.0000
# 5 0.0000 0.0000 0.0001 0.0000 21.2610 0.0000
# 6 0.0000 0.0000 0.0000 0.0000 0.0000 27.8204
#
#
#
# Elastic Compliance Matrix: (Units=1/GPa)
#
#
# Indices 1 2 3 4 5 6 
#
# 1 0.013699 -0.004717 -0.007645 0.000000 0.000000 0.000000
# 2 -0.004717 0.021003 -0.016485 0.000001 0.000000 0.000000
# 3 -0.007645 -0.016485 0.044966 -0.000002 0.000000 0.000000
# 4 0.000000 0.000001 -0.000002 0.084038 0.000000 0.000000
# 5 0.000000 0.000000 0.000000 0.000000 0.047034 0.000000
# 6 0.000000 0.000000 0.000000 0.000000 0.000000 0.035945
#
#
# Mechanical properties :
#
#
# Convention : Reuss Voigt Hill
#
# Bulk Modulus (GPa) = 45.50663 60.79319 53.14991
# Shear Modulus (GPa) = 16.04090 19.75442 17.89766
#
# Velocity S-wave (km/s) = 3.21696 3.56996 3.39804
# Velocity P-wave (km/s) = 6.56940 7.49757 7.04878
#
# Compressibility (1/GPa) = 0.02197482
#
# Stress axis : x y z
#
# Youngs Moduli (GPa) = 72.99623 47.61313 22.23904
#
# Poissons Ratio (x) = 0.22459 0.17001
# Poissons Ratio (y) = 0.34432 0.36661
# Poissons Ratio (z) = 0.55803 0.78490
#
# Static dielectric constant tensor:
#      x y z
#    x 2.925850 0.000000 0.000000 
#    y 0.000000 2.917790 0.000000 
#    z 0.000000 0.000000 2.616350 
# 
# 
# High freq. dielectric constant tensor:
#      x y z
#    x 1.604670 0.000000 0.000000 
#    y 0.000000 1.587480 0.000000 
#    z 0.000000 0.000000 1.545900 
# 
# From -- ./inp_files/49390.got.cif
#   From: 2010.03.12/outbox.cif.g09.slc.cpg/sg74_25_cif.got.tgz:49390.got - 2010.04.16 15:46:19.
