data_PCOD8297600
_publ_section_title
;
Structure prediction by ZEFSAII (Michael W. Deem and Ramdas Pophale) SiO2 
 PCOD8297600
Probable space group: I M M A
;
_chemical_formula_sum "Si O2"
_cell_formula_units_Z 104
_cell_length_a 8.935823
_cell_length_b 28.659904
_cell_length_c 24.153134
_cell_angle_alpha 90.000000
_cell_angle_beta 90.000000
_cell_angle_gamma 90.000000
_cell_volume 6185.613495
_symmetry_space_group_name_H-M "I M M A"
_symmetry_group_IT_number 74
_symmetry_cell_setting 'orthorhombic'
loop_
_space_group_symop_operation_xyz
x,y,z
-x,1/2-y,z
x,-y,-z
-x,1/2+y,-z
-x,-y,-z
x,1/2+y,-z
-x,y,z
x,1/2-y,z
1/2+x,1/2+y,1/2+z
1/2-x,-y,1/2+z
1/2+x,1/2-y,1/2-z
1/2-x,y,1/2-z
1/2-x,1/2-y,1/2-z
1/2+x,y,1/2-z
1/2-x,1/2+y,1/2+z
1/2+x,-y,1/2+z
loop_
_atom_site_type_symbol
_atom_site_label
_atom_site_fract_x
_atom_site_fract_y
_atom_site_fract_z
Si Si1 0.174190 0.925121 0.809076
Si Si2 0.175170 0.027600 0.809333
Si Si3 0.821442 0.118343 0.689588
Si Si4 0.323239 0.838890 0.620622
Si Si5 0.174418 0.803721 0.515754
Si Si6 0.822789 0.250000 0.190289
Si Si7 0.177820 0.198289 0.607797
O O1 0.250000 0.918901 0.750000
O O2 0.236610 0.886537 0.851451
O O3 0.000000 0.917170 0.798180
O O4 0.201965 0.976537 0.836507
O O5 0.250000 0.024469 0.750000
O O6 0.259463 0.070657 0.839658
O O7 0.000000 0.039294 0.804314
O O8 0.750000 0.124707 0.750000
O O9 0.763057 0.161136 0.652259
O O10 0.000000 0.116630 0.693733
O O11 0.500000 0.838557 0.615774
O O12 0.258838 0.836719 0.558868
O O13 0.266461 0.795456 0.657241
O O14 0.210643 0.750000 0.529469
O O15 0.232591 0.815612 0.453854
O O16 0.000000 0.814011 0.520964
O O17 0.750000 0.250000 0.250000
O O18 0.000000 0.250000 0.197357
O O19 0.238359 0.250000 0.623616
O O20 0.000000 0.199462 0.607340
#
# Coordination Sequence:
#
# PCOD8297600 Si02
#       7
#    16  16  16  16  16   8  16
#     4   9  18  30  45  65  91 121 153 189 229 273
#     4   9  16  28  45  65  90 120 153 187 221 264
#     4  10  18  29  48  72  97 123 148 179 222 270
#     4  10  19  31  45  65  92 120 149 189 237 274
#     4   9  17  31  50  68  85 114 158 194 221 265
#     4  10  20  30  42  62  92 122 147 182 229 276
#     4   8  16  31  49  69  94 122 151 185 223 263
#
# _framework density 16.813206999999998
#
# number of rings (size 3 to 8) (size 9 to 14) (size 15 to 20)
#    0.000    2.769    0.769    3.231    0.000    2.154 
#    0.000    1.538    0.000    4.154    0.000    6.462 
#    0.000    0.000    0.000    0.000    0.000    0.000 
#
# Total GULP energy -644432.808047 kJ/mol
# GULP energy per Si atom -12392.938616 kJ/mol
# Density = 1.677494 g / cm^3
# Si number density = 16.813207 Si / 1000 Ang^3
#
#
#
# Elastic Constant Matrix: (Units=GPa)
#
#
# Indices 1 2 3 4 5 6 
#
# 1 43.5026 38.5009 28.8395 0.0000 0.0000 0.0000
# 2 38.5009 159.9186 77.9959 0.0000 0.0000 0.0000
# 3 28.8395 77.9959 95.5421 -0.0001 0.0000 0.0000
# 4 0.0000 0.0000 -0.0001 16.2555 0.0000 0.0000
# 5 0.0000 0.0000 0.0000 0.0000 22.3397 0.0000
# 6 0.0000 0.0000 0.0000 0.0000 0.0000 19.9038
#
#
#
# Elastic Compliance Matrix: (Units=1/GPa)
#
#
# Indices 1 2 3 4 5 6 
#
# 1 0.030795 -0.004786 -0.005389 0.000000 0.000000 0.000000
# 2 -0.004786 0.011134 -0.007644 0.000000 0.000000 0.000000
# 3 -0.005389 -0.007644 0.018334 0.000000 0.000000 0.000000
# 4 0.000000 0.000000 0.000000 0.061518 0.000000 0.000000
# 5 0.000000 0.000000 0.000000 0.000000 0.044763 0.000000
# 6 0.000000 0.000000 0.000000 0.000000 0.000000 0.050242
#
#
# Mechanical properties :
#
#
# Convention : Reuss Voigt Hill
#
# Bulk Modulus (GPa) = 40.60957 65.51508 53.06232
# Shear Modulus (GPa) = 19.18419 21.94159 20.56289
#
# Velocity S-wave (km/s) = 3.38156 3.61643 3.50096
# Velocity P-wave (km/s) = 6.28112 7.51592 6.92609
#
# Compressibility (1/GPa) = 0.02462474
#
# Stress axis : x y z
#
# Youngs Moduli (GPa) = 32.47271 89.81694 54.54442
#
# Poissons Ratio (x) = 0.42985 0.29392
# Poissons Ratio (y) = 0.15541 0.41696
# Poissons Ratio (z) = 0.17498 0.68660
#
# Static dielectric constant tensor:
#      x y z
#    x 3.015540 0.000000 0.000000 
#    y 0.000000 3.912820 0.000000 
#    z 0.000000 0.000000 3.032390 
# 
# 
# High freq. dielectric constant tensor:
#      x y z
#    x 1.636930 0.000000 0.000000 
#    y 0.000000 1.656610 0.000000 
#    z 0.000000 0.000000 1.621440 
# 
# From -- ./inp_files/57852.got.cif
#   From: 2010.03.12/outbox.cif.g09.slc.cpg/sg74_29_cif.got.tgz:57852.got - 2010.04.16 15:46:19.
