data_PCOD8297779
_publ_section_title
;
Structure prediction by ZEFSAII (Michael W. Deem and Ramdas Pophale) SiO2 
 PCOD8297779
Probable space group: I M M A
;
_chemical_formula_sum "Si O2"
_cell_formula_units_Z 60
_cell_length_a 25.148597
_cell_length_b 13.895159
_cell_length_c 9.081767
_cell_angle_alpha 90.000000
_cell_angle_beta 90.000000
_cell_angle_gamma 90.000000
_cell_volume 3173.566753
_symmetry_space_group_name_H-M "I M M A"
_symmetry_group_IT_number 74
_symmetry_cell_setting 'orthorhombic'
loop_
_space_group_symop_operation_xyz
x,y,z
-x,1/2-y,z
x,-y,-z
-x,1/2+y,-z
-x,-y,-z
x,1/2+y,-z
-x,y,z
x,1/2-y,z
1/2+x,1/2+y,1/2+z
1/2-x,-y,1/2+z
1/2+x,1/2-y,1/2-z
1/2-x,y,1/2-z
1/2-x,1/2-y,1/2-z
1/2+x,y,1/2-z
1/2-x,1/2+y,1/2+z
1/2+x,-y,1/2+z
loop_
_atom_site_type_symbol
_atom_site_label
_atom_site_fract_x
_atom_site_fract_y
_atom_site_fract_z
Si Si1 0.697082 0.454353 0.344673
Si Si2 0.000000 0.750000 0.626797
Si Si3 0.313062 0.750000 0.736746
Si Si4 0.887503 0.750000 0.475532
Si Si5 0.500000 0.030124 0.170967
Si Si6 0.890388 0.549326 0.342700
O O1 0.711979 0.500000 0.500000
O O2 0.750000 0.450234 0.250000
O O3 0.671602 0.346525 0.353722
O O4 0.654937 0.522799 0.269975
O O5 0.052987 0.750000 0.533834
O O6 0.000000 0.645608 0.710042
O O7 0.250000 0.750000 0.750000
O O8 0.343447 0.750000 0.894600
O O9 0.882284 0.661442 0.366360
O O10 0.446402 0.981380 0.234218
O O11 0.500000 0.000000 0.000000
O O12 0.882801 0.500000 0.500000
#
# Coordination Sequence:
#
# PCOD8297779 Si02
#       6
#    16   4   8   8   8  16
#     4  11  24  41  61  83 117 155 200 245 297 353
#     4  12  16  28  54  92 116 154 194 244 286 346
#     4  10  22  37  59  83 115 155 195 239 298 347
#     4  12  20  33  62  90 121 152 199 247 291 353
#     4  10  18  30  55  88 123 148 199 236 293 344
#     4  11  20  36  58  89 117 154 194 245 292 345
#
# _framework density 18.906172000000002
#
# number of rings (size 3 to 8) (size 9 to 14) (size 15 to 20)
#    0.000    1.067    8.000    0.800    3.733    1.067 
#    0.000    2.000    0.000    0.000    0.000    0.000 
#    0.000    0.000    0.000    0.000    0.000    0.000 
#
# Total GULP energy -371709.109782 kJ/mol
# GULP energy per Si atom -12390.303659 kJ/mol
# Density = 1.886314 g / cm^3
# Si number density = 18.906172 Si / 1000 Ang^3
#
#
#
# Elastic Constant Matrix: (Units=GPa)
#
#
# Indices 1 2 3 4 5 6 
#
# 1 121.0891 44.6054 37.4906 0.0000 0.0000 0.0000
# 2 44.6054 204.6459 52.6947 0.0000 0.0000 0.0000
# 3 37.4906 52.6947 71.2926 0.0000 0.0000 0.0000
# 4 0.0000 0.0000 0.0000 -234.0243 0.0000 0.0000
# 5 0.0000 0.0000 0.0000 0.0000 10.3530 0.0000
# 6 0.0000 0.0000 0.0000 0.0000 0.0000 35.9645
#
#
#
# Elastic Compliance Matrix: (Units=1/GPa)
#
#
# Indices 1 2 3 4 5 6 
#
# 1 0.010035 -0.001023 -0.004521 0.000000 0.000000 0.000000
# 2 -0.001023 0.006139 -0.004000 0.000000 0.000000 0.000000
# 3 -0.004521 -0.004000 0.019360 0.000000 0.000000 0.000000
# 4 0.000000 0.000000 0.000000 -0.004273 0.000000 0.000000
# 5 0.000000 0.000000 0.000000 0.000000 0.096591 0.000000
# 6 0.000000 0.000000 0.000000 0.000000 0.000000 0.027805
#
#
# Mechanical properties :
#
#
# Convention : Reuss Voigt Hill
#
# Bulk Modulus (GPa) = 60.80041 74.06768 67.43404
# Shear Modulus (GPa) = 27.74269 -20.05890 3.84190
#
# Velocity S-wave (km/s) = 3.83481 -3.26079 1.42706
# Velocity P-wave (km/s) = 7.19976 5.00844 6.20165
#
# Compressibility (1/GPa) = 0.01644726
#
# Stress axis : x y z
#
# Youngs Moduli (GPa) = 99.65126 162.88183 51.65168
#
# Poissons Ratio (x) = 0.16666 0.23351
# Poissons Ratio (y) = 0.10196 0.20660
# Poissons Ratio (z) = 0.45051 0.65149
#
# Static dielectric constant tensor:
#      x y z
#    x 4.052770 0.000000 0.000000 
#    y 0.000000 4.426620 0.000000 
#    z 0.000000 0.000000 3.023820 
# 
# 
# High freq. dielectric constant tensor:
#      x y z
#    x 1.754910 0.000000 0.000000 
#    y 0.000000 1.763260 0.000000 
#    z 0.000000 0.000000 1.673740 
# 
# From -- ./inp_files/8723.got.cif
#   From: 2010.03.12/outbox.cif.g09.slc.cpg/sg74_5_cif.got.tgz:8723.got - 2010.04.16 15:46:19.
