data_PCOD8297787
_publ_section_title
;
Structure prediction by ZEFSAII (Michael W. Deem and Ramdas Pophale) SiO2 
 PCOD8297787
Probable space group: I M M A
;
_chemical_formula_sum "Si O2"
_cell_formula_units_Z 104
_cell_length_a 30.990431
_cell_length_b 13.186712
_cell_length_c 15.428303
_cell_angle_alpha 90.000000
_cell_angle_beta 90.000000
_cell_angle_gamma 90.000000
_cell_volume 6304.959438
_symmetry_space_group_name_H-M "I M M A"
_symmetry_group_IT_number 74
_symmetry_cell_setting 'orthorhombic'
loop_
_space_group_symop_operation_xyz
x,y,z
-x,1/2-y,z
x,-y,-z
-x,1/2+y,-z
-x,-y,-z
x,1/2+y,-z
-x,y,z
x,1/2-y,z
1/2+x,1/2+y,1/2+z
1/2-x,-y,1/2+z
1/2+x,1/2-y,1/2-z
1/2-x,y,1/2-z
1/2-x,1/2-y,1/2-z
1/2+x,y,1/2-z
1/2-x,1/2+y,1/2+z
1/2+x,-y,1/2+z
loop_
_atom_site_type_symbol
_atom_site_label
_atom_site_fract_x
_atom_site_fract_y
_atom_site_fract_z
Si Si1 0.897634 0.000000 0.500000
Si Si2 0.799186 0.635927 0.222361
Si Si3 0.616511 0.868196 0.734452
Si Si4 0.669387 0.507669 0.859744
Si Si5 0.751780 0.133375 0.352609
Si Si6 0.548683 0.630938 0.873070
Si Si7 0.168965 0.026855 0.097007
O O1 0.864454 0.961195 0.427401
O O2 0.927655 0.085559 0.457521
O O3 0.814216 0.750000 0.205283
O O4 0.750000 0.628795 0.250000
O O5 0.826103 0.590562 0.300924
O O6 0.809442 0.574158 0.135683
O O7 0.619136 0.750000 0.710530
O O8 0.652567 0.894945 0.805662
O O9 0.570898 0.896662 0.780505
O O10 0.625864 0.934970 0.648137
O O11 0.714029 0.555116 0.897450
O O12 0.764751 0.250000 0.369395
O O13 0.750000 0.107673 0.250000
O O14 0.705148 0.114817 0.396221
O O15 0.500000 0.589015 0.868651
O O16 0.550015 0.750000 0.887858
O O17 0.154714 0.000000 0.000000
#
# Coordination Sequence:
#
# PCOD8297787 Si02
#       7
#     8  16  16  16  16  16  16
#     4  10  21  30  50  74 112 132 160 202 249 294
#     4  10  19  33  46  58  88 134 174 207 245 287
#     4   9  17  32  52  72  94 124 160 204 255 297
#     4  10  18  31  45  68  96 133 171 209 237 287
#     4  11  19  31  51  67  89 130 176 217 252 281
#     4   9  18  34  56  80 103 128 161 201 252 314
#     4  11  21  32  47  69  98 125 169 215 255 292
#
# _framework density 16.494951
#
# number of rings (size 3 to 8) (size 9 to 14) (size 15 to 20)
#    0.000    2.000    4.615    1.154    1.077    2.462 
#    0.000    1.538    0.000    0.462    0.000    0.000 
#    0.000    0.000    0.000    0.000    0.000    0.000 
#
# Total GULP energy -644375.943607 kJ/mol
# GULP energy per Si atom -12391.845069 kJ/mol
# Density = 1.645741 g / cm^3
# Si number density = 16.494951 Si / 1000 Ang^3
#
#
#
# Elastic Constant Matrix: (Units=GPa)
#
#
# Indices 1 2 3 4 5 6 
#
# 1 95.7662 32.4680 47.9040 0.0000 0.0000 0.0000
# 2 32.4680 86.4227 38.2908 0.0000 0.0000 0.0000
# 3 47.9040 38.2908 106.4082 0.0000 0.0000 0.0000
# 4 0.0000 0.0000 0.0000 16.8957 0.0000 0.0000
# 5 0.0000 0.0000 0.0000 0.0000 24.2603 0.0000
# 6 0.0000 0.0000 0.0000 0.0000 0.0000 19.8730
#
#
#
# Elastic Compliance Matrix: (Units=1/GPa)
#
#
# Indices 1 2 3 4 5 6 
#
# 1 0.014083 -0.002953 -0.005278 0.000000 0.000000 0.000000
# 2 -0.002953 0.014385 -0.003847 0.000000 0.000000 0.000000
# 3 -0.005278 -0.003847 0.013158 0.000000 0.000000 0.000000
# 4 0.000000 0.000000 0.000000 0.059187 0.000000 0.000000
# 5 0.000000 0.000000 0.000000 0.000000 0.041220 0.000000
# 6 0.000000 0.000000 0.000000 0.000000 0.000000 0.050320
#
#
# Mechanical properties :
#
#
# Convention : Reuss Voigt Hill
#
# Bulk Modulus (GPa) = 57.23642 58.43588 57.83615
# Shear Modulus (GPa) = 22.48907 23.53474 23.01191
#
# Velocity S-wave (km/s) = 3.69642 3.78138 3.73914
# Velocity P-wave (km/s) = 7.27961 7.38705 7.33353
#
# Compressibility (1/GPa) = 0.01747139
#
# Stress axis : x y z
#
# Youngs Moduli (GPa) = 71.00727 69.51781 75.99886
#
# Poissons Ratio (x) = 0.20525 0.40109
# Poissons Ratio (y) = 0.20965 0.29238
# Poissons Ratio (z) = 0.37475 0.26745
#
# Static dielectric constant tensor:
#      x y z
#    x 3.303570 0.000000 0.000000 
#    y 0.000000 3.107480 0.000000 
#    z 0.000000 0.000000 18.235890 
# 
# 
# High freq. dielectric constant tensor:
#      x y z
#    x 1.618780 0.000000 0.000000 
#    y 0.000000 1.632020 0.000000 
#    z 0.000000 0.000000 1.617140 
# 
# From -- ./inp_files/37924.got.cif
#   From: 2010.03.12/outbox.cif.g09.slc.cpg/sg74_19_cif.got.tgz:37924.got - 2010.04.16 15:46:19.
