data_PCOD8297052
_publ_section_title
;
Structure prediction by ZEFSAII (Michael W. Deem and Ramdas Pophale) SiO2 
 PCOD8297052
Probable space group: I B C A 
;
_chemical_formula_sum "Si O2"
_cell_formula_units_Z 72
_cell_length_a 9.817749
_cell_length_b 24.280744
_cell_length_c 13.164513
_cell_angle_alpha 90.000000
_cell_angle_beta 90.000000
_cell_angle_gamma 90.000000
_cell_volume 3138.186231
_symmetry_space_group_name_H-M "I B C A "
_symmetry_group_IT_number 73
_symmetry_cell_setting 'orthorhombic'
loop_
_space_group_symop_operation_xyz
x,y,z
-x,1/2-y,z
x,-y,1/2-z
1/2-x,y,-z
-x,-y,-z
x,1/2+y,-z
-x,y,1/2+z
1/2+x,-y,z
1/2+x,1/2+y,1/2+z
1/2-x,-y,1/2+z
1/2+x,1/2-y,-z
-x,1/2+y,1/2-z
1/2-x,1/2-y,1/2-z
1/2+x,y,1/2-z
1/2-x,1/2+y,z
x,1/2-y,1/2+z
loop_
_atom_site_type_symbol
_atom_site_label
_atom_site_fract_x
_atom_site_fract_y
_atom_site_fract_z
Si Si1 0.772337 0.851531 0.786446
Si Si2 0.832641 0.547532 0.819928
Si Si3 0.250000 0.479326 0.500000
Si Si4 0.045623 0.609876 0.955057
Si Si5 0.490747 0.812049 0.865062
O O1 0.764042 0.914819 0.749695
O O2 0.842677 0.852837 0.897133
O O3 0.623290 0.825575 0.797951
O O4 0.858193 0.816134 0.706153
O O5 0.901657 0.500000 0.750000
O O6 0.736596 0.518524 0.902764
O O7 0.941247 0.587487 0.871954
O O8 0.115342 0.441925 0.488905
O O9 0.972220 0.647128 0.039505
O O10 0.500000 0.750000 0.906721
#
# Coordination Sequence:
#
# PCOD8297052 Si02
#       5
#    16  16   8  16  16
#     4  12  25  50  73 110 145 182 249 299 347 448
#     4  12  25  42  72 105 144 195 229 288 364 426
#     4  12  24  42  70 104 148 196 232 298 360 428
#     4  12  25  47  69 108 150 181 250 298 348 441
#     4  12  27  51  77 102 142 192 239 307 368 408
#
# _framework density 22.943190000000001
#
# number of rings (size 3 to 8) (size 9 to 14) (size 15 to 20)
#    0.000    0.000    6.667    2.667    3.111    0.889 
#    8.000    0.000    0.000    0.000    0.000    0.000 
#    0.000    0.000    0.000    0.000    0.000    0.000 
#
# Total GULP energy -446630.677283 kJ/mol
# GULP energy per Si atom -12406.407702 kJ/mol
# Density = 2.289097 g / cm^3
# Si number density = 22.943190 Si / 1000 Ang^3
#
#
#
# Elastic Constant Matrix: (Units=GPa)
#
#
# Indices 1 2 3 4 5 6 
#
# 1 74.3744 26.8159 33.7591 0.0000 0.0000 0.0000
# 2 26.8159 129.3910 46.6888 0.0000 0.0000 0.0000
# 3 33.7591 46.6888 116.8238 0.0002 -0.0003 0.0001
# 4 0.0000 0.0000 0.0002 38.4760 0.0000 0.0000
# 5 0.0000 0.0000 -0.0003 0.0000 29.8409 0.0000
# 6 0.0000 0.0000 0.0001 0.0000 0.0000 20.8811
#
#
#
# Elastic Compliance Matrix: (Units=1/GPa)
#
#
# Indices 1 2 3 4 5 6 
#
# 1 0.015869 -0.001909 -0.003823 0.000000 0.000000 0.000000
# 2 -0.001909 0.009261 -0.003149 0.000000 0.000000 0.000000
# 3 -0.003823 -0.003149 0.010923 0.000000 0.000000 0.000000
# 4 0.000000 0.000000 0.000000 0.025990 0.000000 0.000000
# 5 0.000000 0.000000 0.000000 0.000000 0.033511 0.000000
# 6 0.000000 0.000000 0.000000 0.000000 0.000000 0.047890
#
#
# Mechanical properties :
#
#
# Convention : Reuss Voigt Hill
#
# Bulk Modulus (GPa) = 54.67427 59.45743 57.06585
# Shear Modulus (GPa) = 29.88577 32.06129 30.97353
#
# Velocity S-wave (km/s) = 3.61307 3.74226 3.67823
# Velocity P-wave (km/s) = 6.42555 6.68162 6.55484
#
# Compressibility (1/GPa) = 0.01829014
#
# Stress axis : x y z
#
# Youngs Moduli (GPa) = 63.01563 107.98446 91.54880
#
# Poissons Ratio (x) = 0.20619 0.34996
# Poissons Ratio (y) = 0.12033 0.28831
# Poissons Ratio (z) = 0.24089 0.34007
#
# Static dielectric constant tensor:
#      x y z
#    x 4.009850 0.000000 0.000000 
#    y 0.000000 4.117840 0.000000 
#    z 0.000000 0.000000 4.202820 
# 
# 
# High freq. dielectric constant tensor:
#      x y z
#    x 1.896020 0.000000 0.000000 
#    y 0.000000 1.905410 0.000000 
#    z 0.000000 0.000000 1.920730 
# 
# From -- ./inp_files/10617.got.cif
#   From: 2010.03.12/outbox.cif.g09.slc.cpg/sg73_6_cif.got.tgz:10617.got - 2010.04.16 15:25:48.
