data_PCOD8297322
_publ_section_title
;
Structure prediction by ZEFSAII (Michael W. Deem and Ramdas Pophale) SiO2 
 PCOD8297322
Probable space group: I M M A
;
_chemical_formula_sum "Si O2"
_cell_formula_units_Z 120
_cell_length_a 23.173228
_cell_length_b 14.709920
_cell_length_c 20.053582
_cell_angle_alpha 90.000000
_cell_angle_beta 90.000000
_cell_angle_gamma 90.000000
_cell_volume 6835.791436
_symmetry_space_group_name_H-M "I M M A"
_symmetry_group_IT_number 74
_symmetry_cell_setting 'orthorhombic'
loop_
_space_group_symop_operation_xyz
x,y,z
-x,1/2-y,z
x,-y,-z
-x,1/2+y,-z
-x,-y,-z
x,1/2+y,-z
-x,y,z
x,1/2-y,z
1/2+x,1/2+y,1/2+z
1/2-x,-y,1/2+z
1/2+x,1/2-y,1/2-z
1/2-x,y,1/2-z
1/2-x,1/2-y,1/2-z
1/2+x,y,1/2-z
1/2-x,1/2+y,1/2+z
1/2+x,-y,1/2+z
loop_
_atom_site_type_symbol
_atom_site_label
_atom_site_fract_x
_atom_site_fract_y
_atom_site_fract_z
Si Si1 0.757887 0.648020 0.627960
Si Si2 0.840292 0.916237 0.050284
Si Si3 0.935998 0.147339 0.040903
Si Si4 0.716960 0.850769 0.024228
Si Si5 0.432361 0.646958 0.915110
Si Si6 0.136330 0.500000 0.500000
Si Si7 0.638111 0.946426 0.649029
Si Si8 0.634304 0.645285 0.784815
O O1 0.738292 0.750000 0.642624
O O2 0.786560 0.639538 0.555711
O O3 0.700825 0.590514 0.631498
O O4 0.804854 0.617297 0.682216
O O5 0.781879 0.857937 0.051989
O O6 0.856288 0.948076 0.125977
O O7 0.894440 0.859119 0.023259
O O8 0.830048 0.000000 0.000000
O O9 0.939601 0.250000 0.064427
O O10 0.912420 0.094027 0.104208
O O11 0.000000 0.110410 0.022428
O O12 0.694434 0.750000 0.045529
O O13 0.676040 0.934499 0.048384
O O14 0.500000 0.636075 0.924238
O O15 0.412669 0.750000 0.936761
O O16 0.416955 0.633217 0.837573
O O17 0.402901 0.568319 0.957920
O O18 0.622681 0.926653 0.725566
O O19 0.636343 0.750000 0.758761
#
# Coordination Sequence:
#
# PCOD8297322 Si02
#       8
#    16  16  16  16  16   8  16  16
#     4  10  17  29  48  72 102 135 168 204 252 312
#     4  10  19  31  47  73 107 138 173 221 267 309
#     4  10  20  33  49  69  97 137 182 224 264 307
#     4  11  19  31  54  80 109 139 171 217 271 322
#     4  10  22  38  55  79 112 145 176 215 263 319
#     4  12  19  34  56  84 107 136 178 222 266 318
#     4  11  20  30  48  74 104 139 174 216 257 315
#     4  10  20  33  50  74 107 145 174 206 259 324
#
# _framework density 17.554662
#
# number of rings (size 3 to 8) (size 9 to 14) (size 15 to 20)
#    0.000    1.600    4.667    2.600    0.000    4.000 
#    0.000    1.333    0.000    0.000    0.000    4.667 
#    0.000    2.133    0.000    0.000    0.000    0.000 
#
# Total GULP energy -743512.217717 kJ/mol
# GULP energy per Si atom -12391.870295 kJ/mol
# Density = 1.751471 g / cm^3
# Si number density = 17.554662 Si / 1000 Ang^3
#
#
#
# Elastic Constant Matrix: (Units=GPa)
#
#
# Indices 1 2 3 4 5 6 
#
# 1 105.7366 44.1041 28.5338 0.0000 0.0000 0.0000
# 2 44.1041 93.5621 36.1978 0.0000 0.0000 0.0000
# 3 28.5338 36.1978 79.4640 0.0000 0.0000 0.0000
# 4 0.0000 0.0000 0.0000 27.8045 0.0000 0.0000
# 5 0.0000 0.0000 0.0000 0.0000 16.4675 0.0000
# 6 0.0000 0.0000 0.0000 0.0000 0.0000 21.7865
#
#
#
# Elastic Compliance Matrix: (Units=1/GPa)
#
#
# Indices 1 2 3 4 5 6 
#
# 1 0.012057 -0.004866 -0.002113 0.000000 0.000000 0.000000
# 2 -0.004866 0.014939 -0.005058 0.000000 0.000000 0.000000
# 3 -0.002113 -0.005058 0.015647 0.000000 0.000000 0.000000
# 4 0.000000 0.000000 0.000000 0.035965 0.000000 0.000000
# 5 0.000000 0.000000 0.000000 0.000000 0.060725 0.000000
# 6 0.000000 0.000000 0.000000 0.000000 0.000000 0.045900
#
#
# Mechanical properties :
#
#
# Convention : Reuss Voigt Hill
#
# Bulk Modulus (GPa) = 53.85160 55.15934 54.50547
# Shear Modulus (GPa) = 23.20216 24.54017 23.87117
#
# Velocity S-wave (km/s) = 3.63948 3.74295 3.69157
# Velocity P-wave (km/s) = 6.95731 7.08302 7.02045
#
# Compressibility (1/GPa) = 0.01856955
#
# Stress axis : x y z
#
# Youngs Moduli (GPa) = 82.93649 66.94020 63.91068
#
# Poissons Ratio (x) = 0.32575 0.13503
# Poissons Ratio (y) = 0.40359 0.32323
# Poissons Ratio (z) = 0.17523 0.33856
#
# Static dielectric constant tensor:
#      x y z
#    x 3.416500 0.000000 0.000000 
#    y 0.000000 3.411580 0.000000 
#    z 0.000000 0.000000 3.142340 
# 
# 
# High freq. dielectric constant tensor:
#      x y z
#    x 1.691440 0.000000 0.000000 
#    y 0.000000 1.667540 0.000000 
#    z 0.000000 0.000000 1.637860 
# 
# From -- ./inp_files/54821.got.cif
#   From: 2010.03.12/outbox.cif.g09.slc.cpg/sg74_28_cif.got.tgz:54821.got - 2010.04.16 15:46:19.
