data_PCOD8297178
_publ_section_title
;
Structure prediction by ZEFSAII (Michael W. Deem and Ramdas Pophale) SiO2 
 PCOD8297178
Probable space group: I M M A
;
_chemical_formula_sum "Si O2"
_cell_formula_units_Z 88
_cell_length_a 9.359689
_cell_length_b 19.950368
_cell_length_c 24.887799
_cell_angle_alpha 90.000000
_cell_angle_beta 90.000000
_cell_angle_gamma 90.000000
_cell_volume 4647.279790
_symmetry_space_group_name_H-M "I M M A"
_symmetry_group_IT_number 74
_symmetry_cell_setting 'orthorhombic'
loop_
_space_group_symop_operation_xyz
x,y,z
-x,1/2-y,z
x,-y,-z
-x,1/2+y,-z
-x,-y,-z
x,1/2+y,-z
-x,y,z
x,1/2-y,z
1/2+x,1/2+y,1/2+z
1/2-x,-y,1/2+z
1/2+x,1/2-y,1/2-z
1/2-x,y,1/2-z
1/2-x,1/2-y,1/2-z
1/2+x,y,1/2-z
1/2-x,1/2+y,1/2+z
1/2+x,-y,1/2+z
loop_
_atom_site_type_symbol
_atom_site_label
_atom_site_fract_x
_atom_site_fract_y
_atom_site_fract_z
Si Si1 0.668002 0.175829 0.415212
Si Si2 0.829588 0.443411 0.697274
Si Si3 0.750064 0.500000 0.000000
Si Si4 0.341531 0.639790 0.470613
Si Si5 0.332948 0.673136 0.355058
Si Si6 0.341331 0.552973 0.889489
O O1 0.500000 0.159931 0.415489
O O2 0.700004 0.250000 0.391650
O O3 0.730233 0.172390 0.476350
O O4 0.742710 0.118339 0.379958
O O5 0.750000 0.471553 0.750000
O O6 0.762445 0.370698 0.685015
O O7 0.788405 0.493646 0.649145
O O8 0.000000 0.437207 0.705793
O O9 0.847516 0.559384 0.023223
O O10 0.654917 0.472378 0.048979
O O11 0.500000 0.669119 0.466811
O O12 0.266869 0.661980 0.415133
O O13 0.500000 0.651127 0.352099
O O14 0.314498 0.750000 0.337858
O O15 0.500000 0.574891 0.873177
#
# Coordination Sequence:
#
# PCOD8297178 Si02
#       6
#    16  16   8  16  16  16
#     4   9  18  32  52  81 116 151 184 218 261 322
#     4  11  24  42  60  81 107 142 187 234 278 326
#     4  10  16  30  52  80 113 144 179 222 273 328
#     4   9  16  27  48  79 114 148 184 223 265 316
#     4  10  20  35  56  81 110 146 187 231 277 323
#     4  10  21  35  55  82 112 144 179 224 277 330
#
# _framework density 18.935808000000002
#
# number of rings (size 3 to 8) (size 9 to 14) (size 15 to 20)
#    0.000    2.182    1.818    1.636    0.000    5.455 
#    0.000    0.000    0.000    2.727    0.000    0.000 
#    0.000    0.000    0.000    0.000    0.000    0.000 
#
# Total GULP energy -545358.533978 kJ/mol
# GULP energy per Si atom -12394.512136 kJ/mol
# Density = 1.889271 g / cm^3
# Si number density = 18.935808 Si / 1000 Ang^3
#
#
#
# Elastic Constant Matrix: (Units=GPa)
#
#
# Indices 1 2 3 4 5 6 
#
# 1 75.6931 48.0602 35.1621 0.0000 0.0000 0.0000
# 2 48.0602 129.4031 36.9707 0.0000 0.0000 0.0000
# 3 35.1621 36.9707 78.9110 0.0000 0.0000 0.0000
# 4 0.0000 0.0000 0.0000 20.9533 0.0000 0.0000
# 5 0.0000 0.0000 0.0000 0.0000 23.1077 0.0000
# 6 0.0000 0.0000 0.0000 0.0000 0.0000 28.0428
#
#
#
# Elastic Compliance Matrix: (Units=1/GPa)
#
#
# Indices 1 2 3 4 5 6 
#
# 1 0.019560 -0.005512 -0.006133 0.000000 0.000000 0.000000
# 2 -0.005512 0.010476 -0.002452 0.000000 0.000000 0.000000
# 3 -0.006133 -0.002452 0.016554 0.000000 0.000000 0.000000
# 4 0.000000 0.000000 0.000000 0.047725 0.000000 0.000000
# 5 0.000000 0.000000 0.000000 0.000000 0.043276 0.000000
# 6 0.000000 0.000000 0.000000 0.000000 0.000000 0.035660
#
#
# Mechanical properties :
#
#
# Convention : Reuss Voigt Hill
#
# Bulk Modulus (GPa) = 54.36175 58.26593 56.31384
# Shear Modulus (GPa) = 24.08742 25.34170 24.71456
#
# Velocity S-wave (km/s) = 3.57046 3.66224 3.61664
# Velocity P-wave (km/s) = 6.76523 6.97995 6.87343
#
# Compressibility (1/GPa) = 0.01839529
#
# Stress axis : x y z
#
# Youngs Moduli (GPa) = 51.12368 95.46058 60.40807
#
# Poissons Ratio (x) = 0.52622 0.37050
# Poissons Ratio (y) = 0.28182 0.14810
# Poissons Ratio (z) = 0.31356 0.23403
#
# Static dielectric constant tensor:
#      x y z
#    x 3.184810 0.000000 0.000000 
#    y 0.000000 3.484780 0.000000 
#    z 0.000000 0.000000 3.392990 
# 
# 
# High freq. dielectric constant tensor:
#      x y z
#    x 1.711190 0.000000 0.000000 
#    y 0.000000 1.740230 0.000000 
#    z 0.000000 0.000000 1.714910 
# 
# From -- ./inp_files/56952.got.cif
#   From: 2010.03.12/outbox.cif.g09.slc.cpg/sg74_29_cif.got.tgz:56952.got - 2010.04.16 15:46:19.
