data_PCOD8297283
_publ_section_title
;
Structure prediction by ZEFSAII (Michael W. Deem and Ramdas Pophale) SiO2 
 PCOD8297283
Probable space group: I M M A
;
_chemical_formula_sum "Si O2"
_cell_formula_units_Z 112
_cell_length_a 17.008311
_cell_length_b 28.308571
_cell_length_c 13.746081
_cell_angle_alpha 90.000000
_cell_angle_beta 90.000000
_cell_angle_gamma 90.000000
_cell_volume 6618.476545
_symmetry_space_group_name_H-M "I M M A"
_symmetry_group_IT_number 74
_symmetry_cell_setting 'orthorhombic'
loop_
_space_group_symop_operation_xyz
x,y,z
-x,1/2-y,z
x,-y,-z
-x,1/2+y,-z
-x,-y,-z
x,1/2+y,-z
-x,y,z
x,1/2-y,z
1/2+x,1/2+y,1/2+z
1/2-x,-y,1/2+z
1/2+x,1/2-y,1/2-z
1/2-x,y,1/2-z
1/2-x,1/2-y,1/2-z
1/2+x,y,1/2-z
1/2-x,1/2+y,1/2+z
1/2+x,-y,1/2+z
loop_
_atom_site_type_symbol
_atom_site_label
_atom_site_fract_x
_atom_site_fract_y
_atom_site_fract_z
Si Si1 0.172612 0.482405 0.393164
Si Si2 0.911715 0.964117 0.228526
Si Si3 0.592446 0.898230 0.435302
Si Si4 0.592983 0.199217 0.260655
Si Si5 0.593345 0.301700 0.479853
Si Si6 0.906862 0.600142 0.707494
Si Si7 0.148955 0.546236 0.885570
O O1 0.151957 0.500000 0.500000
O O2 0.146235 0.522826 0.316668
O O3 0.125804 0.433237 0.377569
O O4 0.263626 0.473775 0.376499
O O5 0.889194 0.914357 0.175893
O O6 0.000000 0.961615 0.270469
O O7 0.909340 0.003817 0.143874
O O8 0.500000 0.901242 0.457726
O O9 0.624536 0.844781 0.452293
O O10 0.635723 0.935113 0.506253
O O11 0.500000 0.201572 0.267779
O O12 0.624823 0.250000 0.220088
O O13 0.625200 0.190995 0.370078
O O14 0.616302 0.155417 0.190082
O O15 0.500000 0.302897 0.480184
O O16 0.622006 0.250000 0.519005
O O17 0.865541 0.588238 0.809637
O O18 0.000000 0.592929 0.715674
#
# Coordination Sequence:
#
# PCOD8297283 Si02
#       7
#    16  16  16  16  16  16  16
#     4  11  23  35  45  59  87 126 164 195 226 262
#     4  10  20  31  46  66  88 115 151 194 227 264
#     4  10  17  27  46  72  96 118 146 178 224 275
#     4   8  13  23  42  69  96 118 141 172 218 275
#     4   8  13  22  39  66  99 124 139 165 214 278
#     4  10  18  30  50  71  91 120 152 187 225 265
#     4  11  19  30  46  66  95 120 147 182 229 277
#
# _framework density 16.922324
#
# number of rings (size 3 to 8) (size 9 to 14) (size 15 to 20)
#    0.000    2.286    1.429    6.429    0.000    2.286 
#    0.000    0.000    0.000    2.571    0.000    1.000 
#    0.000   10.286    0.000    0.000    0.000    0.000 
#
# Total GULP energy -693792.378382 kJ/mol
# GULP energy per Si atom -12389.149614 kJ/mol
# Density = 1.688381 g / cm^3
# Si number density = 16.922324 Si / 1000 Ang^3
#
#
#
# Elastic Constant Matrix: (Units=GPa)
#
#
# Indices 1 2 3 4 5 6 
#
# 1 56.6090 19.0205 32.7572 0.0000 0.0000 0.0000
# 2 19.0205 91.8770 41.9665 0.0000 0.0000 0.0000
# 3 32.7572 41.9665 68.8232 0.0000 0.0001 0.0000
# 4 0.0000 0.0000 0.0000 22.0963 0.0000 0.0000
# 5 0.0000 0.0000 0.0001 0.0000 14.6847 0.0000
# 6 0.0000 0.0000 0.0000 0.0000 0.0000 3.8657
#
#
#
# Elastic Compliance Matrix: (Units=1/GPa)
#
#
# Indices 1 2 3 4 5 6 
#
# 1 0.024388 0.000351 -0.011822 0.000000 0.000000 0.000000
# 2 0.000351 0.015091 -0.009369 0.000000 0.000000 0.000000
# 3 -0.011822 -0.009369 0.025870 0.000000 0.000000 0.000000
# 4 0.000000 0.000000 0.000000 0.045256 0.000000 0.000000
# 5 0.000000 0.000000 0.000000 0.000000 0.068098 0.000000
# 6 0.000000 0.000000 0.000000 0.000000 0.000000 0.258682
#
#
# Mechanical properties :
#
#
# Convention : Reuss Voigt Hill
#
# Bulk Modulus (GPa) = 42.24966 44.97751 43.61359
# Shear Modulus (GPa) = 10.26790 16.36701 13.31746
#
# Velocity S-wave (km/s) = 2.46594 3.11333 2.80835
# Velocity P-wave (km/s) = 5.75576 6.28970 6.02864
#
# Compressibility (1/GPa) = 0.02366883
#
# Stress axis : x y z
#
# Youngs Moduli (GPa) = 41.00403 66.26476 38.65526
#
# Poissons Ratio (x) = -0.02326 0.45697
# Poissons Ratio (y) = -0.01439 0.36217
# Poissons Ratio (z) = 0.48474 0.62084
#
# Static dielectric constant tensor:
#      x y z
#    x 2.924720 0.000000 0.000000 
#    y 0.000000 3.730200 0.000000 
#    z 0.000000 0.000000 2.909970 
# 
# 
# High freq. dielectric constant tensor:
#      x y z
#    x 1.626140 0.000000 0.000000 
#    y 0.000000 1.660900 0.000000 
#    z 0.000000 0.000000 1.611810 
# 
# From -- ./inp_files/21132.got.cif
#   From: 2010.03.12/outbox.cif.g09.slc.cpg/sg74_11_cif.got.tgz:21132.got - 2010.04.16 15:46:19.
