data_PCOD8297189
_publ_section_title
;
Structure prediction by ZEFSAII (Michael W. Deem and Ramdas Pophale) SiO2 
 PCOD8297189
Probable space group: I M M A
;
_chemical_formula_sum "Si O2"
_cell_formula_units_Z 104
_cell_length_a 25.103405
_cell_length_b 24.120099
_cell_length_c 8.591909
_cell_angle_alpha 90.000000
_cell_angle_beta 90.000000
_cell_angle_gamma 90.000000
_cell_volume 5202.371806
_symmetry_space_group_name_H-M "I M M A"
_symmetry_group_IT_number 74
_symmetry_cell_setting 'orthorhombic'
loop_
_space_group_symop_operation_xyz
x,y,z
-x,1/2-y,z
x,-y,-z
-x,1/2+y,-z
-x,-y,-z
x,1/2+y,-z
-x,y,z
x,1/2-y,z
1/2+x,1/2+y,1/2+z
1/2-x,-y,1/2+z
1/2+x,1/2-y,1/2-z
1/2-x,y,1/2-z
1/2-x,1/2-y,1/2-z
1/2+x,y,1/2-z
1/2-x,1/2+y,1/2+z
1/2+x,-y,1/2+z
loop_
_atom_site_type_symbol
_atom_site_label
_atom_site_fract_x
_atom_site_fract_y
_atom_site_fract_z
Si Si1 0.892219 0.750000 0.530645
Si Si2 0.060858 0.134386 0.453085
Si Si3 0.650263 0.439897 0.928464
Si Si4 0.940039 0.131068 0.085967
Si Si5 0.938181 0.750000 0.859617
Si Si6 0.250291 0.869573 0.063884
Si Si7 0.349116 0.438788 0.562446
Si Si8 0.770928 0.250000 0.573719
O O1 0.921563 0.693745 0.475543
O O2 0.895120 0.750000 0.719339
O O3 0.834584 0.750000 0.449536
O O4 0.093068 0.084568 0.530146
O O5 0.070825 0.130241 0.269447
O O6 0.000000 0.124458 0.497751
O O7 0.696557 0.400212 0.996222
O O8 0.654271 0.443680 0.745237
O O9 0.657959 0.500000 0.000000
O O10 0.929948 0.195257 0.033893
O O11 0.000000 0.112527 0.047427
O O12 0.903652 0.088968 0.992152
O O13 0.000000 0.750000 0.791701
O O14 0.250000 0.867716 0.250000
O O15 0.199343 0.901771 0.996844
O O16 0.249004 0.806676 0.995373
O O17 0.343840 0.500000 0.500000
O O18 0.750000 0.250000 0.750000
#
# Coordination Sequence:
#
# PCOD8297189 Si02
#       8
#     8  16  16  16   8  16  16   8
#     4  10  16  32  61  87 116 154 190 231 285 356
#     4  10  20  36  60  89 118 152 192 238 291 347
#     4  11  22  38  60  83 115 152 197 248 289 336
#     4   9  19  37  60  86 118 154 193 238 292 349
#     4   8  16  33  60  88 119 159 196 237 291 352
#     4   9  20  37  57  84 115 153 189 231 290 349
#     4  11  23  39  59  83 112 157 202 239 289 350
#     4  10  18  33  59  88 120 151 184 225 296 350
#
# _framework density 19.990881000000002
#
# number of rings (size 3 to 8) (size 9 to 14) (size 15 to 20)
#    0.000    2.154    1.538    3.000    0.000    1.846 
#    0.000    3.846    0.000    3.692    0.000    0.000 
#    0.000    0.000    0.000    0.000    0.000    0.000 
#
# Total GULP energy -644583.145215 kJ/mol
# GULP energy per Si atom -12395.829716 kJ/mol
# Density = 1.994538 g / cm^3
# Si number density = 19.990881 Si / 1000 Ang^3
#
#
#
# Elastic Constant Matrix: (Units=GPa)
#
#
# Indices 1 2 3 4 5 6 
#
# 1 137.7972 83.4725 38.8057 0.0000 0.0000 0.0000
# 2 83.4725 200.3378 35.7622 0.0000 0.0000 0.0000
# 3 38.8057 35.7622 39.0461 0.0000 0.0000 0.0000
# 4 0.0000 0.0000 0.0000 -6.1922 0.0000 0.0000
# 5 0.0000 0.0000 0.0000 0.0000 18.5535 0.0000
# 6 0.0000 0.0000 0.0000 0.0000 0.0000 38.2975
#
#
#
# Elastic Compliance Matrix: (Units=1/GPa)
#
#
# Indices 1 2 3 4 5 6 
#
# 1 0.011693 -0.003344 -0.008558 0.000000 0.000000 0.000000
# 2 -0.003344 0.006924 -0.003018 0.000000 0.000000 0.000000
# 3 -0.008558 -0.003018 0.036880 0.000000 0.000000 0.000000
# 4 0.000000 0.000000 0.000000 -0.161493 0.000000 0.000000
# 5 0.000000 0.000000 0.000000 0.000000 0.053898 0.000000
# 6 0.000000 0.000000 0.000000 0.000000 0.000000 0.026111
#
#
# Mechanical properties :
#
#
# Convention : Reuss Voigt Hill
#
# Bulk Modulus (GPa) = 38.97613 77.02910 58.00262
# Shear Modulus (GPa) = 403.05140 24.74112 213.89626
#
# Velocity S-wave (km/s) = 14.21462 3.52180 10.35515
# Velocity P-wave (km/s) = 16.99842 7.42652 13.11677
#
# Compressibility (1/GPa) = 0.02565673
#
# Stress axis : x y z
#
# Youngs Moduli (GPa) = 85.52176 144.43187 27.11502
#
# Poissons Ratio (x) = 0.48302 0.23205
# Poissons Ratio (y) = 0.28601 0.08182
# Poissons Ratio (z) = 0.73189 0.43585
#
# Static dielectric constant tensor:
#      x y z
#    x 3.719140 0.000000 0.000000 
#    y 0.000000 3.837880 0.000000 
#    z 0.000000 0.000000 3.206230 
# 
# 
# High freq. dielectric constant tensor:
#      x y z
#    x 1.785770 0.000000 0.000000 
#    y 0.000000 1.802320 0.000000 
#    z 0.000000 0.000000 1.739810 
# 
# From -- ./inp_files/15254.got.cif
#   From: 2010.03.12/outbox.cif.g09.slc.cpg/sg74_8_cif.got.tgz:15254.got - 2010.04.16 15:46:19.
