data_PCOD8297100
_publ_section_title
;
Structure prediction by ZEFSAII (Michael W. Deem and Ramdas Pophale) SiO2 
 PCOD8297100
Probable space group: I M M A
;
_chemical_formula_sum "Si O2"
_cell_formula_units_Z 64
_cell_length_a 19.199908
_cell_length_b 17.594309
_cell_length_c 8.193549
_cell_angle_alpha 90.000000
_cell_angle_beta 90.000000
_cell_angle_gamma 90.000000
_cell_volume 2767.855529
_symmetry_space_group_name_H-M "I M M A"
_symmetry_group_IT_number 74
_symmetry_cell_setting 'orthorhombic'
loop_
_space_group_symop_operation_xyz
x,y,z
-x,1/2-y,z
x,-y,-z
-x,1/2+y,-z
-x,-y,-z
x,1/2+y,-z
-x,y,z
x,1/2-y,z
1/2+x,1/2+y,1/2+z
1/2-x,-y,1/2+z
1/2+x,1/2-y,1/2-z
1/2-x,y,1/2-z
1/2-x,1/2-y,1/2-z
1/2+x,y,1/2-z
1/2-x,1/2+y,1/2+z
1/2+x,-y,1/2+z
loop_
_atom_site_type_symbol
_atom_site_label
_atom_site_fract_x
_atom_site_fract_y
_atom_site_fract_z
Si Si1 0.000000 0.161357 0.239526
Si Si2 0.769974 0.162836 0.992912
Si Si3 0.850215 0.892055 0.691246
Si Si4 0.855407 0.453953 0.831620
Si Si5 0.500000 0.080166 0.589146
O O1 0.067909 0.124430 0.323495
O O2 0.000000 0.250000 0.273966
O O3 0.000000 0.146719 0.045669
O O4 0.772827 0.250000 0.938899
O O5 0.819494 0.149898 0.149457
O O6 0.690349 0.138967 0.032764
O O7 0.797554 0.112273 0.841416
O O8 0.837215 0.983472 0.694261
O O9 0.930741 0.414526 0.799315
O O10 0.858852 0.500000 0.000000
O O11 0.500000 0.000000 0.500000
#
# Coordination Sequence:
#
# PCOD8297100 Si02
#       5
#     8  16  16  16   8
#     4  12  18  24  42  66  94 123 146 184 237 280
#     4  10  18  28  42  67  94 117 154 197 230 272
#     4  10  18  28  41  65  94 124 152 183 233 283
#     4   9  16  27  43  60  90 126 148 181 231 285
#     4  10  14  26  38  58  91 118 150 174 226 289
#
# _framework density 23.122592999999998
#
# number of rings (size 3 to 8) (size 9 to 14) (size 15 to 20)
#    0.000    2.000    7.500    3.000    0.000    0.000 
#    0.000    0.000    0.000    0.000    0.000   58.625 
#    0.000    0.000    0.000    0.000    0.000    0.000 
#
# Total GULP energy -396727.347227 kJ/mol
# GULP energy per Si atom -12397.729601 kJ/mol
# Density = 2.306997 g / cm^3
# Si number density = 23.122593 Si / 1000 Ang^3
#
#
#
# Elastic Constant Matrix: (Units=GPa)
#
#
# Indices 1 2 3 4 5 6 
#
# 1 172.3987 81.1215 23.4662 0.0000 0.0000 0.0000
# 2 81.1215 201.9468 29.0460 0.0000 0.0000 0.0000
# 3 23.4662 29.0460 22.3424 0.0000 0.0000 0.0000
# 4 0.0000 0.0000 0.0000 11.7083 0.0000 0.0000
# 5 0.0000 0.0000 0.0000 0.0000 12.0522 0.0000
# 6 0.0000 0.0000 0.0000 0.0000 0.0000 23.7062
#
#
#
# Elastic Compliance Matrix: (Units=1/GPa)
#
#
# Indices 1 2 3 4 5 6 
#
# 1 0.007567 -0.002333 -0.004915 0.000000 0.000000 0.000000
# 2 -0.002333 0.006810 -0.006403 0.000000 0.000000 0.000000
# 3 -0.004915 -0.006403 0.058244 0.000000 0.000000 0.000000
# 4 0.000000 0.000000 0.000000 0.085410 0.000000 0.000000
# 5 0.000000 0.000000 0.000000 0.000000 0.082972 0.000000
# 6 0.000000 0.000000 0.000000 0.000000 0.000000 0.042183
#
#
# Mechanical properties :
#
#
# Convention : Reuss Voigt Hill
#
# Bulk Modulus (GPa) = 22.06548 73.77282 47.91915
# Shear Modulus (GPa) = 15.35655 27.03030 21.19343
#
# Velocity S-wave (km/s) = 2.57988 3.42277 3.03077
# Velocity P-wave (km/s) = 4.29394 6.89890 5.74599
#
# Compressibility (1/GPa) = 0.04531965
#
# Stress axis : x y z
#
# Youngs Moduli (GPa) = 132.14900 146.84722 17.16910
#
# Poissons Ratio (x) = 0.34256 0.08439
# Poissons Ratio (y) = 0.30828 0.10993
# Poissons Ratio (z) = 0.64953 0.94024
#
# Static dielectric constant tensor:
#      x y z
#    x 4.745620 0.000000 0.000000 
#    y 0.000000 4.233640 0.000000 
#    z 0.000000 0.000000 3.508990 
# 
# 
# High freq. dielectric constant tensor:
#      x y z
#    x 1.935870 0.000000 0.000000 
#    y 0.000000 1.909470 0.000000 
#    z 0.000000 0.000000 1.849390 
# 
# From -- ./inp_files/11866.got.cif
#   From: 2010.03.12/outbox.cif.g09.slc.cpg/sg74_6_cif.got.tgz:11866.got - 2010.04.16 15:46:19.
