data_PCOD8297083
_publ_section_title
;
Structure prediction by ZEFSAII (Michael W. Deem and Ramdas Pophale) SiO2 
 PCOD8297083
Probable space group: I B C A 
;
_chemical_formula_sum "Si O2"
_cell_formula_units_Z 56
_cell_length_a 9.705764
_cell_length_b 16.507191
_cell_length_c 13.649417
_cell_angle_alpha 90.000000
_cell_angle_beta 90.000000
_cell_angle_gamma 90.000000
_cell_volume 2186.839982
_symmetry_space_group_name_H-M "I B C A "
_symmetry_group_IT_number 73
_symmetry_cell_setting 'orthorhombic'
loop_
_space_group_symop_operation_xyz
x,y,z
-x,1/2-y,z
x,-y,1/2-z
1/2-x,y,-z
-x,-y,-z
x,1/2+y,-z
-x,y,1/2+z
1/2+x,-y,z
1/2+x,1/2+y,1/2+z
1/2-x,-y,1/2+z
1/2+x,1/2-y,-z
-x,1/2+y,1/2-z
1/2-x,1/2-y,1/2-z
1/2+x,y,1/2-z
1/2-x,1/2+y,z
x,1/2-y,1/2+z
loop_
_atom_site_type_symbol
_atom_site_label
_atom_site_fract_x
_atom_site_fract_y
_atom_site_fract_z
Si Si1 0.398768 0.814901 0.167078
Si Si2 0.750000 0.284510 0.000000
Si Si3 0.825334 0.905847 0.153398
Si Si4 0.958816 0.025334 0.608320
O O1 0.500000 0.750000 0.218833
O O2 0.295380 0.851143 0.249586
O O3 0.493117 0.883810 0.122177
O O4 0.325399 0.773153 0.075869
O O5 0.651221 0.345597 0.061291
O O6 0.964552 0.957496 0.175277
O O7 0.704689 0.972323 0.132219
O O8 0.000000 0.000000 0.500000
#
# Coordination Sequence:
#
# PCOD8297083 Si02
#       4
#    16   8  16  16
#     4  12  28  49  80 120 161 209 274 341 410 480
#     4  12  26  52  80 114 160 214 262 346 402 488
#     4  12  27  53  81 117 160 209 274 328 409 483
#     4  12  26  52  78 116 162 216 266 329 403 488
#
# _framework density 25.607726
#
# number of rings (size 3 to 8) (size 9 to 14) (size 15 to 20)
#    0.000    0.000    5.714    1.714    4.000    8.000 
#    0.000    0.000    0.000    0.000    0.000    0.000 
#    0.000    0.000    0.000    0.000    0.000    0.000 
#
# Total GULP energy -347098.885124 kJ/mol
# GULP energy per Si atom -12396.388754 kJ/mol
# Density = 2.554944 g / cm^3
# Si number density = 25.607726 Si / 1000 Ang^3
#
#
#
# Elastic Constant Matrix: (Units=GPa)
#
#
# Indices 1 2 3 4 5 6 
#
# 1 105.4580 41.7195 49.9600 0.0000 0.0000 0.0000
# 2 41.7195 153.4001 66.7857 -0.0002 0.0000 0.0000
# 3 49.9600 66.7857 153.1658 -0.0004 0.0001 0.0001
# 4 0.0000 -0.0002 -0.0004 59.4742 0.0000 0.0000
# 5 0.0000 0.0000 0.0001 0.0000 31.0805 0.0000
# 6 0.0000 0.0000 0.0001 0.0000 0.0000 35.5997
#
#
#
# Elastic Compliance Matrix: (Units=1/GPa)
#
#
# Indices 1 2 3 4 5 6 
#
# 1 0.011633 -0.001866 -0.002981 0.000000 0.000000 0.000000
# 2 -0.001866 0.008346 -0.003030 0.000000 0.000000 0.000000
# 3 -0.002981 -0.003030 0.008823 0.000000 0.000000 0.000000
# 4 0.000000 0.000000 0.000000 0.016814 0.000000 0.000000
# 5 0.000000 0.000000 0.000000 0.000000 0.032175 0.000000
# 6 0.000000 0.000000 0.000000 0.000000 0.000000 0.028090
#
#
# Mechanical properties :
#
#
# Convention : Reuss Voigt Hill
#
# Bulk Modulus (GPa) = 76.64758 80.99491 78.82125
# Shear Modulus (GPa) = 39.68796 42.13478 40.91137
#
# Velocity S-wave (km/s) = 3.94108 4.06075 4.00136
# Velocity P-wave (km/s) = 7.12080 7.32693 7.22460
#
# Compressibility (1/GPa) = 0.01304673
#
# Stress axis : x y z
#
# Youngs Moduli (GPa) = 85.96418 119.82199 113.34649
#
# Poissons Ratio (x) = 0.22358 0.33786
# Poissons Ratio (y) = 0.16041 0.34348
# Poissons Ratio (z) = 0.25624 0.36311
#
# Static dielectric constant tensor:
#      x y z
#    x 4.779160 0.000000 0.000000 
#    y 0.000000 5.227990 0.000000 
#    z 0.000000 0.000000 4.885460 
# 
# 
# High freq. dielectric constant tensor:
#      x y z
#    x 1.997160 0.000000 0.000000 
#    y 0.000000 2.052770 0.000000 
#    z 0.000000 0.000000 2.048030 
# 
# From -- ./inp_files/15774.got.cif
#   From: 2010.03.12/outbox.cif.g09.slc.cpg/sg73_8_cif.got.tgz:15774.got - 2010.04.16 15:25:48.
