data_PCOD8297326
_publ_section_title
;
Structure prediction by ZEFSAII (Michael W. Deem and Ramdas Pophale) SiO2 
 PCOD8297326
Probable space group: I M M A
;
_chemical_formula_sum "Si O2"
_cell_formula_units_Z 48
_cell_length_a 33.496906
_cell_length_b 8.966940
_cell_length_c 8.601256
_cell_angle_alpha 90.000000
_cell_angle_beta 90.000000
_cell_angle_gamma 90.000000
_cell_volume 2583.514076
_symmetry_space_group_name_H-M "I M M A"
_symmetry_group_IT_number 74
_symmetry_cell_setting 'orthorhombic'
loop_
_space_group_symop_operation_xyz
x,y,z
-x,1/2-y,z
x,-y,-z
-x,1/2+y,-z
-x,-y,-z
x,1/2+y,-z
-x,y,z
x,1/2-y,z
1/2+x,1/2+y,1/2+z
1/2-x,-y,1/2+z
1/2+x,1/2-y,1/2-z
1/2-x,y,1/2-z
1/2-x,1/2-y,1/2-z
1/2+x,y,1/2-z
1/2-x,1/2+y,1/2+z
1/2+x,-y,1/2+z
loop_
_atom_site_type_symbol
_atom_site_label
_atom_site_fract_x
_atom_site_fract_y
_atom_site_fract_z
Si Si1 0.577911 0.500000 0.500000
Si Si2 0.455690 0.250000 0.292132
Si Si3 0.295665 0.250000 0.793435
Si Si4 0.133271 0.250000 0.943555
Si Si5 0.372968 0.250000 0.187048
Si Si6 0.170049 0.500000 0.500000
O O1 0.549406 0.399006 0.394683
O O2 0.607374 0.604477 0.395608
O O3 0.500000 0.250000 0.217841
O O4 0.421050 0.250000 0.162561
O O5 0.250000 0.250000 0.750000
O O6 0.324238 0.250000 0.642049
O O7 0.302171 0.398343 0.893058
O O8 0.138732 0.250000 0.130870
O O9 0.357218 0.101428 0.108196
#
# Coordination Sequence:
#
# PCOD8297326 Si02
#       6
#     8   8   8   8   8   8
#     4   8  17  29  50  76 103 136 175 220 264 309
#     4  10  17  29  49  78 106 134 174 224 265 305
#     4  11  23  37  57  83 110 138 176 225 265 305
#     4  10  18  35  57  78 102 144 184 212 256 325
#     4   9  20  37  58  77 104 146 182 213 262 325
#     4  10  22  39  55  78 111 144 175 214 269 323
#
# _framework density 18.579345
#
# number of rings (size 3 to 8) (size 9 to 14) (size 15 to 20)
#    0.000    2.667    0.000    4.500    0.000    4.000 
#    0.000    4.167    0.000    0.000    0.000    0.000 
#    0.000    0.000    0.000    0.000    0.000    0.000 
#
# Total GULP energy -297427.737483 kJ/mol
# GULP energy per Si atom -12392.822395 kJ/mol
# Density = 1.853706 g / cm^3
# Si number density = 18.579345 Si / 1000 Ang^3
#
#
#
# Elastic Constant Matrix: (Units=GPa)
#
#
# Indices 1 2 3 4 5 6 
#
# 1 183.0772 63.8510 59.2572 0.0000 0.0000 0.0000
# 2 63.8510 146.5077 45.4594 0.0000 0.0000 0.0000
# 3 59.2572 45.4594 92.2397 0.0000 0.0000 0.0000
# 4 0.0000 0.0000 0.0000 1.6964 0.0000 0.0000
# 5 0.0000 0.0000 0.0000 0.0000 26.3881 0.0000
# 6 0.0000 0.0000 0.0000 0.0000 0.0000 21.0940
#
#
#
# Elastic Compliance Matrix: (Units=1/GPa)
#
#
# Indices 1 2 3 4 5 6 
#
# 1 0.007389 -0.002063 -0.003730 0.000000 0.000000 0.000000
# 2 -0.002063 0.008634 -0.002930 0.000000 0.000000 0.000000
# 3 -0.003730 -0.002930 0.014682 0.000000 0.000000 0.000000
# 4 0.000000 0.000000 0.000000 0.589495 0.000000 0.000000
# 5 0.000000 0.000000 0.000000 0.000000 0.037896 0.000000
# 6 0.000000 0.000000 0.000000 0.000000 0.000000 0.047407
#
#
# Mechanical properties :
#
#
# Convention : Reuss Voigt Hill
#
# Bulk Modulus (GPa) = 75.42288 84.32888 79.87588
# Shear Modulus (GPa) = 6.87411 26.71949 16.79680
#
# Velocity S-wave (km/s) = 1.92559 3.79638 3.01002
# Velocity P-wave (km/s) = 6.75478 8.04386 7.42734
#
# Compressibility (1/GPa) = 0.01325858
#
# Stress axis : x y z
#
# Youngs Moduli (GPa) = 135.33630 115.82542 68.11218
#
# Poissons Ratio (x) = 0.23893 0.25408
# Poissons Ratio (y) = 0.27918 0.19956
# Poissons Ratio (z) = 0.50484 0.33935
#
# Static dielectric constant tensor:
#      x y z
#    x 3.312030 0.000000 0.000000 
#    y 0.000000 3.771240 0.000000 
#    z 0.000000 0.000000 3.216120 
# 
# 
# High freq. dielectric constant tensor:
#      x y z
#    x 1.714050 0.000000 0.000000 
#    y 0.000000 1.752130 0.000000 
#    z 0.000000 0.000000 1.694470 
# 
# From -- ./inp_files/6196.got.cif
#   From: 2010.03.12/outbox.cif.g09.slc.cpg/sg74_4_cif.got.tgz:6196.got - 2010.04.16 15:46:19.
