data_PCOD8297348
_publ_section_title
;
Structure prediction by ZEFSAII (Michael W. Deem and Ramdas Pophale) SiO2 
 PCOD8297348
Probable space group: I M M A
;
_chemical_formula_sum "Si O2"
_cell_formula_units_Z 72
_cell_length_a 25.218557
_cell_length_b 9.836896
_cell_length_c 16.215544
_cell_angle_alpha 90.000000
_cell_angle_beta 90.000000
_cell_angle_gamma 90.000000
_cell_volume 4022.627660
_symmetry_space_group_name_H-M "I M M A"
_symmetry_group_IT_number 74
_symmetry_cell_setting 'orthorhombic'
loop_
_space_group_symop_operation_xyz
x,y,z
-x,1/2-y,z
x,-y,-z
-x,1/2+y,-z
-x,-y,-z
x,1/2+y,-z
-x,y,z
x,1/2-y,z
1/2+x,1/2+y,1/2+z
1/2-x,-y,1/2+z
1/2+x,1/2-y,1/2-z
1/2-x,y,1/2-z
1/2-x,1/2-y,1/2-z
1/2+x,y,1/2-z
1/2-x,1/2+y,1/2+z
1/2+x,-y,1/2+z
loop_
_atom_site_type_symbol
_atom_site_label
_atom_site_fract_x
_atom_site_fract_y
_atom_site_fract_z
Si Si1 0.789031 0.098852 0.377316
Si Si2 0.439291 0.596177 0.147915
Si Si3 0.676058 0.091174 0.425796
Si Si4 0.369994 0.091578 0.251865
Si Si5 0.370643 0.500000 0.000000
O O1 0.770957 0.250000 0.355054
O O2 0.733956 0.026815 0.402635
O O3 0.816863 0.036903 0.295387
O O4 0.832124 0.101775 0.450680
O O5 0.500000 0.559826 0.128843
O O6 0.433094 0.750000 0.180267
O O7 0.419655 0.495218 0.219804
O O8 0.406964 0.583136 0.063023
O O9 0.679018 0.250000 0.452057
O O10 0.636428 0.071340 0.349190
O O11 0.652975 0.000000 0.500000
O O12 0.379470 0.250000 0.229239
#
# Coordination Sequence:
#
# PCOD8297348 Si02
#       5
#    16  16  16  16   8
#     4   9  16  28  47  70 101 138 170 199 237 294
#     4  10  21  35  52  76 105 135 172 218 260 298
#     4  10  19  32  50  75 103 134 171 210 253 302
#     4   9  19  34  52  72  99 136 175 212 252 302
#     4  10  17  30  50  74 108 140 169 194 244 302
#
# _framework density 17.898747
#
# number of rings (size 3 to 8) (size 9 to 14) (size 15 to 20)
#    0.000    2.444    1.111    1.667    0.000    4.889 
#    0.000    0.000    0.000    4.667    0.000    0.000 
#    0.000    0.000    0.000    0.000    0.000    0.000 
#
# Total GULP energy -446204.573716 kJ/mol
# GULP energy per Si atom -12394.571492 kJ/mol
# Density = 1.785801 g / cm^3
# Si number density = 17.898747 Si / 1000 Ang^3
#
#
#
# Elastic Constant Matrix: (Units=GPa)
#
#
# Indices 1 2 3 4 5 6 
#
# 1 63.6284 27.5374 27.6434 0.0000 0.0000 0.0000
# 2 27.5374 67.9015 41.9565 0.0000 0.0000 0.0000
# 3 27.6434 41.9565 108.0565 0.0000 0.0000 0.0000
# 4 0.0000 0.0000 0.0000 29.5128 0.0000 0.0000
# 5 0.0000 0.0000 0.0000 0.0000 16.0187 0.0000
# 6 0.0000 0.0000 0.0000 0.0000 0.0000 24.5395
#
#
#
# Elastic Compliance Matrix: (Units=1/GPa)
#
#
# Indices 1 2 3 4 5 6 
#
# 1 0.019575 -0.006373 -0.002533 0.000000 0.000000 0.000000
# 2 -0.006373 0.021451 -0.006699 0.000000 0.000000 0.000000
# 3 -0.002533 -0.006699 0.012503 0.000000 0.000000 0.000000
# 4 0.000000 0.000000 0.000000 0.033884 0.000000 0.000000
# 5 0.000000 0.000000 0.000000 0.000000 0.062427 0.000000
# 6 0.000000 0.000000 0.000000 0.000000 0.000000 0.040751
#
#
# Mechanical properties :
#
#
# Convention : Reuss Voigt Hill
#
# Bulk Modulus (GPa) = 44.80436 48.20680 46.50558
# Shear Modulus (GPa) = 21.81112 23.51081 22.66096
#
# Velocity S-wave (km/s) = 3.49461 3.62822 3.56204
# Velocity P-wave (km/s) = 6.43191 6.67409 6.55412
#
# Compressibility (1/GPa) = 0.02231926
#
# Stress axis : x y z
#
# Youngs Moduli (GPa) = 51.08527 46.61778 79.97840
#
# Poissons Ratio (x) = 0.29712 0.20259
# Poissons Ratio (y) = 0.32559 0.53574
# Poissons Ratio (z) = 0.12940 0.31227
#
# Static dielectric constant tensor:
#      x y z
#    x 3.190710 0.000000 0.000000 
#    y 0.000000 3.115680 0.000000 
#    z 0.000000 0.000000 3.265820 
# 
# 
# High freq. dielectric constant tensor:
#      x y z
#    x 1.676160 0.000000 0.000000 
#    y 0.000000 1.671930 0.000000 
#    z 0.000000 0.000000 1.689320 
# 
# From -- ./inp_files/29210.got.cif
#   From: 2010.03.12/outbox.cif.g09.slc.cpg/sg74_15_cif.got.tgz:29210.got - 2010.04.16 15:46:19.
