data_PCOD8297924
_publ_section_title
;
Structure prediction by ZEFSAII (Michael W. Deem and Ramdas Pophale) SiO2 
 PCOD8297924
Probable space group: I M M A
;
_chemical_formula_sum "Si O2"
_cell_formula_units_Z 104
_cell_length_a 8.766557
_cell_length_b 27.068056
_cell_length_c 24.207247
_cell_angle_alpha 90.000000
_cell_angle_beta 90.000000
_cell_angle_gamma 90.000000
_cell_volume 5744.226138
_symmetry_space_group_name_H-M "I M M A"
_symmetry_group_IT_number 74
_symmetry_cell_setting 'orthorhombic'
loop_
_space_group_symop_operation_xyz
x,y,z
-x,1/2-y,z
x,-y,-z
-x,1/2+y,-z
-x,-y,-z
x,1/2+y,-z
-x,y,z
x,1/2-y,z
1/2+x,1/2+y,1/2+z
1/2-x,-y,1/2+z
1/2+x,1/2-y,1/2-z
1/2-x,y,1/2-z
1/2-x,1/2-y,1/2-z
1/2+x,y,1/2-z
1/2-x,1/2+y,1/2+z
1/2+x,-y,1/2+z
loop_
_atom_site_type_symbol
_atom_site_label
_atom_site_fract_x
_atom_site_fract_y
_atom_site_fract_z
Si Si1 0.817171 0.750000 0.188915
Si Si2 0.821966 0.694228 0.696979
Si Si3 0.679407 0.575274 0.395829
Si Si4 0.681859 0.850541 0.189167
Si Si5 0.672849 0.517951 0.937561
Si Si6 0.323008 0.891691 0.516990
Si Si7 0.677067 0.807557 0.924070
O O1 0.750000 0.750000 0.250000
O O2 0.752546 0.800421 0.161340
O O3 0.000000 0.750000 0.187955
O O4 0.758303 0.750000 0.696367
O O5 0.750000 0.665547 0.750000
O O6 0.780399 0.671504 0.637199
O O7 0.000000 0.693790 0.705334
O O8 0.500000 0.579103 0.384036
O O9 0.771553 0.602966 0.347992
O O10 0.729803 0.517740 0.397373
O O11 0.727772 0.599523 0.454008
O O12 0.500000 0.845914 0.192792
O O13 0.750000 0.858899 0.250000
O O14 0.500000 0.518591 0.915936
O O15 0.686088 0.500000 0.000000
O O16 0.738717 0.573348 0.938289
O O17 0.500000 0.902224 0.523209
O O18 0.279977 0.835582 0.531326
O O19 0.500000 0.817118 0.936886
O O20 0.715503 0.750000 0.928802
#
# Coordination Sequence:
#
# PCOD8297924 Si02
#       7
#     8  16  16  16  16  16  16
#     4  10  18  32  52  74 102 136 174 216 261 308
#     4   8  14  25  42  64  88 117 156 198 238 277
#     4  10  20  35  53  77 105 133 169 215 262 310
#     4  11  21  35  55  79 106 139 179 220 266 318
#     4   9  17  31  53  77  99 126 162 205 248 299
#     4  10  20  33  51  75 103 136 171 211 258 308
#     4   9  18  32  48  68  99 136 169 205 249 301
#
# _framework density 18.105136999999999
#
# number of rings (size 3 to 8) (size 9 to 14) (size 15 to 20)
#    0.000    2.462    0.000    5.308    0.000    4.615 
#    1.385    1.538    0.000    0.923    0.000    4.308 
#    0.000    0.000    0.000    0.000    0.000    0.000 
#
# Total GULP energy -644506.059315 kJ/mol
# GULP energy per Si atom -12394.347295 kJ/mol
# Density = 1.806393 g / cm^3
# Si number density = 18.105137 Si / 1000 Ang^3
#
#
#
# Elastic Constant Matrix: (Units=GPa)
#
#
# Indices 1 2 3 4 5 6 
#
# 1 93.7898 32.2843 36.3952 0.0000 0.0000 0.0000
# 2 32.2843 77.7628 39.6981 0.0000 0.0000 0.0000
# 3 36.3952 39.6981 66.3180 -0.0001 0.0000 0.0000
# 4 0.0000 0.0000 -0.0001 24.8450 0.0000 0.0000
# 5 0.0000 0.0000 0.0000 0.0000 28.5352 0.0000
# 6 0.0000 0.0000 0.0000 0.0000 0.0000 32.8491
#
#
#
# Elastic Compliance Matrix: (Units=1/GPa)
#
#
# Indices 1 2 3 4 5 6 
#
# 1 0.013932 -0.002709 -0.006025 0.000000 0.000000 0.000000
# 2 -0.002709 0.019045 -0.009914 0.000000 0.000000 0.000000
# 3 -0.006025 -0.009914 0.024320 0.000000 0.000000 0.000000
# 4 0.000000 0.000000 0.000000 0.040250 0.000000 0.000000
# 5 0.000000 0.000000 0.000000 0.000000 0.035044 0.000000
# 6 0.000000 0.000000 0.000000 0.000000 0.000000 0.030442
#
#
# Mechanical properties :
#
#
# Convention : Reuss Voigt Hill
#
# Bulk Modulus (GPa) = 49.99320 50.51398 50.25359
# Shear Modulus (GPa) = 24.15505 25.87872 25.01689
#
# Velocity S-wave (km/s) = 3.65657 3.78479 3.72123
# Velocity P-wave (km/s) = 6.74537 6.86006 6.80296
#
# Compressibility (1/GPa) = 0.02000272
#
# Stress axis : x y z
#
# Youngs Moduli (GPa) = 71.77526 52.50645 41.11875
#
# Poissons Ratio (x) = 0.14222 0.24773
# Poissons Ratio (y) = 0.19441 0.40765
# Poissons Ratio (z) = 0.43243 0.52055
#
# Static dielectric constant tensor:
#      x y z
#    x 3.352260 0.000000 0.000000 
#    y 0.000000 3.425580 0.000000 
#    z 0.000000 0.000000 3.246010 
# 
# 
# High freq. dielectric constant tensor:
#      x y z
#    x 1.709740 0.000000 0.000000 
#    y 0.000000 1.686310 0.000000 
#    z 0.000000 0.000000 1.676980 
# 
# From -- ./inp_files/49286.got.cif
#   From: 2010.03.12/outbox.cif.g09.slc.cpg/sg74_25_cif.got.tgz:49286.got - 2010.04.16 15:46:19.
