data_PCOD8297143
_publ_section_title
;
Structure prediction by ZEFSAII (Michael W. Deem and Ramdas Pophale) SiO2 
 PCOD8297143
Probable space group: I M M A
;
_chemical_formula_sum "Si O2"
_cell_formula_units_Z 64
_cell_length_a 21.327538
_cell_length_b 19.348244
_cell_length_c 8.116093
_cell_angle_alpha 90.000000
_cell_angle_beta 90.000000
_cell_angle_gamma 90.000000
_cell_volume 3349.109097
_symmetry_space_group_name_H-M "I M M A"
_symmetry_group_IT_number 74
_symmetry_cell_setting 'orthorhombic'
loop_
_space_group_symop_operation_xyz
x,y,z
-x,1/2-y,z
x,-y,-z
-x,1/2+y,-z
-x,-y,-z
x,1/2+y,-z
-x,y,z
x,1/2-y,z
1/2+x,1/2+y,1/2+z
1/2-x,-y,1/2+z
1/2+x,1/2-y,1/2-z
1/2-x,y,1/2-z
1/2-x,1/2-y,1/2-z
1/2+x,y,1/2-z
1/2-x,1/2+y,1/2+z
1/2+x,-y,1/2+z
loop_
_atom_site_type_symbol
_atom_site_label
_atom_site_fract_x
_atom_site_fract_y
_atom_site_fract_z
Si Si1 0.250000 0.398117 0.250000
Si Si2 0.500000 0.330202 0.249164
Si Si3 0.791553 0.500000 0.500000
Si Si4 0.377607 0.895256 0.617746
Si Si5 0.881907 0.549635 0.233109
Si Si6 0.000000 0.576406 0.429316
O O1 0.253263 0.446918 0.409078
O O2 0.317398 0.360394 0.280241
O O3 0.500000 0.250000 0.208715
O O4 0.562113 0.347311 0.355459
O O5 0.500000 0.368878 0.075609
O O6 0.829479 0.547906 0.373441
O O7 0.362037 0.903969 0.423867
O O8 0.396511 0.969964 0.689757
O O9 0.940862 0.587898 0.312239
O O10 0.000000 0.500000 0.500000
#
# Coordination Sequence:
#
# PCOD8297143 Si02
#       6
#     8   8   8  16  16   8
#     4  10  18  30  53  80 118 148 189 228 284 342
#     4  12  25  41  57  80 115 154 191 234 292 345
#     4  10  16  27  44  85 120 144 172 238 294 332
#     4  10  20  35  55  85 111 152 187 236 286 337
#     4  10  18  30  57  85 118 143 188 238 288 333
#     4  12  17  33  56  85 111 149 194 236 280 336
#
# _framework density 19.109559999999998
#
# number of rings (size 3 to 8) (size 9 to 14) (size 15 to 20)
#    0.000    1.500    3.750    5.250    0.000    2.000 
#    0.000    3.125    0.000    0.000    0.000    3.500 
#    0.000    0.000    0.000    0.000    0.000    0.000 
#
# Total GULP energy -396467.718957 kJ/mol
# GULP energy per Si atom -12389.616217 kJ/mol
# Density = 1.906607 g / cm^3
# Si number density = 19.109560 Si / 1000 Ang^3
#
#
#
# Elastic Constant Matrix: (Units=GPa)
#
#
# Indices 1 2 3 4 5 6 
#
# 1 126.5308 21.4846 35.8171 0.0000 0.0000 0.0000
# 2 21.4846 61.8986 25.8204 0.0000 0.0000 0.0000
# 3 35.8171 25.8204 116.1367 0.0000 0.0000 0.0000
# 4 0.0000 0.0000 0.0000 14.8322 0.0000 0.0000
# 5 0.0000 0.0000 0.0000 0.0000 36.3213 0.0000
# 6 0.0000 0.0000 0.0000 0.0000 0.0000 5.2215
#
#
#
# Elastic Compliance Matrix: (Units=1/GPa)
#
#
# Indices 1 2 3 4 5 6 
#
# 1 0.008910 -0.002145 -0.002271 0.000000 0.000000 0.000000
# 2 -0.002145 0.018323 -0.003412 0.000000 0.000000 0.000000
# 3 -0.002271 -0.003412 0.010070 0.000000 0.000000 0.000000
# 4 0.000000 0.000000 0.000000 0.067421 0.000000 0.000000
# 5 0.000000 0.000000 0.000000 0.000000 0.027532 0.000000
# 6 0.000000 0.000000 0.000000 0.000000 0.000000 0.191514
#
#
# Mechanical properties :
#
#
# Convention : Reuss Voigt Hill
#
# Bulk Modulus (GPa) = 46.19744 52.31226 49.25485
# Shear Modulus (GPa) = 14.42404 26.03793 20.23099
#
# Velocity S-wave (km/s) = 2.75036 3.69529 3.25727
# Velocity P-wave (km/s) = 5.85777 6.75583 6.32277
#
# Compressibility (1/GPa) = 0.02164622
#
# Stress axis : x y z
#
# Youngs Moduli (GPa) = 112.22899 54.57480 99.30932
#
# Poissons Ratio (x) = 0.11708 0.22553
# Poissons Ratio (y) = 0.24078 0.33886
# Poissons Ratio (z) = 0.25487 0.18622
#
# Static dielectric constant tensor:
#      x y z
#    x 3.849850 0.000000 0.000000 
#    y 0.000000 2.832400 0.000000 
#    z 0.000000 0.000000 3.927910 
# 
# 
# High freq. dielectric constant tensor:
#      x y z
#    x 1.768780 0.000000 0.000000 
#    y 0.000000 1.656760 0.000000 
#    z 0.000000 0.000000 1.766100 
# 
# From -- ./inp_files/11867.got.cif
#   From: 2010.03.12/outbox.cif.g09.slc.cpg/sg74_6_cif.got.tgz:11867.got - 2010.04.16 15:46:19.
