data_PCOD8297805
_publ_section_title
;
Structure prediction by ZEFSAII (Michael W. Deem and Ramdas Pophale) SiO2 
 PCOD8297805
Probable space group: I M M A
;
_chemical_formula_sum "Si O2"
_cell_formula_units_Z 88
_cell_length_a 9.383665
_cell_length_b 18.113839
_cell_length_c 30.592158
_cell_angle_alpha 90.000000
_cell_angle_beta 90.000000
_cell_angle_gamma 90.000000
_cell_volume 5199.877492
_symmetry_space_group_name_H-M "I M M A"
_symmetry_group_IT_number 74
_symmetry_cell_setting 'orthorhombic'
loop_
_space_group_symop_operation_xyz
x,y,z
-x,1/2-y,z
x,-y,-z
-x,1/2+y,-z
-x,-y,-z
x,1/2+y,-z
-x,y,z
x,1/2-y,z
1/2+x,1/2+y,1/2+z
1/2-x,-y,1/2+z
1/2+x,1/2-y,1/2-z
1/2-x,y,1/2-z
1/2-x,1/2-y,1/2-z
1/2+x,y,1/2-z
1/2-x,1/2+y,1/2+z
1/2+x,-y,1/2+z
loop_
_atom_site_type_symbol
_atom_site_label
_atom_site_fract_x
_atom_site_fract_y
_atom_site_fract_z
Si Si1 0.334572 0.832303 0.403858
Si Si2 0.160459 0.834850 0.491491
Si Si3 0.338388 0.250000 0.293078
Si Si4 0.167110 0.516124 0.129904
Si Si5 0.663810 0.554498 0.540328
Si Si6 0.832650 0.089113 0.204623
O O1 0.500000 0.839875 0.417612
O O2 0.303156 0.750000 0.384706
O O3 0.243462 0.848109 0.446577
O O4 0.296135 0.895764 0.368157
O O5 0.158510 0.750000 0.504439
O O6 0.239694 0.874336 0.531492
O O7 0.000000 0.865418 0.485872
O O8 0.500000 0.250000 0.277507
O O9 0.250000 0.250000 0.250000
O O10 0.307149 0.328594 0.317223
O O11 0.223867 0.483753 0.084115
O O12 0.232127 0.471665 0.171053
O O13 0.000000 0.503411 0.131535
O O14 0.683502 0.500000 0.500000
O O15 0.500000 0.579062 0.545587
O O16 0.750000 0.080061 0.250000
O O17 0.000000 0.075980 0.213587
#
# Coordination Sequence:
#
# PCOD8297805 Si02
#       6
#    16  16   8  16  16  16
#     4   9  16  29  50  70  89 120 162 199 231 273
#     4  10  20  32  45  64  94 129 162 196 234 276
#     4   8  14  26  46  68  88 116 148 180 222 272
#     4   9  17  30  48  72  96 118 151 199 239 273
#     4  10  18  31  49  69  94 124 159 196 233 276
#     4   9  17  31  50  70  94 119 150 190 231 276
#
# _framework density 16.923475
#
# number of rings (size 3 to 8) (size 9 to 14) (size 15 to 20)
#    0.000    2.727    1.818    0.545    0.000    1.455 
#    1.636    1.818    0.000    0.545    0.000    0.000 
#    0.000    0.000    0.000    0.000    0.000    0.000 
#
# Total GULP energy -545130.991640 kJ/mol
# GULP energy per Si atom -12389.340719 kJ/mol
# Density = 1.688496 g / cm^3
# Si number density = 16.923475 Si / 1000 Ang^3
#
#
#
# Elastic Constant Matrix: (Units=GPa)
#
#
# Indices 1 2 3 4 5 6 
#
# 1 51.1160 40.8973 24.1624 0.0000 0.0000 0.0000
# 2 40.8973 143.8826 69.4052 0.0000 0.0000 0.0000
# 3 24.1624 69.4052 88.4856 0.0000 0.0000 0.0000
# 4 0.0000 0.0000 0.0000 29.2689 0.0000 0.0000
# 5 0.0000 0.0000 0.0000 0.0000 14.5063 0.0000
# 6 0.0000 0.0000 0.0000 0.0000 0.0000 18.6076
#
#
#
# Elastic Compliance Matrix: (Units=1/GPa)
#
#
# Indices 1 2 3 4 5 6 
#
# 1 0.025553 -0.006270 -0.002060 0.000000 0.000000 0.000000
# 2 -0.006270 0.012719 -0.008264 0.000000 0.000000 0.000000
# 3 -0.002060 -0.008264 0.018346 0.000000 0.000000 0.000000
# 4 0.000000 0.000000 0.000000 0.034166 0.000000 0.000000
# 5 0.000000 0.000000 0.000000 0.000000 0.068936 0.000000
# 6 0.000000 0.000000 0.000000 0.000000 0.000000 0.053741
#
#
# Mechanical properties :
#
#
# Convention : Reuss Voigt Hill
#
# Bulk Modulus (GPa) = 42.67962 61.37934 52.02948
# Shear Modulus (GPa) = 19.64960 22.41119 21.03039
#
# Velocity S-wave (km/s) = 3.41117 3.64299 3.52899
# Velocity P-wave (km/s) = 6.38660 7.35137 6.88591
#
# Compressibility (1/GPa) = 0.02343039
#
# Stress axis : x y z
#
# Youngs Moduli (GPa) = 39.13381 78.62561 54.50838
#
# Poissons Ratio (x) = 0.49295 0.11229
# Poissons Ratio (y) = 0.24535 0.45046
# Poissons Ratio (z) = 0.08062 0.64976
#
# Static dielectric constant tensor:
#      x y z
#    x 3.022680 0.000000 0.000000 
#    y 0.000000 3.702880 0.000000 
#    z 0.000000 0.000000 2.883190 
# 
# 
# High freq. dielectric constant tensor:
#      x y z
#    x 1.636030 0.000000 0.000000 
#    y 0.000000 1.670180 0.000000 
#    z 0.000000 0.000000 1.610150 
# 
# From -- ./inp_files/70252.got.cif
#   From: 2010.03.12/outbox.cif.g09.slc.cpg/sg74_36_cif.got.tgz:70252.got - 2010.04.16 15:46:19.
