data_PCOD8297301
_publ_section_title
;
Structure prediction by ZEFSAII (Michael W. Deem and Ramdas Pophale) SiO2 
 PCOD8297301
Probable space group: I M M A
;
_chemical_formula_sum "Si O2"
_cell_formula_units_Z 112
_cell_length_a 17.792093
_cell_length_b 13.762893
_cell_length_c 28.424588
_cell_angle_alpha 90.000000
_cell_angle_beta 90.000000
_cell_angle_gamma 90.000000
_cell_volume 6960.347971
_symmetry_space_group_name_H-M "I M M A"
_symmetry_group_IT_number 74
_symmetry_cell_setting 'orthorhombic'
loop_
_space_group_symop_operation_xyz
x,y,z
-x,1/2-y,z
x,-y,-z
-x,1/2+y,-z
-x,-y,-z
x,1/2+y,-z
-x,y,z
x,1/2-y,z
1/2+x,1/2+y,1/2+z
1/2-x,-y,1/2+z
1/2+x,1/2-y,1/2-z
1/2-x,y,1/2-z
1/2-x,1/2-y,1/2-z
1/2+x,y,1/2-z
1/2-x,1/2+y,1/2+z
1/2+x,-y,1/2+z
loop_
_atom_site_type_symbol
_atom_site_label
_atom_site_fract_x
_atom_site_fract_y
_atom_site_fract_z
Si Si1 0.819136 0.140561 0.051867
Si Si2 0.919198 0.861862 0.340783
Si Si3 0.863739 0.050951 0.570454
Si Si4 0.761496 0.364837 0.696599
Si Si5 0.414821 0.865119 0.464297
Si Si6 0.349029 0.357434 0.026107
Si Si7 0.699689 0.454507 0.606312
O O1 0.838497 0.250000 0.069448
O O2 0.741172 0.140113 0.023450
O O3 0.815139 0.069960 0.097553
O O4 0.879838 0.099145 0.014280
O O5 0.909340 0.750000 0.353472
O O6 0.921610 0.918857 0.389731
O O7 0.848553 0.895543 0.310168
O O8 0.000000 0.880963 0.315193
O O9 0.882857 0.111038 0.523777
O O10 0.778372 0.078028 0.583855
O O11 0.875908 0.935252 0.564611
O O12 0.746786 0.250000 0.688749
O O13 0.750000 0.396770 0.750000
O O14 0.705876 0.425594 0.661797
O O15 0.500000 0.904643 0.460363
O O16 0.412916 0.750000 0.464706
O O17 0.368170 0.898360 0.418728
O O18 0.378440 0.250000 0.039737
#
# Coordination Sequence:
#
# PCOD8297301 Si02
#       7
#    16  16  16  16  16  16  16
#     4   9  17  27  40  60  88 120 154 187 218 258
#     4   9  17  29  46  66  86 109 137 172 214 258
#     4   9  16  25  41  62  81 111 150 179 206 247
#     4   9  18  32  50  70  89 111 144 186 228 273
#     4  10  19  28  40  63  95 127 157 190 229 274
#     4   9  15  24  38  58  85 115 148 181 208 239
#     4  10  17  28  45  63  85 117 153 186 223 268
#
# _framework density 16.091149999999999
#
# number of rings (size 3 to 8) (size 9 to 14) (size 15 to 20)
#    0.000    2.714    1.429    1.286    0.000    2.286 
#    0.000    2.143    0.000    4.286    0.000    0.000 
#    0.000    0.000    0.000    0.143    0.000    0.000 
#
# Total GULP energy -693945.518883 kJ/mol
# GULP energy per Si atom -12391.884266 kJ/mol
# Density = 1.605453 g / cm^3
# Si number density = 16.091150 Si / 1000 Ang^3
#
#
#
# Elastic Constant Matrix: (Units=GPa)
#
#
# Indices 1 2 3 4 5 6 
#
# 1 71.8215 24.9015 38.3948 0.0000 0.0000 0.0000
# 2 24.9015 64.1023 38.7761 0.0000 0.0000 0.0000
# 3 38.3948 38.7761 106.1324 0.0000 0.0000 0.0000
# 4 0.0000 0.0000 0.0000 20.9804 0.0000 0.0000
# 5 0.0000 0.0000 0.0000 0.0000 14.1253 0.0000
# 6 0.0000 0.0000 0.0000 0.0000 0.0000 13.4372
#
#
#
# Elastic Compliance Matrix: (Units=1/GPa)
#
#
# Indices 1 2 3 4 5 6 
#
# 1 0.017997 -0.003919 -0.005079 0.000000 0.000000 0.000000
# 2 -0.003919 0.020879 -0.006211 0.000000 0.000000 0.000000
# 3 -0.005079 -0.006211 0.013529 0.000000 0.000000 0.000000
# 4 0.000000 0.000000 0.000000 0.047664 0.000000 0.000000
# 5 0.000000 0.000000 0.000000 0.000000 0.070795 0.000000
# 6 0.000000 0.000000 0.000000 0.000000 0.000000 0.074420
#
#
# Mechanical properties :
#
#
# Convention : Reuss Voigt Hill
#
# Bulk Modulus (GPa) = 45.47909 49.57789 47.52849
# Shear Modulus (GPa) = 17.66595 19.04084 18.35339
#
# Velocity S-wave (km/s) = 3.31700 3.44366 3.38092
# Velocity P-wave (km/s) = 6.55704 6.83296 6.69642
#
# Compressibility (1/GPa) = 0.02198813
#
# Stress axis : x y z
#
# Youngs Moduli (GPa) = 55.56381 47.89419 73.91719
#
# Poissons Ratio (x) = 0.18770 0.37542
# Poissons Ratio (y) = 0.21776 0.45907
# Poissons Ratio (z) = 0.28220 0.29745
#
# Static dielectric constant tensor:
#      x y z
#    x 3.087540 0.000000 0.000000 
#    y 0.000000 3.189900 0.000000 
#    z 0.000000 0.000000 2.809240 
# 
# 
# High freq. dielectric constant tensor:
#      x y z
#    x 1.611960 0.000000 0.000000 
#    y 0.000000 1.616600 0.000000 
#    z 0.000000 0.000000 1.577890 
# 
# From -- ./inp_files/72669.got.cif
#   From: 2010.03.12/outbox.cif.g09.slc.cpg/sg74_37_cif.got.tgz:72669.got - 2010.04.16 15:46:19.
