data_PCOD8297421
_publ_section_title
;
Structure prediction by ZEFSAII (Michael W. Deem and Ramdas Pophale) SiO2 
 PCOD8297421
Probable space group: I M M A
;
_chemical_formula_sum "Si O2"
_cell_formula_units_Z 104
_cell_length_a 28.551674
_cell_length_b 9.283632
_cell_length_c 31.700183
_cell_angle_alpha 90.000000
_cell_angle_beta 90.000000
_cell_angle_gamma 90.000000
_cell_volume 8402.553037
_symmetry_space_group_name_H-M "I M M A"
_symmetry_group_IT_number 74
_symmetry_cell_setting 'orthorhombic'
loop_
_space_group_symop_operation_xyz
x,y,z
-x,1/2-y,z
x,-y,-z
-x,1/2+y,-z
-x,-y,-z
x,1/2+y,-z
-x,y,z
x,1/2-y,z
1/2+x,1/2+y,1/2+z
1/2-x,-y,1/2+z
1/2+x,1/2-y,1/2-z
1/2-x,y,1/2-z
1/2-x,1/2-y,1/2-z
1/2+x,y,1/2-z
1/2-x,1/2+y,1/2+z
1/2+x,-y,1/2+z
loop_
_atom_site_type_symbol
_atom_site_label
_atom_site_fract_x
_atom_site_fract_y
_atom_site_fract_z
Si Si1 0.365881 0.911013 0.164861
Si Si2 0.273861 0.087929 0.315045
Si Si3 0.731632 0.912447 0.116162
Si Si4 0.812758 0.080619 0.456160
Si Si5 0.092623 0.083427 0.407294
Si Si6 0.823727 0.588526 0.733341
Si Si7 0.500000 0.080749 0.043816
O O1 0.384623 0.750000 0.171849
O O2 0.316134 0.910741 0.142100
O O3 0.402982 0.995351 0.136026
O O4 0.361477 0.985504 0.210785
O O5 0.285400 0.250000 0.330501
O O6 0.223773 0.088420 0.292960
O O7 0.312922 0.035348 0.281157
O O8 0.272875 0.980574 0.354985
O O9 0.745892 0.750000 0.103159
O O10 0.725622 0.012132 0.075118
O O11 0.802709 0.250000 0.461407
O O12 0.864716 0.051480 0.438843
O O13 0.807699 0.000000 0.500000
O O14 0.091181 0.250000 0.394591
O O15 0.045447 0.033005 0.430077
O O16 0.844332 0.750000 0.734358
O O17 0.500000 0.250000 0.034557
O O18 0.500000 0.000000 0.000000
#
# Coordination Sequence:
#
# PCOD8297421 Si02
#       7
#    16  16  16  16  16  16   8
#     4   9  16  24  35  50  65  80  99 121 145 176
#     4   8  13  21  32  46  63  83 103 120 140 169
#     4   9  16  24  33  46  63  81 100 123 149 177
#     4  10  18  27  38  49  61  78 100 127 158 193
#     4   9  18  30  41  51  64  80  97 121 157 199
#     4   8  13  21  33  47  64  84 102 118 139 170
#     4  10  20  32  44  56  66  78  98 126 162 204
#
# _framework density 12.377191
#
# number of rings (size 3 to 8) (size 9 to 14) (size 15 to 20)
#    0.000    3.077    0.000    2.769    0.000    5.538 
#    0.000    3.077    0.000    0.000    0.000    0.000 
#    0.000    0.000    0.000    0.000    0.000    0.000 
#
# Total GULP energy -644550.263157 kJ/mol
# GULP energy per Si atom -12395.197368 kJ/mol
# Density = 1.234902 g / cm^3
# Si number density = 12.377191 Si / 1000 Ang^3
#
#
#
# Elastic Constant Matrix: (Units=GPa)
#
#
# Indices 1 2 3 4 5 6 
#
# 1 27.0782 28.5140 40.7869 0.0000 0.0000 0.0000
# 2 28.5140 90.6056 61.4346 0.0000 0.0000 0.0000
# 3 40.7869 61.4346 92.3463 0.0000 0.0000 0.0000
# 4 0.0000 0.0000 0.0000 25.7600 0.0000 0.0000
# 5 0.0000 0.0000 0.0000 0.0000 17.7051 0.0000
# 6 0.0000 0.0000 0.0000 0.0000 0.0000 9.4620
#
#
#
# Elastic Compliance Matrix: (Units=1/GPa)
#
#
# Indices 1 2 3 4 5 6 
#
# 1 0.110798 -0.003074 -0.046892 0.000000 0.000000 0.000000
# 2 -0.003074 0.020192 -0.012075 0.000000 0.000000 0.000000
# 3 -0.046892 -0.012075 0.039573 0.000000 0.000000 0.000000
# 4 0.000000 0.000000 0.000000 0.038820 0.000000 0.000000
# 5 0.000000 0.000000 0.000000 0.000000 0.056481 0.000000
# 6 0.000000 0.000000 0.000000 0.000000 0.000000 0.105686
#
#
# Mechanical properties :
#
#
# Convention : Reuss Voigt Hill
#
# Bulk Modulus (GPa) = 21.51407 52.38902 36.95154
# Shear Modulus (GPa) = 9.78234 15.87172 12.82703
#
# Velocity S-wave (km/s) = 2.81437 3.58486 3.22272
# Velocity P-wave (km/s) = 5.28968 7.71712 6.61568
#
# Compressibility (1/GPa) = 0.04648121
#
# Stress axis : x y z
#
# Youngs Moduli (GPa) = 9.02540 49.52522 25.26999
#
# Poissons Ratio (x) = 0.15225 1.18495
# Poissons Ratio (y) = 0.02775 0.30514
# Poissons Ratio (z) = 0.42322 0.59802
#
# Static dielectric constant tensor:
#      x y z
#    x 2.183540 0.000000 0.000000 
#    y 0.000000 2.730340 0.000000 
#    z 0.000000 0.000000 2.594340 
# 
# 
# High freq. dielectric constant tensor:
#      x y z
#    x 1.401640 0.000000 0.000000 
#    y 0.000000 1.483230 0.000000 
#    z 0.000000 0.000000 1.462440 
# 
# From -- ./inp_files/73915.got.cif
#   From: 2010.03.12/outbox.cif.g09.slc.cpg/sg74_37_cif.got.tgz:73915.got - 2010.04.16 15:46:19.
