data_PCOD8297852
_publ_section_title
;
Structure prediction by ZEFSAII (Michael W. Deem and Ramdas Pophale) SiO2 
 PCOD8297852
Probable space group: I M M A
;
_chemical_formula_sum "Si O2"
_cell_formula_units_Z 96
_cell_length_a 20.933712
_cell_length_b 17.295842
_cell_length_c 15.220782
_cell_angle_alpha 90.000000
_cell_angle_beta 90.000000
_cell_angle_gamma 90.000000
_cell_volume 5510.930323
_symmetry_space_group_name_H-M "I M M A"
_symmetry_group_IT_number 74
_symmetry_cell_setting 'orthorhombic'
loop_
_space_group_symop_operation_xyz
x,y,z
-x,1/2-y,z
x,-y,-z
-x,1/2+y,-z
-x,-y,-z
x,1/2+y,-z
-x,y,z
x,1/2-y,z
1/2+x,1/2+y,1/2+z
1/2-x,-y,1/2+z
1/2+x,1/2-y,1/2-z
1/2-x,y,1/2-z
1/2-x,1/2-y,1/2-z
1/2+x,y,1/2-z
1/2-x,1/2+y,1/2+z
1/2+x,-y,1/2+z
loop_
_atom_site_type_symbol
_atom_site_label
_atom_site_fract_x
_atom_site_fract_y
_atom_site_fract_z
Si Si1 0.708200 0.157992 0.169045
Si Si2 0.931716 0.340821 0.745209
Si Si3 0.389583 0.161784 0.943657
Si Si4 0.698688 0.657976 0.322999
Si Si5 0.738429 0.910564 0.013004
Si Si6 0.568557 0.660851 0.865005
O O1 0.705214 0.250000 0.168965
O O2 0.750000 0.125958 0.250000
O O3 0.634689 0.124537 0.174078
O O4 0.743584 0.131907 0.080653
O O5 0.930001 0.250000 0.760501
O O6 0.930513 0.359146 0.641415
O O7 0.870558 0.376075 0.794683
O O8 0.000000 0.374036 0.780564
O O9 0.362657 0.250000 0.938062
O O10 0.330762 0.102921 0.945122
O O11 0.432328 0.151450 0.029789
O O12 0.699627 0.750000 0.328825
O O13 0.750000 0.630112 0.250000
O O14 0.710236 0.623409 0.419196
O O15 0.752335 0.000000 0.000000
O O16 0.500000 0.624105 0.831760
O O17 0.568025 0.750000 0.838086
#
# Coordination Sequence:
#
# PCOD8297852 Si02
#       6
#    16  16  16  16  16  16
#     4   9  18  33  51  69  91 124 165 207 246 280
#     4   9  16  26  47  78 105 127 156 198 248 301
#     4   9  15  27  46  71 101 128 156 190 245 304
#     4  10  18  31  52  77 102 129 163 203 250 298
#     4  11  21  31  47  73  99 134 167 204 243 290
#     4   8  13  22  42  70  95 117 146 190 241 291
#
# _framework density 17.419927000000001
#
# number of rings (size 3 to 8) (size 9 to 14) (size 15 to 20)
#    0.000    2.667    1.667    3.000    0.000    2.667 
#    0.000    0.000    0.000   14.000    0.000    4.667 
#    0.000    0.000    0.000    0.000    0.000    0.000 
#
# Total GULP energy -594637.071885 kJ/mol
# GULP energy per Si atom -12388.272331 kJ/mol
# Density = 1.738028 g / cm^3
# Si number density = 17.419927 Si / 1000 Ang^3
#
#
#
# Elastic Constant Matrix: (Units=GPa)
#
#
# Indices 1 2 3 4 5 6 
#
# 1 162.3021 19.8582 79.0409 0.0000 0.0000 0.0000
# 2 19.8582 20.3279 14.2644 0.0000 0.0000 0.0000
# 3 79.0409 14.2644 96.8206 0.0000 0.0000 0.0000
# 4 0.0000 0.0000 0.0000 9.1139 0.0000 0.0000
# 5 0.0000 0.0000 0.0000 0.0000 16.5281 0.0000
# 6 0.0000 0.0000 0.0000 0.0000 0.0000 5.5840
#
#
#
# Elastic Compliance Matrix: (Units=1/GPa)
#
#
# Indices 1 2 3 4 5 6 
#
# 1 0.010630 -0.004790 -0.007972 0.000000 0.000000 0.000000
# 2 -0.004790 0.057024 -0.004491 0.000000 0.000000 0.000000
# 3 -0.007972 -0.004491 0.017498 0.000000 0.000000 0.000000
# 4 0.000000 0.000000 0.000000 0.109723 0.000000 0.000000
# 5 0.000000 0.000000 0.000000 0.000000 0.060503 0.000000
# 6 0.000000 0.000000 0.000000 0.000000 0.000000 0.179084
#
#
# Mechanical properties :
#
#
# Convention : Reuss Voigt Hill
#
# Bulk Modulus (GPa) = 19.74487 56.19751 37.97119
# Shear Modulus (GPa) = 10.29124 17.33099 13.81112
#
# Velocity S-wave (km/s) = 2.43322 3.15762 2.81879
# Velocity P-wave (km/s) = 4.38786 6.75460 5.69552
#
# Compressibility (1/GPa) = 0.05064607
#
# Stress axis : x y z
#
# Youngs Moduli (GPa) = 94.07490 17.53646 57.14892
#
# Poissons Ratio (x) = 0.08400 0.45560
# Poissons Ratio (y) = 0.45062 0.25664
# Poissons Ratio (z) = 0.74997 0.07875
#
# Static dielectric constant tensor:
#      x y z
#    x 3.670540 0.000000 0.000000 
#    y 0.000000 2.784790 0.000000 
#    z 0.000000 0.000000 3.227930 
# 
# 
# High freq. dielectric constant tensor:
#      x y z
#    x 1.678180 0.000000 0.000000 
#    y 0.000000 1.623670 0.000000 
#    z 0.000000 0.000000 1.651460 
# 
# From -- ./inp_files/35614.got.cif
#   From: 2010.03.12/outbox.cif.g09.slc.cpg/sg74_18_cif.got.tgz:35614.got - 2010.04.16 15:46:19.
