data_PCOD8297607
_publ_section_title
;
Structure prediction by ZEFSAII (Michael W. Deem and Ramdas Pophale) SiO2 
 PCOD8297607
Probable space group: I M M A
;
_chemical_formula_sum "Si O2"
_cell_formula_units_Z 104
_cell_length_a 9.660537
_cell_length_b 23.194493
_cell_length_c 24.983536
_cell_angle_alpha 90.000000
_cell_angle_beta 90.000000
_cell_angle_gamma 90.000000
_cell_volume 5598.092336
_symmetry_space_group_name_H-M "I M M A"
_symmetry_group_IT_number 74
_symmetry_cell_setting 'orthorhombic'
loop_
_space_group_symop_operation_xyz
x,y,z
-x,1/2-y,z
x,-y,-z
-x,1/2+y,-z
-x,-y,-z
x,1/2+y,-z
-x,y,z
x,1/2-y,z
1/2+x,1/2+y,1/2+z
1/2-x,-y,1/2+z
1/2+x,1/2-y,1/2-z
1/2-x,y,1/2-z
1/2-x,1/2-y,1/2-z
1/2+x,y,1/2-z
1/2-x,1/2+y,1/2+z
1/2+x,-y,1/2+z
loop_
_atom_site_type_symbol
_atom_site_label
_atom_site_fract_x
_atom_site_fract_y
_atom_site_fract_z
Si Si1 0.342968 0.123336 0.398750
Si Si2 0.159798 0.433270 0.990369
Si Si3 0.340619 0.816273 0.200178
Si Si4 0.161619 0.135028 0.587769
Si Si5 0.849564 0.250000 0.069358
Si Si6 0.354325 0.250000 0.204322
Si Si7 0.160099 0.124161 0.304653
Si Si8 0.837654 0.250000 0.529753
O O1 0.500000 0.101251 0.388629
O O2 0.292333 0.102600 0.457289
O O3 0.338300 0.192932 0.394256
O O4 0.243447 0.093838 0.353484
O O5 0.249809 0.415931 0.938621
O O6 0.000000 0.420434 0.977350
O O7 0.187308 0.500000 0.000000
O O8 0.500000 0.821484 0.216924
O O9 0.306340 0.750000 0.184335
O O10 0.250000 0.837399 0.250000
O O11 0.307540 0.858969 0.150936
O O12 0.212329 0.194260 0.561491
O O13 0.000000 0.123095 0.577368
O O14 0.000000 0.250000 0.039957
O O15 0.725886 0.250000 0.028343
O O16 0.500000 0.250000 0.235063
O O17 0.250000 0.250000 0.250000
O O18 0.342717 0.190043 0.172578
O O19 0.250000 0.116987 0.250000
O O20 0.000000 0.101537 0.297431
O O21 0.000000 0.250000 0.522528
#
# Coordination Sequence:
#
# PCOD8297607 Si02
#       8
#    16  16  16  16   8   8  16   8
#     4  10  20  33  50  74 104 133 168 213 261 312
#     4  10  22  39  57  77 103 137 178 225 273 318
#     4   9  17  30  48  76 114 150 181 213 257 316
#     4  10  19  33  54  79 110 145 179 220 265 316
#     4  10  19  31  48  74 105 138 173 214 260 313
#     4   8  15  26  40  62  93 127 160 191 227 281
#     4  10  19  31  48  70  98 132 168 204 248 300
#     4  10  18  29  48  76 109 141 171 209 263 316
#
# _framework density 18.577757999999999
#
# number of rings (size 3 to 8) (size 9 to 14) (size 15 to 20)
#    0.000    2.308    2.308    0.923    0.000    2.769 
#    0.000    2.308    0.000    0.923    0.000    2.154 
#    0.000    0.000    0.000    0.000    0.000    0.000 
#
# Total GULP energy -644253.799849 kJ/mol
# GULP energy per Si atom -12389.496151 kJ/mol
# Density = 1.853547 g / cm^3
# Si number density = 18.577758 Si / 1000 Ang^3
#
#
#
# Elastic Constant Matrix: (Units=GPa)
#
#
# Indices 1 2 3 4 5 6 
#
# 1 88.9893 29.5357 69.3889 0.0000 0.0000 0.0000
# 2 29.5357 52.6577 29.3412 0.0000 0.0000 0.0000
# 3 69.3889 29.3412 119.1742 0.0000 0.0000 0.0000
# 4 0.0000 0.0000 0.0000 9.6187 0.0000 0.0000
# 5 0.0000 0.0000 0.0000 0.0000 38.3636 0.0000
# 6 0.0000 0.0000 0.0000 0.0000 0.0000 13.8213
#
#
#
# Elastic Compliance Matrix: (Units=1/GPa)
#
#
# Indices 1 2 3 4 5 6 
#
# 1 0.022136 -0.006067 -0.011395 0.000000 0.000000 0.000000
# 2 -0.006067 0.023673 -0.002296 0.000000 0.000000 0.000000
# 3 -0.011395 -0.002296 0.015591 0.000000 0.000000 0.000000
# 4 0.000000 0.000000 0.000000 0.103964 0.000000 0.000000
# 5 0.000000 0.000000 0.000000 0.000000 0.026066 0.000000
# 6 0.000000 0.000000 0.000000 0.000000 0.000000 0.072352
#
#
# Mechanical properties :
#
#
# Convention : Reuss Voigt Hill
#
# Bulk Modulus (GPa) = 45.69463 57.48364 51.58913
# Shear Modulus (GPa) = 16.09823 21.19774 18.64799
#
# Velocity S-wave (km/s) = 2.94689 3.38158 3.17169
# Velocity P-wave (km/s) = 6.01903 6.80118 6.42202
#
# Compressibility (1/GPa) = 0.02188441
#
# Stress axis : x y z
#
# Youngs Moduli (GPa) = 45.17513 42.24268 64.13926
#
# Poissons Ratio (x) = 0.25628 0.73087
# Poissons Ratio (y) = 0.27407 0.14726
# Poissons Ratio (z) = 0.51477 0.09699
#
# Static dielectric constant tensor:
#      x y z
#    x 3.537130 0.000000 0.000000 
#    y 0.000000 3.056150 0.000000 
#    z 0.000000 0.000000 3.257740 
# 
# 
# High freq. dielectric constant tensor:
#      x y z
#    x 1.730380 0.000000 0.000000 
#    y 0.000000 1.676380 0.000000 
#    z 0.000000 0.000000 1.715420 
# 
# From -- ./inp_files/64823.got.cif
#   From: 2010.03.12/outbox.cif.g09.slc.cpg/sg74_33_cif.got.tgz:64823.got - 2010.04.16 15:46:19.
