data_PCOD8297880
_publ_section_title
;
Structure prediction by ZEFSAII (Michael W. Deem and Ramdas Pophale) SiO2 
 PCOD8297880
Probable space group: I M M A
;
_chemical_formula_sum "Si O2"
_cell_formula_units_Z 88
_cell_length_a 14.941556
_cell_length_b 22.908712
_cell_length_c 13.953683
_cell_angle_alpha 90.000000
_cell_angle_beta 90.000000
_cell_angle_gamma 90.000000
_cell_volume 4776.231316
_symmetry_space_group_name_H-M "I M M A"
_symmetry_group_IT_number 74
_symmetry_cell_setting 'orthorhombic'
loop_
_space_group_symop_operation_xyz
x,y,z
-x,1/2-y,z
x,-y,-z
-x,1/2+y,-z
-x,-y,-z
x,1/2+y,-z
-x,y,z
x,1/2-y,z
1/2+x,1/2+y,1/2+z
1/2-x,-y,1/2+z
1/2+x,1/2-y,1/2-z
1/2-x,y,1/2-z
1/2-x,1/2-y,1/2-z
1/2+x,y,1/2-z
1/2-x,1/2+y,1/2+z
1/2+x,-y,1/2+z
loop_
_atom_site_type_symbol
_atom_site_label
_atom_site_fract_x
_atom_site_fract_y
_atom_site_fract_z
Si Si1 0.106560 0.250000 0.182765
Si Si2 0.734125 0.935568 0.456065
Si Si3 0.101441 0.373815 0.459763
Si Si4 0.750000 0.968833 0.250000
Si Si5 0.896307 0.130965 0.086709
Si Si6 0.894146 0.750000 0.602518
Si Si7 0.598877 0.056400 0.228452
O O1 0.139106 0.306593 0.123856
O O2 0.148570 0.250000 0.290207
O O3 0.000000 0.250000 0.190818
O O4 0.834863 0.913689 0.475647
O O5 0.716680 0.932217 0.341547
O O6 0.662722 0.889862 0.497667
O O7 0.719102 0.000000 0.500000
O O8 0.134554 0.306658 0.458975
O O9 0.106421 0.392756 0.349235
O O10 0.000000 0.380338 0.499474
O O11 0.669992 0.006833 0.205618
O O12 0.880682 0.083578 0.168906
O O13 0.000000 0.134150 0.055606
O O14 0.000000 0.750000 0.616588
O O15 0.500000 0.028264 0.226392
#
# Coordination Sequence:
#
# PCOD8297880 Si02
#       7
#     8  16  16   8  16   8  16
#     4   9  16  31  57  87 117 142 169 217 279 336
#     4  12  24  37  55  77 109 149 190 227 267 318
#     4  10  20  35  56  85 116 144 174 216 275 336
#     4  12  24  40  50  74 112 146 190 236 258 306
#     4  10  20  35  56  85 116 144 174 216 275 336
#     4   9  16  31  57  87 117 142 169 217 279 336
#     4  10  18  31  56  84 111 142 175 214 268 330
#
# _framework density 18.424567
#
# number of rings (size 3 to 8) (size 9 to 14) (size 15 to 20)
#    0.000    1.636    5.455    0.000    0.000    2.909 
#    0.000    0.909    0.000    2.182    0.000    3.818 
#    0.000    0.000    0.000    0.000    0.000    0.000 
#
# Total GULP energy -545605.024022 kJ/mol
# GULP energy per Si atom -12400.114182 kJ/mol
# Density = 1.838263 g / cm^3
# Si number density = 18.424567 Si / 1000 Ang^3
#
#
#
# Elastic Constant Matrix: (Units=GPa)
#
#
# Indices 1 2 3 4 5 6 
#
# 1 60.5384 20.6010 7.1554 0.0000 0.0000 0.0000
# 2 20.6010 72.8111 14.3432 0.0001 0.0000 0.0000
# 3 7.1554 14.3432 68.0843 0.0001 0.0000 0.0000
# 4 0.0000 0.0001 0.0001 17.4888 0.0000 0.0000
# 5 0.0000 0.0000 0.0000 0.0000 27.2938 0.0000
# 6 0.0000 0.0000 0.0000 0.0000 0.0000 24.1631
#
#
#
# Elastic Compliance Matrix: (Units=1/GPa)
#
#
# Indices 1 2 3 4 5 6 
#
# 1 0.018328 -0.005014 -0.000870 0.000000 0.000000 0.000000
# 2 -0.005014 0.015701 -0.002781 0.000000 0.000000 0.000000
# 3 -0.000870 -0.002781 0.015365 0.000000 0.000000 0.000000
# 4 0.000000 0.000000 0.000000 0.057180 0.000000 0.000000
# 5 0.000000 0.000000 0.000000 0.000000 0.036638 0.000000
# 6 0.000000 0.000000 0.000000 0.000000 0.000000 0.041386
#
#
# Mechanical properties :
#
#
# Convention : Reuss Voigt Hill
#
# Bulk Modulus (GPa) = 31.18788 31.73699 31.46244
# Shear Modulus (GPa) = 23.51680 24.41139 23.96410
#
# Velocity S-wave (km/s) = 3.57653 3.64392 3.61038
# Velocity P-wave (km/s) = 5.83262 5.91328 5.87309
#
# Compressibility (1/GPa) = 0.03206374
#
# Stress axis : x y z
#
# Youngs Moduli (GPa) = 54.56255 63.69161 65.08348
#
# Poissons Ratio (x) = 0.31936 0.05661
# Poissons Ratio (y) = 0.27359 0.18097
# Poissons Ratio (z) = 0.04746 0.17710
#
# Static dielectric constant tensor:
#      x y z
#    x 3.446450 0.000000 0.000000 
#    y 0.000000 3.395660 0.000000 
#    z 0.000000 0.000000 3.112200 
# 
# 
# High freq. dielectric constant tensor:
#      x y z
#    x 1.720010 0.000000 0.000000 
#    y 0.000000 1.705130 0.000000 
#    z 0.000000 0.000000 1.682410 
# 
# From -- ./inp_files/32243.got.cif
#   From: 2010.03.12/outbox.cif.g09.slc.cpg/sg74_17_cif.got.tgz:32243.got - 2010.04.16 15:46:19.
