data_PCOD8297726
_publ_section_title
;
Structure prediction by ZEFSAII (Michael W. Deem and Ramdas Pophale) SiO2 
 PCOD8297726
Probable space group: I M M A
;
_chemical_formula_sum "Si O2"
_cell_formula_units_Z 104
_cell_length_a 9.038786
_cell_length_b 21.639422
_cell_length_c 27.482479
_cell_angle_alpha 90.000000
_cell_angle_beta 90.000000
_cell_angle_gamma 90.000000
_cell_volume 5375.410873
_symmetry_space_group_name_H-M "I M M A"
_symmetry_group_IT_number 74
_symmetry_cell_setting 'orthorhombic'
loop_
_space_group_symop_operation_xyz
x,y,z
-x,1/2-y,z
x,-y,-z
-x,1/2+y,-z
-x,-y,-z
x,1/2+y,-z
-x,y,z
x,1/2-y,z
1/2+x,1/2+y,1/2+z
1/2-x,-y,1/2+z
1/2+x,1/2-y,1/2-z
1/2-x,y,1/2-z
1/2-x,1/2-y,1/2-z
1/2+x,y,1/2-z
1/2-x,1/2+y,1/2+z
1/2+x,-y,1/2+z
loop_
_atom_site_type_symbol
_atom_site_label
_atom_site_fract_x
_atom_site_fract_y
_atom_site_fract_z
Si Si1 0.675470 0.679646 0.970357
Si Si2 0.827991 0.427227 0.198434
Si Si3 0.836114 0.863493 0.298188
Si Si4 0.169807 0.819796 0.870842
Si Si5 0.324459 0.250000 0.696172
Si Si6 0.824261 0.060194 0.528433
Si Si7 0.664109 0.522280 0.133151
O O1 0.500000 0.678897 0.969172
O O2 0.730212 0.750000 0.984435
O O3 0.731750 0.660738 0.916903
O O4 0.735721 0.626194 0.007221
O O5 0.750000 0.437144 0.250000
O O6 0.793157 0.359483 0.177174
O O7 0.773451 0.473051 0.156422
O O8 0.000000 0.439080 0.207395
O O9 0.750000 0.883770 0.250000
O O10 0.741971 0.811795 0.328256
O O11 0.853858 0.922239 0.330500
O O12 0.000000 0.838001 0.284369
O O13 0.204517 0.750000 0.855353
O O14 0.000000 0.829103 0.886584
O O15 0.500000 0.250000 0.694866
O O16 0.250000 0.250000 0.750000
O O17 0.768570 0.050007 0.583454
O O18 0.000000 0.062781 0.525864
O O19 0.763731 0.000000 0.500000
O O20 0.500000 0.493005 0.124121
#
# Coordination Sequence:
#
# PCOD8297726 Si02
#       7
#    16  16  16  16   8  16  16
#     4   9  17  31  54  83 109 138 180 226 269 318
#     4  11  23  37  55  79 108 143 181 224 272 322
#     4  10  19  32  50  73 100 132 171 210 255 307
#     4   9  19  36  56  79 109 144 179 217 267 326
#     4  10  18  30  50  72  96 128 166 206 250 296
#     4   9  17  31  52  78 107 138 174 219 269 318
#     4  10  21  36  54  78 106 140 178 218 269 319
#
# _framework density 19.347359000000001
#
# number of rings (size 3 to 8) (size 9 to 14) (size 15 to 20)
#    0.000    2.308    0.000    3.923    0.000    5.231 
#    1.385    0.769    0.000    2.769    0.000    0.000 
#    0.000    0.000    0.000    0.000    0.000    0.000 
#
# Total GULP energy -644425.076557 kJ/mol
# GULP energy per Si atom -12392.789934 kJ/mol
# Density = 1.930332 g / cm^3
# Si number density = 19.347359 Si / 1000 Ang^3
#
#
#
# Elastic Constant Matrix: (Units=GPa)
#
#
# Indices 1 2 3 4 5 6 
#
# 1 84.7427 36.7872 31.8843 0.0000 0.0000 0.0000
# 2 36.7872 107.9441 47.1746 0.0000 0.0000 0.0000
# 3 31.8843 47.1746 98.6783 0.0000 0.0000 0.0000
# 4 0.0000 0.0000 0.0000 14.4678 0.0000 0.0000
# 5 0.0000 0.0000 0.0000 0.0000 22.7770 0.0000
# 6 0.0000 0.0000 0.0000 0.0000 0.0000 25.9182
#
#
#
# Elastic Compliance Matrix: (Units=1/GPa)
#
#
# Indices 1 2 3 4 5 6 
#
# 1 0.014492 -0.003656 -0.002935 0.000000 0.000000 0.000000
# 2 -0.003656 0.012633 -0.004858 0.000000 0.000000 0.000000
# 3 -0.002935 -0.004858 0.013405 0.000000 0.000000 0.000000
# 4 0.000000 0.000000 0.000000 0.069119 0.000000 0.000000
# 5 0.000000 0.000000 0.000000 0.000000 0.043904 0.000000
# 6 0.000000 0.000000 0.000000 0.000000 0.000000 0.038583
#
#
# Mechanical properties :
#
#
# Convention : Reuss Voigt Hill
#
# Bulk Modulus (GPa) = 56.71591 58.11747 57.41669
# Shear Modulus (GPa) = 22.63357 24.33386 23.48372
#
# Velocity S-wave (km/s) = 3.42402 3.55030 3.48773
# Velocity P-wave (km/s) = 6.70896 6.84912 6.77940
#
# Compressibility (1/GPa) = 0.01763174
#
# Stress axis : x y z
#
# Youngs Moduli (GPa) = 69.00480 79.15626 74.60123
#
# Poissons Ratio (x) = 0.28942 0.21892
# Poissons Ratio (y) = 0.25230 0.36242
# Poissons Ratio (z) = 0.20250 0.38455
#
# Static dielectric constant tensor:
#      x y z
#    x 3.733980 0.000000 0.000000 
#    y 0.000000 4.162360 0.000000 
#    z 0.000000 0.000000 3.464800 
# 
# 
# High freq. dielectric constant tensor:
#      x y z
#    x 1.737450 0.000000 0.000000 
#    y 0.000000 1.770620 0.000000 
#    z 0.000000 0.000000 1.736150 
# 
# From -- ./inp_files/70580.got.cif
#   From: 2010.03.12/outbox.cif.g09.slc.cpg/sg74_36_cif.got.tgz:70580.got - 2010.04.16 15:46:19.
