data_PCOD8297068
_publ_section_title
;
Structure prediction by ZEFSAII (Michael W. Deem and Ramdas Pophale) SiO2 
 PCOD8297068
Probable space group: I B C A 
;
_chemical_formula_sum "Si O2"
_cell_formula_units_Z 80
_cell_length_a 20.241152
_cell_length_b 8.628012
_cell_length_c 21.065159
_cell_angle_alpha 90.000000
_cell_angle_beta 90.000000
_cell_angle_gamma 90.000000
_cell_volume 3678.838376
_symmetry_space_group_name_H-M "I B C A "
_symmetry_group_IT_number 73
_symmetry_cell_setting 'orthorhombic'
loop_
_space_group_symop_operation_xyz
x,y,z
-x,1/2-y,z
x,-y,1/2-z
1/2-x,y,-z
-x,-y,-z
x,1/2+y,-z
-x,y,1/2+z
1/2+x,-y,z
1/2+x,1/2+y,1/2+z
1/2-x,-y,1/2+z
1/2+x,1/2-y,-z
-x,1/2+y,1/2-z
1/2-x,1/2-y,1/2-z
1/2+x,y,1/2-z
1/2-x,1/2+y,z
x,1/2-y,1/2+z
loop_
_atom_site_type_symbol
_atom_site_label
_atom_site_fract_x
_atom_site_fract_y
_atom_site_fract_z
Si Si1 0.825060 0.024068 0.974727
Si Si2 0.797998 0.525913 0.818397
Si Si3 0.439023 0.000000 0.750000
Si Si4 0.667026 0.374743 0.842310
Si Si5 0.500000 0.250000 0.659766
Si Si6 0.872664 0.338264 0.918634
O O1 0.836246 0.200134 0.955192
O O2 0.844176 0.915192 0.915624
O O3 0.750000 0.001013 0.000000
O O4 0.876976 0.977961 0.030290
O O5 0.831057 0.500000 0.750000
O O6 0.719877 0.495517 0.814031
O O7 0.810085 0.697692 0.842644
O O8 0.825896 0.391902 0.862303
O O9 0.397137 0.106865 0.798108
O O10 0.484345 0.106056 0.705262
O O11 0.558073 0.208026 0.611272
#
# Coordination Sequence:
#
# PCOD8297068 Si02
#       6
#    16  16   8  16   8  16
#     4  12  25  46  77 112 149 188 245 315 385 451
#     4  12  25  42  75 111 148 189 236 311 384 449
#     4  12  28  52  74 106 150 200 256 310 360 446
#     4  12  25  45  75 113 150 187 240 310 386 443
#     4  12  30  52  72 104 150 206 260 302 364 446
#     4  12  27  48  72 109 150 199 248 303 372 452
#
# _framework density 21.745994
#
# number of rings (size 3 to 8) (size 9 to 14) (size 15 to 20)
#    0.000    0.000    5.000    4.800    4.200    0.800 
#    0.000    0.000    0.000    0.000    0.000    0.000 
#    0.000    0.000    0.000    0.000    0.000    0.000 
#
# Total GULP energy -496021.278687 kJ/mol
# GULP energy per Si atom -12400.531967 kJ/mol
# Density = 2.169650 g / cm^3
# Si number density = 21.745994 Si / 1000 Ang^3
#
#
#
# Elastic Constant Matrix: (Units=GPa)
#
#
# Indices 1 2 3 4 5 6 
#
# 1 73.3018 31.1212 44.3590 0.0000 0.0000 0.0000
# 2 31.1212 120.6674 47.2659 0.0000 0.0000 0.0000
# 3 44.3590 47.2659 171.0765 0.0000 0.0000 0.0000
# 4 0.0000 0.0000 0.0000 769.2596 0.0000 0.0000
# 5 0.0000 0.0000 0.0000 0.0000 3.6316 0.0000
# 6 0.0000 0.0000 0.0000 0.0000 0.0000 20.4193
#
#
#
# Elastic Compliance Matrix: (Units=1/GPa)
#
#
# Indices 1 2 3 4 5 6 
#
# 1 0.017096 -0.002997 -0.003605 0.000000 0.000000 0.000000
# 2 -0.002997 0.009818 -0.001936 0.000000 0.000000 0.000000
# 3 -0.003605 -0.001936 0.007315 0.000000 0.000000 0.000000
# 4 0.000000 0.000000 0.000000 0.001300 0.000000 0.000000
# 5 0.000000 0.000000 0.000000 0.000000 0.275361 0.000000
# 6 0.000000 0.000000 0.000000 0.000000 0.000000 0.048973
#
#
# Mechanical properties :
#
#
# Convention : Reuss Voigt Hill
#
# Bulk Modulus (GPa) = 58.29462 67.83756 63.06609
# Shear Modulus (GPa) = 13.06653 174.81539 93.94096
#
# Velocity S-wave (km/s) = 2.45393 8.97576 6.57974
# Velocity P-wave (km/s) = 5.90714 11.77634 9.31602
#
# Compressibility (1/GPa) = 0.01715424
#
# Stress axis : x y z
#
# Youngs Moduli (GPa) = 58.49236 101.84951 136.70902
#
# Poissons Ratio (x) = 0.30527 0.49282
# Poissons Ratio (y) = 0.17532 0.26460
# Poissons Ratio (z) = 0.21086 0.19713
#
# Static dielectric constant tensor:
#      x y z
#    x 3.891730 0.000000 0.000000 
#    y 0.000000 3.963080 0.000000 
#    z 0.000000 0.000000 4.411130 
# 
# 
# High freq. dielectric constant tensor:
#      x y z
#    x 1.829810 0.000000 0.000000 
#    y 0.000000 1.868540 0.000000 
#    z 0.000000 0.000000 1.888970 
# 
# From -- ./inp_files/30035.got.cif
#   From: 2010.03.12/outbox.cif.g09.slc.cpg/sg73_16_cif.got.tgz:30035.got - 2010.04.16 15:25:48.
