data_PCOD8297522
_publ_section_title
;
Structure prediction by ZEFSAII (Michael W. Deem and Ramdas Pophale) SiO2 
 PCOD8297522
Probable space group: I M M A
;
_chemical_formula_sum "Si O2"
_cell_formula_units_Z 76
_cell_length_a 13.305882
_cell_length_b 11.866212
_cell_length_c 30.556563
_cell_angle_alpha 90.000000
_cell_angle_beta 90.000000
_cell_angle_gamma 90.000000
_cell_volume 4824.588464
_symmetry_space_group_name_H-M "I M M A"
_symmetry_group_IT_number 74
_symmetry_cell_setting 'orthorhombic'
loop_
_space_group_symop_operation_xyz
x,y,z
-x,1/2-y,z
x,-y,-z
-x,1/2+y,-z
-x,-y,-z
x,1/2+y,-z
-x,y,z
x,1/2-y,z
1/2+x,1/2+y,1/2+z
1/2-x,-y,1/2+z
1/2+x,1/2-y,1/2-z
1/2-x,y,1/2-z
1/2-x,1/2-y,1/2-z
1/2+x,y,1/2-z
1/2-x,1/2+y,1/2+z
1/2+x,-y,1/2+z
loop_
_atom_site_type_symbol
_atom_site_label
_atom_site_fract_x
_atom_site_fract_y
_atom_site_fract_z
Si Si1 0.500000 0.250000 0.677507
Si Si2 0.000000 0.873488 0.261984
Si Si3 0.115904 0.984861 0.452492
Si Si4 0.382059 0.382640 0.131045
Si Si5 0.778748 0.250000 0.833405
Si Si6 0.614490 0.250000 0.908767
Si Si7 0.701199 0.974444 0.207083
O O1 0.500000 0.360580 0.709108
O O2 0.395793 0.250000 0.649363
O O3 0.091186 0.942907 0.279459
O O4 0.000000 0.750000 0.284363
O O5 0.158312 0.069029 0.415365
O O6 0.000000 0.015961 0.457888
O O7 0.169293 0.000000 0.500000
O O8 0.133299 0.856961 0.438764
O O9 0.500000 0.414164 0.138196
O O10 0.365538 0.250000 0.131918
O O11 0.309251 0.437478 0.167427
O O12 0.696193 0.250000 0.870928
O O13 0.765033 0.137522 0.804646
O O14 0.500000 0.250000 0.889617
O O15 0.750000 0.032875 0.250000
#
# Coordination Sequence:
#
# PCOD8297522 Si02
#       7
#     4   8  16  16   8   8  16
#     4  10  20  34  44  74 106 130 164 210 268 292
#     4  10  18  28  45  71  97 121 163 204 257 301
#     4   9  18  31  48  72 104 134 159 197 245 307
#     4  10  21  33  46  68 100 137 170 206 250 298
#     4  12  20  31  49  78 102 130 166 209 259 297
#     4  10  20  30  51  82 103 132 167 201 248 310
#     4  12  20  31  50  69  97 133 171 208 248 298
#
# _framework density 15.752637999999999
#
# number of rings (size 3 to 8) (size 9 to 14) (size 15 to 20)
#    0.316    1.263    6.316    0.316    2.947    0.421 
#    0.000    0.000    0.000    0.000    0.000    0.737 
#    0.000    0.000    0.000    0.000    0.000    0.000 
#
# Total GULP energy -470857.937632 kJ/mol
# GULP energy per Si atom -12390.998359 kJ/mol
# Density = 1.571678 g / cm^3
# Si number density = 15.752638 Si / 1000 Ang^3
#
#
#
# Elastic Constant Matrix: (Units=GPa)
#
#
# Indices 1 2 3 4 5 6 
#
# 1 79.7075 21.7110 37.2564 0.0000 0.0000 0.0000
# 2 21.7110 91.6764 52.5278 0.0000 0.0000 0.0000
# 3 37.2564 52.5278 134.6355 0.0000 0.0000 0.0000
# 4 0.0000 0.0000 0.0000 19.0004 0.0000 0.0000
# 5 0.0000 0.0000 0.0000 0.0000 21.6083 0.0000
# 6 0.0000 0.0000 0.0000 0.0000 0.0000 2.4992
#
#
#
# Elastic Compliance Matrix: (Units=1/GPa)
#
#
# Indices 1 2 3 4 5 6 
#
# 1 0.014561 -0.001468 -0.003457 0.000000 0.000000 0.000000
# 2 -0.001468 0.014196 -0.005132 0.000000 0.000000 0.000000
# 3 -0.003457 -0.005132 0.010386 0.000000 0.000000 0.000000
# 4 0.000000 0.000000 0.000000 0.052630 0.000000 0.000000
# 5 0.000000 0.000000 0.000000 0.000000 0.046279 0.000000
# 6 0.000000 0.000000 0.000000 0.000000 0.000000 0.400132
#
#
# Mechanical properties :
#
#
# Convention : Reuss Voigt Hill
#
# Bulk Modulus (GPa) = 52.54860 58.77887 55.66374
# Shear Modulus (GPa) = 8.85515 21.58986 15.22251
#
# Velocity S-wave (km/s) = 2.37352 3.70612 3.11198
# Velocity P-wave (km/s) = 6.39863 7.46381 6.95165
#
# Compressibility (1/GPa) = 0.01903000
#
# Stress axis : x y z
#
# Youngs Moduli (GPa) = 68.67457 70.44091 96.27932
#
# Poissons Ratio (x) = 0.10340 0.33282
# Poissons Ratio (y) = 0.10080 0.49415
# Poissons Ratio (z) = 0.23739 0.36154
#
# Static dielectric constant tensor:
#      x y z
#    x 2.944830 0.000000 0.000000 
#    y 0.000000 5.081730 0.000000 
#    z 0.000000 0.000000 3.217390 
# 
# 
# High freq. dielectric constant tensor:
#      x y z
#    x 1.566560 0.000000 0.000000 
#    y 0.000000 1.597800 0.000000 
#    z 0.000000 0.000000 1.604640 
# 
# From -- ./inp_files/66919.got.cif
#   From: 2010.03.12/outbox.cif.g09.slc.cpg/sg74_34_cif.got.tgz:66919.got - 2010.04.16 15:46:19.
