data_PCOD8297527
_publ_section_title
;
Structure prediction by ZEFSAII (Michael W. Deem and Ramdas Pophale) SiO2 
 PCOD8297527
Probable space group: I M M A
;
_chemical_formula_sum "Si O2"
_cell_formula_units_Z 112
_cell_length_a 30.036090
_cell_length_b 14.409499
_cell_length_c 14.510943
_cell_angle_alpha 90.000000
_cell_angle_beta 90.000000
_cell_angle_gamma 90.000000
_cell_volume 6280.408813
_symmetry_space_group_name_H-M "I M M A"
_symmetry_group_IT_number 74
_symmetry_cell_setting 'orthorhombic'
loop_
_space_group_symop_operation_xyz
x,y,z
-x,1/2-y,z
x,-y,-z
-x,1/2+y,-z
-x,-y,-z
x,1/2+y,-z
-x,y,z
x,1/2-y,z
1/2+x,1/2+y,1/2+z
1/2-x,-y,1/2+z
1/2+x,1/2-y,1/2-z
1/2-x,y,1/2-z
1/2-x,1/2-y,1/2-z
1/2+x,y,1/2-z
1/2-x,1/2+y,1/2+z
1/2+x,-y,1/2+z
loop_
_atom_site_type_symbol
_atom_site_label
_atom_site_fract_x
_atom_site_fract_y
_atom_site_fract_z
Si Si1 0.448793 0.642863 0.558884
Si Si2 0.869834 0.018406 0.354311
Si Si3 0.343835 0.641079 0.015370
Si Si4 0.180843 0.088417 0.786495
Si Si5 0.261822 0.852114 0.124128
Si Si6 0.410694 0.854968 0.366789
Si Si7 0.449000 0.520801 0.731168
O O1 0.500000 0.619977 0.534181
O O2 0.442267 0.750000 0.583908
O O3 0.418594 0.612562 0.472168
O O4 0.432942 0.585511 0.647286
O O5 0.852303 0.106094 0.411816
O O6 0.919483 0.043267 0.320816
O O7 0.872131 0.922837 0.413790
O O8 0.837706 0.004237 0.264479
O O9 0.356706 0.750000 0.025929
O O10 0.291123 0.623418 0.034070
O O11 0.221962 0.072783 0.859084
O O12 0.202588 0.153545 0.708197
O O13 0.141140 0.137706 0.841281
O O14 0.240225 0.750000 0.113173
O O15 0.427360 0.750000 0.355694
O O16 0.441060 0.914509 0.297954
O O17 0.500000 0.538739 0.757934
#
# Coordination Sequence:
#
# PCOD8297527 Si02
#       7
#    16  16  16  16  16  16  16
#     4   9  18  32  49  68  93 130 170 202 238 291
#     4   9  19  33  52  75 102 126 166 203 250 299
#     4   9  18  34  55  76  98 130 166 204 251 301
#     4   9  16  27  47  73 102 125 158 200 238 285
#     4   9  15  26  49  74  96 124 162 202 246 291
#     4  10  18  28  46  72 103 132 162 201 245 289
#     4  10  20  33  50  70  98 132 166 205 247 298
#
# _framework density 17.833234000000001
#
# number of rings (size 3 to 8) (size 9 to 14) (size 15 to 20)
#    0.000    2.714    0.000    2.571    0.000    6.571 
#    0.000    1.429   40.857    0.857    0.000   18.000 
#    0.000    0.000    0.000    0.000    0.000    0.000 
#
# Total GULP energy -693924.820708 kJ/mol
# GULP energy per Si atom -12391.514655 kJ/mol
# Density = 1.779264 g / cm^3
# Si number density = 17.833234 Si / 1000 Ang^3
#
#
#
# Elastic Constant Matrix: (Units=GPa)
#
#
# Indices 1 2 3 4 5 6 
#
# 1 101.2536 29.6380 58.9145 0.0000 0.0000 0.0000
# 2 29.6380 61.6299 36.3094 0.0000 0.0000 0.0000
# 3 58.9145 36.3094 87.1077 0.0000 0.0000 0.0000
# 4 0.0000 0.0000 0.0000 22.8438 0.0000 0.0000
# 5 0.0000 0.0000 0.0000 0.0000 33.3487 0.0000
# 6 0.0000 0.0000 0.0000 0.0000 0.0000 16.4748
#
#
#
# Elastic Compliance Matrix: (Units=1/GPa)
#
#
# Indices 1 2 3 4 5 6 
#
# 1 0.016433 -0.001796 -0.010366 0.000000 0.000000 0.000000
# 2 -0.001796 0.021704 -0.007832 0.000000 0.000000 0.000000
# 3 -0.010366 -0.007832 0.021756 0.000000 0.000000 0.000000
# 4 0.000000 0.000000 0.000000 0.043776 0.000000 0.000000
# 5 0.000000 0.000000 0.000000 0.000000 0.029986 0.000000
# 6 0.000000 0.000000 0.000000 0.000000 0.000000 0.060699
#
#
# Mechanical properties :
#
#
# Convention : Reuss Voigt Hill
#
# Bulk Modulus (GPa) = 50.23913 55.52391 52.88152
# Shear Modulus (GPa) = 20.74889 22.87540 21.81215
#
# Velocity S-wave (km/s) = 3.41471 3.58542 3.50110
# Velocity P-wave (km/s) = 6.61663 6.95291 6.78685
#
# Compressibility (1/GPa) = 0.01990480
#
# Stress axis : x y z
#
# Youngs Moduli (GPa) = 60.85211 46.07453 45.96466
#
# Poissons Ratio (x) = 0.08273 0.47647
# Poissons Ratio (y) = 0.10927 0.36002
# Poissons Ratio (z) = 0.63079 0.36088
#
# Static dielectric constant tensor:
#      x y z
#    x 3.371020 0.000000 0.000000 
#    y 0.000000 3.188750 0.000000 
#    z 0.000000 0.000000 3.303630 
# 
# 
# High freq. dielectric constant tensor:
#      x y z
#    x 1.681950 0.000000 0.000000 
#    y 0.000000 1.673390 0.000000 
#    z 0.000000 0.000000 1.676540 
# 
# From -- ./inp_files/37964.got.cif
#   From: 2010.03.12/outbox.cif.g09.slc.cpg/sg74_19_cif.got.tgz:37964.got - 2010.04.16 15:46:19.
