data_PCOD8297955
_publ_section_title
;
Structure prediction by ZEFSAII (Michael W. Deem and Ramdas Pophale) SiO2 
 PCOD8297955
Probable space group: I M M A
;
_chemical_formula_sum "Si O2"
_cell_formula_units_Z 128
_cell_length_a 17.719416
_cell_length_b 22.569245
_cell_length_c 17.254878
_cell_angle_alpha 90.000000
_cell_angle_beta 90.000000
_cell_angle_gamma 90.000000
_cell_volume 6900.464536
_symmetry_space_group_name_H-M "I M M A"
_symmetry_group_IT_number 74
_symmetry_cell_setting 'orthorhombic'
loop_
_space_group_symop_operation_xyz
x,y,z
-x,1/2-y,z
x,-y,-z
-x,1/2+y,-z
-x,-y,-z
x,1/2+y,-z
-x,y,z
x,1/2-y,z
1/2+x,1/2+y,1/2+z
1/2-x,-y,1/2+z
1/2+x,1/2-y,1/2-z
1/2-x,y,1/2-z
1/2-x,1/2-y,1/2-z
1/2+x,y,1/2-z
1/2-x,1/2+y,1/2+z
1/2+x,-y,1/2+z
loop_
_atom_site_type_symbol
_atom_site_label
_atom_site_fract_x
_atom_site_fract_y
_atom_site_fract_z
Si Si1 0.805713 0.960590 0.430565
Si Si2 0.831269 0.181430 0.785135
Si Si3 0.769278 0.938740 0.838300
Si Si4 0.086515 0.913311 0.307578
Si Si5 0.586235 0.992493 0.338981
Si Si6 0.272106 0.812925 0.661074
Si Si7 0.656310 0.108147 0.563263
Si Si8 0.584898 0.683605 0.572457
O O1 0.868940 0.921760 0.388251
O O2 0.736968 0.920110 0.461846
O O3 0.840454 0.000000 0.500000
O O4 0.776322 0.005610 0.366628
O O5 0.852447 0.250000 0.785227
O O6 0.750000 0.167892 0.750000
O O7 0.892318 0.148937 0.731559
O O8 0.831007 0.158117 0.872428
O O9 0.750000 0.930564 0.750000
O O10 0.743647 0.875166 0.877100
O O11 0.858987 0.951066 0.851177
O O12 0.103105 0.965423 0.245997
O O13 0.000000 0.911319 0.331423
O O14 0.500000 0.013958 0.346388
O O15 0.601727 0.943162 0.404506
O O16 0.242943 0.750000 0.622419
O O17 0.250000 0.810252 0.750000
O O18 0.363154 0.816084 0.649789
O O19 0.617868 0.137532 0.489604
O O20 0.500000 0.664625 0.595503
O O21 0.584682 0.750000 0.536081
#
# Coordination Sequence:
#
# PCOD8297955 Si02
#       8
#    16  16  16  16  16  16  16  16
#     4  11  21  33  52  78 107 142 189 230 279 327
#     4  10  19  33  56  83 112 150 195 232 272 337
#     4  10  18  32  54  72  99 134 169 221 270 327
#     4  10  20  35  52  75 109 145 186 236 281 323
#     4   9  18  30  50  77 104 139 177 216 268 331
#     4   9  19  35  54  76  99 133 180 224 268 323
#     4  10  19  32  53  79 116 151 185 226 273 333
#     4  10  20  34  52  78 114 149 179 221 279 335
#
# _framework density 18.549475999999999
#
# number of rings (size 3 to 8) (size 9 to 14) (size 15 to 20)
#    0.000    2.125    2.500    1.500    0.000    1.500 
#    0.000    0.000    0.000    4.125    0.000    0.000 
#    0.000    0.000    0.000    0.000    0.000    0.000 
#
# Total GULP energy -792926.595861 kJ/mol
# GULP energy per Si atom -12389.478060 kJ/mol
# Density = 1.850726 g / cm^3
# Si number density = 18.549476 Si / 1000 Ang^3
#
#
#
# Elastic Constant Matrix: (Units=GPa)
#
#
# Indices 1 2 3 4 5 6 
#
# 1 82.2450 38.6161 37.0917 0.0000 0.0000 0.0000
# 2 38.6161 102.3948 19.4134 0.0000 0.0000 0.0000
# 3 37.0917 19.4134 71.5913 0.0001 0.0000 0.0000
# 4 0.0000 0.0000 0.0001 25.6231 0.0000 0.0000
# 5 0.0000 0.0000 0.0000 0.0000 26.1196 0.0000
# 6 0.0000 0.0000 0.0000 0.0000 0.0000 15.0572
#
#
#
# Elastic Compliance Matrix: (Units=1/GPa)
#
#
# Indices 1 2 3 4 5 6 
#
# 1 0.018305 -0.005382 -0.008024 0.000000 0.000000 0.000000
# 2 -0.005382 0.011878 -0.000433 0.000000 0.000000 0.000000
# 3 -0.008024 -0.000433 0.018243 0.000000 0.000000 0.000000
# 4 0.000000 0.000000 0.000000 0.039027 0.000000 0.000000
# 5 0.000000 0.000000 0.000000 0.000000 0.038285 0.000000
# 6 0.000000 0.000000 0.000000 0.000000 0.000000 0.066414
#
#
# Mechanical properties :
#
#
# Convention : Reuss Voigt Hill
#
# Bulk Modulus (GPa) = 48.19762 49.60818 48.90290
# Shear Modulus (GPa) = 22.05121 24.10062 23.07592
#
# Velocity S-wave (km/s) = 3.45161 3.60844 3.53089
# Velocity P-wave (km/s) = 6.47491 6.64551 6.56077
#
# Compressibility (1/GPa) = 0.02074791
#
# Stress axis : x y z
#
# Youngs Moduli (GPa) = 54.63114 84.19076 54.81589
#
# Poissons Ratio (x) = 0.45310 0.43986
# Poissons Ratio (y) = 0.29402 0.02371
# Poissons Ratio (z) = 0.43838 0.03642
#
# Static dielectric constant tensor:
#      x y z
#    x 3.330710 0.000000 0.000000 
#    y 0.000000 3.896850 0.000000 
#    z 0.000000 0.000000 3.301270 
# 
# 
# High freq. dielectric constant tensor:
#      x y z
#    x 1.701050 0.000000 0.000000 
#    y 0.000000 1.737620 0.000000 
#    z 0.000000 0.000000 1.704800 
# 
# From -- ./inp_files/44626.got.cif
#   From: 2010.03.12/outbox.cif.g09.slc.cpg/sg74_23_cif.got.tgz:44626.got - 2010.04.16 15:46:19.
