data_PCOD8297366
_publ_section_title
;
Structure prediction by ZEFSAII (Michael W. Deem and Ramdas Pophale) SiO2 
 PCOD8297366
Probable space group: I M M A
;
_chemical_formula_sum "Si O2"
_cell_formula_units_Z 96
_cell_length_a 26.443385
_cell_length_b 9.645973
_cell_length_c 20.253289
_cell_angle_alpha 90.000000
_cell_angle_beta 90.000000
_cell_angle_gamma 90.000000
_cell_volume 5166.050532
_symmetry_space_group_name_H-M "I M M A"
_symmetry_group_IT_number 74
_symmetry_cell_setting 'orthorhombic'
loop_
_space_group_symop_operation_xyz
x,y,z
-x,1/2-y,z
x,-y,-z
-x,1/2+y,-z
-x,-y,-z
x,1/2+y,-z
-x,y,z
x,1/2-y,z
1/2+x,1/2+y,1/2+z
1/2-x,-y,1/2+z
1/2+x,1/2-y,1/2-z
1/2-x,y,1/2-z
1/2-x,1/2-y,1/2-z
1/2+x,y,1/2-z
1/2-x,1/2+y,1/2+z
1/2+x,-y,1/2+z
loop_
_atom_site_type_symbol
_atom_site_label
_atom_site_fract_x
_atom_site_fract_y
_atom_site_fract_z
Si Si1 0.697076 0.415947 0.933271
Si Si2 0.556393 0.597603 0.605100
Si Si3 0.598899 0.913160 0.147155
Si Si4 0.000000 0.584071 0.432108
Si Si5 0.869394 0.000000 0.000000
Si Si6 0.389540 0.083981 0.704883
Si Si7 0.302454 0.905602 0.384852
O O1 0.699344 0.250000 0.946684
O O2 0.648718 0.460564 0.891074
O O3 0.747075 0.472933 0.895005
O O4 0.692363 0.500000 0.000000
O O5 0.500000 0.571061 0.577869
O O6 0.560711 0.750000 0.637842
O O7 0.595087 0.597183 0.544059
O O8 0.566818 0.481158 0.659952
O O9 0.596462 0.750000 0.152669
O O10 0.548903 0.965172 0.109393
O O11 0.602574 0.973125 0.221250
O O12 0.000000 0.500000 0.500000
O O13 0.000000 0.750000 0.445668
O O14 0.833836 0.908165 0.046992
O O15 0.393474 0.250000 0.699768
O O16 0.335363 0.029392 0.675396
O O17 0.291462 0.750000 0.364135
#
# Coordination Sequence:
#
# PCOD8297366 Si02
#       7
#    16  16  16   8   8  16  16
#     4  10  19  33  52  78 104 133 168 213 260 309
#     4  10  21  34  50  75 108 140 174 218 260 300
#     4   9  19  34  55  77 103 133 172 215 258 309
#     4  10  20  36  56  80 104 133 170 215 262 311
#     4  10  17  32  50  72 100 141 174 208 252 302
#     4   9  19  35  53  76 101 138 178 212 256 310
#     4   9  17  29  49  75 102 130 170 211 252 299
#
# _framework density 18.582861999999999
#
# number of rings (size 3 to 8) (size 9 to 14) (size 15 to 20)
#    0.000    2.500    0.833    1.250    1.167    1.667 
#    0.000    5.000    0.000    0.000    0.000    3.500 
#    0.000    0.000    0.000    0.000    0.000    0.000 
#
# Total GULP energy -594837.046334 kJ/mol
# GULP energy per Si atom -12392.438465 kJ/mol
# Density = 1.854057 g / cm^3
# Si number density = 18.582862 Si / 1000 Ang^3
#
#
#
# Elastic Constant Matrix: (Units=GPa)
#
#
# Indices 1 2 3 4 5 6 
#
# 1 170.6002 24.5714 78.4082 0.0000 0.0000 0.0000
# 2 24.5714 40.2586 25.7347 0.0000 0.0000 0.0000
# 3 78.4082 25.7347 138.5813 0.0000 0.0000 0.0000
# 4 0.0000 0.0000 0.0000 25.3854 0.0000 0.0000
# 5 0.0000 0.0000 0.0000 0.0000 23.5509 0.0000
# 6 0.0000 0.0000 0.0000 0.0000 0.0000 16.9075
#
#
#
# Elastic Compliance Matrix: (Units=1/GPa)
#
#
# Indices 1 2 3 4 5 6 
#
# 1 0.008103 -0.002286 -0.004160 0.000000 0.000000 0.000000
# 2 -0.002286 0.028830 -0.004060 0.000000 0.000000 0.000000
# 3 -0.004160 -0.004060 0.010324 0.000000 0.000000 0.000000
# 4 0.000000 0.000000 0.000000 0.039393 0.000000 0.000000
# 5 0.000000 0.000000 0.000000 0.000000 0.042461 0.000000
# 6 0.000000 0.000000 0.000000 0.000000 0.000000 0.059145
#
#
# Mechanical properties :
#
#
# Convention : Reuss Voigt Hill
#
# Bulk Modulus (GPa) = 38.10430 67.42988 52.76709
# Shear Modulus (GPa) = 22.93399 27.88382 25.40890
#
# Velocity S-wave (km/s) = 3.51685 3.87785 3.70175
# Velocity P-wave (km/s) = 6.08610 7.51100 6.83578
#
# Compressibility (1/GPa) = 0.02624375
#
# Stress axis : x y z
#
# Youngs Moduli (GPa) = 123.41271 34.68575 96.86488
#
# Poissons Ratio (x) = 0.07930 0.40296
# Poissons Ratio (y) = 0.28216 0.39330
# Poissons Ratio (z) = 0.51339 0.14083
#
# Static dielectric constant tensor:
#      x y z
#    x 3.952500 0.000000 0.000000 
#    y 0.000000 3.070600 0.000000 
#    z 0.000000 0.000000 3.502980 
# 
# 
# High freq. dielectric constant tensor:
#      x y z
#    x 1.739000 0.000000 0.000000 
#    y 0.000000 1.682700 0.000000 
#    z 0.000000 0.000000 1.717490 
# 
# From -- ./inp_files/54684.got.cif
#   From: 2010.03.12/outbox.cif.g09.slc.cpg/sg74_28_cif.got.tgz:54684.got - 2010.04.16 15:46:19.
