data_PCOD8297467
_publ_section_title
;
Structure prediction by ZEFSAII (Michael W. Deem and Ramdas Pophale) SiO2 
 PCOD8297467
Probable space group: I M M A
;
_chemical_formula_sum "Si O2"
_cell_formula_units_Z 96
_cell_length_a 9.173407
_cell_length_b 29.309909
_cell_length_c 23.595358
_cell_angle_alpha 90.000000
_cell_angle_beta 90.000000
_cell_angle_gamma 90.000000
_cell_volume 6344.124593
_symmetry_space_group_name_H-M "I M M A"
_symmetry_group_IT_number 74
_symmetry_cell_setting 'orthorhombic'
loop_
_space_group_symop_operation_xyz
x,y,z
-x,1/2-y,z
x,-y,-z
-x,1/2+y,-z
-x,-y,-z
x,1/2+y,-z
-x,y,z
x,1/2-y,z
1/2+x,1/2+y,1/2+z
1/2-x,-y,1/2+z
1/2+x,1/2-y,1/2-z
1/2-x,y,1/2-z
1/2-x,1/2-y,1/2-z
1/2+x,y,1/2-z
1/2-x,1/2+y,1/2+z
1/2+x,-y,1/2+z
loop_
_atom_site_type_symbol
_atom_site_label
_atom_site_fract_x
_atom_site_fract_y
_atom_site_fract_z
Si Si1 0.667833 0.303774 0.307559
Si Si2 0.664276 0.135486 0.106036
Si Si3 0.168947 0.471034 0.914821
Si Si4 0.158445 0.935789 0.702141
Si Si5 0.327175 0.538415 0.194419
Si Si6 0.831213 0.567787 0.963473
O O1 0.500000 0.320229 0.303350
O O2 0.677024 0.250000 0.315919
O O3 0.750000 0.318643 0.250000
O O4 0.744894 0.324901 0.363004
O O5 0.500000 0.152979 0.091844
O O6 0.656990 0.091573 0.145143
O O7 0.744387 0.114701 0.051041
O O8 0.260664 0.444944 0.865497
O O9 0.221374 0.523020 0.928197
O O10 0.000000 0.471554 0.897269
O O11 0.193889 0.440515 0.970301
O O12 0.250000 0.909083 0.750000
O O13 0.000000 0.941628 0.728672
O O14 0.223167 0.985755 0.691943
O O15 0.500000 0.547312 0.196447
O O16 0.250000 0.561110 0.250000
O O17 0.000000 0.576489 0.949739
#
# Coordination Sequence:
#
# PCOD8297467 Si02
#       6
#    16  16  16  16  16  16
#     4  10  21  36  51  66  85 110 140 177 224 273
#     4  11  20  30  44  64  84 104 137 174 213 259
#     4   9  17  30  44  59  80 108 140 174 212 255
#     4   9  18  27  35  52  75  99 127 164 207 246
#     4  10  18  28  40  56  78 104 135 171 210 250
#     4   9  18  30  44  60  81 109 139 172 213 255
#
# _framework density 15.132111999999999
#
# number of rings (size 3 to 8) (size 9 to 14) (size 15 to 20)
#    0.000    2.333    1.667    3.000    0.000    5.000 
#    0.000    1.667    0.000    0.000    0.000    0.000 
#    0.000    0.000    0.000    0.000    0.000    0.833 
#
# Total GULP energy -594780.691903 kJ/mol
# GULP energy per Si atom -12391.264415 kJ/mol
# Density = 1.509767 g / cm^3
# Si number density = 15.132112 Si / 1000 Ang^3
#
#
#
# Elastic Constant Matrix: (Units=GPa)
#
#
# Indices 1 2 3 4 5 6 
#
# 1 94.0757 22.5659 46.1402 0.0000 0.0000 0.0000
# 2 22.5659 31.8153 14.4370 0.0000 0.0000 0.0000
# 3 46.1402 14.4370 87.9551 0.0001 0.0000 -0.0001
# 4 0.0000 0.0000 0.0001 21.6238 0.0000 0.0000
# 5 0.0000 0.0000 0.0000 0.0000 29.0221 0.0000
# 6 0.0000 0.0000 -0.0001 0.0000 0.0000 31.3184
#
#
#
# Elastic Compliance Matrix: (Units=1/GPa)
#
#
# Indices 1 2 3 4 5 6 
#
# 1 0.016067 -0.008181 -0.007086 0.000000 0.000000 0.000000
# 2 -0.008181 0.038126 -0.001967 0.000000 0.000000 0.000000
# 3 -0.007086 -0.001967 0.015409 0.000000 0.000000 0.000000
# 4 0.000000 0.000000 0.000000 0.046245 0.000000 0.000000
# 5 0.000000 0.000000 0.000000 0.000000 0.034457 0.000000
# 6 0.000000 0.000000 0.000000 0.000000 0.000000 0.031930
#
#
# Mechanical properties :
#
#
# Convention : Reuss Voigt Hill
#
# Bulk Modulus (GPa) = 28.46046 42.23693 35.34870
# Shear Modulus (GPa) = 21.89009 25.10639 23.49824
#
# Velocity S-wave (km/s) = 3.80754 4.07768 3.94493
# Velocity P-wave (km/s) = 6.17889 7.08115 6.64535
#
# Compressibility (1/GPa) = 0.03513647
#
# Stress axis : x y z
#
# Youngs Moduli (GPa) = 62.23765 26.22867 64.89529
#
# Poissons Ratio (x) = 0.21457 0.45985
# Poissons Ratio (y) = 0.50916 0.12762
# Poissons Ratio (z) = 0.44101 0.05158
#
# Static dielectric constant tensor:
#      x y z
#    x 3.160730 0.000000 0.000000 
#    y 0.000000 2.478750 0.000000 
#    z 0.000000 0.000000 2.933020 
# 
# 
# High freq. dielectric constant tensor:
#      x y z
#    x 1.593800 0.000000 0.000000 
#    y 0.000000 1.517830 0.000000 
#    z 0.000000 0.000000 1.572330 
# 
# From -- ./inp_files/57484.got.cif
#   From: 2010.03.12/outbox.cif.g09.slc.cpg/sg74_29_cif.got.tgz:57484.got - 2010.04.16 15:46:19.
