data_PCOD8297469
_publ_section_title
;
Structure prediction by ZEFSAII (Michael W. Deem and Ramdas Pophale) SiO2 
 PCOD8297469
Probable space group: I M M A
;
_chemical_formula_sum "Si O2"
_cell_formula_units_Z 104
_cell_length_a 22.335436
_cell_length_b 9.324388
_cell_length_c 29.910466
_cell_angle_alpha 90.000000
_cell_angle_beta 90.000000
_cell_angle_gamma 90.000000
_cell_volume 6229.281409
_symmetry_space_group_name_H-M "I M M A"
_symmetry_group_IT_number 74
_symmetry_cell_setting 'orthorhombic'
loop_
_space_group_symop_operation_xyz
x,y,z
-x,1/2-y,z
x,-y,-z
-x,1/2+y,-z
-x,-y,-z
x,1/2+y,-z
-x,y,z
x,1/2-y,z
1/2+x,1/2+y,1/2+z
1/2-x,-y,1/2+z
1/2+x,1/2-y,1/2-z
1/2-x,y,1/2-z
1/2-x,1/2-y,1/2-z
1/2+x,y,1/2-z
1/2-x,1/2+y,1/2+z
1/2+x,-y,1/2+z
loop_
_atom_site_type_symbol
_atom_site_label
_atom_site_fract_x
_atom_site_fract_y
_atom_site_fract_z
Si Si1 0.570706 0.915432 0.299669
Si Si2 0.853024 0.417288 0.544187
Si Si3 0.071201 0.411974 0.285819
Si Si4 0.500000 0.420859 0.546650
Si Si5 0.889568 0.919153 0.105585
Si Si6 0.283665 0.582719 0.455847
Si Si7 0.569568 0.083356 0.871850
O O1 0.500000 0.933409 0.306530
O O2 0.586975 0.750000 0.290389
O O3 0.603213 0.978199 0.343962
O O4 0.595356 0.007377 0.258102
O O5 0.873971 0.500000 0.500000
O O6 0.861454 0.250000 0.534618
O O7 0.784548 0.455085 0.556606
O O8 0.894215 0.469024 0.584872
O O9 0.095950 0.250000 0.286310
O O10 0.094263 0.494027 0.329818
O O11 0.000000 0.414972 0.285340
O O12 0.500000 0.250000 0.539317
O O13 0.500000 0.500000 0.500000
O O14 0.442016 0.475933 0.573576
O O15 0.896388 0.750000 0.108922
O O16 0.825365 0.965873 0.085526
O O17 0.304608 0.500000 0.500000
O O18 0.292127 0.750000 0.465928
O O19 0.500000 0.052718 0.881032
O O20 0.581196 0.250000 0.861599
#
# Coordination Sequence:
#
# PCOD8297469 Si02
#       7
#    16  16  16   8  16  16  16
#     4   9  15  26  44  63  84 114 149 181 216 259
#     4   9  18  31  47  67  90 116 147 180 213 253
#     4   9  17  28  43  66  93 116 139 175 220 263
#     4  10  18  28  40  60  88 116 146 182 223 264
#     4   9  16  27  44  63  85 114 149 185 218 257
#     4   9  17  30  46  63  85 115 150 184 216 254
#     4   9  17  30  47  67  90 116 145 175 211 259
#
# _framework density 16.695345
#
# number of rings (size 3 to 8) (size 9 to 14) (size 15 to 20)
#    0.000    2.923    0.769    0.923    0.000    2.769 
#    0.000    1.538    0.000    0.923    0.000    6.462 
#    0.000    0.000    0.000    0.000    0.000    0.000 
#
# Total GULP energy -644740.332731 kJ/mol
# GULP energy per Si atom -12398.852553 kJ/mol
# Density = 1.665735 g / cm^3
# Si number density = 16.695345 Si / 1000 Ang^3
#
#
#
# Elastic Constant Matrix: (Units=GPa)
#
#
# Indices 1 2 3 4 5 6 
#
# 1 58.5030 29.2570 65.3344 0.0000 0.0000 0.0000
# 2 29.2570 62.2450 68.0545 0.0000 0.0000 0.0000
# 3 65.3344 68.0545 186.0865 0.0000 0.0000 0.0000
# 4 0.0000 0.0000 0.0000 30.6788 0.0000 0.0000
# 5 0.0000 0.0000 0.0000 0.0000 22.5234 0.0000
# 6 0.0000 0.0000 0.0000 0.0000 0.0000 12.3933
#
#
#
# Elastic Compliance Matrix: (Units=1/GPa)
#
#
# Indices 1 2 3 4 5 6 
#
# 1 0.028740 -0.004126 -0.008582 0.000000 0.000000 0.000000
# 2 -0.004126 0.027362 -0.008558 0.000000 0.000000 0.000000
# 3 -0.008582 -0.008558 0.011517 0.000000 0.000000 0.000000
# 4 0.000000 0.000000 0.000000 0.032596 0.000000 0.000000
# 5 0.000000 0.000000 0.000000 0.000000 0.044398 0.000000
# 6 0.000000 0.000000 0.000000 0.000000 0.000000 0.080689
#
#
# Mechanical properties :
#
#
# Convention : Reuss Voigt Hill
#
# Bulk Modulus (GPa) = 39.86116 70.23624 55.04870
# Shear Modulus (GPa) = 18.10317 22.73168 20.41742
#
# Velocity S-wave (km/s) = 3.29648 3.69393 3.50085
# Velocity P-wave (km/s) = 6.19810 7.76880 7.02747
#
# Compressibility (1/GPa) = 0.02508708
#
# Stress axis : x y z
#
# Youngs Moduli (GPa) = 34.79432 36.54767 86.83173
#
# Poissons Ratio (x) = 0.15080 0.74516
# Poissons Ratio (y) = 0.14357 0.74309
# Poissons Ratio (z) = 0.29859 0.31277
#
# Static dielectric constant tensor:
#      x y z
#    x 2.982380 0.000000 0.000000 
#    y 0.000000 3.023720 0.000000 
#    z 0.000000 0.000000 3.315290 
# 
# 
# High freq. dielectric constant tensor:
#      x y z
#    x 1.613590 0.000000 0.000000 
#    y 0.000000 1.626510 0.000000 
#    z 0.000000 0.000000 1.652090 
# 
# From -- ./inp_files/70975.got.cif
#   From: 2010.03.12/outbox.cif.g09.slc.cpg/sg74_36_cif.got.tgz:70975.got - 2010.04.16 15:46:19.
