data_PCOD8297696
_publ_section_title
;
Structure prediction by ZEFSAII (Michael W. Deem and Ramdas Pophale) SiO2 
 PCOD8297696
Probable space group: I M M A
;
_chemical_formula_sum "Si O2"
_cell_formula_units_Z 104
_cell_length_a 27.302375
_cell_length_b 9.030063
_cell_length_c 24.040827
_cell_angle_alpha 90.000000
_cell_angle_beta 90.000000
_cell_angle_gamma 90.000000
_cell_volume 5927.077568
_symmetry_space_group_name_H-M "I M M A"
_symmetry_group_IT_number 74
_symmetry_cell_setting 'orthorhombic'
loop_
_space_group_symop_operation_xyz
x,y,z
-x,1/2-y,z
x,-y,-z
-x,1/2+y,-z
-x,-y,-z
x,1/2+y,-z
-x,y,z
x,1/2-y,z
1/2+x,1/2+y,1/2+z
1/2-x,-y,1/2+z
1/2+x,1/2-y,1/2-z
1/2-x,y,1/2-z
1/2-x,1/2-y,1/2-z
1/2+x,y,1/2-z
1/2-x,1/2+y,1/2+z
1/2+x,-y,1/2+z
loop_
_atom_site_type_symbol
_atom_site_label
_atom_site_fract_x
_atom_site_fract_y
_atom_site_fract_z
Si Si1 0.597533 0.426719 0.059755
Si Si2 0.178970 0.578439 0.649579
Si Si3 0.358741 0.923059 0.729593
Si Si4 0.944031 0.424350 0.826169
Si Si5 0.942049 0.587878 0.051386
Si Si6 0.269309 0.917099 0.312457
Si Si7 0.000000 0.429298 0.560967
O O1 0.588919 0.250000 0.053875
O O2 0.643854 0.463306 0.098471
O O3 0.549741 0.504913 0.088410
O O4 0.608243 0.500000 0.000000
O O5 0.192915 0.750000 0.648892
O O6 0.152115 0.535782 0.706745
O O7 0.229828 0.488472 0.645362
O O8 0.357884 0.750000 0.719099
O O9 0.412219 0.987636 0.718230
O O10 0.320331 0.994798 0.686256
O O11 0.933757 0.250000 0.822336
O O12 0.930874 0.483470 0.888340
O O13 0.000000 0.459440 0.811493
O O14 0.918448 0.750000 0.049099
O O15 0.000000 0.599254 0.043703
O O16 0.918056 0.500000 0.000000
O O17 0.278911 0.750000 0.331929
O O18 0.250000 0.925767 0.250000
O O19 0.000000 0.500000 0.500000
O O20 0.000000 0.250000 0.561093
#
# Coordination Sequence:
#
# PCOD8297696 Si02
#       7
#    16  16  16  16  16  16   8
#     4  10  19  33  52  73 100 133 168 209 256 302
#     4   9  19  34  51  73  99 127 160 202 249 295
#     4  10  19  32  50  72  98 130 166 201 241 293
#     4   9  18  32  47  66  98 133 161 195 241 287
#     4   8  14  25  42  63  86 115 151 190 228 266
#     4   9  17  30  51  75  96 120 153 195 237 282
#     4  10  18  30  48  70  96 128 168 208 247 294
#
# _framework density 17.546590999999999
#
# number of rings (size 3 to 8) (size 9 to 14) (size 15 to 20)
#    0.000    2.769    0.000    3.923    0.000    4.615 
#    1.385    1.538    0.000    0.923    0.000    6.462 
#    0.000    0.000    0.000    0.000    0.000    0.000 
#
# Total GULP energy -644507.125740 kJ/mol
# GULP energy per Si atom -12394.367803 kJ/mol
# Density = 1.750665 g / cm^3
# Si number density = 17.546591 Si / 1000 Ang^3
#
#
#
# Elastic Constant Matrix: (Units=GPa)
#
#
# Indices 1 2 3 4 5 6 
#
# 1 99.2057 55.6424 46.9781 0.0000 0.0000 0.0000
# 2 55.6424 95.4922 40.2232 0.0000 0.0000 0.0000
# 3 46.9781 40.2232 62.4423 0.0000 0.0000 0.0000
# 4 0.0000 0.0000 0.0000 25.1885 0.0000 0.0000
# 5 0.0000 0.0000 0.0000 0.0000 25.9888 0.0000
# 6 0.0000 0.0000 0.0000 0.0000 0.0000 32.4892
#
#
#
# Elastic Compliance Matrix: (Units=1/GPa)
#
#
# Indices 1 2 3 4 5 6 
#
# 1 0.018314 -0.006680 -0.009475 0.000000 0.000000 0.000000
# 2 -0.006680 0.016808 -0.005802 0.000000 0.000000 0.000000
# 3 -0.009475 -0.005802 0.026880 0.000000 0.000000 0.000000
# 4 0.000000 0.000000 0.000000 0.039701 0.000000 0.000000
# 5 0.000000 0.000000 0.000000 0.000000 0.038478 0.000000
# 6 0.000000 0.000000 0.000000 0.000000 0.000000 0.030779
#
#
# Mechanical properties :
#
#
# Convention : Reuss Voigt Hill
#
# Bulk Modulus (GPa) = 55.28254 60.31416 57.79835
# Shear Modulus (GPa) = 22.63432 24.35308 23.49370
#
# Velocity S-wave (km/s) = 3.59549 3.72951 3.66311
# Velocity P-wave (km/s) = 6.98651 7.27970 7.13461
#
# Compressibility (1/GPa) = 0.01808889
#
# Stress axis : x y z
#
# Youngs Moduli (GPa) = 54.60418 59.49473 37.20174
#
# Poissons Ratio (x) = 0.39743 0.35249
# Poissons Ratio (y) = 0.36476 0.21583
# Poissons Ratio (z) = 0.51738 0.34516
#
# Static dielectric constant tensor:
#      x y z
#    x 3.357840 0.000000 0.000000 
#    y 0.000000 3.397880 0.000000 
#    z 0.000000 0.000000 3.090800 
# 
# 
# High freq. dielectric constant tensor:
#      x y z
#    x 1.667200 0.000000 0.000000 
#    y 0.000000 1.685010 0.000000 
#    z 0.000000 0.000000 1.649550 
# 
# From -- ./inp_files/62332.got.cif
#   From: 2010.03.12/outbox.cif.g09.slc.cpg/sg74_32_cif.got.tgz:62332.got - 2010.04.16 15:46:19.
