data_PCOD8297864
_publ_section_title
;
Structure prediction by ZEFSAII (Michael W. Deem and Ramdas Pophale) SiO2 
 PCOD8297864
Probable space group: I M M A
;
_chemical_formula_sum "Si O2"
_cell_formula_units_Z 96
_cell_length_a 9.349842
_cell_length_b 28.172390
_cell_length_c 20.159909
_cell_angle_alpha 90.000000
_cell_angle_beta 90.000000
_cell_angle_gamma 90.000000
_cell_volume 5310.269118
_symmetry_space_group_name_H-M "I M M A"
_symmetry_group_IT_number 74
_symmetry_cell_setting 'orthorhombic'
loop_
_space_group_symop_operation_xyz
x,y,z
-x,1/2-y,z
x,-y,-z
-x,1/2+y,-z
-x,-y,-z
x,1/2+y,-z
-x,y,z
x,1/2-y,z
1/2+x,1/2+y,1/2+z
1/2-x,-y,1/2+z
1/2+x,1/2-y,1/2-z
1/2-x,y,1/2-z
1/2-x,1/2-y,1/2-z
1/2+x,y,1/2-z
1/2-x,1/2+y,1/2+z
1/2+x,-y,1/2+z
loop_
_atom_site_type_symbol
_atom_site_label
_atom_site_fract_x
_atom_site_fract_y
_atom_site_fract_z
Si Si1 0.830701 0.696677 0.920760
Si Si2 0.655767 0.305071 0.692567
Si Si3 0.329203 0.385056 0.319501
Si Si4 0.163332 0.039841 0.403076
Si Si5 0.337521 0.937105 0.055779
Si Si6 0.331215 0.154607 0.557737
O O1 0.770330 0.750000 0.907628
O O2 0.785576 0.661653 0.861441
O O3 0.000000 0.699060 0.926857
O O4 0.766208 0.676309 0.989817
O O5 0.500000 0.329336 0.696599
O O6 0.643448 0.250000 0.708019
O O7 0.750000 0.329694 0.750000
O O8 0.716486 0.311663 0.618395
O O9 0.500000 0.389147 0.310185
O O10 0.250000 0.379789 0.250000
O O11 0.273218 0.432252 0.356189
O O12 0.187237 0.054653 0.478347
O O13 0.000000 0.050291 0.380610
O O14 0.196265 0.983596 0.399947
O O15 0.500000 0.920987 0.068436
O O16 0.229859 0.896421 0.077321
O O17 0.500000 0.150169 0.549658
#
# Coordination Sequence:
#
# PCOD8297864 Si02
#       6
#    16  16  16  16  16  16
#     4   9  18  33  53  78 107 139 180 227 272 318
#     4   9  18  32  50  72 101 138 175 211 255 309
#     4  11  22  36  56  80 107 144 184 227 275 323
#     4   9  18  35  55  77 105 138 172 210 261 319
#     4   9  18  32  54  80 107 135 165 210 267 316
#     4  10  18  31  53  81 107 137 177 220 262 310
#
# _framework density 18.07818
#
# number of rings (size 3 to 8) (size 9 to 14) (size 15 to 20)
#    0.000    2.500    1.667    2.000    0.000    3.667 
#    0.000    2.500    0.000    7.000    0.000    0.000 
#    0.000    0.000    0.000    0.000    0.000    0.000 
#
# Total GULP energy -594941.693427 kJ/mol
# GULP energy per Si atom -12394.618613 kJ/mol
# Density = 1.803703 g / cm^3
# Si number density = 18.078180 Si / 1000 Ang^3
#
#
#
# Elastic Constant Matrix: (Units=GPa)
#
#
# Indices 1 2 3 4 5 6 
#
# 1 56.0113 38.5837 54.5231 0.0000 0.0000 0.0000
# 2 38.5837 98.3614 53.8935 0.0000 0.0000 0.0000
# 3 54.5231 53.8935 130.5777 -0.0007 0.0000 0.0000
# 4 0.0000 0.0000 -0.0007 26.9875 0.0000 0.0000
# 5 0.0000 0.0000 0.0000 0.0000 27.0735 -0.0001
# 6 0.0000 0.0000 0.0000 0.0000 -0.0001 22.2556
#
#
#
# Elastic Compliance Matrix: (Units=1/GPa)
#
#
# Indices 1 2 3 4 5 6 
#
# 1 0.033503 -0.007078 -0.011068 0.000000 0.000000 0.000000
# 2 -0.007078 0.014633 -0.003084 0.000000 0.000000 0.000000
# 3 -0.011068 -0.003084 0.013553 0.000000 0.000000 0.000000
# 4 0.000000 0.000000 0.000000 0.037054 0.000000 0.000000
# 5 0.000000 0.000000 0.000000 0.000000 0.036937 0.000000
# 6 0.000000 0.000000 0.000000 0.000000 0.000000 0.044933
#
#
# Mechanical properties :
#
#
# Convention : Reuss Voigt Hill
#
# Bulk Modulus (GPa) = 52.00555 64.32788 58.16671
# Shear Modulus (GPa) = 21.78827 24.45997 23.12412
#
# Velocity S-wave (km/s) = 3.47540 3.68232 3.58036
# Velocity P-wave (km/s) = 6.70328 7.33074 7.02402
#
# Compressibility (1/GPa) = 0.01922872
#
# Stress axis : x y z
#
# Youngs Moduli (GPa) = 29.84799 68.33998 73.78612
#
# Poissons Ratio (x) = 0.48369 0.81667
# Poissons Ratio (y) = 0.21126 0.22756
# Poissons Ratio (z) = 0.33036 0.21076
#
# Static dielectric constant tensor:
#      x y z
#    x 3.301460 0.000000 0.000000 
#    y 0.000000 3.788390 0.000000 
#    z 0.000000 0.000000 3.348130 
# 
# 
# High freq. dielectric constant tensor:
#      x y z
#    x 1.681500 0.000000 0.000000 
#    y 0.000000 1.697200 0.000000 
#    z 0.000000 0.000000 1.695680 
# 
# From -- ./inp_files/49080.got.cif
#   From: 2010.03.12/outbox.cif.g09.slc.cpg/sg74_25_cif.got.tgz:49080.got - 2010.04.16 15:46:19.
