data_PCOD8297156
_publ_section_title
;
Structure prediction by ZEFSAII (Michael W. Deem and Ramdas Pophale) SiO2 
 PCOD8297156
Probable space group: I M M A
;
_chemical_formula_sum "Si O2"
_cell_formula_units_Z 104
_cell_length_a 19.422570
_cell_length_b 14.052944
_cell_length_c 23.474136
_cell_angle_alpha 90.000000
_cell_angle_beta 90.000000
_cell_angle_gamma 90.000000
_cell_volume 6407.131350
_symmetry_space_group_name_H-M "I M M A"
_symmetry_group_IT_number 74
_symmetry_cell_setting 'orthorhombic'
loop_
_space_group_symop_operation_xyz
x,y,z
-x,1/2-y,z
x,-y,-z
-x,1/2+y,-z
-x,-y,-z
x,1/2+y,-z
-x,y,z
x,1/2-y,z
1/2+x,1/2+y,1/2+z
1/2-x,-y,1/2+z
1/2+x,1/2-y,1/2-z
1/2-x,y,1/2-z
1/2-x,1/2-y,1/2-z
1/2+x,y,1/2-z
1/2-x,1/2+y,1/2+z
1/2+x,-y,1/2+z
loop_
_atom_site_type_symbol
_atom_site_label
_atom_site_fract_x
_atom_site_fract_y
_atom_site_fract_z
Si Si1 0.168735 0.643454 0.402279
Si Si2 0.172024 0.359468 0.908016
Si Si3 0.684346 0.860196 0.968881
Si Si4 0.421283 0.460208 0.811584
Si Si5 0.920366 0.140149 0.801776
Si Si6 0.577789 0.355851 0.128931
Si Si7 0.795811 0.000000 0.000000
O O1 0.146161 0.750000 0.387819
O O2 0.249230 0.628882 0.388578
O O3 0.153727 0.619789 0.468314
O O4 0.123201 0.577154 0.363471
O O5 0.157499 0.250000 0.926970
O O6 0.123061 0.390185 0.856534
O O7 0.157037 0.432367 0.960080
O O8 0.708634 0.750000 0.964539
O O9 0.627152 0.886142 0.922678
O O10 0.749200 0.930450 0.960121
O O11 0.500000 0.425650 0.818994
O O12 0.393688 0.423960 0.750821
O O13 0.414457 0.574675 0.816529
O O14 0.907502 0.250000 0.785712
O O15 0.000000 0.120321 0.815578
O O16 0.500000 0.361062 0.104905
O O17 0.595771 0.250000 0.150727
#
# Coordination Sequence:
#
# PCOD8297156 Si02
#       7
#    16  16  16  16  16  16   8
#     4   9  17  28  42  64  91 116 146 183 218 254
#     4   9  18  31  48  70  92 115 142 171 211 263
#     4   9  17  28  42  61  88 120 150 181 220 261
#     4  10  19  29  43  63  87 118 154 185 216 255
#     4   9  18  33  50  67  89 114 139 173 220 269
#     4   9  17  28  41  58  82 116 156 190 216 247
#     4  10  16  28  48  68  88 112 138 174 216 258
#
# _framework density 16.231914
#
# number of rings (size 3 to 8) (size 9 to 14) (size 15 to 20)
#    0.000    2.769    0.000    3.692    0.000    2.154 
#    0.000    6.154    0.000    1.846    0.000    3.231 
#    0.000    0.000    0.000    0.000    0.000    0.000 
#
# Total GULP energy -644567.361523 kJ/mol
# GULP energy per Si atom -12395.526183 kJ/mol
# Density = 1.619497 g / cm^3
# Si number density = 16.231914 Si / 1000 Ang^3
#
#
#
# Elastic Constant Matrix: (Units=GPa)
#
#
# Indices 1 2 3 4 5 6 
#
# 1 40.3060 31.8657 45.2857 0.0000 0.0000 0.0000
# 2 31.8657 92.8427 68.6575 0.0000 0.0000 0.0000
# 3 45.2857 68.6575 105.1969 0.0000 0.0000 0.0000
# 4 0.0000 0.0000 0.0000 30.6662 0.0000 0.0000
# 5 0.0000 0.0000 0.0000 0.0000 28.2263 0.0000
# 6 0.0000 0.0000 0.0000 0.0000 0.0000 17.1232
#
#
#
# Elastic Compliance Matrix: (Units=1/GPa)
#
#
# Indices 1 2 3 4 5 6 
#
# 1 0.048309 -0.002323 -0.019280 0.000000 0.000000 0.000000
# 2 -0.002323 0.020931 -0.012661 0.000000 0.000000 0.000000
# 3 -0.019280 -0.012661 0.026069 0.000000 0.000000 0.000000
# 4 0.000000 0.000000 0.000000 0.032609 0.000000 0.000000
# 5 0.000000 0.000000 0.000000 0.000000 0.035428 0.000000
# 6 0.000000 0.000000 0.000000 0.000000 0.000000 0.058400
#
#
# Mechanical properties :
#
#
# Convention : Reuss Voigt Hill
#
# Bulk Modulus (GPa) = 37.33986 58.88484 48.11235
# Shear Modulus (GPa) = 16.71121 21.37227 19.04174
#
# Velocity S-wave (km/s) = 3.21211 3.63255 3.42878
# Velocity P-wave (km/s) = 6.06719 7.34505 6.73649
#
# Compressibility (1/GPa) = 0.02678103
#
# Stress axis : x y z
#
# Youngs Moduli (GPa) = 20.70011 47.77655 38.35993
#
# Poissons Ratio (x) = 0.11098 0.73959
# Poissons Ratio (y) = 0.04809 0.48566
# Poissons Ratio (z) = 0.39910 0.60488
#
# Static dielectric constant tensor:
#      x y z
#    x 2.931110 0.000000 0.000000 
#    y 0.000000 3.356690 0.000000 
#    z 0.000000 0.000000 2.931560 
# 
# 
# High freq. dielectric constant tensor:
#      x y z
#    x 1.600870 0.000000 0.000000 
#    y 0.000000 1.637890 0.000000 
#    z 0.000000 0.000000 1.601930 
# 
# From -- ./inp_files/54026.got.cif
#   From: 2010.03.12/outbox.cif.g09.slc.cpg/sg74_28_cif.got.tgz:54026.got - 2010.04.16 15:46:19.
