data_PCOD8297838
_publ_section_title
;
Structure prediction by ZEFSAII (Michael W. Deem and Ramdas Pophale) SiO2 
 PCOD8297838
Probable space group: I M M A
;
_chemical_formula_sum "Si O2"
_cell_formula_units_Z 88
_cell_length_a 17.933934
_cell_length_b 21.362412
_cell_length_c 12.826232
_cell_angle_alpha 90.000000
_cell_angle_beta 90.000000
_cell_angle_gamma 90.000000
_cell_volume 4913.884508
_symmetry_space_group_name_H-M "I M M A"
_symmetry_group_IT_number 74
_symmetry_cell_setting 'orthorhombic'
loop_
_space_group_symop_operation_xyz
x,y,z
-x,1/2-y,z
x,-y,-z
-x,1/2+y,-z
-x,-y,-z
x,1/2+y,-z
-x,y,z
x,1/2-y,z
1/2+x,1/2+y,1/2+z
1/2-x,-y,1/2+z
1/2+x,1/2-y,1/2-z
1/2-x,y,1/2-z
1/2-x,1/2-y,1/2-z
1/2+x,y,1/2-z
1/2-x,1/2+y,1/2+z
1/2+x,-y,1/2+z
loop_
_atom_site_type_symbol
_atom_site_label
_atom_site_fract_x
_atom_site_fract_y
_atom_site_fract_z
Si Si1 0.869961 0.750000 0.267419
Si Si2 0.697733 0.383273 0.527588
Si Si3 0.915968 0.500357 0.318557
Si Si4 0.584162 0.051038 0.408858
Si Si5 0.418536 0.378692 0.710750
Si Si6 0.255189 0.750000 0.421224
Si Si7 0.305724 0.500000 0.000000
O O1 0.922099 0.810101 0.259575
O O2 0.828565 0.750000 0.378211
O O3 0.811980 0.750000 0.173454
O O4 0.641154 0.392213 0.430703
O O5 0.649970 0.387327 0.633142
O O6 0.733840 0.314280 0.512946
O O7 0.757632 0.439402 0.531636
O O8 0.894878 0.475333 0.203895
O O9 0.909236 0.575320 0.309182
O O10 0.857522 0.477066 0.404325
O O11 0.000000 0.479756 0.350667
O O12 0.500000 0.076405 0.410570
O O13 0.597137 0.000000 0.500000
O O14 0.500000 0.392699 0.656542
#
# Coordination Sequence:
#
# PCOD8297838 Si02
#       7
#     8  16  16  16  16   8   8
#     4   9  17  30  46  72 107 149 169 201 255 339
#     4  11  20  33  52  81 106 143 174 222 269 326
#     4  10  21  35  53  76 106 137 175 229 269 316
#     4  10  18  34  55  77 104 136 176 223 272 315
#     4  10  18  31  51  76 107 139 175 217 267 321
#     4   9  20  32  46  71 114 140 173 214 269 312
#     4  12  23  34  53  78 106 144 184 214 267 334
#
# _framework density 17.908439000000001
#
# number of rings (size 3 to 8) (size 9 to 14) (size 15 to 20)
#    0.000    1.818    2.727    2.182    0.000    4.364 
#    0.000    1.364    0.000    2.182    0.000    1.273 
#    0.000    0.000    0.000    0.000    0.000    0.000 
#
# Total GULP energy -545299.676043 kJ/mol
# GULP energy per Si atom -12393.174456 kJ/mol
# Density = 1.786768 g / cm^3
# Si number density = 17.908439 Si / 1000 Ang^3
#
#
#
# Elastic Constant Matrix: (Units=GPa)
#
#
# Indices 1 2 3 4 5 6 
#
# 1 100.7929 47.1765 51.9608 0.0000 0.0000 0.0000
# 2 47.1765 110.8593 32.4043 0.0000 0.0000 0.0000
# 3 51.9608 32.4043 85.0384 0.0000 0.0000 0.0000
# 4 0.0000 0.0000 0.0000 16.3515 0.0000 0.0000
# 5 0.0000 0.0000 0.0000 0.0000 32.9581 0.0000
# 6 0.0000 0.0000 0.0000 0.0000 0.0000 22.8995
#
#
#
# Elastic Compliance Matrix: (Units=1/GPa)
#
#
# Indices 1 2 3 4 5 6 
#
# 1 0.016277 -0.004523 -0.008222 0.000000 0.000000 0.000000
# 2 -0.004523 0.011408 -0.001583 0.000000 0.000000 0.000000
# 3 -0.008222 -0.001583 0.017387 0.000000 0.000000 0.000000
# 4 0.000000 0.000000 0.000000 0.061156 0.000000 0.000000
# 5 0.000000 0.000000 0.000000 0.000000 0.030342 0.000000
# 6 0.000000 0.000000 0.000000 0.000000 0.000000 0.043669
#
#
# Mechanical properties :
#
#
# Convention : Reuss Voigt Hill
#
# Bulk Modulus (GPa) = 60.92195 62.19710 61.55952
# Shear Modulus (GPa) = 23.32434 25.45175 24.38804
#
# Velocity S-wave (km/s) = 3.61282 3.77399 3.69429
# Velocity P-wave (km/s) = 7.17605 7.33462 7.25577
#
# Compressibility (1/GPa) = 0.01641445
#
# Stress axis : x y z
#
# Youngs Moduli (GPa) = 61.43543 87.65636 57.51541
#
# Poissons Ratio (x) = 0.39651 0.47290
# Poissons Ratio (y) = 0.27790 0.09106
# Poissons Ratio (z) = 0.50513 0.13878
#
# Static dielectric constant tensor:
#      x y z
#    x 3.471330 0.000000 0.000000 
#    y 0.000000 3.537500 0.000000 
#    z 0.000000 0.000000 3.068330 
# 
# 
# High freq. dielectric constant tensor:
#      x y z
#    x 1.707600 0.000000 0.000000 
#    y 0.000000 1.681850 0.000000 
#    z 0.000000 0.000000 1.657830 
# 
# From -- ./inp_files/22273.got.cif
#   From: 2010.03.12/outbox.cif.g09.slc.cpg/sg74_12_cif.got.tgz:22273.got - 2010.04.16 15:46:19.
