data_PCOD8297682
_publ_section_title
;
Structure prediction by ZEFSAII (Michael W. Deem and Ramdas Pophale) SiO2 
 PCOD8297682
Probable space group: I M M A
;
_chemical_formula_sum "Si O2"
_cell_formula_units_Z 104
_cell_length_a 17.703673
_cell_length_b 15.850640
_cell_length_c 24.516065
_cell_angle_alpha 90.000000
_cell_angle_beta 90.000000
_cell_angle_gamma 90.000000
_cell_volume 6879.564484
_symmetry_space_group_name_H-M "I M M A"
_symmetry_group_IT_number 74
_symmetry_cell_setting 'orthorhombic'
loop_
_space_group_symop_operation_xyz
x,y,z
-x,1/2-y,z
x,-y,-z
-x,1/2+y,-z
-x,-y,-z
x,1/2+y,-z
-x,y,z
x,1/2-y,z
1/2+x,1/2+y,1/2+z
1/2-x,-y,1/2+z
1/2+x,1/2-y,1/2-z
1/2-x,y,1/2-z
1/2-x,1/2-y,1/2-z
1/2+x,y,1/2-z
1/2-x,1/2+y,1/2+z
1/2+x,-y,1/2+z
loop_
_atom_site_type_symbol
_atom_site_label
_atom_site_fract_x
_atom_site_fract_y
_atom_site_fract_z
Si Si1 0.205521 0.377727 0.693994
Si Si2 0.408551 0.250000 0.764769
Si Si3 0.412147 0.411271 0.471980
Si Si4 0.705231 0.066037 0.193412
Si Si5 0.915079 0.151412 0.243026
Si Si6 0.817687 0.250000 0.846810
Si Si7 0.668396 0.849412 0.632887
Si Si8 0.412604 0.750000 0.455431
O O1 0.250000 0.379736 0.750000
O O2 0.124814 0.331598 0.703308
O O3 0.191824 0.471498 0.671575
O O4 0.261563 0.330193 0.652625
O O5 0.500000 0.250000 0.765803
O O6 0.377409 0.250000 0.703000
O O7 0.391493 0.500000 0.500000
O O8 0.500000 0.408174 0.455387
O O9 0.362541 0.402240 0.417840
O O10 0.391829 0.333926 0.511358
O O11 0.750000 0.068620 0.250000
O O12 0.624576 0.107096 0.205736
O O13 0.746757 0.120290 0.146584
O O14 0.906018 0.250000 0.251894
O O15 0.882690 0.125661 0.184362
O O16 0.000000 0.119666 0.243971
O O17 0.864665 0.250000 0.901266
O O18 0.666528 0.750000 0.620160
O O19 0.500000 0.750000 0.439047
#
# Coordination Sequence:
#
# PCOD8297682 Si02
#       8
#    16   8  16  16  16   8  16   8
#     4   8  16  29  42  61  88 118 144 184 226 265
#     4   9  16  28  45  64  89 120 154 184 216 265
#     4  10  21  34  46  65  93 122 156 196 229 260
#     4   9  17  28  43  64  89 113 149 185 221 267
#     4   9  17  28  44  66  91 118 147 181 224 272
#     4   9  17  29  46  62  87 121 158 182 222 261
#     4  10  18  30  48  64  87 123 155 184 224 268
#     4  10  20  33  48  66  91 121 155 196 229 256
#
# _framework density 15.117236
#
# number of rings (size 3 to 8) (size 9 to 14) (size 15 to 20)
#    0.000    2.769    0.769    2.077    2.154    3.077 
#    0.000    0.000    0.000    0.000    0.000    0.000 
#    0.000    5.538    0.000    0.000    0.000    0.000 
#
# Total GULP energy -644567.647388 kJ/mol
# GULP energy per Si atom -12395.531681 kJ/mol
# Density = 1.508283 g / cm^3
# Si number density = 15.117236 Si / 1000 Ang^3
#
#
#
# Elastic Constant Matrix: (Units=GPa)
#
#
# Indices 1 2 3 4 5 6 
#
# 1 101.6277 44.1447 49.9914 0.0000 0.0000 0.0000
# 2 44.1447 87.3244 46.6677 0.0000 0.0000 0.0000
# 3 49.9914 46.6677 78.9548 0.0000 0.0000 0.0000
# 4 0.0000 0.0000 0.0000 15.9321 0.0000 0.0000
# 5 0.0000 0.0000 0.0000 0.0000 27.5435 0.0000
# 6 0.0000 0.0000 0.0000 0.0000 0.0000 17.2992
#
#
#
# Elastic Compliance Matrix: (Units=1/GPa)
#
#
# Indices 1 2 3 4 5 6 
#
# 1 0.015058 -0.003679 -0.007360 0.000000 0.000000 0.000000
# 2 -0.003679 0.017638 -0.008096 0.000000 0.000000 0.000000
# 3 -0.007360 -0.008096 0.022111 0.000000 0.000000 0.000000
# 4 0.000000 0.000000 0.000000 0.062766 0.000000 0.000000
# 5 0.000000 0.000000 0.000000 0.000000 0.036306 0.000000
# 6 0.000000 0.000000 0.000000 0.000000 0.000000 0.057806
#
#
# Mechanical properties :
#
#
# Convention : Reuss Voigt Hill
#
# Bulk Modulus (GPa) = 60.46858 61.05717 60.76288
# Shear Modulus (GPa) = 19.57199 20.62850 20.10024
#
# Velocity S-wave (km/s) = 3.60207 3.69801 3.65036
# Velocity P-wave (km/s) = 7.57539 7.66228 7.61896
#
# Compressibility (1/GPa) = 0.01653752
#
# Stress axis : x y z
#
# Youngs Moduli (GPa) = 66.40851 56.69586 45.22728
#
# Poissons Ratio (x) = 0.20859 0.33286
# Poissons Ratio (y) = 0.24433 0.36615
# Poissons Ratio (z) = 0.48875 0.45899
#
# Static dielectric constant tensor:
#      x y z
#    x 2.896890 0.000000 0.000000 
#    y 0.000000 3.258680 0.000000 
#    z 0.000000 0.000000 2.612470 
# 
# 
# High freq. dielectric constant tensor:
#      x y z
#    x 1.566750 0.000000 0.000000 
#    y 0.000000 1.592310 0.000000 
#    z 0.000000 0.000000 1.544230 
# 
# From -- ./inp_files/61009.got.cif
#   From: 2010.03.12/outbox.cif.g09.slc.cpg/sg74_31_cif.got.tgz:61009.got - 2010.04.16 15:46:19.
