data_PCOD8297622
_publ_section_title
;
Structure prediction by ZEFSAII (Michael W. Deem and Ramdas Pophale) SiO2 
 PCOD8297622
Probable space group: I M M A
;
_chemical_formula_sum "Si O2"
_cell_formula_units_Z 128
_cell_length_a 17.206644
_cell_length_b 21.553741
_cell_length_c 20.257286
_cell_angle_alpha 90.000000
_cell_angle_beta 90.000000
_cell_angle_gamma 90.000000
_cell_volume 7512.769993
_symmetry_space_group_name_H-M "I M M A"
_symmetry_group_IT_number 74
_symmetry_cell_setting 'orthorhombic'
loop_
_space_group_symop_operation_xyz
x,y,z
-x,1/2-y,z
x,-y,-z
-x,1/2+y,-z
-x,-y,-z
x,1/2+y,-z
-x,y,z
x,1/2-y,z
1/2+x,1/2+y,1/2+z
1/2-x,-y,1/2+z
1/2+x,1/2-y,1/2-z
1/2-x,y,1/2-z
1/2-x,1/2-y,1/2-z
1/2+x,y,1/2-z
1/2-x,1/2+y,1/2+z
1/2+x,-y,1/2+z
loop_
_atom_site_type_symbol
_atom_site_label
_atom_site_fract_x
_atom_site_fract_y
_atom_site_fract_z
Si Si1 0.412224 0.822153 0.155853
Si Si2 0.586527 0.534605 0.804507
Si Si3 0.176224 0.114904 0.395263
Si Si4 0.912683 0.819009 0.497465
Si Si5 0.795506 0.572329 0.318517
Si Si6 0.088203 0.574069 0.842881
Si Si7 0.707039 0.820798 0.684303
Si Si8 0.789414 0.503519 0.921133
O O1 0.500000 0.839331 0.182308
O O2 0.395831 0.750000 0.171688
O O3 0.410765 0.835863 0.078658
O O4 0.340123 0.861449 0.185122
O O5 0.500000 0.520050 0.828492
O O6 0.612661 0.598992 0.839169
O O7 0.637428 0.477459 0.827466
O O8 0.591093 0.539597 0.726366
O O9 0.138211 0.130527 0.464937
O O10 0.228676 0.173130 0.373165
O O11 0.227489 0.054477 0.401955
O O12 0.879414 0.750000 0.509603
O O13 0.000000 0.822496 0.524797
O O14 0.750000 0.563518 0.250000
O O15 0.736760 0.560105 0.381651
O O16 0.131775 0.639672 0.835295
O O17 0.126998 0.527446 0.895586
O O18 0.000000 0.587520 0.865664
O O19 0.680263 0.750000 0.692771
O O20 0.750000 0.846406 0.750000
O O21 0.793886 0.500000 0.000000
#
# Coordination Sequence:
#
# PCOD8297622 Si02
#       8
#    16  16  16  16  16  16  16  16
#     4   9  19  35  53  73 102 135 165 199 245 303
#     4  10  19  31  48  72 100 133 165 203 252 302
#     4  10  18  29  50  70 104 132 167 205 246 297
#     4   9  17  30  47  70 101 137 171 200 236 292
#     4  11  20  33  54  77 103 130 166 208 254 306
#     4  10  20  35  52  69  98 134 171 213 256 298
#     4  10  19  31  47  69  99 133 169 209 254 296
#     4  10  21  34  52  77 102 131 168 211 256 302
#
# _framework density 17.037656999999999
#
# number of rings (size 3 to 8) (size 9 to 14) (size 15 to 20)
#    0.000    2.125    2.500    2.625    0.000    0.750 
#    0.000    0.000    0.000    6.000    0.000    0.000 
#    0.000    0.000    0.000    0.000    0.000    0.000 
#
# Total GULP energy -793119.039403 kJ/mol
# GULP energy per Si atom -12392.484991 kJ/mol
# Density = 1.699888 g / cm^3
# Si number density = 17.037657 Si / 1000 Ang^3
#
#
#
# Elastic Constant Matrix: (Units=GPa)
#
#
# Indices 1 2 3 4 5 6 
#
# 1 106.9292 36.1810 33.6489 0.0000 0.0000 0.0000
# 2 36.1810 57.0795 10.7430 0.0000 0.0000 0.0000
# 3 33.6489 10.7430 69.2791 0.0001 0.0000 0.0000
# 4 0.0000 0.0000 0.0001 23.5216 0.0000 0.0000
# 5 0.0000 0.0000 0.0000 0.0000 22.3147 0.0000
# 6 0.0000 0.0000 0.0000 0.0000 0.0000 11.9588
#
#
#
# Elastic Compliance Matrix: (Units=1/GPa)
#
#
# Indices 1 2 3 4 5 6 
#
# 1 0.013645 -0.007625 -0.005445 0.000000 0.000000 0.000000
# 2 -0.007625 0.022306 0.000244 0.000000 0.000000 0.000000
# 3 -0.005445 0.000244 0.017041 0.000000 0.000000 0.000000
# 4 0.000000 0.000000 0.000000 0.042514 0.000000 0.000000
# 5 0.000000 0.000000 0.000000 0.000000 0.044813 0.000000
# 6 0.000000 0.000000 0.000000 0.000000 0.000000 0.083620
#
#
# Mechanical properties :
#
#
# Convention : Reuss Voigt Hill
#
# Bulk Modulus (GPa) = 36.57386 43.82596 40.19991
# Shear Modulus (GPa) = 19.32694 21.74001 20.53348
#
# Velocity S-wave (km/s) = 3.37169 3.57599 3.47534
# Velocity P-wave (km/s) = 6.05564 6.54439 6.30476
#
# Compressibility (1/GPa) = 0.02734193
#
# Stress axis : x y z
#
# Youngs Moduli (GPa) = 73.28483 44.83011 58.68106
#
# Poissons Ratio (x) = 0.34181 0.31953
# Poissons Ratio (y) = 0.55876 -0.01433
# Poissons Ratio (z) = 0.39905 -0.01095
#
# Static dielectric constant tensor:
#      x y z
#    x 3.363190 0.000000 0.000000 
#    y 0.000000 3.087740 0.000000 
#    z 0.000000 0.000000 3.097820 
# 
# 
# High freq. dielectric constant tensor:
#      x y z
#    x 1.658600 0.000000 0.000000 
#    y 0.000000 1.646310 0.000000 
#    z 0.000000 0.000000 1.644320 
# 
# From -- ./inp_files/44600.got.cif
#   From: 2010.03.12/outbox.cif.g09.slc.cpg/sg74_23_cif.got.tgz:44600.got - 2010.04.16 15:46:19.
