data_PCOD8297484
_publ_section_title
;
Structure prediction by ZEFSAII (Michael W. Deem and Ramdas Pophale) SiO2 
 PCOD8297484
Probable space group: I M M A
;
_chemical_formula_sum "Si O2"
_cell_formula_units_Z 104
_cell_length_a 20.162407
_cell_length_b 9.418488
_cell_length_c 32.103200
_cell_angle_alpha 90.000000
_cell_angle_beta 90.000000
_cell_angle_gamma 90.000000
_cell_volume 6096.378045
_symmetry_space_group_name_H-M "I M M A"
_symmetry_group_IT_number 74
_symmetry_cell_setting 'orthorhombic'
loop_
_space_group_symop_operation_xyz
x,y,z
-x,1/2-y,z
x,-y,-z
-x,1/2+y,-z
-x,-y,-z
x,1/2+y,-z
-x,y,z
x,1/2-y,z
1/2+x,1/2+y,1/2+z
1/2-x,-y,1/2+z
1/2+x,1/2-y,1/2-z
1/2-x,y,1/2-z
1/2-x,1/2-y,1/2-z
1/2+x,y,1/2-z
1/2-x,1/2+y,1/2+z
1/2+x,-y,1/2+z
loop_
_atom_site_type_symbol
_atom_site_label
_atom_site_fract_x
_atom_site_fract_y
_atom_site_fract_z
Si Si1 0.365074 0.917608 0.920581
Si Si2 0.185924 0.415796 0.132511
Si Si3 0.732631 0.916962 0.540513
Si Si4 0.924674 0.416803 0.726499
Si Si5 0.000000 0.917396 0.541555
Si Si6 0.326016 0.582561 0.831844
Si Si7 0.575454 0.087577 0.677367
O O1 0.358219 0.750000 0.917113
O O2 0.309087 0.967198 0.953284
O O3 0.436427 0.970937 0.933930
O O4 0.356452 0.977898 0.874509
O O5 0.172410 0.250000 0.134698
O O6 0.197135 0.458743 0.084045
O O7 0.247501 0.452699 0.163621
O O8 0.121055 0.494440 0.147877
O O9 0.725611 0.750000 0.531551
O O10 0.703868 0.000000 0.500000
O O11 0.914547 0.250000 0.719068
O O12 0.865143 0.500536 0.704163
O O13 0.916581 0.456899 0.774707
O O14 0.000000 0.459941 0.711966
O O15 0.000000 0.750000 0.533628
O O16 0.000000 0.000000 0.500000
O O17 0.337106 0.750000 0.824806
O O18 0.500000 0.063619 0.662922
O O19 0.596609 0.250000 0.671551
#
# Coordination Sequence:
#
# PCOD8297484 Si02
#       7
#    16  16  16  16   8  16  16
#     4   8  16  29  44  63  90 124 160 200 241 281
#     4   9  19  34  51  75 105 129 158 204 249 287
#     4   9  17  31  49  70  97 126 157 196 240 286
#     4   9  19  34  49  69 100 133 165 207 251 287
#     4  10  18  28  42  60  84 118 160 202 242 282
#     4   9  18  32  49  71  97 129 169 205 241 290
#     4   9  19  36  55  74  98 129 163 197 241 299
#
# _framework density 17.059308999999999
#
# number of rings (size 3 to 8) (size 9 to 14) (size 15 to 20)
#    0.000    3.077    0.000    3.231    1.077    3.077 
#    0.000    7.692    0.000    0.462    0.000    0.000 
#    0.000    0.000    0.000    0.000    0.000    0.000 
#
# Total GULP energy -644308.779048 kJ/mol
# GULP energy per Si atom -12390.553443 kJ/mol
# Density = 1.702048 g / cm^3
# Si number density = 17.059309 Si / 1000 Ang^3
#
#
#
# Elastic Constant Matrix: (Units=GPa)
#
#
# Indices 1 2 3 4 5 6 
#
# 1 91.8434 40.0088 57.2604 0.0000 0.0000 0.0000
# 2 40.0088 41.4663 41.8440 0.0000 0.0000 0.0000
# 3 57.2604 41.8440 91.4233 0.0000 0.0000 0.0000
# 4 0.0000 0.0000 0.0000 32.3620 0.0000 0.0000
# 5 0.0000 0.0000 0.0000 0.0000 20.8355 0.0000
# 6 0.0000 0.0000 0.0000 0.0000 0.0000 28.4646
#
#
#
# Elastic Compliance Matrix: (Units=1/GPa)
#
#
# Indices 1 2 3 4 5 6 
#
# 1 0.021077 -0.013036 -0.007235 0.000000 0.000000 0.000000
# 2 -0.013036 0.052876 -0.016037 0.000000 0.000000 0.000000
# 3 -0.007235 -0.016037 0.022809 0.000000 0.000000 0.000000
# 4 0.000000 0.000000 0.000000 0.030900 0.000000 0.000000
# 5 0.000000 0.000000 0.000000 0.000000 0.047995 0.000000
# 6 0.000000 0.000000 0.000000 0.000000 0.000000 0.035131
#
#
# Mechanical properties :
#
#
# Convention : Reuss Voigt Hill
#
# Bulk Modulus (GPa) = 41.41034 55.88438 48.64736
# Shear Modulus (GPa) = 17.15538 22.04041 19.59790
#
# Velocity S-wave (km/s) = 3.17461 3.59832 3.39309
# Velocity P-wave (km/s) = 6.14529 7.07770 6.62791
#
# Compressibility (1/GPa) = 0.02414856
#
# Stress axis : x y z
#
# Youngs Moduli (GPa) = 47.44426 18.91204 43.84178
#
# Poissons Ratio (x) = 0.24654 0.31719
# Poissons Ratio (y) = 0.61848 0.70307
# Poissons Ratio (z) = 0.34325 0.30328
#
# Static dielectric constant tensor:
#      x y z
#    x 3.141720 0.000000 0.000000 
#    y 0.000000 2.905050 0.000000 
#    z 0.000000 0.000000 3.101860 
# 
# 
# High freq. dielectric constant tensor:
#      x y z
#    x 1.653530 0.000000 0.000000 
#    y 0.000000 1.639040 0.000000 
#    z 0.000000 0.000000 1.657230 
# 
# From -- ./inp_files/73151.got.cif
#   From: 2010.03.12/outbox.cif.g09.slc.cpg/sg74_37_cif.got.tgz:73151.got - 2010.04.16 15:46:19.
