data_PCOD8297803
_publ_section_title
;
Structure prediction by ZEFSAII (Michael W. Deem and Ramdas Pophale) SiO2 
 PCOD8297803
Probable space group: I M M A
;
_chemical_formula_sum "Si O2"
_cell_formula_units_Z 80
_cell_length_a 18.426279
_cell_length_b 12.248831
_cell_length_c 21.625226
_cell_angle_alpha 90.000000
_cell_angle_beta 90.000000
_cell_angle_gamma 90.000000
_cell_volume 4880.821670
_symmetry_space_group_name_H-M "I M M A"
_symmetry_group_IT_number 74
_symmetry_cell_setting 'orthorhombic'
loop_
_space_group_symop_operation_xyz
x,y,z
-x,1/2-y,z
x,-y,-z
-x,1/2+y,-z
-x,-y,-z
x,1/2+y,-z
-x,y,z
x,1/2-y,z
1/2+x,1/2+y,1/2+z
1/2-x,-y,1/2+z
1/2+x,1/2-y,1/2-z
1/2-x,y,1/2-z
1/2-x,1/2-y,1/2-z
1/2+x,y,1/2-z
1/2-x,1/2+y,1/2+z
1/2+x,-y,1/2+z
loop_
_atom_site_type_symbol
_atom_site_label
_atom_site_fract_x
_atom_site_fract_y
_atom_site_fract_z
Si Si1 0.000000 0.879335 0.964355
Si Si2 0.195805 0.030441 0.803424
Si Si3 0.751943 0.500000 0.500000
Si Si4 0.845386 0.627578 0.908898
Si Si5 0.809548 0.373950 0.611926
Si Si6 0.581441 0.120685 0.785782
O O1 0.069733 0.885243 0.921368
O O2 0.000000 0.750000 0.995659
O O3 0.000000 0.000000 0.000000
O O4 0.250000 0.989161 0.750000
O O5 0.236514 0.119173 0.846548
O O6 0.123034 0.082091 0.775505
O O7 0.173600 0.929398 0.844971
O O8 0.699642 0.413386 0.467695
O O9 0.804384 0.444166 0.549884
O O10 0.821281 0.750000 0.898502
O O11 0.821840 0.250000 0.592054
O O12 0.877314 0.419081 0.652152
O O13 0.500000 0.072320 0.785801
O O14 0.580308 0.250000 0.784620
#
# Coordination Sequence:
#
# PCOD8297803 Si02
#       6
#     8  16   8  16  16  16
#     4  10  20  36  50  70 102 136 168 205 246 291
#     4   9  18  31  48  70  95 122 155 192 234 284
#     4  10  18  31  49  68  92 118 160 192 240 278
#     4  10  20  32  49  69  94 125 160 197 238 286
#     4   9  17  30  48  69  94 122 153 193 238 284
#     4   9  17  30  48  70  94 121 153 193 239 287
#
# _framework density 16.390682999999999
#
# number of rings (size 3 to 8) (size 9 to 14) (size 15 to 20)
#    0.000    2.600    1.000    1.200    1.400    2.800 
#    0.000    1.500    0.000    0.000    0.000    0.000 
#    0.000    0.000    0.000    0.000    0.000    0.000 
#
# Total GULP energy -495596.694555 kJ/mol
# GULP energy per Si atom -12389.917364 kJ/mol
# Density = 1.635338 g / cm^3
# Si number density = 16.390683 Si / 1000 Ang^3
#
#
#
# Elastic Constant Matrix: (Units=GPa)
#
#
# Indices 1 2 3 4 5 6 
#
# 1 105.5123 25.5016 49.2544 0.0000 0.0000 0.0000
# 2 25.5016 70.4087 34.7164 0.0000 0.0000 0.0000
# 3 49.2544 34.7164 107.2565 0.0000 0.0000 0.0000
# 4 0.0000 0.0000 0.0000 20.7731 0.0000 0.0000
# 5 0.0000 0.0000 0.0000 0.0000 92.6273 0.0000
# 6 0.0000 0.0000 0.0000 0.0000 0.0000 20.0737
#
#
#
# Elastic Compliance Matrix: (Units=1/GPa)
#
#
# Indices 1 2 3 4 5 6 
#
# 1 0.012293 -0.001986 -0.005002 0.000000 0.000000 0.000000
# 2 -0.001986 0.017221 -0.004662 0.000000 0.000000 0.000000
# 3 -0.005002 -0.004662 0.013130 0.000000 0.000000 0.000000
# 4 0.000000 0.000000 0.000000 0.048139 0.000000 0.000000
# 5 0.000000 0.000000 0.000000 0.000000 0.010796 0.000000
# 6 0.000000 0.000000 0.000000 0.000000 0.000000 0.049816
#
#
# Mechanical properties :
#
#
# Convention : Reuss Voigt Hill
#
# Bulk Modulus (GPa) = 51.69904 55.79135 53.74520
# Shear Modulus (GPa) = 27.60261 38.27517 32.93889
#
# Velocity S-wave (km/s) = 4.10816 4.83761 4.48773
# Velocity P-wave (km/s) = 7.35614 8.08181 7.72750
#
# Compressibility (1/GPa) = 0.01934272
#
# Stress axis : x y z
#
# Youngs Moduli (GPa) = 81.34933 58.06954 76.16393
#
# Poissons Ratio (x) = 0.11532 0.38099
# Poissons Ratio (y) = 0.16155 0.35508
# Poissons Ratio (z) = 0.40693 0.27072
#
# Static dielectric constant tensor:
#      x y z
#    x 3.287770 0.000000 0.000000 
#    y 0.000000 3.329740 0.000000 
#    z 0.000000 0.000000 3.250480 
# 
# 
# High freq. dielectric constant tensor:
#      x y z
#    x 1.630710 0.000000 0.000000 
#    y 0.000000 1.622310 0.000000 
#    z 0.000000 0.000000 1.628260 
# 
# From -- ./inp_files/50456.got.cif
#   From: 2010.03.12/outbox.cif.g09.slc.cpg/sg74_26_cif.got.tgz:50456.got - 2010.04.16 15:46:19.
