data_PCOD8297193
_publ_section_title
;
Structure prediction by ZEFSAII (Michael W. Deem and Ramdas Pophale) SiO2 
 PCOD8297193
Probable space group: I M M A
;
_chemical_formula_sum "Si O2"
_cell_formula_units_Z 44
_cell_length_a 22.942994
_cell_length_b 14.375060
_cell_length_c 6.892661
_cell_angle_alpha 90.000000
_cell_angle_beta 90.000000
_cell_angle_gamma 90.000000
_cell_volume 2273.247263
_symmetry_space_group_name_H-M "I M M A"
_symmetry_group_IT_number 74
_symmetry_cell_setting 'orthorhombic'
loop_
_space_group_symop_operation_xyz
x,y,z
-x,1/2-y,z
x,-y,-z
-x,1/2+y,-z
-x,-y,-z
x,1/2+y,-z
-x,y,z
x,1/2-y,z
1/2+x,1/2+y,1/2+z
1/2-x,-y,1/2+z
1/2+x,1/2-y,1/2-z
1/2-x,y,1/2-z
1/2-x,1/2-y,1/2-z
1/2+x,y,1/2-z
1/2-x,1/2+y,1/2+z
1/2+x,-y,1/2+z
loop_
_atom_site_type_symbol
_atom_site_label
_atom_site_fract_x
_atom_site_fract_y
_atom_site_fract_z
Si Si1 0.500000 0.750000 0.500533
Si Si2 0.500000 0.646437 0.872677
Si Si3 0.625221 0.103442 0.014208
Si Si4 0.376017 0.250000 0.690455
Si Si5 0.181861 0.250000 0.215956
O O1 0.500000 0.657822 0.637666
O O2 0.443254 0.750000 0.368670
O O3 0.500000 0.750000 0.967924
O O4 0.443409 0.592167 0.944485
O O5 0.654077 0.157570 0.193018
O O6 0.637407 0.157930 0.815197
O O7 0.652221 0.000000 0.000000
O O8 0.331804 0.250000 0.511497
O O9 0.250000 0.250000 0.250000
#
# Coordination Sequence:
#
# PCOD8297193 Si02
#       5
#     4   8  16   8   8
#     4  10  16  34  66  86 116 172 196 236 320 386
#     4  10  16  38  61  84 137 154 194 264 306 378
#     4  11  23  40  63  96 122 157 211 260 309 374
#     4  11  20  40  68  81 128 166 191 256 323 358
#     4  11  24  46  61  86 126 165 209 253 307 373
#
# _framework density 19.355571000000001
#
# number of rings (size 3 to 8) (size 9 to 14) (size 15 to 20)
#    0.545    0.727    7.273    1.636    0.000    4.364 
#    6.545    1.818    0.000    0.000    0.000    0.000 
#    0.000    0.000    0.000    0.000    0.000    0.000 
#
# Total GULP energy -272800.314832 kJ/mol
# GULP energy per Si atom -12400.014311 kJ/mol
# Density = 1.931152 g / cm^3
# Si number density = 19.355571 Si / 1000 Ang^3
#
#
#
# Elastic Constant Matrix: (Units=GPa)
#
#
# Indices 1 2 3 4 5 6 
#
# 1 112.0287 24.8349 40.1024 0.0000 0.0000 0.0000
# 2 24.8349 158.4832 60.8992 0.0000 0.0000 0.0000
# 3 40.1024 60.8992 150.8744 0.0000 0.0000 0.0000
# 4 0.0000 0.0000 0.0000 6.3679 0.0000 0.0000
# 5 0.0000 0.0000 0.0000 0.0000 8.5727 0.0000
# 6 0.0000 0.0000 0.0000 0.0000 0.0000 2.5893
#
#
#
# Elastic Compliance Matrix: (Units=1/GPa)
#
#
# Indices 1 2 3 4 5 6 
#
# 1 0.009920 -0.000641 -0.002378 0.000000 0.000000 0.000000
# 2 -0.000641 0.007510 -0.002861 0.000000 0.000000 0.000000
# 3 -0.002378 -0.002861 0.008415 0.000000 0.000000 0.000000
# 4 0.000000 0.000000 0.000000 0.157037 0.000000 0.000000
# 5 0.000000 0.000000 0.000000 0.000000 0.116649 0.000000
# 6 0.000000 0.000000 0.000000 0.000000 0.000000 0.386210
#
#
# Mechanical properties :
#
#
# Convention : Reuss Voigt Hill
#
# Bulk Modulus (GPa) = 70.99815 74.78436 72.89126
# Shear Modulus (GPa) = 7.12054 23.20930 15.16492
#
# Velocity S-wave (km/s) = 1.92010 3.46656 2.80213
# Velocity P-wave (km/s) = 6.45572 7.39890 6.94335
#
# Compressibility (1/GPa) = 0.01408487
#
# Stress axis : x y z
#
# Youngs Moduli (GPa) = 100.81093 133.16400 118.83713
#
# Poissons Ratio (x) = 0.08531 0.28260
# Poissons Ratio (y) = 0.06458 0.33998
# Poissons Ratio (z) = 0.23973 0.38097
#
# Static dielectric constant tensor:
#      x y z
#    x 7.974070 0.000000 0.000000 
#    y 0.000000 3.373640 0.000000 
#    z 0.000000 0.000000 3.593980 
# 
# 
# High freq. dielectric constant tensor:
#      x y z
#    x 1.742230 0.000000 0.000000 
#    y 0.000000 1.738300 0.000000 
#    z 0.000000 0.000000 1.761240 
# 
# From -- ./inp_files/4129.got.cif
#   From: 2010.03.12/outbox.cif.g09.slc.cpg/sg74_3_cif.got.tgz:4129.got - 2010.04.16 15:46:19.
