data_PCOD8297407
_publ_section_title
;
Structure prediction by ZEFSAII (Michael W. Deem and Ramdas Pophale) SiO2 
 PCOD8297407
Probable space group: I M M A
;
_chemical_formula_sum "Si O2"
_cell_formula_units_Z 96
_cell_length_a 9.533005
_cell_length_b 23.487028
_cell_length_c 25.861976
_cell_angle_alpha 90.000000
_cell_angle_beta 90.000000
_cell_angle_gamma 90.000000
_cell_volume 5790.546996
_symmetry_space_group_name_H-M "I M M A"
_symmetry_group_IT_number 74
_symmetry_cell_setting 'orthorhombic'
loop_
_space_group_symop_operation_xyz
x,y,z
-x,1/2-y,z
x,-y,-z
-x,1/2+y,-z
-x,-y,-z
x,1/2+y,-z
-x,y,z
x,1/2-y,z
1/2+x,1/2+y,1/2+z
1/2-x,-y,1/2+z
1/2+x,1/2-y,1/2-z
1/2-x,y,1/2-z
1/2-x,1/2-y,1/2-z
1/2+x,y,1/2-z
1/2-x,1/2+y,1/2+z
1/2+x,-y,1/2+z
loop_
_atom_site_type_symbol
_atom_site_label
_atom_site_fract_x
_atom_site_fract_y
_atom_site_fract_z
Si Si1 0.661473 0.813632 0.800351
Si Si2 0.663525 0.315755 0.699613
Si Si3 0.653906 0.094053 0.618525
Si Si4 0.335897 0.511036 0.057920
Si Si5 0.838774 0.425340 0.353315
Si Si6 0.346393 0.504854 0.292423
O O1 0.500000 0.815872 0.783022
O O2 0.702999 0.750000 0.819365
O O3 0.750000 0.831273 0.750000
O O4 0.685708 0.856974 0.849097
O O5 0.500000 0.328644 0.710850
O O6 0.691543 0.250000 0.687264
O O7 0.750000 0.335212 0.750000
O O8 0.713023 0.350152 0.648374
O O9 0.500000 0.106993 0.593606
O O10 0.761134 0.069522 0.576249
O O11 0.632914 0.045504 0.660081
O O12 0.500000 0.524099 0.059762
O O13 0.297728 0.454502 0.091701
O O14 0.283229 0.500000 0.000000
O O15 0.740060 0.449090 0.308313
O O16 0.000000 0.440954 0.341454
O O17 0.500000 0.487699 0.270555
O O18 0.250000 0.536756 0.250000
#
# Coordination Sequence:
#
# PCOD8297407 Si02
#       6
#    16  16  16  16  16  16
#     4   9  17  28  42  61  85 113 142 169 199 240
#     4   9  17  29  45  66  93 124 155 184 215 256
#     4   9  18  30  44  64  88 115 147 181 218 261
#     4   9  18  32  49  67  86 110 142 183 229 270
#     4   9  17  29  44  61  82 109 140 173 212 256
#     4  10  18  26  38  59  87 114 140 171 208 252
#
# _framework density 16.578744
#
# number of rings (size 3 to 8) (size 9 to 14) (size 15 to 20)
#    0.000    2.833    0.000    1.500    0.000    3.667 
#    0.000    0.000    0.000    1.000    0.000    2.333 
#    0.000    0.000    0.000    0.000    0.000    0.000 
#
# Total GULP energy -594679.910063 kJ/mol
# GULP energy per Si atom -12389.164793 kJ/mol
# Density = 1.654101 g / cm^3
# Si number density = 16.578744 Si / 1000 Ang^3
#
#
#
# Elastic Constant Matrix: (Units=GPa)
#
#
# Indices 1 2 3 4 5 6 
#
# 1 73.7123 29.4275 41.1858 0.0000 0.0000 0.0000
# 2 29.4275 95.7691 44.4972 0.0000 0.0000 0.0000
# 3 41.1858 44.4972 87.4139 0.0000 0.0000 0.0000
# 4 0.0000 0.0000 0.0000 23.5135 0.0000 0.0000
# 5 0.0000 0.0000 0.0000 0.0000 21.7065 0.0000
# 6 0.0000 0.0000 0.0000 0.0000 0.0000 21.9991
#
#
#
# Elastic Compliance Matrix: (Units=1/GPa)
#
#
# Indices 1 2 3 4 5 6 
#
# 1 0.018752 -0.002170 -0.007730 0.000000 0.000000 0.000000
# 2 -0.002170 0.013928 -0.006067 0.000000 0.000000 0.000000
# 3 -0.007730 -0.006067 0.018171 0.000000 0.000000 0.000000
# 4 0.000000 0.000000 0.000000 0.042529 0.000000 0.000000
# 5 0.000000 0.000000 0.000000 0.000000 0.046069 0.000000
# 6 0.000000 0.000000 0.000000 0.000000 0.000000 0.045456
#
#
# Mechanical properties :
#
#
# Convention : Reuss Voigt Hill
#
# Bulk Modulus (GPa) = 52.86972 54.12405 53.49688
# Shear Modulus (GPa) = 22.40698 22.89615 22.65156
#
# Velocity S-wave (km/s) = 3.68033 3.72029 3.70036
# Velocity P-wave (km/s) = 7.07242 7.15343 7.11304
#
# Compressibility (1/GPa) = 0.01891442
#
# Stress axis : x y z
#
# Youngs Moduli (GPa) = 53.32791 71.79964 55.03421
#
# Poissons Ratio (x) = 0.15582 0.42544
# Poissons Ratio (y) = 0.11573 0.33390
# Poissons Ratio (z) = 0.41225 0.43562
#
# Static dielectric constant tensor:
#      x y z
#    x 3.612730 0.000000 0.000000 
#    y 0.000000 3.256800 0.000000 
#    z 0.000000 0.000000 3.008290 
# 
# 
# High freq. dielectric constant tensor:
#      x y z
#    x 1.644670 0.000000 0.000000 
#    y 0.000000 1.634780 0.000000 
#    z 0.000000 0.000000 1.602200 
# 
# From -- ./inp_files/64669.got.cif
#   From: 2010.03.12/outbox.cif.g09.slc.cpg/sg74_33_cif.got.tgz:64669.got - 2010.04.16 15:46:19.
