data_PCOD8297394
_publ_section_title
;
Structure prediction by ZEFSAII (Michael W. Deem and Ramdas Pophale) SiO2 
 PCOD8297394
Probable space group: I M M A
;
_chemical_formula_sum "Si O2"
_cell_formula_units_Z 88
_cell_length_a 9.231214
_cell_length_b 27.250104
_cell_length_c 26.145168
_cell_angle_alpha 90.000000
_cell_angle_beta 90.000000
_cell_angle_gamma 90.000000
_cell_volume 6576.857314
_symmetry_space_group_name_H-M "I M M A"
_symmetry_group_IT_number 74
_symmetry_cell_setting 'orthorhombic'
loop_
_space_group_symop_operation_xyz
x,y,z
-x,1/2-y,z
x,-y,-z
-x,1/2+y,-z
-x,-y,-z
x,1/2+y,-z
-x,y,z
x,1/2-y,z
1/2+x,1/2+y,1/2+z
1/2-x,-y,1/2+z
1/2+x,1/2-y,1/2-z
1/2-x,y,1/2-z
1/2-x,1/2-y,1/2-z
1/2+x,y,1/2-z
1/2-x,1/2+y,1/2+z
1/2+x,-y,1/2+z
loop_
_atom_site_type_symbol
_atom_site_label
_atom_site_fract_x
_atom_site_fract_y
_atom_site_fract_z
Si Si1 0.669317 0.328073 0.885585
Si Si2 0.332248 0.250000 0.802716
Si Si3 0.339555 0.067554 0.912044
Si Si4 0.166562 0.305360 0.987492
Si Si5 0.163493 0.607940 0.526523
Si Si6 0.337087 0.519276 0.557662
O O1 0.500000 0.320677 0.900090
O O2 0.710276 0.298635 0.834526
O O3 0.702577 0.386036 0.876186
O O4 0.764540 0.306902 0.931356
O O5 0.500000 0.250000 0.789513
O O6 0.250000 0.250000 0.750000
O O7 0.500000 0.047944 0.898767
O O8 0.336916 0.087554 0.969456
O O9 0.228822 0.022596 0.905146
O O10 0.177347 0.250000 0.008701
O O11 0.250757 0.340553 0.027189
O O12 0.000000 0.322806 0.983656
O O13 0.243836 0.568893 0.563149
O O14 0.000000 0.615851 0.546603
O O15 0.333579 0.500000 0.500000
O O16 0.500000 0.530158 0.575689
#
# Coordination Sequence:
#
# PCOD8297394 Si02
#       6
#    16   8  16  16  16  16
#     4   9  17  29  42  52  65  84 107 133 164 208
#     4  10  20  32  44  56  70  88 110 138 176 216
#     4   8  14  23  35  49  62  80 103 127 156 194
#     4  10  18  25  35  51  68  85 108 140 172 200
#     4   9  16  24  34  46  63  87 110 131 156 192
#     4   9  15  22  32  47  66  84 101 126 158 192
#
# _framework density 13.380250999999999
#
# number of rings (size 3 to 8) (size 9 to 14) (size 15 to 20)
#    0.000    2.909    0.909    2.727    0.000    8.364 
#    0.000    0.000    0.000    0.000    0.000    0.000 
#    0.000    0.000    0.000    0.000    0.000    0.000 
#
# Total GULP energy -545380.104944 kJ/mol
# GULP energy per Si atom -12395.002385 kJ/mol
# Density = 1.334980 g / cm^3
# Si number density = 13.380251 Si / 1000 Ang^3
#
#
#
# Elastic Constant Matrix: (Units=GPa)
#
#
# Indices 1 2 3 4 5 6 
#
# 1 104.7992 64.5159 19.2754 0.0000 0.0000 0.0000
# 2 64.5159 110.5601 33.2779 0.0000 0.0000 0.0000
# 3 19.2754 33.2779 22.5017 0.0000 0.0000 0.0000
# 4 0.0000 0.0000 0.0000 9.7171 0.0000 0.0000
# 5 0.0000 0.0000 0.0000 0.0000 11.3978 0.0000
# 6 0.0000 0.0000 0.0000 0.0000 0.0000 26.3638
#
#
#
# Elastic Compliance Matrix: (Units=1/GPa)
#
#
# Indices 1 2 3 4 5 6 
#
# 1 0.014892 -0.008742 0.000171 0.000000 0.000000 0.000000
# 2 -0.008742 0.021433 -0.024209 0.000000 0.000000 0.000000
# 3 0.000171 -0.024209 0.080097 0.000000 0.000000 0.000000
# 4 0.000000 0.000000 0.000000 0.102911 0.000000 0.000000
# 5 0.000000 0.000000 0.000000 0.000000 0.087736 0.000000
# 6 0.000000 0.000000 0.000000 0.000000 0.000000 0.037931
#
#
# Mechanical properties :
#
#
# Convention : Reuss Voigt Hill
#
# Bulk Modulus (GPa) = 19.66047 52.44438 36.05242
# Shear Modulus (GPa) = 11.69558 17.54853 14.62205
#
# Velocity S-wave (km/s) = 2.95971 3.62543 3.30935
# Velocity P-wave (km/s) = 5.13862 7.53694 6.45023
#
# Compressibility (1/GPa) = 0.05086348
#
# Stress axis : x y z
#
# Youngs Moduli (GPa) = 67.15015 46.65807 12.48488
#
# Poissons Ratio (x) = 0.40786 -0.00214
# Poissons Ratio (y) = 0.58700 0.30224
# Poissons Ratio (z) = -0.01149 1.12953
#
# Static dielectric constant tensor:
#      x y z
#    x 2.854270 0.000000 0.000000 
#    y 0.000000 2.961220 0.000000 
#    z 0.000000 0.000000 2.062070 
# 
# 
# High freq. dielectric constant tensor:
#      x y z
#    x 1.526010 0.000000 0.000000 
#    y 0.000000 1.520800 0.000000 
#    z 0.000000 0.000000 1.415610 
# 
# From -- ./inp_files/57764.got.cif
#   From: 2010.03.12/outbox.cif.g09.slc.cpg/sg74_29_cif.got.tgz:57764.got - 2010.04.16 15:46:19.
