data_PCOD8297260
_publ_section_title
;
Structure prediction by ZEFSAII (Michael W. Deem and Ramdas Pophale) SiO2 
 PCOD8297260
Probable space group: I M M A
;
_chemical_formula_sum "Si O2"
_cell_formula_units_Z 128
_cell_length_a 19.683329
_cell_length_b 16.993322
_cell_length_c 25.290231
_cell_angle_alpha 90.000000
_cell_angle_beta 90.000000
_cell_angle_gamma 90.000000
_cell_volume 8459.206652
_symmetry_space_group_name_H-M "I M M A"
_symmetry_group_IT_number 74
_symmetry_cell_setting 'orthorhombic'
loop_
_space_group_symop_operation_xyz
x,y,z
-x,1/2-y,z
x,-y,-z
-x,1/2+y,-z
-x,-y,-z
x,1/2+y,-z
-x,y,z
x,1/2-y,z
1/2+x,1/2+y,1/2+z
1/2-x,-y,1/2+z
1/2+x,1/2-y,1/2-z
1/2-x,y,1/2-z
1/2-x,1/2-y,1/2-z
1/2+x,y,1/2-z
1/2-x,1/2+y,1/2+z
1/2+x,-y,1/2+z
loop_
_atom_site_type_symbol
_atom_site_label
_atom_site_fract_x
_atom_site_fract_y
_atom_site_fract_z
Si Si1 0.924060 0.156393 0.419006
Si Si2 0.424325 0.338059 0.554547
Si Si3 0.208314 0.840737 0.523392
Si Si4 0.423399 0.343149 0.199268
Si Si5 0.301813 0.555923 0.452539
Si Si6 0.683570 0.663539 0.717731
Si Si7 0.703090 0.088899 0.390204
Si Si8 0.924955 0.337295 0.070339
O O1 0.923001 0.250000 0.416602
O O2 0.867797 0.128094 0.461870
O O3 0.906026 0.124436 0.359844
O O4 0.000000 0.127462 0.435684
O O5 0.500000 0.368372 0.571373
O O6 0.413153 0.250000 0.577436
O O7 0.363506 0.394592 0.573542
O O8 0.418475 0.335203 0.492080
O O9 0.207414 0.750000 0.505691
O O10 0.240181 0.890373 0.474900
O O11 0.253023 0.848142 0.576598
O O12 0.500000 0.367437 0.214330
O O13 0.414304 0.250000 0.198466
O O14 0.373437 0.377105 0.244558
O O15 0.329023 0.500000 0.500000
O O16 0.273461 0.499850 0.405542
O O17 0.658767 0.750000 0.696345
O O18 0.750000 0.679596 0.750000
O O19 0.706502 0.603976 0.671849
O O20 0.624368 0.098118 0.405648
O O21 0.908073 0.250000 0.092291
O O22 0.000000 0.362616 0.088119
#
# Coordination Sequence:
#
# PCOD8297260 Si02
#       8
#    16  16  16  16  16  16  16  16
#     4   8  14  25  43  65  83 101 129 166 208 248
#     4   9  16  27  41  54  73 105 143 174 196 226
#     4  10  17  27  43  59  79 106 136 170 201 240
#     4   8  14  25  39  56  79 103 129 165 205 240
#     4  10  19  27  37  55  80 109 139 172 204 240
#     4  10  19  29  42  59  78 105 141 172 198 232
#     4  11  20  28  38  57  83 111 138 171 207 238
#     4   9  16  25  38  55  75 104 140 171 197 226
#
# _framework density 15.131443000000001
#
# number of rings (size 3 to 8) (size 9 to 14) (size 15 to 20)
#    0.000    2.625    2.500    3.750    0.000    3.250 
#    0.000    1.250    0.000    3.375    0.000    0.000 
#    0.000    2.000    0.000    0.000    0.000    6.375 
#
# Total GULP energy -792890.763592 kJ/mol
# GULP energy per Si atom -12388.918181 kJ/mol
# Density = 1.509700 g / cm^3
# Si number density = 15.131443 Si / 1000 Ang^3
#
#
#
# Elastic Constant Matrix: (Units=GPa)
#
#
# Indices 1 2 3 4 5 6 
#
# 1 84.4085 26.4423 32.8853 0.0000 0.0000 0.0000
# 2 26.4423 54.3213 29.9773 0.0000 0.0000 0.0000
# 3 32.8853 29.9773 52.1664 0.0000 0.0000 0.0000
# 4 0.0000 0.0000 0.0000 58.6026 0.0000 0.0000
# 5 0.0000 0.0000 0.0000 0.0000 16.1807 0.0000
# 6 0.0000 0.0000 0.0000 0.0000 0.0000 11.2543
#
#
#
# Elastic Compliance Matrix: (Units=1/GPa)
#
#
# Indices 1 2 3 4 5 6 
#
# 1 0.016092 -0.003273 -0.008263 0.000000 0.000000 0.000000
# 2 -0.003273 0.027624 -0.013811 0.000000 0.000000 0.000000
# 3 -0.008263 -0.013811 0.032315 0.000000 0.000000 0.000000
# 4 0.000000 0.000000 0.000000 0.017064 0.000000 0.000000
# 5 0.000000 0.000000 0.000000 0.000000 0.061802 0.000000
# 6 0.000000 0.000000 0.000000 0.000000 0.000000 0.088855
#
#
# Mechanical properties :
#
#
# Convention : Reuss Voigt Hill
#
# Bulk Modulus (GPa) = 39.46889 41.05620 40.26255
# Shear Modulus (GPa) = 16.50763 23.98028 20.24396
#
# Velocity S-wave (km/s) = 3.30653 3.98527 3.66166
# Velocity P-wave (km/s) = 6.38108 6.95474 6.67408
#
# Compressibility (1/GPa) = 0.02533641
#
# Stress axis : x y z
#
# Youngs Moduli (GPa) = 62.14330 36.20103 30.94562
#
# Poissons Ratio (x) = 0.11848 0.25572
# Poissons Ratio (y) = 0.20339 0.42738
# Poissons Ratio (z) = 0.51351 0.49996
#
# Static dielectric constant tensor:
#      x y z
#    x 3.278680 0.000000 0.000000 
#    y 0.000000 2.795400 0.000000 
#    z 0.000000 0.000000 2.852150 
# 
# 
# High freq. dielectric constant tensor:
#      x y z
#    x 1.591820 0.000000 0.000000 
#    y 0.000000 1.537440 0.000000 
#    z 0.000000 0.000000 1.533660 
# 
# From -- ./inp_files/61170.got.cif
#   From: 2010.03.12/outbox.cif.g09.slc.cpg/sg74_31_cif.got.tgz:61170.got - 2010.04.16 15:46:19.
