data_PCOD8297001
_publ_section_title
;
Structure prediction by ZEFSAII (Michael W. Deem and Ramdas Pophale) SiO2 
 PCOD8297001
Probable space group: I B C A 
;
_chemical_formula_sum "Si O2"
_cell_formula_units_Z 80
_cell_length_a 26.442948
_cell_length_b 15.691272
_cell_length_c 8.164159
_cell_angle_alpha 90.000000
_cell_angle_beta 90.000000
_cell_angle_gamma 90.000000
_cell_volume 3387.501342
_symmetry_space_group_name_H-M "I B C A "
_symmetry_group_IT_number 73
_symmetry_cell_setting 'orthorhombic'
loop_
_space_group_symop_operation_xyz
x,y,z
-x,1/2-y,z
x,-y,1/2-z
1/2-x,y,-z
-x,-y,-z
x,1/2+y,-z
-x,y,1/2+z
1/2+x,-y,z
1/2+x,1/2+y,1/2+z
1/2-x,-y,1/2+z
1/2+x,1/2-y,-z
-x,1/2+y,1/2-z
1/2-x,1/2-y,1/2-z
1/2+x,y,1/2-z
1/2-x,1/2+y,z
x,1/2-y,1/2+z
loop_
_atom_site_type_symbol
_atom_site_label
_atom_site_fract_x
_atom_site_fract_y
_atom_site_fract_z
Si Si1 0.660430 0.167998 0.179099
Si Si2 0.034940 0.390509 0.588226
Si Si3 0.250000 0.408741 0.000000
Si Si4 0.178692 0.500000 0.250000
Si Si5 0.631624 0.652086 0.445352
Si Si6 0.936069 0.912699 0.569403
O O1 0.717419 0.149328 0.123528
O O2 0.652220 0.267894 0.154260
O O3 0.655028 0.143169 0.370740
O O4 0.622932 0.113649 0.056206
O O5 0.070582 0.337563 0.463676
O O6 0.056199 0.486813 0.574141
O O7 0.044918 0.361612 0.771466
O O8 0.974752 0.377972 0.567777
O O9 0.213779 0.466968 0.105914
O O10 0.142880 0.429076 0.331638
#
# Coordination Sequence:
#
# PCOD8297001 Si02
#       6
#    16  16   8   8  16  16
#     4  11  25  44  64  95 134 170 216 272 327 385
#     4   9  19  36  63  93 126 167 208 257 315 380
#     4  12  26  44  70  96 128 170 214 270 326 384
#     4  12  26  44  70  96 124 168 218 266 324 394
#     4  11  25  44  67  96 130 169 216 269 328 394
#     4   9  19  37  60  90 128 167 210 259 313 376
#
# _framework density 23.616226000000001
#
# number of rings (size 3 to 8) (size 9 to 14) (size 15 to 20)
#    0.000    1.600    0.000    3.600    0.000   14.400 
#    0.000    4.000    0.000    0.000    0.000    0.000 
#    0.000    0.000    0.000    0.000    0.000    0.000 
#
# Total GULP energy -495695.683121 kJ/mol
# GULP energy per Si atom -12392.392078 kJ/mol
# Density = 2.356247 g / cm^3
# Si number density = 23.616226 Si / 1000 Ang^3
#
#
#
# Elastic Constant Matrix: (Units=GPa)
#
#
# Indices 1 2 3 4 5 6 
#
# 1 90.6810 9.7347 20.1247 0.0000 0.0000 0.0000
# 2 9.7347 77.2849 15.2047 0.0000 0.0000 0.0000
# 3 20.1247 15.2047 80.1820 0.0000 0.0000 0.0000
# 4 0.0000 0.0000 0.0000 36.5773 0.0000 0.0000
# 5 0.0000 0.0000 0.0000 0.0000 32.6262 0.0000
# 6 0.0000 0.0000 0.0000 0.0000 0.0000 25.6946
#
#
#
# Elastic Compliance Matrix: (Units=1/GPa)
#
#
# Indices 1 2 3 4 5 6 
#
# 1 0.011743 -0.000934 -0.002770 0.000000 0.000000 0.000000
# 2 -0.000934 0.013515 -0.002328 0.000000 0.000000 0.000000
# 3 -0.002770 -0.002328 0.013608 0.000000 0.000000 0.000000
# 4 0.000000 0.000000 0.000000 0.027339 0.000000 0.000000
# 5 0.000000 0.000000 0.000000 0.000000 0.030650 0.000000
# 6 0.000000 0.000000 0.000000 0.000000 0.000000 0.038919
#
#
# Mechanical properties :
#
#
# Convention : Reuss Voigt Hill
#
# Bulk Modulus (GPa) = 37.31231 37.58624 37.44928
# Shear Modulus (GPa) = 31.89326 32.51855 32.20590
#
# Velocity S-wave (km/s) = 3.67888 3.71476 3.69686
# Velocity P-wave (km/s) = 5.82059 5.86083 5.84074
#
# Compressibility (1/GPa) = 0.02680081
#
# Stress axis : x y z
#
# Youngs Moduli (GPa) = 85.15913 73.99258 73.48398
#
# Poissons Ratio (x) = 0.06912 0.20356
# Poissons Ratio (y) = 0.07955 0.17110
# Poissons Ratio (z) = 0.23590 0.17228
#
# Static dielectric constant tensor:
#      x y z
#    x 4.490540 0.000000 0.000000 
#    y 0.000000 3.997830 0.000000 
#    z 0.000000 0.000000 4.489050 
# 
# 
# High freq. dielectric constant tensor:
#      x y z
#    x 1.943510 0.000000 0.000000 
#    y 0.000000 1.919870 0.000000 
#    z 0.000000 0.000000 1.942090 
# 
# From -- ./inp_files/7750.got.cif
#   From: 2010.03.12/outbox.cif.g09.slc.cpg/sg73_4_cif.got.tgz:7750.got - 2010.04.16 15:25:48.
