data_PCOD8297297
_publ_section_title
;
Structure prediction by ZEFSAII (Michael W. Deem and Ramdas Pophale) SiO2 
 PCOD8297297
Probable space group: I M M A
;
_chemical_formula_sum "Si O2"
_cell_formula_units_Z 96
_cell_length_a 8.748869
_cell_length_b 26.789535
_cell_length_c 28.611733
_cell_angle_alpha 90.000000
_cell_angle_beta 90.000000
_cell_angle_gamma 90.000000
_cell_volume 6705.964542
_symmetry_space_group_name_H-M "I M M A"
_symmetry_group_IT_number 74
_symmetry_cell_setting 'orthorhombic'
loop_
_space_group_symop_operation_xyz
x,y,z
-x,1/2-y,z
x,-y,-z
-x,1/2+y,-z
-x,-y,-z
x,1/2+y,-z
-x,y,z
x,1/2-y,z
1/2+x,1/2+y,1/2+z
1/2-x,-y,1/2+z
1/2+x,1/2-y,1/2-z
1/2-x,y,1/2-z
1/2-x,1/2-y,1/2-z
1/2+x,y,1/2-z
1/2-x,1/2+y,1/2+z
1/2+x,-y,1/2+z
loop_
_atom_site_type_symbol
_atom_site_label
_atom_site_fract_x
_atom_site_fract_y
_atom_site_fract_z
Si Si1 0.681472 0.194835 0.607604
Si Si2 0.820078 0.602300 0.049204
Si Si3 0.181125 0.463267 0.702099
Si Si4 0.321304 0.006450 0.610170
Si Si5 0.172294 0.450908 0.468833
Si Si6 0.818426 0.854489 0.202385
O O1 0.500000 0.194227 0.605673
O O2 0.745451 0.250000 0.595277
O O3 0.743217 0.154318 0.570435
O O4 0.733310 0.180888 0.659981
O O5 0.776680 0.558441 0.085251
O O6 0.000000 0.603242 0.040886
O O7 0.741218 0.594589 0.998935
O O8 0.250000 0.485981 0.750000
O O9 0.230587 0.497992 0.658850
O O10 0.250235 0.408824 0.693291
O O11 0.000000 0.460266 0.706065
O O12 0.500000 0.003071 0.620265
O O13 0.270913 0.959902 0.577878
O O14 0.180471 0.500000 0.500000
O O15 0.000000 0.437711 0.454363
O O16 0.750000 0.831263 0.250000
O O17 0.000000 0.859336 0.206242
#
# Coordination Sequence:
#
# PCOD8297297 Si02
#       6
#    16  16  16  16  16  16
#     4   9  17  29  44  59  76 101 134 170 210 253
#     4   9  16  28  43  58  77 102 130 163 202 244
#     4  11  20  29  42  59  80 106 134 166 203 243
#     4  10  17  28  44  62  80 102 130 162 198 241
#     4   9  17  27  40  61  82 101 124 156 198 240
#     4  10  18  30  43  57  73  98 132 171 214 253
#
# _framework density 14.315614
#
# number of rings (size 3 to 8) (size 9 to 14) (size 15 to 20)
#    0.000    2.333    1.667    4.000    0.000    3.000 
#    0.000    0.000    0.000    4.000    0.000    0.000 
#    0.000    0.000    0.000    0.000    0.000    0.833 
#
# Total GULP energy -595095.882595 kJ/mol
# GULP energy per Si atom -12397.830887 kJ/mol
# Density = 1.428303 g / cm^3
# Si number density = 14.315614 Si / 1000 Ang^3
#
#
#
# Elastic Constant Matrix: (Units=GPa)
#
#
# Indices 1 2 3 4 5 6 
#
# 1 68.2005 19.1601 37.0088 0.0000 0.0000 0.0000
# 2 19.1601 58.9389 55.6070 0.0000 0.0000 0.0000
# 3 37.0088 55.6070 101.2143 0.0000 0.0000 0.0000
# 4 0.0000 0.0000 0.0000 21.7502 0.0000 0.0000
# 5 0.0000 0.0000 0.0000 0.0000 26.5038 0.0000
# 6 0.0000 0.0000 0.0000 0.0000 0.0000 10.4324
#
#
#
# Elastic Compliance Matrix: (Units=1/GPa)
#
#
# Indices 1 2 3 4 5 6 
#
# 1 0.018308 0.000756 -0.007110 0.000000 0.000000 0.000000
# 2 0.000756 0.035257 -0.019647 0.000000 0.000000 0.000000
# 3 -0.007110 -0.019647 0.023274 0.000000 0.000000 0.000000
# 4 0.000000 0.000000 0.000000 0.045976 0.000000 0.000000
# 5 0.000000 0.000000 0.000000 0.000000 0.037730 0.000000
# 6 0.000000 0.000000 0.000000 0.000000 0.000000 0.095856
#
#
# Mechanical properties :
#
#
# Convention : Reuss Voigt Hill
#
# Bulk Modulus (GPa) = 40.26051 50.21172 45.23612
# Shear Modulus (GPa) = 15.78875 19.50913 17.64894
#
# Velocity S-wave (km/s) = 3.32460 3.69560 3.51500
# Velocity P-wave (km/s) = 6.55148 7.30485 6.93840
#
# Compressibility (1/GPa) = 0.02483823
#
# Stress axis : x y z
#
# Youngs Moduli (GPa) = 54.61986 28.36330 42.96728
#
# Poissons Ratio (x) = -0.02145 0.30549
# Poissons Ratio (y) = -0.04130 0.84416
# Poissons Ratio (z) = 0.38834 0.55724
#
# Static dielectric constant tensor:
#      x y z
#    x 2.780010 0.000000 0.000000 
#    y 0.000000 2.620660 0.000000 
#    z 0.000000 0.000000 2.967380 
# 
# 
# High freq. dielectric constant tensor:
#      x y z
#    x 1.550390 0.000000 0.000000 
#    y 0.000000 1.492220 0.000000 
#    z 0.000000 0.000000 1.544470 
# 
# From -- ./inp_files/64927.got.cif
#   From: 2010.03.12/outbox.cif.g09.slc.cpg/sg74_33_cif.got.tgz:64927.got - 2010.04.16 15:46:19.
