data_PCOD8297461
_publ_section_title
;
Structure prediction by ZEFSAII (Michael W. Deem and Ramdas Pophale) SiO2 
 PCOD8297461
Probable space group: I M M A
;
_chemical_formula_sum "Si O2"
_cell_formula_units_Z 88
_cell_length_a 9.502491
_cell_length_b 25.788448
_cell_length_c 27.387327
_cell_angle_alpha 90.000000
_cell_angle_beta 90.000000
_cell_angle_gamma 90.000000
_cell_volume 6711.387588
_symmetry_space_group_name_H-M "I M M A"
_symmetry_group_IT_number 74
_symmetry_cell_setting 'orthorhombic'
loop_
_space_group_symop_operation_xyz
x,y,z
-x,1/2-y,z
x,-y,-z
-x,1/2+y,-z
-x,-y,-z
x,1/2+y,-z
-x,y,z
x,1/2-y,z
1/2+x,1/2+y,1/2+z
1/2-x,-y,1/2+z
1/2+x,1/2-y,1/2-z
1/2-x,y,1/2-z
1/2-x,1/2-y,1/2-z
1/2+x,y,1/2-z
1/2-x,1/2+y,1/2+z
1/2+x,-y,1/2+z
loop_
_atom_site_type_symbol
_atom_site_label
_atom_site_fract_x
_atom_site_fract_y
_atom_site_fract_z
Si Si1 0.344543 0.011605 0.394954
Si Si2 0.665563 0.957353 0.297670
Si Si3 0.167190 0.750000 0.199914
Si Si4 0.333348 0.644709 0.350522
Si Si5 0.342760 0.098083 0.552173
Si Si6 0.158249 0.445070 0.473045
O O1 0.500000 0.037120 0.396897
O O2 0.300919 0.000195 0.339115
O O3 0.350257 0.958136 0.423952
O O4 0.233806 0.050247 0.420394
O O5 0.500000 0.955249 0.286085
O O6 0.750000 0.974487 0.250000
O O7 0.722922 0.901021 0.315299
O O8 0.250000 0.750000 0.250000
O O9 0.216654 0.700033 0.169386
O O10 0.000000 0.750000 0.209790
O O11 0.500000 0.639649 0.351966
O O12 0.280920 0.637329 0.406527
O O13 0.500000 0.114500 0.535103
O O14 0.239755 0.097605 0.505625
O O15 0.158618 0.500000 0.500000
O O16 0.000000 0.425253 0.464457
#
# Coordination Sequence:
#
# PCOD8297461 Si02
#       6
#    16  16   8  16  16  16
#     4   8  14  23  33  44  60  83 106 125 150 191
#     4   9  16  25  35  47  63  84 111 139 167 197
#     4  10  18  28  40  52  66  84 110 144 179 210
#     4   8  15  26  38  50  63  82 109 139 170 207
#     4   8  13  23  36  46  59  81 104 124 154 197
#     4   9  15  21  31  49  67  78  93 122 158 191
#
# _framework density 13.112042000000001
#
# number of rings (size 3 to 8) (size 9 to 14) (size 15 to 20)
#    0.000    3.455    0.000    3.273    0.000    2.909 
#    0.000    3.636    0.000    0.000    0.000    0.000 
#    0.000    0.000    0.000    0.000    0.000    0.000 
#
# Total GULP energy -545275.785912 kJ/mol
# GULP energy per Si atom -12392.631498 kJ/mol
# Density = 1.308220 g / cm^3
# Si number density = 13.112042 Si / 1000 Ang^3
#
#
#
# Elastic Constant Matrix: (Units=GPa)
#
#
# Indices 1 2 3 4 5 6 
#
# 1 72.7497 24.2516 58.8822 0.0000 0.0000 0.0000
# 2 24.2516 30.2621 40.8247 0.0000 0.0000 0.0000
# 3 58.8822 40.8247 108.9280 0.0000 0.0000 0.0000
# 4 0.0000 0.0000 0.0000 19.5624 0.0000 0.0000
# 5 0.0000 0.0000 0.0000 0.0000 23.3667 0.0000
# 6 0.0000 0.0000 0.0000 0.0000 0.0000 6.9270
#
#
#
# Elastic Compliance Matrix: (Units=1/GPa)
#
#
# Indices 1 2 3 4 5 6 
#
# 1 0.024630 -0.003594 -0.011967 0.000000 0.000000 0.000000
# 2 -0.003594 0.067362 -0.023304 0.000000 0.000000 0.000000
# 3 -0.011967 -0.023304 0.024383 0.000000 0.000000 0.000000
# 4 0.000000 0.000000 0.000000 0.051119 0.000000 0.000000
# 5 0.000000 0.000000 0.000000 0.000000 0.042796 0.000000
# 6 0.000000 0.000000 0.000000 0.000000 0.000000 0.144362
#
#
# Mechanical properties :
#
#
# Convention : Reuss Voigt Hill
#
# Bulk Modulus (GPa) = 25.87598 51.09520 38.48559
# Shear Modulus (GPa) = 11.22934 15.83663 13.53299
#
# Velocity S-wave (km/s) = 2.92963 3.47910 3.21612
# Velocity P-wave (km/s) = 5.58758 7.42911 6.57315
#
# Compressibility (1/GPa) = 0.03864588
#
# Stress axis : x y z
#
# Youngs Moduli (GPa) = 40.60164 14.84506 41.01228
#
# Poissons Ratio (x) = 0.05336 0.49078
# Poissons Ratio (y) = 0.14593 0.95573
# Poissons Ratio (z) = 0.48587 0.34594
#
# Static dielectric constant tensor:
#      x y z
#    x 2.660980 0.000000 0.000000 
#    y 0.000000 2.393800 0.000000 
#    z 0.000000 0.000000 2.768740 
# 
# 
# High freq. dielectric constant tensor:
#      x y z
#    x 1.492590 0.000000 0.000000 
#    y 0.000000 1.435590 0.000000 
#    z 0.000000 0.000000 1.495840 
# 
# From -- ./inp_files/57778.got.cif
#   From: 2010.03.12/outbox.cif.g09.slc.cpg/sg74_29_cif.got.tgz:57778.got - 2010.04.16 15:46:19.
