data_PCOD8297912
_publ_section_title
;
Structure prediction by ZEFSAII (Michael W. Deem and Ramdas Pophale) SiO2 
 PCOD8297912
Probable space group: I M M A
;
_chemical_formula_sum "Si O2"
_cell_formula_units_Z 88
_cell_length_a 20.172641
_cell_length_b 8.632059
_cell_length_c 30.207476
_cell_angle_alpha 90.000000
_cell_angle_beta 90.000000
_cell_angle_gamma 90.000000
_cell_volume 5260.070911
_symmetry_space_group_name_H-M "I M M A"
_symmetry_group_IT_number 74
_symmetry_cell_setting 'orthorhombic'
loop_
_space_group_symop_operation_xyz
x,y,z
-x,1/2-y,z
x,-y,-z
-x,1/2+y,-z
-x,-y,-z
x,1/2+y,-z
-x,y,z
x,1/2-y,z
1/2+x,1/2+y,1/2+z
1/2-x,-y,1/2+z
1/2+x,1/2-y,1/2-z
1/2-x,y,1/2-z
1/2-x,1/2-y,1/2-z
1/2+x,y,1/2-z
1/2-x,1/2+y,1/2+z
1/2+x,-y,1/2+z
loop_
_atom_site_type_symbol
_atom_site_label
_atom_site_fract_x
_atom_site_fract_y
_atom_site_fract_z
Si Si1 0.714233 0.565535 0.704743
Si Si2 0.199463 0.430206 0.627637
Si Si3 0.000000 0.565210 0.450852
Si Si4 0.927334 0.924311 0.317773
Si Si5 0.928537 0.069560 0.225688
Si Si6 0.863514 0.066923 0.451457
O O1 0.717763 0.750000 0.703672
O O2 0.750000 0.505393 0.750000
O O3 0.746191 0.498408 0.660592
O O4 0.637969 0.502902 0.702880
O O5 0.213892 0.250000 0.620614
O O6 0.127321 0.466533 0.646837
O O7 0.198122 0.516037 0.580078
O O8 0.000000 0.500000 0.500000
O O9 0.068382 0.501474 0.429854
O O10 0.000000 0.750000 0.449012
O O11 0.916653 0.750000 0.299250
O O12 0.000000 0.938134 0.340598
O O13 0.921162 0.044022 0.277872
O O14 0.930916 0.250000 0.216375
O O15 0.000000 0.996828 0.209313
O O16 0.868631 0.250000 0.454617
O O17 0.849411 0.000000 0.500000
#
# Coordination Sequence:
#
# PCOD8297912 Si02
#       6
#    16  16   8  16  16  16
#     4  10  19  32  48  69  99 130 163 206 249 294
#     4  11  22  33  49  71  95 129 167 206 252 299
#     4  10  18  32  52  72  96 126 164 208 254 296
#     4   9  18  30  43  63  91 124 161 202 244 285
#     4   9  17  30  48  67  91 127 166 203 243 289
#     4  11  22  37  53  71  95 126 165 208 254 298
#
# _framework density 16.729813
#
# number of rings (size 3 to 8) (size 9 to 14) (size 15 to 20)
#    0.000    2.000    1.818    4.091    1.273    1.818 
#    0.000    0.000    0.000    0.000    0.000    0.000 
#    0.000    0.727    0.000    2.000    0.000    2.909 
#
# Total GULP energy -545208.997158 kJ/mol
# GULP energy per Si atom -12391.113572 kJ/mol
# Density = 1.669173 g / cm^3
# Si number density = 16.729813 Si / 1000 Ang^3
#
#
#
# Elastic Constant Matrix: (Units=GPa)
#
#
# Indices 1 2 3 4 5 6 
#
# 1 118.8037 38.4853 57.0764 0.0000 0.0000 0.0000
# 2 38.4853 68.1371 28.8075 0.0000 0.0000 0.0000
# 3 57.0764 28.8075 80.1778 0.0000 0.0000 0.0000
# 4 0.0000 0.0000 0.0000 24.5560 0.0000 0.0000
# 5 0.0000 0.0000 0.0000 0.0000 28.3002 0.0000
# 6 0.0000 0.0000 0.0000 0.0000 0.0000 19.1201
#
#
#
# Elastic Compliance Matrix: (Units=1/GPa)
#
#
# Indices 1 2 3 4 5 6 
#
# 1 0.013778 -0.004286 -0.008268 0.000000 0.000000 0.000000
# 2 -0.004286 0.018639 -0.003645 0.000000 0.000000 0.000000
# 3 -0.008268 -0.003645 0.019668 0.000000 0.000000 0.000000
# 4 0.000000 0.000000 0.000000 0.040723 0.000000 0.000000
# 5 0.000000 0.000000 0.000000 0.000000 0.035335 0.000000
# 6 0.000000 0.000000 0.000000 0.000000 0.000000 0.052301
#
#
# Mechanical properties :
#
#
# Convention : Reuss Voigt Hill
#
# Bulk Modulus (GPa) = 50.80093 57.31744 54.05919
# Shear Modulus (GPa) = 22.78887 23.91190 23.35038
#
# Velocity S-wave (km/s) = 3.69476 3.78471 3.74001
# Velocity P-wave (km/s) = 6.97375 7.30984 7.14377
#
# Compressibility (1/GPa) = 0.01968468
#
# Stress axis : x y z
#
# Youngs Moduli (GPa) = 72.57936 53.65214 50.84444
#
# Poissons Ratio (x) = 0.22998 0.42039
# Poissons Ratio (y) = 0.31111 0.18534
# Poissons Ratio (z) = 0.60009 0.19558
#
# Static dielectric constant tensor:
#      x y z
#    x 3.539770 0.000000 0.000000 
#    y 0.000000 3.105280 0.000000 
#    z 0.000000 0.000000 2.966560 
# 
# 
# High freq. dielectric constant tensor:
#      x y z
#    x 1.632180 0.000000 0.000000 
#    y 0.000000 1.646940 0.000000 
#    z 0.000000 0.000000 1.615200 
# 
# From -- ./inp_files/70446.got.cif
#   From: 2010.03.12/outbox.cif.g09.slc.cpg/sg74_36_cif.got.tgz:70446.got - 2010.04.16 15:46:19.
