data_PCOD8297563
_publ_section_title
;
Structure prediction by ZEFSAII (Michael W. Deem and Ramdas Pophale) SiO2 
 PCOD8297563
Probable space group: I M M A
;
_chemical_formula_sum "Si O2"
_cell_formula_units_Z 80
_cell_length_a 35.753300
_cell_length_b 24.887733
_cell_length_c 5.258575
_cell_angle_alpha 90.000000
_cell_angle_beta 90.000000
_cell_angle_gamma 90.000000
_cell_volume 4679.177762
_symmetry_space_group_name_H-M "I M M A"
_symmetry_group_IT_number 74
_symmetry_cell_setting 'orthorhombic'
loop_
_space_group_symop_operation_xyz
x,y,z
-x,1/2-y,z
x,-y,-z
-x,1/2+y,-z
-x,-y,-z
x,1/2+y,-z
-x,y,z
x,1/2-y,z
1/2+x,1/2+y,1/2+z
1/2-x,-y,1/2+z
1/2+x,1/2-y,1/2-z
1/2-x,y,1/2-z
1/2-x,1/2-y,1/2-z
1/2+x,y,1/2-z
1/2-x,1/2+y,1/2+z
1/2+x,-y,1/2+z
loop_
_atom_site_type_symbol
_atom_site_label
_atom_site_fract_x
_atom_site_fract_y
_atom_site_fract_z
Si Si1 0.419257 0.153166 0.268075
Si Si2 0.708115 0.186291 0.753063
Si Si3 0.542258 0.941176 0.943810
Si Si4 0.664476 0.813802 0.747308
Si Si5 0.957903 0.839172 0.273510
O O1 0.431775 0.090151 0.260953
O O2 0.374942 0.156513 0.256736
O O3 0.434629 0.179411 0.527599
O O4 0.437683 0.184617 0.027035
O O5 0.710365 0.250000 0.757937
O O6 0.750000 0.162098 0.750000
O O7 0.686986 0.166774 0.500440
O O8 0.686638 0.166069 0.003989
O O9 0.500000 0.946608 0.833865
O O10 0.541570 0.904459 0.199893
O O11 0.559170 0.000000 0.000000
O O12 0.658334 0.750000 0.748570
O O13 0.000000 0.816281 0.253706
#
# Coordination Sequence:
#
# PCOD8297563 Si02
#       5
#    16  16  16  16  16
#     4  10  18  29  44  64  91 119 148 188 224 268
#     4   9  17  30  48  69  91 116 146 179 219 270
#     4   8  16  29  46  66  87 116 151 188 234 274
#     4  10  19  30  46  67  93 124 149 177 223 269
#     4   9  17  29  45  61  85 118 148 186 228 264
#
# _framework density 17.097020000000001
#
# number of rings (size 3 to 8) (size 9 to 14) (size 15 to 20)
#    1.200    1.600    0.000    3.000    0.000    3.200 
#    0.000    3.000    0.000    6.600    0.000    0.000 
#    0.000    3.200    0.000    0.000    0.000    0.000 
#
# Total GULP energy -495588.678701 kJ/mol
# GULP energy per Si atom -12389.716968 kJ/mol
# Density = 1.705811 g / cm^3
# Si number density = 17.097020 Si / 1000 Ang^3
#
#
#
# Elastic Constant Matrix: (Units=GPa)
#
#
# Indices 1 2 3 4 5 6 
#
# 1 162.8281 14.9951 77.7187 0.0000 0.0000 0.0000
# 2 14.9951 27.1530 5.3702 0.0000 0.0000 0.0000
# 3 77.7187 5.3702 159.2288 0.0000 0.0000 0.0000
# 4 0.0000 0.0000 0.0000 4.5927 0.0000 0.0000
# 5 0.0000 0.0000 0.0000 0.0000 34.8021 0.0000
# 6 0.0000 0.0000 0.0000 0.0000 0.0000 34.9866
#
#
#
# Elastic Compliance Matrix: (Units=1/GPa)
#
#
# Indices 1 2 3 4 5 6 
#
# 1 0.008388 -0.003848 -0.003964 0.000000 0.000000 0.000000
# 2 -0.003848 0.038841 0.000568 0.000000 0.000000 0.000000
# 3 -0.003964 0.000568 0.008196 0.000000 0.000000 0.000000
# 4 0.000000 0.000000 0.000000 0.217735 0.000000 0.000000
# 5 0.000000 0.000000 0.000000 0.000000 0.028734 0.000000
# 6 0.000000 0.000000 0.000000 0.000000 0.000000 0.028582
#
#
# Mechanical properties :
#
#
# Convention : Reuss Voigt Hill
#
# Bulk Modulus (GPa) = 24.42795 60.59756 42.51275
# Shear Modulus (GPa) = 13.94270 31.61802 22.78036
#
# Velocity S-wave (km/s) = 2.85880 4.30505 3.65419
# Velocity P-wave (km/s) = 5.02154 7.76090 6.53634
#
# Compressibility (1/GPa) = 0.04093671
#
# Stress axis : x y z
#
# Youngs Moduli (GPa) = 119.21715 25.74594 122.00933
#
# Poissons Ratio (x) = 0.09908 0.48369
# Poissons Ratio (y) = 0.45877 -0.06934
# Poissons Ratio (z) = 0.47262 -0.01463
#
# Static dielectric constant tensor:
#      x y z
#    x 3.156450 0.000000 0.000000 
#    y 0.000000 2.667780 0.000000 
#    z 0.000000 0.000000 3.284930 
# 
# 
# High freq. dielectric constant tensor:
#      x y z
#    x 1.658380 0.000000 0.000000 
#    y 0.000000 1.595550 0.000000 
#    z 0.000000 0.000000 1.669870 
# 
# From -- ./inp_files/5262.got.cif
#   From: 2010.03.12/outbox.cif.g09.slc.cpg/sg74_3_cif.got.tgz:5262.got - 2010.04.16 15:46:19.
