data_PCOD8297960
_publ_section_title
;
Structure prediction by ZEFSAII (Michael W. Deem and Ramdas Pophale) SiO2 
 PCOD8297960
Probable space group: I M M A
;
_chemical_formula_sum "Si O2"
_cell_formula_units_Z 64
_cell_length_a 20.854489
_cell_length_b 8.754325
_cell_length_c 18.645560
_cell_angle_alpha 90.000000
_cell_angle_beta 90.000000
_cell_angle_gamma 90.000000
_cell_volume 3404.063475
_symmetry_space_group_name_H-M "I M M A"
_symmetry_group_IT_number 74
_symmetry_cell_setting 'orthorhombic'
loop_
_space_group_symop_operation_xyz
x,y,z
-x,1/2-y,z
x,-y,-z
-x,1/2+y,-z
-x,-y,-z
x,1/2+y,-z
-x,y,z
x,1/2-y,z
1/2+x,1/2+y,1/2+z
1/2-x,-y,1/2+z
1/2+x,1/2-y,1/2-z
1/2-x,y,1/2-z
1/2-x,1/2-y,1/2-z
1/2+x,y,1/2-z
1/2-x,1/2+y,1/2+z
1/2+x,-y,1/2+z
loop_
_atom_site_type_symbol
_atom_site_label
_atom_site_fract_x
_atom_site_fract_y
_atom_site_fract_z
Si Si1 0.111057 0.072195 0.578313
Si Si2 0.378695 0.068985 0.420873
Si Si3 0.000000 0.068918 0.330013
Si Si4 0.500000 0.068708 0.332067
Si Si5 0.252743 0.573086 0.422820
O O1 0.094015 0.250000 0.571211
O O2 0.182548 0.049623 0.612417
O O3 0.103885 0.000000 0.500000
O O4 0.063492 0.991385 0.632389
O O5 0.378826 0.250000 0.426032
O O6 0.437032 0.007127 0.372721
O O7 0.385739 0.000000 0.500000
O O8 0.312013 0.011981 0.383282
O O9 0.000000 0.006290 0.248845
O O10 0.000000 0.250000 0.332896
O O11 0.500000 0.250000 0.332045
O O12 0.246973 0.500000 0.500000
O O13 0.270454 0.750000 0.429423
#
# Coordination Sequence:
#
# PCOD8297960 Si02
#       5
#    16  16   8   8  16
#     4  10  20  35  55  79 105 133 167 208 254 303
#     4  10  18  32  54  78 104 132 168 210 252 300
#     4  11  22  37  54  72 100 137 176 213 250 296
#     4   9  21  37  51  72 103 139 174 209 250 300
#     4   9  17  30  50  77 105 130 162 205 252 300
#
# _framework density 18.801058999999999
#
# number of rings (size 3 to 8) (size 9 to 14) (size 15 to 20)
#    0.000    2.250    0.000    4.875    0.000    3.000 
#    0.000    8.125    0.000    7.500    0.000    0.000 
#    0.000    0.000    0.000    0.000    0.000    0.000 
#
# Total GULP energy -396601.994921 kJ/mol
# GULP energy per Si atom -12393.812341 kJ/mol
# Density = 1.875827 g / cm^3
# Si number density = 18.801059 Si / 1000 Ang^3
#
#
#
# Elastic Constant Matrix: (Units=GPa)
#
#
# Indices 1 2 3 4 5 6 
#
# 1 186.6449 60.3056 72.9393 0.0000 0.0000 0.0000
# 2 60.3056 102.5038 37.2688 0.0000 0.0000 0.0000
# 3 72.9393 37.2688 93.2877 0.0000 0.0000 0.0000
# 4 0.0000 0.0000 0.0000 19.4746 0.0000 0.0000
# 5 0.0000 0.0000 0.0000 0.0000 -2.1219 0.0000
# 6 0.0000 0.0000 0.0000 0.0000 0.0000 29.9903
#
#
#
# Elastic Compliance Matrix: (Units=1/GPa)
#
#
# Indices 1 2 3 4 5 6 
#
# 1 0.008437 -0.003001 -0.005398 0.000000 0.000000 0.000000
# 2 -0.003001 0.012481 -0.002640 0.000000 0.000000 0.000000
# 3 -0.005398 -0.002640 0.015994 0.000000 0.000000 0.000000
# 4 0.000000 0.000000 0.000000 0.051349 0.000000 0.000000
# 5 0.000000 0.000000 0.000000 0.000000 -0.471277 0.000000
# 6 0.000000 0.000000 0.000000 0.000000 0.000000 0.033344
#
#
# Mechanical properties :
#
#
# Convention : Reuss Voigt Hill
#
# Bulk Modulus (GPa) = 67.40634 80.38485 73.89560
# Shear Modulus (GPa) = -15.49668 23.59679 4.05006
#
# Velocity S-wave (km/s) = -2.87408 3.54655 1.46930
# Velocity P-wave (km/s) = 4.99164 7.72133 6.50136
#
# Compressibility (1/GPa) = 0.01483540
#
# Stress axis : x y z
#
# Youngs Moduli (GPa) = 118.52920 80.12086 62.52219
#
# Poissons Ratio (x) = 0.24045 0.33747
# Poissons Ratio (y) = 0.35572 0.16504
# Poissons Ratio (z) = 0.63976 0.21150
#
# Static dielectric constant tensor:
#      x y z
#    x 4.410100 0.000000 0.000000 
#    y 0.000000 3.488010 0.000000 
#    z 0.000000 0.000000 3.174090 
# 
# 
# High freq. dielectric constant tensor:
#      x y z
#    x 1.760680 0.000000 0.000000 
#    y 0.000000 1.736920 0.000000 
#    z 0.000000 0.000000 1.684690 
# 
# From -- ./inp_files/44782.got.cif
#   From: 2010.03.12/outbox.cif.g09.slc.cpg/sg74_23_cif.got.tgz:44782.got - 2010.04.16 15:46:19.
