data_PCOD8297392
_publ_section_title
;
Structure prediction by ZEFSAII (Michael W. Deem and Ramdas Pophale) SiO2 
 PCOD8297392
Probable space group: I M M A
;
_chemical_formula_sum "Si O2"
_cell_formula_units_Z 80
_cell_length_a 9.535816
_cell_length_b 29.421439
_cell_length_c 21.958788
_cell_angle_alpha 90.000000
_cell_angle_beta 90.000000
_cell_angle_gamma 90.000000
_cell_volume 6160.701100
_symmetry_space_group_name_H-M "I M M A"
_symmetry_group_IT_number 74
_symmetry_cell_setting 'orthorhombic'
loop_
_space_group_symop_operation_xyz
x,y,z
-x,1/2-y,z
x,-y,-z
-x,1/2+y,-z
-x,-y,-z
x,1/2+y,-z
-x,y,z
x,1/2-y,z
1/2+x,1/2+y,1/2+z
1/2-x,-y,1/2+z
1/2+x,1/2-y,1/2-z
1/2-x,y,1/2-z
1/2-x,1/2-y,1/2-z
1/2+x,y,1/2-z
1/2-x,1/2+y,1/2+z
1/2+x,-y,1/2+z
loop_
_atom_site_type_symbol
_atom_site_label
_atom_site_fract_x
_atom_site_fract_y
_atom_site_fract_z
Si Si1 0.662824 0.198139 0.190672
Si Si2 0.341546 0.984764 0.403143
Si Si3 0.162862 0.032796 0.311008
Si Si4 0.159413 0.119494 0.396198
Si Si5 0.343438 0.572934 0.513219
O O1 0.500000 0.189732 0.206173
O O2 0.692002 0.250000 0.171132
O O3 0.750000 0.184647 0.250000
O O4 0.711443 0.166041 0.135276
O O5 0.500000 0.977529 0.377905
O O6 0.231176 0.990622 0.348183
O O7 0.338676 0.029258 0.444202
O O8 0.295358 0.941799 0.445071
O O9 0.250000 0.039653 0.250000
O O10 0.179458 0.079025 0.348369
O O11 0.000000 0.021841 0.297348
O O12 0.245225 0.111811 0.458441
O O13 0.000000 0.123703 0.417153
O O14 0.500000 0.592815 0.510495
#
# Coordination Sequence:
#
# PCOD8297392 Si02
#       5
#    16  16  16  16  16
#     4   9  17  28  39  50  66  89 116 146 180 214
#     4   8  14  25  37  49  66  86 109 136 167 203
#     4  10  18  25  34  49  68  90 115 143 174 204
#     4   9  17  26  36  51  68  86 112 146 179 209
#     4   8  14  24  38  52  65  84 108 136 170 205
#
# _framework density 12.985535
#
# number of rings (size 3 to 8) (size 9 to 14) (size 15 to 20)
#    0.000    3.200    0.000    2.400    0.000    2.400 
#    0.000    4.000    0.000    0.000    0.000    0.000 
#    0.000    0.000    0.000    0.000    0.000    1.000 
#
# Total GULP energy -495749.249744 kJ/mol
# GULP energy per Si atom -12393.731244 kJ/mol
# Density = 1.295598 g / cm^3
# Si number density = 12.985535 Si / 1000 Ang^3
#
#
#
# Elastic Constant Matrix: (Units=GPa)
#
#
# Indices 1 2 3 4 5 6 
#
# 1 66.7339 30.4243 28.4450 0.0000 0.0000 0.0000
# 2 30.4243 52.9253 27.4943 0.0000 0.0000 0.0000
# 3 28.4450 27.4943 29.8546 0.0002 0.0000 0.0000
# 4 0.0000 0.0000 0.0002 22.6097 0.0000 0.0000
# 5 0.0000 0.0000 0.0000 0.0000 25.6841 0.0000
# 6 0.0000 0.0000 0.0000 0.0000 0.0000 14.8271
#
#
#
# Elastic Compliance Matrix: (Units=1/GPa)
#
#
# Indices 1 2 3 4 5 6 
#
# 1 0.025651 -0.003929 -0.020822 0.000000 0.000000 0.000000
# 2 -0.003929 0.036828 -0.030173 0.000000 0.000000 0.000000
# 3 -0.020822 -0.030173 0.081122 -0.000001 0.000000 0.000000
# 4 0.000000 0.000000 -0.000001 0.044229 0.000000 0.000000
# 5 0.000000 0.000000 0.000000 0.000000 0.038935 0.000000
# 6 0.000000 0.000000 0.000000 0.000000 0.000000 0.067444
#
#
# Mechanical properties :
#
#
# Convention : Reuss Voigt Hill
#
# Bulk Modulus (GPa) = 29.62636 35.80456 32.71546
# Shear Modulus (GPa) = 12.03930 16.83419 14.43675
#
# Velocity S-wave (km/s) = 3.04819 3.60443 3.33792
# Velocity P-wave (km/s) = 5.93743 6.70486 6.33278
#
# Compressibility (1/GPa) = 0.03375373
#
# Stress axis : x y z
#
# Youngs Moduli (GPa) = 38.98430 27.15358 12.32715
#
# Poissons Ratio (x) = 0.10668 0.25667
# Poissons Ratio (y) = 0.15317 0.37194
# Poissons Ratio (z) = 0.81173 0.81929
#
# Static dielectric constant tensor:
#      x y z
#    x 2.791480 0.000000 0.000000 
#    y 0.000000 2.480100 0.000000 
#    z 0.000000 0.000000 2.633820 
# 
# 
# High freq. dielectric constant tensor:
#      x y z
#    x 1.503300 0.000000 0.000000 
#    y 0.000000 1.452640 0.000000 
#    z 0.000000 0.000000 1.473910 
# 
# From -- ./inp_files/46946.got.cif
#   From: 2010.03.12/outbox.cif.g09.slc.cpg/sg74_24_cif.got.tgz:46946.got - 2010.04.16 15:46:19.
