data_PCOD8297707
_publ_section_title
;
Structure prediction by ZEFSAII (Michael W. Deem and Ramdas Pophale) SiO2 
 PCOD8297707
Probable space group: I M M A
;
_chemical_formula_sum "Si O2"
_cell_formula_units_Z 96
_cell_length_a 18.093516
_cell_length_b 11.208733
_cell_length_c 26.714850
_cell_angle_alpha 90.000000
_cell_angle_beta 90.000000
_cell_angle_gamma 90.000000
_cell_volume 5417.915570
_symmetry_space_group_name_H-M "I M M A"
_symmetry_group_IT_number 74
_symmetry_cell_setting 'orthorhombic'
loop_
_space_group_symop_operation_xyz
x,y,z
-x,1/2-y,z
x,-y,-z
-x,1/2+y,-z
-x,-y,-z
x,1/2+y,-z
-x,y,z
x,1/2-y,z
1/2+x,1/2+y,1/2+z
1/2-x,-y,1/2+z
1/2+x,1/2-y,1/2-z
1/2-x,y,1/2-z
1/2-x,1/2-y,1/2-z
1/2+x,y,1/2-z
1/2-x,1/2+y,1/2+z
1/2+x,-y,1/2+z
loop_
_atom_site_type_symbol
_atom_site_label
_atom_site_fract_x
_atom_site_fract_y
_atom_site_fract_z
Si Si1 0.087780 0.750000 0.736219
Si Si2 0.623431 0.379445 0.817403
Si Si3 0.786924 0.380013 0.859655
Si Si4 0.719649 0.108830 0.962536
Si Si5 0.087756 0.750000 0.621857
Si Si6 0.831819 0.025418 0.228804
Si Si7 0.582224 0.999575 0.087615
O O1 0.119262 0.750000 0.678895
O O2 0.118731 0.641409 0.768210
O O3 0.000000 0.750000 0.736832
O O4 0.586019 0.250000 0.816415
O O5 0.705817 0.371982 0.837487
O O6 0.625203 0.427149 0.761238
O O7 0.575473 0.461441 0.854262
O O8 0.825254 0.250000 0.853492
O O9 0.779018 0.411329 0.918261
O O10 0.831430 0.480348 0.828852
O O11 0.723806 0.250000 0.981236
O O12 0.635270 0.086308 0.944256
O O13 0.739717 0.000000 0.000000
O O14 0.114442 0.634942 0.589945
O O15 0.000000 0.750000 0.625898
O O16 0.750000 0.050774 0.250000
O O17 0.500000 0.994753 0.063805
#
# Coordination Sequence:
#
# PCOD8297707 Si02
#       7
#     8  16  16  16   8  16  16
#     4  11  21  33  45  69 113 145 167 211 257 295
#     4   9  16  26  44  68  93 122 163 214 255 290
#     4   8  16  32  50  69  94 123 160 206 259 307
#     4  10  22  38  53  73  98 130 164 219 281 314
#     4   9  18  31  47  65  93 139 181 211 248 289
#     4  10  18  30  48  73  97 133 177 208 245 304
#     4  10  19  32  48  66  94 136 183 218 250 302
#
# _framework density 17.718990999999999
#
# number of rings (size 3 to 8) (size 9 to 14) (size 15 to 20)
#    0.000    2.500    1.667    2.250    1.167    3.667 
#    1.500    0.000    0.000    1.500    0.000    0.000 
#    0.000    0.667    0.000    0.000    0.000    0.000 
#
# Total GULP energy -594651.014984 kJ/mol
# GULP energy per Si atom -12388.562812 kJ/mol
# Density = 1.767866 g / cm^3
# Si number density = 17.718991 Si / 1000 Ang^3
#
#
#
# Elastic Constant Matrix: (Units=GPa)
#
#
# Indices 1 2 3 4 5 6 
#
# 1 18.3082 15.6076 9.9664 0.0000 0.0000 0.0000
# 2 15.6076 136.3190 44.1793 0.0000 0.0000 0.0000
# 3 9.9664 44.1793 76.2133 0.0000 0.0000 0.0000
# 4 0.0000 0.0000 0.0000 32.1724 0.0000 0.0000
# 5 0.0000 0.0000 0.0000 0.0000 14.8799 0.0000
# 6 0.0000 0.0000 0.0000 0.0000 0.0000 -1.3334
#
#
#
# Elastic Compliance Matrix: (Units=1/GPa)
#
#
# Indices 1 2 3 4 5 6 
#
# 1 0.061988 -0.005504 -0.004916 0.000000 0.000000 0.000000
# 2 -0.005504 0.009521 -0.004800 0.000000 0.000000 0.000000
# 3 -0.004916 -0.004800 0.016546 0.000000 0.000000 0.000000
# 4 0.000000 0.000000 0.000000 0.031083 0.000000 0.000000
# 5 0.000000 0.000000 0.000000 0.000000 0.067205 0.000000
# 6 0.000000 0.000000 0.000000 0.000000 0.000000 -0.749949
#
#
# Mechanical properties :
#
#
# Convention : Reuss Voigt Hill
#
# Bulk Modulus (GPa) = 17.35589 41.14968 29.25279
# Shear Modulus (GPa) = -9.72836 19.88292 5.07728
#
# Velocity S-wave (km/s) = -2.34569 3.35345 1.69460
# Velocity P-wave (km/s) = 1.57479 6.18612 4.51376
#
# Compressibility (1/GPa) = 0.05761732
#
# Stress axis : x y z
#
# Youngs Moduli (GPa) = 16.13204 105.02648 60.43722
#
# Poissons Ratio (x) = 0.57808 0.29708
# Poissons Ratio (y) = 0.08879 0.29007
# Poissons Ratio (z) = 0.07930 0.50408
#
# Static dielectric constant tensor:
#      x y z
#    x 2.848410 0.000000 0.000000 
#    y 0.000000 3.309260 0.000000 
#    z 0.000000 0.000000 3.356470 
# 
# 
# High freq. dielectric constant tensor:
#      x y z
#    x 1.624990 0.000000 0.000000 
#    y 0.000000 1.705850 0.000000 
#    z 0.000000 0.000000 1.666230 
# 
# From -- ./inp_files/67724.got.cif
#   From: 2010.03.12/outbox.cif.g09.slc.cpg/sg74_34_cif.got.tgz:67724.got - 2010.04.16 15:46:19.
