data_PCOD8297399
_publ_section_title
;
Structure prediction by ZEFSAII (Michael W. Deem and Ramdas Pophale) SiO2 
 PCOD8297399
Probable space group: I M M A
;
_chemical_formula_sum "Si O2"
_cell_formula_units_Z 112
_cell_length_a 21.995652
_cell_length_b 17.808589
_cell_length_c 17.626572
_cell_angle_alpha 90.000000
_cell_angle_beta 90.000000
_cell_angle_gamma 90.000000
_cell_volume 6904.531421
_symmetry_space_group_name_H-M "I M M A"
_symmetry_group_IT_number 74
_symmetry_cell_setting 'orthorhombic'
loop_
_space_group_symop_operation_xyz
x,y,z
-x,1/2-y,z
x,-y,-z
-x,1/2+y,-z
-x,-y,-z
x,1/2+y,-z
-x,y,z
x,1/2-y,z
1/2+x,1/2+y,1/2+z
1/2-x,-y,1/2+z
1/2+x,1/2-y,1/2-z
1/2-x,y,1/2-z
1/2-x,1/2-y,1/2-z
1/2+x,y,1/2-z
1/2-x,1/2+y,1/2+z
1/2+x,-y,1/2+z
loop_
_atom_site_type_symbol
_atom_site_label
_atom_site_fract_x
_atom_site_fract_y
_atom_site_fract_z
Si Si1 0.151418 0.415684 0.470790
Si Si2 0.291905 0.586685 0.510049
Si Si3 0.835304 0.339054 0.701506
Si Si4 0.168764 0.335649 0.322823
Si Si5 0.432277 0.161114 0.913304
Si Si6 0.292105 0.661445 0.359588
Si Si7 0.187942 0.334081 0.157229
O O1 0.138123 0.500000 0.500000
O O2 0.220561 0.392511 0.487890
O O3 0.140116 0.397544 0.380933
O O4 0.104406 0.361480 0.512256
O O5 0.303484 0.500000 0.500000
O O6 0.319432 0.627152 0.436228
O O7 0.327754 0.612905 0.585572
O O8 0.831572 0.250000 0.697150
O O9 0.895979 0.369564 0.660654
O O10 0.775791 0.370337 0.657566
O O11 0.835043 0.364138 0.789432
O O12 0.145229 0.250000 0.338982
O O13 0.153914 0.359620 0.235311
O O14 0.240632 0.336165 0.330393
O O15 0.500000 0.125832 0.913269
O O16 0.436546 0.250000 0.911173
O O17 0.290932 0.750000 0.368376
O O18 0.166897 0.250000 0.136702
#
# Coordination Sequence:
#
# PCOD8297399 Si02
#       7
#    16  16  16  16  16  16  16
#     4  10  19  29  40  60  87 116 147 177 221 263
#     4  10  18  26  36  62  90 115 145 178 215 261
#     4   8  15  27  42  63  82 107 146 176 213 257
#     4   8  14  26  42  57  77 109 148 183 209 250
#     4  10  19  31  47  64  84 112 150 191 219 249
#     4   9  15  26  44  60  83 116 146 176 208 262
#     4   8  14  25  40  56  77 110 147 179 213 249
#
# _framework density 16.221231
#
# number of rings (size 3 to 8) (size 9 to 14) (size 15 to 20)
#    0.000    3.000    1.429    2.571    0.000    1.429 
#    2.571    1.429    0.000    0.000    0.000    0.000 
#    0.000    1.714    0.000    8.429    0.000    0.143 
#
# Total GULP energy -693745.756036 kJ/mol
# GULP energy per Si atom -12388.317072 kJ/mol
# Density = 1.618431 g / cm^3
# Si number density = 16.221231 Si / 1000 Ang^3
#
#
#
# Elastic Constant Matrix: (Units=GPa)
#
#
# Indices 1 2 3 4 5 6 
#
# 1 40.7757 18.1288 33.5739 0.0000 0.0000 0.0000
# 2 18.1288 53.0855 59.6709 0.0000 0.0000 0.0000
# 3 33.5739 59.6709 175.2873 0.0000 0.0000 0.0000
# 4 0.0000 0.0000 0.0000 20.0325 0.0000 0.0000
# 5 0.0000 0.0000 0.0000 0.0000 11.3685 0.0000
# 6 0.0000 0.0000 0.0000 0.0000 0.0000 10.4938
#
#
#
# Elastic Compliance Matrix: (Units=1/GPa)
#
#
# Indices 1 2 3 4 5 6 
#
# 1 0.030326 -0.006199 -0.003698 0.000000 0.000000 0.000000
# 2 -0.006199 0.031781 -0.009631 0.000000 0.000000 0.000000
# 3 -0.003698 -0.009631 0.009692 0.000000 0.000000 0.000000
# 4 0.000000 0.000000 0.000000 0.049919 0.000000 0.000000
# 5 0.000000 0.000000 0.000000 0.000000 0.087962 0.000000
# 6 0.000000 0.000000 0.000000 0.000000 0.000000 0.095294
#
#
# Mechanical properties :
#
#
# Convention : Reuss Voigt Hill
#
# Bulk Modulus (GPa) = 30.54312 54.65509 42.59910
# Shear Modulus (GPa) = 14.08670 18.89729 16.49199
#
# Velocity S-wave (km/s) = 2.95008 3.41687 3.19202
# Velocity P-wave (km/s) = 5.52032 7.02377 6.31693
#
# Compressibility (1/GPa) = 0.03274060
#
# Stress axis : x y z
#
# Youngs Moduli (GPa) = 32.97547 31.46550 103.17882
#
# Poissons Ratio (x) = 0.19507 0.38156
# Poissons Ratio (y) = 0.20443 0.99375
# Poissons Ratio (z) = 0.12194 0.30306
#
# Static dielectric constant tensor:
#      x y z
#    x 2.704540 0.000000 0.000000 
#    y 0.000000 2.809010 0.000000 
#    z 0.000000 0.000000 3.571330 
# 
# 
# High freq. dielectric constant tensor:
#      x y z
#    x 1.548980 0.000000 0.000000 
#    y 0.000000 1.605700 0.000000 
#    z 0.000000 0.000000 1.643310 
# 
# From -- ./inp_files/46266.got.cif
#   From: 2010.03.12/outbox.cif.g09.slc.cpg/sg74_24_cif.got.tgz:46266.got - 2010.04.16 15:46:19.
