data_PCOD8297176
_publ_section_title
;
Structure prediction by ZEFSAII (Michael W. Deem and Ramdas Pophale) SiO2 
 PCOD8297176
Probable space group: I M M A
;
_chemical_formula_sum "Si O2"
_cell_formula_units_Z 88
_cell_length_a 9.295725
_cell_length_b 20.201971
_cell_length_c 25.266331
_cell_angle_alpha 90.000000
_cell_angle_beta 90.000000
_cell_angle_gamma 90.000000
_cell_volume 4744.813994
_symmetry_space_group_name_H-M "I M M A"
_symmetry_group_IT_number 74
_symmetry_cell_setting 'orthorhombic'
loop_
_space_group_symop_operation_xyz
x,y,z
-x,1/2-y,z
x,-y,-z
-x,1/2+y,-z
-x,-y,-z
x,1/2+y,-z
-x,y,z
x,1/2-y,z
1/2+x,1/2+y,1/2+z
1/2-x,-y,1/2+z
1/2+x,1/2-y,1/2-z
1/2-x,y,1/2-z
1/2-x,1/2-y,1/2-z
1/2+x,y,1/2-z
1/2-x,1/2+y,1/2+z
1/2+x,-y,1/2+z
loop_
_atom_site_type_symbol
_atom_site_label
_atom_site_fract_x
_atom_site_fract_y
_atom_site_fract_z
Si Si1 0.826565 0.059976 0.303672
Si Si2 0.254761 0.000000 0.500000
Si Si3 0.839431 0.457705 0.610972
Si Si4 0.159245 0.858389 0.976221
Si Si5 0.168899 0.822039 0.424873
Si Si6 0.167031 0.173255 0.141543
O O1 0.750000 0.036859 0.250000
O O2 0.768110 0.132480 0.318702
O O3 0.000000 0.062106 0.298649
O O4 0.765909 0.007944 0.347788
O O5 0.157424 0.013956 0.551397
O O6 0.352496 0.063174 0.487055
O O7 0.768400 0.383290 0.610402
O O8 0.000000 0.450409 0.632007
O O9 0.218477 0.843160 0.917883
O O10 0.000000 0.828027 0.982295
O O11 0.263176 0.822026 0.017009
O O12 0.200201 0.750000 0.398326
O O13 0.000000 0.833578 0.432924
O O14 0.191294 0.250000 0.154365
O O15 0.000000 0.153156 0.149419
#
# Coordination Sequence:
#
# PCOD8297176 Si02
#       6
#    16   8  16  16  16  16
#     4  11  23  40  59  80 104 137 179 225 270 315
#     4  10  16  30  52  80 109 138 177 214 263 318
#     4   9  18  32  54  81 108 137 174 219 265 311
#     4  10  19  30  48  77 113 146 176 213 261 313
#     4   9  18  32  51  77 109 144 178 212 256 313
#     4  10  21  37  55  76 106 143 181 222 266 312
#
# _framework density 18.546565000000001
#
# number of rings (size 3 to 8) (size 9 to 14) (size 15 to 20)
#    0.000    2.182    1.818    1.636    0.000    3.273 
#    0.000    0.909    0.000    0.545    0.000    0.000 
#    0.000    0.000    0.000    0.000    0.000    0.182 
#
# Total GULP energy -545269.784751 kJ/mol
# GULP energy per Si atom -12392.495108 kJ/mol
# Density = 1.850435 g / cm^3
# Si number density = 18.546565 Si / 1000 Ang^3
#
#
#
# Elastic Constant Matrix: (Units=GPa)
#
#
# Indices 1 2 3 4 5 6 
#
# 1 55.8984 28.6227 27.6027 0.0000 0.0000 0.0000
# 2 28.6227 136.9006 55.6332 0.0000 0.0000 0.0000
# 3 27.6027 55.6332 100.8252 0.0000 0.0000 0.0000
# 4 0.0000 0.0000 0.0000 19.6221 0.0000 0.0000
# 5 0.0000 0.0000 0.0000 0.0000 23.5976 0.0000
# 6 0.0000 0.0000 0.0000 0.0000 0.0000 18.9110
#
#
#
# Elastic Compliance Matrix: (Units=1/GPa)
#
#
# Indices 1 2 3 4 5 6 
#
# 1 0.021435 -0.002703 -0.004377 0.000000 0.000000 0.000000
# 2 -0.002703 0.009757 -0.004644 0.000000 0.000000 0.000000
# 3 -0.004377 -0.004644 0.013679 0.000000 0.000000 0.000000
# 4 0.000000 0.000000 0.000000 0.050963 0.000000 0.000000
# 5 0.000000 0.000000 0.000000 0.000000 0.042377 0.000000
# 6 0.000000 0.000000 0.000000 0.000000 0.000000 0.052879
#
#
# Mechanical properties :
#
#
# Convention : Reuss Voigt Hill
#
# Bulk Modulus (GPa) = 46.67735 57.48238 52.07986
# Shear Modulus (GPa) = 22.55530 24.54385 23.54957
#
# Velocity S-wave (km/s) = 3.49111 3.64175 3.56723
# Velocity P-wave (km/s) = 6.43993 6.98169 6.71628
#
# Compressibility (1/GPa) = 0.02142367
#
# Stress axis : x y z
#
# Youngs Moduli (GPa) = 46.65297 102.49341 73.10686
#
# Poissons Ratio (x) = 0.27703 0.31997
# Poissons Ratio (y) = 0.12610 0.33948
# Poissons Ratio (z) = 0.20419 0.47594
#
# Static dielectric constant tensor:
#      x y z
#    x 3.158120 0.000000 0.000000 
#    y 0.000000 3.798890 0.000000 
#    z 0.000000 0.000000 3.259230 
# 
# 
# High freq. dielectric constant tensor:
#      x y z
#    x 1.701270 0.000000 0.000000 
#    y 0.000000 1.736940 0.000000 
#    z 0.000000 0.000000 1.691010 
# 
# From -- ./inp_files/56990.got.cif
#   From: 2010.03.12/outbox.cif.g09.slc.cpg/sg74_29_cif.got.tgz:56990.got - 2010.04.16 15:46:19.
