data_PCOD8297150
_publ_section_title
;
Structure prediction by ZEFSAII (Michael W. Deem and Ramdas Pophale) SiO2 
 PCOD8297150
Probable space group: I M M A
;
_chemical_formula_sum "Si O2"
_cell_formula_units_Z 104
_cell_length_a 20.656550
_cell_length_b 12.396861
_cell_length_c 29.266280
_cell_angle_alpha 90.000000
_cell_angle_beta 90.000000
_cell_angle_gamma 90.000000
_cell_volume 7494.403012
_symmetry_space_group_name_H-M "I M M A"
_symmetry_group_IT_number 74
_symmetry_cell_setting 'orthorhombic'
loop_
_space_group_symop_operation_xyz
x,y,z
-x,1/2-y,z
x,-y,-z
-x,1/2+y,-z
-x,-y,-z
x,1/2+y,-z
-x,y,z
x,1/2-y,z
1/2+x,1/2+y,1/2+z
1/2-x,-y,1/2+z
1/2+x,1/2-y,1/2-z
1/2-x,y,1/2-z
1/2-x,1/2-y,1/2-z
1/2+x,y,1/2-z
1/2-x,1/2+y,1/2+z
1/2+x,-y,1/2+z
loop_
_atom_site_type_symbol
_atom_site_label
_atom_site_fract_x
_atom_site_fract_y
_atom_site_fract_z
Si Si1 0.156791 0.250000 0.336092
Si Si2 0.775557 0.039118 0.322381
Si Si3 0.862694 0.878664 0.368364
Si Si4 0.922314 0.250000 0.243567
Si Si5 0.424761 0.868953 0.225437
Si Si6 0.423438 0.980934 0.947846
Si Si7 0.149336 0.456785 0.227463
Si Si8 0.424556 0.750000 0.919176
O O1 0.202568 0.351811 0.347804
O O2 0.123262 0.250000 0.287462
O O3 0.092800 0.250000 0.366434
O O4 0.809643 0.049915 0.273583
O O5 0.698054 0.033512 0.315437
O O6 0.795262 0.934447 0.352521
O O7 0.854030 0.750000 0.375829
O O8 0.911377 0.907910 0.326629
O O9 0.888830 0.932057 0.414933
O O10 0.899675 0.142456 0.217170
O O11 0.000000 0.250000 0.252334
O O12 0.500000 0.871459 0.233530
O O13 0.395114 0.750000 0.230730
O O14 0.394163 0.937560 0.266337
O O15 0.500000 0.991215 0.938810
O O16 0.396350 0.860140 0.940259
O O17 0.404946 0.000000 0.000000
O O18 0.500000 0.750000 0.926820
#
# Coordination Sequence:
#
# PCOD8297150 Si02
#       8
#     8  16  16   8  16  16  16   8
#     4  10  16  28  43  57  79 105 136 176 205 238
#     4   9  17  28  41  57  76 103 136 171 207 242
#     4  10  19  30  44  60  78 104 137 176 212 248
#     4  10  18  25  38  61  83 107 135 168 209 244
#     4   9  17  28  41  57  77 104 137 171 209 246
#     4  10  21  33  45  61  82 106 134 173 215 252
#     4   9  17  27  39  56  79 104 132 171 208 240
#     4  10  19  31  45  62  79 102 137 171 208 249
#
# _framework density 13.877022999999999
#
# number of rings (size 3 to 8) (size 9 to 14) (size 15 to 20)
#    0.000    2.462    1.538    1.615    1.077    3.385 
#    0.000    3.077    0.000    0.000    0.000    0.000 
#    0.000    0.000    0.000    0.000    0.000    3.077 
#
# Total GULP energy -644180.984671 kJ/mol
# GULP energy per Si atom -12388.095859 kJ/mol
# Density = 1.384544 g / cm^3
# Si number density = 13.877023 Si / 1000 Ang^3
#
#
#
# Elastic Constant Matrix: (Units=GPa)
#
#
# Indices 1 2 3 4 5 6 
#
# 1 56.5119 40.8693 30.1777 0.0000 0.0000 0.0000
# 2 40.8693 117.0571 35.7078 0.0000 0.0000 0.0000
# 3 30.1777 35.7078 37.9818 0.0000 0.0000 0.0000
# 4 0.0000 0.0000 0.0000 14.6143 0.0000 0.0000
# 5 0.0000 0.0000 0.0000 0.0000 16.2765 0.0000
# 6 0.0000 0.0000 0.0000 0.0000 0.0000 18.9374
#
#
#
# Elastic Compliance Matrix: (Units=1/GPa)
#
#
# Indices 1 2 3 4 5 6 
#
# 1 0.032612 -0.004882 -0.021321 0.000000 0.000000 0.000000
# 2 -0.004882 0.012709 -0.008069 0.000000 0.000000 0.000000
# 3 -0.021321 -0.008069 0.050855 0.000000 0.000000 0.000000
# 4 0.000000 0.000000 0.000000 0.068426 0.000000 0.000000
# 5 0.000000 0.000000 0.000000 0.000000 0.061438 0.000000
# 6 0.000000 0.000000 0.000000 0.000000 0.000000 0.052805
#
#
# Mechanical properties :
#
#
# Convention : Reuss Voigt Hill
#
# Bulk Modulus (GPa) = 36.19168 47.22891 41.71030
# Shear Modulus (GPa) = 14.02131 16.95203 15.48667
#
# Velocity S-wave (km/s) = 3.18212 3.49892 3.34427
# Velocity P-wave (km/s) = 6.29588 7.10148 6.71078
#
# Compressibility (1/GPa) = 0.02763066
#
# Stress axis : x y z
#
# Youngs Moduli (GPa) = 30.66380 78.68580 19.66391
#
# Poissons Ratio (x) = 0.38415 0.41926
# Poissons Ratio (y) = 0.14970 0.15867
# Poissons Ratio (z) = 0.65379 0.63491
#
# Static dielectric constant tensor:
#      x y z
#    x 2.661480 0.000000 0.000000 
#    y 0.000000 3.138980 0.000000 
#    z 0.000000 0.000000 2.449980 
# 
# 
# High freq. dielectric constant tensor:
#      x y z
#    x 1.505540 0.000000 0.000000 
#    y 0.000000 1.551980 0.000000 
#    z 0.000000 0.000000 1.482030 
# 
# From -- ./inp_files/72094.got.cif
#   From: 2010.03.12/outbox.cif.g09.slc.cpg/sg74_37_cif.got.tgz:72094.got - 2010.04.16 15:46:19.
