data_PCOD8297820
_publ_section_title
;
Structure prediction by ZEFSAII (Michael W. Deem and Ramdas Pophale) SiO2 
 PCOD8297820
Probable space group: I M M A
;
_chemical_formula_sum "Si O2"
_cell_formula_units_Z 72
_cell_length_a 21.390531
_cell_length_b 7.291223
_cell_length_c 26.040523
_cell_angle_alpha 90.000000
_cell_angle_beta 90.000000
_cell_angle_gamma 90.000000
_cell_volume 4061.361516
_symmetry_space_group_name_H-M "I M M A"
_symmetry_group_IT_number 74
_symmetry_cell_setting 'orthorhombic'
loop_
_space_group_symop_operation_xyz
x,y,z
-x,1/2-y,z
x,-y,-z
-x,1/2+y,-z
-x,-y,-z
x,1/2+y,-z
-x,y,z
x,1/2-y,z
1/2+x,1/2+y,1/2+z
1/2-x,-y,1/2+z
1/2+x,1/2-y,1/2-z
1/2-x,y,1/2-z
1/2-x,1/2-y,1/2-z
1/2+x,y,1/2-z
1/2-x,1/2+y,1/2+z
1/2+x,-y,1/2+z
loop_
_atom_site_type_symbol
_atom_site_label
_atom_site_fract_x
_atom_site_fract_y
_atom_site_fract_z
Si Si1 0.633887 0.963927 0.611910
Si Si2 0.600007 0.250000 0.781714
Si Si3 0.500000 0.471039 0.253635
Si Si4 0.692833 0.750000 0.132952
Si Si5 0.818153 0.250000 0.812290
Si Si6 0.500000 0.035125 0.372275
Si Si7 0.756635 0.040210 0.441676
O O1 0.634581 0.750000 0.625276
O O2 0.562997 0.031253 0.598019
O O3 0.683093 0.012602 0.566691
O O4 0.653451 0.066299 0.663322
O O5 0.560590 0.435959 0.772511
O O6 0.624826 0.250000 0.840541
O O7 0.662419 0.250000 0.746849
O O8 0.500000 0.250000 0.245358
O O9 0.500000 0.531870 0.313294
O O10 0.743983 0.750000 0.178525
O O11 0.699507 0.573099 0.096449
O O12 0.500000 0.250000 0.371141
O O13 0.768761 0.250000 0.427926
O O14 0.774669 0.000000 0.500000
#
# Coordination Sequence:
#
# PCOD8297820 Si02
#       7
#    16   8   8   8   8   8  16
#     4   9  18  29  47  73 101 141 186 220 258 309
#     4  11  21  34  54  82 111 143 186 215 259 321
#     4  10  21  35  54  76 108 151 176 214 262 311
#     4  10  22  35  52  83 109 139 180 226 269 323
#     4  10  18  31  50  73 111 147 175 219 262 307
#     4   9  15  29  48  69 100 142 189 214 249 305
#     4  10  19  35  55  74 103 139 178 226 280 318
#
# _framework density 17.728044000000001
#
# number of rings (size 3 to 8) (size 9 to 14) (size 15 to 20)
#    0.000    2.222    3.333    0.333    0.000    1.333 
#    0.000    0.556    0.000    6.667    0.000    3.111 
#    0.000    0.000    0.000    0.000    0.000    0.000 
#
# Total GULP energy -446077.249844 kJ/mol
# GULP energy per Si atom -12391.034718 kJ/mol
# Density = 1.768769 g / cm^3
# Si number density = 17.728044 Si / 1000 Ang^3
#
#
#
# Elastic Constant Matrix: (Units=GPa)
#
#
# Indices 1 2 3 4 5 6 
#
# 1 47.5506 19.0535 37.4583 0.0000 0.0000 0.0000
# 2 19.0535 96.9164 28.3433 0.0000 0.0000 0.0000
# 3 37.4583 28.3433 86.2032 0.0000 0.0000 0.0000
# 4 0.0000 0.0000 0.0000 17.7848 0.0000 0.0000
# 5 0.0000 0.0000 0.0000 0.0000 23.1581 0.0000
# 6 0.0000 0.0000 0.0000 0.0000 0.0000 18.3934
#
#
#
# Elastic Compliance Matrix: (Units=1/GPa)
#
#
# Indices 1 2 3 4 5 6 
#
# 1 0.032515 -0.002501 -0.013306 0.000000 0.000000 0.000000
# 2 -0.002501 0.011608 -0.002730 0.000000 0.000000 0.000000
# 3 -0.013306 -0.002730 0.018280 0.000000 0.000000 0.000000
# 4 0.000000 0.000000 0.000000 0.056228 0.000000 0.000000
# 5 0.000000 0.000000 0.000000 0.000000 0.043181 0.000000
# 6 0.000000 0.000000 0.000000 0.000000 0.000000 0.054367
#
#
# Mechanical properties :
#
#
# Convention : Reuss Voigt Hill
#
# Bulk Modulus (GPa) = 39.48135 44.48673 41.98404
# Shear Modulus (GPa) = 19.10605 21.58826 20.34716
#
# Velocity S-wave (km/s) = 3.28644 3.49341 3.39150
# Velocity P-wave (km/s) = 6.05969 6.43586 6.25061
#
# Compressibility (1/GPa) = 0.02532841
#
# Stress axis : x y z
#
# Youngs Moduli (GPa) = 30.75540 86.14575 54.70381
#
# Poissons Ratio (x) = 0.21543 0.72792
# Poissons Ratio (y) = 0.07691 0.14934
# Poissons Ratio (z) = 0.40925 0.23518
#
# Static dielectric constant tensor:
#      x y z
#    x 3.345750 0.000000 0.000000 
#    y 0.000000 3.389990 0.000000 
#    z 0.000000 0.000000 2.993100 
# 
# 
# High freq. dielectric constant tensor:
#      x y z
#    x 1.668720 0.000000 0.000000 
#    y 0.000000 1.699100 0.000000 
#    z 0.000000 0.000000 1.652250 
# 
# From -- ./inp_files/68026.got.cif
#   From: 2010.03.12/outbox.cif.g09.slc.cpg/sg74_35_cif.got.tgz:68026.got - 2010.04.16 15:46:19.
