data_PCOD8297789
_publ_section_title
;
Structure prediction by ZEFSAII (Michael W. Deem and Ramdas Pophale) SiO2 
 PCOD8297789
Probable space group: I M M A
;
_chemical_formula_sum "Si O2"
_cell_formula_units_Z 96
_cell_length_a 9.030147
_cell_length_b 25.600167
_cell_length_c 28.783381
_cell_angle_alpha 90.000000
_cell_angle_beta 90.000000
_cell_angle_gamma 90.000000
_cell_volume 6653.948343
_symmetry_space_group_name_H-M "I M M A"
_symmetry_group_IT_number 74
_symmetry_cell_setting 'orthorhombic'
loop_
_space_group_symop_operation_xyz
x,y,z
-x,1/2-y,z
x,-y,-z
-x,1/2+y,-z
-x,-y,-z
x,1/2+y,-z
-x,y,z
x,1/2-y,z
1/2+x,1/2+y,1/2+z
1/2-x,-y,1/2+z
1/2+x,1/2-y,1/2-z
1/2-x,y,1/2-z
1/2-x,1/2-y,1/2-z
1/2+x,y,1/2-z
1/2-x,1/2+y,1/2+z
1/2+x,-y,1/2+z
loop_
_atom_site_type_symbol
_atom_site_label
_atom_site_fract_x
_atom_site_fract_y
_atom_site_fract_z
Si Si1 0.666970 0.053823 0.972408
Si Si2 0.173130 0.107109 0.051465
Si Si3 0.324718 0.846799 0.703125
Si Si4 0.830620 0.309801 0.387408
Si Si5 0.672445 0.467188 0.295577
Si Si6 0.328253 0.000735 0.395305
O O1 0.500000 0.074645 0.967078
O O2 0.735151 0.043927 0.921424
O O3 0.763857 0.096381 0.999912
O O4 0.672237 0.000000 0.000000
O O5 0.256419 0.156869 0.071880
O O6 0.205101 0.058152 0.084820
O O7 0.000000 0.119393 0.047954
O O8 0.500000 0.838134 0.705289
O O9 0.250000 0.824836 0.750000
O O10 0.259087 0.815185 0.660263
O O11 0.281009 0.907278 0.696576
O O12 0.823636 0.250000 0.403575
O O13 0.000000 0.328117 0.379950
O O14 0.500000 0.471267 0.286756
O O15 0.750000 0.491121 0.250000
O O16 0.718927 0.499841 0.341207
O O17 0.500000 0.987352 0.402045
#
# Coordination Sequence:
#
# PCOD8297789 Si02
#       6
#    16  16  16  16  16  16
#     4   9  17  27  41  64  85 103 129 160 200 245
#     4  10  18  31  47  61  80 105 132 167 209 250
#     4  10  19  33  48  62  77 101 135 174 218 259
#     4  11  23  35  46  61  80 104 135 174 218 259
#     4   9  17  28  41  60  82 106 136 168 205 246
#     4   9  16  28  43  61  83 106 133 165 202 245
#
# _framework density 14.427524
#
# number of rings (size 3 to 8) (size 9 to 14) (size 15 to 20)
#    0.000    2.333    1.667    2.000    0.000    5.667 
#    0.000    0.000    0.000    0.000    0.000    0.000 
#    0.000    0.000    0.000    0.000    0.000    0.833 
#
# Total GULP energy -595224.166723 kJ/mol
# GULP energy per Si atom -12400.503473 kJ/mol
# Density = 1.439469 g / cm^3
# Si number density = 14.427524 Si / 1000 Ang^3
#
#
#
# Elastic Constant Matrix: (Units=GPa)
#
#
# Indices 1 2 3 4 5 6 
#
# 1 89.8945 32.9304 50.1626 0.0000 0.0000 0.0000
# 2 32.9304 38.2462 40.2902 0.0000 0.0000 0.0000
# 3 50.1626 40.2902 103.4386 0.0000 0.0000 0.0000
# 4 0.0000 0.0000 0.0000 18.1976 0.0000 0.0000
# 5 0.0000 0.0000 0.0000 0.0000 29.9010 0.0000
# 6 0.0000 0.0000 0.0000 0.0000 0.0000 17.9208
#
#
#
# Elastic Compliance Matrix: (Units=1/GPa)
#
#
# Indices 1 2 3 4 5 6 
#
# 1 0.017356 -0.010306 -0.004403 0.000000 0.000000 0.000000
# 2 -0.010306 0.050460 -0.014657 0.000000 0.000000 0.000000
# 3 -0.004403 -0.014657 0.017512 0.000000 0.000000 0.000000
# 4 0.000000 0.000000 0.000000 0.054952 0.000000 0.000000
# 5 0.000000 0.000000 0.000000 0.000000 0.033444 0.000000
# 6 0.000000 0.000000 0.000000 0.000000 0.000000 0.055801
#
#
# Mechanical properties :
#
#
# Convention : Reuss Voigt Hill
#
# Bulk Modulus (GPa) = 37.59811 53.14951 45.37381
# Shear Modulus (GPa) = 16.82818 20.41696 18.62257
#
# Velocity S-wave (km/s) = 3.41896 3.76592 3.59662
# Velocity P-wave (km/s) = 6.45773 7.47184 6.98322
#
# Compressibility (1/GPa) = 0.02659708
#
# Stress axis : x y z
#
# Youngs Moduli (GPa) = 57.61633 19.81777 57.10531
#
# Poissons Ratio (x) = 0.20424 0.25141
# Poissons Ratio (y) = 0.59379 0.83697
# Poissons Ratio (z) = 0.25366 0.29046
#
# Static dielectric constant tensor:
#      x y z
#    x 2.940240 0.000000 0.000000 
#    y 0.000000 2.449620 0.000000 
#    z 0.000000 0.000000 2.934970 
# 
# 
# High freq. dielectric constant tensor:
#      x y z
#    x 1.567750 0.000000 0.000000 
#    y 0.000000 1.493680 0.000000 
#    z 0.000000 0.000000 1.547440 
# 
# From -- ./inp_files/64677.got.cif
#   From: 2010.03.12/outbox.cif.g09.slc.cpg/sg74_33_cif.got.tgz:64677.got - 2010.04.16 15:46:19.
