data_PCOD8297570
_publ_section_title
;
Structure prediction by ZEFSAII (Michael W. Deem and Ramdas Pophale) SiO2 
 PCOD8297570
Probable space group: I M M A
;
_chemical_formula_sum "Si O2"
_cell_formula_units_Z 96
_cell_length_a 8.857386
_cell_length_b 28.789732
_cell_length_c 26.099329
_cell_angle_alpha 90.000000
_cell_angle_beta 90.000000
_cell_angle_gamma 90.000000
_cell_volume 6655.375069
_symmetry_space_group_name_H-M "I M M A"
_symmetry_group_IT_number 74
_symmetry_cell_setting 'orthorhombic'
loop_
_space_group_symop_operation_xyz
x,y,z
-x,1/2-y,z
x,-y,-z
-x,1/2+y,-z
-x,-y,-z
x,1/2+y,-z
-x,y,z
x,1/2-y,z
1/2+x,1/2+y,1/2+z
1/2-x,-y,1/2+z
1/2+x,1/2-y,1/2-z
1/2-x,y,1/2-z
1/2-x,1/2-y,1/2-z
1/2+x,y,1/2-z
1/2-x,1/2+y,1/2+z
1/2+x,-y,1/2+z
loop_
_atom_site_type_symbol
_atom_site_label
_atom_site_fract_x
_atom_site_fract_y
_atom_site_fract_z
Si Si1 0.666989 0.976042 0.054913
Si Si2 0.676267 0.302105 0.469275
Si Si3 0.677744 0.057825 0.398072
Si Si4 0.176996 0.392733 0.304213
Si Si5 0.322087 0.608536 0.993777
Si Si6 0.827538 0.198255 0.362291
O O1 0.500000 0.976826 0.080079
O O2 0.781836 0.003599 0.091521
O O3 0.720376 0.922969 0.043512
O O4 0.659621 0.000000 0.000000
O O5 0.500000 0.310946 0.475806
O O6 0.721111 0.250000 0.486784
O O7 0.766188 0.338981 0.504511
O O8 0.718633 0.309840 0.410163
O O9 0.500000 0.063706 0.395157
O O10 0.751056 0.072102 0.344666
O O11 0.741128 0.090512 0.442650
O O12 0.250000 0.403633 0.250000
O O13 0.213092 0.339268 0.319041
O O14 0.000000 0.402199 0.301437
O O15 0.500000 0.606746 0.983669
O O16 0.803452 0.250000 0.339256
O O17 0.000000 0.191610 0.381314
#
# Coordination Sequence:
#
# PCOD8297570 Si02
#       6
#    16  16  16  16  16  16
#     4   8  16  29  44  62  83 105 131 161 201 247
#     4  10  19  28  41  62  85 109 138 172 208 247
#     4  11  20  30  45  63  83 104 131 169 211 252
#     4  11  22  34  47  61  80 105 137 175 216 259
#     4  10  18  29  45  63  83 109 136 166 203 247
#     4   9  18  32  47  59  74 102 136 170 214 261
#
# _framework density 14.424431
#
# number of rings (size 3 to 8) (size 9 to 14) (size 15 to 20)
#    0.000    2.167    1.667    4.000    0.000    5.667 
#    0.000    0.000    0.000    0.000    0.000    0.000 
#    0.000    0.000    0.000    0.000    0.000    0.833 
#
# Total GULP energy -595048.669419 kJ/mol
# GULP energy per Si atom -12396.847280 kJ/mol
# Density = 1.439160 g / cm^3
# Si number density = 14.424431 Si / 1000 Ang^3
#
#
#
# Elastic Constant Matrix: (Units=GPa)
#
#
# Indices 1 2 3 4 5 6 
#
# 1 87.1728 52.5140 31.8252 0.0000 0.0000 0.0000
# 2 52.5140 108.4804 50.0339 0.0000 0.0000 0.0000
# 3 31.8252 50.0339 46.9740 0.0000 0.0000 0.0000
# 4 0.0000 0.0000 0.0000 27.4737 0.0000 0.0000
# 5 0.0000 0.0000 0.0000 0.0000 18.9232 0.0000
# 6 0.0000 0.0000 0.0000 0.0000 0.0000 22.8501
#
#
#
# Elastic Compliance Matrix: (Units=1/GPa)
#
#
# Indices 1 2 3 4 5 6 
#
# 1 0.016854 -0.005685 -0.005363 0.000000 0.000000 0.000000
# 2 -0.005685 0.020038 -0.017491 0.000000 0.000000 0.000000
# 3 -0.005363 -0.017491 0.043553 0.000000 0.000000 0.000000
# 4 0.000000 0.000000 0.000000 0.036398 0.000000 0.000000
# 5 0.000000 0.000000 0.000000 0.000000 0.052845 0.000000
# 6 0.000000 0.000000 0.000000 0.000000 0.000000 0.043764
#
#
# Mechanical properties :
#
#
# Convention : Reuss Voigt Hill
#
# Bulk Modulus (GPa) = 42.79877 56.81926 49.80901
# Shear Modulus (GPa) = 17.96490 21.06634 19.51562
#
# Velocity S-wave (km/s) = 3.53292 3.82575 3.68224
# Velocity P-wave (km/s) = 6.81010 7.68060 7.25841
#
# Compressibility (1/GPa) = 0.02336516
#
# Stress axis : x y z
#
# Youngs Moduli (GPa) = 59.33160 49.90545 22.96065
#
# Poissons Ratio (x) = 0.28373 0.12315
# Poissons Ratio (y) = 0.33732 0.40161
# Poissons Ratio (z) = 0.31821 0.87291
#
# Static dielectric constant tensor:
#      x y z
#    x 2.896180 0.000000 0.000000 
#    y 0.000000 3.274360 0.000000 
#    z 0.000000 0.000000 2.422680 
# 
# 
# High freq. dielectric constant tensor:
#      x y z
#    x 1.564950 0.000000 0.000000 
#    y 0.000000 1.555310 0.000000 
#    z 0.000000 0.000000 1.489160 
# 
# From -- ./inp_files/64921.got.cif
#   From: 2010.03.12/outbox.cif.g09.slc.cpg/sg74_33_cif.got.tgz:64921.got - 2010.04.16 15:46:19.
