data_PCOD8297362
_publ_section_title
;
Structure prediction by ZEFSAII (Michael W. Deem and Ramdas Pophale) SiO2 
 PCOD8297362
Probable space group: I M M A
;
_chemical_formula_sum "Si O2"
_cell_formula_units_Z 128
_cell_length_a 16.758652
_cell_length_b 18.449705
_cell_length_c 22.125652
_cell_angle_alpha 90.000000
_cell_angle_beta 90.000000
_cell_angle_gamma 90.000000
_cell_volume 6841.078700
_symmetry_space_group_name_H-M "I M M A"
_symmetry_group_IT_number 74
_symmetry_cell_setting 'orthorhombic'
loop_
_space_group_symop_operation_xyz
x,y,z
-x,1/2-y,z
x,-y,-z
-x,1/2+y,-z
-x,-y,-z
x,1/2+y,-z
-x,y,z
x,1/2-y,z
1/2+x,1/2+y,1/2+z
1/2-x,-y,1/2+z
1/2+x,1/2-y,1/2-z
1/2-x,y,1/2-z
1/2-x,1/2-y,1/2-z
1/2+x,y,1/2-z
1/2-x,1/2+y,1/2+z
1/2+x,-y,1/2+z
loop_
_atom_site_type_symbol
_atom_site_label
_atom_site_fract_x
_atom_site_fract_y
_atom_site_fract_z
Si Si1 0.191128 0.927175 0.200098
Si Si2 0.747110 0.388595 0.070461
Si Si3 0.911466 0.583491 0.988292
Si Si4 0.324797 0.971142 0.110033
Si Si5 0.809712 0.328208 0.548904
Si Si6 0.364186 0.669599 0.397401
Si Si7 0.811241 0.169123 0.304134
Si Si8 0.408835 0.532288 0.781569
O O1 0.250000 0.890202 0.250000
O O2 0.243977 0.962687 0.148142
O O3 0.132059 0.868574 0.168977
O O4 0.141542 0.992002 0.230130
O O5 0.842224 0.389700 0.056796
O O6 0.701885 0.466076 0.063298
O O7 0.736127 0.356421 0.136658
O O8 0.704425 0.336465 0.022346
O O9 0.000000 0.595302 0.959438
O O10 0.894653 0.500000 0.000000
O O11 0.911747 0.624540 0.052515
O O12 0.355413 0.898257 0.075995
O O13 0.397197 0.994003 0.153414
O O14 0.853992 0.250000 0.559115
O O15 0.727219 0.325334 0.584117
O O16 0.401751 0.750000 0.391788
O O17 0.845870 0.250000 0.313684
O O18 0.750000 0.167702 0.250000
O O19 0.883673 0.115927 0.288020
O O20 0.500000 0.528520 0.762181
#
# Coordination Sequence:
#
# PCOD8297362 Si02
#       8
#    16  16  16  16  16  16  16  16
#     4   9  17  31  51  75 101 135 177 214 248 293
#     4  10  17  31  53  75  97 129 172 210 246 296
#     4  10  20  32  48  74 109 146 178 208 248 301
#     4   9  17  31  51  73 100 131 164 209 255 293
#     4   9  16  27  48  75  97 124 166 210 248 288
#     4   9  18  31  47  72 105 136 170 215 258 290
#     4  10  21  37  56  77 102 130 162 206 256 300
#     4  10  20  34  53  75  99 130 167 205 249 304
#
# _framework density 18.7105
#
# number of rings (size 3 to 8) (size 9 to 14) (size 15 to 20)
#    0.000    2.500    0.000    4.875    0.000    1.750 
#    0.000    5.625    0.000    7.875    0.000    0.000 
#    0.000    0.000    0.000    0.000    0.000    0.000 
#
# Total GULP energy -793139.744530 kJ/mol
# GULP energy per Si atom -12392.808508 kJ/mol
# Density = 1.866791 g / cm^3
# Si number density = 18.710500 Si / 1000 Ang^3
#
#
#
# Elastic Constant Matrix: (Units=GPa)
#
#
# Indices 1 2 3 4 5 6 
#
# 1 49.4275 24.6859 21.6302 0.0000 0.0000 0.0000
# 2 24.6859 157.1977 53.9386 0.0000 0.0000 0.0000
# 3 21.6302 53.9386 90.5200 0.0000 0.0000 0.0000
# 4 0.0000 0.0000 0.0000 27.1557 0.0000 0.0000
# 5 0.0000 0.0000 0.0000 0.0000 14.1571 0.0000
# 6 0.0000 0.0000 0.0000 0.0000 0.0000 -14.5032
#
#
#
# Elastic Compliance Matrix: (Units=1/GPa)
#
#
# Indices 1 2 3 4 5 6 
#
# 1 0.023177 -0.002186 -0.004235 0.000000 0.000000 0.000000
# 2 -0.002186 0.008203 -0.004365 0.000000 0.000000 0.000000
# 3 -0.004235 -0.004365 0.014661 0.000000 0.000000 0.000000
# 4 0.000000 0.000000 0.000000 0.036825 0.000000 0.000000
# 5 0.000000 0.000000 0.000000 0.000000 0.070636 0.000000
# 6 0.000000 0.000000 0.000000 0.000000 0.000000 -0.068950
#
#
# Mechanical properties :
#
#
# Convention : Reuss Voigt Hill
#
# Bulk Modulus (GPa) = 40.87307 55.29496 48.08402
# Shear Modulus (GPa) = 43.75208 18.48795 31.12001
#
# Velocity S-wave (km/s) = 4.84092 3.14683 4.08271
# Velocity P-wave (km/s) = 7.28961 6.54373 6.92672
#
# Compressibility (1/GPa) = 0.02446599
#
# Stress axis : x y z
#
# Youngs Moduli (GPa) = 43.14601 121.91258 68.21036
#
# Poissons Ratio (x) = 0.26655 0.28890
# Poissons Ratio (y) = 0.09433 0.29776
# Poissons Ratio (z) = 0.18274 0.53218
#
# Static dielectric constant tensor:
#      x y z
#    x 3.006070 0.000000 0.000000 
#    y 0.000000 4.049130 0.000000 
#    z 0.000000 0.000000 3.512110 
# 
# 
# High freq. dielectric constant tensor:
#      x y z
#    x 1.678970 0.000000 0.000000 
#    y 0.000000 1.738240 0.000000 
#    z 0.000000 0.000000 1.728510 
# 
# From -- ./inp_files/61115.got.cif
#   From: 2010.03.12/outbox.cif.g09.slc.cpg/sg74_31_cif.got.tgz:61115.got - 2010.04.16 15:46:19.
