data_PCOD8297598
_publ_section_title
;
Structure prediction by ZEFSAII (Michael W. Deem and Ramdas Pophale) SiO2 
 PCOD8297598
Probable space group: I M M A
;
_chemical_formula_sum "Si O2"
_cell_formula_units_Z 96
_cell_length_a 9.069031
_cell_length_b 20.195405
_cell_length_c 29.915798
_cell_angle_alpha 90.000000
_cell_angle_beta 90.000000
_cell_angle_gamma 90.000000
_cell_volume 5479.160792
_symmetry_space_group_name_H-M "I M M A"
_symmetry_group_IT_number 74
_symmetry_cell_setting 'orthorhombic'
loop_
_space_group_symop_operation_xyz
x,y,z
-x,1/2-y,z
x,-y,-z
-x,1/2+y,-z
-x,-y,-z
x,1/2+y,-z
-x,y,z
x,1/2-y,z
1/2+x,1/2+y,1/2+z
1/2-x,-y,1/2+z
1/2+x,1/2-y,1/2-z
1/2-x,y,1/2-z
1/2-x,1/2-y,1/2-z
1/2+x,y,1/2-z
1/2-x,1/2+y,1/2+z
1/2+x,-y,1/2+z
loop_
_atom_site_type_symbol
_atom_site_label
_atom_site_fract_x
_atom_site_fract_y
_atom_site_fract_z
Si Si1 0.332476 0.525256 0.293679
Si Si2 0.673297 0.024246 0.882819
Si Si3 0.830707 0.871254 0.620277
Si Si4 0.334673 0.867430 0.706973
Si Si5 0.331441 0.674665 0.976216
Si Si6 0.173681 0.063334 0.970928
O O1 0.500000 0.551591 0.294350
O O2 0.250000 0.553802 0.250000
O O3 0.247087 0.551248 0.337393
O O4 0.328872 0.446355 0.292499
O O5 0.500000 0.038008 0.880575
O O6 0.742607 0.063784 0.923949
O O7 0.710853 0.947215 0.889656
O O8 0.737988 0.841293 0.661252
O O9 0.793602 0.829358 0.576312
O O10 0.000000 0.865565 0.634616
O O11 0.500000 0.840370 0.708951
O O12 0.250000 0.838604 0.750000
O O13 0.500000 0.650577 0.983994
O O14 0.310509 0.750000 0.992074
O O15 0.219208 0.629834 0.003655
O O16 0.000000 0.063238 0.962225
O O17 0.222721 0.000000 0.000000
#
# Coordination Sequence:
#
# PCOD8297598 Si02
#       6
#    16  16  16  16  16  16
#     4   9  16  26  40  63  97 131 163 199 246 299
#     4  10  18  29  48  71  97 130 168 208 252 298
#     4   9  17  29  46  68  93 123 160 204 250 297
#     4   9  16  25  40  62  89 121 157 200 247 295
#     4  10  21  37  55  74  98 131 169 209 255 307
#     4  11  22  34  51  75 103 133 168 211 256 302
#
# _framework density 17.520931000000001
#
# number of rings (size 3 to 8) (size 9 to 14) (size 15 to 20)
#    0.000    2.333    1.667    2.000    0.000    6.333 
#    0.000    0.000    0.000    0.500    0.000    0.000 
#    0.000    0.667    0.000    2.500    0.000    3.833 
#
# Total GULP energy -595290.592332 kJ/mol
# GULP energy per Si atom -12401.887340 kJ/mol
# Density = 1.748105 g / cm^3
# Si number density = 17.520931 Si / 1000 Ang^3
#
#
#
# Elastic Constant Matrix: (Units=GPa)
#
#
# Indices 1 2 3 4 5 6 
#
# 1 109.9917 23.9589 62.7303 0.0000 0.0000 0.0000
# 2 23.9589 41.4225 27.3873 0.0000 0.0000 0.0000
# 3 62.7303 27.3873 121.9673 0.0000 0.0000 0.0000
# 4 0.0000 0.0000 0.0000 11.9704 0.0000 0.0000
# 5 0.0000 0.0000 0.0000 0.0000 39.8412 0.0000
# 6 0.0000 0.0000 0.0000 0.0000 0.0000 10.3558
#
#
#
# Elastic Compliance Matrix: (Units=1/GPa)
#
#
# Indices 1 2 3 4 5 6 
#
# 1 0.013340 -0.003734 -0.006022 0.000000 0.000000 0.000000
# 2 -0.003734 0.029396 -0.004680 0.000000 0.000000 0.000000
# 3 -0.006022 -0.004680 0.012347 0.000000 0.000000 0.000000
# 4 0.000000 0.000000 0.000000 0.083539 0.000000 0.000000
# 5 0.000000 0.000000 0.000000 0.000000 0.025100 0.000000
# 6 0.000000 0.000000 0.000000 0.000000 0.000000 0.096565
#
#
# Mechanical properties :
#
#
# Convention : Reuss Voigt Hill
#
# Bulk Modulus (GPa) = 38.15419 55.72607 46.94013
# Shear Modulus (GPa) = 16.78441 23.05381 19.91911
#
# Velocity S-wave (km/s) = 3.09846 3.63131 3.37542
# Velocity P-wave (km/s) = 5.88423 7.03252 6.48385
#
# Compressibility (1/GPa) = 0.02620944
#
# Stress axis : x y z
#
# Youngs Moduli (GPa) = 74.96467 34.01869 80.98929
#
# Poissons Ratio (x) = 0.12702 0.48775
# Poissons Ratio (y) = 0.27991 0.37905
# Poissons Ratio (z) = 0.45147 0.15922
#
# Static dielectric constant tensor:
#      x y z
#    x 3.348340 0.000000 0.000000 
#    y 0.000000 2.690110 0.000000 
#    z 0.000000 0.000000 3.356410 
# 
# 
# High freq. dielectric constant tensor:
#      x y z
#    x 1.688360 0.000000 0.000000 
#    y 0.000000 1.611950 0.000000 
#    z 0.000000 0.000000 1.688020 
# 
# From -- ./inp_files/64296.got.cif
#   From: 2010.03.12/outbox.cif.g09.slc.cpg/sg74_33_cif.got.tgz:64296.got - 2010.04.16 15:46:19.
