data_PCOD8297931
_publ_section_title
;
Structure prediction by ZEFSAII (Michael W. Deem and Ramdas Pophale) SiO2 
 PCOD8297931
Probable space group: I M M A
;
_chemical_formula_sum "Si O2"
_cell_formula_units_Z 80
_cell_length_a 16.308545
_cell_length_b 15.395861
_cell_length_c 15.409971
_cell_angle_alpha 90.000000
_cell_angle_beta 90.000000
_cell_angle_gamma 90.000000
_cell_volume 3869.198575
_symmetry_space_group_name_H-M "I M M A"
_symmetry_group_IT_number 74
_symmetry_cell_setting 'orthorhombic'
loop_
_space_group_symop_operation_xyz
x,y,z
-x,1/2-y,z
x,-y,-z
-x,1/2+y,-z
-x,-y,-z
x,1/2+y,-z
-x,y,z
x,1/2-y,z
1/2+x,1/2+y,1/2+z
1/2-x,-y,1/2+z
1/2+x,1/2-y,1/2-z
1/2-x,y,1/2-z
1/2-x,1/2-y,1/2-z
1/2+x,y,1/2-z
1/2-x,1/2+y,1/2+z
1/2+x,-y,1/2+z
loop_
_atom_site_type_symbol
_atom_site_label
_atom_site_fract_x
_atom_site_fract_y
_atom_site_fract_z
Si Si1 0.335316 0.416325 0.082949
Si Si2 0.096466 0.151598 0.781954
Si Si3 0.093737 0.345755 0.253804
Si Si4 0.907147 0.903351 0.407998
Si Si5 0.310217 0.009603 0.331104
O O1 0.349840 0.347685 0.159562
O O2 0.402305 0.492412 0.098790
O O3 0.244533 0.460744 0.086456
O O4 0.349973 0.372201 0.988785
O O5 0.117497 0.250000 0.810599
O O6 0.124405 0.138710 0.681713
O O7 0.145690 0.084033 0.843515
O O8 0.000000 0.132408 0.790653
O O9 0.105100 0.250000 0.212647
O O10 0.120896 0.417202 0.183968
O O11 0.000000 0.362940 0.279649
O O12 0.000000 0.873721 0.425911
O O13 0.250000 0.003818 0.250000
#
# Coordination Sequence:
#
# PCOD8297931 Si02
#       5
#    16  16  16  16  16
#     4  10  19  30  48  74 104 139 171 210 262 314
#     4  10  20  34  54  79 108 146 185 220 265 322
#     4  10  19  31  49  71  97 132 172 211 256 307
#     4  10  18  32  52  74 106 141 172 211 256 317
#     4  10  19  32  48  75 107 139 174 221 263 317
#
# _framework density 20.676116
#
# number of rings (size 3 to 8) (size 9 to 14) (size 15 to 20)
#    0.000    2.000    4.000    3.000    0.000    4.800 
#    0.000    2.000    0.000    0.000    0.000   11.200 
#    0.000   12.800    0.000    0.000    0.000    0.000 
#
# Total GULP energy -495741.296633 kJ/mol
# GULP energy per Si atom -12393.532416 kJ/mol
# Density = 2.062906 g / cm^3
# Si number density = 20.676116 Si / 1000 Ang^3
#
#
#
# Elastic Constant Matrix: (Units=GPa)
#
#
# Indices 1 2 3 4 5 6 
#
# 1 96.6154 51.1129 36.7757 0.0000 0.0000 0.0000
# 2 51.1129 117.4021 13.4219 0.0000 0.0000 0.0000
# 3 36.7757 13.4219 45.5630 0.0000 0.0000 0.0000
# 4 0.0000 0.0000 0.0000 16.4152 0.0000 0.0000
# 5 0.0000 0.0000 0.0000 0.0000 23.2399 0.0000
# 6 0.0000 0.0000 0.0000 0.0000 0.0000 26.2583
#
#
#
# Elastic Compliance Matrix: (Units=1/GPa)
#
#
# Indices 1 2 3 4 5 6 
#
# 1 0.019000 -0.006746 -0.013349 0.000000 0.000000 0.000000
# 2 -0.006746 0.011210 0.002143 0.000000 0.000000 0.000000
# 3 -0.013349 0.002143 0.032091 0.000000 0.000000 0.000000
# 4 0.000000 0.000000 0.000000 0.060919 0.000000 0.000000
# 5 0.000000 0.000000 0.000000 0.000000 0.043029 0.000000
# 6 0.000000 0.000000 0.000000 0.000000 0.000000 0.038083
#
#
# Mechanical properties :
#
#
# Convention : Reuss Voigt Hill
#
# Bulk Modulus (GPa) = 37.88315 51.35573 44.61944
# Shear Modulus (GPa) = 20.07752 23.73401 21.90577
#
# Velocity S-wave (km/s) = 3.11955 3.39174 3.25848
# Velocity P-wave (km/s) = 5.59798 6.34276 5.98197
#
# Compressibility (1/GPa) = 0.02639696
#
# Stress axis : x y z
#
# Youngs Moduli (GPa) = 52.63112 89.20820 31.16181
#
# Poissons Ratio (x) = 0.60180 0.41597
# Poissons Ratio (y) = 0.35505 -0.06677
# Poissons Ratio (z) = 0.70255 -0.19115
#
# Static dielectric constant tensor:
#      x y z
#    x 3.881080 0.000000 0.000000 
#    y 0.000000 3.703720 0.000000 
#    z 0.000000 0.000000 3.525050 
# 
# 
# High freq. dielectric constant tensor:
#      x y z
#    x 1.805400 0.000000 0.000000 
#    y 0.000000 1.801760 0.000000 
#    z 0.000000 0.000000 1.758880 
# 
# From -- ./inp_files/43859.got.cif
#   From: 2010.03.12/outbox.cif.g09.slc.cpg/sg74_22_cif.got.tgz:43859.got - 2010.04.16 15:46:19.
