data_PCOD8297885
_publ_section_title
;
Structure prediction by ZEFSAII (Michael W. Deem and Ramdas Pophale) SiO2 
 PCOD8297885
Probable space group: I M M A
;
_chemical_formula_sum "Si O2"
_cell_formula_units_Z 72
_cell_length_a 12.002128
_cell_length_b 23.376871
_cell_length_c 14.740736
_cell_angle_alpha 90.000000
_cell_angle_beta 90.000000
_cell_angle_gamma 90.000000
_cell_volume 4135.840699
_symmetry_space_group_name_H-M "I M M A"
_symmetry_group_IT_number 74
_symmetry_cell_setting 'orthorhombic'
loop_
_space_group_symop_operation_xyz
x,y,z
-x,1/2-y,z
x,-y,-z
-x,1/2+y,-z
-x,-y,-z
x,1/2+y,-z
-x,y,z
x,1/2-y,z
1/2+x,1/2+y,1/2+z
1/2-x,-y,1/2+z
1/2+x,1/2-y,1/2-z
1/2-x,y,1/2-z
1/2-x,1/2-y,1/2-z
1/2+x,y,1/2-z
1/2-x,1/2+y,1/2+z
1/2+x,-y,1/2+z
loop_
_atom_site_type_symbol
_atom_site_label
_atom_site_fract_x
_atom_site_fract_y
_atom_site_fract_z
Si Si1 0.628984 0.682932 0.089764
Si Si2 0.373493 0.888906 0.917948
Si Si3 0.250000 0.879831 0.250000
Si Si4 0.873216 0.523785 0.159370
Si Si5 0.250000 0.424524 0.250000
Si Si6 0.785241 0.500000 0.500000
O O1 0.500000 0.667485 0.109910
O O2 0.647516 0.750000 0.081420
O O3 0.707466 0.660074 0.169264
O O4 0.667299 0.655411 0.994383
O O5 0.500000 0.875994 0.889954
O O6 0.295998 0.883111 0.829040
O O7 0.365087 0.953358 0.955247
O O8 0.147328 0.920618 0.221455
O O9 0.849266 0.465266 0.213989
O O10 0.792729 0.530349 0.073615
O O11 0.000000 0.522999 0.126446
#
# Coordination Sequence:
#
# PCOD8297885 Si02
#       6
#    16  16   8  16   8   8
#     4  10  21  36  55  77 101 135 177 216 256 302
#     4  10  19  34  54  76 104 135 172 215 256 307
#     4  11  19  34  51  76 105 138 174 212 252 304
#     4  10  19  30  47  75 108 139 169 207 254 310
#     4   9  20  32  50  76 106 134 171 208 264 310
#     4  10  18  32  48  76 106 138 174 202 258 308
#
# _framework density 17.408792999999999
#
# number of rings (size 3 to 8) (size 9 to 14) (size 15 to 20)
#    0.000    2.000    2.222    2.333    0.000    0.000 
#    0.000    0.556    0.000    0.000    0.000    0.000 
#    0.000    0.000    0.000    0.000    0.000    0.000 
#
# Total GULP energy -446469.808300 kJ/mol
# GULP energy per Si atom -12401.939119 kJ/mol
# Density = 1.736917 g / cm^3
# Si number density = 17.408793 Si / 1000 Ang^3
#
#
#
# Elastic Constant Matrix: (Units=GPa)
#
#
# Indices 1 2 3 4 5 6 
#
# 1 70.2256 32.2798 43.1842 0.0000 0.0000 0.0000
# 2 32.2798 76.8502 51.2840 0.0001 0.0000 0.0000
# 3 43.1842 51.2840 131.4028 0.0002 0.0000 -0.0001
# 4 0.0000 0.0001 0.0002 27.8059 0.0000 0.0000
# 5 0.0000 0.0000 0.0000 0.0000 15.0348 0.0000
# 6 0.0000 0.0000 -0.0001 0.0000 0.0000 13.1798
#
#
#
# Elastic Compliance Matrix: (Units=1/GPa)
#
#
# Indices 1 2 3 4 5 6 
#
# 1 0.019288 -0.005235 -0.004296 0.000000 0.000000 0.000000
# 2 -0.005235 0.019016 -0.005701 0.000000 0.000000 0.000000
# 3 -0.004296 -0.005701 0.011247 0.000000 0.000000 0.000000
# 4 0.000000 0.000000 0.000000 0.035964 0.000000 0.000000
# 5 0.000000 0.000000 0.000000 0.000000 0.066512 0.000000
# 6 0.000000 0.000000 0.000000 0.000000 0.000000 0.075874
#
#
# Mechanical properties :
#
#
# Convention : Reuss Voigt Hill
#
# Bulk Modulus (GPa) = 52.39156 59.10826 55.74991
# Shear Modulus (GPa) = 18.88753 21.31948 20.10351
#
# Velocity S-wave (km/s) = 3.29742 3.50328 3.40191
# Velocity P-wave (km/s) = 6.68263 7.09865 6.89378
#
# Compressibility (1/GPa) = 0.01908704
#
# Stress axis : x y z
#
# Youngs Moduli (GPa) = 51.84677 52.58839 88.91355
#
# Poissons Ratio (x) = 0.27530 0.38194
# Poissons Ratio (y) = 0.27141 0.50690
# Poissons Ratio (z) = 0.22271 0.29981
#
# Static dielectric constant tensor:
#      x y z
#    x 3.042240 0.000000 0.000000 
#    y 0.000000 3.044460 0.000000 
#    z 0.000000 0.000000 3.383180 
# 
# 
# High freq. dielectric constant tensor:
#      x y z
#    x 1.662990 0.000000 0.000000 
#    y 0.000000 1.651480 0.000000 
#    z 0.000000 0.000000 1.683720 
# 
# From -- ./inp_files/30648.got.cif
#   From: 2010.03.12/outbox.cif.g09.slc.cpg/sg74_16_cif.got.tgz:30648.got - 2010.04.16 15:46:19.
