data_PCOD8297913
_publ_section_title
;
Structure prediction by ZEFSAII (Michael W. Deem and Ramdas Pophale) SiO2 
 PCOD8297913
Probable space group: I M M A
;
_chemical_formula_sum "Si O2"
_cell_formula_units_Z 104
_cell_length_a 27.590310
_cell_length_b 8.845286
_cell_length_c 23.916547
_cell_angle_alpha 90.000000
_cell_angle_beta 90.000000
_cell_angle_gamma 90.000000
_cell_volume 5836.694168
_symmetry_space_group_name_H-M "I M M A"
_symmetry_group_IT_number 74
_symmetry_cell_setting 'orthorhombic'
loop_
_space_group_symop_operation_xyz
x,y,z
-x,1/2-y,z
x,-y,-z
-x,1/2+y,-z
-x,-y,-z
x,1/2+y,-z
-x,y,z
x,1/2-y,z
1/2+x,1/2+y,1/2+z
1/2-x,-y,1/2+z
1/2+x,1/2-y,1/2-z
1/2-x,y,1/2-z
1/2-x,1/2-y,1/2-z
1/2+x,y,1/2-z
1/2-x,1/2+y,1/2+z
1/2+x,-y,1/2+z
loop_
_atom_site_type_symbol
_atom_site_label
_atom_site_fract_x
_atom_site_fract_y
_atom_site_fract_z
Si Si1 0.233634 0.571624 0.808051
Si Si2 0.500000 0.931444 0.938352
Si Si3 0.866020 0.423385 0.231282
Si Si4 0.170640 0.075019 0.356819
Si Si5 0.945521 0.926892 0.166915
Si Si6 0.597588 0.429625 0.939053
Si Si7 0.442268 0.580762 0.554747
O O1 0.239579 0.750000 0.801679
O O2 0.250000 0.494790 0.750000
O O3 0.176603 0.531085 0.813800
O O4 0.271958 0.524022 0.856780
O O5 0.500000 0.750000 0.937707
O O6 0.450698 0.996111 0.910372
O O7 0.500000 0.000000 0.000000
O O8 0.880814 0.250000 0.222298
O O9 0.849836 0.451228 0.294685
O O10 0.912630 0.525736 0.219228
O O11 0.164389 0.250000 0.374896
O O12 0.143261 0.968196 0.400329
O O13 0.944973 0.750000 0.158819
O O14 0.000000 0.985320 0.178658
O O15 0.923800 0.998501 0.110442
O O16 0.591148 0.250000 0.944208
O O17 0.606718 0.500000 0.000000
O O18 0.420462 0.500000 0.500000
O O19 0.500000 0.576191 0.552439
O O20 0.422084 0.750000 0.555661
#
# Coordination Sequence:
#
# PCOD8297913 Si02
#       7
#    16   8  16  16  16  16  16
#     4   7  12  26  50  75  96 119 153 197 242 287
#     4  10  18  32  52  72  96 128 168 208 251 298
#     4   9  17  31  52  75  98 129 167 206 249 299
#     4   9  17  32  53  77 101 127 163 206 251 304
#     4  10  20  32  45  65  98 136 167 199 241 289
#     4  11  21  34  52  75 103 135 171 212 257 305
#     4   9  16  27  45  67  89 116 154 197 235 276
#
# _framework density 17.818306
#
# number of rings (size 3 to 8) (size 9 to 14) (size 15 to 20)
#    0.000    2.769    0.000    5.769    0.000    3.385 
#    1.385    0.769    0.000    3.692    0.000    4.308 
#    0.000    0.000    0.000    0.000    0.000    0.000 
#
# Total GULP energy -644240.583193 kJ/mol
# GULP energy per Si atom -12389.241984 kJ/mol
# Density = 1.777775 g / cm^3
# Si number density = 17.818306 Si / 1000 Ang^3
#
#
#
# Elastic Constant Matrix: (Units=GPa)
#
#
# Indices 1 2 3 4 5 6 
#
# 1 96.1865 38.6800 39.2795 0.0000 0.0000 0.0000
# 2 38.6800 96.4216 30.2474 0.0000 0.0000 0.0000
# 3 39.2795 30.2474 52.9890 0.0000 0.0000 0.0000
# 4 0.0000 0.0000 0.0000 27.2806 0.0000 0.0000
# 5 0.0000 0.0000 0.0000 0.0000 26.2041 0.0000
# 6 0.0000 0.0000 0.0000 0.0000 0.0000 20.1955
#
#
#
# Elastic Compliance Matrix: (Units=1/GPa)
#
#
# Indices 1 2 3 4 5 6 
#
# 1 0.015691 -0.003223 -0.009792 0.000000 0.000000 0.000000
# 2 -0.003223 0.013295 -0.005200 0.000000 0.000000 0.000000
# 3 -0.009792 -0.005200 0.029099 0.000000 0.000000 0.000000
# 4 0.000000 0.000000 0.000000 0.036656 0.000000 0.000000
# 5 0.000000 0.000000 0.000000 0.000000 0.038162 0.000000
# 6 0.000000 0.000000 0.000000 0.000000 0.000000 0.049516
#
#
# Mechanical properties :
#
#
# Convention : Reuss Voigt Hill
#
# Bulk Modulus (GPa) = 46.17801 51.33455 48.75628
# Shear Modulus (GPa) = 22.11730 23.89539 23.00635
#
# Velocity S-wave (km/s) = 3.52699 3.66602 3.59717
# Velocity P-wave (km/s) = 6.52369 6.84048 6.68396
#
# Compressibility (1/GPa) = 0.02165533
#
# Stress axis : x y z
#
# Youngs Moduli (GPa) = 63.73017 75.21452 34.36588
#
# Poissons Ratio (x) = 0.24241 0.33650
# Poissons Ratio (y) = 0.20540 0.17871
# Poissons Ratio (z) = 0.62403 0.39113
#
# Static dielectric constant tensor:
#      x y z
#    x 3.608230 0.000000 0.000000 
#    y 0.000000 3.161920 0.000000 
#    z 0.000000 0.000000 3.054880 
# 
# 
# High freq. dielectric constant tensor:
#      x y z
#    x 1.682480 0.000000 0.000000 
#    y 0.000000 1.679940 0.000000 
#    z 0.000000 0.000000 1.659320 
# 
# From -- ./inp_files/62354.got.cif
#   From: 2010.03.12/outbox.cif.g09.slc.cpg/sg74_32_cif.got.tgz:62354.got - 2010.04.16 15:46:19.
