data_PCOD8297153
_publ_section_title
;
Structure prediction by ZEFSAII (Michael W. Deem and Ramdas Pophale) SiO2 
 PCOD8297153
Probable space group: I M M A
;
_chemical_formula_sum "Si O2"
_cell_formula_units_Z 96
_cell_length_a 19.332916
_cell_length_b 24.160968
_cell_length_c 12.900275
_cell_angle_alpha 90.000000
_cell_angle_beta 90.000000
_cell_angle_gamma 90.000000
_cell_volume 6025.743799
_symmetry_space_group_name_H-M "I M M A"
_symmetry_group_IT_number 74
_symmetry_cell_setting 'orthorhombic'
loop_
_space_group_symop_operation_xyz
x,y,z
-x,1/2-y,z
x,-y,-z
-x,1/2+y,-z
-x,-y,-z
x,1/2+y,-z
-x,y,z
x,1/2-y,z
1/2+x,1/2+y,1/2+z
1/2-x,-y,1/2+z
1/2+x,1/2-y,1/2-z
1/2-x,y,1/2-z
1/2-x,1/2-y,1/2-z
1/2+x,y,1/2-z
1/2-x,1/2+y,1/2+z
1/2+x,-y,1/2+z
loop_
_atom_site_type_symbol
_atom_site_label
_atom_site_fract_x
_atom_site_fract_y
_atom_site_fract_z
Si Si1 0.186632 0.810548 0.883732
Si Si2 0.080184 0.526615 0.346945
Si Si3 0.651116 0.310997 0.157033
Si Si4 0.868994 0.581766 0.543309
Si Si5 0.185865 0.514421 0.173980
Si Si6 0.792302 0.420181 0.023544
O O1 0.165423 0.750000 0.928712
O O2 0.267716 0.811118 0.862623
O O3 0.142392 0.822675 0.779762
O O4 0.173264 0.859509 0.965752
O O5 0.092363 0.465479 0.392064
O O6 0.108070 0.574766 0.423972
O O7 0.118458 0.531729 0.237710
O O8 0.000000 0.536567 0.327054
O O9 0.620792 0.250000 0.128863
O O10 0.611297 0.357574 0.089004
O O11 0.787439 0.574331 0.556137
O O12 0.250000 0.503273 0.250000
O O13 0.168841 0.460702 0.103995
O O14 0.201670 0.564806 0.096640
#
# Coordination Sequence:
#
# PCOD8297153 Si02
#       6
#    16  16  16  16  16  16
#     4   8  14  24  39  67 100 122 141 181 235 276
#     4  11  21  31  45  66  95 126 152 186 232 278
#     4   8  14  23  41  68  96 122 146 179 228 274
#     4  10  16  28  47  69  95 119 151 188 224 278
#     4  11  18  31  46  69  93 118 157 194 227 268
#     4  10  18  27  49  72  90 119 157 191 227 273
#
# _framework density 15.931642
#
# number of rings (size 3 to 8) (size 9 to 14) (size 15 to 20)
#    0.000    2.333    3.333    4.000    2.333    0.000 
#    0.000    1.667    0.000    3.500    0.000    0.000 
#    0.000    1.333    0.000    0.000    0.000    0.000 
#
# Total GULP energy -594832.318845 kJ/mol
# GULP energy per Si atom -12392.339976 kJ/mol
# Density = 1.589538 g / cm^3
# Si number density = 15.931642 Si / 1000 Ang^3
#
#
#
# Elastic Constant Matrix: (Units=GPa)
#
#
# Indices 1 2 3 4 5 6 
#
# 1 45.7786 17.6667 20.4080 0.0000 0.0000 0.0000
# 2 17.6667 122.6598 48.1139 0.0000 0.0000 0.0000
# 3 20.4080 48.1139 85.0901 0.0000 0.0000 0.0000
# 4 0.0000 0.0000 0.0000 28.7840 0.0000 0.0000
# 5 0.0000 0.0000 0.0000 0.0000 15.4579 0.0000
# 6 0.0000 0.0000 0.0000 0.0000 0.0000 7.6230
#
#
#
# Elastic Compliance Matrix: (Units=1/GPa)
#
#
# Indices 1 2 3 4 5 6 
#
# 1 0.024697 -0.001585 -0.005027 0.000000 0.000000 0.000000
# 2 -0.001585 0.010578 -0.005601 0.000000 0.000000 0.000000
# 3 -0.005027 -0.005601 0.016125 0.000000 0.000000 0.000000
# 4 0.000000 0.000000 0.000000 0.034742 0.000000 0.000000
# 5 0.000000 0.000000 0.000000 0.000000 0.064692 0.000000
# 6 0.000000 0.000000 0.000000 0.000000 0.000000 0.131183
#
#
# Mechanical properties :
#
#
# Convention : Reuss Voigt Hill
#
# Bulk Modulus (GPa) = 37.07345 47.32284 42.19814
# Shear Modulus (GPa) = 15.85118 21.52896 18.69007
#
# Velocity S-wave (km/s) = 3.15770 3.68004 3.42883
# Velocity P-wave (km/s) = 6.05109 6.91557 6.49772
#
# Compressibility (1/GPa) = 0.02697348
#
# Stress axis : x y z
#
# Youngs Moduli (GPa) = 40.49063 94.53579 62.01544
#
# Poissons Ratio (x) = 0.14986 0.31175
# Poissons Ratio (y) = 0.06419 0.34735
# Poissons Ratio (z) = 0.20354 0.52950
#
# Static dielectric constant tensor:
#      x y z
#    x 2.657620 0.000000 0.000000 
#    y 0.000000 3.402910 0.000000 
#    z 0.000000 0.000000 3.087390 
# 
# 
# High freq. dielectric constant tensor:
#      x y z
#    x 1.566650 0.000000 0.000000 
#    y 0.000000 1.611540 0.000000 
#    z 0.000000 0.000000 1.601440 
# 
# From -- ./inp_files/24270.got.cif
#   From: 2010.03.12/outbox.cif.g09.slc.cpg/sg74_13_cif.got.tgz:24270.got - 2010.04.16 15:46:19.
