data_PCOD8297063
_publ_section_title
;
Structure prediction by ZEFSAII (Michael W. Deem and Ramdas Pophale) SiO2 
 PCOD8297063
Probable space group: I B C A 
;
_chemical_formula_sum "Si O2"
_cell_formula_units_Z 56
_cell_length_a 9.311229
_cell_length_b 18.106771
_cell_length_c 13.705528
_cell_angle_alpha 90.000000
_cell_angle_beta 90.000000
_cell_angle_gamma 90.000000
_cell_volume 2310.701190
_symmetry_space_group_name_H-M "I B C A "
_symmetry_group_IT_number 73
_symmetry_cell_setting 'orthorhombic'
loop_
_space_group_symop_operation_xyz
x,y,z
-x,1/2-y,z
x,-y,1/2-z
1/2-x,y,-z
-x,-y,-z
x,1/2+y,-z
-x,y,1/2+z
1/2+x,-y,z
1/2+x,1/2+y,1/2+z
1/2-x,-y,1/2+z
1/2+x,1/2-y,-z
-x,1/2+y,1/2-z
1/2-x,1/2-y,1/2-z
1/2+x,y,1/2-z
1/2-x,1/2+y,z
x,1/2-y,1/2+z
loop_
_atom_site_type_symbol
_atom_site_label
_atom_site_fract_x
_atom_site_fract_y
_atom_site_fract_z
Si Si1 0.630134 0.502553 0.571769
Si Si2 0.750000 0.774851 0.500000
Si Si3 0.225477 0.840487 0.344954
Si Si4 0.432949 0.356296 0.152897
O O1 0.750000 0.472506 0.500000
O O2 0.500000 0.500000 0.500000
O O3 0.664714 0.581750 0.617048
O O4 0.601056 0.443845 0.658065
O O5 0.825090 0.722343 0.419749
O O6 0.874829 0.823476 0.550664
O O7 0.398258 0.841242 0.336816
O O8 0.154501 0.819456 0.241645
#
# Coordination Sequence:
#
# PCOD8297063 Si02
#       4
#    16   8  16  16
#     4  12  24  47  77 107 145 191 243 302 365 431
#     4  12  26  50  72 102 150 198 250 300 374 438
#     4  12  28  48  75 113 149 193 252 303 372 442
#     4  12  28  46  76 110 147 198 246 309 368 441
#
# _framework density 24.235067999999998
#
# number of rings (size 3 to 8) (size 9 to 14) (size 15 to 20)
#    0.000    0.000    5.714    2.571    4.000    6.857 
#    0.000    0.000    0.000    0.000    0.000    0.000 
#    0.000    0.000    0.000    0.000    0.000    0.000 
#
# Total GULP energy -347170.338828 kJ/mol
# GULP energy per Si atom -12398.940672 kJ/mol
# Density = 2.417991 g / cm^3
# Si number density = 24.235068 Si / 1000 Ang^3
#
#
#
# Elastic Constant Matrix: (Units=GPa)
#
#
# Indices 1 2 3 4 5 6 
#
# 1 192.5108 49.3220 79.7400 0.0000 0.0000 0.0000
# 2 49.3220 119.9247 43.3189 0.0000 0.0000 0.0000
# 3 79.7400 43.3189 138.6471 -0.0001 0.0000 0.0000
# 4 0.0000 0.0000 -0.0001 46.1201 0.0000 0.0000
# 5 0.0000 0.0000 0.0000 0.0000 48.6043 0.0000
# 6 0.0000 0.0000 0.0000 0.0000 0.0000 25.1146
#
#
#
# Elastic Compliance Matrix: (Units=1/GPa)
#
#
# Indices 1 2 3 4 5 6 
#
# 1 0.007090 -0.001627 -0.003569 0.000000 0.000000 0.000000
# 2 -0.001627 0.009773 -0.002118 0.000000 0.000000 0.000000
# 3 -0.003569 -0.002118 0.009927 0.000000 0.000000 0.000000
# 4 0.000000 0.000000 0.000000 0.021683 0.000000 0.000000
# 5 0.000000 0.000000 0.000000 0.000000 0.020574 0.000000
# 6 0.000000 0.000000 0.000000 0.000000 0.000000 0.039818
#
#
# Mechanical properties :
#
#
# Convention : Reuss Voigt Hill
#
# Bulk Modulus (GPa) = 82.22392 88.42715 85.32553
# Shear Modulus (GPa) = 39.20188 42.54793 40.87490
#
# Velocity S-wave (km/s) = 4.02626 4.19458 4.11128
# Velocity P-wave (km/s) = 7.45759 7.74763 7.60399
#
# Compressibility (1/GPa) = 0.01216191
#
# Stress axis : x y z
#
# Youngs Moduli (GPa) = 141.05036 102.32773 100.73474
#
# Poissons Ratio (x) = 0.16644 0.35955
# Poissons Ratio (y) = 0.22942 0.21334
# Poissons Ratio (z) = 0.50345 0.21672
#
# Static dielectric constant tensor:
#      x y z
#    x 4.207330 0.000000 0.000000 
#    y 0.000000 4.050250 0.000000 
#    z 0.000000 0.000000 4.555220 
# 
# 
# High freq. dielectric constant tensor:
#      x y z
#    x 1.967240 0.000000 0.000000 
#    y 0.000000 1.987660 0.000000 
#    z 0.000000 0.000000 1.970250 
# 
# From -- ./inp_files/4430.got.cif
#   From: 2010.03.12/outbox.cif.g09.slc.cpg/sg73_3_cif.got.tgz:4430.got - 2010.04.16 15:25:48.
