data_PCOD8297002
_publ_section_title
;
Structure prediction by ZEFSAII (Michael W. Deem and Ramdas Pophale) SiO2 
 PCOD8297002
Probable space group: I B C A 
;
_chemical_formula_sum "Si O2"
_cell_formula_units_Z 72
_cell_length_a 22.799380
_cell_length_b 9.653439
_cell_length_c 13.748404
_cell_angle_alpha 90.000000
_cell_angle_beta 90.000000
_cell_angle_gamma 90.000000
_cell_volume 3025.919563
_symmetry_space_group_name_H-M "I B C A "
_symmetry_group_IT_number 73
_symmetry_cell_setting 'orthorhombic'
loop_
_space_group_symop_operation_xyz
x,y,z
-x,1/2-y,z
x,-y,1/2-z
1/2-x,y,-z
-x,-y,-z
x,1/2+y,-z
-x,y,1/2+z
1/2+x,-y,z
1/2+x,1/2+y,1/2+z
1/2-x,-y,1/2+z
1/2+x,1/2-y,-z
-x,1/2+y,1/2-z
1/2-x,1/2-y,1/2-z
1/2+x,y,1/2-z
1/2-x,1/2+y,z
x,1/2-y,1/2+z
loop_
_atom_site_type_symbol
_atom_site_label
_atom_site_fract_x
_atom_site_fract_y
_atom_site_fract_z
Si Si1 0.290653 0.339437 0.870290
Si Si2 0.935867 0.090674 0.415190
Si Si3 0.917497 0.231762 0.093640
Si Si4 0.000000 0.750000 0.235158
Si Si5 0.192126 0.858122 0.641307
O O1 0.347016 0.251965 0.907804
O O2 0.231377 0.263576 0.907192
O O3 0.289450 0.496555 0.909098
O O4 0.294541 0.353118 0.754757
O O5 0.948705 0.165627 0.517404
O O6 0.876745 0.162580 0.374564
O O7 0.986852 0.119642 0.336036
O O8 0.932844 0.927265 0.430616
O O9 0.943141 0.277739 0.197928
#
# Coordination Sequence:
#
# PCOD8297002 Si02
#       5
#    16  16  16   8  16
#     4   9  18  37  64  93 128 167 210 259 319 384
#     4  11  25  44  67  97 131 170 216 270 327 387
#     4  11  25  44  67  97 131 170 216 270 327 387
#     4  12  24  44  70  88 124 172 220 272 320 378
#     4   9  18  37  64  93 128 167 210 259 319 384
#
# _framework density 23.794419999999999
#
# number of rings (size 3 to 8) (size 9 to 14) (size 15 to 20)
#    0.000    1.778    2.222    1.333    0.000    8.000 
#    0.000    4.444    0.000    0.000    0.000    0.000 
#    0.000    0.000    0.000    0.000    0.000    0.000 
#
# Total GULP energy -446313.020651 kJ/mol
# GULP energy per Si atom -12397.583907 kJ/mol
# Density = 2.374026 g / cm^3
# Si number density = 23.794420 Si / 1000 Ang^3
#
#
#
# Elastic Constant Matrix: (Units=GPa)
#
#
# Indices 1 2 3 4 5 6 
#
# 1 95.2130 52.6073 25.3427 0.0000 0.0000 0.0000
# 2 52.6073 94.9046 34.9597 0.0000 0.0000 0.0000
# 3 25.3427 34.9597 82.6383 0.0000 0.0000 0.0000
# 4 0.0000 0.0000 0.0000 17.4433 0.0000 0.0000
# 5 0.0000 0.0000 0.0000 0.0000 29.1790 0.0000
# 6 0.0000 0.0000 0.0000 0.0000 0.0000 41.5299
#
#
#
# Elastic Compliance Matrix: (Units=1/GPa)
#
#
# Indices 1 2 3 4 5 6 
#
# 1 0.015257 -0.007977 -0.001304 0.000000 0.000000 0.000000
# 2 -0.007977 0.016653 -0.004599 0.000000 0.000000 0.000000
# 3 -0.001304 -0.004599 0.014446 0.000000 0.000000 0.000000
# 4 0.000000 0.000000 0.000000 0.057329 0.000000 0.000000
# 5 0.000000 0.000000 0.000000 0.000000 0.034271 0.000000
# 6 0.000000 0.000000 0.000000 0.000000 0.000000 0.024079
#
#
# Mechanical properties :
#
#
# Convention : Reuss Voigt Hill
#
# Bulk Modulus (GPa) = 53.77317 55.39727 54.58522
# Shear Modulus (GPa) = 25.51100 28.28683 26.89891
#
# Velocity S-wave (km/s) = 3.27791 3.45164 3.36590
# Velocity P-wave (km/s) = 6.08066 6.26237 6.17218
#
# Compressibility (1/GPa) = 0.01859664
#
# Stress axis : x y z
#
# Youngs Moduli (GPa) = 65.54201 60.05072 69.22180
#
# Poissons Ratio (x) = 0.47902 0.09029
# Poissons Ratio (y) = 0.52283 0.31832
# Poissons Ratio (z) = 0.08549 0.27614
#
# Static dielectric constant tensor:
#      x y z
#    x 4.483330 0.000000 0.000000 
#    y 0.000000 4.405430 0.000000 
#    z 0.000000 0.000000 4.196560 
# 
# 
# High freq. dielectric constant tensor:
#      x y z
#    x 1.948930 0.000000 0.000000 
#    y 0.000000 1.928620 0.000000 
#    z 0.000000 0.000000 1.948130 
# 
# From -- ./inp_files/19673.got.cif
#   From: 2010.03.12/outbox.cif.g09.slc.cpg/sg73_10_cif.got.tgz:19673.got - 2010.04.16 15:25:48.
