data_PCOD8297154
_publ_section_title
;
Structure prediction by ZEFSAII (Michael W. Deem and Ramdas Pophale) SiO2 
 PCOD8297154
Probable space group: I M M A
;
_chemical_formula_sum "Si O2"
_cell_formula_units_Z 80
_cell_length_a 11.711788
_cell_length_b 21.052580
_cell_length_c 21.314970
_cell_angle_alpha 90.000000
_cell_angle_beta 90.000000
_cell_angle_gamma 90.000000
_cell_volume 5255.490490
_symmetry_space_group_name_H-M "I M M A"
_symmetry_group_IT_number 74
_symmetry_cell_setting 'orthorhombic'
loop_
_space_group_symop_operation_xyz
x,y,z
-x,1/2-y,z
x,-y,-z
-x,1/2+y,-z
-x,-y,-z
x,1/2+y,-z
-x,y,z
x,1/2-y,z
1/2+x,1/2+y,1/2+z
1/2-x,-y,1/2+z
1/2+x,1/2-y,1/2-z
1/2-x,y,1/2-z
1/2-x,1/2-y,1/2-z
1/2+x,y,1/2-z
1/2-x,1/2+y,1/2+z
1/2+x,-y,1/2+z
loop_
_atom_site_type_symbol
_atom_site_label
_atom_site_fract_x
_atom_site_fract_y
_atom_site_fract_z
Si Si1 0.704665 0.398754 0.486129
Si Si2 0.500000 0.323968 0.644710
Si Si3 0.500000 0.323572 0.503180
Si Si4 0.866148 0.006121 0.908213
Si Si5 0.135235 0.675061 0.426058
Si Si6 0.219053 0.107423 0.821360
O O1 0.613717 0.344986 0.467167
O O2 0.643315 0.441042 0.538503
O O3 0.715827 0.445272 0.425672
O O4 0.817935 0.363681 0.512646
O O5 0.500000 0.250000 0.646742
O O6 0.500000 0.350824 0.574209
O O7 0.610367 0.347641 0.680458
O O8 0.500000 0.250000 0.505916
O O9 0.000000 0.986771 0.899983
O O10 0.813273 0.036964 0.845765
O O11 0.170681 0.750000 0.428955
O O12 0.183650 0.642210 0.363141
O O13 0.000000 0.667708 0.426184
O O14 0.250000 0.097625 0.750000
#
# Coordination Sequence:
#
# PCOD8297154 Si02
#       6
#    16   8   8  16  16  16
#     4  10  16  28  47  70  90 117 154 190 238 284
#     4  11  20  31  47  67  93 125 163 202 235 267
#     4  11  16  24  46  74  98 114 141 192 241 281
#     4  10  16  30  49  68  88 120 155 197 242 273
#     4  10  21  34  46  65  99 134 158 188 232 282
#     4  11  22  34  47  66  93 126 170 204 229 266
#
# _framework density 15.222175999999999
#
# number of rings (size 3 to 8) (size 9 to 14) (size 15 to 20)
#    0.000    1.600    7.000    1.800    1.400    1.600 
#    0.000    8.000    0.000    0.000    0.000    0.000 
#    0.000    3.200    1.200    0.000    0.000    0.000 
#
# Total GULP energy -495528.368322 kJ/mol
# GULP energy per Si atom -12388.209208 kJ/mol
# Density = 1.518753 g / cm^3
# Si number density = 15.222176 Si / 1000 Ang^3
#
#
#
# Elastic Constant Matrix: (Units=GPa)
#
#
# Indices 1 2 3 4 5 6 
#
# 1 93.8010 46.0778 35.9410 0.0000 0.0000 0.0000
# 2 46.0778 26.2240 57.3314 0.0000 0.0000 0.0000
# 3 35.9410 57.3314 64.5966 0.0000 0.0000 0.0000
# 4 0.0000 0.0000 0.0000 19.2997 0.0000 0.0000
# 5 0.0000 0.0000 0.0000 0.0000 17.6928 0.0000
# 6 0.0000 0.0000 0.0000 0.0000 0.0000 22.9734
#
#
#
# Elastic Compliance Matrix: (Units=1/GPa)
#
#
# Indices 1 2 3 4 5 6 
#
# 1 0.012202 0.007016 -0.013016 0.000000 0.000000 0.000000
# 2 0.007016 -0.036518 0.028508 0.000000 0.000000 0.000000
# 3 -0.013016 0.028508 -0.002579 0.000000 0.000000 0.000000
# 4 0.000000 0.000000 0.000000 0.051814 0.000000 0.000000
# 5 0.000000 0.000000 0.000000 0.000000 0.056520 0.000000
# 6 0.000000 0.000000 0.000000 0.000000 0.000000 0.043529
#
#
# Mechanical properties :
#
#
# Convention : Reuss Voigt Hill
#
# Bulk Modulus (GPa) = 55.18775 51.48022 53.33398
# Shear Modulus (GPa) = 58.14505 15.01125 36.57815
#
# Velocity S-wave (km/s) = 6.18713 3.14370 4.90731
# Velocity P-wave (km/s) = 9.34742 6.86074 8.19890
#
# Compressibility (1/GPa) = 0.01811996
#
# Stress axis : x y z
#
# Youngs Moduli (GPa) = 81.95652 -27.38345 -387.76165
#
# Poissons Ratio (x) = 0.19212 -5.04697
# Poissons Ratio (y) = -0.57499 11.05417
# Poissons Ratio (z) = 1.06672 0.78064
#
# Static dielectric constant tensor:
#      x y z
#    x 2.895890 0.000000 0.000000 
#    y 0.000000 3.222150 0.000000 
#    z 0.000000 0.000000 2.972820 
# 
# 
# High freq. dielectric constant tensor:
#      x y z
#    x 1.582740 0.000000 0.000000 
#    y 0.000000 1.590240 0.000000 
#    z 0.000000 0.000000 1.536150 
# 
# From -- ./inp_files/66274.got.cif
#   From: 2010.03.12/outbox.cif.g09.slc.cpg/sg74_34_cif.got.tgz:66274.got - 2010.04.16 15:46:19.
