data_PCOD8297207
_publ_section_title
;
Structure prediction by ZEFSAII (Michael W. Deem and Ramdas Pophale) SiO2 
 PCOD8297207
Probable space group: I M M A
;
_chemical_formula_sum "Si O2"
_cell_formula_units_Z 80
_cell_length_a 9.584574
_cell_length_b 14.699461
_cell_length_c 38.414038
_cell_angle_alpha 90.000000
_cell_angle_beta 90.000000
_cell_angle_gamma 90.000000
_cell_volume 5412.079741
_symmetry_space_group_name_H-M "I M M A"
_symmetry_group_IT_number 74
_symmetry_cell_setting 'orthorhombic'
loop_
_space_group_symop_operation_xyz
x,y,z
-x,1/2-y,z
x,-y,-z
-x,1/2+y,-z
-x,-y,-z
x,1/2+y,-z
-x,y,z
x,1/2-y,z
1/2+x,1/2+y,1/2+z
1/2-x,-y,1/2+z
1/2+x,1/2-y,1/2-z
1/2-x,y,1/2-z
1/2-x,1/2-y,1/2-z
1/2+x,y,1/2-z
1/2-x,1/2+y,1/2+z
1/2+x,-y,1/2+z
loop_
_atom_site_type_symbol
_atom_site_label
_atom_site_fract_x
_atom_site_fract_y
_atom_site_fract_z
Si Si1 0.335955 0.852250 0.021344
Si Si2 0.334254 0.465044 0.913711
Si Si3 0.334675 0.850036 0.944278
Si Si4 0.835648 0.145252 0.858162
Si Si5 0.346867 0.642585 0.279902
O O1 0.500000 0.866141 0.019972
O O2 0.296069 0.750000 0.032347
O O3 0.274378 0.873772 0.982882
O O4 0.276703 0.918956 0.050858
O O5 0.500000 0.450628 0.908611
O O6 0.293126 0.571982 0.916657
O O7 0.253886 0.422518 0.881446
O O8 0.500000 0.846306 0.947848
O O9 0.279685 0.750000 0.932108
O O10 0.798608 0.250000 0.867024
O O11 0.790779 0.121796 0.818610
O O12 0.000000 0.128542 0.863614
O O13 0.500000 0.599453 0.275211
O O14 0.356581 0.750000 0.274767
O O15 0.250000 0.598595 0.250000
#
# Coordination Sequence:
#
# PCOD8297207 Si02
#       5
#    16  16  16  16  16
#     4   8  13  21  34  54  78 100 125 162 204 238
#     4  10  17  24  39  61  79  98 132 172 199 226
#     4   8  14  24  37  54  77 103 130 165 209 244
#     4   9  18  30  40  54  82 114 133 149 187 238
#     4   8  14  25  40  56  75 102 132 155 177 213
#
# _framework density 14.781748
#
# number of rings (size 3 to 8) (size 9 to 14) (size 15 to 20)
#    0.000    3.400    0.000    3.600    0.000    4.400 
#    0.000    2.000    0.000    3.000    0.000    2.800 
#    0.000    0.800    0.000    1.800    0.000    2.800 
#
# Total GULP energy -495549.472224 kJ/mol
# GULP energy per Si atom -12388.736806 kJ/mol
# Density = 1.474810 g / cm^3
# Si number density = 14.781748 Si / 1000 Ang^3
#
#
#
# Elastic Constant Matrix: (Units=GPa)
#
#
# Indices 1 2 3 4 5 6 
#
# 1 34.1049 29.6296 41.9364 0.0000 0.0000 0.0000
# 2 29.6296 81.1272 61.3489 0.0000 0.0000 0.0000
# 3 41.9364 61.3489 104.3279 0.0000 0.0000 0.0000
# 4 0.0000 0.0000 0.0000 15.6842 0.0000 0.0000
# 5 0.0000 0.0000 0.0000 0.0000 18.1717 0.0000
# 6 0.0000 0.0000 0.0000 0.0000 0.0000 11.1513
#
#
#
# Elastic Compliance Matrix: (Units=1/GPa)
#
#
# Indices 1 2 3 4 5 6 
#
# 1 0.059881 -0.006605 -0.020186 0.000000 0.000000 0.000000
# 2 -0.006605 0.022925 -0.010826 0.000000 0.000000 0.000000
# 3 -0.020186 -0.010826 0.024065 0.000000 0.000000 0.000000
# 4 0.000000 0.000000 0.000000 0.063759 0.000000 0.000000
# 5 0.000000 0.000000 0.000000 0.000000 0.055031 0.000000
# 6 0.000000 0.000000 0.000000 0.000000 0.000000 0.089676
#
#
# Mechanical properties :
#
#
# Convention : Reuss Voigt Hill
#
# Bulk Modulus (GPa) = 31.60818 53.93221 42.77020
# Shear Modulus (GPa) = 12.46518 14.77776 13.62147
#
# Velocity S-wave (km/s) = 2.90708 3.16528 3.03893
# Velocity P-wave (km/s) = 5.71820 7.06566 6.42734
#
# Compressibility (1/GPa) = 0.03163738
#
# Stress axis : x y z
#
# Youngs Moduli (GPa) = 16.69977 43.61982 41.55340
#
# Poissons Ratio (x) = 0.28812 0.83880
# Poissons Ratio (y) = 0.11030 0.44986
# Poissons Ratio (z) = 0.33710 0.47223
#
# Static dielectric constant tensor:
#      x y z
#    x 2.620360 0.000000 0.000000 
#    y 0.000000 2.894520 0.000000 
#    z 0.000000 0.000000 3.238120 
# 
# 
# High freq. dielectric constant tensor:
#      x y z
#    x 1.525730 0.000000 0.000000 
#    y 0.000000 1.541880 0.000000 
#    z 0.000000 0.000000 1.556990 
# 
# From -- ./inp_files/65824.got.cif
#   From: 2010.03.12/outbox.cif.g09.slc.cpg/sg74_33_cif.got.tgz:65824.got - 2010.04.16 15:46:19.
