data_PCOD8297145
_publ_section_title
;
Structure prediction by ZEFSAII (Michael W. Deem and Ramdas Pophale) SiO2 
 PCOD8297145
Probable space group: I M M A
;
_chemical_formula_sum "Si O2"
_cell_formula_units_Z 64
_cell_length_a 19.562800
_cell_length_b 17.265034
_cell_length_c 10.605728
_cell_angle_alpha 90.000000
_cell_angle_beta 90.000000
_cell_angle_gamma 90.000000
_cell_volume 3582.110161
_symmetry_space_group_name_H-M "I M M A"
_symmetry_group_IT_number 74
_symmetry_cell_setting 'orthorhombic'
loop_
_space_group_symop_operation_xyz
x,y,z
-x,1/2-y,z
x,-y,-z
-x,1/2+y,-z
-x,-y,-z
x,1/2+y,-z
-x,y,z
x,1/2-y,z
1/2+x,1/2+y,1/2+z
1/2-x,-y,1/2+z
1/2+x,1/2-y,1/2-z
1/2-x,y,1/2-z
1/2-x,1/2-y,1/2-z
1/2+x,y,1/2-z
1/2-x,1/2+y,1/2+z
1/2+x,-y,1/2+z
loop_
_atom_site_type_symbol
_atom_site_label
_atom_site_fract_x
_atom_site_fract_y
_atom_site_fract_z
Si Si1 0.687642 0.057380 0.823225
Si Si2 0.421453 0.989838 0.642975
Si Si3 0.714228 0.111996 0.082785
Si Si4 0.647360 0.664339 0.677474
O O1 0.750000 0.098559 0.750000
O O2 0.620261 0.046592 0.737335
O O3 0.716355 0.974334 0.863568
O O4 0.675707 0.111150 0.946953
O O5 0.500000 0.013702 0.659629
O O6 0.412854 0.898895 0.673911
O O7 0.396029 0.000000 0.500000
O O8 0.674409 0.167678 0.178647
O O9 0.792840 0.140910 0.078295
O O10 0.619350 0.750000 0.642916
#
# Coordination Sequence:
#
# PCOD8297145 Si02
#       4
#    16  16  16  16
#     4  10  16  27  49  73 100 132 168 209 254 293
#     4  10  20  34  52  76 103 133 174 219 261 315
#     4   9  16  27  46  74 101 129 163 210 250 292
#     4  10  18  31  51  74 103 135 168 211 260 310
#
# _framework density 17.866564
#
# number of rings (size 3 to 8) (size 9 to 14) (size 15 to 20)
#    0.000    2.250    5.000    3.000    0.000    0.500 
#    0.000   10.000    0.000   13.500    0.000    0.000 
#    0.000    0.000    0.000    0.000    0.000    0.000 
#
# Total GULP energy -396502.882300 kJ/mol
# GULP energy per Si atom -12390.715072 kJ/mol
# Density = 1.782590 g / cm^3
# Si number density = 17.866564 Si / 1000 Ang^3
#
#
#
# Elastic Constant Matrix: (Units=GPa)
#
#
# Indices 1 2 3 4 5 6 
#
# 1 69.0654 13.0826 49.7666 0.0000 0.0000 0.0000
# 2 13.0826 45.8414 23.0046 0.0000 0.0000 0.0000
# 3 49.7666 23.0046 132.7735 0.0000 0.0000 0.0000
# 4 0.0000 0.0000 0.0000 15.7248 0.0000 0.0000
# 5 0.0000 0.0000 0.0000 0.0000 24.3147 0.0000
# 6 0.0000 0.0000 0.0000 0.0000 0.0000 9.7784
#
#
#
# Elastic Compliance Matrix: (Units=1/GPa)
#
#
# Indices 1 2 3 4 5 6 
#
# 1 0.020025 -0.002134 -0.007136 0.000000 0.000000 0.000000
# 2 -0.002134 0.024119 -0.003379 0.000000 0.000000 0.000000
# 3 -0.007136 -0.003379 0.010792 0.000000 0.000000 0.000000
# 4 0.000000 0.000000 0.000000 0.063594 0.000000 0.000000
# 5 0.000000 0.000000 0.000000 0.000000 0.041127 0.000000
# 6 0.000000 0.000000 0.000000 0.000000 0.000000 0.102267
#
#
# Mechanical properties :
#
#
# Convention : Reuss Voigt Hill
#
# Bulk Modulus (GPa) = 33.74048 46.59866 40.16957
# Shear Modulus (GPa) = 16.82922 20.75199 18.79061
#
# Velocity S-wave (km/s) = 3.07243 3.41177 3.24654
# Velocity P-wave (km/s) = 5.61357 6.45433 6.04858
#
# Compressibility (1/GPa) = 0.02963799
#
# Stress axis : x y z
#
# Youngs Moduli (GPa) = 49.93641 41.46099 92.66168
#
# Poissons Ratio (x) = 0.08847 0.66126
# Poissons Ratio (y) = 0.10656 0.31311
# Poissons Ratio (z) = 0.35636 0.14010
#
# Static dielectric constant tensor:
#      x y z
#    x 2.997050 0.000000 0.000000 
#    y 0.000000 3.022750 0.000000 
#    z 0.000000 0.000000 3.690370 
# 
# 
# High freq. dielectric constant tensor:
#      x y z
#    x 1.662000 0.000000 0.000000 
#    y 0.000000 1.657720 0.000000 
#    z 0.000000 0.000000 1.696240 
# 
# From -- ./inp_files/12064.got.cif
#   From: 2010.03.12/outbox.cif.g09.slc.cpg/sg74_7_cif.got.tgz:12064.got - 2010.04.16 15:46:19.
