data_PCOD8297748
_publ_section_title
;
Structure prediction by ZEFSAII (Michael W. Deem and Ramdas Pophale) SiO2 
 PCOD8297748
Probable space group: I M M A
;
_chemical_formula_sum "Si O2"
_cell_formula_units_Z 72
_cell_length_a 20.537535
_cell_length_b 8.778623
_cell_length_c 19.835957
_cell_angle_alpha 90.000000
_cell_angle_beta 90.000000
_cell_angle_gamma 90.000000
_cell_volume 3576.250020
_symmetry_space_group_name_H-M "I M M A"
_symmetry_group_IT_number 74
_symmetry_cell_setting 'orthorhombic'
loop_
_space_group_symop_operation_xyz
x,y,z
-x,1/2-y,z
x,-y,-z
-x,1/2+y,-z
-x,-y,-z
x,1/2+y,-z
-x,y,z
x,1/2-y,z
1/2+x,1/2+y,1/2+z
1/2-x,-y,1/2+z
1/2+x,1/2-y,1/2-z
1/2-x,y,1/2-z
1/2-x,1/2-y,1/2-z
1/2+x,y,1/2-z
1/2-x,1/2+y,1/2+z
1/2+x,-y,1/2+z
loop_
_atom_site_type_symbol
_atom_site_label
_atom_site_fract_x
_atom_site_fract_y
_atom_site_fract_z
Si Si1 0.577339 0.919724 0.565899
Si Si2 0.632352 0.070371 0.927387
Si Si3 0.927566 0.930399 0.202908
Si Si4 0.189038 0.570578 0.290736
Si Si5 0.000000 0.432001 0.426015
O O1 0.500000 0.915484 0.560088
O O2 0.606085 0.750000 0.570860
O O3 0.607547 0.000000 0.500000
O O4 0.599063 0.014018 0.630982
O O5 0.621790 0.250000 0.937089
O O6 0.688448 0.034707 0.871370
O O7 0.566601 0.998064 0.894516
O O8 0.651723 0.000000 0.000000
O O9 0.930312 0.750000 0.201086
O O10 0.877923 0.993299 0.258884
O O11 0.000000 0.996485 0.218329
O O12 0.190828 0.750000 0.279262
O O13 0.250000 0.496809 0.250000
O O14 0.000000 0.500000 0.500000
O O15 0.000000 0.250000 0.424629
#
# Coordination Sequence:
#
# PCOD8297748 Si02
#       5
#    16  16  16  16   8
#     4   9  16  27  45  70 101 133 167 210 260 307
#     4  10  19  33  56  81 110 143 184 229 276 330
#     4   9  17  30  51  76 100 131 176 222 264 314
#     4   9  19  35  55  78 107 144 183 222 267 325
#     4  10  18  30  50  80 114 142 175 220 275 328
#
# _framework density 20.132821
#
# number of rings (size 3 to 8) (size 9 to 14) (size 15 to 20)
#    0.000    2.667    0.000    3.667    1.556    2.667 
#    0.000    3.333    0.000    8.667    0.000    0.000 
#    0.000    0.000    0.000    0.000    0.000    0.000 
#
# Total GULP energy -446062.873507 kJ/mol
# GULP energy per Si atom -12390.635375 kJ/mol
# Density = 2.008700 g / cm^3
# Si number density = 20.132821 Si / 1000 Ang^3
#
#
#
# Elastic Constant Matrix: (Units=GPa)
#
#
# Indices 1 2 3 4 5 6 
#
# 1 89.2820 26.8174 70.1327 0.0000 0.0000 0.0000
# 2 26.8174 68.3431 27.1636 0.0000 0.0000 0.0000
# 3 70.1327 27.1636 143.6588 0.0000 0.0000 0.0000
# 4 0.0000 0.0000 0.0000 26.2294 0.0000 0.0000
# 5 0.0000 0.0000 0.0000 0.0000 29.9391 0.0000
# 6 0.0000 0.0000 0.0000 0.0000 0.0000 10.2007
#
#
#
# Elastic Compliance Matrix: (Units=1/GPa)
#
#
# Indices 1 2 3 4 5 6 
#
# 1 0.019180 -0.004114 -0.008586 0.000000 0.000000 0.000000
# 2 -0.004114 0.016703 -0.001150 0.000000 0.000000 0.000000
# 3 -0.008586 -0.001150 0.011370 0.000000 0.000000 0.000000
# 4 0.000000 0.000000 0.000000 0.038125 0.000000 0.000000
# 5 0.000000 0.000000 0.000000 0.000000 0.033401 0.000000
# 6 0.000000 0.000000 0.000000 0.000000 0.000000 0.098033
#
#
# Mechanical properties :
#
#
# Convention : Reuss Voigt Hill
#
# Bulk Modulus (GPa) = 51.13931 61.05679 56.09805
# Shear Modulus (GPa) = 19.91791 25.08516 22.50154
#
# Velocity S-wave (km/s) = 3.14877 3.53368 3.34676
# Velocity P-wave (km/s) = 6.21898 6.85872 6.54667
#
# Compressibility (1/GPa) = 0.01955443
#
# Stress axis : x y z
#
# Youngs Moduli (GPa) = 52.13645 59.86814 87.95149
#
# Poissons Ratio (x) = 0.24628 0.75514
# Poissons Ratio (y) = 0.21448 0.10115
# Poissons Ratio (z) = 0.44763 0.06885
#
# Static dielectric constant tensor:
#      x y z
#    x 4.087270 0.000000 0.000000 
#    y 0.000000 3.472520 0.000000 
#    z 0.000000 0.000000 3.745540 
# 
# 
# High freq. dielectric constant tensor:
#      x y z
#    x 1.750440 0.000000 0.000000 
#    y 0.000000 1.763380 0.000000 
#    z 0.000000 0.000000 1.794730 
# 
# From -- ./inp_files/53653.got.cif
#   From: 2010.03.12/outbox.cif.g09.slc.cpg/sg74_27_cif.got.tgz:53653.got - 2010.04.16 15:46:19.
