data_PCOD8297477
_publ_section_title
;
Structure prediction by ZEFSAII (Michael W. Deem and Ramdas Pophale) SiO2 
 PCOD8297477
Probable space group: I M M A
;
_chemical_formula_sum "Si O2"
_cell_formula_units_Z 128
_cell_length_a 27.418545
_cell_length_b 22.415914
_cell_length_c 11.976809
_cell_angle_alpha 90.000000
_cell_angle_beta 90.000000
_cell_angle_gamma 90.000000
_cell_volume 7361.087500
_symmetry_space_group_name_H-M "I M M A"
_symmetry_group_IT_number 74
_symmetry_cell_setting 'orthorhombic'
loop_
_space_group_symop_operation_xyz
x,y,z
-x,1/2-y,z
x,-y,-z
-x,1/2+y,-z
-x,-y,-z
x,1/2+y,-z
-x,y,z
x,1/2-y,z
1/2+x,1/2+y,1/2+z
1/2-x,-y,1/2+z
1/2+x,1/2-y,1/2-z
1/2-x,y,1/2-z
1/2-x,1/2-y,1/2-z
1/2+x,y,1/2-z
1/2-x,1/2+y,1/2+z
1/2+x,-y,1/2+z
loop_
_atom_site_type_symbol
_atom_site_label
_atom_site_fract_x
_atom_site_fract_y
_atom_site_fract_z
Si Si1 0.055616 0.406845 0.298317
Si Si2 0.444160 0.044276 0.746625
Si Si3 0.302058 0.478729 0.256141
Si Si4 0.637697 0.182714 0.263562
Si Si5 0.397085 0.931730 0.025627
Si Si6 0.690352 0.381047 0.075199
Si Si7 0.635855 0.949193 0.407282
Si Si8 0.800728 0.622667 0.938084
O O1 0.063222 0.472869 0.249542
O O2 0.091999 0.362789 0.231501
O O3 0.067519 0.405561 0.429741
O O4 0.000000 0.385421 0.280931
O O5 0.500000 0.062084 0.734953
O O6 0.424100 0.076329 0.857347
O O7 0.417739 0.070311 0.634775
O O8 0.250000 0.512077 0.250000
O O9 0.314311 0.443634 0.143381
O O10 0.342275 0.527138 0.288686
O O11 0.297408 0.432799 0.356776
O O12 0.617758 0.250000 0.259787
O O13 0.671281 0.171726 0.154918
O O14 0.671296 0.175778 0.374339
O O15 0.346542 0.893084 0.027800
O O16 0.385111 0.000000 0.000000
O O17 0.744194 0.362681 0.031597
O O18 0.668501 0.894339 0.451334
O O19 0.632075 0.000000 0.500000
#
# Coordination Sequence:
#
# PCOD8297477 Si02
#       8
#    16  16  16  16  16  16  16  16
#     4   9  17  30  47  69  98 125 153 193 235 277
#     4  10  19  30  46  67  94 129 159 185 227 279
#     4   8  14  25  41  61  89 122 148 176 222 273
#     4  10  19  32  50  69  92 123 157 196 239 278
#     4   9  16  27  44  68  96 124 151 180 224 284
#     4   9  17  29  45  68  96 122 150 187 232 284
#     4  10  18  28  41  60  91 124 158 191 217 260
#     4   9  18  29  41  63  92 121 154 191 228 268
#
# _framework density 17.388735
#
# number of rings (size 3 to 8) (size 9 to 14) (size 15 to 20)
#    0.000    2.750    0.000    5.250    0.000    6.500 
#    0.000    0.625    0.000    0.000    0.000    3.500 
#    0.000    9.500    0.000    0.000    0.000    0.000 
#
# Total GULP energy -793117.470485 kJ/mol
# GULP energy per Si atom -12392.460476 kJ/mol
# Density = 1.734916 g / cm^3
# Si number density = 17.388735 Si / 1000 Ang^3
#
#
#
# Elastic Constant Matrix: (Units=GPa)
#
#
# Indices 1 2 3 4 5 6 
#
# 1 144.2479 31.6591 43.2203 0.0000 0.0000 0.0000
# 2 31.6591 39.8036 15.8770 0.0000 0.0000 0.0000
# 3 43.2203 15.8770 48.6756 0.0000 0.0000 0.0000
# 4 0.0000 0.0000 0.0000 5.4706 0.0000 0.0000
# 5 0.0000 0.0000 0.0000 0.0000 28.8386 0.0000
# 6 0.0000 0.0000 0.0000 0.0000 0.0000 13.6181
#
#
#
# Elastic Compliance Matrix: (Units=1/GPa)
#
#
# Indices 1 2 3 4 5 6 
#
# 1 0.010313 -0.005231 -0.007451 0.000000 0.000000 0.000000
# 2 -0.005231 0.031534 -0.005641 0.000000 0.000000 0.000000
# 3 -0.007451 -0.005641 0.029000 0.000000 0.000000 0.000000
# 4 0.000000 0.000000 0.000000 0.182795 0.000000 0.000000
# 5 0.000000 0.000000 0.000000 0.000000 0.034676 0.000000
# 6 0.000000 0.000000 0.000000 0.000000 0.000000 0.073432
#
#
# Mechanical properties :
#
#
# Convention : Reuss Voigt Hill
#
# Bulk Modulus (GPa) = 29.23876 46.02667 37.63271
# Shear Modulus (GPa) = 12.20120 19.05019 15.62570
#
# Velocity S-wave (km/s) = 2.65178 3.31350 3.00093
# Velocity P-wave (km/s) = 5.12125 6.41605 5.80487
#
# Compressibility (1/GPa) = 0.03420118
#
# Stress axis : x y z
#
# Youngs Moduli (GPa) = 96.96435 31.71181 34.48247
#
# Poissons Ratio (x) = 0.16588 0.25693
# Poissons Ratio (y) = 0.50719 0.19452
# Poissons Ratio (z) = 0.72249 0.17889
#
# Static dielectric constant tensor:
#      x y z
#    x 3.585610 0.000000 0.000000 
#    y 0.000000 2.702910 0.000000 
#    z 0.000000 0.000000 3.197260 
# 
# 
# High freq. dielectric constant tensor:
#      x y z
#    x 1.693130 0.000000 0.000000 
#    y 0.000000 1.601970 0.000000 
#    z 0.000000 0.000000 1.651400 
# 
# From -- ./inp_files/25690.got.cif
#   From: 2010.03.12/outbox.cif.g09.slc.cpg/sg74_13_cif.got.tgz:25690.got - 2010.04.16 15:46:19.
