data_PCOD8297043
_publ_section_title
;
Structure prediction by ZEFSAII (Michael W. Deem and Ramdas Pophale) SiO2 
 PCOD8297043
Probable space group: I B C A 
;
_chemical_formula_sum "Si O2"
_cell_formula_units_Z 88
_cell_length_a 16.262989
_cell_length_b 17.836345
_cell_length_c 14.562032
_cell_angle_alpha 90.000000
_cell_angle_beta 90.000000
_cell_angle_gamma 90.000000
_cell_volume 4224.041861
_symmetry_space_group_name_H-M "I B C A "
_symmetry_group_IT_number 73
_symmetry_cell_setting 'orthorhombic'
loop_
_space_group_symop_operation_xyz
x,y,z
-x,1/2-y,z
x,-y,1/2-z
1/2-x,y,-z
-x,-y,-z
x,1/2+y,-z
-x,y,1/2+z
1/2+x,-y,z
1/2+x,1/2+y,1/2+z
1/2-x,-y,1/2+z
1/2+x,1/2-y,-z
-x,1/2+y,1/2-z
1/2-x,1/2-y,1/2-z
1/2+x,y,1/2-z
1/2-x,1/2+y,z
x,1/2-y,1/2+z
loop_
_atom_site_type_symbol
_atom_site_label
_atom_site_fract_x
_atom_site_fract_y
_atom_site_fract_z
Si Si1 0.301012 0.681415 0.216891
Si Si2 0.308674 0.955899 0.340327
Si Si3 0.539332 0.428345 0.051509
Si Si4 0.750000 0.442149 0.500000
Si Si5 0.845110 0.192019 0.522821
Si Si6 0.380685 0.161091 0.588703
O O1 0.250000 0.750000 0.250000
O O2 0.237042 0.622721 0.173249
O O3 0.356733 0.711127 0.131386
O O4 0.353172 0.653927 0.304750
O O5 0.406334 0.951139 0.360295
O O6 0.295418 0.000000 0.250000
O O7 0.263363 0.004323 0.415611
O O8 0.472127 0.370221 0.086425
O O9 0.500000 0.500000 0.000000
O O10 0.604468 0.385262 0.986976
O O11 0.673391 0.388842 0.520538
O O12 0.750000 0.177454 0.500000
O O13 0.879954 0.255349 0.453779
#
# Coordination Sequence:
#
# PCOD8297043 Si02
#       6
#    16  16  16   8  16  16
#     4  12  24  44  77 107 135 191 250 297 357 444
#     4  12  25  43  71 105 144 190 245 293 364 444
#     4  12  27  45  69 105 154 187 238 309 371 428
#     4  12  22  46  76 100 144 202 236 302 368 444
#     4  12  24  46  77 101 142 192 244 298 367 440
#     4  12  25  47  73 106 144 189 245 304 367 431
#
# _framework density 20.833127999999999
#
# number of rings (size 3 to 8) (size 9 to 14) (size 15 to 20)
#    0.000    0.000    8.182    1.636    0.000    1.455 
#    0.000    3.636    0.000    0.000    0.000    0.000 
#    0.000    0.000    0.000    0.000    0.000    0.000 
#
# Total GULP energy -545380.946439 kJ/mol
# GULP energy per Si atom -12395.021510 kJ/mol
# Density = 2.078571 g / cm^3
# Si number density = 20.833128 Si / 1000 Ang^3
#
#
#
# Elastic Constant Matrix: (Units=GPa)
#
#
# Indices 1 2 3 4 5 6 
#
# 1 97.5951 36.8266 21.9439 0.0000 0.0000 0.0000
# 2 36.8266 117.1651 45.5306 0.0000 0.0000 0.0000
# 3 21.9439 45.5306 137.3287 0.0000 0.0000 0.0000
# 4 0.0000 0.0000 0.0000 37.4555 0.0000 0.0000
# 5 0.0000 0.0000 0.0000 0.0000 36.8216 0.0000
# 6 0.0000 0.0000 0.0000 0.0000 0.0000 50.0655
#
#
#
# Elastic Compliance Matrix: (Units=1/GPa)
#
#
# Indices 1 2 3 4 5 6 
#
# 1 0.011691 -0.003385 -0.000746 0.000000 0.000000 0.000000
# 2 -0.003385 0.010777 -0.003032 0.000000 0.000000 0.000000
# 3 -0.000746 -0.003032 0.008406 0.000000 0.000000 0.000000
# 4 0.000000 0.000000 0.000000 0.026698 0.000000 0.000000
# 5 0.000000 0.000000 0.000000 0.000000 0.027158 0.000000
# 6 0.000000 0.000000 0.000000 0.000000 0.000000 0.019974
#
#
# Mechanical properties :
#
#
# Convention : Reuss Voigt Hill
#
# Bulk Modulus (GPa) = 60.42745 62.29901 61.36323
# Shear Modulus (GPa) = 40.14530 41.38769 40.76650
#
# Velocity S-wave (km/s) = 4.39452 4.46200 4.42838
# Velocity P-wave (km/s) = 7.40388 7.51762 7.46097
#
# Compressibility (1/GPa) = 0.01654877
#
# Stress axis : x y z
#
# Youngs Moduli (GPa) = 85.53295 92.78829 118.95807
#
# Poissons Ratio (x) = 0.31408 0.08874
# Poissons Ratio (y) = 0.28952 0.36071
# Poissons Ratio (z) = 0.06380 0.28136
#
# Static dielectric constant tensor:
#      x y z
#    x 3.709990 0.000000 0.000000 
#    y 0.000000 4.136420 0.000000 
#    z 0.000000 0.000000 3.370570 
# 
# 
# High freq. dielectric constant tensor:
#      x y z
#    x 1.811680 0.000000 0.000000 
#    y 0.000000 1.835010 0.000000 
#    z 0.000000 0.000000 1.830800 
# 
# From -- ./inp_files/16955.got.cif
#   From: 2010.03.12/outbox.cif.g09.slc.cpg/sg73_9_cif.got.tgz:16955.got - 2010.04.16 15:25:48.
