data_PCOD8297966
_publ_section_title
;
Structure prediction by ZEFSAII (Michael W. Deem and Ramdas Pophale) SiO2 
 PCOD8297966
Probable space group: I M M A
;
_chemical_formula_sum "Si O2"
_cell_formula_units_Z 104
_cell_length_a 24.155807
_cell_length_b 8.728931
_cell_length_c 25.334560
_cell_angle_alpha 90.000000
_cell_angle_beta 90.000000
_cell_angle_gamma 90.000000
_cell_volume 5341.902753
_symmetry_space_group_name_H-M "I M M A"
_symmetry_group_IT_number 74
_symmetry_cell_setting 'orthorhombic'
loop_
_space_group_symop_operation_xyz
x,y,z
-x,1/2-y,z
x,-y,-z
-x,1/2+y,-z
-x,-y,-z
x,1/2+y,-z
-x,y,z
x,1/2-y,z
1/2+x,1/2+y,1/2+z
1/2-x,-y,1/2+z
1/2+x,1/2-y,1/2-z
1/2-x,y,1/2-z
1/2-x,1/2-y,1/2-z
1/2+x,y,1/2-z
1/2-x,1/2+y,1/2+z
1/2+x,-y,1/2+z
loop_
_atom_site_type_symbol
_atom_site_label
_atom_site_fract_x
_atom_site_fract_y
_atom_site_fract_z
Si Si1 0.390712 0.571652 0.443696
Si Si2 0.562202 0.931118 0.735356
Si Si3 0.500000 0.431143 0.441806
Si Si4 0.936987 0.430902 0.445144
Si Si5 0.152803 0.927936 0.848264
Si Si6 0.241582 0.919918 0.311424
Si Si7 0.125641 0.068773 0.339599
O O1 0.376245 0.500000 0.500000
O O2 0.399406 0.750000 0.452004
O O3 0.444714 0.495535 0.415274
O O4 0.344207 0.528338 0.401885
O O5 0.500000 0.997766 0.725593
O O6 0.560266 0.750000 0.730109
O O7 0.606276 0.993465 0.692246
O O8 0.582100 0.977364 0.793907
O O9 0.500000 0.250000 0.441294
O O10 0.500000 0.500000 0.500000
O O11 0.913473 0.500000 0.500000
O O12 0.935063 0.250000 0.449955
O O13 0.899573 0.484766 0.395766
O O14 0.000000 0.487793 0.435749
O O15 0.142765 0.750000 0.860632
O O16 0.214042 0.952115 0.827053
O O17 0.250841 0.750000 0.336581
O O18 0.250000 0.903174 0.250000
O O19 0.181877 0.978992 0.329122
O O20 0.137261 0.250000 0.338535
#
# Coordination Sequence:
#
# PCOD8297966 Si02
#       7
#    16  16   8  16  16  16  16
#     4  11  22  38  57  81 113 148 187 233 286 339
#     4   9  18  32  54  86 117 145 182 233 288 344
#     4  10  18  32  54  80 108 144 190 230 273 328
#     4   9  18  33  56  87 123 159 195 236 287 346
#     4  11  22  37  60  86 113 149 193 238 289 351
#     4  11  23  39  58  81 114 152 193 242 294 348
#     4  10  19  35  60  86 113 150 198 243 285 345
#
# _framework density 19.468719
#
# number of rings (size 3 to 8) (size 9 to 14) (size 15 to 20)
#    0.000    1.846    1.538    4.385    1.077    3.077 
#    0.000    0.769    0.000    5.077    0.000    0.000 
#    0.000    0.000    0.000    0.000    0.000    0.000 
#
# Total GULP energy -644538.889155 kJ/mol
# GULP energy per Si atom -12394.978638 kJ/mol
# Density = 1.942441 g / cm^3
# Si number density = 19.468719 Si / 1000 Ang^3
#
#
#
# Elastic Constant Matrix: (Units=GPa)
#
#
# Indices 1 2 3 4 5 6 
#
# 1 120.4774 28.9293 53.4593 0.0000 0.0000 0.0000
# 2 28.9293 89.6263 38.9093 0.0000 0.0000 0.0000
# 3 53.4593 38.9093 126.4364 0.0000 0.0000 0.0000
# 4 0.0000 0.0000 0.0000 23.3241 0.0000 0.0000
# 5 0.0000 0.0000 0.0000 0.0000 27.4760 0.0000
# 6 0.0000 0.0000 0.0000 0.0000 0.0000 26.5280
#
#
#
# Elastic Compliance Matrix: (Units=1/GPa)
#
#
# Indices 1 2 3 4 5 6 
#
# 1 0.010431 -0.001676 -0.003895 0.000000 0.000000 0.000000
# 2 -0.001676 0.013147 -0.003337 0.000000 0.000000 0.000000
# 3 -0.003895 -0.003337 0.010583 0.000000 0.000000 0.000000
# 4 0.000000 0.000000 0.000000 0.042874 0.000000 0.000000
# 5 0.000000 0.000000 0.000000 0.000000 0.036395 0.000000
# 6 0.000000 0.000000 0.000000 0.000000 0.000000 0.037696
#
#
# Mechanical properties :
#
#
# Convention : Reuss Voigt Hill
#
# Bulk Modulus (GPa) = 61.18018 64.34840 62.76429
# Shear Modulus (GPa) = 28.67127 29.81510 29.24318
#
# Velocity S-wave (km/s) = 3.84172 3.91760 3.87985
# Velocity P-wave (km/s) = 7.15343 7.32034 7.23737
#
# Compressibility (1/GPa) = 0.01634516
#
# Stress axis : x y z
#
# Youngs Moduli (GPa) = 95.86896 76.06166 94.49319
#
# Poissons Ratio (x) = 0.12749 0.36801
# Poissons Ratio (y) = 0.16069 0.31534
# Poissons Ratio (z) = 0.37337 0.25383
#
# Static dielectric constant tensor:
#      x y z
#    x 3.874080 0.000000 0.000000 
#    y 0.000000 3.407860 0.000000 
#    z 0.000000 0.000000 3.623070 
# 
# 
# High freq. dielectric constant tensor:
#      x y z
#    x 1.753020 0.000000 0.000000 
#    y 0.000000 1.745520 0.000000 
#    z 0.000000 0.000000 1.761210 
# 
# From -- ./inp_files/68654.got.cif
#   From: 2010.03.12/outbox.cif.g09.slc.cpg/sg74_35_cif.got.tgz:68654.got - 2010.04.16 15:46:19.
