data_PCOD8297854
_publ_section_title
;
Structure prediction by ZEFSAII (Michael W. Deem and Ramdas Pophale) SiO2 
 PCOD8297854
Probable space group: I M M A
;
_chemical_formula_sum "Si O2"
_cell_formula_units_Z 96
_cell_length_a 23.803113
_cell_length_b 8.555415
_cell_length_c 25.489827
_cell_angle_alpha 90.000000
_cell_angle_beta 90.000000
_cell_angle_gamma 90.000000
_cell_volume 5190.888819
_symmetry_space_group_name_H-M "I M M A"
_symmetry_group_IT_number 74
_symmetry_cell_setting 'orthorhombic'
loop_
_space_group_symop_operation_xyz
x,y,z
-x,1/2-y,z
x,-y,-z
-x,1/2+y,-z
-x,-y,-z
x,1/2+y,-z
-x,y,z
x,1/2-y,z
1/2+x,1/2+y,1/2+z
1/2-x,-y,1/2+z
1/2+x,1/2-y,1/2-z
1/2-x,y,1/2-z
1/2-x,1/2-y,1/2-z
1/2+x,y,1/2-z
1/2-x,1/2+y,1/2+z
1/2+x,-y,1/2+z
loop_
_atom_site_type_symbol
_atom_site_label
_atom_site_fract_x
_atom_site_fract_y
_atom_site_fract_z
Si Si1 0.882271 0.564800 0.351043
Si Si2 0.500000 0.935115 0.193869
Si Si3 0.500000 0.936296 0.312451
Si Si4 0.814151 0.066153 0.443782
Si Si5 0.693715 0.435283 0.556575
Si Si6 0.880870 0.563999 0.151709
Si Si7 0.312809 0.064074 0.750870
O O1 0.878688 0.750000 0.359374
O O2 0.945348 0.508865 0.337946
O O3 0.862982 0.478562 0.403502
O O4 0.842614 0.507996 0.303835
O O5 0.500000 0.750000 0.199026
O O6 0.500000 0.003826 0.253053
O O7 0.500000 0.750000 0.309701
O O8 0.445020 0.996648 0.343723
O O9 0.806990 0.250000 0.448058
O O10 0.832243 0.000000 0.500000
O O11 0.754855 0.993980 0.425387
O O12 0.676347 0.500000 0.500000
O O13 0.695632 0.250000 0.554433
O O14 0.647373 0.496589 0.597997
O O15 0.879362 0.750000 0.153316
O O16 0.846151 0.496409 0.200963
O O17 0.312226 0.250000 0.748259
O O18 0.250000 0.995638 0.750000
#
# Coordination Sequence:
#
# PCOD8297854 Si02
#       7
#    16   8   8  16  16  16  16
#     4  10  18  31  52  79 108 135 169 211 259 308
#     4   9  16  28  50  79 108 138 171 214 257 298
#     4   9  14  26  45  75 109 136 174 218 257 294
#     4  11  22  37  56  77 102 135 172 213 260 311
#     4  10  19  33  53  77 104 137 174 216 264 309
#     4   9  16  26  45  74 106 137 172 216 259 301
#     4   9  15  23  41  72 105 132 163 208 256 301
#
# _framework density 18.493943000000002
#
# number of rings (size 3 to 8) (size 9 to 14) (size 15 to 20)
#    0.000    2.333    1.667    4.000    0.000    2.667 
#    0.000    1.250    0.000    5.500    0.000    1.750 
#    0.000    0.000    0.000    0.000    0.000    0.000 
#
# Total GULP energy -595158.061167 kJ/mol
# GULP energy per Si atom -12399.126274 kJ/mol
# Density = 1.845185 g / cm^3
# Si number density = 18.493943 Si / 1000 Ang^3
#
#
#
# Elastic Constant Matrix: (Units=GPa)
#
#
# Indices 1 2 3 4 5 6 
#
# 1 172.4099 19.6190 92.6435 0.0000 0.0000 0.0000
# 2 19.6190 46.8977 28.1851 0.0000 0.0000 0.0000
# 3 92.6435 28.1851 142.0796 0.0000 0.0000 0.0000
# 4 0.0000 0.0000 0.0000 21.1541 0.0000 0.0000
# 5 0.0000 0.0000 0.0000 0.0000 31.9074 0.0000
# 6 0.0000 0.0000 0.0000 0.0000 0.0000 12.3225
#
#
#
# Elastic Compliance Matrix: (Units=1/GPa)
#
#
# Indices 1 2 3 4 5 6 
#
# 1 0.008931 -0.000268 -0.005771 0.000000 0.000000 0.000000
# 2 -0.000268 0.024217 -0.004629 0.000000 0.000000 0.000000
# 3 -0.005771 -0.004629 0.011719 0.000000 0.000000 0.000000
# 4 0.000000 0.000000 0.000000 0.047272 0.000000 0.000000
# 5 0.000000 0.000000 0.000000 0.000000 0.031341 0.000000
# 6 0.000000 0.000000 0.000000 0.000000 0.000000 0.081152
#
#
# Mechanical properties :
#
#
# Convention : Reuss Voigt Hill
#
# Bulk Modulus (GPa) = 42.49522 71.36472 56.92997
# Shear Modulus (GPa) = 21.38457 27.80610 24.59534
#
# Velocity S-wave (km/s) = 3.40413 3.88174 3.65075
# Velocity P-wave (km/s) = 6.20311 7.66567 6.97284
#
# Compressibility (1/GPa) = 0.02353206
#
# Stress axis : x y z
#
# Youngs Moduli (GPa) = 111.96413 41.29268 85.32913
#
# Poissons Ratio (x) = 0.01108 0.49240
# Poissons Ratio (y) = 0.03004 0.39501
# Poissons Ratio (z) = 0.64609 0.19115
#
# Static dielectric constant tensor:
#      x y z
#    x 3.662550 0.000000 0.000000 
#    y 0.000000 2.903650 0.000000 
#    z 0.000000 0.000000 3.521000 
# 
# 
# High freq. dielectric constant tensor:
#      x y z
#    x 1.722810 0.000000 0.000000 
#    y 0.000000 1.670250 0.000000 
#    z 0.000000 0.000000 1.721610 
# 
# From -- ./inp_files/61949.got.cif
#   From: 2010.03.12/outbox.cif.g09.slc.cpg/sg74_31_cif.got.tgz:61949.got - 2010.04.16 15:46:19.
