data_PCOD8297708
_publ_section_title
;
Structure prediction by ZEFSAII (Michael W. Deem and Ramdas Pophale) SiO2 
 PCOD8297708
Probable space group: I M M A
;
_chemical_formula_sum "Si O2"
_cell_formula_units_Z 96
_cell_length_a 28.317706
_cell_length_b 16.350281
_cell_length_c 10.351678
_cell_angle_alpha 90.000000
_cell_angle_beta 90.000000
_cell_angle_gamma 90.000000
_cell_volume 4792.852279
_symmetry_space_group_name_H-M "I M M A"
_symmetry_group_IT_number 74
_symmetry_cell_setting 'orthorhombic'
loop_
_space_group_symop_operation_xyz
x,y,z
-x,1/2-y,z
x,-y,-z
-x,1/2+y,-z
-x,-y,-z
x,1/2+y,-z
-x,y,z
x,1/2-y,z
1/2+x,1/2+y,1/2+z
1/2-x,-y,1/2+z
1/2+x,1/2-y,1/2-z
1/2-x,y,1/2-z
1/2-x,1/2-y,1/2-z
1/2+x,y,1/2-z
1/2-x,1/2+y,1/2+z
1/2+x,-y,1/2+z
loop_
_atom_site_type_symbol
_atom_site_label
_atom_site_fract_x
_atom_site_fract_y
_atom_site_fract_z
Si Si1 0.364835 0.346301 0.223882
Si Si2 0.446889 0.919172 0.920124
Si Si3 0.691480 0.152660 0.473255
Si Si4 0.649517 0.152032 0.741956
Si Si5 0.295832 0.154181 0.990248
Si Si6 0.449346 0.157128 0.821830
O O1 0.376282 0.250000 0.235210
O O2 0.412719 0.397995 0.200184
O O3 0.339205 0.380009 0.352794
O O4 0.330918 0.366386 0.105123
O O5 0.500000 0.928663 0.864762
O O6 0.443277 0.845182 0.022940
O O7 0.431747 0.000000 0.000000
O O8 0.692812 0.250000 0.465181
O O9 0.668097 0.121231 0.605155
O O10 0.744700 0.116592 0.473282
O O11 0.647856 0.250000 0.752155
O O12 0.683173 0.117542 0.856438
O O13 0.596263 0.115466 0.755576
O O14 0.288998 0.250000 0.971027
O O15 0.500000 0.114167 0.784150
O O16 0.451886 0.250000 0.776732
#
# Coordination Sequence:
#
# PCOD8297708 Si02
#       6
#    16  16  16  16  16  16
#     4  10  18  30  48  74 101 127 160 200 250 295
#     4  10  20  33  50  72  94 122 164 207 248 296
#     4   9  17  26  41  71 108 132 154 196 243 290
#     4   9  15  25  42  69 100 131 162 193 236 286
#     4   9  15  25  43  70 100 129 162 195 230 278
#     4   9  16  28  48  72  94 117 154 202 243 283
#
# _framework density 20.029826
#
# number of rings (size 3 to 8) (size 9 to 14) (size 15 to 20)
#    0.000    2.667    1.667    1.500    0.000    5.000 
#    0.000    0.833    0.000    4.000    8.667    3.500 
#    0.000    0.000    0.000    0.000    0.000    0.000 
#
# Total GULP energy -594771.632856 kJ/mol
# GULP energy per Si atom -12391.075685 kJ/mol
# Density = 1.998424 g / cm^3
# Si number density = 20.029826 Si / 1000 Ang^3
#
#
#
# Elastic Constant Matrix: (Units=GPa)
#
#
# Indices 1 2 3 4 5 6 
#
# 1 186.3237 27.2651 80.7465 0.0000 0.0000 0.0000
# 2 27.2651 21.8143 17.5255 0.0000 0.0000 0.0000
# 3 80.7465 17.5255 141.1448 0.0000 0.0000 0.0000
# 4 0.0000 0.0000 0.0000 10.3935 0.0000 0.0000
# 5 0.0000 0.0000 0.0000 0.0000 23.4223 0.0000
# 6 0.0000 0.0000 0.0000 0.0000 0.0000 7.5158
#
#
#
# Elastic Compliance Matrix: (Units=1/GPa)
#
#
# Indices 1 2 3 4 5 6 
#
# 1 0.008000 -0.007023 -0.003705 0.000000 0.000000 0.000000
# 2 -0.007023 0.057086 -0.003071 0.000000 0.000000 0.000000
# 3 -0.003705 -0.003071 0.009586 0.000000 0.000000 0.000000
# 4 0.000000 0.000000 0.000000 0.096214 0.000000 0.000000
# 5 0.000000 0.000000 0.000000 0.000000 0.042694 0.000000
# 6 0.000000 0.000000 0.000000 0.000000 0.000000 0.133053
#
#
# Mechanical properties :
#
#
# Convention : Reuss Voigt Hill
#
# Bulk Modulus (GPa) = 21.24243 66.70631 43.97437
# Shear Modulus (GPa) = 12.82310 23.18272 18.00291
#
# Velocity S-wave (km/s) = 2.53296 3.40576 3.00126
# Velocity P-wave (km/s) = 4.37984 6.98866 5.83200
#
# Compressibility (1/GPa) = 0.04707559
#
# Stress axis : x y z
#
# Youngs Moduli (GPa) = 124.99712 17.51741 104.32302
#
# Poissons Ratio (x) = 0.12302 0.38649
# Poissons Ratio (y) = 0.87783 0.32033
# Poissons Ratio (z) = 0.46308 0.05379
#
# Static dielectric constant tensor:
#      x y z
#    x 4.108710 0.000000 0.000000 
#    y 0.000000 3.046680 0.000000 
#    z 0.000000 0.000000 3.549370 
# 
# 
# High freq. dielectric constant tensor:
#      x y z
#    x 1.802740 0.000000 0.000000 
#    y 0.000000 1.725710 0.000000 
#    z 0.000000 0.000000 1.756500 
# 
# From -- ./inp_files/26435.got.cif
#   From: 2010.03.12/outbox.cif.g09.slc.cpg/sg74_14_cif.got.tgz:26435.got - 2010.04.16 15:46:19.
