data_PCOD8297476
_publ_section_title
;
Structure prediction by ZEFSAII (Michael W. Deem and Ramdas Pophale) SiO2 
 PCOD8297476
Probable space group: I M M A
;
_chemical_formula_sum "Si O2"
_cell_formula_units_Z 80
_cell_length_a 8.846664
_cell_length_b 19.270518
_cell_length_c 32.945809
_cell_angle_alpha 90.000000
_cell_angle_beta 90.000000
_cell_angle_gamma 90.000000
_cell_volume 5616.594858
_symmetry_space_group_name_H-M "I M M A"
_symmetry_group_IT_number 74
_symmetry_cell_setting 'orthorhombic'
loop_
_space_group_symop_operation_xyz
x,y,z
-x,1/2-y,z
x,-y,-z
-x,1/2+y,-z
-x,-y,-z
x,1/2+y,-z
-x,y,z
x,1/2-y,z
1/2+x,1/2+y,1/2+z
1/2-x,-y,1/2+z
1/2+x,1/2-y,1/2-z
1/2-x,y,1/2-z
1/2-x,1/2-y,1/2-z
1/2+x,y,1/2-z
1/2-x,1/2+y,1/2+z
1/2+x,-y,1/2+z
loop_
_atom_site_type_symbol
_atom_site_label
_atom_site_fract_x
_atom_site_fract_y
_atom_site_fract_z
Si Si1 0.321559 0.025576 0.557992
Si Si2 0.825763 0.616414 0.131947
Si Si3 0.180174 0.901160 0.518265
Si Si4 0.826040 0.750000 0.080298
Si Si5 0.322738 0.250000 0.004978
Si Si6 0.822653 0.329094 0.708170
O O1 0.500000 0.028667 0.549030
O O2 0.286495 0.049780 0.604010
O O3 0.238729 0.075662 0.525961
O O4 0.258275 0.947617 0.553085
O O5 0.783503 0.683406 0.106139
O O6 0.728230 0.617963 0.172908
O O7 0.000000 0.616640 0.144880
O O8 0.232225 0.821330 0.526514
O O9 0.000000 0.910533 0.519790
O O10 0.000000 0.750000 0.066684
O O11 0.724159 0.750000 0.041243
O O12 0.500000 0.250000 0.005334
O O13 0.769457 0.250000 0.698439
O O14 0.750000 0.354997 0.750000
O O15 0.000000 0.333074 0.713059
#
# Coordination Sequence:
#
# PCOD8297476 Si02
#       6
#    16  16  16   8   8  16
#     4  10  19  30  43  60  81 107 138 173 212 252
#     4  10  19  30  44  60  81 107 139 176 212 248
#     4  10  19  30  42  58  81 108 138 175 213 250
#     4  10  18  28  41  59  80 108 141 177 213 244
#     4  10  20  30  42  59  81 108 141 179 215 250
#     4  10  20  31  44  61  82 108 138 172 209 247
#
# _framework density 14.243506
#
# number of rings (size 3 to 8) (size 9 to 14) (size 15 to 20)
#    0.000    2.000    3.000    3.000    0.000    4.000 
#    0.000    0.000    0.000    0.000    0.000    0.000 
#    0.000    0.000    0.000    0.900    0.000   11.600 
#
# Total GULP energy -495865.035195 kJ/mol
# GULP energy per Si atom -12396.625880 kJ/mol
# Density = 1.421109 g / cm^3
# Si number density = 14.243506 Si / 1000 Ang^3
#
#
#
# Elastic Constant Matrix: (Units=GPa)
#
#
# Indices 1 2 3 4 5 6 
#
# 1 36.3760 33.8035 23.7548 0.0000 0.0000 0.0000
# 2 33.8035 100.3662 47.5418 0.0000 0.0000 0.0000
# 3 23.7548 47.5418 82.0809 0.0000 0.0000 0.0000
# 4 0.0000 0.0000 0.0000 26.5406 0.0000 0.0000
# 5 0.0000 0.0000 0.0000 0.0000 24.4772 0.0000
# 6 0.0000 0.0000 0.0000 0.0000 0.0000 14.6964
#
#
#
# Elastic Compliance Matrix: (Units=1/GPa)
#
#
# Indices 1 2 3 4 5 6 
#
# 1 0.041694 -0.011475 -0.005420 0.000000 0.000000 0.000000
# 2 -0.011475 0.016889 -0.006461 0.000000 0.000000 0.000000
# 3 -0.005420 -0.006461 0.017494 0.000000 0.000000 0.000000
# 4 0.000000 0.000000 0.000000 0.037678 0.000000 0.000000
# 5 0.000000 0.000000 0.000000 0.000000 0.040854 0.000000
# 6 0.000000 0.000000 0.000000 0.000000 0.000000 0.068044
#
#
# Mechanical properties :
#
#
# Convention : Reuss Voigt Hill
#
# Bulk Modulus (GPa) = 34.05521 47.66926 40.86223
# Shear Modulus (GPa) = 17.91128 20.72438 19.31783
#
# Velocity S-wave (km/s) = 3.54998 3.81859 3.68673
# Velocity P-wave (km/s) = 6.38470 7.27889 6.84641
#
# Compressibility (1/GPa) = 0.02936408
#
# Stress axis : x y z
#
# Youngs Moduli (GPa) = 23.98440 59.21040 57.16230
#
# Poissons Ratio (x) = 0.67945 0.30982
# Poissons Ratio (y) = 0.27522 0.36934
# Poissons Ratio (z) = 0.12999 0.38257
#
# Static dielectric constant tensor:
#      x y z
#    x 2.845980 0.000000 0.000000 
#    y 0.000000 2.626970 0.000000 
#    z 0.000000 0.000000 2.655810 
# 
# 
# High freq. dielectric constant tensor:
#      x y z
#    x 1.556570 0.000000 0.000000 
#    y 0.000000 1.523580 0.000000 
#    z 0.000000 0.000000 1.515720 
# 
# From -- ./inp_files/70714.got.cif
#   From: 2010.03.12/outbox.cif.g09.slc.cpg/sg74_36_cif.got.tgz:70714.got - 2010.04.16 15:46:19.
