data_PCOD8297525
_publ_section_title
;
Structure prediction by ZEFSAII (Michael W. Deem and Ramdas Pophale) SiO2 
 PCOD8297525
Probable space group: I M M A
;
_chemical_formula_sum "Si O2"
_cell_formula_units_Z 80
_cell_length_a 15.098355
_cell_length_b 22.388424
_cell_length_c 11.131697
_cell_angle_alpha 90.000000
_cell_angle_beta 90.000000
_cell_angle_gamma 90.000000
_cell_volume 3762.829431
_symmetry_space_group_name_H-M "I M M A"
_symmetry_group_IT_number 74
_symmetry_cell_setting 'orthorhombic'
loop_
_space_group_symop_operation_xyz
x,y,z
-x,1/2-y,z
x,-y,-z
-x,1/2+y,-z
-x,-y,-z
x,1/2+y,-z
-x,y,z
x,1/2-y,z
1/2+x,1/2+y,1/2+z
1/2-x,-y,1/2+z
1/2+x,1/2-y,1/2-z
1/2-x,y,1/2-z
1/2-x,1/2-y,1/2-z
1/2+x,y,1/2-z
1/2-x,1/2+y,1/2+z
1/2+x,-y,1/2+z
loop_
_atom_site_type_symbol
_atom_site_label
_atom_site_fract_x
_atom_site_fract_y
_atom_site_fract_z
Si Si1 0.399616 0.918036 0.470593
Si Si2 0.401434 0.501570 0.249277
Si Si3 0.152382 0.181530 0.786589
Si Si4 0.774133 0.942867 0.582727
Si Si5 0.404653 0.614374 0.077487
O O1 0.500000 0.917865 0.521718
O O2 0.384194 0.976568 0.386205
O O3 0.384473 0.857495 0.396340
O O4 0.329995 0.922670 0.582409
O O5 0.500000 0.472926 0.236971
O O6 0.321136 0.456309 0.212314
O O7 0.394847 0.559211 0.167355
O O8 0.148004 0.250000 0.828144
O O9 0.250000 0.159882 0.750000
O O10 0.098049 0.172743 0.662791
O O11 0.828390 0.887714 0.523090
O O12 0.790849 0.000000 0.500000
O O13 0.500000 0.612563 0.011759
#
# Coordination Sequence:
#
# PCOD8297525 Si02
#       5
#    16  16  16  16  16
#     4  10  20  33  47  67  95 127 165 195 229 277
#     4   8  16  29  46  65  86 118 158 197 232 276
#     4  10  18  29  45  63  89 124 161 191 226 274
#     4  10  18  28  46  63  89 119 158 194 239 271
#     4   9  16  26  41  61  83 109 150 190 224 262
#
# _framework density 21.260598000000002
#
# number of rings (size 3 to 8) (size 9 to 14) (size 15 to 20)
#    0.000    2.600    2.000    2.400    0.000    4.400 
#    0.000    0.000    0.000    2.400    0.000    0.000 
#    0.000    0.000    0.000   64.800    0.000  238.800 
#
# Total GULP energy -495592.635797 kJ/mol
# GULP energy per Si atom -12389.815895 kJ/mol
# Density = 2.121221 g / cm^3
# Si number density = 21.260598 Si / 1000 Ang^3
#
#
#
# Elastic Constant Matrix: (Units=GPa)
#
#
# Indices 1 2 3 4 5 6 
#
# 1 201.6950 32.7791 56.8641 0.0000 0.0000 0.0000
# 2 32.7791 52.4809 23.3301 -0.0001 0.0000 0.0000
# 3 56.8641 23.3301 76.1006 -0.0004 0.0000 0.0000
# 4 0.0000 -0.0001 -0.0004 18.7431 0.0000 0.0000
# 5 0.0000 0.0000 0.0000 0.0000 22.4689 0.0000
# 6 0.0000 0.0000 0.0000 0.0000 0.0000 22.7068
#
#
#
# Elastic Compliance Matrix: (Units=1/GPa)
#
#
# Indices 1 2 3 4 5 6 
#
# 1 0.006493 -0.002198 -0.004178 0.000000 0.000000 0.000000
# 2 -0.002198 0.022805 -0.005349 0.000000 0.000000 0.000000
# 3 -0.004178 -0.005349 0.017902 0.000000 0.000000 0.000000
# 4 0.000000 0.000000 0.000000 0.053353 0.000000 0.000000
# 5 0.000000 0.000000 0.000000 0.000000 0.044506 0.000000
# 6 0.000000 0.000000 0.000000 0.000000 0.000000 0.044040
#
#
# Mechanical properties :
#
#
# Convention : Reuss Voigt Hill
#
# Bulk Modulus (GPa) = 42.10416 61.80255 51.95335
# Shear Modulus (GPa) = 22.67923 27.27064 24.97493
#
# Velocity S-wave (km/s) = 3.26962 3.58534 3.43112
# Velocity P-wave (km/s) = 5.83958 6.80233 6.33926
#
# Compressibility (1/GPa) = 0.02375062
#
# Stress axis : x y z
#
# Youngs Moduli (GPa) = 154.00926 43.84934 55.85947
#
# Poissons Ratio (x) = 0.09639 0.23337
# Poissons Ratio (y) = 0.33856 0.29878
# Poissons Ratio (z) = 0.64343 0.23454
#
# Static dielectric constant tensor:
#      x y z
#    x 4.318700 0.000000 0.000000 
#    y 0.000000 3.430910 0.000000 
#    z 0.000000 0.000000 3.878870 
# 
# 
# High freq. dielectric constant tensor:
#      x y z
#    x 1.870020 0.000000 0.000000 
#    y 0.000000 1.770880 0.000000 
#    z 0.000000 0.000000 1.814950 
# 
# From -- ./inp_files/20491.got.cif
#   From: 2010.03.12/outbox.cif.g09.slc.cpg/sg74_11_cif.got.tgz:20491.got - 2010.04.16 15:46:19.
