data_PCOD8297809
_publ_section_title
;
Structure prediction by ZEFSAII (Michael W. Deem and Ramdas Pophale) SiO2 
 PCOD8297809
Probable space group: I M M A
;
_chemical_formula_sum "Si O2"
_cell_formula_units_Z 112
_cell_length_a 27.186166
_cell_length_b 13.792105
_cell_length_c 16.009219
_cell_angle_alpha 90.000000
_cell_angle_beta 90.000000
_cell_angle_gamma 90.000000
_cell_volume 6002.728001
_symmetry_space_group_name_H-M "I M M A"
_symmetry_group_IT_number 74
_symmetry_cell_setting 'orthorhombic'
loop_
_space_group_symop_operation_xyz
x,y,z
-x,1/2-y,z
x,-y,-z
-x,1/2+y,-z
-x,-y,-z
x,1/2+y,-z
-x,y,z
x,1/2-y,z
1/2+x,1/2+y,1/2+z
1/2-x,-y,1/2+z
1/2+x,1/2-y,1/2-z
1/2-x,y,1/2-z
1/2-x,1/2-y,1/2-z
1/2+x,y,1/2-z
1/2-x,1/2+y,1/2+z
1/2+x,-y,1/2+z
loop_
_atom_site_type_symbol
_atom_site_label
_atom_site_fract_x
_atom_site_fract_y
_atom_site_fract_z
Si Si1 0.445723 0.863042 0.158065
Si Si2 0.657828 0.635793 0.943212
Si Si3 0.250511 0.357236 0.347624
Si Si4 0.855070 0.364496 0.762989
Si Si5 0.289152 0.863006 0.108817
Si Si6 0.446948 0.634340 0.971202
Si Si7 0.810710 0.477414 0.908626
O O1 0.500000 0.880454 0.196787
O O2 0.433765 0.750000 0.147875
O O3 0.404916 0.905583 0.220769
O O4 0.443444 0.909473 0.065222
O O5 0.658519 0.750000 0.929496
O O6 0.699841 0.591767 0.881916
O O7 0.669994 0.608310 0.039478
O O8 0.602154 0.597964 0.921968
O O9 0.255964 0.250000 0.387593
O O10 0.250000 0.349753 0.250000
O O11 0.298316 0.417769 0.371287
O O12 0.857679 0.250000 0.781943
O O13 0.809375 0.388523 0.701162
O O14 0.849362 0.421638 0.850065
O O15 0.277360 0.750000 0.103655
O O16 0.238984 0.915726 0.086127
O O17 0.500000 0.601473 0.931164
O O18 0.446370 0.750000 0.976756
O O19 0.833314 0.500000 0.000000
#
# Coordination Sequence:
#
# PCOD8297809 Si02
#       7
#    16  16  16  16  16  16  16
#     4   8  13  23  42  70 103 134 157 182 231 302
#     4   9  15  26  45  68  97 130 164 197 239 286
#     4  10  21  36  50  64  89 130 179 217 241 280
#     4  10  19  31  50  76 105 130 159 198 247 305
#     4  10  18  31  49  72 101 131 157 195 247 302
#     4   8  12  20  39  70 104 132 157 187 233 300
#     4  12  23  33  47  68  97 129 166 207 250 298
#
# _framework density 18.658183000000001
#
# number of rings (size 3 to 8) (size 9 to 14) (size 15 to 20)
#    0.000    2.429    2.857    2.571    0.000    1.714 
#    0.000    0.000    0.000    0.429    0.000    6.000 
#    0.000    1.714    0.000    0.571    0.000    0.143 
#
# Total GULP energy -693889.533654 kJ/mol
# GULP energy per Si atom -12390.884530 kJ/mol
# Density = 1.861572 g / cm^3
# Si number density = 18.658183 Si / 1000 Ang^3
#
#
#
# Elastic Constant Matrix: (Units=GPa)
#
#
# Indices 1 2 3 4 5 6 
#
# 1 79.1862 9.9705 21.4733 0.0000 0.0000 0.0000
# 2 9.9705 24.3059 16.0626 0.0000 0.0000 0.0000
# 3 21.4733 16.0626 81.0680 0.0000 0.0000 0.0000
# 4 0.0000 0.0000 0.0000 17.1395 0.0000 0.0000
# 5 0.0000 0.0000 0.0000 0.0000 25.0635 0.0000
# 6 0.0000 0.0000 0.0000 0.0000 0.0000 11.6289
#
#
#
# Elastic Compliance Matrix: (Units=1/GPa)
#
#
# Indices 1 2 3 4 5 6 
#
# 1 0.013898 -0.003761 -0.002936 0.000000 0.000000 0.000000
# 2 -0.003761 0.048359 -0.008585 0.000000 0.000000 0.000000
# 3 -0.002936 -0.008585 0.014814 0.000000 0.000000 0.000000
# 4 0.000000 0.000000 0.000000 0.058345 0.000000 0.000000
# 5 0.000000 0.000000 0.000000 0.000000 0.039899 0.000000
# 6 0.000000 0.000000 0.000000 0.000000 0.000000 0.085993
#
#
# Mechanical properties :
#
#
# Convention : Reuss Voigt Hill
#
# Bulk Modulus (GPa) = 21.50253 31.06364 26.28309
# Shear Modulus (GPa) = 16.26682 19.90329 18.08506
#
# Velocity S-wave (km/s) = 2.95588 3.26963 3.11671
# Velocity P-wave (km/s) = 4.81655 5.56228 5.20279
#
# Compressibility (1/GPa) = 0.04650615
#
# Stress axis : x y z
#
# Youngs Moduli (GPa) = 71.95163 20.67878 67.50297
#
# Poissons Ratio (x) = 0.07777 0.19820
# Poissons Ratio (y) = 0.27060 0.57955
# Poissons Ratio (z) = 0.21126 0.17754
#
# Static dielectric constant tensor:
#      x y z
#    x 3.584650 0.000000 0.000000 
#    y 0.000000 3.506980 0.000000 
#    z 0.000000 0.000000 3.308720 
# 
# 
# High freq. dielectric constant tensor:
#      x y z
#    x 1.707730 0.000000 0.000000 
#    y 0.000000 1.727300 0.000000 
#    z 0.000000 0.000000 1.687290 
# 
# From -- ./inp_files/37954.got.cif
#   From: 2010.03.12/outbox.cif.g09.slc.cpg/sg74_19_cif.got.tgz:37954.got - 2010.04.16 15:46:19.
