data_PCOD8297765
_publ_section_title
;
Structure prediction by ZEFSAII (Michael W. Deem and Ramdas Pophale) SiO2 
 PCOD8297765
Probable space group: I M M A
;
_chemical_formula_sum "Si O2"
_cell_formula_units_Z 104
_cell_length_a 8.892224
_cell_length_b 26.860723
_cell_length_c 23.001455
_cell_angle_alpha 90.000000
_cell_angle_beta 90.000000
_cell_angle_gamma 90.000000
_cell_volume 5493.933541
_symmetry_space_group_name_H-M "I M M A"
_symmetry_group_IT_number 74
_symmetry_cell_setting 'orthorhombic'
loop_
_space_group_symop_operation_xyz
x,y,z
-x,1/2-y,z
x,-y,-z
-x,1/2+y,-z
-x,-y,-z
x,1/2+y,-z
-x,y,z
x,1/2-y,z
1/2+x,1/2+y,1/2+z
1/2-x,-y,1/2+z
1/2+x,1/2-y,1/2-z
1/2-x,y,1/2-z
1/2-x,1/2-y,1/2-z
1/2+x,y,1/2-z
1/2-x,1/2+y,1/2+z
1/2+x,-y,1/2+z
loop_
_atom_site_type_symbol
_atom_site_label
_atom_site_fract_x
_atom_site_fract_y
_atom_site_fract_z
Si Si1 0.823456 0.345176 0.381118
Si Si2 0.177474 0.194568 0.505164
Si Si3 0.174700 0.944903 0.869114
Si Si4 0.821205 0.250000 0.312491
Si Si5 0.321379 0.951417 0.312636
Si Si6 0.676237 0.114929 0.906183
Si Si7 0.338217 0.554212 0.984309
O O1 0.773291 0.340018 0.449685
O O2 0.757612 0.394344 0.348946
O O3 0.759631 0.297654 0.347305
O O4 0.000000 0.346773 0.373733
O O5 0.250491 0.250000 0.502063
O O6 0.220516 0.169493 0.567675
O O7 0.000000 0.200385 0.501111
O O8 0.206974 0.947169 0.937390
O O9 0.000000 0.939311 0.856560
O O10 0.236038 0.995362 0.838350
O O11 0.750000 0.250000 0.250000
O O12 0.000000 0.250000 0.308010
O O13 0.500000 0.950584 0.308581
O O14 0.250000 0.944375 0.250000
O O15 0.269473 0.903500 0.350471
O O16 0.500000 0.111978 0.890705
O O17 0.724488 0.078975 0.958035
O O18 0.500000 0.579826 0.963490
O O19 0.386742 0.500000 0.000000
#
# Coordination Sequence:
#
# PCOD8297765 Si02
#       7
#    16  16  16   8  16  16  16
#     4  10  19  35  58  82 109 150 195 235 278 332
#     4   9  16  30  56  88 116 141 181 230 278 334
#     4  11  23  35  52  82 116 147 181 232 287 327
#     4  10  22  38  58  78 106 150 199 244 283 330
#     4  11  25  42  58  78 110 151 192 234 280 336
#     4  10  19  33  58  87 113 145 184 228 278 335
#     4  10  18  30  52  81 110 144 183 219 263 328
#
# _framework density 18.929969
#
# number of rings (size 3 to 8) (size 9 to 14) (size 15 to 20)
#    0.000    1.846    3.846    0.923    0.000    4.000 
#    0.000    3.077    0.000    1.846    0.000    0.000 
#    0.000    0.000    0.000    0.000    0.000    0.000 
#
# Total GULP energy -644195.309423 kJ/mol
# GULP energy per Si atom -12388.371335 kJ/mol
# Density = 1.888688 g / cm^3
# Si number density = 18.929969 Si / 1000 Ang^3
#
#
#
# Elastic Constant Matrix: (Units=GPa)
#
#
# Indices 1 2 3 4 5 6 
#
# 1 41.5607 22.6817 31.1544 0.0000 0.0000 0.0000
# 2 22.6817 94.1851 39.4499 0.0000 0.0000 0.0000
# 3 31.1544 39.4499 112.0560 0.0000 0.0000 0.0000
# 4 0.0000 0.0000 0.0000 23.1998 0.0000 0.0000
# 5 0.0000 0.0000 0.0000 0.0000 28.6576 0.0000
# 6 0.0000 0.0000 0.0000 0.0000 0.0000 22.2532
#
#
#
# Elastic Compliance Matrix: (Units=1/GPa)
#
#
# Indices 1 2 3 4 5 6 
#
# 1 0.032061 -0.004677 -0.007267 0.000000 0.000000 0.000000
# 2 -0.004677 0.013136 -0.003324 0.000000 0.000000 0.000000
# 3 -0.007267 -0.003324 0.012115 0.000000 0.000000 0.000000
# 4 0.000000 0.000000 0.000000 0.043104 0.000000 0.000000
# 5 0.000000 0.000000 0.000000 0.000000 0.034895 0.000000
# 6 0.000000 0.000000 0.000000 0.000000 0.000000 0.044937
#
#
# Mechanical properties :
#
#
# Convention : Reuss Voigt Hill
#
# Bulk Modulus (GPa) = 37.34812 48.26375 42.80594
# Shear Modulus (GPa) = 22.75719 25.12317 23.94018
#
# Velocity S-wave (km/s) = 3.47101 3.64698 3.56008
# Velocity P-wave (km/s) = 5.98634 6.57915 6.28973
#
# Compressibility (1/GPa) = 0.02677511
#
# Stress axis : x y z
#
# Youngs Moduli (GPa) = 31.19016 76.12593 82.54273
#
# Poissons Ratio (x) = 0.35605 0.59986
# Poissons Ratio (y) = 0.14588 0.27440
# Poissons Ratio (z) = 0.22667 0.25306
#
# Static dielectric constant tensor:
#      x y z
#    x 3.110560 0.000000 0.000000 
#    y 0.000000 3.969220 0.000000 
#    z 0.000000 0.000000 3.332510 
# 
# 
# High freq. dielectric constant tensor:
#      x y z
#    x 1.706220 0.000000 0.000000 
#    y 0.000000 1.749710 0.000000 
#    z 0.000000 0.000000 1.715900 
# 
# From -- ./inp_files/57593.got.cif
#   From: 2010.03.12/outbox.cif.g09.slc.cpg/sg74_29_cif.got.tgz:57593.got - 2010.04.16 15:46:19.
