data_PCOD8297710
_publ_section_title
;
Structure prediction by ZEFSAII (Michael W. Deem and Ramdas Pophale) SiO2 
 PCOD8297710
Probable space group: I M M A
;
_chemical_formula_sum "Si O2"
_cell_formula_units_Z 96
_cell_length_a 23.583526
_cell_length_b 9.180883
_cell_length_c 25.016123
_cell_angle_alpha 90.000000
_cell_angle_beta 90.000000
_cell_angle_gamma 90.000000
_cell_volume 5416.430736
_symmetry_space_group_name_H-M "I M M A"
_symmetry_group_IT_number 74
_symmetry_cell_setting 'orthorhombic'
loop_
_space_group_symop_operation_xyz
x,y,z
-x,1/2-y,z
x,-y,-z
-x,1/2+y,-z
-x,-y,-z
x,1/2+y,-z
-x,y,z
x,1/2-y,z
1/2+x,1/2+y,1/2+z
1/2-x,-y,1/2+z
1/2+x,1/2-y,1/2-z
1/2-x,y,1/2-z
1/2-x,1/2-y,1/2-z
1/2+x,y,1/2-z
1/2-x,1/2+y,1/2+z
1/2+x,-y,1/2+z
loop_
_atom_site_type_symbol
_atom_site_label
_atom_site_fract_x
_atom_site_fract_y
_atom_site_fract_z
Si Si1 0.680770 0.577442 0.444608
Si Si2 0.065920 0.419481 0.252527
Si Si3 0.310714 0.918982 0.053215
Si Si4 0.637477 0.920536 0.650932
Si Si5 0.240091 0.905579 0.689783
Si Si6 0.636253 0.919267 0.162260
O O1 0.666383 0.500000 0.500000
O O2 0.672819 0.750000 0.449684
O O3 0.746493 0.537093 0.428885
O O4 0.633117 0.514809 0.403395
O O5 0.079965 0.250000 0.259441
O O6 0.096670 0.477825 0.198645
O O7 0.086213 0.496238 0.307241
O O8 0.000000 0.451234 0.245272
O O9 0.311913 0.750000 0.039865
O O10 0.356941 0.957981 0.099230
O O11 0.330442 0.000000 0.000000
O O12 0.625846 0.750000 0.639760
O O13 0.701327 0.957225 0.665757
O O14 0.219526 0.750000 0.663247
O O15 0.250000 0.866794 0.750000
O O16 0.195939 0.036447 0.687429
O O17 0.625351 0.750000 0.171236
#
# Coordination Sequence:
#
# PCOD8297710 Si02
#       6
#    16  16  16  16  16  16
#     4  10  19  32  49  75 110 144 175 208 254 313
#     4  10  22  40  58  76 101 138 183 223 263 315
#     4   9  19  32  47  73 107 141 172 205 250 305
#     4  10  19  32  52  77 105 138 174 216 261 309
#     4  10  18  30  48  74 106 139 174 207 254 317
#     4  11  21  33  51  78 111 138 170 215 265 316
#
# _framework density 17.723848
#
# number of rings (size 3 to 8) (size 9 to 14) (size 15 to 20)
#    0.000    2.000    3.333    1.000    0.000    3.333 
#    0.000    0.000    0.000    1.000    0.000    0.000 
#    0.000    0.000    0.000    0.000    0.000    0.000 
#
# Total GULP energy -594727.710064 kJ/mol
# GULP energy per Si atom -12390.160626 kJ/mol
# Density = 1.768351 g / cm^3
# Si number density = 17.723848 Si / 1000 Ang^3
#
#
#
# Elastic Constant Matrix: (Units=GPa)
#
#
# Indices 1 2 3 4 5 6 
#
# 1 53.6870 35.9732 46.1085 0.0000 0.0000 0.0000
# 2 35.9732 67.3789 62.1028 0.0000 0.0000 0.0000
# 3 46.1085 62.1028 130.3759 0.0000 0.0000 0.0000
# 4 0.0000 0.0000 0.0000 32.9247 0.0000 0.0000
# 5 0.0000 0.0000 0.0000 0.0000 11.7318 0.0000
# 6 0.0000 0.0000 0.0000 0.0000 0.0000 17.6304
#
#
#
# Elastic Compliance Matrix: (Units=1/GPa)
#
#
# Indices 1 2 3 4 5 6 
#
# 1 0.031068 -0.011516 -0.005502 0.000000 0.000000 0.000000
# 2 -0.011516 0.030726 -0.010563 0.000000 0.000000 0.000000
# 3 -0.005502 -0.010563 0.014648 0.000000 0.000000 0.000000
# 4 0.000000 0.000000 0.000000 0.030372 0.000000 0.000000
# 5 0.000000 0.000000 0.000000 0.000000 0.085239 0.000000
# 6 0.000000 0.000000 0.000000 0.000000 0.000000 0.056720
#
#
# Mechanical properties :
#
#
# Convention : Reuss Voigt Hill
#
# Bulk Modulus (GPa) = 46.99395 59.97898 53.48647
# Shear Modulus (GPa) = 16.07575 19.60786 17.84180
#
# Velocity S-wave (km/s) = 3.01493 3.32971 3.17622
# Velocity P-wave (km/s) = 6.22028 6.97832 6.61017
#
# Compressibility (1/GPa) = 0.02127933
#
# Stress axis : x y z
#
# Youngs Moduli (GPa) = 32.18731 32.54616 68.27077
#
# Poissons Ratio (x) = 0.37480 0.37563
# Poissons Ratio (y) = 0.37066 0.72115
# Poissons Ratio (z) = 0.17710 0.34379
#
# Static dielectric constant tensor:
#      x y z
#    x 2.982830 0.000000 0.000000 
#    y 0.000000 3.330110 0.000000 
#    z 0.000000 0.000000 3.508920 
# 
# 
# High freq. dielectric constant tensor:
#      x y z
#    x 1.639300 0.000000 0.000000 
#    y 0.000000 1.688610 0.000000 
#    z 0.000000 0.000000 1.694740 
# 
# From -- ./inp_files/57301.got.cif
#   From: 2010.03.12/outbox.cif.g09.slc.cpg/sg74_29_cif.got.tgz:57301.got - 2010.04.16 15:46:19.
