data_PCOD8297025
_publ_section_title
;
Structure prediction by ZEFSAII (Michael W. Deem and Ramdas Pophale) SiO2 
 PCOD8297025
Probable space group: I B C A 
;
_chemical_formula_sum "Si O2"
_cell_formula_units_Z 72
_cell_length_a 9.657224
_cell_length_b 20.094761
_cell_length_c 15.291761
_cell_angle_alpha 90.000000
_cell_angle_beta 90.000000
_cell_angle_gamma 90.000000
_cell_volume 2967.513148
_symmetry_space_group_name_H-M "I B C A "
_symmetry_group_IT_number 73
_symmetry_cell_setting 'orthorhombic'
loop_
_space_group_symop_operation_xyz
x,y,z
-x,1/2-y,z
x,-y,1/2-z
1/2-x,y,-z
-x,-y,-z
x,1/2+y,-z
-x,y,1/2+z
1/2+x,-y,z
1/2+x,1/2+y,1/2+z
1/2-x,-y,1/2+z
1/2+x,1/2-y,-z
-x,1/2+y,1/2-z
1/2-x,1/2-y,1/2-z
1/2+x,y,1/2-z
1/2-x,1/2+y,z
x,1/2-y,1/2+z
loop_
_atom_site_type_symbol
_atom_site_label
_atom_site_fract_x
_atom_site_fract_y
_atom_site_fract_z
Si Si1 0.872386 0.000000 0.250000
Si Si2 0.304535 0.113563 0.805648
Si Si3 0.525853 0.322314 0.187575
Si Si4 0.408325 0.187065 0.497003
Si Si5 0.001048 0.948607 0.421185
O O1 0.776491 0.936229 0.255794
O O2 0.959476 0.994935 0.338967
O O3 0.192982 0.172002 0.820358
O O4 0.449924 0.129742 0.757022
O O5 0.344795 0.079280 0.898449
O O6 0.500000 0.250000 0.225967
O O7 0.460162 0.332550 0.092895
O O8 0.500000 0.250000 0.460324
O O9 0.250000 0.211647 0.500000
O O10 0.413702 0.119308 0.439251
O O11 0.000000 0.000000 0.500000
#
# Coordination Sequence:
#
# PCOD8297025 Si02
#       5
#     8  16  16  16  16
#     4  12  26  50  72 116 154 208 266 326 400 484
#     4  12  26  48  77 113 160 206 265 333 403 481
#     4  11  26  48  79 114 158 207 271 325 405 488
#     4  11  28  50  78 115 160 205 266 327 400 477
#     4  12  29  48  83 116 161 210 268 334 404 474
#
# _framework density 24.262739
#
# number of rings (size 3 to 8) (size 9 to 14) (size 15 to 20)
#    0.000    0.444    2.222    4.000   12.444    2.667 
#    0.000    0.000    0.000    0.000    0.000    0.000 
#    0.000    0.000    0.000    0.000    0.000    0.000 
#
# Total GULP energy -446087.947857 kJ/mol
# GULP energy per Si atom -12391.331885 kJ/mol
# Density = 2.420752 g / cm^3
# Si number density = 24.262739 Si / 1000 Ang^3
#
#
#
# Elastic Constant Matrix: (Units=GPa)
#
#
# Indices 1 2 3 4 5 6 
#
# 1 176.3645 44.5664 47.5622 0.0000 0.0000 0.0000
# 2 44.5664 135.1921 47.5682 0.0000 0.0000 0.0000
# 3 47.5622 47.5682 137.1080 -0.0001 0.0001 0.0000
# 4 0.0000 0.0000 -0.0001 35.6128 0.0001 0.0000
# 5 0.0000 0.0000 0.0001 0.0001 65.8503 0.0000
# 6 0.0000 0.0000 0.0000 0.0000 0.0000 36.4624
#
#
#
# Elastic Compliance Matrix: (Units=1/GPa)
#
#
# Indices 1 2 3 4 5 6 
#
# 1 0.006526 -0.001543 -0.001729 0.000000 0.000000 0.000000
# 2 -0.001543 0.008790 -0.002514 0.000000 0.000000 0.000000
# 3 -0.001729 -0.002514 0.008765 0.000000 0.000000 0.000000
# 4 0.000000 0.000000 0.000000 0.028080 0.000000 0.000000
# 5 0.000000 0.000000 0.000000 0.000000 0.015186 0.000000
# 6 0.000000 0.000000 0.000000 0.000000 0.000000 0.027426
#
#
# Mechanical properties :
#
#
# Convention : Reuss Voigt Hill
#
# Bulk Modulus (GPa) = 79.93734 80.89535 80.41635
# Shear Modulus (GPa) = 45.24260 48.18296 46.71278
#
# Velocity S-wave (km/s) = 4.32290 4.46116 4.39257
# Velocity P-wave (km/s) = 7.61148 7.74272 7.67738
#
# Compressibility (1/GPa) = 0.01250980
#
# Stress axis : x y z
#
# Youngs Moduli (GPa) = 153.22906 113.76186 114.08403
#
# Poissons Ratio (x) = 0.17556 0.19720
# Poissons Ratio (y) = 0.23646 0.28685
# Poissons Ratio (z) = 0.26486 0.28604
#
# Static dielectric constant tensor:
#      x y z
#    x 4.480040 0.000000 0.000000 
#    y 0.000000 4.723520 0.000000 
#    z 0.000000 0.000000 4.312430 
# 
# 
# High freq. dielectric constant tensor:
#      x y z
#    x 1.968440 0.000000 0.000000 
#    y 0.000000 1.982350 0.000000 
#    z 0.000000 0.000000 1.961430 
# 
# From -- ./inp_files/20600.got.cif
#   From: 2010.03.12/outbox.cif.g09.slc.cpg/sg73_11_cif.got.tgz:20600.got - 2010.04.16 15:25:48.
