data_PCOD8297479
_publ_section_title
;
Structure prediction by ZEFSAII (Michael W. Deem and Ramdas Pophale) SiO2 
 PCOD8297479
Probable space group: I M M A
;
_chemical_formula_sum "Si O2"
_cell_formula_units_Z 96
_cell_length_a 28.094552
_cell_length_b 9.272329
_cell_length_c 28.325518
_cell_angle_alpha 90.000000
_cell_angle_beta 90.000000
_cell_angle_gamma 90.000000
_cell_volume 7378.852086
_symmetry_space_group_name_H-M "I M M A"
_symmetry_group_IT_number 74
_symmetry_cell_setting 'orthorhombic'
loop_
_space_group_symop_operation_xyz
x,y,z
-x,1/2-y,z
x,-y,-z
-x,1/2+y,-z
-x,-y,-z
x,1/2+y,-z
-x,y,z
x,1/2-y,z
1/2+x,1/2+y,1/2+z
1/2-x,-y,1/2+z
1/2+x,1/2-y,1/2-z
1/2-x,y,1/2-z
1/2-x,1/2-y,1/2-z
1/2+x,y,1/2-z
1/2-x,1/2+y,1/2+z
1/2+x,-y,1/2+z
loop_
_atom_site_type_symbol
_atom_site_label
_atom_site_fract_x
_atom_site_fract_y
_atom_site_fract_z
Si Si1 0.734387 0.086566 0.825129
Si Si2 0.000000 0.420858 0.307552
Si Si3 0.000000 0.084603 0.595114
Si Si4 0.176325 0.088819 0.771189
Si Si5 0.599766 0.579862 0.048630
Si Si6 0.899052 0.084709 0.276009
Si Si7 0.657077 0.082090 0.127741
O O1 0.734827 0.250000 0.845349
O O2 0.788359 0.034292 0.813027
O O3 0.704470 0.083846 0.777459
O O4 0.710452 0.976993 0.862250
O O5 0.953448 0.471288 0.278578
O O6 0.000000 0.250000 0.315234
O O7 0.000000 0.486482 0.359231
O O8 0.954249 0.048328 0.563697
O O9 0.000000 0.250000 0.611876
O O10 0.159784 0.250000 0.782861
O O11 0.128643 0.994662 0.766364
O O12 0.609639 0.750000 0.043734
O O13 0.635844 0.512578 0.086056
O O14 0.609874 0.500000 0.000000
O O15 0.897139 0.250000 0.261954
O O16 0.875866 0.057047 0.326873
O O17 0.659779 0.250000 0.113672
#
# Coordination Sequence:
#
# PCOD8297479 Si02
#       7
#    16   8   8  16  16  16  16
#     4   8  14  25  39  55  74  94 114 140 177 219
#     4  10  18  29  41  54  75 100 124 154 191 229
#     4  10  21  33  45  58  68  88 122 158 196 235
#     4   8  14  24  38  54  73  95 116 142 177 215
#     4  11  22  34  45  57  72  91 119 156 196 237
#     4   9  17  26  38  54  73  96 121 150 184 220
#     4  10  18  28  42  58  73  93 117 147 186 227
#
# _framework density 13.010153000000001
#
# number of rings (size 3 to 8) (size 9 to 14) (size 15 to 20)
#    0.000    2.667    1.667    2.250    0.000    2.667 
#    0.000    3.333    0.000    0.000    0.000    0.000 
#    0.000    0.000    0.000    0.000    0.000    0.000 
#
# Total GULP energy -594946.141418 kJ/mol
# GULP energy per Si atom -12394.711280 kJ/mol
# Density = 1.298054 g / cm^3
# Si number density = 13.010153 Si / 1000 Ang^3
#
#
#
# Elastic Constant Matrix: (Units=GPa)
#
#
# Indices 1 2 3 4 5 6 
#
# 1 84.2366 49.8753 40.5398 0.0000 0.0000 0.0000
# 2 49.8753 71.0635 34.4290 0.0000 0.0000 0.0000
# 3 40.5398 34.4290 38.2144 0.0000 0.0000 0.0000
# 4 0.0000 0.0000 0.0000 19.5397 0.0000 0.0000
# 5 0.0000 0.0000 0.0000 0.0000 -26.9998 0.0000
# 6 0.0000 0.0000 0.0000 0.0000 0.0000 21.8426
#
#
#
# Elastic Compliance Matrix: (Units=1/GPa)
#
#
# Indices 1 2 3 4 5 6 
#
# 1 0.027190 -0.009065 -0.020677 0.000000 0.000000 0.000000
# 2 -0.009065 0.027994 -0.015604 0.000000 0.000000 0.000000
# 3 -0.020677 -0.015604 0.062162 0.000000 0.000000 0.000000
# 4 0.000000 0.000000 0.000000 0.051178 0.000000 0.000000
# 5 0.000000 0.000000 0.000000 0.000000 -0.037037 0.000000
# 6 0.000000 0.000000 0.000000 0.000000 0.000000 0.045782
#
#
# Mechanical properties :
#
#
# Convention : Reuss Voigt Hill
#
# Bulk Modulus (GPa) = 37.51950 49.24475 43.38212
# Shear Modulus (GPa) = 18.06053 7.45453 12.75753
#
# Velocity S-wave (km/s) = 3.72988 2.39629 3.13482
# Velocity P-wave (km/s) = 6.88844 6.75200 6.82056
#
# Compressibility (1/GPa) = 0.02665281
#
# Stress axis : x y z
#
# Youngs Moduli (GPa) = 36.77846 35.72146 16.08694
#
# Poissons Ratio (x) = 0.32382 0.33263
# Poissons Ratio (y) = 0.33341 0.25103
# Poissons Ratio (z) = 0.76047 0.55741
#
# Static dielectric constant tensor:
#      x y z
#    x 2.920250 0.000000 0.000000 
#    y 0.000000 2.743240 0.000000 
#    z 0.000000 0.000000 2.335360 
# 
# 
# High freq. dielectric constant tensor:
#      x y z
#    x 1.486950 0.000000 0.000000 
#    y 0.000000 1.504740 0.000000 
#    z 0.000000 0.000000 1.443400 
# 
# From -- ./inp_files/74009.got.cif
#   From: 2010.03.12/outbox.cif.g09.slc.cpg/sg74_38_cif.got.tgz:74009.got - 2010.04.16 15:46:19.
