data_PCOD8297723
_publ_section_title
;
Structure prediction by ZEFSAII (Michael W. Deem and Ramdas Pophale) SiO2 
 PCOD8297723
Probable space group: I M M A
;
_chemical_formula_sum "Si O2"
_cell_formula_units_Z 96
_cell_length_a 21.832320
_cell_length_b 17.791057
_cell_length_c 13.624172
_cell_angle_alpha 90.000000
_cell_angle_beta 90.000000
_cell_angle_gamma 90.000000
_cell_volume 5291.901563
_symmetry_space_group_name_H-M "I M M A"
_symmetry_group_IT_number 74
_symmetry_cell_setting 'orthorhombic'
loop_
_space_group_symop_operation_xyz
x,y,z
-x,1/2-y,z
x,-y,-z
-x,1/2+y,-z
-x,-y,-z
x,1/2+y,-z
-x,y,z
x,1/2-y,z
1/2+x,1/2+y,1/2+z
1/2-x,-y,1/2+z
1/2+x,1/2-y,1/2-z
1/2-x,y,1/2-z
1/2-x,1/2-y,1/2-z
1/2+x,y,1/2-z
1/2-x,1/2+y,1/2+z
1/2+x,-y,1/2+z
loop_
_atom_site_type_symbol
_atom_site_label
_atom_site_fract_x
_atom_site_fract_y
_atom_site_fract_z
Si Si1 0.127434 0.837556 0.810366
Si Si2 0.881954 0.916094 0.476958
Si Si3 0.500000 0.162030 0.000190
Si Si4 0.000000 0.660766 0.725025
Si Si5 0.294617 0.608156 0.858994
Si Si6 0.736460 0.562937 0.139238
Si Si7 0.697908 0.333497 0.490612
O O1 0.130944 0.750000 0.782465
O O2 0.184788 0.878709 0.753610
O O3 0.135724 0.850787 0.927974
O O4 0.061191 0.870813 0.779067
O O5 0.940547 0.868626 0.443410
O O6 0.856692 0.883141 0.578795
O O7 0.830825 0.908516 0.391899
O O8 0.903176 0.000000 0.500000
O O9 0.500000 0.250000 0.992786
O O10 0.500000 0.133164 0.112651
O O11 0.000000 0.750000 0.731466
O O12 0.262363 0.526724 0.874932
O O13 0.249082 0.669489 0.904578
O O14 0.750000 0.587203 0.250000
O O15 0.788291 0.602955 0.071820
O O16 0.694751 0.250000 0.538968
#
# Coordination Sequence:
#
# PCOD8297723 Si02
#       7
#    16  16   8   8  16  16  16
#     4  10  18  30  49  77 108 133 160 198 253 310
#     4   9  19  32  49  74 103 133 165 203 250 301
#     4  11  19  31  51  74 103 133 162 201 251 305
#     4   9  18  29  47  76 106 134 158 194 250 311
#     4  10  18  31  52  78 103 129 162 204 257 311
#     4  10  21  36  52  72  99 137 178 213 249 289
#     4  10  20  31  48  73 101 133 167 207 251 299
#
# _framework density 18.140927000000001
#
# number of rings (size 3 to 8) (size 9 to 14) (size 15 to 20)
#    0.000    2.167    1.667    3.750    0.000    4.333 
#    0.000    0.000    0.000    1.000    0.000    7.000 
#    0.000    0.000    0.000    0.000    0.000    0.000 
#
# Total GULP energy -594886.076170 kJ/mol
# GULP energy per Si atom -12393.459920 kJ/mol
# Density = 1.809964 g / cm^3
# Si number density = 18.140927 Si / 1000 Ang^3
#
#
#
# Elastic Constant Matrix: (Units=GPa)
#
#
# Indices 1 2 3 4 5 6 
#
# 1 53.1263 25.7087 28.9531 0.0000 0.0000 0.0000
# 2 25.7087 60.6187 26.0021 0.0000 0.0000 0.0000
# 3 28.9531 26.0021 86.7837 0.0000 0.0000 0.0000
# 4 0.0000 0.0000 0.0000 24.7841 0.0000 0.0000
# 5 0.0000 0.0000 0.0000 0.0000 24.2359 0.0000
# 6 0.0000 0.0000 0.0000 0.0000 0.0000 19.9466
#
#
#
# Elastic Compliance Matrix: (Units=1/GPa)
#
#
# Indices 1 2 3 4 5 6 
#
# 1 0.026333 -0.008491 -0.006241 0.000000 0.000000 0.000000
# 2 -0.008491 0.021667 -0.003659 0.000000 0.000000 0.000000
# 3 -0.006241 -0.003659 0.014702 0.000000 0.000000 0.000000
# 4 0.000000 0.000000 0.000000 0.040348 0.000000 0.000000
# 5 0.000000 0.000000 0.000000 0.000000 0.041261 0.000000
# 6 0.000000 0.000000 0.000000 0.000000 0.000000 0.050134
#
#
# Mechanical properties :
#
#
# Convention : Reuss Voigt Hill
#
# Bulk Modulus (GPa) = 38.58143 40.20628 39.39386
# Shear Modulus (GPa) = 20.84477 21.78431 21.31454
#
# Velocity S-wave (km/s) = 3.39344 3.46907 3.43146
# Velocity P-wave (km/s) = 6.05538 6.18525 6.12066
#
# Compressibility (1/GPa) = 0.02591920
#
# Stress axis : x y z
#
# Youngs Moduli (GPa) = 37.97447 46.15272 68.02019
#
# Poissons Ratio (x) = 0.39188 0.42454
# Poissons Ratio (y) = 0.32244 0.24890
# Poissons Ratio (z) = 0.23701 0.16888
#
# Static dielectric constant tensor:
#      x y z
#    x 3.420190 0.000000 0.000000 
#    y 0.000000 3.154760 0.000000 
#    z 0.000000 0.000000 3.278650 
# 
# 
# High freq. dielectric constant tensor:
#      x y z
#    x 1.696090 0.000000 0.000000 
#    y 0.000000 1.688730 0.000000 
#    z 0.000000 0.000000 1.681960 
# 
# From -- ./inp_files/25226.got.cif
#   From: 2010.03.12/outbox.cif.g09.slc.cpg/sg74_13_cif.got.tgz:25226.got - 2010.04.16 15:46:19.
