data_PCOD8297993
_publ_section_title
;
Structure prediction by ZEFSAII (Michael W. Deem and Ramdas Pophale) SiO2 
 PCOD8297993
Probable space group: I M M A
;
_chemical_formula_sum "Si O2"
_cell_formula_units_Z 120
_cell_length_a 8.867568
_cell_length_b 26.799898
_cell_length_c 27.938019
_cell_angle_alpha 90.000000
_cell_angle_beta 90.000000
_cell_angle_gamma 90.000000
_cell_volume 6639.467922
_symmetry_space_group_name_H-M "I M M A"
_symmetry_group_IT_number 74
_symmetry_cell_setting 'orthorhombic'
loop_
_space_group_symop_operation_xyz
x,y,z
-x,1/2-y,z
x,-y,-z
-x,1/2+y,-z
-x,-y,-z
x,1/2+y,-z
-x,y,z
x,1/2-y,z
1/2+x,1/2+y,1/2+z
1/2-x,-y,1/2+z
1/2+x,1/2-y,1/2-z
1/2-x,y,1/2-z
1/2-x,1/2-y,1/2-z
1/2+x,y,1/2-z
1/2-x,1/2+y,1/2+z
1/2+x,-y,1/2+z
loop_
_atom_site_type_symbol
_atom_site_label
_atom_site_fract_x
_atom_site_fract_y
_atom_site_fract_z
Si Si1 0.323093 0.945373 0.133054
Si Si2 0.818924 0.250000 0.802630
Si Si3 0.678999 0.350658 0.802040
Si Si4 0.677964 0.952974 0.649020
Si Si5 0.174239 0.192990 0.391690
Si Si6 0.674975 0.866042 0.797732
Si Si7 0.676253 0.107389 0.443502
Si Si8 0.321871 0.550860 0.023883
O O1 0.500000 0.956449 0.135031
O O2 0.281513 0.895545 0.161996
O O3 0.266435 0.941593 0.078241
O O4 0.236831 0.991268 0.157354
O O5 0.750000 0.250000 0.750000
O O6 0.753862 0.300970 0.826066
O O7 0.000000 0.250000 0.803093
O O8 0.500000 0.343102 0.796338
O O9 0.750000 0.362123 0.750000
O O10 0.500000 0.951245 0.654578
O O11 0.750036 0.918914 0.689852
O O12 0.729607 0.932182 0.597020
O O13 0.222801 0.250000 0.395731
O O14 0.207210 0.174937 0.338066
O O15 0.276699 0.162919 0.428733
O O16 0.000000 0.184508 0.404972
O O17 0.500000 0.875343 0.789414
O O18 0.750000 0.844374 0.750000
O O19 0.500000 0.104781 0.451468
O O20 0.756912 0.096432 0.493470
O O21 0.500000 0.552042 0.021008
O O22 0.258325 0.500000 0.000000
#
# Coordination Sequence:
#
# PCOD8297993 Si02
#       8
#    16   8  16  16  16  16  16  16
#     4  10  21  35  53  80 109 140 177 220 262 308
#     4  10  18  32  56  80 102 132 172 208 250 300
#     4  10  20  35  55  79 108 138 174 213 256 305
#     4  10  20  33  50  73 104 140 176 213 261 319
#     4   9  19  36  57  78 101 136 182 226 269 323
#     4  10  20  34  52  74 104 139 178 223 271 322
#     4  10  20  33  52  79 107 136 172 218 271 320
#     4  10  19  33  56  80 105 139 180 218 259 311
#
# _framework density 18.073737000000001
#
# number of rings (size 3 to 8) (size 9 to 14) (size 15 to 20)
#    0.000    2.133    1.333    3.000    0.000    4.533 
#    0.000    1.333    1.467    0.000    0.000    0.000 
#    0.000    0.000    0.000    0.000    0.000    0.000 
#
# Total GULP energy -744077.315535 kJ/mol
# GULP energy per Si atom -12401.288592 kJ/mol
# Density = 1.803260 g / cm^3
# Si number density = 18.073737 Si / 1000 Ang^3
#
#
#
# Elastic Constant Matrix: (Units=GPa)
#
#
# Indices 1 2 3 4 5 6 
#
# 1 50.9612 35.1551 20.5946 0.0000 0.0000 0.0000
# 2 35.1551 124.1246 38.1526 0.0000 0.0000 0.0000
# 3 20.5946 38.1526 75.3180 0.0000 0.0000 0.0000
# 4 0.0000 0.0000 0.0000 18.0997 0.0000 0.0000
# 5 0.0000 0.0000 0.0000 0.0000 27.3162 0.0000
# 6 0.0000 0.0000 0.0000 0.0000 0.0000 25.2752
#
#
#
# Elastic Compliance Matrix: (Units=1/GPa)
#
#
# Indices 1 2 3 4 5 6 
#
# 1 0.025318 -0.005973 -0.003897 0.000000 0.000000 0.000000
# 2 -0.005973 0.010951 -0.003914 0.000000 0.000000 0.000000
# 3 -0.003897 -0.003914 0.016325 0.000000 0.000000 0.000000
# 4 0.000000 0.000000 0.000000 0.055250 0.000000 0.000000
# 5 0.000000 0.000000 0.000000 0.000000 0.036608 0.000000
# 6 0.000000 0.000000 0.000000 0.000000 0.000000 0.039564
#
#
# Mechanical properties :
#
#
# Convention : Reuss Voigt Hill
#
# Bulk Modulus (GPa) = 39.95825 48.68981 44.32403
# Shear Modulus (GPa) = 22.73478 24.57168 23.65323
#
# Velocity S-wave (km/s) = 3.55052 3.69117 3.62153
# Velocity P-wave (km/s) = 6.24217 6.72044 6.48572
#
# Compressibility (1/GPa) = 0.02502612
#
# Stress axis : x y z
#
# Youngs Moduli (GPa) = 39.49758 91.31451 61.25402
#
# Poissons Ratio (x) = 0.54540 0.23873
# Poissons Ratio (y) = 0.23591 0.23976
# Poissons Ratio (z) = 0.15393 0.35742
#
# Static dielectric constant tensor:
#      x y z
#    x 3.303120 0.000000 0.000000 
#    y 0.000000 3.491190 0.000000 
#    z 0.000000 0.000000 3.322590 
# 
# 
# High freq. dielectric constant tensor:
#      x y z
#    x 1.705840 0.000000 0.000000 
#    y 0.000000 1.699200 0.000000 
#    z 0.000000 0.000000 1.683240 
# 
# From -- ./inp_files/65042.got.cif
#   From: 2010.03.12/outbox.cif.g09.slc.cpg/sg74_33_cif.got.tgz:65042.got - 2010.04.16 15:46:19.
