data_PCOD8297991
_publ_section_title
;
Structure prediction by ZEFSAII (Michael W. Deem and Ramdas Pophale) SiO2 
 PCOD8297991
Probable space group: I M M A
;
_chemical_formula_sum "Si O2"
_cell_formula_units_Z 80
_cell_length_a 15.888827
_cell_length_b 16.252711
_cell_length_c 16.837289
_cell_angle_alpha 90.000000
_cell_angle_beta 90.000000
_cell_angle_gamma 90.000000
_cell_volume 4348.002806
_symmetry_space_group_name_H-M "I M M A"
_symmetry_group_IT_number 74
_symmetry_cell_setting 'orthorhombic'
loop_
_space_group_symop_operation_xyz
x,y,z
-x,1/2-y,z
x,-y,-z
-x,1/2+y,-z
-x,-y,-z
x,1/2+y,-z
-x,y,z
x,1/2-y,z
1/2+x,1/2+y,1/2+z
1/2-x,-y,1/2+z
1/2+x,1/2-y,1/2-z
1/2-x,y,1/2-z
1/2-x,1/2-y,1/2-z
1/2+x,y,1/2-z
1/2-x,1/2+y,1/2+z
1/2+x,-y,1/2+z
loop_
_atom_site_type_symbol
_atom_site_label
_atom_site_fract_x
_atom_site_fract_y
_atom_site_fract_z
Si Si1 0.756064 0.750000 0.342700
Si Si2 0.272081 0.572987 0.841678
Si Si3 0.648175 0.085100 0.477144
Si Si4 0.187501 0.408841 0.581922
Si Si5 0.905338 0.155856 0.439915
Si Si6 0.592657 0.250000 0.548450
O O1 0.750000 0.750000 0.250000
O O2 0.811706 0.828336 0.364482
O O3 0.663973 0.750000 0.384028
O O4 0.250000 0.580698 0.750000
O O5 0.182874 0.583905 0.887015
O O6 0.320545 0.487439 0.860957
O O7 0.339392 0.642043 0.868122
O O8 0.726554 0.083614 0.535332
O O9 0.596727 0.168756 0.492468
O O10 0.597365 0.000000 0.500000
O O11 0.113874 0.402456 0.516015
O O12 0.894586 0.250000 0.467637
O O13 0.000000 0.137783 0.410255
O O14 0.500000 0.250000 0.588811
#
# Coordination Sequence:
#
# PCOD8297991 Si02
#       6
#     8  16  16  16  16   8
#     4  10  18  32  56  79 108 137 169 218 272 318
#     4  10  20  33  54  81 110 140 181 221 273 325
#     4   8  17  33  53  75 100 137 182 220 253 314
#     4   9  17  33  55  79 104 140 183 218 260 324
#     4  10  20  35  55  81 111 145 186 228 271 321
#     4  10  20  34  53  75 100 137 182 216 262 314
#
# _framework density 18.399252000000001
#
# number of rings (size 3 to 8) (size 9 to 14) (size 15 to 20)
#    0.000    2.600    1.000    2.400    4.200    2.400 
#    0.000    2.000    0.000   12.000    0.000    0.000 
#    0.000    0.000    0.000    0.000    0.000    0.000 
#
# Total GULP energy -495667.348527 kJ/mol
# GULP energy per Si atom -12391.683713 kJ/mol
# Density = 1.835737 g / cm^3
# Si number density = 18.399252 Si / 1000 Ang^3
#
#
#
# Elastic Constant Matrix: (Units=GPa)
#
#
# Indices 1 2 3 4 5 6 
#
# 1 73.8524 25.3200 29.6985 0.0000 0.0000 0.0000
# 2 25.3200 109.5386 29.3768 0.0000 0.0000 0.0000
# 3 29.6985 29.3768 129.8855 0.0000 0.0000 0.0000
# 4 0.0000 0.0000 0.0000 19.3262 0.0000 0.0000
# 5 0.0000 0.0000 0.0000 0.0000 14.1850 0.0000
# 6 0.0000 0.0000 0.0000 0.0000 0.0000 -3.7659
#
#
#
# Elastic Compliance Matrix: (Units=1/GPa)
#
#
# Indices 1 2 3 4 5 6 
#
# 1 0.015699 -0.002838 -0.002948 0.000000 0.000000 0.000000
# 2 -0.002838 0.010232 -0.001665 0.000000 0.000000 0.000000
# 3 -0.002948 -0.001665 0.008750 0.000000 0.000000 0.000000
# 4 0.000000 0.000000 0.000000 0.051743 0.000000 0.000000
# 5 0.000000 0.000000 0.000000 0.000000 0.070497 0.000000
# 6 0.000000 0.000000 0.000000 0.000000 0.000000 -0.265542
#
#
# Mechanical properties :
#
#
# Convention : Reuss Voigt Hill
#
# Bulk Modulus (GPa) = 50.56067 53.56300 52.06183
# Shear Modulus (GPa) = -57.38789 21.20780 -18.09004
#
# Velocity S-wave (km/s) = -5.59089 3.39875 -3.13900
# Velocity P-wave (km/s) = 3.76005 6.67658 3.90120
#
# Compressibility (1/GPa) = 0.01977822
#
# Stress axis : x y z
#
# Youngs Moduli (GPa) = 63.69838 97.73384 114.28970
#
# Poissons Ratio (x) = 0.27740 0.33688
# Poissons Ratio (y) = 0.18080 0.19031
# Poissons Ratio (z) = 0.18776 0.16275
#
# Static dielectric constant tensor:
#      x y z
#    x 3.179930 0.000000 0.000000 
#    y 0.000000 3.877440 0.000000 
#    z 0.000000 0.000000 3.279450 
# 
# 
# High freq. dielectric constant tensor:
#      x y z
#    x 1.682230 0.000000 0.000000 
#    y 0.000000 1.738990 0.000000 
#    z 0.000000 0.000000 1.688150 
# 
# From -- ./inp_files/34001.got.cif
#   From: 2010.03.12/outbox.cif.g09.slc.cpg/sg74_18_cif.got.tgz:34001.got - 2010.04.16 15:46:19.
