data_PCOD8297347
_publ_section_title
;
Structure prediction by ZEFSAII (Michael W. Deem and Ramdas Pophale) SiO2 
 PCOD8297347
Probable space group: I M M A
;
_chemical_formula_sum "Si O2"
_cell_formula_units_Z 80
_cell_length_a 10.248705
_cell_length_b 21.865653
_cell_length_c 23.425410
_cell_angle_alpha 90.000000
_cell_angle_beta 90.000000
_cell_angle_gamma 90.000000
_cell_volume 5249.508522
_symmetry_space_group_name_H-M "I M M A"
_symmetry_group_IT_number 74
_symmetry_cell_setting 'orthorhombic'
loop_
_space_group_symop_operation_xyz
x,y,z
-x,1/2-y,z
x,-y,-z
-x,1/2+y,-z
-x,-y,-z
x,1/2+y,-z
-x,y,z
x,1/2-y,z
1/2+x,1/2+y,1/2+z
1/2-x,-y,1/2+z
1/2+x,1/2-y,1/2-z
1/2-x,y,1/2-z
1/2-x,1/2-y,1/2-z
1/2+x,y,1/2-z
1/2-x,1/2+y,1/2+z
1/2+x,-y,1/2+z
loop_
_atom_site_type_symbol
_atom_site_label
_atom_site_fract_x
_atom_site_fract_y
_atom_site_fract_z
Si Si1 0.855171 0.067591 0.525394
Si Si2 0.750000 0.025112 0.250000
Si Si3 0.260906 0.622094 0.917347
Si Si4 0.500000 0.180171 0.140505
Si Si5 0.000000 0.177886 0.128437
Si Si6 0.000000 0.107772 0.242145
Si Si7 0.155754 0.495498 0.634179
O O1 0.765757 0.110989 0.486126
O O2 0.000000 0.096120 0.524884
O O3 0.860898 0.000000 0.500000
O O4 0.804820 0.059887 0.591004
O O5 0.871754 0.067346 0.233458
O O6 0.789303 0.980912 0.302774
O O7 0.373056 0.668471 0.897775
O O8 0.123135 0.650951 0.904073
O O9 0.277878 0.558471 0.884636
O O10 0.500000 0.250000 0.161183
O O11 0.500000 0.137070 0.195580
O O12 0.000000 0.160758 0.195006
O O13 0.000000 0.250000 0.123413
O O14 0.000000 0.504845 0.634464
#
# Coordination Sequence:
#
# PCOD8297347 Si02
#       7
#    16   8  16   8   8   8  16
#     4   8  15  28  51  70  83 108 149 195 236 276
#     4  12  18  30  49  66  92 126 153 192 222 270
#     4  11  18  34  47  65  87 116 156 199 239 273
#     4  12  21  32  50  65  81 119 177 210 223 254
#     4  12  25  34  42  61  95 131 157 198 243 262
#     4  12  21  34  44  58  92 126 168 198 229 254
#     4  10  17  30  50  71  89 117 153 190 235 274
#
# _framework density 15.239523
#
# number of rings (size 3 to 8) (size 9 to 14) (size 15 to 20)
#    0.000    1.400    7.000    2.100    0.000    0.000 
#    0.000    8.500    0.000    0.000    0.000    0.000 
#    0.000    0.000    0.000    5.400    0.000    0.000 
#
# Total GULP energy -495809.440126 kJ/mol
# GULP energy per Si atom -12395.236003 kJ/mol
# Density = 1.520484 g / cm^3
# Si number density = 15.239523 Si / 1000 Ang^3
#
#
#
# Elastic Constant Matrix: (Units=GPa)
#
#
# Indices 1 2 3 4 5 6 
#
# 1 110.5195 30.0092 49.7676 0.0000 0.0000 0.0000
# 2 30.0092 33.1761 44.5564 0.0000 0.0000 0.0000
# 3 49.7676 44.5564 138.8117 0.0000 0.0000 0.0000
# 4 0.0000 0.0000 0.0000 16.5878 0.0000 0.0000
# 5 0.0000 0.0000 0.0000 0.0000 22.8036 0.0000
# 6 0.0000 0.0000 0.0000 0.0000 0.0000 47.6379
#
#
#
# Elastic Compliance Matrix: (Units=1/GPa)
#
#
# Indices 1 2 3 4 5 6 
#
# 1 0.012159 -0.009042 -0.001457 0.000000 0.000000 0.000000
# 2 -0.009042 0.059706 -0.015923 0.000000 0.000000 0.000000
# 3 -0.001457 -0.015923 0.012838 0.000000 0.000000 0.000000
# 4 0.000000 0.000000 0.000000 0.060285 0.000000 0.000000
# 5 0.000000 0.000000 0.000000 0.000000 0.043853 0.000000
# 6 0.000000 0.000000 0.000000 0.000000 0.000000 0.020992
#
#
# Mechanical properties :
#
#
# Convention : Reuss Voigt Hill
#
# Bulk Modulus (GPa) = 31.38833 59.01931 45.20382
# Shear Modulus (GPa) = 18.29523 27.95081 23.12302
#
# Velocity S-wave (km/s) = 3.46860 4.28729 3.89949
# Velocity P-wave (km/s) = 6.05665 7.95736 7.07116
#
# Compressibility (1/GPa) = 0.03185898
#
# Stress axis : x y z
#
# Youngs Moduli (GPa) = 82.24069 16.74883 77.89673
#
# Poissons Ratio (x) = 0.15144 0.11352
# Poissons Ratio (y) = 0.74358 1.24035
# Poissons Ratio (z) = 0.11985 0.26669
#
# Static dielectric constant tensor:
#      x y z
#    x 2.907830 0.000000 0.000000 
#    y 0.000000 2.611380 0.000000 
#    z 0.000000 0.000000 3.377210 
# 
# 
# High freq. dielectric constant tensor:
#      x y z
#    x 1.585350 0.000000 0.000000 
#    y 0.000000 1.529090 0.000000 
#    z 0.000000 0.000000 1.592400 
# 
# From -- ./inp_files/57452.got.cif
#   From: 2010.03.12/outbox.cif.g09.slc.cpg/sg74_29_cif.got.tgz:57452.got - 2010.04.16 15:46:19.
