data_PCOD8297867
_publ_section_title
;
Structure prediction by ZEFSAII (Michael W. Deem and Ramdas Pophale) SiO2 
 PCOD8297867
Probable space group: I M M A
;
_chemical_formula_sum "Si O2"
_cell_formula_units_Z 112
_cell_length_a 14.241584
_cell_length_b 28.743672
_cell_length_c 11.567480
_cell_angle_alpha 90.000000
_cell_angle_beta 90.000000
_cell_angle_gamma 90.000000
_cell_volume 4735.210625
_symmetry_space_group_name_H-M "I M M A"
_symmetry_group_IT_number 74
_symmetry_cell_setting 'orthorhombic'
loop_
_space_group_symop_operation_xyz
x,y,z
-x,1/2-y,z
x,-y,-z
-x,1/2+y,-z
-x,-y,-z
x,1/2+y,-z
-x,y,z
x,1/2-y,z
1/2+x,1/2+y,1/2+z
1/2-x,-y,1/2+z
1/2+x,1/2-y,1/2-z
1/2-x,y,1/2-z
1/2-x,1/2-y,1/2-z
1/2+x,y,1/2-z
1/2-x,1/2+y,1/2+z
1/2+x,-y,1/2+z
loop_
_atom_site_type_symbol
_atom_site_label
_atom_site_fract_x
_atom_site_fract_y
_atom_site_fract_z
Si Si1 0.393675 0.050330 0.011380
Si Si2 0.389068 0.398105 0.232631
Si Si3 0.640223 0.935876 0.242242
Si Si4 0.895084 0.022418 0.112801
Si Si5 0.288854 0.303326 0.908933
Si Si6 0.890332 0.698038 0.648518
Si Si7 0.394195 0.339197 0.689480
O O1 0.500000 0.041652 0.050178
O O2 0.389501 0.075908 0.888507
O O3 0.347369 0.082266 0.111163
O O4 0.342013 0.000000 0.000000
O O5 0.500000 0.404101 0.236128
O O6 0.346993 0.429625 0.338247
O O7 0.363256 0.342777 0.240878
O O8 0.750000 0.937079 0.250000
O O9 0.599731 0.895116 0.323889
O O10 0.600390 0.985426 0.282748
O O11 0.000000 0.035307 0.073052
O O12 0.842161 0.000000 0.000000
O O13 0.293518 0.250000 0.872515
O O14 0.353747 0.329996 0.817446
O O15 0.179278 0.319277 0.904699
O O16 0.328710 0.311426 0.035899
O O17 0.869687 0.750000 0.699606
O O18 0.000000 0.693768 0.614289
O O19 0.500000 0.318458 0.671987
#
# Coordination Sequence:
#
# PCOD8297867 Si02
#       7
#    16  16  16  16  16  16  16
#     4  10  18  31  54  80 108 148 200 255 307 368
#     4   9  17  31  56  86 117 157 207 258 317 381
#     4  12  23  36  53  80 117 155 202 256 310 379
#     4  10  21  39  59  81 116 163 208 253 311 387
#     4  10  20  34  51  82 118 158 213 263 320 389
#     4   9  17  30  52  85 126 165 203 261 329 381
#     4  11  21  34  51  75 113 162 210 263 323 385
#
# _framework density 23.652591000000001
#
# number of rings (size 3 to 8) (size 9 to 14) (size 15 to 20)
#    0.000    1.857    2.857    3.429    0.000    3.429 
#    0.000    0.000    0.000    0.000    0.000    2.000 
#    0.000    9.714    0.000    0.571    0.000    0.143 
#
# Total GULP energy -693867.600483 kJ/mol
# GULP energy per Si atom -12390.492866 kJ/mol
# Density = 2.359876 g / cm^3
# Si number density = 23.652591 Si / 1000 Ang^3
#
#
#
# Elastic Constant Matrix: (Units=GPa)
#
#
# Indices 1 2 3 4 5 6 
#
# 1 111.1500 18.7090 11.2618 0.0001 -0.0001 0.0000
# 2 18.7090 189.0804 62.4061 0.0000 0.0001 0.0000
# 3 11.2618 62.4061 104.4720 -0.0032 0.0032 0.0014
# 4 0.0001 0.0000 -0.0032 36.7595 0.0017 0.0022
# 5 -0.0001 0.0001 0.0032 0.0017 10.9946 -0.0004
# 6 0.0000 0.0000 0.0014 0.0022 -0.0004 20.9551
#
#
#
# Elastic Compliance Matrix: (Units=1/GPa)
#
#
# Indices 1 2 3 4 5 6 
#
# 1 0.009175 -0.000724 -0.000556 0.000000 0.000000 0.000000
# 2 -0.000724 0.006645 -0.003891 0.000000 0.000001 0.000000
# 3 -0.000556 -0.003891 0.011956 0.000001 -0.000003 -0.000001
# 4 0.000000 0.000000 0.000001 0.027204 -0.000004 -0.000003
# 5 0.000000 0.000001 -0.000003 -0.000004 0.090954 0.000002
# 6 0.000000 0.000000 -0.000001 -0.000003 0.000002 0.047721
#
#
# Mechanical properties :
#
#
# Convention : Reuss Voigt Hill
#
# Bulk Modulus (GPa) = 57.36396 65.49514 61.42955
# Shear Modulus (GPa) = 23.83117 34.56354 29.19736
#
# Velocity S-wave (km/s) = 3.17764 3.82684 3.51725
# Velocity P-wave (km/s) = 6.14561 6.87582 6.52094
#
# Compressibility (1/GPa) = 0.01743255
#
# Stress axis : x y z
#
# Youngs Moduli (GPa) = 108.99027 150.49638 83.63808
#
# Poissons Ratio (x) = 0.10899 0.04654
# Poissons Ratio (y) = 0.07893 0.32545
# Poissons Ratio (z) = 0.06065 0.58560
#
# Static dielectric constant tensor:
#      x y z
#    x 4.026220 0.000000 -0.000030 
#    y 0.000000 4.716250 0.000020 
#    z -0.000030 0.000020 4.346160 
# 
# 
# High freq. dielectric constant tensor:
#      x y z
#    x 1.924360 0.000000 0.000000 
#    y 0.000000 1.948610 0.000000 
#    z 0.000000 0.000000 1.903390 
# 
# From -- ./inp_files/21147.got.cif
#   From: 2010.03.12/outbox.cif.g09.slc.cpg/sg74_11_cif.got.tgz:21147.got - 2010.04.16 15:46:19.
