data_PCOD8297429
_publ_section_title
;
Structure prediction by ZEFSAII (Michael W. Deem and Ramdas Pophale) SiO2 
 PCOD8297429
Probable space group: I M M A
;
_chemical_formula_sum "Si O2"
_cell_formula_units_Z 80
_cell_length_a 23.019387
_cell_length_b 9.418612
_cell_length_c 26.505030
_cell_angle_alpha 90.000000
_cell_angle_beta 90.000000
_cell_angle_gamma 90.000000
_cell_volume 5746.573435
_symmetry_space_group_name_H-M "I M M A"
_symmetry_group_IT_number 74
_symmetry_cell_setting 'orthorhombic'
loop_
_space_group_symop_operation_xyz
x,y,z
-x,1/2-y,z
x,-y,-z
-x,1/2+y,-z
-x,-y,-z
x,1/2+y,-z
-x,y,z
x,1/2-y,z
1/2+x,1/2+y,1/2+z
1/2-x,-y,1/2+z
1/2+x,1/2-y,1/2-z
1/2-x,y,1/2-z
1/2-x,1/2-y,1/2-z
1/2+x,y,1/2-z
1/2-x,1/2+y,1/2+z
1/2+x,-y,1/2+z
loop_
_atom_site_type_symbol
_atom_site_label
_atom_site_fract_x
_atom_site_fract_y
_atom_site_fract_z
Si Si1 0.000000 0.917481 0.601088
Si Si2 0.314029 0.585077 0.851961
Si Si3 0.500000 0.910235 0.202700
Si Si4 0.874668 0.585939 0.264975
Si Si5 0.618640 0.585198 0.950464
Si Si6 0.705533 0.906848 0.703743
O O1 0.056514 0.967683 0.570371
O O2 0.000000 0.750000 0.609741
O O3 0.000000 0.984613 0.655993
O O4 0.326493 0.750000 0.838075
O O5 0.352979 0.488890 0.815759
O O6 0.331538 0.553336 0.909348
O O7 0.245048 0.551032 0.844900
O O8 0.500000 0.750000 0.180949
O O9 0.443953 0.934833 0.238054
O O10 0.856332 0.750000 0.266805
O O11 0.846363 0.516957 0.214622
O O12 0.615680 0.750000 0.964452
O O13 0.635990 0.500000 0.000000
O O14 0.678324 0.750000 0.696755
O O15 0.750000 0.908354 0.750000
#
# Coordination Sequence:
#
# PCOD8297429 Si02
#       6
#     8  16   8  16  16  16
#     4  10  19  31  45  56  72 104 144 175 203 239
#     4   9  17  30  44  57  76 101 131 165 201 239
#     4  10  20  29  39  58  83 108 133 167 204 233
#     4  10  18  27  40  59  80 102 130 163 198 236
#     4  10  20  31  43  59  77 102 136 174 209 240
#     4   8  15  27  42  58  76  99 126 159 197 238
#
# _framework density 13.921340000000001
#
# number of rings (size 3 to 8) (size 9 to 14) (size 15 to 20)
#    0.000    2.600    2.000    2.100    0.000    6.000 
#    0.000    0.000    0.000    0.000    0.000    0.000 
#    0.000    0.000    0.000    0.900    0.000   10.800 
#
# Total GULP energy -495839.398439 kJ/mol
# GULP energy per Si atom -12395.984961 kJ/mol
# Density = 1.388965 g / cm^3
# Si number density = 13.921340 Si / 1000 Ang^3
#
#
#
# Elastic Constant Matrix: (Units=GPa)
#
#
# Indices 1 2 3 4 5 6 
#
# 1 84.7310 49.6832 54.6597 0.0000 0.0000 0.0000
# 2 49.6832 69.0839 36.3491 0.0000 0.0000 0.0000
# 3 54.6597 36.3491 72.1997 0.0000 0.0000 0.0000
# 4 0.0000 0.0000 0.0000 21.7855 0.0000 0.0000
# 5 0.0000 0.0000 0.0000 0.0000 20.0343 0.0000
# 6 0.0000 0.0000 0.0000 0.0000 0.0000 20.1062
#
#
#
# Elastic Compliance Matrix: (Units=1/GPa)
#
#
# Indices 1 2 3 4 5 6 
#
# 1 0.029694 -0.012960 -0.015956 0.000000 0.000000 0.000000
# 2 -0.012960 0.025348 -0.002950 0.000000 0.000000 0.000000
# 3 -0.015956 -0.002950 0.027415 0.000000 0.000000 0.000000
# 4 0.000000 0.000000 0.000000 0.045902 0.000000 0.000000
# 5 0.000000 0.000000 0.000000 0.000000 0.049914 0.000000
# 6 0.000000 0.000000 0.000000 0.000000 0.000000 0.049736
#
#
# Mechanical properties :
#
#
# Convention : Reuss Voigt Hill
#
# Bulk Modulus (GPa) = 53.40179 56.37763 54.88971
# Shear Modulus (GPa) = 16.77949 18.07336 17.42642
#
# Velocity S-wave (km/s) = 3.47552 3.60703 3.54189
# Velocity P-wave (km/s) = 7.38570 7.61136 7.49938
#
# Compressibility (1/GPa) = 0.01872596
#
# Stress axis : x y z
#
# Youngs Moduli (GPa) = 33.67635 39.45119 36.47640
#
# Poissons Ratio (x) = 0.51129 0.58201
# Poissons Ratio (y) = 0.43645 0.10760
# Poissons Ratio (z) = 0.53733 0.11637
#
# Static dielectric constant tensor:
#      x y z
#    x 2.968910 0.000000 0.000000 
#    y 0.000000 2.812900 0.000000 
#    z 0.000000 0.000000 2.617660 
# 
# 
# High freq. dielectric constant tensor:
#      x y z
#    x 1.519710 0.000000 0.000000 
#    y 0.000000 1.539100 0.000000 
#    z 0.000000 0.000000 1.492500 
# 
# From -- ./inp_files/64623.got.cif
#   From: 2010.03.12/outbox.cif.g09.slc.cpg/sg74_33_cif.got.tgz:64623.got - 2010.04.16 15:46:19.
