data_PCOD8297307
_publ_section_title
;
Structure prediction by ZEFSAII (Michael W. Deem and Ramdas Pophale) SiO2 
 PCOD8297307
Probable space group: I M M A
;
_chemical_formula_sum "Si O2"
_cell_formula_units_Z 88
_cell_length_a 28.324283
_cell_length_b 24.055660
_cell_length_c 7.020401
_cell_angle_alpha 90.000000
_cell_angle_beta 90.000000
_cell_angle_gamma 90.000000
_cell_volume 4783.415663
_symmetry_space_group_name_H-M "I M M A"
_symmetry_group_IT_number 74
_symmetry_cell_setting 'orthorhombic'
loop_
_space_group_symop_operation_xyz
x,y,z
-x,1/2-y,z
x,-y,-z
-x,1/2+y,-z
-x,-y,-z
x,1/2+y,-z
-x,y,z
x,1/2-y,z
1/2+x,1/2+y,1/2+z
1/2-x,-y,1/2+z
1/2+x,1/2-y,1/2-z
1/2-x,y,1/2-z
1/2-x,1/2-y,1/2-z
1/2+x,y,1/2-z
1/2-x,1/2+y,1/2+z
1/2+x,-y,1/2+z
loop_
_atom_site_type_symbol
_atom_site_label
_atom_site_fract_x
_atom_site_fract_y
_atom_site_fract_z
Si Si1 0.198351 0.151697 0.219082
Si Si2 0.624036 0.312889 0.575547
Si Si3 0.630953 0.500000 0.000000
Si Si4 0.798622 0.029249 0.181390
Si Si5 0.445595 0.314993 0.249189
Si Si6 0.120138 0.875858 0.468951
O O1 0.250000 0.180980 0.250000
O O2 0.210733 0.092688 0.125080
O O3 0.167664 0.140667 0.412110
O O4 0.169828 0.186435 0.061966
O O5 0.617247 0.250000 0.649757
O O6 0.579666 0.332398 0.446585
O O7 0.628234 0.353183 0.755935
O O8 0.661531 0.523387 0.832424
O O9 0.605113 0.441816 0.946141
O O10 0.750000 0.000399 0.250000
O O11 0.819778 0.000000 0.000000
O O12 0.500000 0.331300 0.269463
O O13 0.438046 0.250000 0.209772
O O14 0.424558 0.347490 0.068854
#
# Coordination Sequence:
#
# PCOD8297307 Si02
#       6
#    16  16   8  16  16  16
#     4   9  20  34  47  71 107 145 179 219 262 310
#     4  10  20  35  55  78 103 135 178 223 266 319
#     4  10  20  32  49  74 106 146 176 214 267 316
#     4  10  17  28  46  69  97 132 181 228 261 293
#     4   9  19  37  60  83 106 133 171 223 276 322
#     4  10  20  35  54  79 109 141 177 219 266 315
#
# _framework density 18.396896999999999
#
# number of rings (size 3 to 8) (size 9 to 14) (size 15 to 20)
#    0.000    2.364    0.909    1.636    0.000    2.545 
#    0.000    3.182    0.000    1.091    0.000    0.000 
#    0.000    0.000    0.000    0.000    0.000    0.000 
#
# Total GULP energy -545099.761929 kJ/mol
# GULP energy per Si atom -12388.630953 kJ/mol
# Density = 1.835502 g / cm^3
# Si number density = 18.396897 Si / 1000 Ang^3
#
#
#
# Elastic Constant Matrix: (Units=GPa)
#
#
# Indices 1 2 3 4 5 6 
#
# 1 114.4775 26.6134 33.6547 0.0000 0.0000 0.0000
# 2 26.6134 81.6942 39.5590 0.0000 0.0000 0.0000
# 3 33.6547 39.5590 86.5190 0.0000 0.0000 0.0000
# 4 0.0000 0.0000 0.0000 31.6139 0.0000 0.0000
# 5 0.0000 0.0000 0.0000 0.0000 8.0683 0.0000
# 6 0.0000 0.0000 0.0000 0.0000 0.0000 20.7322
#
#
#
# Elastic Compliance Matrix: (Units=1/GPa)
#
#
# Indices 1 2 3 4 5 6 
#
# 1 0.010060 -0.001775 -0.003101 0.000000 0.000000 0.000000
# 2 -0.001775 0.016035 -0.006641 0.000000 0.000000 0.000000
# 3 -0.003101 -0.006641 0.015801 0.000000 0.000000 0.000000
# 4 0.000000 0.000000 0.000000 0.031632 0.000000 0.000000
# 5 0.000000 0.000000 0.000000 0.000000 0.123941 0.000000
# 6 0.000000 0.000000 0.000000 0.000000 0.000000 0.048234
#
#
# Mechanical properties :
#
#
# Convention : Reuss Voigt Hill
#
# Bulk Modulus (GPa) = 53.02171 53.59386 53.30778
# Shear Modulus (GPa) = 18.18014 24.27379 21.22697
#
# Velocity S-wave (km/s) = 3.14700 3.63636 3.40050
# Velocity P-wave (km/s) = 6.48756 6.84296 6.66763
#
# Compressibility (1/GPa) = 0.01886020
#
# Stress axis : x y z
#
# Youngs Moduli (GPa) = 99.40517 62.36373 63.28702
#
# Poissons Ratio (x) = 0.11072 0.19628
# Poissons Ratio (y) = 0.17648 0.42029
# Poissons Ratio (z) = 0.30829 0.41416
#
# Static dielectric constant tensor:
#      x y z
#    x 3.373660 0.000000 0.000000 
#    y 0.000000 3.600430 0.000000 
#    z 0.000000 0.000000 3.314200 
# 
# 
# High freq. dielectric constant tensor:
#      x y z
#    x 1.694070 0.000000 0.000000 
#    y 0.000000 1.714190 0.000000 
#    z 0.000000 0.000000 1.714050 
# 
# From -- ./inp_files/5237.got.cif
#   From: 2010.03.12/outbox.cif.g09.slc.cpg/sg74_3_cif.got.tgz:5237.got - 2010.04.16 15:46:19.
