data_PCOD8297081
_publ_section_title
;
Structure prediction by ZEFSAII (Michael W. Deem and Ramdas Pophale) SiO2 
 PCOD8297081
Probable space group: I B C A 
;
_chemical_formula_sum "Si O2"
_cell_formula_units_Z 48
_cell_length_a 19.664201
_cell_length_b 9.220237
_cell_length_c 10.268041
_cell_angle_alpha 90.000000
_cell_angle_beta 90.000000
_cell_angle_gamma 90.000000
_cell_volume 1861.684073
_symmetry_space_group_name_H-M "I B C A "
_symmetry_group_IT_number 73
_symmetry_cell_setting 'orthorhombic'
loop_
_space_group_symop_operation_xyz
x,y,z
-x,1/2-y,z
x,-y,1/2-z
1/2-x,y,-z
-x,-y,-z
x,1/2+y,-z
-x,y,1/2+z
1/2+x,-y,z
1/2+x,1/2+y,1/2+z
1/2-x,-y,1/2+z
1/2+x,1/2-y,-z
-x,1/2+y,1/2-z
1/2-x,1/2-y,1/2-z
1/2+x,y,1/2-z
1/2-x,1/2+y,z
x,1/2-y,1/2+z
loop_
_atom_site_type_symbol
_atom_site_label
_atom_site_fract_x
_atom_site_fract_y
_atom_site_fract_z
Si Si1 0.037384 0.500000 0.250000
Si Si2 0.881582 0.242515 0.109922
Si Si3 0.250000 0.612413 0.500000
Si Si4 0.678608 0.500000 0.750000
Si Si5 0.000000 0.750000 0.580277
O O1 0.088204 0.406451 0.162910
O O2 0.987561 0.392196 0.330121
O O3 0.869548 0.360360 0.224193
O O4 0.811040 0.216780 0.038725
O O5 0.935625 0.299576 0.004711
O O6 0.273244 0.517181 0.376333
#
# Coordination Sequence:
#
# PCOD8297081 Si02
#       5
#     8  16   8   8   8
#     4  12  27  49  74 110 151 199 262 334 395 469
#     4  12  27  49  77 113 156 207 264 326 395 472
#     4  12  26  48  80 118 160 212 268 330 394 468
#     4  12  27  51  78 116 159 211 268 330 395 473
#     4  12  28  50  78 112 154 208 264 328 400 474
#
# _framework density 25.783107000000001
#
# number of rings (size 3 to 8) (size 9 to 14) (size 15 to 20)
#    0.000    0.000    0.000    9.000    0.000    9.333 
#    0.000    0.000    0.000    0.000    0.000    0.000 
#    0.000    0.000    0.000    0.000    0.000    0.000 
#
# Total GULP energy -297649.703189 kJ/mol
# GULP energy per Si atom -12402.070966 kJ/mol
# Density = 2.572442 g / cm^3
# Si number density = 25.783107 Si / 1000 Ang^3
#
#
#
# Elastic Constant Matrix: (Units=GPa)
#
#
# Indices 1 2 3 4 5 6 
#
# 1 146.8246 45.4395 56.4835 0.0000 0.0000 0.0000
# 2 45.4395 153.6009 72.6650 0.0000 0.0000 0.0000
# 3 56.4835 72.6650 164.3342 0.0000 0.0000 0.0000
# 4 0.0000 0.0000 0.0000 61.7860 0.0000 0.0000
# 5 0.0000 0.0000 0.0000 0.0000 46.5589 0.0000
# 6 0.0000 0.0000 0.0000 0.0000 0.0000 43.1143
#
#
#
# Elastic Compliance Matrix: (Units=1/GPa)
#
#
# Indices 1 2 3 4 5 6 
#
# 1 0.008067 -0.001359 -0.002172 0.000000 0.000000 0.000000
# 2 -0.001359 0.008461 -0.003274 0.000000 0.000000 0.000000
# 3 -0.002172 -0.003274 0.008279 0.000000 0.000000 0.000000
# 4 0.000000 0.000000 0.000000 0.016185 0.000000 0.000000
# 5 0.000000 0.000000 0.000000 0.000000 0.021478 0.000000
# 6 0.000000 0.000000 0.000000 0.000000 0.000000 0.023194
#
#
# Mechanical properties :
#
#
# Convention : Reuss Voigt Hill
#
# Bulk Modulus (GPa) = 89.30519 90.43731 89.87125
# Shear Modulus (GPa) = 48.53999 49.63661 49.08830
#
# Velocity S-wave (km/s) = 4.34363 4.39242 4.36810
# Velocity P-wave (km/s) = 7.73747 7.80236 7.76999
#
# Compressibility (1/GPa) = 0.01119756
#
# Stress axis : x y z
#
# Youngs Moduli (GPa) = 123.96314 118.18321 120.78063
#
# Poissons Ratio (x) = 0.16061 0.26231
# Poissons Ratio (y) = 0.16847 0.39548
# Poissons Ratio (z) = 0.26922 0.38697
#
# Static dielectric constant tensor:
#      x y z
#    x 4.710140 0.000000 0.000000 
#    y 0.000000 4.569060 0.000000 
#    z 0.000000 0.000000 5.057730 
# 
# 
# High freq. dielectric constant tensor:
#      x y z
#    x 2.044840 0.000000 0.000000 
#    y 0.000000 2.037870 0.000000 
#    z 0.000000 0.000000 2.045830 
# 
# From -- ./inp_files/3798.got.cif
#   From: 2010.03.12/outbox.cif.g09.slc.cpg/sg73_2_cif.got.tgz:3798.got - 2010.04.16 15:25:48.
