data_PCOD8297445
_publ_section_title
;
Structure prediction by ZEFSAII (Michael W. Deem and Ramdas Pophale) SiO2 
 PCOD8297445
Probable space group: I M M A
;
_chemical_formula_sum "Si O2"
_cell_formula_units_Z 80
_cell_length_a 23.711743
_cell_length_b 9.379932
_cell_length_c 25.585240
_cell_angle_alpha 90.000000
_cell_angle_beta 90.000000
_cell_angle_gamma 90.000000
_cell_volume 5690.529307
_symmetry_space_group_name_H-M "I M M A"
_symmetry_group_IT_number 74
_symmetry_cell_setting 'orthorhombic'
loop_
_space_group_symop_operation_xyz
x,y,z
-x,1/2-y,z
x,-y,-z
-x,1/2+y,-z
-x,-y,-z
x,1/2+y,-z
-x,y,z
x,1/2-y,z
1/2+x,1/2+y,1/2+z
1/2-x,-y,1/2+z
1/2+x,1/2-y,1/2-z
1/2-x,y,1/2-z
1/2-x,1/2-y,1/2-z
1/2+x,y,1/2-z
1/2-x,1/2+y,1/2+z
1/2+x,-y,1/2+z
loop_
_atom_site_type_symbol
_atom_site_label
_atom_site_fract_x
_atom_site_fract_y
_atom_site_fract_z
Si Si1 0.000000 0.581307 0.604578
Si Si2 0.313693 0.584671 0.848461
Si Si3 0.500000 0.912878 0.210968
Si Si4 0.878217 0.584644 0.261381
Si Si5 0.614776 0.585821 0.948890
Si Si6 0.719552 0.091903 0.694310
O O1 0.055096 0.529602 0.573276
O O2 0.000000 0.750000 0.613230
O O3 0.000000 0.512985 0.661210
O O4 0.310327 0.750000 0.833228
O O5 0.357296 0.509524 0.809663
O O6 0.335784 0.562399 0.906961
O O7 0.250855 0.517268 0.844513
O O8 0.500000 0.750000 0.190979
O O9 0.444829 0.943214 0.246460
O O10 0.865459 0.750000 0.275141
O O11 0.845205 0.545250 0.207347
O O12 0.608961 0.750000 0.964455
O O13 0.632251 0.500000 0.000000
O O14 0.721593 0.250000 0.669243
O O15 0.750000 0.090396 0.750000
#
# Coordination Sequence:
#
# PCOD8297445 Si02
#       6
#     8  16   8  16  16  16
#     4  10  19  33  43  54  78 104 134 175 213 237
#     4  10  18  28  42  59  77  99 130 167 203 238
#     4  10  18  27  43  62  79 106 139 167 196 235
#     4   9  17  28  41  59  80 103 132 162 195 235
#     4  10  21  32  43  57  76 102 135 174 210 242
#     4   8  15  27  41  57  78 101 126 159 196 236
#
# _framework density 14.058446
#
# number of rings (size 3 to 8) (size 9 to 14) (size 15 to 20)
#    0.000    2.600    2.000    2.100    0.000    6.000 
#    0.000    0.000    0.000    0.000    0.000    0.000 
#    0.000    0.000    0.000    0.900    0.000    9.400 
#
# Total GULP energy -495808.243805 kJ/mol
# GULP energy per Si atom -12395.206095 kJ/mol
# Density = 1.402645 g / cm^3
# Si number density = 14.058446 Si / 1000 Ang^3
#
#
#
# Elastic Constant Matrix: (Units=GPa)
#
#
# Indices 1 2 3 4 5 6 
#
# 1 110.3577 45.3120 48.8075 0.0000 0.0000 0.0000
# 2 45.3120 62.6561 33.9649 0.0000 0.0000 0.0000
# 3 48.8075 33.9649 48.0254 0.0000 0.0000 0.0000
# 4 0.0000 0.0000 0.0000 21.6384 0.0000 0.0000
# 5 0.0000 0.0000 0.0000 0.0000 16.6621 0.0000
# 6 0.0000 0.0000 0.0000 0.0000 0.0000 19.3547
#
#
#
# Elastic Compliance Matrix: (Units=1/GPa)
#
#
# Indices 1 2 3 4 5 6 
#
# 1 0.017319 -0.004839 -0.014179 0.000000 0.000000 0.000000
# 2 -0.004839 0.027235 -0.014344 0.000000 0.000000 0.000000
# 3 -0.014179 -0.014344 0.045377 0.000000 0.000000 0.000000
# 4 0.000000 0.000000 0.000000 0.046214 0.000000 0.000000
# 5 0.000000 0.000000 0.000000 0.000000 0.060017 0.000000
# 6 0.000000 0.000000 0.000000 0.000000 0.000000 0.051667
#
#
# Mechanical properties :
#
#
# Convention : Reuss Voigt Hill
#
# Bulk Modulus (GPa) = 43.08949 53.02311 48.05630
# Shear Modulus (GPa) = 15.51408 17.72802 16.62105
#
# Velocity S-wave (km/s) = 3.32556 3.55494 3.44216
# Velocity P-wave (km/s) = 6.74260 7.39244 7.07499
#
# Compressibility (1/GPa) = 0.02320752
#
# Stress axis : x y z
#
# Youngs Moduli (GPa) = 57.73969 36.71747 22.03767
#
# Poissons Ratio (x) = 0.17766 0.31248
# Poissons Ratio (y) = 0.27938 0.31611
# Poissons Ratio (z) = 0.81870 0.52667
#
# Static dielectric constant tensor:
#      x y z
#    x 3.225350 0.000000 0.000000 
#    y 0.000000 2.835320 0.000000 
#    z 0.000000 0.000000 2.466840 
# 
# 
# High freq. dielectric constant tensor:
#      x y z
#    x 1.536750 0.000000 0.000000 
#    y 0.000000 1.543740 0.000000 
#    z 0.000000 0.000000 1.487120 
# 
# From -- ./inp_files/54976.got.cif
#   From: 2010.03.12/outbox.cif.g09.slc.cpg/sg74_28_cif.got.tgz:54976.got - 2010.04.16 15:46:19.
