data_PCOD8297490
_publ_section_title
;
Structure prediction by ZEFSAII (Michael W. Deem and Ramdas Pophale) SiO2 
 PCOD8297490
Probable space group: I M M A
;
_chemical_formula_sum "Si O2"
_cell_formula_units_Z 88
_cell_length_a 9.122791
_cell_length_b 18.958138
_cell_length_c 27.631141
_cell_angle_alpha 90.000000
_cell_angle_beta 90.000000
_cell_angle_gamma 90.000000
_cell_volume 4778.837079
_symmetry_space_group_name_H-M "I M M A"
_symmetry_group_IT_number 74
_symmetry_cell_setting 'orthorhombic'
loop_
_space_group_symop_operation_xyz
x,y,z
-x,1/2-y,z
x,-y,-z
-x,1/2+y,-z
-x,-y,-z
x,1/2+y,-z
-x,y,z
x,1/2-y,z
1/2+x,1/2+y,1/2+z
1/2-x,-y,1/2+z
1/2+x,1/2-y,1/2-z
1/2-x,y,1/2-z
1/2-x,1/2-y,1/2-z
1/2+x,y,1/2-z
1/2-x,1/2+y,1/2+z
1/2+x,-y,1/2+z
loop_
_atom_site_type_symbol
_atom_site_label
_atom_site_fract_x
_atom_site_fract_y
_atom_site_fract_z
Si Si1 0.170357 0.083609 0.405607
Si Si2 0.171071 0.431797 0.554975
Si Si3 0.827687 0.536164 0.701657
Si Si4 0.326189 0.250000 0.799774
Si Si5 0.326263 0.605976 0.158839
Si Si6 0.326843 0.331010 0.479311
O O1 0.218681 0.072092 0.349492
O O2 0.264252 0.148772 0.426248
O O3 0.000000 0.103328 0.406486
O O4 0.195425 0.016539 0.442178
O O5 0.235744 0.405222 0.605666
O O6 0.261947 0.388399 0.515946
O O7 0.000000 0.414777 0.546597
O O8 0.750000 0.567850 0.750000
O O9 0.776524 0.454477 0.696467
O O10 0.000000 0.544414 0.709701
O O11 0.500000 0.250000 0.794494
O O12 0.250000 0.250000 0.750000
O O13 0.266022 0.318464 0.826432
O O14 0.500000 0.602030 0.155493
O O15 0.500000 0.338737 0.478634
O O16 0.281409 0.250000 0.491791
#
# Coordination Sequence:
#
# PCOD8297490 Si02
#       6
#    16  16  16   8  16  16
#     4   9  19  36  56  79 105 134 174 217 251 300
#     4   9  18  34  56  78  99 132 177 217 252 299
#     4   9  17  31  51  76 103 128 163 210 253 298
#     4  10  18  28  42  62  92 132 172 206 245 290
#     4   8  16  29  46  69  97 129 169 210 244 292
#     4  11  24  37  50  75 109 138 168 212 263 314
#
# _framework density 18.414522000000002
#
# number of rings (size 3 to 8) (size 9 to 14) (size 15 to 20)
#    0.000    2.727    0.000    3.818    1.273    5.091 
#    0.000    3.636    0.000    0.545    0.000    0.000 
#    0.000    0.000    0.000    0.000    0.000    0.000 
#
# Total GULP energy -545092.539301 kJ/mol
# GULP energy per Si atom -12388.466802 kJ/mol
# Density = 1.837261 g / cm^3
# Si number density = 18.414522 Si / 1000 Ang^3
#
#
#
# Elastic Constant Matrix: (Units=GPa)
#
#
# Indices 1 2 3 4 5 6 
#
# 1 50.9356 32.8511 41.3180 0.0000 0.0000 0.0000
# 2 32.8511 62.5603 42.4643 0.0000 0.0000 0.0000
# 3 41.3180 42.4643 101.0624 0.0000 0.0000 0.0000
# 4 0.0000 0.0000 0.0000 13.3546 0.0000 0.0000
# 5 0.0000 0.0000 0.0000 0.0000 31.6812 0.0000
# 6 0.0000 0.0000 0.0000 0.0000 0.0000 21.2822
#
#
#
# Elastic Compliance Matrix: (Units=1/GPa)
#
#
# Indices 1 2 3 4 5 6 
#
# 1 0.034871 -0.012079 -0.009181 0.000000 0.000000 0.000000
# 2 -0.012079 0.026547 -0.006216 0.000000 0.000000 0.000000
# 3 -0.009181 -0.006216 0.016260 0.000000 0.000000 0.000000
# 4 0.000000 0.000000 0.000000 0.074880 0.000000 0.000000
# 5 0.000000 0.000000 0.000000 0.000000 0.031564 0.000000
# 6 0.000000 0.000000 0.000000 0.000000 0.000000 0.046988
#
#
# Mechanical properties :
#
#
# Convention : Reuss Voigt Hill
#
# Bulk Modulus (GPa) = 44.00372 49.75833 46.88102
# Shear Modulus (GPa) = 17.02781 19.79194 18.40988
#
# Velocity S-wave (km/s) = 3.04418 3.28197 3.16531
# Velocity P-wave (km/s) = 6.02529 6.43752 6.23481
#
# Compressibility (1/GPa) = 0.02272535
#
# Stress axis : x y z
#
# Youngs Moduli (GPa) = 28.67749 37.66943 61.49985
#
# Poissons Ratio (x) = 0.45501 0.56463
# Poissons Ratio (y) = 0.34640 0.38228
# Poissons Ratio (z) = 0.26329 0.23415
#
# Static dielectric constant tensor:
#      x y z
#    x 3.061110 0.000000 0.000000 
#    y 0.000000 3.368500 0.000000 
#    z 0.000000 0.000000 3.515970 
# 
# 
# High freq. dielectric constant tensor:
#      x y z
#    x 1.686390 0.000000 0.000000 
#    y 0.000000 1.699020 0.000000 
#    z 0.000000 0.000000 1.726290 
# 
# From -- ./inp_files/64336.got.cif
#   From: 2010.03.12/outbox.cif.g09.slc.cpg/sg74_33_cif.got.tgz:64336.got - 2010.04.16 15:46:19.
