data_PCOD8297995
_publ_section_title
;
Structure prediction by ZEFSAII (Michael W. Deem and Ramdas Pophale) SiO2 
 PCOD8297995
Probable space group: I M M A
;
_chemical_formula_sum "Si O2"
_cell_formula_units_Z 88
_cell_length_a 8.621151
_cell_length_b 18.511824
_cell_length_c 29.820472
_cell_angle_alpha 90.000000
_cell_angle_beta 90.000000
_cell_angle_gamma 90.000000
_cell_volume 4759.145446
_symmetry_space_group_name_H-M "I M M A"
_symmetry_group_IT_number 74
_symmetry_cell_setting 'orthorhombic'
loop_
_space_group_symop_operation_xyz
x,y,z
-x,1/2-y,z
x,-y,-z
-x,1/2+y,-z
-x,-y,-z
x,1/2+y,-z
-x,y,z
x,1/2-y,z
1/2+x,1/2+y,1/2+z
1/2-x,-y,1/2+z
1/2+x,1/2-y,1/2-z
1/2-x,y,1/2-z
1/2-x,1/2-y,1/2-z
1/2+x,y,1/2-z
1/2-x,1/2+y,1/2+z
1/2+x,-y,1/2+z
loop_
_atom_site_type_symbol
_atom_site_label
_atom_site_fract_x
_atom_site_fract_y
_atom_site_fract_z
Si Si1 0.823608 0.459071 0.953723
Si Si2 0.181202 0.019764 0.366750
Si Si3 0.822670 0.169090 0.010066
Si Si4 0.317338 0.670199 0.895442
Si Si5 0.314746 0.101228 0.799644
Si Si6 0.315096 0.250000 0.700094
O O1 0.710514 0.486576 0.915490
O O2 0.779237 0.376760 0.966022
O O3 0.000000 0.467204 0.936488
O O4 0.796974 0.500000 0.000000
O O5 0.247093 0.103111 0.364920
O O6 0.000000 0.023806 0.359080
O O7 0.249953 0.966914 0.328553
O O8 0.795727 0.250000 0.994172
O O9 0.000000 0.153275 0.024547
O O10 0.719624 0.150374 0.053215
O O11 0.500000 0.674666 0.890050
O O12 0.245987 0.750000 0.882617
O O13 0.500000 0.105138 0.798780
O O14 0.250000 0.090124 0.750000
O O15 0.249212 0.175708 0.822047
O O16 0.500000 0.250000 0.699178
O O17 0.250000 0.250000 0.750000
#
# Coordination Sequence:
#
# PCOD8297995 Si02
#       6
#    16  16  16  16  16   8
#     4  10  19  31  47  70 100 133 167 205 247 294
#     4  10  21  34  51  75 101 131 166 207 253 299
#     4   9  17  30  46  64  92 130 168 205 243 284
#     4   9  17  30  49  72  96 126 167 207 244 292
#     4  10  20  36  56  78 104 132 167 208 251 299
#     4  10  18  32  56  82 104 132 166 202 248 298
#
# _framework density 18.490714000000001
#
# number of rings (size 3 to 8) (size 9 to 14) (size 15 to 20)
#    0.000    2.364    1.818    2.455    0.000    2.545 
#    1.636    0.000    0.000    0.545    0.000    0.000 
#    0.000    0.000    0.000    0.000    0.000    0.727 
#
# Total GULP energy -545106.627578 kJ/mol
# GULP energy per Si atom -12388.786990 kJ/mol
# Density = 1.844863 g / cm^3
# Si number density = 18.490714 Si / 1000 Ang^3
#
#
#
# Elastic Constant Matrix: (Units=GPa)
#
#
# Indices 1 2 3 4 5 6 
#
# 1 37.7057 28.1454 11.0695 0.0000 0.0000 0.0000
# 2 28.1454 182.7271 64.6363 0.0000 0.0000 0.0000
# 3 11.0695 64.6363 57.6249 0.0000 0.0000 0.0000
# 4 0.0000 0.0000 0.0000 32.0587 0.0000 0.0000
# 5 0.0000 0.0000 0.0000 0.0000 20.6269 0.0000
# 6 0.0000 0.0000 0.0000 0.0000 0.0000 19.7532
#
#
#
# Elastic Compliance Matrix: (Units=1/GPa)
#
#
# Indices 1 2 3 4 5 6 
#
# 1 0.029999 -0.004281 -0.000961 0.000000 0.000000 0.000000
# 2 -0.004281 0.009683 -0.010039 0.000000 0.000000 0.000000
# 3 -0.000961 -0.010039 0.028799 0.000000 0.000000 0.000000
# 4 0.000000 0.000000 0.000000 0.031193 0.000000 0.000000
# 5 0.000000 0.000000 0.000000 0.000000 0.048480 0.000000
# 6 0.000000 0.000000 0.000000 0.000000 0.000000 0.050625
#
#
# Mechanical properties :
#
#
# Convention : Reuss Voigt Hill
#
# Bulk Modulus (GPa) = 26.37205 53.97333 40.17269
# Shear Modulus (GPa) = 20.66291 26.10151 23.38221
#
# Velocity S-wave (km/s) = 3.34649 3.76120 3.55989
# Velocity P-wave (km/s) = 5.40604 6.93650 6.21853
#
# Compressibility (1/GPa) = 0.03791893
#
# Stress axis : x y z
#
# Youngs Moduli (GPa) = 33.33481 103.27286 34.72386
#
# Poissons Ratio (x) = 0.44208 0.03337
# Poissons Ratio (y) = 0.14270 0.34859
# Poissons Ratio (z) = 0.03204 1.03675
#
# Static dielectric constant tensor:
#      x y z
#    x 3.277450 0.000000 0.000000 
#    y 0.000000 4.601600 0.000000 
#    z 0.000000 0.000000 3.201510 
# 
# 
# High freq. dielectric constant tensor:
#      x y z
#    x 1.704510 0.000000 0.000000 
#    y 0.000000 1.748900 0.000000 
#    z 0.000000 0.000000 1.667730 
# 
# From -- ./inp_files/57019.got.cif
#   From: 2010.03.12/outbox.cif.g09.slc.cpg/sg74_29_cif.got.tgz:57019.got - 2010.04.16 15:46:19.
