data_PCOD8297593
_publ_section_title
;
Structure prediction by ZEFSAII (Michael W. Deem and Ramdas Pophale) SiO2 
 PCOD8297593
Probable space group: I M M A
;
_chemical_formula_sum "Si O2"
_cell_formula_units_Z 80
_cell_length_a 21.489548
_cell_length_b 9.648567
_cell_length_c 21.517149
_cell_angle_alpha 90.000000
_cell_angle_beta 90.000000
_cell_angle_gamma 90.000000
_cell_volume 4461.437620
_symmetry_space_group_name_H-M "I M M A"
_symmetry_group_IT_number 74
_symmetry_cell_setting 'orthorhombic'
loop_
_space_group_symop_operation_xyz
x,y,z
-x,1/2-y,z
x,-y,-z
-x,1/2+y,-z
-x,-y,-z
x,1/2+y,-z
-x,y,z
x,1/2-y,z
1/2+x,1/2+y,1/2+z
1/2-x,-y,1/2+z
1/2+x,1/2-y,1/2-z
1/2-x,y,1/2-z
1/2-x,1/2-y,1/2-z
1/2+x,y,1/2-z
1/2-x,1/2+y,1/2+z
1/2+x,-y,1/2+z
loop_
_atom_site_type_symbol
_atom_site_label
_atom_site_fract_x
_atom_site_fract_y
_atom_site_fract_z
Si Si1 0.144011 0.750000 0.602910
Si Si2 0.152732 0.475872 0.928147
Si Si3 0.116234 0.250000 0.542791
Si Si4 0.785397 0.250000 0.090176
Si Si5 0.572015 0.521928 0.128682
Si Si6 0.926186 0.250000 0.864004
Si Si7 0.073399 0.250000 0.724591
Si Si8 0.245568 0.250000 0.946098
O O1 0.125913 0.750000 0.530503
O O2 0.217264 0.750000 0.622255
O O3 0.114072 0.613672 0.632160
O O4 0.170134 0.619438 0.893751
O O5 0.096141 0.391618 0.897203
O O6 0.215255 0.387827 0.918830
O O7 0.134559 0.500000 0.000000
O O8 0.080779 0.111418 0.565248
O O9 0.183637 0.250000 0.574903
O O10 0.766303 0.250000 0.018886
O O11 0.500000 0.478363 0.133019
O O12 0.594430 0.613501 0.187263
O O13 0.898862 0.250000 0.793966
O O14 0.000000 0.250000 0.865917
O O15 0.000000 0.250000 0.728316
#
# Coordination Sequence:
#
# PCOD8297593 Si02
#       8
#     8  16   8   8  16   8   8   8
#     4  11  20  29  49  75 100 133 170 209 254 298
#     4   9  17  31  52  78 106 129 151 191 242 290
#     4  10  18  29  47  72 100 135 174 210 250 298
#     4   9  17  30  47  72 103 133 161 192 238 295
#     4  10  20  32  47  69 101 135 169 217 259 286
#     4  10  20  36  59  78  95 127 164 194 233 299
#     4   8  18  38  55  66  87 131 181 205 229 286
#     4   8  15  28  47  69  97 137 175 193 222 289
#
# _framework density 17.931439000000001
#
# number of rings (size 3 to 8) (size 9 to 14) (size 15 to 20)
#    0.000    2.600    0.000    3.600    0.000    6.000 
#    0.000    1.500    0.000   25.200    0.000    0.000 
#    0.000    0.000    0.000    0.000    0.000    0.000 
#
# Total GULP energy -495756.396301 kJ/mol
# GULP energy per Si atom -12393.909908 kJ/mol
# Density = 1.789063 g / cm^3
# Si number density = 17.931439 Si / 1000 Ang^3
#
#
#
# Elastic Constant Matrix: (Units=GPa)
#
#
# Indices 1 2 3 4 5 6 
#
# 1 96.1618 55.6589 31.4169 0.0000 0.0000 0.0000
# 2 55.6589 159.7742 42.7306 0.0000 0.0000 0.0000
# 3 31.4169 42.7306 81.4633 0.0000 0.0000 0.0000
# 4 0.0000 0.0000 0.0000 113.3107 0.0000 0.0000
# 5 0.0000 0.0000 0.0000 0.0000 11.2641 0.0000
# 6 0.0000 0.0000 0.0000 0.0000 0.0000 1.8499
#
#
#
# Elastic Compliance Matrix: (Units=1/GPa)
#
#
# Indices 1 2 3 4 5 6 
#
# 1 0.013723 -0.003914 -0.003239 0.000000 0.000000 0.000000
# 2 -0.003914 0.008397 -0.002895 0.000000 0.000000 0.000000
# 3 -0.003239 -0.002895 0.015043 0.000000 0.000000 0.000000
# 4 0.000000 0.000000 0.000000 0.008825 0.000000 0.000000
# 5 0.000000 0.000000 0.000000 0.000000 0.088778 0.000000
# 6 0.000000 0.000000 0.000000 0.000000 0.000000 0.540583
#
#
# Mechanical properties :
#
#
# Convention : Reuss Voigt Hill
#
# Bulk Modulus (GPa) = 58.59516 66.33468 62.46492
# Shear Modulus (GPa) = 7.13130 39.12445 23.12788
#
# Velocity S-wave (km/s) = 1.99640 4.67614 3.59527
# Velocity P-wave (km/s) = 6.16948 8.13811 7.22119
#
# Compressibility (1/GPa) = 0.01706626
#
# Stress axis : x y z
#
# Youngs Moduli (GPa) = 72.87041 119.09609 66.47562
#
# Poissons Ratio (x) = 0.46617 0.21533
# Poissons Ratio (y) = 0.28523 0.19243
# Poissons Ratio (z) = 0.23604 0.34476
#
# Static dielectric constant tensor:
#      x y z
#    x 3.257020 0.000000 0.000000 
#    y 0.000000 3.461430 0.000000 
#    z 0.000000 0.000000 3.194260 
# 
# 
# High freq. dielectric constant tensor:
#      x y z
#    x 1.687610 0.000000 0.000000 
#    y 0.000000 1.707710 0.000000 
#    z 0.000000 0.000000 1.653820 
# 
# From -- ./inp_files/61404.got.cif
#   From: 2010.03.12/outbox.cif.g09.slc.cpg/sg74_31_cif.got.tgz:61404.got - 2010.04.16 15:46:19.
