data_PCOD8297108
_publ_section_title
;
Structure prediction by ZEFSAII (Michael W. Deem and Ramdas Pophale) SiO2 
 PCOD8297108
Probable space group: I M M A
;
_chemical_formula_sum "Si O2"
_cell_formula_units_Z 80
_cell_length_a 14.486579
_cell_length_b 26.943988
_cell_length_c 13.061015
_cell_angle_alpha 90.000000
_cell_angle_beta 90.000000
_cell_angle_gamma 90.000000
_cell_volume 5098.056493
_symmetry_space_group_name_H-M "I M M A"
_symmetry_group_IT_number 74
_symmetry_cell_setting 'orthorhombic'
loop_
_space_group_symop_operation_xyz
x,y,z
-x,1/2-y,z
x,-y,-z
-x,1/2+y,-z
-x,-y,-z
x,1/2+y,-z
-x,y,z
x,1/2-y,z
1/2+x,1/2+y,1/2+z
1/2-x,-y,1/2+z
1/2+x,1/2-y,1/2-z
1/2-x,y,1/2-z
1/2-x,1/2-y,1/2-z
1/2+x,y,1/2-z
1/2-x,1/2+y,1/2+z
1/2+x,-y,1/2+z
loop_
_atom_site_type_symbol
_atom_site_label
_atom_site_fract_x
_atom_site_fract_y
_atom_site_fract_z
Si Si1 0.106474 0.945015 0.217332
Si Si2 0.000000 0.692499 0.054709
Si Si3 0.500000 0.306985 0.797623
Si Si4 0.315987 0.862088 0.162062
Si Si5 0.341733 0.621021 0.474555
Si Si6 0.103984 0.964731 0.902654
O O1 0.164148 0.920230 0.309815
O O2 0.114596 0.909216 0.119540
O O3 0.000000 0.947020 0.249903
O O4 0.141805 0.001197 0.191692
O O5 0.908312 0.667942 0.005802
O O6 0.000000 0.750000 0.024335
O O7 0.000000 0.685027 0.176714
O O8 0.500000 0.250000 0.829133
O O9 0.590255 0.331480 0.847820
O O10 0.250000 0.838179 0.250000
O O11 0.261785 0.860908 0.053857
O O12 0.336766 0.585142 0.574855
O O13 0.000000 0.947166 0.879146
O O14 0.104453 0.000000 0.000000
#
# Coordination Sequence:
#
# PCOD8297108 Si02
#       6
#    16   8   8  16  16  16
#     4   9  13  23  36  52  69  86 116 158 184 217
#     4  11  18  24  34  48  73  95 127 162 180 205
#     4  11  20  28  33  45  69  97 134 163 182 199
#     4  10  17  25  37  50  71  95 122 158 184 213
#     4  10  15  25  35  53  71  94 124 149 187 216
#     4   8  13  20  38  53  68  86 112 160 181 223
#
# _framework density 15.692254
#
# number of rings (size 3 to 8) (size 9 to 14) (size 15 to 20)
#    0.000    2.400    7.000    1.200    0.000    1.200 
#    0.000    0.000    0.000    0.000    0.000   18.900 
#    0.000    0.000    0.000    0.000    0.000   51.000 
#
# Total GULP energy -495540.724027 kJ/mol
# GULP energy per Si atom -12388.518101 kJ/mol
# Density = 1.565654 g / cm^3
# Si number density = 15.692254 Si / 1000 Ang^3
#
#
#
# Elastic Constant Matrix: (Units=GPa)
#
#
# Indices 1 2 3 4 5 6 
#
# 1 102.1443 53.7049 17.9908 0.0000 0.0000 0.0000
# 2 53.7049 113.6222 25.5531 0.0001 0.0000 0.0000
# 3 17.9908 25.5531 12.9272 -0.0003 0.0000 0.0000
# 4 0.0000 0.0001 -0.0003 17.2727 0.0000 0.0000
# 5 0.0000 0.0000 0.0000 0.0000 0.6262 0.0000
# 6 0.0000 0.0000 0.0000 0.0000 0.0000 11.8285
#
#
#
# Elastic Compliance Matrix: (Units=1/GPa)
#
#
# Indices 1 2 3 4 5 6 
#
# 1 0.013910 -0.003999 -0.011454 0.000000 -0.000001 0.000000
# 2 -0.003999 0.016994 -0.028028 0.000000 -0.000001 0.000000
# 3 -0.011454 -0.028028 0.148700 0.000002 0.000007 0.000000
# 4 0.000000 0.000000 0.000002 0.057895 0.000001 0.000000
# 5 -0.000001 -0.000001 0.000007 0.000001 1.596998 0.000002
# 6 0.000000 0.000000 0.000000 0.000000 0.000002 0.084542
#
#
# Mechanical properties :
#
#
# Convention : Reuss Voigt Hill
#
# Bulk Modulus (GPa) = 10.79416 47.02126 28.90771
# Shear Modulus (GPa) = 2.45473 14.70846 8.58159
#
# Velocity S-wave (km/s) = 1.25207 3.06487 2.34106
# Velocity P-wave (km/s) = 2.99731 6.52336 5.07632
#
# Compressibility (1/GPa) = 0.09264269
#
# Stress axis : x y z
#
# Youngs Moduli (GPa) = 71.89102 58.84260 6.72493
#
# Poissons Ratio (x) = 0.23529 0.07703
# Poissons Ratio (y) = 0.28747 0.18849
# Poissons Ratio (z) = 0.82347 1.64924
#
# Static dielectric constant tensor:
#      x y z
#    x 3.035560 0.000000 0.000000 
#    y 0.000000 3.183380 0.000000 
#    z 0.000000 0.000000 2.523770 
# 
# 
# High freq. dielectric constant tensor:
#      x y z
#    x 1.604050 0.000000 0.000000 
#    y 0.000000 1.594850 0.000000 
#    z 0.000000 0.000000 1.513920 
# 
# From -- ./inp_files/42907.got.cif
#   From: 2010.03.12/outbox.cif.g09.slc.cpg/sg74_22_cif.got.tgz:42907.got - 2010.04.16 15:46:19.
