data_PCOD8297152
_publ_section_title
;
Structure prediction by ZEFSAII (Michael W. Deem and Ramdas Pophale) SiO2 
 PCOD8297152
Probable space group: I M M A
;
_chemical_formula_sum "Si O2"
_cell_formula_units_Z 84
_cell_length_a 13.932931
_cell_length_b 22.091968
_cell_length_c 17.154857
_cell_angle_alpha 90.000000
_cell_angle_beta 90.000000
_cell_angle_gamma 90.000000
_cell_volume 5280.365612
_symmetry_space_group_name_H-M "I M M A"
_symmetry_group_IT_number 74
_symmetry_cell_setting 'orthorhombic'
loop_
_space_group_symop_operation_xyz
x,y,z
-x,1/2-y,z
x,-y,-z
-x,1/2+y,-z
-x,-y,-z
x,1/2+y,-z
-x,y,z
x,1/2-y,z
1/2+x,1/2+y,1/2+z
1/2-x,-y,1/2+z
1/2+x,1/2-y,1/2-z
1/2-x,y,1/2-z
1/2-x,1/2-y,1/2-z
1/2+x,y,1/2-z
1/2-x,1/2+y,1/2+z
1/2+x,-y,1/2+z
loop_
_atom_site_type_symbol
_atom_site_label
_atom_site_fract_x
_atom_site_fract_y
_atom_site_fract_z
Si Si1 0.500000 0.865655 0.330422
Si Si2 0.000000 0.250000 0.728113
Si Si3 0.301239 0.938795 0.546061
Si Si4 0.293658 0.250000 0.834778
Si Si5 0.000000 0.463323 0.081956
Si Si6 0.698409 0.504575 0.173577
Si Si7 0.500000 0.520846 0.246062
Si Si8 0.711343 0.625404 0.395637
O O1 0.500000 0.801502 0.291761
O O2 0.403482 0.875746 0.381446
O O3 0.500000 0.907180 0.253617
O O4 0.091310 0.250000 0.670842
O O5 0.403669 0.922236 0.586190
O O6 0.218184 0.953768 0.608022
O O7 0.269240 0.885756 0.487534
O O8 0.322006 0.000000 0.500000
O O9 0.250000 0.250000 0.750000
O O10 0.257996 0.189925 0.878021
O O11 0.000000 0.502122 0.162223
O O12 0.000000 0.500000 0.000000
O O13 0.750000 0.481194 0.250000
O O14 0.587029 0.501134 0.191900
O O15 0.737114 0.571998 0.153099
#
# Coordination Sequence:
#
# PCOD8297152 Si02
#       8
#     8   4  16   8   8  16   8  16
#     4  12  18  30  50  73  99 129 169 203 246 283
#     4  12  24  32  50  76 100 134 168 206 224 286
#     4   9  18  31  47  69  99 129 163 202 253 291
#     4  12  22  38  50  74 105 132 175 198 240 290
#     4  10  16  28  46  73  98 123 160 206 250 302
#     4  11  19  32  47  73 101 132 164 204 249 301
#     4  12  20  28  50  73 100 133 170 198 247 304
#     4  11  21  34  51  72 102 136 166 207 247 291
#
# _framework density 15.907989000000001
#
# number of rings (size 3 to 8) (size 9 to 14) (size 15 to 20)
#    0.000    1.143    5.714    4.571    0.000    0.000 
#    0.000    5.238    0.000    0.000    0.000    0.667 
#    0.000    0.000    0.000    0.000    0.000    0.000 
#
# Total GULP energy -520337.437431 kJ/mol
# GULP energy per Si atom -12388.986605 kJ/mol
# Density = 1.587178 g / cm^3
# Si number density = 15.907989 Si / 1000 Ang^3
#
#
#
# Elastic Constant Matrix: (Units=GPa)
#
#
# Indices 1 2 3 4 5 6 
#
# 1 145.0302 38.0714 66.2651 0.0000 0.0000 0.0000
# 2 38.0714 72.1708 57.4758 0.0000 0.0000 0.0000
# 3 66.2651 57.4758 108.9773 0.0003 0.0000 0.0001
# 4 0.0000 0.0000 0.0003 26.8569 0.0000 0.0000
# 5 0.0000 0.0000 0.0000 0.0000 25.6977 0.0000
# 6 0.0000 0.0000 0.0001 0.0000 0.0000 15.1119
#
#
#
# Elastic Compliance Matrix: (Units=1/GPa)
#
#
# Indices 1 2 3 4 5 6 
#
# 1 0.009569 -0.000714 -0.005442 0.000000 0.000000 0.000000
# 2 -0.000714 0.023944 -0.012194 0.000000 0.000000 0.000000
# 3 -0.005442 -0.012194 0.018917 0.000000 0.000000 0.000000
# 4 0.000000 0.000000 0.000000 0.037234 0.000000 0.000000
# 5 0.000000 0.000000 0.000000 0.000000 0.038914 0.000000
# 6 0.000000 0.000000 0.000000 0.000000 0.000000 0.066173
#
#
# Mechanical properties :
#
#
# Convention : Reuss Voigt Hill
#
# Bulk Modulus (GPa) = 63.57538 72.20032 67.88785
# Shear Modulus (GPa) = 21.12429 24.49104 22.80766
#
# Velocity S-wave (km/s) = 3.64800 3.92796 3.79056
# Velocity P-wave (km/s) = 7.60230 8.12752 7.86929
#
# Compressibility (1/GPa) = 0.01572936
#
# Stress axis : x y z
#
# Youngs Moduli (GPa) = 104.50390 41.76436 52.86331
#
# Poissons Ratio (x) = 0.02981 0.28769
# Poissons Ratio (y) = 0.07460 0.64463
# Poissons Ratio (z) = 0.56872 0.50928
#
# Static dielectric constant tensor:
#      x y z
#    x 3.252330 0.000000 0.000000 
#    y 0.000000 2.900010 0.000000 
#    z 0.000000 0.000000 3.123410 
# 
# 
# High freq. dielectric constant tensor:
#      x y z
#    x 1.627990 0.000000 0.000000 
#    y 0.000000 1.570620 0.000000 
#    z 0.000000 0.000000 1.603800 
# 
# From -- ./inp_files/41265.got.cif
#   From: 2010.03.12/outbox.cif.g09.slc.cpg/sg74_21_cif.got.tgz:41265.got - 2010.04.16 15:46:19.
