data_PCOD8297177
_publ_section_title
;
Structure prediction by ZEFSAII (Michael W. Deem and Ramdas Pophale) SiO2 
 PCOD8297177
Probable space group: I M M A
;
_chemical_formula_sum "Si O2"
_cell_formula_units_Z 88
_cell_length_a 25.248127
_cell_length_b 9.165725
_cell_length_c 20.129229
_cell_angle_alpha 90.000000
_cell_angle_beta 90.000000
_cell_angle_gamma 90.000000
_cell_volume 4658.253615
_symmetry_space_group_name_H-M "I M M A"
_symmetry_group_IT_number 74
_symmetry_cell_setting 'orthorhombic'
loop_
_space_group_symop_operation_xyz
x,y,z
-x,1/2-y,z
x,-y,-z
-x,1/2+y,-z
-x,-y,-z
x,1/2+y,-z
-x,y,z
x,1/2-y,z
1/2+x,1/2+y,1/2+z
1/2-x,-y,1/2+z
1/2+x,1/2-y,1/2-z
1/2-x,y,1/2-z
1/2-x,1/2-y,1/2-z
1/2+x,y,1/2-z
1/2-x,1/2+y,1/2+z
1/2+x,-y,1/2+z
loop_
_atom_site_type_symbol
_atom_site_label
_atom_site_fract_x
_atom_site_fract_y
_atom_site_fract_z
Si Si1 0.609309 0.577435 0.431188
Si Si2 0.750000 0.496875 0.750000
Si Si3 0.139729 0.587617 0.704311
Si Si4 0.227602 0.588526 0.106918
Si Si5 0.673095 0.076287 0.064850
Si Si6 0.060415 0.919552 0.811620
O O1 0.595925 0.500000 0.500000
O O2 0.600831 0.750000 0.437631
O O3 0.668391 0.536225 0.408191
O O4 0.568647 0.512798 0.377806
O O5 0.801405 0.594928 0.735198
O O6 0.763063 0.399059 0.813992
O O7 0.118522 0.750000 0.694842
O O8 0.141648 0.517276 0.630220
O O9 0.097800 0.510391 0.753556
O O10 0.238113 0.750000 0.077181
O O11 0.265759 0.472539 0.071475
O O12 0.670800 0.250000 0.058491
O O13 0.647577 0.000000 0.000000
O O14 0.075159 0.750000 0.825377
O O15 0.000000 0.935517 0.788246
#
# Coordination Sequence:
#
# PCOD8297177 Si02
#       6
#    16   8  16  16  16  16
#     4  11  23  38  55  79 108 144 183 225 270 317
#     4  10  16  30  52  80 111 140 171 222 263 322
#     4   9  18  32  53  82 109 139 176 217 269 321
#     4  10  20  32  50  78 112 146 179 217 264 318
#     4  10  20  33  51  77 111 147 180 215 261 318
#     4  10  21  39  61  82 105 137 180 228 271 317
#
# _framework density 18.891199
#
# number of rings (size 3 to 8) (size 9 to 14) (size 15 to 20)
#    0.000    2.000    1.818    2.182    0.000    4.364 
#    0.000    0.909    0.000    0.545    0.000    0.000 
#    0.000    0.000    0.000    0.000    0.000    0.727 
#
# Total GULP energy -545419.045686 kJ/mol
# GULP energy per Si atom -12395.887402 kJ/mol
# Density = 1.884820 g / cm^3
# Si number density = 18.891199 Si / 1000 Ang^3
#
#
#
# Elastic Constant Matrix: (Units=GPa)
#
#
# Indices 1 2 3 4 5 6 
#
# 1 88.5454 24.4531 56.6602 0.0000 0.0000 0.0000
# 2 24.4531 76.2036 40.8314 0.0000 0.0000 0.0000
# 3 56.6602 40.8314 153.4889 0.0000 0.0000 0.0000
# 4 0.0000 0.0000 0.0000 25.5955 0.0000 0.0000
# 5 0.0000 0.0000 0.0000 0.0000 20.5418 0.0000
# 6 0.0000 0.0000 0.0000 0.0000 0.0000 18.5644
#
#
#
# Elastic Compliance Matrix: (Units=1/GPa)
#
#
# Indices 1 2 3 4 5 6 
#
# 1 0.015087 -0.002166 -0.004993 0.000000 0.000000 0.000000
# 2 -0.002166 0.015615 -0.003354 0.000000 0.000000 0.000000
# 3 -0.004993 -0.003354 0.009251 0.000000 0.000000 0.000000
# 4 0.000000 0.000000 0.000000 0.039069 0.000000 0.000000
# 5 0.000000 0.000000 0.000000 0.000000 0.048681 0.000000
# 6 0.000000 0.000000 0.000000 0.000000 0.000000 0.053866
#
#
# Mechanical properties :
#
#
# Convention : Reuss Voigt Hill
#
# Bulk Modulus (GPa) = 52.83776 62.45857 57.64816
# Shear Modulus (GPa) = 23.93430 26.02656 24.98043
#
# Velocity S-wave (km/s) = 3.56329 3.71578 3.64033
# Velocity P-wave (km/s) = 6.70519 7.17937 6.94633
#
# Compressibility (1/GPa) = 0.01892586
#
# Stress axis : x y z
#
# Youngs Moduli (GPa) = 66.28279 64.04052 108.09998
#
# Poissons Ratio (x) = 0.13870 0.53976
# Poissons Ratio (y) = 0.14356 0.36262
# Poissons Ratio (z) = 0.33096 0.21482
#
# Static dielectric constant tensor:
#      x y z
#    x 3.262840 0.000000 0.000000 
#    y 0.000000 3.240740 0.000000 
#    z 0.000000 0.000000 3.795210 
# 
# 
# High freq. dielectric constant tensor:
#      x y z
#    x 1.703060 0.000000 0.000000 
#    y 0.000000 1.719060 0.000000 
#    z 0.000000 0.000000 1.749550 
# 
# From -- ./inp_files/48782.got.cif
#   From: 2010.03.12/outbox.cif.g09.slc.cpg/sg74_25_cif.got.tgz:48782.got - 2010.04.16 15:46:19.
