data_PCOD8297920
_publ_section_title
;
Structure prediction by ZEFSAII (Michael W. Deem and Ramdas Pophale) SiO2 
 PCOD8297920
Probable space group: I M M A
;
_chemical_formula_sum "Si O2"
_cell_formula_units_Z 72
_cell_length_a 8.873434
_cell_length_b 28.392444
_cell_length_c 16.899156
_cell_angle_alpha 90.000000
_cell_angle_beta 90.000000
_cell_angle_gamma 90.000000
_cell_volume 4257.547641
_symmetry_space_group_name_H-M "I M M A"
_symmetry_group_IT_number 74
_symmetry_cell_setting 'orthorhombic'
loop_
_space_group_symop_operation_xyz
x,y,z
-x,1/2-y,z
x,-y,-z
-x,1/2+y,-z
-x,-y,-z
x,1/2+y,-z
-x,y,z
x,1/2-y,z
1/2+x,1/2+y,1/2+z
1/2-x,-y,1/2+z
1/2+x,1/2-y,1/2-z
1/2-x,y,1/2-z
1/2-x,1/2-y,1/2-z
1/2+x,y,1/2-z
1/2-x,1/2+y,1/2+z
1/2+x,-y,1/2+z
loop_
_atom_site_type_symbol
_atom_site_label
_atom_site_fract_x
_atom_site_fract_y
_atom_site_fract_z
Si Si1 0.679298 0.750000 0.335831
Si Si2 0.669780 0.467204 0.923885
Si Si3 0.822889 0.608685 0.979393
Si Si4 0.328408 0.698419 0.033336
Si Si5 0.177276 0.045021 0.168622
O O1 0.500000 0.750000 0.331197
O O2 0.750000 0.750000 0.250000
O O3 0.739454 0.796501 0.382797
O O4 0.500000 0.455967 0.896326
O O5 0.756486 0.493802 0.853488
O O6 0.671407 0.500000 0.000000
O O7 0.754150 0.418827 0.945294
O O8 0.779142 0.583444 0.897474
O O9 0.000000 0.611168 0.990863
O O10 0.753572 0.660891 0.977063
O O11 0.500000 0.682472 0.049621
O O12 0.324982 0.750000 0.990615
O O13 0.250000 0.062840 0.250000
O O14 0.000000 0.039953 0.178345
#
# Coordination Sequence:
#
# PCOD8297920 Si02
#       5
#     8  16  16  16  16
#     4  10  18  32  52  74 101 130 161 200 246 292
#     4   9  17  30  49  71  97 130 165 203 247 297
#     4  10  19  32  52  76 101 132 170 210 250 299
#     4   9  19  33  51  76 102 133 172 209 248 298
#     4  10  20  33  50  74 103 134 169 208 253 301
#
# _framework density 16.911144
#
# number of rings (size 3 to 8) (size 9 to 14) (size 15 to 20)
#    0.667    1.778    0.000    3.333    0.000    5.333 
#    0.000    1.111    0.000    0.667    0.000    0.000 
#    0.000    0.000    0.000    0.000    0.000    0.000 
#
# Total GULP energy -446259.015094 kJ/mol
# GULP energy per Si atom -12396.083753 kJ/mol
# Density = 1.687265 g / cm^3
# Si number density = 16.911144 Si / 1000 Ang^3
#
#
#
# Elastic Constant Matrix: (Units=GPa)
#
#
# Indices 1 2 3 4 5 6 
#
# 1 131.6202 52.3421 54.9501 0.0000 0.0000 0.0000
# 2 52.3421 98.1791 44.7908 0.0000 0.0000 0.0000
# 3 54.9501 44.7908 85.4390 0.0001 0.0001 0.0000
# 4 0.0000 0.0000 0.0001 18.6931 0.0000 0.0000
# 5 0.0000 0.0000 0.0001 0.0000 29.8940 0.0000
# 6 0.0000 0.0000 0.0000 0.0000 0.0000 33.0843
#
#
#
# Elastic Compliance Matrix: (Units=1/GPa)
#
#
# Indices 1 2 3 4 5 6 
#
# 1 0.011253 -0.003546 -0.005379 0.000000 0.000000 0.000000
# 2 -0.003546 0.014504 -0.005323 0.000000 0.000000 0.000000
# 3 -0.005379 -0.005323 0.017954 0.000000 0.000000 0.000000
# 4 0.000000 0.000000 0.000000 0.053496 0.000000 0.000000
# 5 0.000000 0.000000 0.000000 0.000000 0.033452 0.000000
# 6 0.000000 0.000000 0.000000 0.000000 0.000000 0.030226
#
#
# Mechanical properties :
#
#
# Convention : Reuss Voigt Hill
#
# Bulk Modulus (GPa) = 65.71871 68.82270 67.27070
# Shear Modulus (GPa) = 25.71322 27.21132 26.46227
#
# Velocity S-wave (km/s) = 3.90358 4.01568 3.96003
# Velocity P-wave (km/s) = 7.69823 7.89214 7.79579
#
# Compressibility (1/GPa) = 0.01521637
#
# Stress axis : x y z
#
# Youngs Moduli (GPa) = 88.86399 68.94488 55.69666
#
# Poissons Ratio (x) = 0.24445 0.29958
# Poissons Ratio (y) = 0.31507 0.29650
# Poissons Ratio (z) = 0.47798 0.36703
#
# Static dielectric constant tensor:
#      x y z
#    x 3.321300 0.000000 0.000000 
#    y 0.000000 3.094640 0.000000 
#    z 0.000000 0.000000 2.939540 
# 
# 
# High freq. dielectric constant tensor:
#      x y z
#    x 1.675130 0.000000 0.000000 
#    y 0.000000 1.637900 0.000000 
#    z 0.000000 0.000000 1.621480 
# 
# From -- ./inp_files/37667.got.cif
#   From: 2010.03.12/outbox.cif.g09.slc.cpg/sg74_19_cif.got.tgz:37667.got - 2010.04.16 15:46:19.
