data_PCOD8297466
_publ_section_title
;
Structure prediction by ZEFSAII (Michael W. Deem and Ramdas Pophale) SiO2 
 PCOD8297466
Probable space group: I M M A
;
_chemical_formula_sum "Si O2"
_cell_formula_units_Z 72
_cell_length_a 8.985148
_cell_length_b 17.656558
_cell_length_c 28.030600
_cell_angle_alpha 90.000000
_cell_angle_beta 90.000000
_cell_angle_gamma 90.000000
_cell_volume 4446.964622
_symmetry_space_group_name_H-M "I M M A"
_symmetry_group_IT_number 74
_symmetry_cell_setting 'orthorhombic'
loop_
_space_group_symop_operation_xyz
x,y,z
-x,1/2-y,z
x,-y,-z
-x,1/2+y,-z
-x,-y,-z
x,1/2+y,-z
-x,y,z
x,1/2-y,z
1/2+x,1/2+y,1/2+z
1/2-x,-y,1/2+z
1/2+x,1/2-y,1/2-z
1/2-x,y,1/2-z
1/2-x,1/2-y,1/2-z
1/2+x,y,1/2-z
1/2-x,1/2+y,1/2+z
1/2+x,-y,1/2+z
loop_
_atom_site_type_symbol
_atom_site_label
_atom_site_fract_x
_atom_site_fract_y
_atom_site_fract_z
Si Si1 0.173301 0.398440 0.700270
Si Si2 0.170672 0.470525 0.604199
Si Si3 0.675179 0.665031 0.037652
Si Si4 0.678344 0.250000 0.697890
Si Si5 0.332172 0.930030 0.535718
O O1 0.250000 0.422975 0.750000
O O2 0.190586 0.465161 0.661471
O O3 0.255623 0.326604 0.675159
O O4 0.000000 0.379225 0.709834
O O5 0.226624 0.392356 0.579404
O O6 0.261103 0.543445 0.585896
O O7 0.000000 0.483579 0.590170
O O8 0.500000 0.663301 0.030728
O O9 0.729546 0.750000 0.050922
O O10 0.746536 0.640987 0.987035
O O11 0.500000 0.250000 0.697455
O O12 0.750000 0.250000 0.750000
O O13 0.500000 0.904926 0.545604
O O14 0.320131 0.000000 0.500000
#
# Coordination Sequence:
#
# PCOD8297466 Si02
#       5
#    16  16  16   8  16
#     4  10  19  30  44  60  83 112 146 186 220 254
#     4   9  18  30  46  63  83 115 151 182 213 255
#     4   9  17  29  46  65  85 112 147 182 213 253
#     4  10  18  28  40  54  76 108 142 178 218 254
#     4   9  17  29  44  62  87 113 138 175 221 263
#
# _framework density 16.190819999999999
#
# number of rings (size 3 to 8) (size 9 to 14) (size 15 to 20)
#    0.000    2.667    0.000    3.667    1.556    4.889 
#    0.000    0.000    0.000    0.000    0.000    0.000 
#    0.000    0.889    0.000    2.889    0.000    3.556 
#
# Total GULP energy -446163.847121 kJ/mol
# GULP energy per Si atom -12393.440198 kJ/mol
# Density = 1.615397 g / cm^3
# Si number density = 16.190820 Si / 1000 Ang^3
#
#
#
# Elastic Constant Matrix: (Units=GPa)
#
#
# Indices 1 2 3 4 5 6 
#
# 1 72.9079 15.2789 31.8874 0.0000 0.0000 0.0000
# 2 15.2789 34.0731 23.1590 0.0000 0.0000 0.0000
# 3 31.8874 23.1590 77.4915 0.0000 0.0000 0.0000
# 4 0.0000 0.0000 0.0000 22.8348 0.0000 0.0000
# 5 0.0000 0.0000 0.0000 0.0000 22.0450 0.0000
# 6 0.0000 0.0000 0.0000 0.0000 0.0000 17.7167
#
#
#
# Elastic Compliance Matrix: (Units=1/GPa)
#
#
# Indices 1 2 3 4 5 6 
#
# 1 0.017074 -0.003615 -0.005945 0.000000 0.000000 0.000000
# 2 -0.003615 0.037595 -0.009748 0.000000 0.000000 0.000000
# 3 -0.005945 -0.009748 0.018264 0.000000 0.000000 0.000000
# 4 0.000000 0.000000 0.000000 0.043793 0.000000 0.000000
# 5 0.000000 0.000000 0.000000 0.000000 0.045362 0.000000
# 6 0.000000 0.000000 0.000000 0.000000 0.000000 0.056444
#
#
# Mechanical properties :
#
#
# Convention : Reuss Voigt Hill
#
# Bulk Modulus (GPa) = 29.14059 36.12480 32.63270
# Shear Modulus (GPa) = 18.61586 20.12912 19.37249
#
# Velocity S-wave (km/s) = 3.39452 3.52979 3.46281
# Velocity P-wave (km/s) = 5.77936 6.24283 6.01556
#
# Compressibility (1/GPa) = 0.03431639
#
# Stress axis : x y z
#
# Youngs Moduli (GPa) = 58.56909 26.59899 54.75127
#
# Poissons Ratio (x) = 0.09616 0.32552
# Poissons Ratio (y) = 0.21174 0.53372
# Poissons Ratio (z) = 0.34822 0.25929
#
# Static dielectric constant tensor:
#      x y z
#    x 3.122930 0.000000 0.000000 
#    y 0.000000 3.077750 0.000000 
#    z 0.000000 0.000000 2.939890 
# 
# 
# High freq. dielectric constant tensor:
#      x y z
#    x 1.631430 0.000000 0.000000 
#    y 0.000000 1.579690 0.000000 
#    z 0.000000 0.000000 1.604530 
# 
# From -- ./inp_files/63836.got.cif
#   From: 2010.03.12/outbox.cif.g09.slc.cpg/sg74_32_cif.got.tgz:63836.got - 2010.04.16 15:46:19.
