data_PCOD8297933
_publ_section_title
;
Structure prediction by ZEFSAII (Michael W. Deem and Ramdas Pophale) SiO2 
 PCOD8297933
Probable space group: I M M A
;
_chemical_formula_sum "Si O2"
_cell_formula_units_Z 88
_cell_length_a 22.213893
_cell_length_b 8.740141
_cell_length_c 24.953800
_cell_angle_alpha 90.000000
_cell_angle_beta 90.000000
_cell_angle_gamma 90.000000
_cell_volume 4844.844076
_symmetry_space_group_name_H-M "I M M A"
_symmetry_group_IT_number 74
_symmetry_cell_setting 'orthorhombic'
loop_
_space_group_symop_operation_xyz
x,y,z
-x,1/2-y,z
x,-y,-z
-x,1/2+y,-z
-x,-y,-z
x,1/2+y,-z
-x,y,z
x,1/2-y,z
1/2+x,1/2+y,1/2+z
1/2-x,-y,1/2+z
1/2+x,1/2-y,1/2-z
1/2-x,y,1/2-z
1/2-x,1/2-y,1/2-z
1/2+x,y,1/2-z
1/2-x,1/2+y,1/2+z
1/2+x,-y,1/2+z
loop_
_atom_site_type_symbol
_atom_site_label
_atom_site_fract_x
_atom_site_fract_y
_atom_site_fract_z
Si Si1 0.292289 0.073236 0.634659
Si Si2 0.000000 0.431340 0.940538
Si Si3 0.381424 0.428955 0.442192
Si Si4 0.319972 0.083158 0.262139
Si Si5 0.568314 0.069522 0.056166
Si Si6 0.336101 0.430056 0.145150
O O1 0.300348 0.250000 0.620083
O O2 0.321964 0.965602 0.590640
O O3 0.326448 0.042226 0.691225
O O4 0.222352 0.030748 0.633332
O O5 0.939434 0.494613 0.912424
O O6 0.000000 0.250000 0.940916
O O7 0.000000 0.500000 0.000000
O O8 0.371870 0.500000 0.500000
O O9 0.391927 0.250000 0.447576
O O10 0.343570 0.250000 0.282050
O O11 0.250000 0.098844 0.250000
O O12 0.355043 0.036874 0.207246
O O13 0.500000 0.013651 0.068099
O O14 0.570716 0.250000 0.050318
O O15 0.610766 0.015811 0.105279
O O16 0.591716 0.000000 0.000000
O O17 0.321386 0.250000 0.138013
#
# Coordination Sequence:
#
# PCOD8297933 Si02
#       6
#    16   8  16  16  16  16
#     4  11  21  32  49  76 105 134 168 212 262 310
#     4  10  18  32  52  74  98 128 166 202 239 288
#     4  11  21  35  53  74 101 134 172 209 251 301
#     4   8  15  30  50  70  95 130 167 206 252 304
#     4   9  18  33  53  76 102 134 172 211 256 309
#     4   9  18  33  52  73 100 135 171 212 260 310
#
# _framework density 18.163640000000001
#
# number of rings (size 3 to 8) (size 9 to 14) (size 15 to 20)
#    0.000    2.364    0.000    6.273    0.000    4.727 
#    0.000    1.818    2.000    0.000    0.000    0.000 
#    0.000    0.000    0.000    0.000    0.000    0.000 
#
# Total GULP energy -545328.003017 kJ/mol
# GULP energy per Si atom -12393.818250 kJ/mol
# Density = 1.812230 g / cm^3
# Si number density = 18.163640 Si / 1000 Ang^3
#
#
#
# Elastic Constant Matrix: (Units=GPa)
#
#
# Indices 1 2 3 4 5 6 
#
# 1 70.5514 29.0990 53.8141 0.0000 0.0000 0.0000
# 2 29.0990 101.2503 31.7760 0.0000 0.0000 0.0000
# 3 53.8141 31.7760 108.3188 0.0000 0.0000 0.0000
# 4 0.0000 0.0000 0.0000 28.4321 0.0000 0.0000
# 5 0.0000 0.0000 0.0000 0.0000 24.1186 0.0000
# 6 0.0000 0.0000 0.0000 0.0000 0.0000 23.0256
#
#
#
# Elastic Compliance Matrix: (Units=1/GPa)
#
#
# Indices 1 2 3 4 5 6 
#
# 1 0.023873 -0.003457 -0.010846 0.000000 0.000000 0.000000
# 2 -0.003457 0.011379 -0.001620 0.000000 0.000000 0.000000
# 3 -0.010846 -0.001620 0.015096 0.000000 0.000000 0.000000
# 4 0.000000 0.000000 0.000000 0.035171 0.000000 0.000000
# 5 0.000000 0.000000 0.000000 0.000000 0.041462 0.000000
# 6 0.000000 0.000000 0.000000 0.000000 0.000000 0.043430
#
#
# Mechanical properties :
#
#
# Convention : Reuss Voigt Hill
#
# Bulk Modulus (GPa) = 54.05407 56.61096 55.33252
# Shear Modulus (GPa) = 23.98942 26.14402 25.06672
#
# Velocity S-wave (km/s) = 3.63814 3.79801 3.71893
# Velocity P-wave (km/s) = 6.89001 7.10408 6.99786
#
# Compressibility (1/GPa) = 0.01849999
#
# Stress axis : x y z
#
# Youngs Moduli (GPa) = 41.88812 87.88402 66.24293
#
# Poissons Ratio (x) = 0.30382 0.71849
# Poissons Ratio (y) = 0.14481 0.10734
# Poissons Ratio (z) = 0.45433 0.14241
#
# Static dielectric constant tensor:
#      x y z
#    x 3.576020 0.000000 0.000000 
#    y 0.000000 3.300530 0.000000 
#    z 0.000000 0.000000 3.545020 
# 
# 
# High freq. dielectric constant tensor:
#      x y z
#    x 1.682640 0.000000 0.000000 
#    y 0.000000 1.705130 0.000000 
#    z 0.000000 0.000000 1.696410 
# 
# From -- ./inp_files/68109.got.cif
#   From: 2010.03.12/outbox.cif.g09.slc.cpg/sg74_35_cif.got.tgz:68109.got - 2010.04.16 15:46:19.
