data_PCOD8297089
_publ_section_title
;
Structure prediction by ZEFSAII (Michael W. Deem and Ramdas Pophale) SiO2 
 PCOD8297089
Probable space group: I B C A 
;
_chemical_formula_sum "Si O2"
_cell_formula_units_Z 48
_cell_length_a 9.251995
_cell_length_b 8.158724
_cell_length_c 23.665007
_cell_angle_alpha 90.000000
_cell_angle_beta 90.000000
_cell_angle_gamma 90.000000
_cell_volume 1786.340597
_symmetry_space_group_name_H-M "I B C A "
_symmetry_group_IT_number 73
_symmetry_cell_setting 'orthorhombic'
loop_
_space_group_symop_operation_xyz
x,y,z
-x,1/2-y,z
x,-y,1/2-z
1/2-x,y,-z
-x,-y,-z
x,1/2+y,-z
-x,y,1/2+z
1/2+x,-y,z
1/2+x,1/2+y,1/2+z
1/2-x,-y,1/2+z
1/2+x,1/2-y,-z
-x,1/2+y,1/2-z
1/2-x,1/2-y,1/2-z
1/2+x,y,1/2-z
1/2-x,1/2+y,z
x,1/2-y,1/2+z
loop_
_atom_site_type_symbol
_atom_site_label
_atom_site_fract_x
_atom_site_fract_y
_atom_site_fract_z
Si Si1 0.652533 0.178131 0.701190
Si Si2 0.861761 0.633300 0.862014
Si Si3 0.393212 0.894040 0.463903
O O1 0.500000 0.250000 0.713422
O O2 0.750000 0.250000 0.750000
O O3 0.721773 0.248594 0.642221
O O4 0.635833 0.980784 0.695098
O O5 0.840592 0.513490 0.914210
O O6 0.000000 0.750000 0.866363
O O7 0.500000 0.750000 0.441740
O O8 0.250000 0.835093 0.500000
O O9 0.500000 0.000000 0.500000
#
# Coordination Sequence:
#
# PCOD8297089 Si02
#       3
#    16  16  16
#     4  12  28  52  84 124 170 225 288 362 446 534
#     4  12  29  53  84 123 174 230 292 363 445 535
#     4  12  30  53  85 127 181 237 308 379 455 536
#
# _framework density 26.870574999999999
#
# number of rings (size 3 to 8) (size 9 to 14) (size 15 to 20)
#    0.000    0.000    0.000    7.000   18.667    2.667 
#    0.000    1.667    0.000    0.000    0.000    0.000 
#    0.000    0.000    0.000    0.000    0.000    0.000 
#
# Total GULP energy -297432.556226 kJ/mol
# GULP energy per Si atom -12393.023176 kJ/mol
# Density = 2.680942 g / cm^3
# Si number density = 26.870575 Si / 1000 Ang^3
#
#
#
# Elastic Constant Matrix: (Units=GPa)
#
#
# Indices 1 2 3 4 5 6 
#
# 1 221.2294 70.3886 46.9026 0.0000 0.0000 0.0000
# 2 70.3886 170.4013 43.8234 0.0000 0.0000 0.0000
# 3 46.9026 43.8234 85.1284 0.0000 0.0000 0.0000
# 4 0.0000 0.0000 0.0000 49.5729 0.0000 0.0000
# 5 0.0000 0.0000 0.0000 0.0000 47.2635 0.0000
# 6 0.0000 0.0000 0.0000 0.0000 0.0000 65.6151
#
#
#
# Elastic Compliance Matrix: (Units=1/GPa)
#
#
# Indices 1 2 3 4 5 6 
#
# 1 0.005527 -0.001729 -0.002155 0.000000 0.000000 0.000000
# 2 -0.001729 0.007305 -0.002808 0.000000 0.000000 0.000000
# 3 -0.002155 -0.002808 0.014380 0.000000 0.000000 0.000000
# 4 0.000000 0.000000 0.000000 0.020172 0.000000 0.000000
# 5 0.000000 0.000000 0.000000 0.000000 0.021158 0.000000
# 6 0.000000 0.000000 0.000000 0.000000 0.000000 0.015240
#
#
# Mechanical properties :
#
#
# Convention : Reuss Voigt Hill
#
# Bulk Modulus (GPa) = 72.31798 88.77647 80.54722
# Shear Modulus (GPa) = 49.12751 53.53326 51.33038
#
# Velocity S-wave (km/s) = 4.28050 4.46832 4.37542
# Velocity P-wave (km/s) = 7.16953 7.72861 7.45431
#
# Compressibility (1/GPa) = 0.01382782
#
# Stress axis : x y z
#
# Youngs Moduli (GPa) = 180.92331 136.89669 69.54138
#
# Poissons Ratio (x) = 0.23668 0.14988
# Poissons Ratio (y) = 0.31279 0.19527
# Poissons Ratio (z) = 0.38994 0.38439
#
# Static dielectric constant tensor:
#      x y z
#    x 8.539400 0.000000 0.000000 
#    y 0.000000 5.590940 0.000000 
#    z 0.000000 0.000000 1.266530 
# 
# 
# High freq. dielectric constant tensor:
#      x y z
#    x 2.091400 0.000000 0.000000 
#    y 0.000000 2.112720 0.000000 
#    z 0.000000 0.000000 2.100260 
# 
# From -- ./inp_files/8175.got.cif
#   From: 2010.03.12/outbox.cif.g09.slc.cpg/sg73_5_cif.got.tgz:8175.got - 2010.04.16 15:25:48.
