data_PCOD8297542
_publ_section_title
;
Structure prediction by ZEFSAII (Michael W. Deem and Ramdas Pophale) SiO2 
 PCOD8297542
Probable space group: I M M A
;
_chemical_formula_sum "Si O2"
_cell_formula_units_Z 128
_cell_length_a 23.175139
_cell_length_b 20.653641
_cell_length_c 15.184634
_cell_angle_alpha 90.000000
_cell_angle_beta 90.000000
_cell_angle_gamma 90.000000
_cell_volume 7268.140264
_symmetry_space_group_name_H-M "I M M A"
_symmetry_group_IT_number 74
_symmetry_cell_setting 'orthorhombic'
loop_
_space_group_symop_operation_xyz
x,y,z
-x,1/2-y,z
x,-y,-z
-x,1/2+y,-z
-x,-y,-z
x,1/2+y,-z
-x,y,z
x,1/2-y,z
1/2+x,1/2+y,1/2+z
1/2-x,-y,1/2+z
1/2+x,1/2-y,1/2-z
1/2-x,y,1/2-z
1/2-x,1/2-y,1/2-z
1/2+x,y,1/2-z
1/2-x,1/2+y,1/2+z
1/2+x,-y,1/2+z
loop_
_atom_site_type_symbol
_atom_site_label
_atom_site_fract_x
_atom_site_fract_y
_atom_site_fract_z
Si Si1 0.936788 0.426188 0.976616
Si Si2 0.301648 0.434397 0.055987
Si Si3 0.612220 0.822683 0.979122
Si Si4 0.432252 0.436452 0.724755
Si Si5 0.566616 0.819875 0.165977
Si Si6 0.826977 0.061044 0.063695
Si Si7 0.934332 0.176500 0.291195
Si Si8 0.359730 0.942943 0.757316
O O1 0.916151 0.423476 0.875983
O O2 0.884384 0.603967 0.962815
O O3 0.000000 0.390938 0.990603
O O4 0.947661 0.500000 0.000000
O O5 0.337527 0.375455 0.016630
O O6 0.235790 0.408811 0.045733
O O7 0.317385 0.445722 0.158703
O O8 0.312271 0.500000 0.000000
O O9 0.639160 0.750000 0.978061
O O10 0.570848 0.832877 0.895942
O O11 0.572204 0.834266 0.062955
O O12 0.500000 0.442063 0.739106
O O13 0.403847 0.376396 0.777457
O O14 0.407421 0.501693 0.766895
O O15 0.500000 0.817503 0.191153
O O16 0.595045 0.750000 0.189456
O O17 0.825659 0.043316 0.166994
O O18 0.834238 0.000000 0.000000
O O19 0.917537 0.250000 0.263762
O O20 0.890464 0.126830 0.245449
O O21 0.000000 0.161204 0.263319
#
# Coordination Sequence:
#
# PCOD8297542 Si02
#       8
#    16  16  16  16  16  16  16  16
#     4   9  16  29  49  73  96 122 162 208 248 295
#     4  10  21  33  49  74 104 131 164 213 257 293
#     4   9  17  32  51  70  98 140 176 199 238 303
#     4  10  18  28  48  78 102 126 165 210 253 297
#     4   9  17  29  48  74 105 137 168 203 246 298
#     4  10  19  34  50  72  99 128 170 209 252 301
#     4   9  18  31  48  72 103 135 167 203 248 302
#     4  11  19  31  51  75 100 132 169 208 254 300
#
# _framework density 17.611108000000002
#
# number of rings (size 3 to 8) (size 9 to 14) (size 15 to 20)
#    0.000    2.375    2.500    1.875    0.000    2.000 
#    0.000    0.625    0.000   10.500    0.000    3.500 
#    0.000    0.000    0.000    0.000    0.000    0.000 
#
# Total GULP energy -792873.302426 kJ/mol
# GULP energy per Si atom -12388.645350 kJ/mol
# Density = 1.757102 g / cm^3
# Si number density = 17.611108 Si / 1000 Ang^3
#
#
#
# Elastic Constant Matrix: (Units=GPa)
#
#
# Indices 1 2 3 4 5 6 
#
# 1 88.1705 26.0639 12.9058 0.0000 0.0000 0.0000
# 2 26.0639 85.1317 29.7622 0.0000 0.0000 0.0000
# 3 12.9058 29.7622 78.0717 0.0000 0.0000 0.0000
# 4 0.0000 0.0000 0.0000 16.2849 0.0000 0.0000
# 5 0.0000 0.0000 0.0000 0.0000 18.8996 0.0000
# 6 0.0000 0.0000 0.0000 0.0000 0.0000 11.6404
#
#
#
# Elastic Compliance Matrix: (Units=1/GPa)
#
#
# Indices 1 2 3 4 5 6 
#
# 1 0.012503 -0.003583 -0.000701 0.000000 0.000000 0.000000
# 2 -0.003583 0.014579 -0.004966 0.000000 0.000000 0.000000
# 3 -0.000701 -0.004966 0.014818 0.000000 0.000000 0.000000
# 4 0.000000 0.000000 0.000000 0.061406 0.000000 0.000000
# 5 0.000000 0.000000 0.000000 0.000000 0.052911 0.000000
# 6 0.000000 0.000000 0.000000 0.000000 0.000000 0.085907
#
#
# Mechanical properties :
#
#
# Convention : Reuss Voigt Hill
#
# Bulk Modulus (GPa) = 42.73277 43.20419 42.96848
# Shear Modulus (GPa) = 18.62718 21.54114 20.08416
#
# Velocity S-wave (km/s) = 3.25575 3.50116 3.38068
# Velocity P-wave (km/s) = 6.20085 6.39764 6.30001
#
# Compressibility (1/GPa) = 0.02340125
#
# Stress axis : x y z
#
# Youngs Moduli (GPa) = 79.97808 68.58963 67.48734
#
# Poissons Ratio (x) = 0.24576 0.04731
# Poissons Ratio (y) = 0.28656 0.33512
# Poissons Ratio (z) = 0.05607 0.34059
#
# Static dielectric constant tensor:
#      x y z
#    x 3.521500 0.000000 0.000000 
#    y 0.000000 3.066420 0.000000 
#    z 0.000000 0.000000 3.219270 
# 
# 
# High freq. dielectric constant tensor:
#      x y z
#    x 1.672440 0.000000 0.000000 
#    y 0.000000 1.655260 0.000000 
#    z 0.000000 0.000000 1.685530 
# 
# From -- ./inp_files/46317.got.cif
#   From: 2010.03.12/outbox.cif.g09.slc.cpg/sg74_24_cif.got.tgz:46317.got - 2010.04.16 15:46:19.
