data_PCOD8297118
_publ_section_title
;
Structure prediction by ZEFSAII (Michael W. Deem and Ramdas Pophale) SiO2 
 PCOD8297118
Probable space group: I M M A
;
_chemical_formula_sum "Si O2"
_cell_formula_units_Z 96
_cell_length_a 14.376506
_cell_length_b 15.221691
_cell_length_c 25.264467
_cell_angle_alpha 90.000000
_cell_angle_beta 90.000000
_cell_angle_gamma 90.000000
_cell_volume 5528.742865
_symmetry_space_group_name_H-M "I M M A"
_symmetry_group_IT_number 74
_symmetry_cell_setting 'orthorhombic'
loop_
_space_group_symop_operation_xyz
x,y,z
-x,1/2-y,z
x,-y,-z
-x,1/2+y,-z
-x,-y,-z
x,1/2+y,-z
-x,y,z
x,1/2-y,z
1/2+x,1/2+y,1/2+z
1/2-x,-y,1/2+z
1/2+x,1/2-y,1/2-z
1/2-x,y,1/2-z
1/2-x,1/2-y,1/2-z
1/2+x,y,1/2-z
1/2-x,1/2+y,1/2+z
1/2+x,-y,1/2+z
loop_
_atom_site_type_symbol
_atom_site_label
_atom_site_fract_x
_atom_site_fract_y
_atom_site_fract_z
Si Si1 0.855514 0.750000 0.231657
Si Si2 0.390371 0.940494 0.158651
Si Si3 0.394878 0.560667 0.282567
Si Si4 0.599649 0.250000 0.846305
Si Si5 0.607421 0.650068 0.437165
Si Si6 0.394624 0.149249 0.439102
Si Si7 0.208816 0.496140 0.122638
O O1 0.750000 0.750000 0.250000
O O2 0.878231 0.838029 0.198508
O O3 0.920504 0.750000 0.283269
O O4 0.500000 0.956156 0.145647
O O5 0.370424 0.950943 0.220930
O O6 0.352943 0.843179 0.139868
O O7 0.322235 0.005365 0.126350
O O8 0.500000 0.532990 0.293982
O O9 0.330382 0.497290 0.317449
O O10 0.500000 0.250000 0.874972
O O11 0.500000 0.631493 0.422715
O O12 0.634587 0.750000 0.421800
O O13 0.623668 0.635263 0.499235
O O14 0.672649 0.581980 0.407437
O O15 0.500000 0.120104 0.425223
O O16 0.378917 0.250000 0.422948
O O17 0.321495 0.092150 0.406339
#
# Coordination Sequence:
#
# PCOD8297118 Si02
#       7
#     8  16  16   8  16  16  16
#     4  10  16  24  36  54  90 136 165 182 215 274
#     4   9  19  32  45  66 102 140 167 198 235 279
#     4  10  19  29  42  66 101 133 162 197 238 281
#     4   8  14  28  42  52  82 136 174 182 213 274
#     4   9  19  33  49  75 107 127 146 190 251 304
#     4   9  19  37  55  71  96 127 158 198 251 304
#     4  12  20  28  52  77  95 126 171 204 233 288
#
# _framework density 17.363803000000001
#
# number of rings (size 3 to 8) (size 9 to 14) (size 15 to 20)
#    0.000    2.333    0.000    7.250    2.333    1.333 
#    0.000    0.000    0.000    4.500    0.000    4.667 
#    0.000    0.000    0.000    0.000    0.000    0.000 
#
# Total GULP energy -594768.069238 kJ/mol
# GULP energy per Si atom -12391.001442 kJ/mol
# Density = 1.732428 g / cm^3
# Si number density = 17.363803 Si / 1000 Ang^3
#
#
#
# Elastic Constant Matrix: (Units=GPa)
#
#
# Indices 1 2 3 4 5 6 
#
# 1 111.1106 42.6665 41.8257 0.0000 0.0000 0.0000
# 2 42.6665 64.0537 33.7756 0.0000 0.0000 0.0000
# 3 41.8257 33.7756 43.6034 0.0000 0.0000 0.0000
# 4 0.0000 0.0000 0.0000 28.1763 0.0000 0.0000
# 5 0.0000 0.0000 0.0000 0.0000 21.9683 0.0000
# 6 0.0000 0.0000 0.0000 0.0000 0.0000 25.3236
#
#
#
# Elastic Compliance Matrix: (Units=1/GPa)
#
#
# Indices 1 2 3 4 5 6 
#
# 1 0.014661 -0.003973 -0.010986 0.000000 0.000000 0.000000
# 2 -0.003973 0.027468 -0.017466 0.000000 0.000000 0.000000
# 3 -0.010986 -0.017466 0.047002 0.000000 0.000000 0.000000
# 4 0.000000 0.000000 0.000000 0.035491 0.000000 0.000000
# 5 0.000000 0.000000 0.000000 0.000000 0.045520 0.000000
# 6 0.000000 0.000000 0.000000 0.000000 0.000000 0.039489
#
#
# Mechanical properties :
#
#
# Convention : Reuss Voigt Hill
#
# Bulk Modulus (GPa) = 41.18488 50.58925 45.88706
# Shear Modulus (GPa) = 17.69444 21.79362 19.74403
#
# Velocity S-wave (km/s) = 3.19571 3.54661 3.37572
# Velocity P-wave (km/s) = 6.11449 6.78007 6.45587
#
# Compressibility (1/GPa) = 0.02428076
#
# Stress axis : x y z
#
# Youngs Moduli (GPa) = 68.20767 36.40562 21.27591
#
# Poissons Ratio (x) = 0.14464 0.23373
# Poissons Ratio (y) = 0.27099 0.37161
# Poissons Ratio (z) = 0.74932 0.63587
#
# Static dielectric constant tensor:
#      x y z
#    x 3.176610 0.000000 0.000000 
#    y 0.000000 3.027250 0.000000 
#    z 0.000000 0.000000 3.029540 
# 
# 
# High freq. dielectric constant tensor:
#      x y z
#    x 1.669370 0.000000 0.000000 
#    y 0.000000 1.639150 0.000000 
#    z 0.000000 0.000000 1.647850 
# 
# From -- ./inp_files/60027.got.cif
#   From: 2010.03.12/outbox.cif.g09.slc.cpg/sg74_31_cif.got.tgz:60027.got - 2010.04.16 15:46:19.
