data_PCOD8297168
_publ_section_title
;
Structure prediction by ZEFSAII (Michael W. Deem and Ramdas Pophale) SiO2 
 PCOD8297168
Probable space group: I M M A
;
_chemical_formula_sum "Si O2"
_cell_formula_units_Z 128
_cell_length_a 18.027743
_cell_length_b 18.674745
_cell_length_c 21.666076
_cell_angle_alpha 90.000000
_cell_angle_beta 90.000000
_cell_angle_gamma 90.000000
_cell_volume 7294.177052
_symmetry_space_group_name_H-M "I M M A"
_symmetry_group_IT_number 74
_symmetry_cell_setting 'orthorhombic'
loop_
_space_group_symop_operation_xyz
x,y,z
-x,1/2-y,z
x,-y,-z
-x,1/2+y,-z
-x,-y,-z
x,1/2+y,-z
-x,y,z
x,1/2-y,z
1/2+x,1/2+y,1/2+z
1/2-x,-y,1/2+z
1/2+x,1/2-y,1/2-z
1/2-x,y,1/2-z
1/2-x,1/2-y,1/2-z
1/2+x,y,1/2-z
1/2-x,1/2+y,1/2+z
1/2+x,-y,1/2+z
loop_
_atom_site_type_symbol
_atom_site_label
_atom_site_fract_x
_atom_site_fract_y
_atom_site_fract_z
Si Si1 0.583017 0.671932 0.822902
Si Si2 0.674636 0.052059 0.553217
Si Si3 0.180041 0.131675 0.430512
Si Si4 0.187930 0.023419 0.627630
Si Si5 0.168042 0.445812 0.252704
Si Si6 0.417727 0.075721 0.966696
Si Si7 0.156861 0.831543 0.957306
Si Si8 0.586514 0.947436 0.627169
O O1 0.500000 0.649372 0.841604
O O2 0.584578 0.750000 0.790667
O O3 0.630034 0.677723 0.884951
O O4 0.611817 0.614031 0.775323
O O5 0.649040 0.127110 0.522964
O O6 0.710081 0.000000 0.500000
O O7 0.736904 0.064590 0.606431
O O8 0.601831 0.012484 0.579844
O O9 0.195504 0.055357 0.400302
O O10 0.136866 0.127292 0.495407
O O11 0.257012 0.172011 0.439611
O O12 0.175437 0.015127 0.701509
O O13 0.116402 0.065042 0.601474
O O14 0.250000 0.411150 0.250000
O O15 0.137451 0.467584 0.186006
O O16 0.500000 0.109477 0.960361
O O17 0.423291 0.000000 0.000000
O O18 0.127004 0.750000 0.963765
O O19 0.110508 0.872081 0.903743
O O20 0.500000 0.944724 0.644694
#
# Coordination Sequence:
#
# PCOD8297168 Si02
#       8
#    16  16  16  16  16  16  16  16
#     4  10  21  33  44  64 102 146 181 215 257 310
#     4  10  17  35  57  78 105 141 181 224 277 327
#     4  10  16  29  49  71 104 137 179 216 259 315
#     4  10  16  30  52  74 100 138 174 223 260 318
#     4  11  21  34  55  75  99 137 181 227 267 321
#     4   9  16  24  43  74 102 131 167 220 276 311
#     4  11  22  35  57  83 109 144 185 227 273 327
#     4  11  23  38  56  80 111 145 183 228 280 327
#
# _framework density 17.548244
#
# number of rings (size 3 to 8) (size 9 to 14) (size 15 to 20)
#    0.000    1.750    5.000    2.250    0.000    6.750 
#    0.000    0.000    0.000    0.000    0.000    1.750 
#    0.000    0.000    0.000    0.000    0.000    0.000 
#
# Total GULP energy -793285.789056 kJ/mol
# GULP energy per Si atom -12395.090454 kJ/mol
# Density = 1.750830 g / cm^3
# Si number density = 17.548244 Si / 1000 Ang^3
#
#
#
# Elastic Constant Matrix: (Units=GPa)
#
#
# Indices 1 2 3 4 5 6 
#
# 1 100.1813 16.2091 28.3901 0.0000 0.0000 0.0000
# 2 16.2091 44.9429 37.4656 0.0000 0.0000 0.0000
# 3 28.3901 37.4656 94.8822 0.0000 0.0000 0.0000
# 4 0.0000 0.0000 0.0000 8.1648 0.0000 0.0000
# 5 0.0000 0.0000 0.0000 0.0000 24.7734 0.0000
# 6 0.0000 0.0000 0.0000 0.0000 0.0000 24.8470
#
#
#
# Elastic Compliance Matrix: (Units=1/GPa)
#
#
# Indices 1 2 3 4 5 6 
#
# 1 0.011006 -0.001825 -0.002573 0.000000 0.000000 0.000000
# 2 -0.001825 0.033471 -0.012670 0.000000 0.000000 0.000000
# 3 -0.002573 -0.012670 0.016312 0.000000 0.000000 0.000000
# 4 0.000000 0.000000 0.000000 0.122478 0.000000 0.000000
# 5 0.000000 0.000000 0.000000 0.000000 0.040366 0.000000
# 6 0.000000 0.000000 0.000000 0.000000 0.000000 0.040246
#
#
# Mechanical properties :
#
#
# Convention : Reuss Voigt Hill
#
# Bulk Modulus (GPa) = 37.51846 44.90399 41.21122
# Shear Modulus (GPa) = 16.29196 22.08648 19.18922
#
# Velocity S-wave (km/s) = 3.05029 3.55154 3.31042
# Velocity P-wave (km/s) = 5.81655 6.51632 6.17635
#
# Compressibility (1/GPa) = 0.02665355
#
# Stress axis : x y z
#
# Youngs Moduli (GPa) = 90.85772 29.87654 61.30357
#
# Poissons Ratio (x) = 0.05452 0.15771
# Poissons Ratio (y) = 0.16581 0.77675
# Poissons Ratio (z) = 0.23374 0.37855
#
# Static dielectric constant tensor:
#      x y z
#    x 3.338970 0.000000 0.000000 
#    y 0.000000 2.923300 0.000000 
#    z 0.000000 0.000000 3.392140 
# 
# 
# High freq. dielectric constant tensor:
#      x y z
#    x 1.689190 0.000000 0.000000 
#    y 0.000000 1.628420 0.000000 
#    z 0.000000 0.000000 1.668580 
# 
# From -- ./inp_files/53448.got.cif
#   From: 2010.03.12/outbox.cif.g09.slc.cpg/sg74_27_cif.got.tgz:53448.got - 2010.04.16 15:46:19.
