data_PCOD8297964
_publ_section_title
;
Structure prediction by ZEFSAII (Michael W. Deem and Ramdas Pophale) SiO2 
 PCOD8297964
Probable space group: I M M A
;
_chemical_formula_sum "Si O2"
_cell_formula_units_Z 56
_cell_length_a 17.938172
_cell_length_b 8.197282
_cell_length_c 18.286312
_cell_angle_alpha 90.000000
_cell_angle_beta 90.000000
_cell_angle_gamma 90.000000
_cell_volume 2688.897115
_symmetry_space_group_name_H-M "I M M A"
_symmetry_group_IT_number 74
_symmetry_cell_setting 'orthorhombic'
loop_
_space_group_symop_operation_xyz
x,y,z
-x,1/2-y,z
x,-y,-z
-x,1/2+y,-z
-x,-y,-z
x,1/2+y,-z
-x,y,z
x,1/2-y,z
1/2+x,1/2+y,1/2+z
1/2-x,-y,1/2+z
1/2+x,1/2-y,1/2-z
1/2-x,y,1/2-z
1/2-x,1/2-y,1/2-z
1/2+x,y,1/2-z
1/2-x,1/2+y,1/2+z
1/2+x,-y,1/2+z
loop_
_atom_site_type_symbol
_atom_site_label
_atom_site_fract_x
_atom_site_fract_y
_atom_site_fract_z
Si Si1 0.416084 0.443621 0.580638
Si Si2 0.718320 0.937660 0.324321
Si Si3 0.847146 0.059888 0.418107
Si Si4 0.500000 0.443471 0.916778
O O1 0.390885 0.500000 0.500000
O O2 0.500000 0.506993 0.598187
O O3 0.413096 0.250000 0.581516
O O4 0.358386 0.514206 0.641997
O O5 0.702067 0.750000 0.306673
O O6 0.750000 0.024189 0.250000
O O7 0.781819 0.953642 0.384381
O O8 0.828618 0.250000 0.411782
O O9 0.854746 0.000000 0.500000
O O10 0.925906 0.017313 0.378219
O O11 0.500000 0.250000 0.910300
O O12 0.500000 0.500000 0.000000
#
# Coordination Sequence:
#
# PCOD8297964 Si02
#       4
#    16  16  16   8
#     4   9  18  34  57  82 108 140 185 237 284 332
#     4  10  21  37  54  79 114 149 188 231 283 344
#     4  11  21  35  56  81 111 145 187 232 280 332
#     4  10  18  32  54  80 108 138 177 222 271 322
#
# _framework density 20.826381000000001
#
# number of rings (size 3 to 8) (size 9 to 14) (size 15 to 20)
#    0.000    2.000    0.000    6.429    0.000    4.000 
#    2.571    0.000    0.000    0.000    0.000    0.000 
#    0.000    0.000    0.000    0.000    0.000    0.000 
#
# Total GULP energy -346981.585795 kJ/mol
# GULP energy per Si atom -12392.199493 kJ/mol
# Density = 2.077898 g / cm^3
# Si number density = 20.826381 Si / 1000 Ang^3
#
#
#
# Elastic Constant Matrix: (Units=GPa)
#
#
# Indices 1 2 3 4 5 6 
#
# 1 174.0867 -1.5767 79.7050 0.0000 0.0000 0.0000
# 2 -1.5767 39.8787 9.2090 0.0000 0.0000 0.0000
# 3 79.7050 9.2090 99.5322 0.0000 0.0000 0.0000
# 4 0.0000 0.0000 0.0000 18.4176 0.0000 0.0000
# 5 0.0000 0.0000 0.0000 0.0000 28.8684 0.0000
# 6 0.0000 0.0000 0.0000 0.0000 0.0000 19.3017
#
#
#
# Elastic Compliance Matrix: (Units=1/GPa)
#
#
# Indices 1 2 3 4 5 6 
#
# 1 0.009242 0.002120 -0.007597 0.000000 0.000000 0.000000
# 2 0.002120 0.026110 -0.004113 0.000000 0.000000 0.000000
# 3 -0.007597 -0.004113 0.016511 0.000000 0.000000 0.000000
# 4 0.000000 0.000000 0.000000 0.054296 0.000000 0.000000
# 5 0.000000 0.000000 0.000000 0.000000 0.034640 0.000000
# 6 0.000000 0.000000 0.000000 0.000000 0.000000 0.051809
#
#
# Mechanical properties :
#
#
# Convention : Reuss Voigt Hill
#
# Bulk Modulus (GPa) = 30.59808 54.24137 42.41972
# Shear Modulus (GPa) = 22.45358 28.39489 25.42424
#
# Velocity S-wave (km/s) = 3.28705 3.69644 3.49774
# Velocity P-wave (km/s) = 5.39724 6.65728 6.06010
#
# Compressibility (1/GPa) = 0.03268179
#
# Stress axis : x y z
#
# Youngs Moduli (GPa) = 108.20608 38.29995 60.56548
#
# Poissons Ratio (x) = -0.08118 0.46010
# Poissons Ratio (y) = -0.22936 0.24912
# Poissons Ratio (z) = 0.82202 0.15754
#
# Static dielectric constant tensor:
#      x y z
#    x 4.854110 0.000000 0.000000 
#    y 0.000000 3.522080 0.000000 
#    z 0.000000 0.000000 3.632070 
# 
# 
# High freq. dielectric constant tensor:
#      x y z
#    x 1.842180 0.000000 0.000000 
#    y 0.000000 1.795910 0.000000 
#    z 0.000000 0.000000 1.782390 
# 
# From -- ./inp_files/28525.got.cif
#   From: 2010.03.12/outbox.cif.g09.slc.cpg/sg74_15_cif.got.tgz:28525.got - 2010.04.16 15:46:19.
