data_PCOD8297056
_publ_section_title
;
Structure prediction by ZEFSAII (Michael W. Deem and Ramdas Pophale) SiO2 
 PCOD8297056
Probable space group: I B C A 
;
_chemical_formula_sum "Si O2"
_cell_formula_units_Z 64
_cell_length_a 5.227363
_cell_length_b 19.721409
_cell_length_c 24.465392
_cell_angle_alpha 90.000000
_cell_angle_beta 90.000000
_cell_angle_gamma 90.000000
_cell_volume 2522.160839
_symmetry_space_group_name_H-M "I B C A "
_symmetry_group_IT_number 73
_symmetry_cell_setting 'orthorhombic'
loop_
_space_group_symop_operation_xyz
x,y,z
-x,1/2-y,z
x,-y,1/2-z
1/2-x,y,-z
-x,-y,-z
x,1/2+y,-z
-x,y,1/2+z
1/2+x,-y,z
1/2+x,1/2+y,1/2+z
1/2-x,-y,1/2+z
1/2+x,1/2-y,-z
-x,1/2+y,1/2-z
1/2-x,1/2-y,1/2-z
1/2+x,y,1/2-z
1/2-x,1/2+y,z
x,1/2-y,1/2+z
loop_
_atom_site_type_symbol
_atom_site_label
_atom_site_fract_x
_atom_site_fract_y
_atom_site_fract_z
Si Si1 0.998332 0.610465 0.021107
Si Si2 0.003150 0.356533 0.784806
Si Si3 0.546360 0.957340 0.371416
Si Si4 0.500000 0.750000 0.378262
Si Si5 0.500000 0.750000 0.046446
O O1 0.993205 0.607119 0.087088
O O2 0.750000 0.569696 0.000000
O O3 0.988754 0.685843 0.994450
O O4 0.250000 0.571808 0.000000
O O5 0.726984 0.342479 0.758567
O O6 0.043949 0.312189 0.838015
O O7 0.021129 0.432799 0.808641
O O8 0.327809 0.012891 0.381899
O O9 0.751584 0.742367 0.415723
#
# Coordination Sequence:
#
# PCOD8297056 Si02
#       5
#    16  16  16   8   8
#     4  12  25  44  69 103 139 184 232 277 341 409
#     4  12  26  48  76 103 136 179 230 290 353 410
#     4  12  28  47  69 102 141 184 236 288 335 399
#     4  12  26  48  74 108 144 173 226 289 350 416
#     4  12  24  44  74 104 142 185 224 273 344 424
#
# _framework density 25.375064999999999
#
# number of rings (size 3 to 8) (size 9 to 14) (size 15 to 20)
#    0.000    0.000    0.000   10.500    0.000    7.000 
#    0.000    0.000    0.000    0.000    0.000    0.000 
#    0.000    0.000    0.000    0.000    0.000    0.000 
#
# Total GULP energy -396486.483916 kJ/mol
# GULP energy per Si atom -12390.202622 kJ/mol
# Density = 2.531731 g / cm^3
# Si number density = 25.375065 Si / 1000 Ang^3
#
#
#
# Elastic Constant Matrix: (Units=GPa)
#
#
# Indices 1 2 3 4 5 6 
#
# 1 192.2135 9.2063 34.2859 0.0000 0.0000 0.0000
# 2 9.2063 66.9249 46.5712 0.0000 0.0000 0.0000
# 3 34.2859 46.5712 124.2924 0.0000 0.0000 0.0000
# 4 0.0000 0.0000 0.0000 60.6212 0.0000 0.0000
# 5 0.0000 0.0000 0.0000 0.0000 54.5693 0.0000
# 6 0.0000 0.0000 0.0000 0.0000 0.0000 44.2910
#
#
#
# Elastic Compliance Matrix: (Units=1/GPa)
#
#
# Indices 1 2 3 4 5 6 
#
# 1 0.005480 0.000403 -0.001663 0.000000 0.000000 0.000000
# 2 0.000403 0.020242 -0.007696 0.000000 0.000000 0.000000
# 3 -0.001663 -0.007696 0.011388 0.000000 0.000000 0.000000
# 4 0.000000 0.000000 0.000000 0.016496 0.000000 0.000000
# 5 0.000000 0.000000 0.000000 0.000000 0.018325 0.000000
# 6 0.000000 0.000000 0.000000 0.000000 0.000000 0.022578
#
#
# Mechanical properties :
#
#
# Convention : Reuss Voigt Hill
#
# Bulk Modulus (GPa) = 52.08582 62.61750 57.35166
# Shear Modulus (GPa) = 42.08098 51.45410 46.76754
#
# Velocity S-wave (km/s) = 4.07671 4.50793 4.29773
# Velocity P-wave (km/s) = 6.53685 7.19900 6.87590
#
# Compressibility (1/GPa) = 0.01919908
#
# Stress axis : x y z
#
# Youngs Moduli (GPa) = 182.48791 49.40259 87.81413
#
# Poissons Ratio (x) = -0.01992 0.14601
# Poissons Ratio (y) = -0.07358 0.67579
# Poissons Ratio (z) = 0.30342 0.38019
#
# Static dielectric constant tensor:
#      x y z
#    x 6.579710 0.000000 0.000000 
#    y 0.000000 4.492060 0.000000 
#    z 0.000000 0.000000 4.975630 
# 
# 
# High freq. dielectric constant tensor:
#      x y z
#    x 2.043950 0.000000 0.000000 
#    y 0.000000 2.009160 0.000000 
#    z 0.000000 0.000000 2.036770 
# 
# From -- ./inp_files/24404.got.cif
#   From: 2010.03.12/outbox.cif.g09.slc.cpg/sg73_13_cif.got.tgz:24404.got - 2010.04.16 15:25:48.
