data_PCOD8297258
_publ_section_title
;
Structure prediction by ZEFSAII (Michael W. Deem and Ramdas Pophale) SiO2 
 PCOD8297258
Probable space group: I M M A
;
_chemical_formula_sum "Si O2"
_cell_formula_units_Z 120
_cell_length_a 16.864717
_cell_length_b 23.138294
_cell_length_c 20.668282
_cell_angle_alpha 90.000000
_cell_angle_beta 90.000000
_cell_angle_gamma 90.000000
_cell_volume 8065.193127
_symmetry_space_group_name_H-M "I M M A"
_symmetry_group_IT_number 74
_symmetry_cell_setting 'orthorhombic'
loop_
_space_group_symop_operation_xyz
x,y,z
-x,1/2-y,z
x,-y,-z
-x,1/2+y,-z
-x,-y,-z
x,1/2+y,-z
-x,y,z
x,1/2-y,z
1/2+x,1/2+y,1/2+z
1/2-x,-y,1/2+z
1/2+x,1/2-y,1/2-z
1/2-x,y,1/2-z
1/2-x,1/2-y,1/2-z
1/2+x,y,1/2-z
1/2-x,1/2+y,1/2+z
1/2+x,-y,1/2+z
loop_
_atom_site_type_symbol
_atom_site_label
_atom_site_fract_x
_atom_site_fract_y
_atom_site_fract_z
Si Si1 0.190308 0.000000 0.500000
Si Si2 0.407596 0.185547 0.774322
Si Si3 0.313327 0.185020 0.904945
Si Si4 0.908706 0.685770 0.533726
Si Si5 0.176067 0.001895 0.291788
Si Si6 0.593373 0.071785 0.102901
Si Si7 0.591822 0.924224 0.305478
Si Si8 0.731912 0.928315 0.392946
O O1 0.131891 0.963453 0.544564
O O2 0.250535 0.959755 0.460230
O O3 0.500000 0.177518 0.786494
O O4 0.387380 0.250000 0.747633
O O5 0.368561 0.175491 0.843358
O O6 0.379076 0.137947 0.722434
O O7 0.279031 0.250000 0.907339
O O8 0.241213 0.140429 0.901310
O O9 0.362349 0.169968 0.968929
O O10 0.886184 0.750000 0.559249
O O11 0.890477 0.639793 0.590467
O O12 0.000000 0.682612 0.513724
O O13 0.250000 0.026312 0.250000
O O14 0.136084 0.054938 0.330069
O O15 0.108428 0.973759 0.247230
O O16 0.207009 0.951889 0.339349
O O17 0.500000 0.057553 0.106527
O O18 0.500000 0.924338 0.324448
O O19 0.641571 0.938353 0.370209
#
# Coordination Sequence:
#
# PCOD8297258 Si02
#       8
#     8  16  16  16  16  16  16  16
#     4  10  19  32  43  62  92 114 140 184 217 258
#     4   9  17  27  40  60  87 120 152 182 214 245
#     4  10  17  27  42  61  88 120 152 178 207 255
#     4   9  17  28  42  64  94 121 143 172 211 256
#     4   9  18  31  45  63  89 116 144 174 214 258
#     4  10  18  28  46  69  90 115 144 174 214 261
#     4  10  19  31  45  60  84 114 147 186 217 251
#     4  10  19  31  44  63  84 114 146 176 222 260
#
# _framework density 14.87875
#
# number of rings (size 3 to 8) (size 9 to 14) (size 15 to 20)
#    0.000    2.400    2.667    1.000    0.000    2.133 
#    0.000    1.667    0.000    0.400    0.000    0.000 
#    0.000    0.000    0.000    0.000    0.000    0.000 
#
# Total GULP energy -743804.319390 kJ/mol
# GULP energy per Si atom -12396.738657 kJ/mol
# Density = 1.484489 g / cm^3
# Si number density = 14.878750 Si / 1000 Ang^3
#
#
#
# Elastic Constant Matrix: (Units=GPa)
#
#
# Indices 1 2 3 4 5 6 
#
# 1 69.6457 42.8989 43.8002 0.0000 0.0000 0.0000
# 2 42.8989 80.0118 43.6297 0.0000 0.0000 0.0000
# 3 43.8002 43.6297 71.6493 -0.0001 0.0000 0.0000
# 4 0.0000 0.0000 -0.0001 22.7774 0.0000 0.0000
# 5 0.0000 0.0000 0.0000 0.0000 24.8980 0.0000
# 6 0.0000 0.0000 0.0000 0.0000 0.0000 17.8455
#
#
#
# Elastic Compliance Matrix: (Units=1/GPa)
#
#
# Indices 1 2 3 4 5 6 
#
# 1 0.026355 -0.008002 -0.011239 0.000000 0.000000 0.000000
# 2 -0.008002 0.021141 -0.007981 0.000000 0.000000 0.000000
# 3 -0.011239 -0.007981 0.025687 0.000000 0.000000 0.000000
# 4 0.000000 0.000000 0.000000 0.043903 0.000000 0.000000
# 5 0.000000 0.000000 0.000000 0.000000 0.040164 0.000000
# 6 0.000000 0.000000 0.000000 0.000000 0.000000 0.056036
#
#
# Mechanical properties :
#
#
# Convention : Reuss Voigt Hill
#
# Bulk Modulus (GPa) = 53.36482 53.55162 53.45822
# Shear Modulus (GPa) = 18.24963 19.16939 18.70951
#
# Velocity S-wave (km/s) = 3.50602 3.59329 3.54992
# Velocity P-wave (km/s) = 7.23422 7.29971 7.26704
#
# Compressibility (1/GPa) = 0.01873894
#
# Stress axis : x y z
#
# Youngs Moduli (GPa) = 37.94279 47.30164 38.92977
#
# Poissons Ratio (x) = 0.37853 0.43751
# Poissons Ratio (y) = 0.30363 0.31072
# Poissons Ratio (z) = 0.42642 0.37754
#
# Static dielectric constant tensor:
#      x y z
#    x 2.702490 0.000000 0.000000 
#    y 0.000000 3.037640 0.000000 
#    z 0.000000 0.000000 2.776490 
# 
# 
# High freq. dielectric constant tensor:
#      x y z
#    x 1.554660 0.000000 0.000000 
#    y 0.000000 1.569770 0.000000 
#    z 0.000000 0.000000 1.549130 
# 
# From -- ./inp_files/52404.got.cif
#   From: 2010.03.12/outbox.cif.g09.slc.cpg/sg74_27_cif.got.tgz:52404.got - 2010.04.16 15:46:19.
