data_PCOD8297127
_publ_section_title
;
Structure prediction by ZEFSAII (Michael W. Deem and Ramdas Pophale) SiO2 
 PCOD8297127
Probable space group: I M M A
;
_chemical_formula_sum "Si O2"
_cell_formula_units_Z 112
_cell_length_a 27.415317
_cell_length_b 13.826282
_cell_length_c 16.581782
_cell_angle_alpha 90.000000
_cell_angle_beta 90.000000
_cell_angle_gamma 90.000000
_cell_volume 6285.356038
_symmetry_space_group_name_H-M "I M M A"
_symmetry_group_IT_number 74
_symmetry_cell_setting 'orthorhombic'
loop_
_space_group_symop_operation_xyz
x,y,z
-x,1/2-y,z
x,-y,-z
-x,1/2+y,-z
-x,-y,-z
x,1/2+y,-z
-x,y,z
x,1/2-y,z
1/2+x,1/2+y,1/2+z
1/2-x,-y,1/2+z
1/2+x,1/2-y,1/2-z
1/2-x,y,1/2-z
1/2-x,1/2-y,1/2-z
1/2+x,y,1/2-z
1/2-x,1/2+y,1/2+z
1/2+x,-y,1/2+z
loop_
_atom_site_type_symbol
_atom_site_label
_atom_site_fract_x
_atom_site_fract_y
_atom_site_fract_z
Si Si1 0.910387 0.642064 0.958131
Si Si2 0.187575 0.457403 0.821439
Si Si3 0.052722 0.638397 0.284286
Si Si4 0.258596 0.138126 0.941685
Si Si5 0.918919 0.549980 0.122741
Si Si6 0.800974 0.358987 0.088905
Si Si7 0.843356 0.637582 0.336555
O O1 0.928206 0.750000 0.934274
O O2 0.929510 0.563985 0.892938
O O3 0.851598 0.637217 0.960501
O O4 0.932911 0.613863 0.044887
O O5 0.230469 0.400230 0.864162
O O6 0.137532 0.427499 0.863291
O O7 0.197073 0.572850 0.832173
O O8 0.184751 0.430030 0.727619
O O9 0.058107 0.750000 0.260833
O O10 0.050813 0.579369 0.201015
O O11 0.098919 0.608541 0.340781
O O12 0.000000 0.619415 0.327788
O O13 0.245747 0.250000 0.948627
O O14 0.316560 0.120670 0.923120
O O15 0.240637 0.096180 0.028154
O O16 0.789275 0.250000 0.118345
O O17 0.837833 0.750000 0.310794
#
# Coordination Sequence:
#
# PCOD8297127 Si02
#       7
#    16  16  16  16  16  16  16
#     4   9  15  24  36  54  80 108 135 166 201 237
#     4  10  16  25  39  59  86 112 139 169 202 246
#     4   9  17  29  43  57  76 103 134 169 209 252
#     4  10  17  25  39  61  87 110 136 173 209 244
#     4   9  16  24  38  56  75 105 139 169 197 240
#     4   9  17  26  39  58  83 116 148 171 197 238
#     4   9  18  28  41  63  86 109 139 174 213 250
#
# _framework density 17.819198
#
# number of rings (size 3 to 8) (size 9 to 14) (size 15 to 20)
#    0.000    2.714    1.429    1.714    0.000    2.286 
#    0.000    1.429    0.000    3.000    0.000    0.000 
#    0.000    2.286    0.000    0.571    0.000    0.286 
#
# Total GULP energy -693773.203334 kJ/mol
# GULP energy per Si atom -12388.807202 kJ/mol
# Density = 1.777864 g / cm^3
# Si number density = 17.819198 Si / 1000 Ang^3
#
#
#
# Elastic Constant Matrix: (Units=GPa)
#
#
# Indices 1 2 3 4 5 6 
#
# 1 82.2096 17.5749 21.2920 0.0000 0.0000 0.0000
# 2 17.5749 65.6517 20.1599 0.0000 0.0000 0.0000
# 3 21.2920 20.1599 25.7760 0.0000 0.0000 0.0000
# 4 0.0000 0.0000 0.0000 12.3678 0.0000 0.0000
# 5 0.0000 0.0000 0.0000 0.0000 14.5144 0.0000
# 6 0.0000 0.0000 0.0000 0.0000 0.0000 10.5869
#
#
#
# Elastic Compliance Matrix: (Units=1/GPa)
#
#
# Indices 1 2 3 4 5 6 
#
# 1 0.015479 -0.000286 -0.012562 0.000000 0.000000 0.000000
# 2 -0.000286 0.020052 -0.015447 0.000000 0.000000 0.000000
# 3 -0.012562 -0.015447 0.061254 0.000000 0.000000 0.000000
# 4 0.000000 0.000000 0.000000 0.080855 0.000000 0.000000
# 5 0.000000 0.000000 0.000000 0.000000 0.068897 0.000000
# 6 0.000000 0.000000 0.000000 0.000000 0.000000 0.094456
#
#
# Mechanical properties :
#
#
# Convention : Reuss Voigt Hill
#
# Bulk Modulus (GPa) = 24.87905 32.41009 28.64457
# Shear Modulus (GPa) = 12.16601 15.13452 13.65027
#
# Velocity S-wave (km/s) = 2.61578 2.91750 2.77075
# Velocity P-wave (km/s) = 4.80784 5.43846 5.13284
#
# Compressibility (1/GPa) = 0.04019446
#
# Stress axis : x y z
#
# Youngs Moduli (GPa) = 64.60454 49.87109 16.32550
#
# Poissons Ratio (x) = 0.01427 0.20509
# Poissons Ratio (y) = 0.01848 0.25217
# Poissons Ratio (z) = 0.81158 0.77033
#
# Static dielectric constant tensor:
#      x y z
#    x 3.383950 0.000000 0.000000 
#    y 0.000000 3.442200 0.000000 
#    z 0.000000 0.000000 2.907760 
# 
# 
# High freq. dielectric constant tensor:
#      x y z
#    x 1.679590 0.000000 0.000000 
#    y 0.000000 1.689200 0.000000 
#    z 0.000000 0.000000 1.632580 
# 
# From -- ./inp_files/21145.got.cif
#   From: 2010.03.12/outbox.cif.g09.slc.cpg/sg74_11_cif.got.tgz:21145.got - 2010.04.16 15:46:19.
