data_PCOD8297426
_publ_section_title
;
Structure prediction by ZEFSAII (Michael W. Deem and Ramdas Pophale) SiO2 
 PCOD8297426
Probable space group: I M M A
;
_chemical_formula_sum "Si O2"
_cell_formula_units_Z 96
_cell_length_a 9.156643
_cell_length_b 26.374123
_cell_length_c 28.977084
_cell_angle_alpha 90.000000
_cell_angle_beta 90.000000
_cell_angle_gamma 90.000000
_cell_volume 6997.920256
_symmetry_space_group_name_H-M "I M M A"
_symmetry_group_IT_number 74
_symmetry_cell_setting 'orthorhombic'
loop_
_space_group_symop_operation_xyz
x,y,z
-x,1/2-y,z
x,-y,-z
-x,1/2+y,-z
-x,-y,-z
x,1/2+y,-z
-x,y,z
x,1/2-y,z
1/2+x,1/2+y,1/2+z
1/2-x,-y,1/2+z
1/2+x,1/2-y,1/2-z
1/2-x,y,1/2-z
1/2-x,1/2-y,1/2-z
1/2+x,y,1/2-z
1/2-x,1/2+y,1/2+z
1/2+x,-y,1/2+z
loop_
_atom_site_type_symbol
_atom_site_label
_atom_site_fract_x
_atom_site_fract_y
_atom_site_fract_z
Si Si1 0.825643 0.508719 0.386950
Si Si2 0.829421 0.808456 0.109211
Si Si3 0.829178 0.528506 0.204004
Si Si4 0.173782 0.107087 0.556208
Si Si5 0.840448 0.449200 0.470954
Si Si6 0.668838 0.853020 0.295102
O O1 0.742708 0.499522 0.339086
O O2 0.783173 0.563957 0.406817
O O3 0.765316 0.464769 0.422250
O O4 0.000000 0.504735 0.380313
O O5 0.795415 0.750000 0.099780
O O6 0.745654 0.840080 0.070322
O O7 0.772058 0.823333 0.160131
O O8 0.000000 0.821169 0.105571
O O9 0.750000 0.508400 0.250000
O O10 0.798544 0.587901 0.197750
O O11 0.000000 0.515949 0.206862
O O12 0.237136 0.091780 0.504936
O O13 0.000000 0.112892 0.553886
O O14 0.860226 0.500000 0.500000
O O15 0.000000 0.427568 0.458651
O O16 0.500000 0.841939 0.287101
O O17 0.750000 0.831832 0.250000
#
# Coordination Sequence:
#
# PCOD8297426 Si02
#       6
#    16  16  16  16  16  16
#     4   9  15  25  42  60  77  97 121 150 188 229
#     4  10  20  32  42  53  73  99 124 157 203 242
#     4  10  18  27  39  55  76 100 128 159 192 228
#     4   9  16  27  43  59  75  94 121 156 188 226
#     4   7  12  23  39  59  78  95 115 144 185 228
#     4   9  18  30  41  52  67  90 122 160 200 237
#
# _framework density 13.718361
#
# number of rings (size 3 to 8) (size 9 to 14) (size 15 to 20)
#    0.000    3.000    1.667    2.500    0.000    2.000 
#    0.000    0.833    0.000    3.000    0.000    0.000 
#    0.000    0.000    0.000    0.000    0.000    0.833 
#
# Total GULP energy -594743.218626 kJ/mol
# GULP energy per Si atom -12390.483721 kJ/mol
# Density = 1.368714 g / cm^3
# Si number density = 13.718361 Si / 1000 Ang^3
#
#
#
# Elastic Constant Matrix: (Units=GPa)
#
#
# Indices 1 2 3 4 5 6 
#
# 1 38.5279 22.8549 44.7900 0.0000 0.0000 0.0000
# 2 22.8549 48.0296 52.7852 0.0000 0.0000 0.0000
# 3 44.7900 52.7852 123.3179 0.0000 0.0000 0.0000
# 4 0.0000 0.0000 0.0000 20.9973 0.0000 0.0000
# 5 0.0000 0.0000 0.0000 0.0000 19.6390 0.0000
# 6 0.0000 0.0000 0.0000 0.0000 0.0000 10.8386
#
#
#
# Elastic Compliance Matrix: (Units=1/GPa)
#
#
# Indices 1 2 3 4 5 6 
#
# 1 0.046027 -0.006665 -0.013865 0.000000 0.000000 0.000000
# 2 -0.006665 0.040280 -0.014821 0.000000 0.000000 0.000000
# 3 -0.013865 -0.014821 0.019489 0.000000 0.000000 0.000000
# 4 0.000000 0.000000 0.000000 0.047625 0.000000 0.000000
# 5 0.000000 0.000000 0.000000 0.000000 0.050919 0.000000
# 6 0.000000 0.000000 0.000000 0.000000 0.000000 0.092262
#
#
# Mechanical properties :
#
#
# Convention : Reuss Voigt Hill
#
# Bulk Modulus (GPa) = 28.49353 50.08173 39.28763
# Shear Modulus (GPa) = 13.19255 16.25799 14.72527
#
# Velocity S-wave (km/s) = 3.10445 3.44630 3.27983
# Velocity P-wave (km/s) = 5.80220 7.24033 6.56079
#
# Compressibility (1/GPa) = 0.03509569
#
# Stress axis : x y z
#
# Youngs Moduli (GPa) = 21.72649 24.82596 51.31129
#
# Poissons Ratio (x) = 0.16545 0.71141
# Poissons Ratio (y) = 0.14480 0.76049
# Poissons Ratio (z) = 0.30123 0.36795
#
# Static dielectric constant tensor:
#      x y z
#    x 2.549570 0.000000 0.000000 
#    y 0.000000 2.435680 0.000000 
#    z 0.000000 0.000000 2.916190 
# 
# 
# High freq. dielectric constant tensor:
#      x y z
#    x 1.510590 0.000000 0.000000 
#    y 0.000000 1.471270 0.000000 
#    z 0.000000 0.000000 1.525100 
# 
# From -- ./inp_files/59116.got.cif
#   From: 2010.03.12/outbox.cif.g09.slc.cpg/sg74_30_cif.got.tgz:59116.got - 2010.04.16 15:46:19.
