data_PCOD8297564
_publ_section_title
;
Structure prediction by ZEFSAII (Michael W. Deem and Ramdas Pophale) SiO2 
 PCOD8297564
Probable space group: I M M A
;
_chemical_formula_sum "Si O2"
_cell_formula_units_Z 80
_cell_length_a 14.331726
_cell_length_b 21.680991
_cell_length_c 16.067807
_cell_angle_alpha 90.000000
_cell_angle_beta 90.000000
_cell_angle_gamma 90.000000
_cell_volume 4992.685758
_symmetry_space_group_name_H-M "I M M A"
_symmetry_group_IT_number 74
_symmetry_cell_setting 'orthorhombic'
loop_
_space_group_symop_operation_xyz
x,y,z
-x,1/2-y,z
x,-y,-z
-x,1/2+y,-z
-x,-y,-z
x,1/2+y,-z
-x,y,z
x,1/2-y,z
1/2+x,1/2+y,1/2+z
1/2-x,-y,1/2+z
1/2+x,1/2-y,1/2-z
1/2-x,y,1/2-z
1/2-x,1/2-y,1/2-z
1/2+x,y,1/2-z
1/2-x,1/2+y,1/2+z
1/2+x,-y,1/2+z
loop_
_atom_site_type_symbol
_atom_site_label
_atom_site_fract_x
_atom_site_fract_y
_atom_site_fract_z
Si Si1 0.771562 0.409994 0.561793
Si Si2 0.390063 0.820014 0.167056
Si Si3 0.725972 0.951763 0.883390
Si Si4 0.893381 0.034677 0.229494
Si Si5 0.394524 0.397260 0.678009
O O1 0.844890 0.360905 0.595270
O O2 0.795874 0.478653 0.589903
O O3 0.777817 0.405794 0.461717
O O4 0.668290 0.394028 0.595561
O O5 0.500000 0.825833 0.155469
O O6 0.355252 0.750000 0.158318
O O7 0.361403 0.844052 0.258683
O O8 0.829883 0.942136 0.846727
O O9 0.646705 0.936395 0.815035
O O10 0.000000 0.056588 0.216883
O O11 0.884921 0.960514 0.230359
O O12 0.500000 0.387596 0.646899
#
# Coordination Sequence:
#
# PCOD8297564 Si02
#       5
#    16  16  16  16  16
#     4  10  18  29  44  65  93 119 149 190 228 262
#     4  10  20  32  46  66  92 124 159 186 216 264
#     4   9  18  28  43  68  91 117 152 184 225 278
#     4   9  16  29  45  62  90 121 148 183 226 271
#     4   9  17  29  44  62  88 122 155 184 219 263
#
# _framework density 16.023440000000001
#
# number of rings (size 3 to 8) (size 9 to 14) (size 15 to 20)
#    0.000    2.600    2.000    0.600    0.000    3.200 
#    0.000    6.000    0.000    0.000    0.000    2.800 
#    0.000    1.600    0.000    0.000    0.000    0.000 
#
# Total GULP energy -495866.584264 kJ/mol
# GULP energy per Si atom -12396.664607 kJ/mol
# Density = 1.598697 g / cm^3
# Si number density = 16.023440 Si / 1000 Ang^3
#
#
#
# Elastic Constant Matrix: (Units=GPa)
#
#
# Indices 1 2 3 4 5 6 
#
# 1 59.5722 18.2642 23.1706 0.0002 0.0000 0.0000
# 2 18.2642 51.3348 34.7468 0.0004 0.0000 0.0000
# 3 23.1706 34.7468 95.9624 0.0011 0.0000 0.0000
# 4 0.0002 0.0004 0.0011 17.1621 0.0000 0.0000
# 5 0.0000 0.0000 0.0000 0.0000 18.3293 0.0000
# 6 0.0000 0.0000 0.0000 0.0000 0.0000 16.5177
#
#
#
# Elastic Compliance Matrix: (Units=1/GPa)
#
#
# Indices 1 2 3 4 5 6 
#
# 1 0.019432 -0.004951 -0.002899 0.000000 0.000000 0.000000
# 2 -0.004951 0.027066 -0.008605 0.000000 0.000000 0.000000
# 3 -0.002899 -0.008605 0.014236 -0.000001 0.000000 0.000000
# 4 0.000000 0.000000 -0.000001 0.058268 0.000000 0.000000
# 5 0.000000 0.000000 0.000000 0.000000 0.054558 0.000000
# 6 0.000000 0.000000 0.000000 0.000000 0.000000 0.060541
#
#
# Mechanical properties :
#
#
# Convention : Reuss Voigt Hill
#
# Bulk Modulus (GPa) = 35.94027 39.91475 37.92751
# Shear Modulus (GPa) = 18.09722 19.11434 18.60578
#
# Velocity S-wave (km/s) = 3.36433 3.45758 3.41128
# Velocity P-wave (km/s) = 6.12945 6.39564 6.26396
#
# Compressibility (1/GPa) = 0.02782394
#
# Stress axis : x y z
#
# Youngs Moduli (GPa) = 51.46158 36.94707 70.24247
#
# Poissons Ratio (x) = 0.18293 0.20364
# Poissons Ratio (y) = 0.25480 0.60441
# Poissons Ratio (z) = 0.14920 0.31792
#
# Static dielectric constant tensor:
#      x y z
#    x 3.181230 0.000000 0.000000 
#    y 0.000000 2.751090 0.000000 
#    z 0.000000 0.000000 3.042390 
# 
# 
# High freq. dielectric constant tensor:
#      x y z
#    x 1.627480 0.000000 0.000000 
#    y 0.000000 1.567330 0.000000 
#    z 0.000000 0.000000 1.607950 
# 
# From -- ./inp_files/32078.got.cif
#   From: 2010.03.12/outbox.cif.g09.slc.cpg/sg74_17_cif.got.tgz:32078.got - 2010.04.16 15:46:19.
