data_PCOD8297451
_publ_section_title
;
Structure prediction by ZEFSAII (Michael W. Deem and Ramdas Pophale) SiO2 
 PCOD8297451
Probable space group: I M M A
;
_chemical_formula_sum "Si O2"
_cell_formula_units_Z 96
_cell_length_a 25.398623
_cell_length_b 17.161802
_cell_length_c 13.426156
_cell_angle_alpha 90.000000
_cell_angle_beta 90.000000
_cell_angle_gamma 90.000000
_cell_volume 5852.275300
_symmetry_space_group_name_H-M "I M M A"
_symmetry_group_IT_number 74
_symmetry_cell_setting 'orthorhombic'
loop_
_space_group_symop_operation_xyz
x,y,z
-x,1/2-y,z
x,-y,-z
-x,1/2+y,-z
-x,-y,-z
x,1/2+y,-z
-x,y,z
x,1/2-y,z
1/2+x,1/2+y,1/2+z
1/2-x,-y,1/2+z
1/2+x,1/2-y,1/2-z
1/2-x,y,1/2-z
1/2-x,1/2-y,1/2-z
1/2+x,y,1/2-z
1/2-x,1/2+y,1/2+z
1/2+x,-y,1/2+z
loop_
_atom_site_type_symbol
_atom_site_label
_atom_site_fract_x
_atom_site_fract_y
_atom_site_fract_z
Si Si1 0.286600 0.914797 0.112214
Si Si2 0.863794 0.840493 0.243904
Si Si3 0.941975 0.658274 0.417604
Si Si4 0.307961 0.068141 0.220757
Si Si5 0.851117 0.658658 0.555712
Si Si6 0.667805 0.036667 0.605232
O O1 0.308112 0.857820 0.199892
O O2 0.223908 0.919914 0.105589
O O3 0.306816 0.001064 0.137039
O O4 0.305673 0.885056 0.005669
O O5 0.866367 0.750000 0.213625
O O6 0.911038 0.865461 0.317694
O O7 0.870585 0.894236 0.144920
O O8 0.948573 0.750000 0.419759
O O9 0.908328 0.631728 0.514588
O O10 0.000000 0.618755 0.420104
O O11 0.250000 0.099106 0.250000
O O12 0.343146 0.136902 0.172017
O O13 0.335483 0.036302 0.319888
O O14 0.843739 0.750000 0.539768
O O15 0.650855 0.000000 0.500000
#
# Coordination Sequence:
#
# PCOD8297451 Si02
#       6
#    16  16  16  16  16  16
#     4   9  16  28  45  62  86 119 149 176 217 271
#     4   9  17  28  46  70  88 108 146 195 231 254
#     4   8  15  29  48  70  93 113 137 176 231 284
#     4   9  17  29  43  58  85 125 157 176 209 265
#     4  10  18  27  44  70  95 117 143 181 224 265
#     4  10  19  30  43  59  86 126 159 180 213 261
#
# _framework density 16.403876
#
# number of rings (size 3 to 8) (size 9 to 14) (size 15 to 20)
#    0.000    2.833    0.000    5.500    0.000    2.333 
#    0.000    0.833    0.000   18.500    0.000    0.000 
#    0.000    5.333    0.000    0.000    0.000    0.000 
#
# Total GULP energy -594715.093941 kJ/mol
# GULP energy per Si atom -12389.897790 kJ/mol
# Density = 1.636654 g / cm^3
# Si number density = 16.403876 Si / 1000 Ang^3
#
#
#
# Elastic Constant Matrix: (Units=GPa)
#
#
# Indices 1 2 3 4 5 6 
#
# 1 79.1838 30.1964 48.3003 0.0000 0.0000 0.0000
# 2 30.1964 42.2237 51.6122 0.0000 0.0000 0.0000
# 3 48.3003 51.6122 115.4217 0.0000 0.0000 0.0000
# 4 0.0000 0.0000 0.0000 32.6895 0.0000 0.0000
# 5 0.0000 0.0000 0.0000 0.0000 11.2584 0.0000
# 6 0.0000 0.0000 0.0000 0.0000 0.0000 7.3456
#
#
#
# Elastic Compliance Matrix: (Units=1/GPa)
#
#
# Indices 1 2 3 4 5 6 
#
# 1 0.018146 -0.008150 -0.003949 0.000000 0.000000 0.000000
# 2 -0.008150 0.055894 -0.021583 0.000000 0.000000 0.000000
# 3 -0.003949 -0.021583 0.019968 0.000000 0.000000 0.000000
# 4 0.000000 0.000000 0.000000 0.030591 0.000000 0.000000
# 5 0.000000 0.000000 0.000000 0.000000 0.088823 0.000000
# 6 0.000000 0.000000 0.000000 0.000000 0.000000 0.136137
#
#
# Mechanical properties :
#
#
# Convention : Reuss Voigt Hill
#
# Bulk Modulus (GPa) = 37.53319 55.22746 46.38032
# Shear Modulus (GPa) = 11.74255 17.37339 14.55797
#
# Velocity S-wave (km/s) = 2.67842 3.25792 2.98228
# Velocity P-wave (km/s) = 5.70049 6.92044 6.33988
#
# Compressibility (1/GPa) = 0.02664309
#
# Stress axis : x y z
#
# Youngs Moduli (GPa) = 55.10996 17.89107 50.08095
#
# Poissons Ratio (x) = 0.14580 0.19778
# Poissons Ratio (y) = 0.44912 1.08091
# Poissons Ratio (z) = 0.21764 0.38615
#
# Static dielectric constant tensor:
#      x y z
#    x 3.160620 0.000000 0.000000 
#    y 0.000000 2.998650 0.000000 
#    z 0.000000 0.000000 3.148280 
# 
# 
# High freq. dielectric constant tensor:
#      x y z
#    x 1.593870 0.000000 0.000000 
#    y 0.000000 1.619390 0.000000 
#    z 0.000000 0.000000 1.622740 
# 
# From -- ./inp_files/26267.got.cif
#   From: 2010.03.12/outbox.cif.g09.slc.cpg/sg74_14_cif.got.tgz:26267.got - 2010.04.16 15:46:19.
