data_PCOD8297777
_publ_section_title
;
Structure prediction by ZEFSAII (Michael W. Deem and Ramdas Pophale) SiO2 
 PCOD8297777
Probable space group: I M M A
;
_chemical_formula_sum "Si O2"
_cell_formula_units_Z 80
_cell_length_a 17.760940
_cell_length_b 18.225318
_cell_length_c 14.502223
_cell_angle_alpha 90.000000
_cell_angle_beta 90.000000
_cell_angle_gamma 90.000000
_cell_volume 4694.351885
_symmetry_space_group_name_H-M "I M M A"
_symmetry_group_IT_number 74
_symmetry_cell_setting 'orthorhombic'
loop_
_space_group_symop_operation_xyz
x,y,z
-x,1/2-y,z
x,-y,-z
-x,1/2+y,-z
-x,-y,-z
x,1/2+y,-z
-x,y,z
x,1/2-y,z
1/2+x,1/2+y,1/2+z
1/2-x,-y,1/2+z
1/2+x,1/2-y,1/2-z
1/2-x,y,1/2-z
1/2-x,1/2-y,1/2-z
1/2+x,y,1/2-z
1/2-x,1/2+y,1/2+z
1/2+x,-y,1/2+z
loop_
_atom_site_type_symbol
_atom_site_label
_atom_site_fract_x
_atom_site_fract_y
_atom_site_fract_z
Si Si1 0.719215 0.943420 0.348027
Si Si2 0.818731 0.831022 0.812838
Si Si3 0.237312 0.831838 0.502557
Si Si4 0.914205 0.465156 0.220874
Si Si5 0.151177 0.043665 0.415324
O O1 0.750000 0.915911 0.250000
O O2 0.724907 0.874955 0.417188
O O3 0.634326 0.973140 0.332947
O O4 0.766790 0.011435 0.388105
O O5 0.838944 0.750000 0.773613
O O6 0.750000 0.863868 0.750000
O O7 0.800081 0.824761 0.919758
O O8 0.890419 0.883312 0.806981
O O9 0.212091 0.750000 0.470444
O O10 0.165279 0.873305 0.548306
O O11 0.905756 0.466699 0.331443
O O12 0.000000 0.479717 0.193269
O O13 0.114443 0.000000 0.500000
#
# Coordination Sequence:
#
# PCOD8297777 Si02
#       5
#    16  16  16  16  16
#     4   9  18  34  51  73 100 130 172 212 248 292
#     4  10  18  31  50  72 100 131 167 205 247 298
#     4  10  18  30  55  77  94 127 172 215 253 289
#     4  11  20  31  49  74 105 138 166 198 252 308
#     4   9  17  32  53  73  98 126 168 218 256 293
#
# _framework density 17.041757
#
# number of rings (size 3 to 8) (size 9 to 14) (size 15 to 20)
#    0.000    2.200    4.000    0.600    0.000    1.200 
#    0.000    2.000    0.000    1.800    0.000    0.000 
#    0.000    0.000    0.000    0.000    0.000    0.000 
#
# Total GULP energy -495781.379799 kJ/mol
# GULP energy per Si atom -12394.534495 kJ/mol
# Density = 1.700297 g / cm^3
# Si number density = 17.041757 Si / 1000 Ang^3
#
#
#
# Elastic Constant Matrix: (Units=GPa)
#
#
# Indices 1 2 3 4 5 6 
#
# 1 73.3125 22.3455 8.6223 0.0000 0.0000 0.0000
# 2 22.3455 108.7335 34.8716 0.0000 0.0000 0.0000
# 3 8.6223 34.8716 81.4941 0.0000 0.0000 0.0000
# 4 0.0000 0.0000 0.0000 28.7348 0.0000 0.0000
# 5 0.0000 0.0000 0.0000 0.0000 15.0594 0.0000
# 6 0.0000 0.0000 0.0000 0.0000 0.0000 14.5230
#
#
#
# Elastic Compliance Matrix: (Units=1/GPa)
#
#
# Indices 1 2 3 4 5 6 
#
# 1 0.014558 -0.002895 -0.000301 0.000000 0.000000 0.000000
# 2 -0.002895 0.011235 -0.004501 0.000000 0.000000 0.000000
# 3 -0.000301 -0.004501 0.014229 0.000000 0.000000 0.000000
# 4 0.000000 0.000000 0.000000 0.034801 0.000000 0.000000
# 5 0.000000 0.000000 0.000000 0.000000 0.066404 0.000000
# 6 0.000000 0.000000 0.000000 0.000000 0.000000 0.068857
#
#
# Mechanical properties :
#
#
# Convention : Reuss Voigt Hill
#
# Bulk Modulus (GPa) = 40.60662 43.91320 42.25991
# Shear Modulus (GPa) = 21.39601 24.84347 23.11974
#
# Velocity S-wave (km/s) = 3.54715 3.82226 3.68727
# Velocity P-wave (km/s) = 6.37619 6.73079 6.55589
#
# Compressibility (1/GPa) = 0.02462653
#
# Stress axis : x y z
#
# Youngs Moduli (GPa) = 68.69020 89.00458 70.27965
#
# Poissons Ratio (x) = 0.25768 0.02119
# Poissons Ratio (y) = 0.19887 0.31635
# Poissons Ratio (z) = 0.02071 0.40064
#
# Static dielectric constant tensor:
#      x y z
#    x 2.672510 0.000000 0.000000 
#    y 0.000000 3.330470 0.000000 
#    z 0.000000 0.000000 3.450160 
# 
# 
# High freq. dielectric constant tensor:
#      x y z
#    x 1.603080 0.000000 0.000000 
#    y 0.000000 1.658280 0.000000 
#    z 0.000000 0.000000 1.671760 
# 
# From -- ./inp_files/32107.got.cif
#   From: 2010.03.12/outbox.cif.g09.slc.cpg/sg74_17_cif.got.tgz:32107.got - 2010.04.16 15:46:19.
