data_PCOD8297023
_publ_section_title
;
Structure prediction by ZEFSAII (Michael W. Deem and Ramdas Pophale) SiO2 
 PCOD8297023
Probable space group: I B C A 
;
_chemical_formula_sum "Si O2"
_cell_formula_units_Z 64
_cell_length_a 7.472586
_cell_length_b 14.377049
_cell_length_c 21.499518
_cell_angle_alpha 90.000000
_cell_angle_beta 90.000000
_cell_angle_gamma 90.000000
_cell_volume 2309.773521
_symmetry_space_group_name_H-M "I B C A "
_symmetry_group_IT_number 73
_symmetry_cell_setting 'orthorhombic'
loop_
_space_group_symop_operation_xyz
x,y,z
-x,1/2-y,z
x,-y,1/2-z
1/2-x,y,-z
-x,-y,-z
x,1/2+y,-z
-x,y,1/2+z
1/2+x,-y,z
1/2+x,1/2+y,1/2+z
1/2-x,-y,1/2+z
1/2+x,1/2-y,-z
-x,1/2+y,1/2-z
1/2-x,1/2-y,1/2-z
1/2+x,y,1/2-z
1/2-x,1/2+y,z
x,1/2-y,1/2+z
loop_
_atom_site_type_symbol
_atom_site_label
_atom_site_fract_x
_atom_site_fract_y
_atom_site_fract_z
Si Si1 0.734164 0.235450 0.426977
Si Si2 0.546121 0.387078 0.627378
Si Si3 0.738184 0.358696 0.741129
Si Si4 0.957756 0.092433 0.645815
O O1 0.750000 0.246544 0.500000
O O2 0.765727 0.337302 0.395875
O O3 0.553356 0.179910 0.403449
O O4 0.888817 0.164962 0.406736
O O5 0.548264 0.375254 0.702860
O O6 0.543013 0.495738 0.608129
O O7 0.750000 0.250000 0.750000
O O8 0.721818 0.406195 0.809511
O O9 0.884755 0.401750 0.695731
#
# Coordination Sequence:
#
# PCOD8297023 Si02
#       4
#    16  16  16  16
#     4  11  27  50  76 109 154 208 267 322 381 458
#     4  11  26  48  75 109 155 197 260 317 393 465
#     4  12  25  45  77 115 159 198 248 320 399 467
#     4  12  26  48  76 116 155 206 255 323 394 472
#
# _framework density 27.708344
#
# number of rings (size 3 to 8) (size 9 to 14) (size 15 to 20)
#    0.000    0.500    2.500    4.500    3.500    8.000 
#    0.000    0.000    0.000    0.000    0.000    0.000 
#    0.000    0.000    0.000    0.000    0.000    0.000 
#
# Total GULP energy -396747.800790 kJ/mol
# GULP energy per Si atom -12398.368775 kJ/mol
# Density = 2.764528 g / cm^3
# Si number density = 27.708344 Si / 1000 Ang^3
#
#
#
# Elastic Constant Matrix: (Units=GPa)
#
#
# Indices 1 2 3 4 5 6 
#
# 1 18.1936 16.6756 -29.4440 0.0000 0.0000 0.0000
# 2 16.6756 253.1355 50.2703 0.0000 0.0000 0.0000
# 3 -29.4440 50.2703 157.1324 0.0000 0.0000 0.0000
# 4 0.0000 0.0000 0.0000 21.3097 0.0000 0.0000
# 5 0.0000 0.0000 0.0000 0.0000 26.4297 0.0000
# 6 0.0000 0.0000 0.0000 0.0000 0.0000 31.1609
#
#
#
# Elastic Compliance Matrix: (Units=1/GPa)
#
#
# Indices 1 2 3 4 5 6 
#
# 1 0.102003 -0.011229 0.022706 0.000000 0.000000 0.000000
# 2 -0.011229 0.005455 -0.003849 0.000000 0.000000 0.000000
# 3 0.022706 -0.003849 0.011850 0.000000 0.000000 0.000000
# 4 0.000000 0.000000 0.000000 0.046927 0.000000 0.000000
# 5 0.000000 0.000000 0.000000 0.000000 0.037836 0.000000
# 6 0.000000 0.000000 0.000000 0.000000 0.000000 0.032091
#
#
# Mechanical properties :
#
#
# Convention : Reuss Voigt Hill
#
# Bulk Modulus (GPa) = 7.43140 55.94056 31.68598
# Shear Modulus (GPa) = 18.81389 41.84404 30.32897
#
# Velocity S-wave (km/s) = 2.60858 3.89029 3.31203
# Velocity P-wave (km/s) = 3.42940 6.35705 5.10749
#
# Compressibility (1/GPa) = 0.13456421
#
# Stress axis : x y z
#
# Youngs Moduli (GPa) = 9.80362 183.33283 84.38659
#
# Poissons Ratio (x) = 2.05860 -1.91609
# Poissons Ratio (y) = 0.11008 0.32481
# Poissons Ratio (z) = -0.22260 0.70567
#
# Static dielectric constant tensor:
#      x y z
#    x 6.640700 0.000000 0.000000 
#    y 0.000000 5.430140 0.000000 
#    z 0.000000 0.000000 5.388670 
# 
# 
# High freq. dielectric constant tensor:
#      x y z
#    x 2.176050 0.000000 0.000000 
#    y 0.000000 2.125510 0.000000 
#    z 0.000000 0.000000 2.095940 
# 
# From -- ./inp_files/28179.got.cif
#   From: 2010.03.12/outbox.cif.g09.slc.cpg/sg73_15_cif.got.tgz:28179.got - 2010.04.16 15:25:48.
