data_PCOD8297554
_publ_section_title
;
Structure prediction by ZEFSAII (Michael W. Deem and Ramdas Pophale) SiO2 
 PCOD8297554
Probable space group: I M M A
;
_chemical_formula_sum "Si O2"
_cell_formula_units_Z 80
_cell_length_a 7.809976
_cell_length_b 26.014429
_cell_length_c 28.331928
_cell_angle_alpha 90.000000
_cell_angle_beta 90.000000
_cell_angle_gamma 90.000000
_cell_volume 5756.256350
_symmetry_space_group_name_H-M "I M M A"
_symmetry_group_IT_number 74
_symmetry_cell_setting 'orthorhombic'
loop_
_space_group_symop_operation_xyz
x,y,z
-x,1/2-y,z
x,-y,-z
-x,1/2+y,-z
-x,-y,-z
x,1/2+y,-z
-x,y,z
x,1/2-y,z
1/2+x,1/2+y,1/2+z
1/2-x,-y,1/2+z
1/2+x,1/2-y,1/2-z
1/2-x,y,1/2-z
1/2-x,1/2-y,1/2-z
1/2+x,y,1/2-z
1/2-x,1/2+y,1/2+z
1/2+x,-y,1/2+z
loop_
_atom_site_type_symbol
_atom_site_label
_atom_site_fract_x
_atom_site_fract_y
_atom_site_fract_z
Si Si1 0.299811 0.750000 0.944945
Si Si2 0.000000 0.013495 0.076076
Si Si3 0.196928 0.140989 0.301840
Si Si4 0.698901 0.250000 0.336751
Si Si5 0.303445 0.926376 0.886653
Si Si6 0.000000 0.081753 0.983096
Si Si7 0.195909 0.358566 0.479590
O O1 0.500000 0.750000 0.949026
O O2 0.257241 0.750000 0.890203
O O3 0.231824 0.699019 0.970955
O O4 0.825336 0.025965 0.104698
O O5 0.000000 0.046200 0.028674
O O6 0.000000 0.952901 0.064036
O O7 0.250000 0.122481 0.250000
O O8 0.238202 0.200461 0.308764
O O9 0.277125 0.103900 0.341679
O O10 0.000000 0.132763 0.309045
O O11 0.500000 0.250000 0.335047
O O12 0.500000 0.946395 0.879770
O O13 0.297755 0.886961 0.929751
O O14 0.173931 0.115696 0.983086
O O15 0.000000 0.359631 0.499365
#
# Coordination Sequence:
#
# PCOD8297554 Si02
#       7
#     8   8  16   8  16   8  16
#     4  10  18  29  43  60  82 112 139 173 203 253
#     4   9  18  30  46  58  82  96 130 170 214 269
#     4  11  22  34  44  57  80 104 137 181 219 262
#     4  12  23  29  44  60  75 108 142 176 220 259
#     4   9  18  30  45  60  76 104 133 169 215 257
#     4   9  18  29  42  64  78 101 126 173 214 252
#     4   9  17  28  43  60  82 105 134 165 206 247
#
# _framework density 13.897921999999999
#
# number of rings (size 3 to 8) (size 9 to 14) (size 15 to 20)
#    0.000    2.200    2.000    1.800    4.200    0.800 
#    0.000    4.000    0.000    0.000    0.000    0.000 
#    0.000    0.000    0.000    0.000    0.000    0.000 
#
# Total GULP energy -495761.518364 kJ/mol
# GULP energy per Si atom -12394.037959 kJ/mol
# Density = 1.386629 g / cm^3
# Si number density = 13.897922 Si / 1000 Ang^3
#
#
#
# Elastic Constant Matrix: (Units=GPa)
#
#
# Indices 1 2 3 4 5 6 
#
# 1 73.6612 37.1545 28.2411 0.0000 0.0000 0.0000
# 2 37.1545 68.4221 40.5018 0.0000 0.0000 0.0000
# 3 28.2411 40.5018 49.0570 0.0000 0.0000 0.0000
# 4 0.0000 0.0000 0.0000 33.8058 0.0000 0.0000
# 5 0.0000 0.0000 0.0000 0.0000 17.2183 0.0000
# 6 0.0000 0.0000 0.0000 0.0000 0.0000 20.6148
#
#
#
# Elastic Compliance Matrix: (Units=1/GPa)
#
#
# Indices 1 2 3 4 5 6 
#
# 1 0.019257 -0.007617 -0.004797 0.000000 0.000000 0.000000
# 2 -0.007617 0.031598 -0.021702 0.000000 0.000000 0.000000
# 3 -0.004797 -0.021702 0.041063 0.000000 0.000000 0.000000
# 4 0.000000 0.000000 0.000000 0.029581 0.000000 0.000000
# 5 0.000000 0.000000 0.000000 0.000000 0.058078 0.000000
# 6 0.000000 0.000000 0.000000 0.000000 0.000000 0.048509
#
#
# Mechanical properties :
#
#
# Convention : Reuss Voigt Hill
#
# Bulk Modulus (GPa) = 42.22037 44.77056 43.49547
# Shear Modulus (GPa) = 16.43580 20.01065 18.22322
#
# Velocity S-wave (km/s) = 3.44264 3.79863 3.62500
# Velocity P-wave (km/s) = 6.80053 7.17797 6.99180
#
# Compressibility (1/GPa) = 0.02368525
#
# Stress axis : x y z
#
# Youngs Moduli (GPa) = 51.92926 31.64751 24.35253
#
# Poissons Ratio (x) = 0.24107 0.11681
# Poissons Ratio (y) = 0.39557 0.52851
# Poissons Ratio (z) = 0.24910 0.68683
#
# Static dielectric constant tensor:
#      x y z
#    x 2.995190 0.000000 0.000000 
#    y 0.000000 2.891530 0.000000 
#    z 0.000000 0.000000 2.438260 
# 
# 
# High freq. dielectric constant tensor:
#      x y z
#    x 1.549510 0.000000 0.000000 
#    y 0.000000 1.504240 0.000000 
#    z 0.000000 0.000000 1.485010 
# 
# From -- ./inp_files/56908.got.cif
#   From: 2010.03.12/outbox.cif.g09.slc.cpg/sg74_29_cif.got.tgz:56908.got - 2010.04.16 15:46:19.
