data_PCOD8297975
_publ_section_title
;
Structure prediction by ZEFSAII (Michael W. Deem and Ramdas Pophale) SiO2 
 PCOD8297975
Probable space group: I M M A
;
_chemical_formula_sum "Si O2"
_cell_formula_units_Z 72
_cell_length_a 28.726117
_cell_length_b 8.424934
_cell_length_c 13.927937
_cell_angle_alpha 90.000000
_cell_angle_beta 90.000000
_cell_angle_gamma 90.000000
_cell_volume 3370.778584
_symmetry_space_group_name_H-M "I M M A"
_symmetry_group_IT_number 74
_symmetry_cell_setting 'orthorhombic'
loop_
_space_group_symop_operation_xyz
x,y,z
-x,1/2-y,z
x,-y,-z
-x,1/2+y,-z
-x,-y,-z
x,1/2+y,-z
-x,y,z
x,1/2-y,z
1/2+x,1/2+y,1/2+z
1/2-x,-y,1/2+z
1/2+x,1/2-y,1/2-z
1/2-x,y,1/2-z
1/2-x,1/2-y,1/2-z
1/2+x,y,1/2-z
1/2-x,1/2+y,1/2+z
1/2+x,-y,1/2+z
loop_
_atom_site_type_symbol
_atom_site_label
_atom_site_fract_x
_atom_site_fract_y
_atom_site_fract_z
Si Si1 0.323553 0.437562 0.391932
Si Si2 0.588624 0.935703 0.282346
Si Si3 0.132238 0.436060 0.394662
Si Si4 0.771772 0.437674 0.607613
Si Si5 0.500000 0.563180 0.607166
O O1 0.321613 0.500000 0.500000
O O2 0.331969 0.250000 0.387307
O O3 0.364825 0.527886 0.340392
O O4 0.273741 0.483344 0.342696
O O5 0.582045 0.750000 0.269263
O O6 0.590593 0.016415 0.177057
O O7 0.545365 0.004732 0.338718
O O8 0.120316 0.500000 0.500000
O O9 0.138768 0.250000 0.401167
O O10 0.179165 0.509723 0.345861
O O11 0.776170 0.500000 0.500000
O O12 0.765796 0.250000 0.611883
O O13 0.500000 0.750000 0.603330
O O14 0.500000 0.500000 0.500000
#
# Coordination Sequence:
#
# PCOD8297975 Si02
#       5
#    16  16  16  16   8
#     4  11  21  36  57  87 124 165 208 257 309 368
#     4  12  25  43  65  93 123 160 206 256 308 367
#     4  11  22  40  63  91 125 166 208 254 305 362
#     4  10  18  32  54  84 121 165 208 253 304 362
#     4  12  26  48  73 100 129 162 198 246 306 368
#
# _framework density 21.360050999999999
#
# number of rings (size 3 to 8) (size 9 to 14) (size 15 to 20)
#    0.000    0.889    0.000   12.333    0.000    0.889 
#    0.000    5.000    0.000    0.000    0.000    0.000 
#    0.000    0.000    0.000    0.000    0.000    0.000 
#
# Total GULP energy -446455.868964 kJ/mol
# GULP energy per Si atom -12401.551916 kJ/mol
# Density = 2.131143 g / cm^3
# Si number density = 21.360051 Si / 1000 Ang^3
#
#
#
# Elastic Constant Matrix: (Units=GPa)
#
#
# Indices 1 2 3 4 5 6 
#
# 1 115.8131 10.7710 67.1122 0.0000 0.0000 0.0000
# 2 10.7710 116.6333 18.6643 0.0000 0.0000 0.0000
# 3 67.1122 18.6643 97.2474 0.0000 0.0000 0.0000
# 4 0.0000 0.0000 0.0000 32.0601 0.0000 0.0000
# 5 0.0000 0.0000 0.0000 0.0000 39.0653 0.0000
# 6 0.0000 0.0000 0.0000 0.0000 0.0000 38.7544
#
#
#
# Elastic Compliance Matrix: (Units=1/GPa)
#
#
# Indices 1 2 3 4 5 6 
#
# 1 0.014397 0.000269 -0.009987 0.000000 0.000000 0.000000
# 2 0.000269 0.008851 -0.001884 0.000000 0.000000 0.000000
# 3 -0.009987 -0.001884 0.017537 0.000000 0.000000 0.000000
# 4 0.000000 0.000000 0.000000 0.031191 0.000000 0.000000
# 5 0.000000 0.000000 0.000000 0.000000 0.025598 0.000000
# 6 0.000000 0.000000 0.000000 0.000000 0.000000 0.025804
#
#
# Mechanical properties :
#
#
# Convention : Reuss Voigt Hill
#
# Bulk Modulus (GPa) = 56.88482 58.08764 57.48623
# Shear Modulus (GPa) = 32.79917 37.51906 35.15911
#
# Velocity S-wave (km/s) = 3.92285 4.19562 4.06152
# Velocity P-wave (km/s) = 6.87077 7.12211 6.99757
#
# Compressibility (1/GPa) = 0.01757938
#
# Stress axis : x y z
#
# Youngs Moduli (GPa) = 69.45844 112.98713 57.02223
#
# Poissons Ratio (x) = -0.03035 0.56950
# Poissons Ratio (y) = -0.01866 0.10743
# Poissons Ratio (z) = 0.69370 0.21287
#
# Static dielectric constant tensor:
#      x y z
#    x 4.344880 0.000000 0.000000 
#    y 0.000000 3.989270 0.000000 
#    z 0.000000 0.000000 3.979080 
# 
# 
# High freq. dielectric constant tensor:
#      x y z
#    x 1.833950 0.000000 0.000000 
#    y 0.000000 1.859190 0.000000 
#    z 0.000000 0.000000 1.844990 
# 
# From -- ./inp_files/37662.got.cif
#   From: 2010.03.12/outbox.cif.g09.slc.cpg/sg74_19_cif.got.tgz:37662.got - 2010.04.16 15:46:19.
