data_PCOD8297763
_publ_section_title
;
Structure prediction by ZEFSAII (Michael W. Deem and Ramdas Pophale) SiO2 
 PCOD8297763
Probable space group: I M M A
;
_chemical_formula_sum "Si O2"
_cell_formula_units_Z 88
_cell_length_a 9.614052
_cell_length_b 20.592234
_cell_length_c 23.348095
_cell_angle_alpha 90.000000
_cell_angle_beta 90.000000
_cell_angle_gamma 90.000000
_cell_volume 4622.334636
_symmetry_space_group_name_H-M "I M M A"
_symmetry_group_IT_number 74
_symmetry_cell_setting 'orthorhombic'
loop_
_space_group_symop_operation_xyz
x,y,z
-x,1/2-y,z
x,-y,-z
-x,1/2+y,-z
-x,-y,-z
x,1/2+y,-z
-x,y,z
x,1/2-y,z
1/2+x,1/2+y,1/2+z
1/2-x,-y,1/2+z
1/2+x,1/2-y,1/2-z
1/2-x,y,1/2-z
1/2-x,1/2-y,1/2-z
1/2+x,y,1/2-z
1/2-x,1/2+y,1/2+z
1/2+x,-y,1/2+z
loop_
_atom_site_type_symbol
_atom_site_label
_atom_site_fract_x
_atom_site_fract_y
_atom_site_fract_z
Si Si1 0.651761 0.823441 0.796913
Si Si2 0.158748 0.126378 0.115684
Si Si3 0.662833 0.323827 0.506701
Si Si4 0.163358 0.500736 0.808422
Si Si5 0.659398 0.750000 0.305156
Si Si6 0.837544 0.623652 0.124116
O O1 0.500000 0.858263 0.799734
O O2 0.627207 0.750000 0.777349
O O3 0.750000 0.859746 0.750000
O O4 0.731975 0.823565 0.856916
O O5 0.000000 0.148913 0.127632
O O6 0.187823 0.056932 0.144425
O O7 0.191091 0.130268 0.048216
O O8 0.500000 0.315422 0.517663
O O9 0.724792 0.250000 0.500400
O O10 0.727143 0.363660 0.560649
O O11 0.250000 0.511870 0.750000
O O12 0.224747 0.437418 0.841151
O O13 0.000000 0.494437 0.792554
O O14 0.500000 0.750000 0.286432
O O15 0.750000 0.750000 0.250000
O O16 0.698554 0.687581 0.341246
O O17 0.000000 0.610056 0.118010
#
# Coordination Sequence:
#
# PCOD8297763 Si02
#       6
#    16  16  16  16   8  16
#     4  10  20  33  50  72  99 132 173 221 267 308
#     4  10  20  32  50  76 104 137 173 209 255 310
#     4   9  16  29  51  78 105 133 170 217 264 309
#     4  10  21  35  51  75 106 138 174 216 260 310
#     4  10  18  30  52  78 102 132 171 214 263 312
#     4   9  17  31  51  76 104 134 171 215 262 311
#
# _framework density 19.037998000000002
#
# number of rings (size 3 to 8) (size 9 to 14) (size 15 to 20)
#    0.000    2.364    0.909    2.182    0.000    4.727 
#    0.000    3.636    0.000    2.182    0.000    2.545 
#    0.000    0.000    0.000    0.000    0.000    0.000 
#
# Total GULP energy -545166.625054 kJ/mol
# GULP energy per Si atom -12390.150569 kJ/mol
# Density = 1.899467 g / cm^3
# Si number density = 19.037998 Si / 1000 Ang^3
#
#
#
# Elastic Constant Matrix: (Units=GPa)
#
#
# Indices 1 2 3 4 5 6 
#
# 1 77.6451 24.4717 59.8418 0.0000 0.0000 0.0000
# 2 24.4717 97.8804 58.1703 0.0000 0.0000 0.0000
# 3 59.8418 58.1703 169.5816 0.0000 0.0000 0.0000
# 4 0.0000 0.0000 0.0000 38.3156 0.0000 0.0000
# 5 0.0000 0.0000 0.0000 0.0000 23.6229 0.0000
# 6 0.0000 0.0000 0.0000 0.0000 0.0000 12.6335
#
#
#
# Elastic Compliance Matrix: (Units=1/GPa)
#
#
# Indices 1 2 3 4 5 6 
#
# 1 0.017753 -0.000899 -0.005956 0.000000 0.000000 0.000000
# 2 -0.000899 0.012878 -0.004100 0.000000 0.000000 0.000000
# 3 -0.005956 -0.004100 0.009405 0.000000 0.000000 0.000000
# 4 0.000000 0.000000 0.000000 0.026099 0.000000 0.000000
# 5 0.000000 0.000000 0.000000 0.000000 0.042332 0.000000
# 6 0.000000 0.000000 0.000000 0.000000 0.000000 0.079154
#
#
# Mechanical properties :
#
#
# Convention : Reuss Voigt Hill
#
# Bulk Modulus (GPa) = 55.17081 70.00829 62.58955
# Shear Modulus (GPa) = 23.19387 28.42263 25.80825
#
# Velocity S-wave (km/s) = 3.49419 3.86805 3.68587
# Velocity P-wave (km/s) = 6.73212 7.53670 7.14574
#
# Compressibility (1/GPa) = 0.01812553
#
# Stress axis : x y z
#
# Youngs Moduli (GPa) = 56.32854 77.65137 106.32333
#
# Poissons Ratio (x) = 0.06978 0.63330
# Poissons Ratio (y) = 0.05062 0.43596
# Poissons Ratio (z) = 0.33552 0.31840
#
# Static dielectric constant tensor:
#      x y z
#    x 3.324370 0.000000 0.000000 
#    y 0.000000 3.541060 0.000000 
#    z 0.000000 0.000000 3.662780 
# 
# 
# High freq. dielectric constant tensor:
#      x y z
#    x 1.694950 0.000000 0.000000 
#    y 0.000000 1.740130 0.000000 
#    z 0.000000 0.000000 1.749690 
# 
# From -- ./inp_files/56995.got.cif
#   From: 2010.03.12/outbox.cif.g09.slc.cpg/sg74_29_cif.got.tgz:56995.got - 2010.04.16 15:46:19.
