data_PCOD8297897
_publ_section_title
;
Structure prediction by ZEFSAII (Michael W. Deem and Ramdas Pophale) SiO2 
 PCOD8297897
Probable space group: I M M A
;
_chemical_formula_sum "Si O2"
_cell_formula_units_Z 112
_cell_length_a 26.710782
_cell_length_b 14.481998
_cell_length_c 16.345779
_cell_angle_alpha 90.000000
_cell_angle_beta 90.000000
_cell_angle_gamma 90.000000
_cell_volume 6322.963996
_symmetry_space_group_name_H-M "I M M A"
_symmetry_group_IT_number 74
_symmetry_cell_setting 'orthorhombic'
loop_
_space_group_symop_operation_xyz
x,y,z
-x,1/2-y,z
x,-y,-z
-x,1/2+y,-z
-x,-y,-z
x,1/2+y,-z
-x,y,z
x,1/2-y,z
1/2+x,1/2+y,1/2+z
1/2-x,-y,1/2+z
1/2+x,1/2-y,1/2-z
1/2-x,y,1/2-z
1/2-x,1/2-y,1/2-z
1/2+x,y,1/2-z
1/2-x,1/2+y,1/2+z
1/2+x,-y,1/2+z
loop_
_atom_site_type_symbol
_atom_site_label
_atom_site_fract_x
_atom_site_fract_y
_atom_site_fract_z
Si Si1 0.752274 0.352636 0.841885
Si Si2 0.709870 0.354849 0.375552
Si Si3 0.878522 0.896126 0.986744
Si Si4 0.865266 0.149842 0.840282
Si Si5 0.302947 0.018694 0.089135
Si Si6 0.359155 0.461595 0.251272
Si Si7 0.056598 0.141251 0.163926
O O1 0.728561 0.250000 0.845018
O O2 0.750000 0.392074 0.750000
O O3 0.808704 0.352507 0.873114
O O4 0.720293 0.418774 0.897005
O O5 0.721325 0.250000 0.344577
O O6 0.669208 0.344770 0.447664
O O7 0.760823 0.401212 0.408440
O O8 0.687258 0.419109 0.302996
O O9 0.925589 0.890262 0.925851
O O10 0.896276 0.856687 0.074742
O O11 0.860966 0.000000 0.000000
O O12 0.877164 0.250000 0.798407
O O13 0.873681 0.066299 0.777560
O O14 0.345836 0.041217 0.155459
O O15 0.327239 0.000000 0.000000
O O16 0.408862 0.401678 0.265162
O O17 0.060941 0.250000 0.171822
O O18 0.000000 0.106582 0.176556
#
# Coordination Sequence:
#
# PCOD8297897 Si02
#       7
#    16  16  16  16  16  16  16
#     4  10  18  32  51  71 103 146 188 218 246 300
#     4  11  21  34  52  76 110 152 186 216 260 314
#     4  11  18  33  54  80 111 142 173 213 261 312
#     4  11  19  30  51  76 107 148 183 212 253 308
#     4  12  23  34  50  77 112 141 181 228 270 308
#     4  11  21  37  54  77 106 142 184 224 269 320
#     4  10  22  40  61  82 106 137 175 221 271 328
#
# _framework density 17.713211999999999
#
# number of rings (size 3 to 8) (size 9 to 14) (size 15 to 20)
#    0.000    1.143    5.714    4.286    0.000    3.714 
#    0.000    0.000    0.000    0.857    0.000    0.000 
#    0.000    0.000    0.000    0.000    0.000    0.000 
#
# Total GULP energy -694123.133399 kJ/mol
# GULP energy per Si atom -12395.055954 kJ/mol
# Density = 1.767290 g / cm^3
# Si number density = 17.713212 Si / 1000 Ang^3
#
#
#
# Elastic Constant Matrix: (Units=GPa)
#
#
# Indices 1 2 3 4 5 6 
#
# 1 75.5471 17.5555 40.3260 0.0000 0.0000 0.0000
# 2 17.5555 103.4457 31.9445 0.0000 0.0000 0.0000
# 3 40.3260 31.9445 110.9068 0.0000 0.0000 0.0000
# 4 0.0000 0.0000 0.0000 15.1916 0.0000 0.0000
# 5 0.0000 0.0000 0.0000 0.0000 13.4742 0.0000
# 6 0.0000 0.0000 0.0000 0.0000 0.0000 10.7349
#
#
#
# Elastic Compliance Matrix: (Units=1/GPa)
#
#
# Indices 1 2 3 4 5 6 
#
# 1 0.016526 -0.001042 -0.005709 0.000000 0.000000 0.000000
# 2 -0.001042 0.010676 -0.002696 0.000000 0.000000 0.000000
# 3 -0.005709 -0.002696 0.011869 0.000000 0.000000 0.000000
# 4 0.000000 0.000000 0.000000 0.065826 0.000000 0.000000
# 5 0.000000 0.000000 0.000000 0.000000 0.074216 0.000000
# 6 0.000000 0.000000 0.000000 0.000000 0.000000 0.093154
#
#
# Mechanical properties :
#
#
# Convention : Reuss Voigt Hill
#
# Bulk Modulus (GPa) = 49.55990 52.17239 50.86615
# Shear Modulus (GPa) = 16.78486 21.21837 19.00162
#
# Velocity S-wave (km/s) = 3.08163 3.46480 3.27882
# Velocity P-wave (km/s) = 6.37979 6.74717 6.56605
#
# Compressibility (1/GPa) = 0.02017760
#
# Stress axis : x y z
#
# Youngs Moduli (GPa) = 60.51008 93.66514 84.25314
#
# Poissons Ratio (x) = 0.09757 0.48100
# Poissons Ratio (y) = 0.06303 0.22718
# Poissons Ratio (z) = 0.34545 0.25255
#
# Static dielectric constant tensor:
#      x y z
#    x 2.997470 0.000000 0.000000 
#    y 0.000000 3.564620 0.000000 
#    z 0.000000 0.000000 3.675790 
# 
# 
# High freq. dielectric constant tensor:
#      x y z
#    x 1.629670 0.000000 0.000000 
#    y 0.000000 1.709920 0.000000 
#    z 0.000000 0.000000 1.668150 
# 
# From -- ./inp_files/37936.got.cif
#   From: 2010.03.12/outbox.cif.g09.slc.cpg/sg74_19_cif.got.tgz:37936.got - 2010.04.16 15:46:19.
