data_PCOD8297456
_publ_section_title
;
Structure prediction by ZEFSAII (Michael W. Deem and Ramdas Pophale) SiO2 
 PCOD8297456
Probable space group: I M M A
;
_chemical_formula_sum "Si O2"
_cell_formula_units_Z 88
_cell_length_a 7.768938
_cell_length_b 27.466747
_cell_length_c 30.885324
_cell_angle_alpha 90.000000
_cell_angle_beta 90.000000
_cell_angle_gamma 90.000000
_cell_volume 6590.540670
_symmetry_space_group_name_H-M "I M M A"
_symmetry_group_IT_number 74
_symmetry_cell_setting 'orthorhombic'
loop_
_space_group_symop_operation_xyz
x,y,z
-x,1/2-y,z
x,-y,-z
-x,1/2+y,-z
-x,-y,-z
x,1/2+y,-z
-x,y,z
x,1/2-y,z
1/2+x,1/2+y,1/2+z
1/2-x,-y,1/2+z
1/2+x,1/2-y,1/2-z
1/2-x,y,1/2-z
1/2-x,1/2-y,1/2-z
1/2+x,y,1/2-z
1/2-x,1/2+y,1/2+z
1/2+x,-y,1/2+z
loop_
_atom_site_type_symbol
_atom_site_label
_atom_site_fract_x
_atom_site_fract_y
_atom_site_fract_z
Si Si1 0.500000 0.027876 0.433325
Si Si2 0.807745 0.998448 0.380833
Si Si3 0.201512 0.445902 0.701928
Si Si4 0.296423 0.651200 0.160936
Si Si5 0.191003 0.394711 0.573300
Si Si6 0.202956 0.250000 0.700196
Si Si7 0.500000 0.576442 0.478993
O O1 0.671669 0.034135 0.404149
O O2 0.500000 0.070111 0.469303
O O3 0.500000 0.975324 0.455454
O O4 0.000000 0.022132 0.381325
O O5 0.739570 0.987751 0.331931
O O6 0.815599 0.947445 0.405332
O O7 0.250000 0.462331 0.750000
O O8 0.283642 0.393291 0.689486
O O9 0.000000 0.440654 0.696412
O O10 0.500000 0.651822 0.167230
O O11 0.251462 0.643749 0.110268
O O12 0.215953 0.701998 0.177591
O O13 0.329404 0.393466 0.534525
O O14 0.000000 0.381904 0.555063
O O15 0.250000 0.250000 0.750000
O O16 0.000000 0.250000 0.693800
#
# Coordination Sequence:
#
# PCOD8297456 Si02
#       7
#     8  16  16  16  16   8   8
#     4   9  16  24  36  50  70  82  98 126 162 197
#     4   8  15  25  34  46  66  87 104 127 160 197
#     4   9  16  24  34  48  62  82 114 141 167 202
#     4   8  15  27  38  47  64  87 107 137 178 213
#     4   8  14  26  38  48  65  84 103 129 161 199
#     4  10  18  28  38  50  68  86 112 144 178 220
#     4   9  16  24  36  57  64  78 106 125 152 210
#
# _framework density 13.352471
#
# number of rings (size 3 to 8) (size 9 to 14) (size 15 to 20)
#    0.000    3.455    0.000    2.727    1.273    0.727 
#    3.273    3.636    0.000    0.000    0.000    0.000 
#    0.000    0.000    0.000    0.000    0.000    0.000 
#
# Total GULP energy -545189.070052 kJ/mol
# GULP energy per Si atom -12390.660683 kJ/mol
# Density = 1.332208 g / cm^3
# Si number density = 13.352471 Si / 1000 Ang^3
#
#
#
# Elastic Constant Matrix: (Units=GPa)
#
#
# Indices 1 2 3 4 5 6 
#
# 1 63.2817 18.9018 45.8588 0.0000 0.0000 0.0000
# 2 18.9018 24.5864 37.4377 0.0000 0.0000 0.0000
# 3 45.8588 37.4377 104.3943 0.0000 0.0000 0.0000
# 4 0.0000 0.0000 0.0000 21.4758 0.0000 0.0000
# 5 0.0000 0.0000 0.0000 0.0000 21.6557 0.0000
# 6 0.0000 0.0000 0.0000 0.0000 0.0000 6.2157
#
#
#
# Elastic Compliance Matrix: (Units=1/GPa)
#
#
# Indices 1 2 3 4 5 6 
#
# 1 0.023476 -0.005166 -0.008460 0.000000 0.000000 0.000000
# 2 -0.005166 0.090739 -0.030271 0.000000 0.000000 0.000000
# 3 -0.008460 -0.030271 0.024151 0.000000 0.000000 0.000000
# 4 0.000000 0.000000 0.000000 0.046564 0.000000 0.000000
# 5 0.000000 0.000000 0.000000 0.000000 0.046177 0.000000
# 6 0.000000 0.000000 0.000000 0.000000 0.000000 0.160884
#
#
# Mechanical properties :
#
#
# Convention : Reuss Voigt Hill
#
# Bulk Modulus (GPa) = 19.77403 44.07321 31.92362
# Shear Modulus (GPa) = 10.06758 15.87370 12.97064
#
# Velocity S-wave (km/s) = 2.74886 3.45167 3.12012
# Velocity P-wave (km/s) = 4.99163 6.99747 6.07787
#
# Compressibility (1/GPa) = 0.05057137
#
# Stress axis : x y z
#
# Youngs Moduli (GPa) = 42.59622 11.02066 41.40580
#
# Poissons Ratio (x) = 0.05693 0.35030
# Poissons Ratio (y) = 0.22006 1.25340
# Poissons Ratio (z) = 0.36037 0.33361
#
# Static dielectric constant tensor:
#      x y z
#    x 2.831370 0.000000 0.000000 
#    y 0.000000 2.362040 0.000000 
#    z 0.000000 0.000000 2.206080 
# 
# 
# High freq. dielectric constant tensor:
#      x y z
#    x 1.515310 0.000000 0.000000 
#    y 0.000000 1.434230 0.000000 
#    z 0.000000 0.000000 1.495510 
# 
# From -- ./inp_files/70947.got.cif
#   From: 2010.03.12/outbox.cif.g09.slc.cpg/sg74_36_cif.got.tgz:70947.got - 2010.04.16 15:46:19.
