data_PCOD8297948
_publ_section_title
;
Structure prediction by ZEFSAII (Michael W. Deem and Ramdas Pophale) SiO2 
 PCOD8297948
Probable space group: I M M A
;
_chemical_formula_sum "Si O2"
_cell_formula_units_Z 104
_cell_length_a 26.587461
_cell_length_b 9.264902
_cell_length_c 24.265029
_cell_angle_alpha 90.000000
_cell_angle_beta 90.000000
_cell_angle_gamma 90.000000
_cell_volume 5977.209946
_symmetry_space_group_name_H-M "I M M A"
_symmetry_group_IT_number 74
_symmetry_cell_setting 'orthorhombic'
loop_
_space_group_symop_operation_xyz
x,y,z
-x,1/2-y,z
x,-y,-z
-x,1/2+y,-z
-x,-y,-z
x,1/2+y,-z
-x,y,z
x,1/2-y,z
1/2+x,1/2+y,1/2+z
1/2-x,-y,1/2+z
1/2+x,1/2-y,1/2-z
1/2-x,y,1/2-z
1/2-x,1/2-y,1/2-z
1/2+x,y,1/2-z
1/2-x,1/2+y,1/2+z
1/2+x,-y,1/2+z
loop_
_atom_site_type_symbol
_atom_site_label
_atom_site_fract_x
_atom_site_fract_y
_atom_site_fract_z
Si Si1 0.387649 0.418181 0.143956
Si Si2 0.700675 0.420766 0.816389
Si Si3 0.083397 0.420484 0.854526
Si Si4 0.555081 0.590902 0.747474
Si Si5 0.312583 0.580185 0.308737
Si Si6 0.440544 0.587868 0.051508
Si Si7 0.000000 0.578080 0.058787
O O1 0.385788 0.250000 0.128177
O O2 0.332715 0.490947 0.139752
O O3 0.405171 0.447130 0.205972
O O4 0.426326 0.500862 0.105599
O O5 0.691871 0.250000 0.822654
O O6 0.685939 0.473858 0.754636
O O7 0.758028 0.462950 0.832498
O O8 0.082916 0.250000 0.853960
O O9 0.054897 0.474265 0.800641
O O10 0.141571 0.479634 0.847895
O O11 0.051127 0.471036 0.908209
O O12 0.500000 0.589116 0.775070
O O13 0.566779 0.750000 0.722753
O O14 0.317652 0.750000 0.306774
O O15 0.500000 0.595990 0.047418
O O16 0.417948 0.750000 0.052302
O O17 0.417759 0.500000 0.000000
O O18 0.000000 0.750000 0.049853
O O19 0.000000 0.500000 0.000000
#
# Coordination Sequence:
#
# PCOD8297948 Si02
#       7
#    16  16  16  16  16  16   8
#     4  11  21  32  48  74 108 142 173 212 255 304
#     4   9  16  29  49  73 101 137 174 209 256 310
#     4  10  18  32  53  76  99 128 168 212 256 309
#     4  10  20  31  44  69 105 139 165 199 256 309
#     4   8  15  28  49  74 102 133 169 212 257 310
#     4  10  21  37  56  76  99 134 177 217 258 303
#     4  10  22  36  54  78 102 134 173 214 259 306
#
# _framework density 17.399421
#
# number of rings (size 3 to 8) (size 9 to 14) (size 15 to 20)
#    0.000    2.308    2.308    2.308    0.000    2.769 
#    0.000    2.308    0.000    0.923    0.000    2.154 
#    0.000    0.000    0.000    0.000    0.000    0.000 
#
# Total GULP energy -644251.452969 kJ/mol
# GULP energy per Si atom -12389.451019 kJ/mol
# Density = 1.735982 g / cm^3
# Si number density = 17.399421 Si / 1000 Ang^3
#
#
#
# Elastic Constant Matrix: (Units=GPa)
#
#
# Indices 1 2 3 4 5 6 
#
# 1 99.9120 29.7707 37.8695 0.0000 0.0000 0.0000
# 2 29.7707 66.1281 34.6722 0.0000 0.0000 0.0000
# 3 37.8695 34.6722 65.6455 0.0000 0.0000 0.0000
# 4 0.0000 0.0000 0.0000 28.1142 0.0000 0.0000
# 5 0.0000 0.0000 0.0000 0.0000 6.8827 0.0000
# 6 0.0000 0.0000 0.0000 0.0000 0.0000 14.2546
#
#
#
# Elastic Compliance Matrix: (Units=1/GPa)
#
#
# Indices 1 2 3 4 5 6 
#
# 1 0.013146 -0.002686 -0.006165 0.000000 0.000000 0.000000
# 2 -0.002686 0.021463 -0.009787 0.000000 0.000000 0.000000
# 3 -0.006165 -0.009787 0.023959 0.000000 0.000000 0.000000
# 4 0.000000 0.000000 0.000000 0.035569 0.000000 0.000000
# 5 0.000000 0.000000 0.000000 0.000000 0.145291 0.000000
# 6 0.000000 0.000000 0.000000 0.000000 0.000000 0.070153
#
#
# Mechanical properties :
#
#
# Convention : Reuss Voigt Hill
#
# Bulk Modulus (GPa) = 46.96494 48.47893 47.72194
# Shear Modulus (GPa) = 14.12619 18.47518 16.30069
#
# Velocity S-wave (km/s) = 2.85244 3.26210 3.06412
# Velocity P-wave (km/s) = 6.15625 6.48932 6.32498
#
# Compressibility (1/GPa) = 0.02129248
#
# Stress axis : x y z
#
# Youngs Moduli (GPa) = 76.06999 46.59263 41.73828
#
# Poissons Ratio (x) = 0.12514 0.25732
# Poissons Ratio (y) = 0.20431 0.40848
# Poissons Ratio (z) = 0.46897 0.45598
#
# Static dielectric constant tensor:
#      x y z
#    x 3.683650 0.000000 0.000000 
#    y 0.000000 3.164590 0.000000 
#    z 0.000000 0.000000 3.008270 
# 
# 
# High freq. dielectric constant tensor:
#      x y z
#    x 1.679890 0.000000 0.000000 
#    y 0.000000 1.663490 0.000000 
#    z 0.000000 0.000000 1.634130 
# 
# From -- ./inp_files/57607.got.cif
#   From: 2010.03.12/outbox.cif.g09.slc.cpg/sg74_29_cif.got.tgz:57607.got - 2010.04.16 15:46:19.
