data_PCOD8297495
_publ_section_title
;
Structure prediction by ZEFSAII (Michael W. Deem and Ramdas Pophale) SiO2 
 PCOD8297495
Probable space group: I M M A
;
_chemical_formula_sum "Si O2"
_cell_formula_units_Z 96
_cell_length_a 15.513667
_cell_length_b 17.082197
_cell_length_c 21.669110
_cell_angle_alpha 90.000000
_cell_angle_beta 90.000000
_cell_angle_gamma 90.000000
_cell_volume 5742.477013
_symmetry_space_group_name_H-M "I M M A"
_symmetry_group_IT_number 74
_symmetry_cell_setting 'orthorhombic'
loop_
_space_group_symop_operation_xyz
x,y,z
-x,1/2-y,z
x,-y,-z
-x,1/2+y,-z
-x,-y,-z
x,1/2+y,-z
-x,y,z
x,1/2-y,z
1/2+x,1/2+y,1/2+z
1/2-x,-y,1/2+z
1/2+x,1/2-y,1/2-z
1/2-x,y,1/2-z
1/2-x,1/2-y,1/2-z
1/2+x,y,1/2-z
1/2-x,1/2+y,1/2+z
1/2+x,-y,1/2+z
loop_
_atom_site_type_symbol
_atom_site_label
_atom_site_fract_x
_atom_site_fract_y
_atom_site_fract_z
Si Si1 0.662692 0.660282 0.370602
Si Si2 0.403771 0.340857 0.011875
Si Si3 0.346589 0.102022 0.884561
Si Si4 0.903012 0.662424 0.259330
Si Si5 0.093134 0.994224 0.072085
Si Si6 0.772833 0.456129 0.435229
O O1 0.629176 0.750000 0.381814
O O2 0.762369 0.656364 0.388707
O O3 0.656475 0.637054 0.298076
O O4 0.610761 0.596926 0.410737
O O5 0.500000 0.358056 0.038801
O O6 0.383616 0.250000 0.011068
O O7 0.405732 0.373574 0.942146
O O8 0.327959 0.377423 0.054700
O O9 0.393874 0.108836 0.819311
O O10 0.324759 0.010165 0.887848
O O11 0.879158 0.750000 0.280523
O O12 0.000000 0.656873 0.234332
O O13 0.000000 0.019144 0.102283
O O14 0.173884 0.051668 0.091157
O O15 0.080895 0.000000 0.000000
O O16 0.763764 0.500000 0.500000
#
# Coordination Sequence:
#
# PCOD8297495 Si02
#       6
#    16  16  16  16  16  16
#     4  10  19  30  44  63  90 122 153 187 226 264
#     4  10  19  30  46  67  90 117 148 184 227 271
#     4  10  18  28  43  62  88 122 155 184 218 265
#     4  10  19  28  39  59  88 121 155 187 218 257
#     4   9  17  30  46  62  83 113 149 187 225 264
#     4   8  17  30  43  62  87 116 147 183 226 265
#
# _framework density 16.717524999999998
#
# number of rings (size 3 to 8) (size 9 to 14) (size 15 to 20)
#    0.000    2.500    0.000    4.000    0.000    7.333 
#    0.000    0.000    0.000    1.500    0.000    0.000 
#    0.000   12.000    0.000    5.500    0.000    0.000 
#
# Total GULP energy -594646.635703 kJ/mol
# GULP energy per Si atom -12388.471577 kJ/mol
# Density = 1.667947 g / cm^3
# Si number density = 16.717525 Si / 1000 Ang^3
#
#
#
# Elastic Constant Matrix: (Units=GPa)
#
#
# Indices 1 2 3 4 5 6 
#
# 1 105.7199 41.9521 11.0335 0.0000 0.0000 0.0000
# 2 41.9521 62.2887 32.0589 0.0000 0.0000 0.0000
# 3 11.0335 32.0589 54.9629 0.0000 0.0000 0.0000
# 4 0.0000 0.0000 0.0000 25.7226 0.0000 0.0000
# 5 0.0000 0.0000 0.0000 0.0000 -58.5655 0.0000
# 6 0.0000 0.0000 0.0000 0.0000 0.0000 21.4503
#
#
#
# Elastic Compliance Matrix: (Units=1/GPa)
#
#
# Indices 1 2 3 4 5 6 
#
# 1 0.013411 -0.010927 0.003681 0.000000 0.000000 0.000000
# 2 -0.010927 0.031845 -0.016381 0.000000 0.000000 0.000000
# 3 0.003681 -0.016381 0.027010 0.000000 0.000000 0.000000
# 4 0.000000 0.000000 0.000000 0.038876 0.000000 0.000000
# 5 0.000000 0.000000 0.000000 0.000000 -0.017075 0.000000
# 6 0.000000 0.000000 0.000000 0.000000 0.000000 0.046619
#
#
# Mechanical properties :
#
#
# Convention : Reuss Voigt Hill
#
# Bulk Modulus (GPa) = 39.98052 43.67337 41.82695
# Shear Modulus (GPa) = 25.47423 6.91662 16.19543
#
# Velocity S-wave (km/s) = 3.90783 2.03625 3.11588
# Velocity P-wave (km/s) = 6.65798 5.63112 6.16596
#
# Compressibility (1/GPa) = 0.02501218
#
# Stress axis : x y z
#
# Youngs Moduli (GPa) = 74.56631 31.40232 37.02366
#
# Poissons Ratio (x) = 0.34314 -0.13630
# Poissons Ratio (y) = 0.81480 0.60648
# Poissons Ratio (z) = -0.27451 0.51440
#
# Static dielectric constant tensor:
#      x y z
#    x 3.594250 0.000000 0.000000 
#    y 0.000000 3.034660 0.000000 
#    z 0.000000 0.000000 2.971410 
# 
# 
# High freq. dielectric constant tensor:
#      x y z
#    x 1.668070 0.000000 0.000000 
#    y 0.000000 1.609420 0.000000 
#    z 0.000000 0.000000 1.611130 
# 
# From -- ./inp_files/52257.got.cif
#   From: 2010.03.12/outbox.cif.g09.slc.cpg/sg74_27_cif.got.tgz:52257.got - 2010.04.16 15:46:19.
