data_PCOD8297035
_publ_section_title
;
Structure prediction by ZEFSAII (Michael W. Deem and Ramdas Pophale) SiO2 
 PCOD8297035
Probable space group: I B C A 
;
_chemical_formula_sum "Si O2"
_cell_formula_units_Z 72
_cell_length_a 15.645719
_cell_length_b 19.164429
_cell_length_c 10.882941
_cell_angle_alpha 90.000000
_cell_angle_beta 90.000000
_cell_angle_gamma 90.000000
_cell_volume 3263.154861
_symmetry_space_group_name_H-M "I B C A "
_symmetry_group_IT_number 73
_symmetry_cell_setting 'orthorhombic'
loop_
_space_group_symop_operation_xyz
x,y,z
-x,1/2-y,z
x,-y,1/2-z
1/2-x,y,-z
-x,-y,-z
x,1/2+y,-z
-x,y,1/2+z
1/2+x,-y,z
1/2+x,1/2+y,1/2+z
1/2-x,-y,1/2+z
1/2+x,1/2-y,-z
-x,1/2+y,1/2-z
1/2-x,1/2-y,1/2-z
1/2+x,y,1/2-z
1/2-x,1/2+y,z
x,1/2-y,1/2+z
loop_
_atom_site_type_symbol
_atom_site_label
_atom_site_fract_x
_atom_site_fract_y
_atom_site_fract_z
Si Si1 0.118018 0.072194 0.195730
Si Si2 0.750000 0.899111 0.000000
Si Si3 0.033383 0.325496 0.123252
Si Si4 0.673728 0.788079 0.821708
Si Si5 0.838052 0.851539 0.566992
O O1 0.170864 0.108234 0.305039
O O2 0.043836 0.125602 0.163256
O O3 0.080801 0.000000 0.250000
O O4 0.179675 0.056294 0.077570
O O5 0.797619 0.854360 0.101848
O O6 0.097763 0.312752 0.235082
O O7 0.000000 0.250000 0.077981
O O8 0.081238 0.371318 0.018385
O O9 0.750000 0.750000 0.750000
O O10 0.642152 0.730646 0.917777
O O11 0.750000 0.866548 0.500000
#
# Coordination Sequence:
#
# PCOD8297035 Si02
#       5
#    16   8  16  16  16
#     4  12  30  48  70 108 147 200 247 297 383 449
#     4  12  24  48  74 104 148 194 250 314 368 448
#     4  12  25  43  72 107 147 185 242 317 363 433
#     4  12  20  42  74 112 141 182 247 310 371 431
#     4  12  24  45  72 103 143 187 241 298 370 442
#
# _framework density 22.064537000000001
#
# number of rings (size 3 to 8) (size 9 to 14) (size 15 to 20)
#    0.000    0.000    7.778    1.333    7.778    0.889 
#    0.000    1.111    0.000    0.000    0.000    0.000 
#    0.000    0.000    0.000    0.000    0.000    0.000 
#
# Total GULP energy -446233.716282 kJ/mol
# GULP energy per Si atom -12395.381008 kJ/mol
# Density = 2.201432 g / cm^3
# Si number density = 22.064537 Si / 1000 Ang^3
#
#
#
# Elastic Constant Matrix: (Units=GPa)
#
#
# Indices 1 2 3 4 5 6 
#
# 1 133.9023 39.4879 74.2314 0.0000 0.0000 0.0000
# 2 39.4879 87.2453 16.1212 0.0000 0.0000 0.0000
# 3 74.2314 16.1212 115.2035 0.0000 0.0000 0.0000
# 4 0.0000 0.0000 0.0000 17.0965 0.0000 0.0000
# 5 0.0000 0.0000 0.0000 0.0000 48.0733 0.0000
# 6 0.0000 0.0000 0.0000 0.0000 0.0000 15.3676
#
#
#
# Elastic Compliance Matrix: (Units=1/GPa)
#
#
# Indices 1 2 3 4 5 6 
#
# 1 0.013139 -0.004499 -0.007837 0.000000 0.000000 0.000000
# 2 -0.004499 0.013307 0.001037 0.000000 0.000000 0.000000
# 3 -0.007837 0.001037 0.013585 0.000000 0.000000 0.000000
# 4 0.000000 0.000000 0.000000 0.058492 0.000000 0.000000
# 5 0.000000 0.000000 0.000000 0.000000 0.020802 0.000000
# 6 0.000000 0.000000 0.000000 0.000000 0.000000 0.065072
#
#
# Mechanical properties :
#
#
# Convention : Reuss Voigt Hill
#
# Bulk Modulus (GPa) = 57.36248 66.22579 61.79413
# Shear Modulus (GPa) = 23.49572 29.87485 26.68528
#
# Velocity S-wave (km/s) = 3.26676 3.68363 3.48144
# Velocity P-wave (km/s) = 6.34689 6.94060 6.65037
#
# Compressibility (1/GPa) = 0.01743300
#
# Stress axis : x y z
#
# Youngs Moduli (GPa) = 76.10744 75.15076 73.61155
#
# Poissons Ratio (x) = 0.33809 0.57688
# Poissons Ratio (y) = 0.34240 -0.07632
# Poissons Ratio (z) = 0.59644 -0.07791
#
# Static dielectric constant tensor:
#      x y z
#    x 4.106510 0.000000 0.000000 
#    y 0.000000 3.741200 0.000000 
#    z 0.000000 0.000000 3.805800 
# 
# 
# High freq. dielectric constant tensor:
#      x y z
#    x 1.878080 0.000000 0.000000 
#    y 0.000000 1.842440 0.000000 
#    z 0.000000 0.000000 1.892160 
# 
# From -- ./inp_files/10604.got.cif
#   From: 2010.03.12/outbox.cif.g09.slc.cpg/sg73_6_cif.got.tgz:10604.got - 2010.04.16 15:25:48.
