data_PCOD8297731
_publ_section_title
;
Structure prediction by ZEFSAII (Michael W. Deem and Ramdas Pophale) SiO2 
 PCOD8297731
Probable space group: I M M A
;
_chemical_formula_sum "Si O2"
_cell_formula_units_Z 112
_cell_length_a 26.986434
_cell_length_b 14.084319
_cell_length_c 16.581167
_cell_angle_alpha 90.000000
_cell_angle_beta 90.000000
_cell_angle_gamma 90.000000
_cell_volume 6302.261898
_symmetry_space_group_name_H-M "I M M A"
_symmetry_group_IT_number 74
_symmetry_cell_setting 'orthorhombic'
loop_
_space_group_symop_operation_xyz
x,y,z
-x,1/2-y,z
x,-y,-z
-x,1/2+y,-z
-x,-y,-z
x,1/2+y,-z
-x,y,z
x,1/2-y,z
1/2+x,1/2+y,1/2+z
1/2-x,-y,1/2+z
1/2+x,1/2-y,1/2-z
1/2-x,y,1/2-z
1/2-x,1/2-y,1/2-z
1/2+x,y,1/2-z
1/2-x,1/2+y,1/2+z
1/2+x,-y,1/2+z
loop_
_atom_site_type_symbol
_atom_site_label
_atom_site_fract_x
_atom_site_fract_y
_atom_site_fract_z
Si Si1 0.753281 0.354391 0.838951
Si Si2 0.708859 0.362504 0.373793
Si Si3 0.883529 0.861128 0.978721
Si Si4 0.865994 0.143308 0.848389
Si Si5 0.303304 0.017877 0.088922
Si Si6 0.358856 0.462590 0.247613
Si Si7 0.055471 0.137262 0.170399
O O1 0.728669 0.250000 0.835738
O O2 0.750000 0.401104 0.750000
O O3 0.808635 0.348104 0.871306
O O4 0.721947 0.416937 0.898419
O O5 0.711096 0.250000 0.354471
O O6 0.670707 0.386956 0.445139
O O7 0.762654 0.398432 0.401838
O O8 0.688774 0.419073 0.294906
O O9 0.888606 0.750000 0.987481
O O10 0.925249 0.899346 0.917007
O O11 0.891130 0.900857 0.069832
O O12 0.885919 0.250000 0.825668
O O13 0.872885 0.069881 0.775412
O O14 0.347308 0.036781 0.152466
O O15 0.325931 0.000000 0.000000
O O16 0.407928 0.399588 0.259970
O O17 0.056871 0.250000 0.173603
O O18 0.000000 0.098282 0.184464
#
# Coordination Sequence:
#
# PCOD8297731 Si02
#       7
#    16  16  16  16  16  16  16
#     4  10  18  32  50  69  97 138 186 217 239 290
#     4  10  20  33  49  72 106 141 171 212 263 312
#     4   8  16  30  49  75 100 130 167 204 251 305
#     4  10  18  30  50  73 104 141 176 210 247 298
#     4  12  23  33  47  72 107 140 177 217 261 307
#     4  11  21  34  52  76 101 136 180 219 261 311
#     4   9  19  37  59  79 102 131 167 214 266 325
#
# _framework density 17.771397
#
# number of rings (size 3 to 8) (size 9 to 14) (size 15 to 20)
#    0.000    2.000    2.857    2.571    0.000    5.143 
#    0.000    1.429    0.000    1.714    0.000    0.000 
#    0.000    0.000    0.000    0.000    0.000    0.000 
#
# Total GULP energy -693994.197751 kJ/mol
# GULP energy per Si atom -12392.753531 kJ/mol
# Density = 1.773095 g / cm^3
# Si number density = 17.771397 Si / 1000 Ang^3
#
#
#
# Elastic Constant Matrix: (Units=GPa)
#
#
# Indices 1 2 3 4 5 6 
#
# 1 83.8660 19.6632 38.4503 0.0000 0.0000 0.0000
# 2 19.6632 76.4328 31.2680 0.0000 0.0000 0.0000
# 3 38.4503 31.2680 114.5372 0.0000 0.0000 0.0000
# 4 0.0000 0.0000 0.0000 17.9241 0.0000 0.0000
# 5 0.0000 0.0000 0.0000 0.0000 12.8026 0.0000
# 6 0.0000 0.0000 0.0000 0.0000 0.0000 13.6516
#
#
#
# Elastic Compliance Matrix: (Units=1/GPa)
#
#
# Indices 1 2 3 4 5 6 
#
# 1 0.014343 -0.001936 -0.004286 0.000000 0.000000 0.000000
# 2 -0.001936 0.014990 -0.003442 0.000000 0.000000 0.000000
# 3 -0.004286 -0.003442 0.011109 0.000000 0.000000 0.000000
# 4 0.000000 0.000000 0.000000 0.055791 0.000000 0.000000
# 5 0.000000 0.000000 0.000000 0.000000 0.078109 0.000000
# 6 0.000000 0.000000 0.000000 0.000000 0.000000 0.073252
#
#
# Mechanical properties :
#
#
# Convention : Reuss Voigt Hill
#
# Bulk Modulus (GPa) = 47.36538 50.39990 48.88264
# Shear Modulus (GPa) = 18.25082 21.23929 19.74506
#
# Velocity S-wave (km/s) = 3.20813 3.46083 3.33687
# Velocity P-wave (km/s) = 6.35871 6.66269 6.51248
#
# Compressibility (1/GPa) = 0.02111247
#
# Stress axis : x y z
#
# Youngs Moduli (GPa) = 69.72058 66.71262 90.01402
#
# Poissons Ratio (x) = 0.12918 0.38583
# Poissons Ratio (y) = 0.13501 0.30983
# Poissons Ratio (z) = 0.29885 0.22963
#
# Static dielectric constant tensor:
#      x y z
#    x 3.106790 0.000000 0.000000 
#    y 0.000000 3.474330 0.000000 
#    z 0.000000 0.000000 3.475030 
# 
# 
# High freq. dielectric constant tensor:
#      x y z
#    x 1.634170 0.000000 0.000000 
#    y 0.000000 1.702980 0.000000 
#    z 0.000000 0.000000 1.670930 
# 
# From -- ./inp_files/37937.got.cif
#   From: 2010.03.12/outbox.cif.g09.slc.cpg/sg74_19_cif.got.tgz:37937.got - 2010.04.16 15:46:19.
