data_PCOD8297985
_publ_section_title
;
Structure prediction by ZEFSAII (Michael W. Deem and Ramdas Pophale) SiO2 
 PCOD8297985
Probable space group: I M M A
;
_chemical_formula_sum "Si O2"
_cell_formula_units_Z 88
_cell_length_a 27.426272
_cell_length_b 8.649896
_cell_length_c 19.028527
_cell_angle_alpha 90.000000
_cell_angle_beta 90.000000
_cell_angle_gamma 90.000000
_cell_volume 4514.221195
_symmetry_space_group_name_H-M "I M M A"
_symmetry_group_IT_number 74
_symmetry_cell_setting 'orthorhombic'
loop_
_space_group_symop_operation_xyz
x,y,z
-x,1/2-y,z
x,-y,-z
-x,1/2+y,-z
-x,-y,-z
x,1/2+y,-z
-x,y,z
x,1/2-y,z
1/2+x,1/2+y,1/2+z
1/2-x,-y,1/2+z
1/2+x,1/2-y,1/2-z
1/2-x,y,1/2-z
1/2-x,1/2-y,1/2-z
1/2+x,y,1/2-z
1/2-x,1/2+y,1/2+z
1/2+x,-y,1/2+z
loop_
_atom_site_type_symbol
_atom_site_label
_atom_site_fract_x
_atom_site_fract_y
_atom_site_fract_z
Si Si1 0.556038 0.569916 0.195064
Si Si2 0.500000 0.432208 0.423332
Si Si3 0.284200 0.066599 0.922072
Si Si4 0.314335 0.432157 0.422991
Si Si5 0.408349 0.931897 0.665939
Si Si6 0.382987 0.931998 0.923006
O O1 0.500000 0.527902 0.211361
O O2 0.563212 0.750000 0.180145
O O3 0.589421 0.519595 0.260257
O O4 0.571782 0.476489 0.125941
O O5 0.500000 0.250000 0.429745
O O6 0.500000 0.500000 0.500000
O O7 0.547674 0.491531 0.382750
O O8 0.284858 0.250000 0.921192
O O9 0.234407 0.003775 0.886816
O O10 0.333651 0.001524 0.886954
O O11 0.283572 0.000000 0.000000
O O12 0.324900 0.500000 0.500000
O O13 0.308102 0.250000 0.430873
O O14 0.358282 0.477404 0.371834
O O15 0.412333 0.750000 0.680233
O O16 0.377532 0.750000 0.929558
O O17 0.392470 0.000000 0.000000
#
# Coordination Sequence:
#
# PCOD8297985 Si02
#       6
#    16   8  16  16  16  16
#     4  11  24  41  61  85 114 150 190 234 287 345
#     4  10  20  34  54  80 111 148 195 242 286 332
#     4  10  18  32  55  83 116 150 186 232 283 338
#     4  10  19  32  53  83 116 153 195 239 285 336
#     4  10  21  37  56  79 113 154 195 238 286 340
#     4  11  22  39  64  90 117 147 184 232 281 340
#
# _framework density 19.493949000000001
#
# number of rings (size 3 to 8) (size 9 to 14) (size 15 to 20)
#    0.000    1.636    0.909    7.091    0.000    3.636 
#    0.000    0.909    0.000    5.455    0.000    0.000 
#    0.000    0.000    0.000    0.000    0.000    0.000 
#
# Total GULP energy -545665.245117 kJ/mol
# GULP energy per Si atom -12401.482844 kJ/mol
# Density = 1.944958 g / cm^3
# Si number density = 19.493949 Si / 1000 Ang^3
#
#
#
# Elastic Constant Matrix: (Units=GPa)
#
#
# Indices 1 2 3 4 5 6 
#
# 1 94.3644 45.3974 42.7438 0.0000 0.0000 0.0000
# 2 45.3974 121.0183 39.2618 0.0000 0.0000 0.0000
# 3 42.7438 39.2618 97.0395 0.0000 0.0000 0.0000
# 4 0.0000 0.0000 0.0000 33.1137 0.0000 0.0000
# 5 0.0000 0.0000 0.0000 0.0000 19.5811 0.0000
# 6 0.0000 0.0000 0.0000 0.0000 0.0000 29.9778
#
#
#
# Elastic Compliance Matrix: (Units=1/GPa)
#
#
# Indices 1 2 3 4 5 6 
#
# 1 0.014701 -0.003930 -0.004885 0.000000 0.000000 0.000000
# 2 -0.003930 0.010562 -0.002542 0.000000 0.000000 0.000000
# 3 -0.004885 -0.002542 0.013486 0.000000 0.000000 0.000000
# 4 0.000000 0.000000 0.000000 0.030199 0.000000 0.000000
# 5 0.000000 0.000000 0.000000 0.000000 0.051070 0.000000
# 6 0.000000 0.000000 0.000000 0.000000 0.000000 0.033358
#
#
# Mechanical properties :
#
#
# Convention : Reuss Voigt Hill
#
# Bulk Modulus (GPa) = 62.36970 63.02533 62.69752
# Shear Modulus (GPa) = 27.55813 28.86914 28.21364
#
# Velocity S-wave (km/s) = 3.76397 3.85246 3.80847
# Velocity P-wave (km/s) = 7.13819 7.22423 7.18134
#
# Compressibility (1/GPa) = 0.01603343
#
# Stress axis : x y z
#
# Youngs Moduli (GPa) = 68.02433 94.67730 74.15280
#
# Poissons Ratio (x) = 0.37205 0.36226
# Poissons Ratio (y) = 0.26731 0.18853
# Poissons Ratio (z) = 0.33232 0.24072
#
# Static dielectric constant tensor:
#      x y z
#    x 4.238540 0.000000 0.000000 
#    y 0.000000 3.603800 0.000000 
#    z 0.000000 0.000000 3.219140 
# 
# 
# High freq. dielectric constant tensor:
#      x y z
#    x 1.776060 0.000000 0.000000 
#    y 0.000000 1.769620 0.000000 
#    z 0.000000 0.000000 1.734040 
# 
# From -- ./inp_files/47017.got.cif
#   From: 2010.03.12/outbox.cif.g09.slc.cpg/sg74_24_cif.got.tgz:47017.got - 2010.04.16 15:46:19.
