data_PCOD8297206
_publ_section_title
;
Structure prediction by ZEFSAII (Michael W. Deem and Ramdas Pophale) SiO2 
 PCOD8297206
Probable space group: I M M A
;
_chemical_formula_sum "Si O2"
_cell_formula_units_Z 112
_cell_length_a 19.159669
_cell_length_b 21.759422
_cell_length_c 17.334324
_cell_angle_alpha 90.000000
_cell_angle_beta 90.000000
_cell_angle_gamma 90.000000
_cell_volume 7226.737280
_symmetry_space_group_name_H-M "I M M A"
_symmetry_group_IT_number 74
_symmetry_cell_setting 'orthorhombic'
loop_
_space_group_symop_operation_xyz
x,y,z
-x,1/2-y,z
x,-y,-z
-x,1/2+y,-z
-x,-y,-z
x,1/2+y,-z
-x,y,z
x,1/2-y,z
1/2+x,1/2+y,1/2+z
1/2-x,-y,1/2+z
1/2+x,1/2-y,1/2-z
1/2-x,y,1/2-z
1/2-x,1/2-y,1/2-z
1/2+x,y,1/2-z
1/2-x,1/2+y,1/2+z
1/2+x,-y,1/2+z
loop_
_atom_site_type_symbol
_atom_site_label
_atom_site_fract_x
_atom_site_fract_y
_atom_site_fract_z
Si Si1 0.666311 0.046093 0.611664
Si Si2 0.082084 0.820032 0.842665
Si Si3 0.324366 0.945485 0.104726
Si Si4 0.676020 0.413368 0.060158
Si Si5 0.918476 0.964096 0.259474
Si Si6 0.833465 0.590690 0.944696
Si Si7 0.919372 0.896198 0.696101
O O1 0.745432 0.063570 0.635782
O O2 0.613507 0.062635 0.680450
O O3 0.648277 0.084815 0.535220
O O4 0.655332 0.974219 0.596310
O O5 0.107605 0.750000 0.846539
O O6 0.116379 0.857553 0.911759
O O7 0.104234 0.847269 0.760034
O O8 0.000000 0.826123 0.853874
O O9 0.379987 0.928849 0.170652
O O10 0.329600 0.015228 0.078228
O O11 0.342997 0.903249 0.030243
O O12 0.754195 0.388260 0.071367
O O13 0.623744 0.379369 0.118789
O O14 0.000000 0.948528 0.261800
O O15 0.903685 0.036628 0.268779
O O16 0.000000 0.889929 0.673575
#
# Coordination Sequence:
#
# PCOD8297206 Si02
#       7
#    16  16  16  16  16  16  16
#     4   9  16  27  43  61  85 113 142 178 214 259
#     4  10  20  33  45  59  86 119 149 181 217 254
#     4   8  15  26  39  58  84 114 138 165 218 262
#     4   8  15  27  42  59  80 108 143 178 210 253
#     4  10  17  24  38  62  88 112 142 174 205 256
#     4   9  17  29  44  61  81 111 149 181 214 253
#     4   9  17  28  41  58  82 113 145 175 214 256
#
# _framework density 15.498004
#
# number of rings (size 3 to 8) (size 9 to 14) (size 15 to 20)
#    0.000    3.000    1.429    2.143    0.000    1.714 
#    0.000    5.714    0.000    0.000    0.000    0.000 
#    0.000   10.286    0.000    5.429    0.000    0.000 
#
# Total GULP energy -694080.207674 kJ/mol
# GULP energy per Si atom -12394.289423 kJ/mol
# Density = 1.546273 g / cm^3
# Si number density = 15.498004 Si / 1000 Ang^3
#
#
#
# Elastic Constant Matrix: (Units=GPa)
#
#
# Indices 1 2 3 4 5 6 
#
# 1 83.3561 26.9382 74.6820 0.0000 0.0000 0.0000
# 2 26.9382 46.6481 35.2383 0.0000 0.0000 0.0000
# 3 74.6820 35.2383 129.4466 0.0000 0.0000 0.0000
# 4 0.0000 0.0000 0.0000 13.3215 0.0000 0.0000
# 5 0.0000 0.0000 0.0000 0.0000 30.6801 0.0000
# 6 0.0000 0.0000 0.0000 0.0000 0.0000 12.3281
#
#
#
# Elastic Compliance Matrix: (Units=1/GPa)
#
#
# Indices 1 2 3 4 5 6 
#
# 1 0.025581 -0.004562 -0.013517 0.000000 0.000000 0.000000
# 2 -0.004562 0.027800 -0.004936 0.000000 0.000000 0.000000
# 3 -0.013517 -0.004936 0.016867 0.000000 0.000000 0.000000
# 4 0.000000 0.000000 0.000000 0.075067 0.000000 0.000000
# 5 0.000000 0.000000 0.000000 0.000000 0.032594 0.000000
# 6 0.000000 0.000000 0.000000 0.000000 0.000000 0.081115
#
#
# Mechanical properties :
#
#
# Convention : Reuss Voigt Hill
#
# Bulk Modulus (GPa) = 41.28942 59.24087 50.26514
# Shear Modulus (GPa) = 15.96796 19.43877 17.70336
#
# Velocity S-wave (km/s) = 3.21335 3.54542 3.38346
# Velocity P-wave (km/s) = 6.36137 7.42077 6.91140
#
# Compressibility (1/GPa) = 0.02421928
#
# Stress axis : x y z
#
# Youngs Moduli (GPa) = 39.09125 35.97106 59.28687
#
# Poissons Ratio (x) = 0.16409 0.80137
# Poissons Ratio (y) = 0.17833 0.29264
# Poissons Ratio (z) = 0.52839 0.17755
#
# Static dielectric constant tensor:
#      x y z
#    x 3.022480 0.000000 0.000000 
#    y 0.000000 2.511870 0.000000 
#    z 0.000000 0.000000 3.349330 
# 
# 
# High freq. dielectric constant tensor:
#      x y z
#    x 1.598270 0.000000 0.000000 
#    y 0.000000 1.526220 0.000000 
#    z 0.000000 0.000000 1.605750 
# 
# From -- ./inp_files/44447.got.cif
#   From: 2010.03.12/outbox.cif.g09.slc.cpg/sg74_23_cif.got.tgz:44447.got - 2010.04.16 15:46:19.
