data_PCOD8297833
_publ_section_title
;
Structure prediction by ZEFSAII (Michael W. Deem and Ramdas Pophale) SiO2 
 PCOD8297833
Probable space group: I M M A
;
_chemical_formula_sum "Si O2"
_cell_formula_units_Z 104
_cell_length_a 26.973143
_cell_length_b 9.490925
_cell_length_c 22.389374
_cell_angle_alpha 90.000000
_cell_angle_beta 90.000000
_cell_angle_gamma 90.000000
_cell_volume 5731.681473
_symmetry_space_group_name_H-M "I M M A"
_symmetry_group_IT_number 74
_symmetry_cell_setting 'orthorhombic'
loop_
_space_group_symop_operation_xyz
x,y,z
-x,1/2-y,z
x,-y,-z
-x,1/2+y,-z
-x,-y,-z
x,1/2+y,-z
-x,y,z
x,1/2-y,z
1/2+x,1/2+y,1/2+z
1/2-x,-y,1/2+z
1/2+x,1/2-y,1/2-z
1/2-x,y,1/2-z
1/2-x,1/2-y,1/2-z
1/2+x,y,1/2-z
1/2-x,1/2+y,1/2+z
1/2+x,-y,1/2+z
loop_
_atom_site_type_symbol
_atom_site_label
_atom_site_fract_x
_atom_site_fract_y
_atom_site_fract_z
Si Si1 0.056002 0.910310 0.878258
Si Si2 0.419907 0.585278 0.841597
Si Si3 0.205626 0.082249 0.172890
Si Si4 0.500000 0.413420 0.060740
Si Si5 0.349012 0.088309 0.443641
Si Si6 0.813832 0.915552 0.696657
Si Si7 0.556548 0.904829 0.270936
O O1 0.058159 0.750000 0.854528
O O2 0.091581 0.927831 0.935490
O O3 0.000000 0.951573 0.897052
O O4 0.079302 0.005269 0.825323
O O5 0.427253 0.750000 0.825834
O O6 0.449899 0.549095 0.902123
O O7 0.361163 0.545569 0.845013
O O8 0.442401 0.491025 0.789967
O O9 0.203008 0.250000 0.171721
O O10 0.177238 0.023723 0.115173
O O11 0.180360 0.026728 0.234950
O O12 0.262612 0.026338 0.168802
O O13 0.500000 0.250000 0.043509
O O14 0.500000 0.500000 0.000000
O O15 0.333825 0.250000 0.454412
O O16 0.330776 0.000000 0.500000
O O17 0.808231 0.750000 0.701477
O O18 0.500000 0.881634 0.288094
O O19 0.582269 0.750000 0.264906
#
# Coordination Sequence:
#
# PCOD8297833 Si02
#       7
#    16  16  16   8  16  16  16
#     4   9  18  32  49  69  95 128 167 207 241 279
#     4  10  18  31  51  74  96 126 167 204 242 295
#     4   8  14  27  47  74 100 122 153 199 250 292
#     4  10  22  36  50  68  96 134 171 206 247 294
#     4  10  20  33  49  69  96 132 169 203 243 289
#     4   8  14  26  50  77  97 117 153 205 250 291
#     4  10  19  29  45  73 104 130 154 191 245 295
#
# _framework density 18.144763000000001
#
# number of rings (size 3 to 8) (size 9 to 14) (size 15 to 20)
#    0.000    2.769    0.769    2.308    0.000    4.615 
#    0.000    0.769    0.000    0.923    0.000    3.231 
#    0.000    0.000    0.000    0.000    0.000    0.000 
#
# Total GULP energy -644275.996370 kJ/mol
# GULP energy per Si atom -12389.923007 kJ/mol
# Density = 1.810346 g / cm^3
# Si number density = 18.144763 Si / 1000 Ang^3
#
#
#
# Elastic Constant Matrix: (Units=GPa)
#
#
# Indices 1 2 3 4 5 6 
#
# 1 107.0921 15.5678 56.5467 0.0000 0.0000 0.0000
# 2 15.5678 51.3559 35.9710 0.0000 0.0000 0.0000
# 3 56.5467 35.9710 114.6124 0.0000 0.0000 0.0000
# 4 0.0000 0.0000 0.0000 28.8974 0.0000 0.0000
# 5 0.0000 0.0000 0.0000 0.0000 22.7893 0.0000
# 6 0.0000 0.0000 0.0000 0.0000 0.0000 8.4897
#
#
#
# Elastic Compliance Matrix: (Units=1/GPa)
#
#
# Indices 1 2 3 4 5 6 
#
# 1 0.012646 0.000688 -0.006455 0.000000 0.000000 0.000000
# 2 0.000688 0.024996 -0.008184 0.000000 0.000000 0.000000
# 3 -0.006455 -0.008184 0.014479 0.000000 0.000000 0.000000
# 4 0.000000 0.000000 0.000000 0.034605 0.000000 0.000000
# 5 0.000000 0.000000 0.000000 0.000000 0.043880 0.000000
# 6 0.000000 0.000000 0.000000 0.000000 0.000000 0.117790
#
#
# Mechanical properties :
#
#
# Convention : Reuss Voigt Hill
#
# Bulk Modulus (GPa) = 41.29265 54.35903 47.82584
# Shear Modulus (GPa) = 17.58260 23.03361 20.30810
#
# Velocity S-wave (km/s) = 3.11628 3.56678 3.34911
# Velocity P-wave (km/s) = 5.97955 6.85464 6.43200
#
# Compressibility (1/GPa) = 0.02421739
#
# Stress axis : x y z
#
# Youngs Moduli (GPa) = 79.07492 40.00651 69.06785
#
# Poissons Ratio (x) = -0.02752 0.44585
# Poissons Ratio (y) = -0.05439 0.56527
# Poissons Ratio (z) = 0.51044 0.32743
#
# Static dielectric constant tensor:
#      x y z
#    x 3.711710 0.000000 0.000000 
#    y 0.000000 3.199220 0.000000 
#    z 0.000000 0.000000 3.143190 
# 
# 
# High freq. dielectric constant tensor:
#      x y z
#    x 1.708080 0.000000 0.000000 
#    y 0.000000 1.667890 0.000000 
#    z 0.000000 0.000000 1.678700 
# 
# From -- ./inp_files/55672.got.cif
#   From: 2010.03.12/outbox.cif.g09.slc.cpg/sg74_28_cif.got.tgz:55672.got - 2010.04.16 15:46:19.
