data_PCOD8297742
_publ_section_title
;
Structure prediction by ZEFSAII (Michael W. Deem and Ramdas Pophale) SiO2 
 PCOD8297742
Probable space group: I M M A
;
_chemical_formula_sum "Si O2"
_cell_formula_units_Z 112
_cell_length_a 18.373343
_cell_length_b 17.797651
_cell_length_c 18.950297
_cell_angle_alpha 90.000000
_cell_angle_beta 90.000000
_cell_angle_gamma 90.000000
_cell_volume 6196.791584
_symmetry_space_group_name_H-M "I M M A"
_symmetry_group_IT_number 74
_symmetry_cell_setting 'orthorhombic'
loop_
_space_group_symop_operation_xyz
x,y,z
-x,1/2-y,z
x,-y,-z
-x,1/2+y,-z
-x,-y,-z
x,1/2+y,-z
-x,y,z
x,1/2-y,z
1/2+x,1/2+y,1/2+z
1/2-x,-y,1/2+z
1/2+x,1/2-y,1/2-z
1/2-x,y,1/2-z
1/2-x,1/2-y,1/2-z
1/2+x,y,1/2-z
1/2-x,1/2+y,1/2+z
1/2+x,-y,1/2+z
loop_
_atom_site_type_symbol
_atom_site_label
_atom_site_fract_x
_atom_site_fract_y
_atom_site_fract_z
Si Si1 0.200135 0.581426 0.814916
Si Si2 0.314589 0.836856 0.893871
Si Si3 0.786935 0.416309 0.865076
Si Si4 0.918892 0.661769 0.186053
Si Si5 0.916016 0.162147 0.264638
Si Si6 0.333598 0.920744 0.030940
Si Si7 0.648273 0.338368 0.834543
O O1 0.250000 0.606537 0.750000
O O2 0.238875 0.618605 0.882492
O O3 0.197778 0.492558 0.822954
O O4 0.119978 0.615235 0.799875
O O5 0.296243 0.750000 0.889492
O O6 0.377590 0.859489 0.838494
O O7 0.341881 0.857835 0.971423
O O8 0.864819 0.375383 0.870984
O O9 0.750610 0.431168 0.942069
O O10 0.732528 0.361846 0.820597
O O11 0.914097 0.750000 0.176053
O O12 0.898154 0.639496 0.266192
O O13 0.000000 0.631967 0.170991
O O14 0.906837 0.250000 0.248056
O O15 0.000000 0.138700 0.270252
O O16 0.379900 0.888813 0.098257
O O17 0.362873 0.000000 0.000000
O O18 0.642419 0.250000 0.852028
#
# Coordination Sequence:
#
# PCOD8297742 Si02
#       7
#    16  16  16  16  16  16  16
#     4  10  18  30  50  77 101 130 166 213 257 297
#     4  10  18  32  53  77 101 133 174 212 253 300
#     4  10  20  31  52  75 104 134 170 211 253 304
#     4  10  20  34  52  77 107 134 167 213 259 302
#     4   9  19  34  52  76 106 136 168 209 256 306
#     4  10  20  33  50  75 103 131 170 214 251 295
#     4   9  18  32  53  77 100 133 171 210 254 302
#
# _framework density 18.073868999999998
#
# number of rings (size 3 to 8) (size 9 to 14) (size 15 to 20)
#    0.857    1.429    1.429    2.571    0.000    3.429 
#    0.000    0.714    0.000    5.571    0.000    2.000 
#    0.000    0.000    0.000    0.000    0.000    0.000 
#
# Total GULP energy -693955.650499 kJ/mol
# GULP energy per Si atom -12392.065187 kJ/mol
# Density = 1.803273 g / cm^3
# Si number density = 18.073869 Si / 1000 Ang^3
#
#
#
# Elastic Constant Matrix: (Units=GPa)
#
#
# Indices 1 2 3 4 5 6 
#
# 1 72.2312 20.3509 0.3940 0.0000 0.0000 0.0000
# 2 20.3509 66.3685 8.9170 0.0000 0.0000 0.0000
# 3 0.3940 8.9170 25.8695 0.0000 0.0000 0.0000
# 4 0.0000 0.0000 0.0000 28.4129 0.0000 0.0000
# 5 0.0000 0.0000 0.0000 0.0000 11.7964 0.0000
# 6 0.0000 0.0000 0.0000 0.0000 0.0000 14.3146
#
#
#
# Elastic Compliance Matrix: (Units=1/GPa)
#
#
# Indices 1 2 3 4 5 6 
#
# 1 0.015205 -0.004856 0.001442 0.000000 0.000000 0.000000
# 2 -0.004856 0.017350 -0.005906 0.000000 0.000000 0.000000
# 3 0.001442 -0.005906 0.040670 0.000000 0.000000 0.000000
# 4 0.000000 0.000000 0.000000 0.035195 0.000000 0.000000
# 5 0.000000 0.000000 0.000000 0.000000 0.084772 0.000000
# 6 0.000000 0.000000 0.000000 0.000000 0.000000 0.069859
#
#
# Mechanical properties :
#
#
# Convention : Reuss Voigt Hill
#
# Bulk Modulus (GPa) = 18.32046 24.86588 21.59317
# Shear Modulus (GPa) = 16.67303 19.89192 18.28248
#
# Velocity S-wave (km/s) = 3.04055 3.32111 3.18393
# Velocity P-wave (km/s) = 4.74184 5.33799 5.04872
#
# Compressibility (1/GPa) = 0.05458379
#
# Stress axis : x y z
#
# Youngs Moduli (GPa) = 65.76894 57.63688 24.58842
#
# Poissons Ratio (x) = 0.27989 -0.03546
# Poissons Ratio (y) = 0.31938 0.14523
# Poissons Ratio (z) = -0.09486 0.34043
#
# Static dielectric constant tensor:
#      x y z
#    x 3.227160 0.000000 0.000000 
#    y 0.000000 3.308230 0.000000 
#    z 0.000000 0.000000 3.184250 
# 
# 
# High freq. dielectric constant tensor:
#      x y z
#    x 1.671690 0.000000 0.000000 
#    y 0.000000 1.709030 0.000000 
#    z 0.000000 0.000000 1.681280 
# 
# From -- ./inp_files/53226.got.cif
#   From: 2010.03.12/outbox.cif.g09.slc.cpg/sg74_27_cif.got.tgz:53226.got - 2010.04.16 15:46:19.
