data_PCOD8297282
_publ_section_title
;
Structure prediction by ZEFSAII (Michael W. Deem and Ramdas Pophale) SiO2 
 PCOD8297282
Probable space group: I M M A
;
_chemical_formula_sum "Si O2"
_cell_formula_units_Z 96
_cell_length_a 20.529221
_cell_length_b 17.701991
_cell_length_c 16.619906
_cell_angle_alpha 90.000000
_cell_angle_beta 90.000000
_cell_angle_gamma 90.000000
_cell_volume 6039.808219
_symmetry_space_group_name_H-M "I M M A"
_symmetry_group_IT_number 74
_symmetry_cell_setting 'orthorhombic'
loop_
_space_group_symop_operation_xyz
x,y,z
-x,1/2-y,z
x,-y,-z
-x,1/2+y,-z
-x,-y,-z
x,1/2+y,-z
-x,y,z
x,1/2-y,z
1/2+x,1/2+y,1/2+z
1/2-x,-y,1/2+z
1/2+x,1/2-y,1/2-z
1/2-x,y,1/2-z
1/2-x,1/2-y,1/2-z
1/2+x,y,1/2-z
1/2-x,1/2+y,1/2+z
1/2+x,-y,1/2+z
loop_
_atom_site_type_symbol
_atom_site_label
_atom_site_fract_x
_atom_site_fract_y
_atom_site_fract_z
Si Si1 0.427383 0.918818 0.976566
Si Si2 0.645500 0.834162 0.732470
Si Si3 0.203678 0.959303 0.325495
Si Si4 0.427216 0.461564 0.201513
Si Si5 0.260468 0.622930 0.873486
Si Si6 0.311278 0.163987 0.957769
O O1 0.500000 0.911895 0.012534
O O2 0.426233 0.913711 0.880935
O O3 0.385503 0.853035 0.016499
O O4 0.396640 0.000000 0.000000
O O5 0.616176 0.750000 0.724425
O O6 0.588604 0.897207 0.732338
O O7 0.687093 0.838682 0.814634
O O8 0.689226 0.853213 0.655274
O O9 0.250000 0.942942 0.250000
O O10 0.210329 0.887963 0.383734
O O11 0.127848 0.972567 0.298228
O O12 0.229851 0.032953 0.371417
O O13 0.500000 0.495731 0.216529
O O14 0.266036 0.650765 0.964729
O O15 0.306157 0.250000 0.928593
#
# Coordination Sequence:
#
# PCOD8297282 Si02
#       6
#    16  16  16  16  16  16
#     4  10  18  30  47  66  95 134 169 196 229 288
#     4  10  17  27  46  72 102 127 156 200 248 295
#     4  11  20  36  53  70  95 135 175 209 246 294
#     4  10  19  30  48  72 100 135 166 197 239 291
#     4  10  17  31  49  70  94 129 168 201 240 293
#     4  12  22  31  48  73 103 131 165 211 254 294
#
# _framework density 15.894545000000001
#
# number of rings (size 3 to 8) (size 9 to 14) (size 15 to 20)
#    0.000    1.500    8.333    2.500    0.000    1.000 
#    0.000    1.667    0.000    0.000    0.000    2.333 
#    0.000    1.333    0.000    0.000    0.000    0.000 
#
# Total GULP energy -594986.385344 kJ/mol
# GULP energy per Si atom -12395.549695 kJ/mol
# Density = 1.585837 g / cm^3
# Si number density = 15.894545 Si / 1000 Ang^3
#
#
#
# Elastic Constant Matrix: (Units=GPa)
#
#
# Indices 1 2 3 4 5 6 
#
# 1 72.7990 27.2449 46.1556 0.0000 0.0000 0.0000
# 2 27.2449 110.3364 47.4087 0.0000 0.0000 0.0000
# 3 46.1556 47.4087 58.7718 0.0000 0.0000 0.0000
# 4 0.0000 0.0000 0.0000 23.6997 0.0000 0.0000
# 5 0.0000 0.0000 0.0000 0.0000 19.1053 0.0000
# 6 0.0000 0.0000 0.0000 0.0000 0.0000 14.0951
#
#
#
# Elastic Compliance Matrix: (Units=1/GPa)
#
#
# Indices 1 2 3 4 5 6 
#
# 1 0.028435 0.003939 -0.025508 0.000000 0.000000 0.000000
# 2 0.003939 0.014416 -0.014723 0.000000 0.000000 0.000000
# 3 -0.025508 -0.014723 0.048924 0.000000 0.000000 0.000000
# 4 0.000000 0.000000 0.000000 0.042195 0.000000 0.000000
# 5 0.000000 0.000000 0.000000 0.000000 0.052342 0.000000
# 6 0.000000 0.000000 0.000000 0.000000 0.000000 0.070947
#
#
# Mechanical properties :
#
#
# Convention : Reuss Voigt Hill
#
# Bulk Modulus (GPa) = 52.10736 53.72506 52.91621
# Shear Modulus (GPa) = 14.87037 19.45322 17.16179
#
# Velocity S-wave (km/s) = 3.06202 3.50221 3.28949
# Velocity P-wave (km/s) = 6.73466 7.08719 6.91317
#
# Compressibility (1/GPa) = 0.01919115
#
# Stress axis : x y z
#
# Youngs Moduli (GPa) = 35.16796 69.36511 20.43998
#
# Poissons Ratio (x) = -0.27323 0.52139
# Poissons Ratio (y) = -0.13853 0.30093
# Poissons Ratio (z) = 0.89708 1.02123
#
# Static dielectric constant tensor:
#      x y z
#    x 3.134120 0.000000 0.000000 
#    y 0.000000 2.980340 0.000000 
#    z 0.000000 0.000000 2.863380 
# 
# 
# High freq. dielectric constant tensor:
#      x y z
#    x 1.596030 0.000000 0.000000 
#    y 0.000000 1.601390 0.000000 
#    z 0.000000 0.000000 1.582700 
# 
# From -- ./inp_files/45389.got.cif
#   From: 2010.03.12/outbox.cif.g09.slc.cpg/sg74_23_cif.got.tgz:45389.got - 2010.04.16 15:46:19.
