data_PCOD8297450
_publ_section_title
;
Structure prediction by ZEFSAII (Michael W. Deem and Ramdas Pophale) SiO2 
 PCOD8297450
Probable space group: I M M A
;
_chemical_formula_sum "Si O2"
_cell_formula_units_Z 96
_cell_length_a 17.602792
_cell_length_b 18.507404
_cell_length_c 18.469948
_cell_angle_alpha 90.000000
_cell_angle_beta 90.000000
_cell_angle_gamma 90.000000
_cell_volume 6017.176287
_symmetry_space_group_name_H-M "I M M A"
_symmetry_group_IT_number 74
_symmetry_cell_setting 'orthorhombic'
loop_
_space_group_symop_operation_xyz
x,y,z
-x,1/2-y,z
x,-y,-z
-x,1/2+y,-z
-x,-y,-z
x,1/2+y,-z
-x,y,z
x,1/2-y,z
1/2+x,1/2+y,1/2+z
1/2-x,-y,1/2+z
1/2+x,1/2-y,1/2-z
1/2-x,y,1/2-z
1/2-x,1/2-y,1/2-z
1/2+x,y,1/2-z
1/2-x,1/2+y,1/2+z
1/2+x,-y,1/2+z
loop_
_atom_site_type_symbol
_atom_site_label
_atom_site_fract_x
_atom_site_fract_y
_atom_site_fract_z
Si Si1 0.500000 0.831081 0.517305
Si Si2 0.914507 0.462749 0.817095
Si Si3 0.320762 0.461690 0.199948
Si Si4 0.000000 0.831680 0.153853
Si Si5 0.588635 0.669545 0.769174
Si Si6 0.287959 0.524646 0.581759
Si Si7 0.360652 0.833614 0.605749
O O1 0.500000 0.750000 0.548556
O O2 0.500000 0.834231 0.432084
O O3 0.423301 0.864653 0.549449
O O4 0.876010 0.482073 0.740610
O O5 0.863806 0.489079 0.884486
O O6 0.000000 0.497434 0.822792
O O7 0.924503 0.375055 0.819711
O O8 0.250000 0.439797 0.250000
O O9 0.366663 0.388237 0.182041
O O10 0.287960 0.498183 0.126578
O O11 0.000000 0.750000 0.183974
O O12 0.500000 0.660803 0.783359
O O13 0.616021 0.750000 0.790428
O O14 0.606555 0.653801 0.685490
O O15 0.277268 0.500000 0.500000
O O16 0.290787 0.612227 0.590508
O O17 0.336444 0.750000 0.592377
#
# Coordination Sequence:
#
# PCOD8297450 Si02
#       7
#     8  16  16   8  16  16  16
#     4   9  16  25  39  67 105 127 146 192 241 290
#     4   9  19  32  51  75  95 127 157 213 253 291
#     4  10  19  32  46  69 104 136 166 204 245 294
#     4   9  18  31  49  73  95 123 165 210 256 302
#     4  10  18  29  48  74 102 134 172 204 236 284
#     4  11  22  33  48  72 103 138 170 198 244 310
#     4  10  18  27  44  70 103 136 163 192 234 290
#
# _framework density 15.954328
#
# number of rings (size 3 to 8) (size 9 to 14) (size 15 to 20)
#    0.500    1.667    4.167    1.500    1.167    1.333 
#    0.000    0.000    0.000    7.500    0.000    0.000 
#    0.000    0.000    0.000    0.000    0.000    0.000 
#
# Total GULP energy -594762.061213 kJ/mol
# GULP energy per Si atom -12390.876275 kJ/mol
# Density = 1.591802 g / cm^3
# Si number density = 15.954328 Si / 1000 Ang^3
#
#
#
# Elastic Constant Matrix: (Units=GPa)
#
#
# Indices 1 2 3 4 5 6 
#
# 1 73.7156 37.2504 51.3601 0.0000 0.0000 0.0000
# 2 37.2504 96.5737 34.6035 0.0000 0.0000 0.0000
# 3 51.3601 34.6035 85.7849 0.0000 0.0000 0.0000
# 4 0.0000 0.0000 0.0000 14.9307 0.0000 0.0000
# 5 0.0000 0.0000 0.0000 0.0000 21.2362 0.0000
# 6 0.0000 0.0000 0.0000 0.0000 0.0000 14.9192
#
#
#
# Elastic Compliance Matrix: (Units=1/GPa)
#
#
# Indices 1 2 3 4 5 6 
#
# 1 0.025216 -0.005046 -0.013061 0.000000 0.000000 0.000000
# 2 -0.005046 0.013114 -0.002269 0.000000 0.000000 0.000000
# 3 -0.013061 -0.002269 0.020392 0.000000 0.000000 0.000000
# 4 0.000000 0.000000 0.000000 0.066976 0.000000 0.000000
# 5 0.000000 0.000000 0.000000 0.000000 0.047089 0.000000
# 6 0.000000 0.000000 0.000000 0.000000 0.000000 0.067028
#
#
# Mechanical properties :
#
#
# Convention : Reuss Voigt Hill
#
# Bulk Modulus (GPa) = 55.64981 55.83356 55.74169
# Shear Modulus (GPa) = 17.44846 19.07457 18.26152
#
# Velocity S-wave (km/s) = 3.31063 3.46146 3.38688
# Velocity P-wave (km/s) = 7.04060 7.14475 7.09287
#
# Compressibility (1/GPa) = 0.01796951
#
# Stress axis : x y z
#
# Youngs Moduli (GPa) = 39.65737 76.25370 49.03832
#
# Poissons Ratio (x) = 0.38479 0.64051
# Poissons Ratio (y) = 0.20012 0.11125
# Poissons Ratio (z) = 0.51798 0.17300
#
# Static dielectric constant tensor:
#      x y z
#    x 3.056080 0.000000 0.000000 
#    y 0.000000 3.164230 0.000000 
#    z 0.000000 0.000000 2.809870 
# 
# 
# High freq. dielectric constant tensor:
#      x y z
#    x 1.601500 0.000000 0.000000 
#    y 0.000000 1.608620 0.000000 
#    z 0.000000 0.000000 1.578600 
# 
# From -- ./inp_files/44165.got.cif
#   From: 2010.03.12/outbox.cif.g09.slc.cpg/sg74_23_cif.got.tgz:44165.got - 2010.04.16 15:46:19.
