data_PCOD8297776
_publ_section_title
;
Structure prediction by ZEFSAII (Michael W. Deem and Ramdas Pophale) SiO2 
 PCOD8297776
Probable space group: I M M A
;
_chemical_formula_sum "Si O2"
_cell_formula_units_Z 60
_cell_length_a 13.988391
_cell_length_b 10.660797
_cell_length_c 19.253344
_cell_angle_alpha 90.000000
_cell_angle_beta 90.000000
_cell_angle_gamma 90.000000
_cell_volume 2871.201071
_symmetry_space_group_name_H-M "I M M A"
_symmetry_group_IT_number 74
_symmetry_cell_setting 'orthorhombic'
loop_
_space_group_symop_operation_xyz
x,y,z
-x,1/2-y,z
x,-y,-z
-x,1/2+y,-z
-x,-y,-z
x,1/2+y,-z
-x,y,z
x,1/2-y,z
1/2+x,1/2+y,1/2+z
1/2-x,-y,1/2+z
1/2+x,1/2-y,1/2-z
1/2-x,y,1/2-z
1/2-x,1/2-y,1/2-z
1/2+x,y,1/2-z
1/2-x,1/2+y,1/2+z
1/2+x,-y,1/2+z
loop_
_atom_site_type_symbol
_atom_site_label
_atom_site_fract_x
_atom_site_fract_y
_atom_site_fract_z
Si Si1 0.795675 0.511518 0.325568
Si Si2 0.500000 0.104953 0.619045
Si Si3 0.693054 0.393378 0.552589
Si Si4 0.000000 0.493328 0.727054
Si Si5 0.000000 0.250000 0.202967
Si Si6 0.216742 0.750000 0.829114
O O1 0.750000 0.532129 0.250000
O O2 0.761352 0.615702 0.380112
O O3 0.908381 0.533791 0.319889
O O4 0.763352 0.377122 0.359479
O O5 0.500000 0.250000 0.606419
O O6 0.407403 0.050448 0.580678
O O7 0.500000 0.081675 0.701035
O O8 0.731678 0.500000 0.500000
O O9 0.687475 0.250000 0.521260
O O10 0.000000 0.637646 0.744468
O O11 0.899939 0.250000 0.159139
O O12 0.250000 0.750000 0.750000
#
# Coordination Sequence:
#
# PCOD8297776 Si02
#       6
#    16   8  16   8   4   8
#     4  11  21  37  63  93 127 167 214 267 322 373
#     4  10  21  39  64  93 127 164 210 261 325 390
#     4  11  25  44  65  92 131 173 215 260 324 390
#     4  12  20  35  60 100 127 161 208 274 319 380
#     4  12  16  28  50  90 136 158 204 252 314 386
#     4  10  18  30  54  90 132 162 207 254 319 372
#
# _framework density 20.897179000000001
#
# number of rings (size 3 to 8) (size 9 to 14) (size 15 to 20)
#    0.000    1.067    8.000    0.400    1.867    1.600 
#    2.400    0.667    0.000    0.000    0.000    0.000 
#    0.000    0.000    0.000    0.000    0.000    0.000 
#
# Total GULP energy -371726.483216 kJ/mol
# GULP energy per Si atom -12390.882774 kJ/mol
# Density = 2.084962 g / cm^3
# Si number density = 20.897179 Si / 1000 Ang^3
#
#
#
# Elastic Constant Matrix: (Units=GPa)
#
#
# Indices 1 2 3 4 5 6 
#
# 1 148.6929 20.2560 34.1879 0.0000 0.0000 0.0000
# 2 20.2560 76.1218 34.4591 0.0000 0.0000 0.0000
# 3 34.1879 34.4591 71.4442 0.0000 0.0000 0.0000
# 4 0.0000 0.0000 0.0000 29.8531 0.0000 0.0000
# 5 0.0000 0.0000 0.0000 0.0000 47.1880 0.0000
# 6 0.0000 0.0000 0.0000 0.0000 0.0000 22.0160
#
#
#
# Elastic Compliance Matrix: (Units=1/GPa)
#
#
# Indices 1 2 3 4 5 6 
#
# 1 0.007570 -0.000479 -0.003391 0.000000 0.000000 0.000000
# 2 -0.000479 0.016837 -0.007891 0.000000 0.000000 0.000000
# 3 -0.003391 -0.007891 0.019426 0.000000 0.000000 0.000000
# 4 0.000000 0.000000 0.000000 0.033497 0.000000 0.000000
# 5 0.000000 0.000000 0.000000 0.000000 0.021192 0.000000
# 6 0.000000 0.000000 0.000000 0.000000 0.000000 0.045422
#
#
# Mechanical properties :
#
#
# Convention : Reuss Voigt Hill
#
# Bulk Modulus (GPa) = 49.23947 52.67389 50.95668
# Shear Modulus (GPa) = 28.69647 33.63514 31.16580
#
# Velocity S-wave (km/s) = 3.70972 4.01628 3.86604
# Velocity P-wave (km/s) = 6.47791 6.83873 6.66076
#
# Compressibility (1/GPa) = 0.02030891
#
# Stress axis : x y z
#
# Youngs Moduli (GPa) = 132.09476 59.39422 51.47736
#
# Poissons Ratio (x) = 0.02846 0.17458
# Poissons Ratio (y) = 0.06330 0.40623
# Poissons Ratio (z) = 0.44799 0.46870
#
# Static dielectric constant tensor:
#      x y z
#    x 4.592970 0.000000 0.000000 
#    y 0.000000 4.018930 0.000000 
#    z 0.000000 0.000000 3.461490 
# 
# 
# High freq. dielectric constant tensor:
#      x y z
#    x 1.815230 0.000000 0.000000 
#    y 0.000000 1.824790 0.000000 
#    z 0.000000 0.000000 1.785200 
# 
# From -- ./inp_files/42220.got.cif
#   From: 2010.03.12/outbox.cif.g09.slc.cpg/sg74_22_cif.got.tgz:42220.got - 2010.04.16 15:46:19.
