data_PCOD8297137
_publ_section_title
;
Structure prediction by ZEFSAII (Michael W. Deem and Ramdas Pophale) SiO2 
 PCOD8297137
Probable space group: I M M A
;
_chemical_formula_sum "Si O2"
_cell_formula_units_Z 96
_cell_length_a 23.083275
_cell_length_b 18.099882
_cell_length_c 13.575963
_cell_angle_alpha 90.000000
_cell_angle_beta 90.000000
_cell_angle_gamma 90.000000
_cell_volume 5672.099162
_symmetry_space_group_name_H-M "I M M A"
_symmetry_group_IT_number 74
_symmetry_cell_setting 'orthorhombic'
loop_
_space_group_symop_operation_xyz
x,y,z
-x,1/2-y,z
x,-y,-z
-x,1/2+y,-z
-x,-y,-z
x,1/2+y,-z
-x,y,z
x,1/2-y,z
1/2+x,1/2+y,1/2+z
1/2-x,-y,1/2+z
1/2+x,1/2-y,1/2-z
1/2-x,y,1/2-z
1/2-x,1/2-y,1/2-z
1/2+x,y,1/2-z
1/2-x,1/2+y,1/2+z
1/2+x,-y,1/2+z
loop_
_atom_site_type_symbol
_atom_site_label
_atom_site_fract_x
_atom_site_fract_y
_atom_site_fract_z
Si Si1 0.066570 0.025426 0.398127
Si Si2 0.877943 0.334446 0.335358
Si Si3 0.367325 0.889235 0.617313
Si Si4 0.568455 0.473137 0.689825
Si Si5 0.751356 0.668675 0.634185
Si Si6 0.066361 0.167246 0.932667
O O1 0.074112 0.113186 0.384167
O O2 0.000000 0.004876 0.405614
O O3 0.097455 0.000000 0.500000
O O4 0.091236 0.981844 0.302351
O O5 0.893588 0.250000 0.359144
O O6 0.878625 0.344856 0.217782
O O7 0.817016 0.357759 0.387700
O O8 0.297449 0.889777 0.597714
O O9 0.395935 0.844610 0.529175
O O10 0.394337 0.971259 0.621432
O O11 0.500000 0.492748 0.680812
O O12 0.582347 0.390380 0.653963
O O13 0.739465 0.750000 0.586896
O O14 0.750000 0.678225 0.750000
O O15 0.077320 0.250000 0.891714
O O16 0.000000 0.156042 0.964303
#
# Coordination Sequence:
#
# PCOD8297137 Si02
#       6
#    16  16  16  16  16  16
#     4   9  18  33  50  65  85 114 147 186 230 271
#     4   9  17  29  46  69  93 113 140 184 230 266
#     4  10  16  26  45  67  92 120 148 177 216 264
#     4   9  18  31  45  63  90 120 148 184 226 264
#     4   8  14  25  41  63  92 120 143 174 217 260
#     4  10  19  29  42  63  93 127 157 181 211 260
#
# _framework density 16.924952000000001
#
# number of rings (size 3 to 8) (size 9 to 14) (size 15 to 20)
#    0.000    2.833    0.000    3.500    0.000    2.333 
#    0.000    2.500    0.000    3.000    0.000    0.000 
#    0.000   20.667    0.000    0.000    0.000    0.000 
#
# Total GULP energy -594756.439362 kJ/mol
# GULP energy per Si atom -12390.759153 kJ/mol
# Density = 1.688643 g / cm^3
# Si number density = 16.924952 Si / 1000 Ang^3
#
#
#
# Elastic Constant Matrix: (Units=GPa)
#
#
# Indices 1 2 3 4 5 6 
#
# 1 37.3821 29.8819 25.8258 0.0000 0.0000 0.0000
# 2 29.8819 115.2456 50.1361 0.0000 0.0000 0.0000
# 3 25.8258 50.1361 72.7845 0.0000 0.0000 0.0000
# 4 0.0000 0.0000 0.0000 18.5142 0.0000 0.0000
# 5 0.0000 0.0000 0.0000 0.0000 14.4832 0.0000
# 6 0.0000 0.0000 0.0000 0.0000 0.0000 14.3381
#
#
#
# Elastic Compliance Matrix: (Units=1/GPa)
#
#
# Indices 1 2 3 4 5 6 
#
# 1 0.037869 -0.005674 -0.009529 0.000000 0.000000 0.000000
# 2 -0.005674 0.013240 -0.007107 0.000000 0.000000 0.000000
# 3 -0.009529 -0.007107 0.022016 0.000000 0.000000 0.000000
# 4 0.000000 0.000000 0.000000 0.054013 0.000000 0.000000
# 5 0.000000 0.000000 0.000000 0.000000 0.069046 0.000000
# 6 0.000000 0.000000 0.000000 0.000000 0.000000 0.069744
#
#
# Mechanical properties :
#
#
# Convention : Reuss Voigt Hill
#
# Bulk Modulus (GPa) = 35.08015 48.56664 41.82339
# Shear Modulus (GPa) = 15.62265 17.43832 16.53049
#
# Velocity S-wave (km/s) = 3.04148 3.21336 3.12860
# Velocity P-wave (km/s) = 5.75378 6.52113 6.14944
#
# Compressibility (1/GPa) = 0.02850615
#
# Stress axis : x y z
#
# Youngs Moduli (GPa) = 26.40668 75.52841 45.42217
#
# Poissons Ratio (x) = 0.42853 0.43281
# Poissons Ratio (y) = 0.14982 0.32281
# Poissons Ratio (z) = 0.25162 0.53678
#
# Static dielectric constant tensor:
#      x y z
#    x 3.415330 0.000000 0.000000 
#    y 0.000000 3.155920 0.000000 
#    z 0.000000 0.000000 3.087940 
# 
# 
# High freq. dielectric constant tensor:
#      x y z
#    x 1.642220 0.000000 0.000000 
#    y 0.000000 1.644800 0.000000 
#    z 0.000000 0.000000 1.623350 
# 
# From -- ./inp_files/26260.got.cif
#   From: 2010.03.12/outbox.cif.g09.slc.cpg/sg74_14_cif.got.tgz:26260.got - 2010.04.16 15:46:19.
