data_PCOD8297755
_publ_section_title
;
Structure prediction by ZEFSAII (Michael W. Deem and Ramdas Pophale) SiO2 
 PCOD8297755
Probable space group: I M M A
;
_chemical_formula_sum "Si O2"
_cell_formula_units_Z 56
_cell_length_a 8.644102
_cell_length_b 35.895999
_cell_length_c 9.848856
_cell_angle_alpha 90.000000
_cell_angle_beta 90.000000
_cell_angle_gamma 90.000000
_cell_volume 3055.988496
_symmetry_space_group_name_H-M "I M M A"
_symmetry_group_IT_number 74
_symmetry_cell_setting 'orthorhombic'
loop_
_space_group_symop_operation_xyz
x,y,z
-x,1/2-y,z
x,-y,-z
-x,1/2+y,-z
-x,-y,-z
x,1/2+y,-z
-x,y,z
x,1/2-y,z
1/2+x,1/2+y,1/2+z
1/2-x,-y,1/2+z
1/2+x,1/2-y,1/2-z
1/2-x,y,1/2-z
1/2-x,1/2-y,1/2-z
1/2+x,y,1/2-z
1/2-x,1/2+y,1/2+z
1/2+x,-y,1/2+z
loop_
_atom_site_type_symbol
_atom_site_label
_atom_site_fract_x
_atom_site_fract_y
_atom_site_fract_z
Si Si1 0.182866 0.468577 0.395088
Si Si2 0.317343 0.825432 0.399038
Si Si3 0.317439 0.610181 0.604689
Si Si4 0.816511 0.750000 0.400552
O O1 0.236249 0.500000 0.500000
O O2 0.250000 0.480060 0.250000
O O3 0.249901 0.429182 0.444761
O O4 0.000000 0.465271 0.384616
O O5 0.500000 0.821021 0.387496
O O6 0.250000 0.832908 0.250000
O O7 0.267461 0.859429 0.494313
O O8 0.247398 0.787910 0.468637
O O9 0.500000 0.606721 0.618314
O O10 0.250000 0.622036 0.750000
O O11 0.750000 0.750000 0.250000
O O12 0.000000 0.750000 0.402033
#
# Coordination Sequence:
#
# PCOD8297755 Si02
#       4
#    16  16  16   8
#     4  10  21  36  55  78 104 136 172 211 256 305
#     4  10  20  34  53  78 105 135 172 213 256 303
#     4  10  21  36  55  77 104 138 172 210 257 306
#     4  10  18  30  51  76 103 136 170 210 258 302
#
# _framework density 18.324676
#
# number of rings (size 3 to 8) (size 9 to 14) (size 15 to 20)
#    0.000    2.000    0.000    7.286    0.000    8.000 
#    0.000    6.429    0.000    0.000    0.000    0.000 
#    0.000    0.000    0.000    0.000    0.000    0.000 
#
# Total GULP energy -347200.396516 kJ/mol
# GULP energy per Si atom -12400.014161 kJ/mol
# Density = 1.828297 g / cm^3
# Si number density = 18.324676 Si / 1000 Ang^3
#
#
#
# Elastic Constant Matrix: (Units=GPa)
#
#
# Indices 1 2 3 4 5 6 
#
# 1 107.4020 74.0181 49.0423 0.0009 -0.0005 -0.0003
# 2 74.0181 189.5900 107.5154 0.0052 0.0007 0.0012
# 3 49.0423 107.5154 99.0046 0.0089 0.0009 0.0014
# 4 0.0009 0.0052 0.0089 34.1144 0.0011 0.0016
# 5 -0.0005 0.0007 0.0009 0.0011 26.5697 0.0010
# 6 -0.0003 0.0012 0.0014 0.0016 0.0010 23.2182
#
#
#
# Elastic Compliance Matrix: (Units=1/GPa)
#
#
# Indices 1 2 3 4 5 6 
#
# 1 0.012955 -0.003693 -0.002407 0.000001 0.000000 0.000001
# 2 -0.003693 0.014783 -0.014224 0.000002 0.000000 0.000000
# 3 -0.002407 -0.014224 0.026740 -0.000005 -0.000001 -0.000001
# 4 0.000001 0.000002 -0.000005 0.029313 -0.000001 -0.000002
# 5 0.000000 0.000000 -0.000001 -0.000001 0.037637 -0.000002
# 6 0.000001 0.000000 -0.000001 -0.000002 -0.000002 0.043070
#
#
# Mechanical properties :
#
#
# Convention : Reuss Voigt Hill
#
# Bulk Modulus (GPa) = 72.31006 95.23868 83.77437
# Shear Modulus (GPa) = 23.83728 27.80851 25.82290
#
# Velocity S-wave (km/s) = 3.61061 3.89979 3.75799
# Velocity P-wave (km/s) = 7.54508 8.50668 8.04027
#
# Compressibility (1/GPa) = 0.01382933
#
# Stress axis : x y z
#
# Youngs Moduli (GPa) = 77.19131 67.64648 37.39701
#
# Poissons Ratio (x) = 0.24979 0.09002
# Poissons Ratio (y) = 0.28504 0.53195
# Poissons Ratio (z) = 0.18581 0.96223
#
# Static dielectric constant tensor:
#      x y z
#    x 3.499150 0.000000 0.000000 
#    y 0.000000 3.973090 0.000000 
#    z 0.000000 0.000000 3.251320 
# 
# 
# High freq. dielectric constant tensor:
#      x y z
#    x 1.731040 0.000000 0.000000 
#    y 0.000000 1.727570 0.000000 
#    z 0.000000 0.000000 1.688090 
# 
# From -- ./inp_files/17273.got.cif
#   From: 2010.03.12/outbox.cif.g09.slc.cpg/sg74_9_cif.got.tgz:17273.got - 2010.04.16 15:46:19.
