data_PCOD8297270
_publ_section_title
;
Structure prediction by ZEFSAII (Michael W. Deem and Ramdas Pophale) SiO2 
 PCOD8297270
Probable space group: I M M A
;
_chemical_formula_sum "Si O2"
_cell_formula_units_Z 96
_cell_length_a 28.431565
_cell_length_b 7.771501
_cell_length_c 31.382588
_cell_angle_alpha 90.000000
_cell_angle_beta 90.000000
_cell_angle_gamma 90.000000
_cell_volume 6934.169100
_symmetry_space_group_name_H-M "I M M A"
_symmetry_group_IT_number 74
_symmetry_cell_setting 'orthorhombic'
loop_
_space_group_symop_operation_xyz
x,y,z
-x,1/2-y,z
x,-y,-z
-x,1/2+y,-z
-x,-y,-z
x,1/2+y,-z
-x,y,z
x,1/2-y,z
1/2+x,1/2+y,1/2+z
1/2-x,-y,1/2+z
1/2+x,1/2-y,1/2-z
1/2-x,y,1/2-z
1/2-x,1/2-y,1/2-z
1/2+x,y,1/2-z
1/2-x,1/2+y,1/2+z
1/2+x,-y,1/2+z
loop_
_atom_site_type_symbol
_atom_site_label
_atom_site_fract_x
_atom_site_fract_y
_atom_site_fract_z
Si Si1 0.798323 0.951731 0.453943
Si Si2 0.861176 0.549341 0.684689
Si Si3 0.051204 0.947381 0.631427
Si Si4 0.766772 0.941692 0.633747
Si Si5 0.404854 0.451261 0.954072
Si Si6 0.230936 0.750000 0.182808
Si Si7 0.174851 0.250000 0.736968
O O1 0.796900 0.750000 0.445992
O O2 0.851609 0.023444 0.451581
O O3 0.776574 0.000000 0.500000
O O4 0.767565 0.041778 0.417361
O O5 0.864712 0.750000 0.699132
O O6 0.908061 0.476098 0.661608
O O7 0.819236 0.523937 0.651001
O O8 0.853229 0.425280 0.725310
O O9 0.047269 0.750000 0.643506
O O10 0.000000 0.035743 0.639748
O O11 0.063780 0.961216 0.581825
O O12 0.749573 0.750000 0.646208
O O13 0.730527 0.078752 0.653709
O O14 0.405875 0.250000 0.946310
O O15 0.426516 0.500000 0.000000
O O16 0.184403 0.750000 0.212314
O O17 0.276346 0.750000 0.212274
#
# Coordination Sequence:
#
# PCOD8297270 Si02
#       7
#    16  16  16  16  16   8   8
#     4  10  18  27  40  58  79 102 134 167 199 241
#     4   9  18  30  45  60  78 101 127 158 200 246
#     4  10  20  32  44  57  75  98 128 167 208 248
#     4  10  17  27  44  60  80 104 126 158 198 242
#     4  10  20  30  43  56  72  96 128 168 206 249
#     4   9  18  30  42  64  82  98 122 156 198 247
#     4   9  18  30  47  60  80 100 121 156 198 251
#
# _framework density 13.844485000000001
#
# number of rings (size 3 to 8) (size 9 to 14) (size 15 to 20)
#    0.000    2.333    2.500    1.000    1.167    2.667 
#    0.000    3.333    0.000    0.000    0.000    0.000 
#    0.000    0.000    0.000    0.000    0.000    0.000 
#
# Total GULP energy -595032.029579 kJ/mol
# GULP energy per Si atom -12396.500616 kJ/mol
# Density = 1.381297 g / cm^3
# Si number density = 13.844485 Si / 1000 Ang^3
#
#
#
# Elastic Constant Matrix: (Units=GPa)
#
#
# Indices 1 2 3 4 5 6 
#
# 1 39.8246 22.2137 43.5207 0.0000 0.0000 0.0000
# 2 22.2137 72.1117 36.3528 0.0000 0.0000 0.0000
# 3 43.5207 36.3528 86.0501 0.0000 0.0000 0.0000
# 4 0.0000 0.0000 0.0000 20.5244 0.0000 0.0000
# 5 0.0000 0.0000 0.0000 0.0000 2.6309 0.0000
# 6 0.0000 0.0000 0.0000 0.0000 0.0000 9.5665
#
#
#
# Elastic Compliance Matrix: (Units=1/GPa)
#
#
# Indices 1 2 3 4 5 6 
#
# 1 0.056962 -0.003842 -0.027186 0.000000 0.000000 0.000000
# 2 -0.003842 0.017879 -0.005610 0.000000 0.000000 0.000000
# 3 -0.027186 -0.005610 0.027741 0.000000 0.000000 0.000000
# 4 0.000000 0.000000 0.000000 0.048722 0.000000 0.000000
# 5 0.000000 0.000000 0.000000 0.000000 0.380098 0.000000
# 6 0.000000 0.000000 0.000000 0.000000 0.000000 0.104532
#
#
# Mechanical properties :
#
#
# Convention : Reuss Voigt Hill
#
# Bulk Modulus (GPa) = 34.12296 44.68453 39.40374
# Shear Modulus (GPa) = 6.95430 12.93764 9.94597
#
# Velocity S-wave (km/s) = 2.24367 3.06027 2.68322
# Velocity P-wave (km/s) = 5.60472 6.69576 6.17439
#
# Compressibility (1/GPa) = 0.02930578
#
# Stress axis : x y z
#
# Youngs Moduli (GPa) = 17.55543 55.93147 36.04788
#
# Poissons Ratio (x) = 0.21489 0.98001
# Poissons Ratio (y) = 0.06745 0.20223
# Poissons Ratio (z) = 0.47727 0.31378
#
# Static dielectric constant tensor:
#      x y z
#    x 2.538120 0.000000 0.000000 
#    y 0.000000 2.838080 0.000000 
#    z 0.000000 0.000000 2.696810 
# 
# 
# High freq. dielectric constant tensor:
#      x y z
#    x 1.465830 0.000000 0.000000 
#    y 0.000000 1.543810 0.000000 
#    z 0.000000 0.000000 1.508650 
# 
# From -- ./inp_files/64714.got.cif
#   From: 2010.03.12/outbox.cif.g09.slc.cpg/sg74_33_cif.got.tgz:64714.got - 2010.04.16 15:46:19.
