data_PCOD8297398
_publ_section_title
;
Structure prediction by ZEFSAII (Michael W. Deem and Ramdas Pophale) SiO2 
 PCOD8297398
Probable space group: I M M A
;
_chemical_formula_sum "Si O2"
_cell_formula_units_Z 96
_cell_length_a 33.191470
_cell_length_b 7.942034
_cell_length_c 29.989696
_cell_angle_alpha 90.000000
_cell_angle_beta 90.000000
_cell_angle_gamma 90.000000
_cell_volume 7905.517283
_symmetry_space_group_name_H-M "I M M A"
_symmetry_group_IT_number 74
_symmetry_cell_setting 'orthorhombic'
loop_
_space_group_symop_operation_xyz
x,y,z
-x,1/2-y,z
x,-y,-z
-x,1/2+y,-z
-x,-y,-z
x,1/2+y,-z
-x,y,z
x,1/2-y,z
1/2+x,1/2+y,1/2+z
1/2-x,-y,1/2+z
1/2+x,1/2-y,1/2-z
1/2-x,y,1/2-z
1/2-x,1/2-y,1/2-z
1/2+x,y,1/2-z
1/2-x,1/2+y,1/2+z
1/2+x,-y,1/2+z
loop_
_atom_site_type_symbol
_atom_site_label
_atom_site_fract_x
_atom_site_fract_y
_atom_site_fract_z
Si Si1 0.305864 0.447610 0.550582
Si Si2 0.259448 0.436805 0.369011
Si Si3 0.882134 0.556776 0.104731
Si Si4 0.545619 0.052216 0.451223
Si Si5 0.840895 0.564266 0.813400
Si Si6 0.732619 0.250000 0.820781
Si Si7 0.185200 0.750000 0.234645
O O1 0.300477 0.500000 0.500000
O O2 0.301235 0.250000 0.556352
O O3 0.270434 0.534158 0.579220
O O4 0.349692 0.508612 0.568215
O O5 0.240006 0.250000 0.363517
O O6 0.300024 0.450425 0.340911
O O7 0.229267 0.581607 0.351208
O O8 0.873546 0.750000 0.115683
O O9 0.926934 0.533411 0.086110
O O10 0.877459 0.458716 0.151488
O O11 0.500000 0.986833 0.444311
O O12 0.548585 0.250000 0.445725
O O13 0.561293 0.000000 0.500000
O O14 0.844832 0.750000 0.791062
O O15 0.840865 0.418240 0.775949
O O16 0.774213 0.250000 0.793952
O O17 0.695063 0.250000 0.787047
#
# Coordination Sequence:
#
# PCOD8297398 Si02
#       7
#    16  16  16  16  16   8   8
#     4  10  18  26  36  51  68  85 110 141 168 200
#     4   9  16  26  37  49  67  89 108 131 162 191
#     4  10  18  28  41  53  68  87 107 136 173 207
#     4  10  20  31  40  51  67  86 111 141 170 206
#     4   9  16  26  39  53  70  86 105 132 160 196
#     4   9  16  26  38  50  70  88 106 132 154 197
#     4   9  16  26  38  54  69  86 108 128 159 192
#
# _framework density 12.143416999999999
#
# number of rings (size 3 to 8) (size 9 to 14) (size 15 to 20)
#    0.000    2.500    1.667    2.000    0.000    5.000 
#    0.000    3.333    0.000    0.000    0.000    0.000 
#    0.000    0.000    0.000    0.000    0.000    0.000 
#
# Total GULP energy -595024.980584 kJ/mol
# GULP energy per Si atom -12396.353762 kJ/mol
# Density = 1.211578 g / cm^3
# Si number density = 12.143417 Si / 1000 Ang^3
#
#
#
# Elastic Constant Matrix: (Units=GPa)
#
#
# Indices 1 2 3 4 5 6 
#
# 1 28.6934 21.2176 29.8068 0.0000 0.0000 0.0000
# 2 21.2176 86.9160 33.9871 0.0000 0.0000 0.0000
# 3 29.8068 33.9871 56.9647 0.0000 0.0000 0.0000
# 4 0.0000 0.0000 0.0000 16.9228 0.0000 0.0000
# 5 0.0000 0.0000 0.0000 0.0000 18.7033 0.0000
# 6 0.0000 0.0000 0.0000 0.0000 0.0000 10.9302
#
#
#
# Elastic Compliance Matrix: (Units=1/GPa)
#
#
# Indices 1 2 3 4 5 6 
#
# 1 0.077399 -0.003988 -0.038120 0.000000 0.000000 0.000000
# 2 -0.003988 0.015212 -0.006989 0.000000 0.000000 0.000000
# 3 -0.038120 -0.006989 0.041671 0.000000 0.000000 0.000000
# 4 0.000000 0.000000 0.000000 0.059092 0.000000 0.000000
# 5 0.000000 0.000000 0.000000 0.000000 0.053467 0.000000
# 6 0.000000 0.000000 0.000000 0.000000 0.000000 0.091489
#
#
# Mechanical properties :
#
#
# Convention : Reuss Voigt Hill
#
# Bulk Modulus (GPa) = 27.71011 38.06634 32.88822
# Shear Modulus (GPa) = 11.14694 15.14877 13.14785
#
# Velocity S-wave (km/s) = 3.03304 3.53581 3.29403
# Velocity P-wave (km/s) = 5.92742 6.93431 6.45054
#
# Compressibility (1/GPa) = 0.03608792
#
# Stress axis : x y z
#
# Youngs Moduli (GPa) = 12.91999 65.73792 23.99760
#
# Poissons Ratio (x) = 0.26219 0.91478
# Poissons Ratio (y) = 0.05153 0.16772
# Poissons Ratio (z) = 0.49251 0.45944
#
# Static dielectric constant tensor:
#      x y z
#    x 2.168540 0.000000 0.000000 
#    y 0.000000 2.744920 0.000000 
#    z 0.000000 0.000000 1.845030 
# 
# 
# High freq. dielectric constant tensor:
#      x y z
#    x 1.398540 0.000000 0.000000 
#    y 0.000000 1.484440 0.000000 
#    z 0.000000 0.000000 1.435600 
# 
# From -- ./inp_files/73994.got.cif
#   From: 2010.03.12/outbox.cif.g09.slc.cpg/sg74_37_cif.got.tgz:73994.got - 2010.04.16 15:46:19.
