data_PCOD8297528
_publ_section_title
;
Structure prediction by ZEFSAII (Michael W. Deem and Ramdas Pophale) SiO2 
 PCOD8297528
Probable space group: I M M A
;
_chemical_formula_sum "Si O2"
_cell_formula_units_Z 104
_cell_length_a 9.530919
_cell_length_b 25.779717
_cell_length_c 23.946188
_cell_angle_alpha 90.000000
_cell_angle_beta 90.000000
_cell_angle_gamma 90.000000
_cell_volume 5883.683625
_symmetry_space_group_name_H-M "I M M A"
_symmetry_group_IT_number 74
_symmetry_cell_setting 'orthorhombic'
loop_
_space_group_symop_operation_xyz
x,y,z
-x,1/2-y,z
x,-y,-z
-x,1/2+y,-z
-x,-y,-z
x,1/2+y,-z
-x,y,z
x,1/2-y,z
1/2+x,1/2+y,1/2+z
1/2-x,-y,1/2+z
1/2+x,1/2-y,1/2-z
1/2-x,y,1/2-z
1/2-x,1/2-y,1/2-z
1/2+x,y,1/2-z
1/2-x,1/2+y,1/2+z
1/2+x,-y,1/2+z
loop_
_atom_site_type_symbol
_atom_site_label
_atom_site_fract_x
_atom_site_fract_y
_atom_site_fract_z
Si Si1 0.334715 0.191321 0.500973
Si Si2 0.835766 0.936621 0.195116
Si Si3 0.153795 0.190773 0.297245
Si Si4 0.161431 0.445476 0.195813
Si Si5 0.165504 0.654469 0.118131
Si Si6 0.662424 0.353491 0.384786
Si Si7 0.165367 0.250000 0.806378
O O1 0.500000 0.196472 0.508101
O O2 0.274409 0.250000 0.491776
O O3 0.268657 0.165183 0.556720
O O4 0.299560 0.151948 0.450085
O O5 0.750000 0.920616 0.250000
O O6 0.784539 0.900540 0.143718
O O7 0.000000 0.927879 0.208018
O O8 0.803168 0.995756 0.177780
O O9 0.130912 0.250000 0.280781
O O10 0.250000 0.162889 0.250000
O O11 0.236436 0.187810 0.355239
O O12 0.000000 0.163691 0.300010
O O13 0.250000 0.428866 0.250000
O O14 0.196777 0.410029 0.141566
O O15 0.000000 0.439691 0.213045
O O16 0.213368 0.699842 0.159298
O O17 0.000000 0.654441 0.111866
O O18 0.500000 0.338469 0.374278
O O19 0.250000 0.250000 0.750000
O O20 0.000000 0.250000 0.793847
#
# Coordination Sequence:
#
# PCOD8297528 Si02
#       7
#    16  16  16  16  16  16   8
#     4   9  16  28  46  68  93 123 159 195 232 278
#     4   9  17  30  48  69  95 124 152 188 236 286
#     4  10  20  32  46  66  93 121 151 193 244 292
#     4   9  18  31  46  68  95 121 153 194 239 282
#     4   9  16  28  46  69  95 123 155 191 231 278
#     4  10  19  30  47  69  91 120 161 200 231 273
#     4  10  18  28  46  72  98 120 151 192 231 280
#
# _framework density 17.676000999999999
#
# number of rings (size 3 to 8) (size 9 to 14) (size 15 to 20)
#    0.000    2.615    0.769    1.846    0.000    3.385 
#    0.000    0.769    0.000    6.462    0.000    0.000 
#    0.000    6.154    0.000    0.000    0.000    0.000 
#
# Total GULP energy -644441.403930 kJ/mol
# GULP energy per Si atom -12393.103922 kJ/mol
# Density = 1.763577 g / cm^3
# Si number density = 17.676001 Si / 1000 Ang^3
#
#
#
# Elastic Constant Matrix: (Units=GPa)
#
#
# Indices 1 2 3 4 5 6 
#
# 1 58.8206 25.7477 46.3253 0.0000 0.0000 0.0000
# 2 25.7477 112.8363 75.0666 0.0000 0.0000 0.0000
# 3 46.3253 75.0666 168.9785 0.0000 0.0000 0.0000
# 4 0.0000 0.0000 0.0000 28.0181 0.0000 0.0000
# 5 0.0000 0.0000 0.0000 0.0000 21.0785 0.0000
# 6 0.0000 0.0000 0.0000 0.0000 0.0000 14.4581
#
#
#
# Elastic Compliance Matrix: (Units=1/GPa)
#
#
# Indices 1 2 3 4 5 6 
#
# 1 0.021841 -0.001420 -0.005357 0.000000 0.000000 0.000000
# 2 -0.001420 0.012673 -0.005240 0.000000 0.000000 0.000000
# 3 -0.005357 -0.005240 0.009714 0.000000 0.000000 0.000000
# 4 0.000000 0.000000 0.000000 0.035691 0.000000 0.000000
# 5 0.000000 0.000000 0.000000 0.000000 0.047442 0.000000
# 6 0.000000 0.000000 0.000000 0.000000 0.000000 0.069166
#
#
# Mechanical properties :
#
#
# Convention : Reuss Voigt Hill
#
# Bulk Modulus (GPa) = 49.52020 70.54606 60.03313
# Shear Modulus (GPa) = 21.99803 25.61066 23.80435
#
# Velocity S-wave (km/s) = 3.53159 3.81056 3.67373
# Velocity P-wave (km/s) = 6.68624 7.70440 7.21331
#
# Compressibility (1/GPa) = 0.02019378
#
# Stress axis : x y z
#
# Youngs Moduli (GPa) = 45.78455 78.90977 102.93910
#
# Poissons Ratio (x) = 0.11206 0.55144
# Poissons Ratio (y) = 0.06502 0.53944
# Poissons Ratio (z) = 0.24527 0.41352
#
# Static dielectric constant tensor:
#      x y z
#    x 3.124310 0.000000 0.000000 
#    y 0.000000 3.448760 0.000000 
#    z 0.000000 0.000000 3.423860 
# 
# 
# High freq. dielectric constant tensor:
#      x y z
#    x 1.651040 0.000000 0.000000 
#    y 0.000000 1.685330 0.000000 
#    z 0.000000 0.000000 1.676620 
# 
# From -- ./inp_files/57588.got.cif
#   From: 2010.03.12/outbox.cif.g09.slc.cpg/sg74_29_cif.got.tgz:57588.got - 2010.04.16 15:46:19.
