data_PCOD8297334
_publ_section_title
;
Structure prediction by ZEFSAII (Michael W. Deem and Ramdas Pophale) SiO2 
 PCOD8297334
Probable space group: I M M A
;
_chemical_formula_sum "Si O2"
_cell_formula_units_Z 128
_cell_length_a 18.232114
_cell_length_b 20.463412
_cell_length_c 20.682042
_cell_angle_alpha 90.000000
_cell_angle_beta 90.000000
_cell_angle_gamma 90.000000
_cell_volume 7716.289118
_symmetry_space_group_name_H-M "I M M A"
_symmetry_group_IT_number 74
_symmetry_cell_setting 'orthorhombic'
loop_
_space_group_symop_operation_xyz
x,y,z
-x,1/2-y,z
x,-y,-z
-x,1/2+y,-z
-x,-y,-z
x,1/2+y,-z
-x,y,z
x,1/2-y,z
1/2+x,1/2+y,1/2+z
1/2-x,-y,1/2+z
1/2+x,1/2-y,1/2-z
1/2-x,y,1/2-z
1/2-x,1/2-y,1/2-z
1/2+x,y,1/2-z
1/2-x,1/2+y,1/2+z
1/2+x,-y,1/2+z
loop_
_atom_site_type_symbol
_atom_site_label
_atom_site_fract_x
_atom_site_fract_y
_atom_site_fract_z
Si Si1 0.204305 0.321145 0.683958
Si Si2 0.184492 0.323331 0.930302
Si Si3 0.802693 0.825829 0.690770
Si Si4 0.413549 0.929441 0.375451
Si Si5 0.915917 0.427007 0.270596
Si Si6 0.699335 0.823987 0.574701
Si Si7 0.582150 0.075592 0.382150
Si Si8 0.836505 0.556364 0.259242
O O1 0.165413 0.250000 0.674790
O O2 0.250000 0.319628 0.750000
O O3 0.254793 0.337285 0.623117
O O4 0.149344 0.382456 0.691569
O O5 0.152113 0.250000 0.921988
O O6 0.118061 0.374946 0.924033
O O7 0.223922 0.330100 0.000119
O O8 0.823642 0.750000 0.695544
O O9 0.750000 0.846412 0.750000
O O10 0.877693 0.866291 0.693979
O O11 0.765147 0.843632 0.622474
O O12 0.500000 0.918827 0.365567
O O13 0.373813 0.922335 0.307186
O O14 0.397489 0.001763 0.403873
O O15 0.909176 0.417628 0.194336
O O16 0.875149 0.493683 0.290944
O O17 0.000000 0.430171 0.293349
O O18 0.673956 0.750000 0.591394
O O19 0.631720 0.872103 0.582736
O O20 0.500000 0.091882 0.403950
O O21 0.750000 0.541271 0.250000
#
# Coordination Sequence:
#
# PCOD8297334 Si02
#       8
#    16  16  16  16  16  16  16  16
#     4   9  16  29  51  75  96 123 166 213 249 286
#     4  10  20  34  49  72 104 134 167 206 250 296
#     4  10  19  33  53  76  99 128 171 217 249 289
#     4  10  20  33  48  73 107 138 169 205 245 293
#     4  10  20  32  50  77 105 130 162 209 262 306
#     4  10  21  34  50  73 102 133 170 211 248 291
#     4   9  19  33  48  68 100 138 171 204 245 294
#     4  10  17  29  52  77  99 131 171 208 251 290
#
# _framework density 16.588284000000002
#
# number of rings (size 3 to 8) (size 9 to 14) (size 15 to 20)
#    0.000    2.250    3.750    1.500    1.750    1.750 
#    0.000    3.750    0.000    1.125    0.000    2.625 
#    0.000    6.000    0.000    0.000    0.000    0.000 
#
# Total GULP energy -793306.447261 kJ/mol
# GULP energy per Si atom -12395.413238 kJ/mol
# Density = 1.655053 g / cm^3
# Si number density = 16.588284 Si / 1000 Ang^3
#
#
#
# Elastic Constant Matrix: (Units=GPa)
#
#
# Indices 1 2 3 4 5 6 
#
# 1 85.4328 59.3831 38.4620 0.0000 0.0000 0.0000
# 2 59.3831 115.3578 39.1151 0.0000 0.0000 0.0000
# 3 38.4620 39.1151 79.6204 0.0000 0.0000 0.0000
# 4 0.0000 0.0000 0.0000 18.0090 0.0000 0.0000
# 5 0.0000 0.0000 0.0000 0.0000 19.2327 0.0000
# 6 0.0000 0.0000 0.0000 0.0000 0.0000 17.9229
#
#
#
# Elastic Compliance Matrix: (Units=1/GPa)
#
#
# Indices 1 2 3 4 5 6 
#
# 1 0.020079 -0.008456 -0.005545 0.000000 0.000000 0.000000
# 2 -0.008456 0.013962 -0.002775 0.000000 0.000000 0.000000
# 3 -0.005545 -0.002775 0.016601 0.000000 0.000000 0.000000
# 4 0.000000 0.000000 0.000000 0.055528 0.000000 0.000000
# 5 0.000000 0.000000 0.000000 0.000000 0.051995 0.000000
# 6 0.000000 0.000000 0.000000 0.000000 0.000000 0.055795
#
#
# Mechanical properties :
#
#
# Convention : Reuss Voigt Hill
#
# Bulk Modulus (GPa) = 58.50947 61.59237 60.05092
# Shear Modulus (GPa) = 19.74652 20.59631 20.17142
#
# Velocity S-wave (km/s) = 3.45395 3.52748 3.49091
# Velocity P-wave (km/s) = 7.15922 7.33495 7.24762
#
# Compressibility (1/GPa) = 0.01709125
#
# Stress axis : x y z
#
# Youngs Moduli (GPa) = 49.80259 71.62128 60.23561
#
# Poissons Ratio (x) = 0.60562 0.33404
# Poissons Ratio (y) = 0.42113 0.16712
# Poissons Ratio (z) = 0.27618 0.19871
#
# Static dielectric constant tensor:
#      x y z
#    x 2.935520 0.000000 0.000000 
#    y 0.000000 3.573770 0.000000 
#    z 0.000000 0.000000 3.052920 
# 
# 
# High freq. dielectric constant tensor:
#      x y z
#    x 1.608060 0.000000 0.000000 
#    y 0.000000 1.661090 0.000000 
#    z 0.000000 0.000000 1.621500 
# 
# From -- ./inp_files/53410.got.cif
#   From: 2010.03.12/outbox.cif.g09.slc.cpg/sg74_27_cif.got.tgz:53410.got - 2010.04.16 15:46:19.
