data_PCOD8297121
_publ_section_title
;
Structure prediction by ZEFSAII (Michael W. Deem and Ramdas Pophale) SiO2 
 PCOD8297121
Probable space group: I M M A
;
_chemical_formula_sum "Si O2"
_cell_formula_units_Z 80
_cell_length_a 18.980872
_cell_length_b 11.042876
_cell_length_c 19.340318
_cell_angle_alpha 90.000000
_cell_angle_beta 90.000000
_cell_angle_gamma 90.000000
_cell_volume 4053.796717
_symmetry_space_group_name_H-M "I M M A"
_symmetry_group_IT_number 74
_symmetry_cell_setting 'orthorhombic'
loop_
_space_group_symop_operation_xyz
x,y,z
-x,1/2-y,z
x,-y,-z
-x,1/2+y,-z
-x,-y,-z
x,1/2+y,-z
-x,y,z
x,1/2-y,z
1/2+x,1/2+y,1/2+z
1/2-x,-y,1/2+z
1/2+x,1/2-y,1/2-z
1/2-x,y,1/2-z
1/2-x,1/2-y,1/2-z
1/2+x,y,1/2-z
1/2-x,1/2+y,1/2+z
1/2+x,-y,1/2+z
loop_
_atom_site_type_symbol
_atom_site_label
_atom_site_fract_x
_atom_site_fract_y
_atom_site_fract_z
Si Si1 0.577517 0.111356 0.380596
Si Si2 0.769381 0.250000 0.829797
Si Si3 0.578133 0.002853 0.235787
Si Si4 0.214733 0.112555 0.045748
Si Si5 0.780953 0.992425 0.673074
Si Si6 0.423558 0.750000 0.292065
O O1 0.500000 0.065138 0.403821
O O2 0.574855 0.250000 0.358544
O O3 0.631245 0.090460 0.443581
O O4 0.603101 0.041728 0.312340
O O5 0.750000 0.250000 0.750000
O O6 0.736388 0.125718 0.860227
O O7 0.854851 0.250000 0.842338
O O8 0.500000 0.055018 0.217421
O O9 0.635440 0.037703 0.177922
O O10 0.578349 0.858966 0.238297
O O11 0.227820 0.250000 0.015026
O O12 0.250785 0.108074 0.121217
O O13 0.243890 0.000000 0.000000
O O14 0.750000 0.980260 0.750000
O O15 0.500000 0.750000 0.333194
#
# Coordination Sequence:
#
# PCOD8297121 Si02
#       6
#    16   8  16  16  16   8
#     4   9  18  34  55  79 113 151 190 233 283 340
#     4  10  16  28  48  82 112 150 185 228 295 332
#     4  10  18  30  51  85 117 145 183 236 295 344
#     4  11  25  41  58  85 116 157 198 241 289 347
#     4  11  19  34  58  86 112 150 192 246 291 342
#     4  10  16  24  40  72 120 148 178 222 276 348
#
# _framework density 19.734584999999999
#
# number of rings (size 3 to 8) (size 9 to 14) (size 15 to 20)
#    0.000    1.800    6.000    0.000    1.400    1.600 
#    1.800    0.000    0.000    0.600    0.000    0.000 
#    0.000    0.000    0.000    0.000    0.000    0.000 
#
# Total GULP energy -495527.052105 kJ/mol
# GULP energy per Si atom -12388.176303 kJ/mol
# Density = 1.968967 g / cm^3
# Si number density = 19.734585 Si / 1000 Ang^3
#
#
#
# Elastic Constant Matrix: (Units=GPa)
#
#
# Indices 1 2 3 4 5 6 
#
# 1 100.8702 14.7923 16.2370 0.0000 0.0000 0.0000
# 2 14.7923 83.2879 32.5478 0.0000 0.0000 0.0000
# 3 16.2370 32.5478 40.9087 0.0000 0.0000 0.0000
# 4 0.0000 0.0000 0.0000 23.8145 0.0000 0.0000
# 5 0.0000 0.0000 0.0000 0.0000 16.3272 0.0000
# 6 0.0000 0.0000 0.0000 0.0000 0.0000 21.7860
#
#
#
# Elastic Compliance Matrix: (Units=1/GPa)
#
#
# Indices 1 2 3 4 5 6 
#
# 1 0.010597 -0.000346 -0.003931 0.000000 0.000000 0.000000
# 2 -0.000346 0.017435 -0.013735 0.000000 0.000000 0.000000
# 3 -0.003931 -0.013735 0.036932 0.000000 0.000000 0.000000
# 4 0.000000 0.000000 0.000000 0.041991 0.000000 0.000000
# 5 0.000000 0.000000 0.000000 0.000000 0.061247 0.000000
# 6 0.000000 0.000000 0.000000 0.000000 0.000000 0.045901
#
#
# Mechanical properties :
#
#
# Convention : Reuss Voigt Hill
#
# Bulk Modulus (GPa) = 34.55175 39.13566 36.84370
# Shear Modulus (GPa) = 19.24746 23.15153 21.19950
#
# Velocity S-wave (km/s) = 3.12639 3.42884 3.28110
# Velocity P-wave (km/s) = 5.52980 5.96238 5.75016
#
# Compressibility (1/GPa) = 0.02894209
#
# Stress axis : x y z
#
# Youngs Moduli (GPa) = 94.36445 57.35506 27.07655
#
# Poissons Ratio (x) = 0.01984 0.10643
# Poissons Ratio (y) = 0.03265 0.37188
# Poissons Ratio (z) = 0.37093 0.78774
#
# Static dielectric constant tensor:
#      x y z
#    x 4.096820 0.000000 0.000000 
#    y 0.000000 3.838430 0.000000 
#    z 0.000000 0.000000 3.014360 
# 
# 
# High freq. dielectric constant tensor:
#      x y z
#    x 1.773530 0.000000 0.000000 
#    y 0.000000 1.778040 0.000000 
#    z 0.000000 0.000000 1.702420 
# 
# From -- ./inp_files/45056.got.cif
#   From: 2010.03.12/outbox.cif.g09.slc.cpg/sg74_23_cif.got.tgz:45056.got - 2010.04.16 15:46:19.
