data_PCOD8297255
_publ_section_title
;
Structure prediction by ZEFSAII (Michael W. Deem and Ramdas Pophale) SiO2 
 PCOD8297255
Probable space group: I M M A
;
_chemical_formula_sum "Si O2"
_cell_formula_units_Z 104
_cell_length_a 9.290076
_cell_length_b 26.535309
_cell_length_c 28.254416
_cell_angle_alpha 90.000000
_cell_angle_beta 90.000000
_cell_angle_gamma 90.000000
_cell_volume 6965.138414
_symmetry_space_group_name_H-M "I M M A"
_symmetry_group_IT_number 74
_symmetry_cell_setting 'orthorhombic'
loop_
_space_group_symop_operation_xyz
x,y,z
-x,1/2-y,z
x,-y,-z
-x,1/2+y,-z
-x,-y,-z
x,1/2+y,-z
-x,y,z
x,1/2-y,z
1/2+x,1/2+y,1/2+z
1/2-x,-y,1/2+z
1/2+x,1/2-y,1/2-z
1/2-x,y,1/2-z
1/2-x,1/2-y,1/2-z
1/2+x,y,1/2-z
1/2-x,1/2+y,1/2+z
1/2+x,-y,1/2+z
loop_
_atom_site_type_symbol
_atom_site_label
_atom_site_fract_x
_atom_site_fract_y
_atom_site_fract_z
Si Si1 0.655618 0.096331 0.209297
Si Si2 0.336899 0.848927 0.642921
Si Si3 0.662194 0.590865 0.556947
Si Si4 0.830290 0.250000 0.199289
Si Si5 0.837426 0.446217 0.524730
Si Si6 0.669203 0.013240 0.608908
Si Si7 0.661573 0.979763 0.206020
O O1 0.500000 0.122758 0.209163
O O2 0.750000 0.123249 0.250000
O O3 0.735810 0.105975 0.160463
O O4 0.639136 0.037798 0.218921
O O5 0.500000 0.859785 0.658907
O O6 0.323966 0.855988 0.585936
O O7 0.284161 0.796447 0.665348
O O8 0.500000 0.584180 0.537449
O O9 0.769658 0.593454 0.512498
O O10 0.697055 0.543884 0.591836
O O11 0.750000 0.250000 0.250000
O O12 0.000000 0.250000 0.209419
O O13 0.837315 0.500000 0.500000
O O14 0.738905 0.447978 0.571329
O O15 0.000000 0.429490 0.537629
O O16 0.500000 0.024511 0.614594
O O17 0.747990 0.025376 0.658116
O O18 0.500000 0.955778 0.201065
O O19 0.750000 0.954677 0.250000
#
# Coordination Sequence:
#
# PCOD8297255 Si02
#       7
#    16  16  16   8  16  16  16
#     4  10  19  28  40  55  71  92 120 156 196 238
#     4  10  19  32  46  59  75  96 124 161 204 250
#     4   9  17  28  42  58  75  96 124 156 195 242
#     4  10  22  36  48  60  78 102 132 170 215 262
#     4   9  17  27  40  58  80 100 121 150 188 233
#     4  10  17  27  42  58  78 102 127 155 193 234
#     4  10  19  28  38  54  76 100 129 160 193 230
#
# _framework density 14.931505
#
# number of rings (size 3 to 8) (size 9 to 14) (size 15 to 20)
#    0.000    2.308    1.538    2.308    0.000    6.154 
#    0.000    0.000    0.000    0.000    0.000    0.000 
#    0.000    0.000    0.000    0.000    0.000    0.000 
#
# Total GULP energy -644264.386975 kJ/mol
# GULP energy per Si atom -12389.699750 kJ/mol
# Density = 1.489752 g / cm^3
# Si number density = 14.931505 Si / 1000 Ang^3
#
#
#
# Elastic Constant Matrix: (Units=GPa)
#
#
# Indices 1 2 3 4 5 6 
#
# 1 115.8318 17.1566 65.2594 0.0000 0.0000 0.0000
# 2 17.1566 25.6976 24.7843 0.0000 0.0000 0.0000
# 3 65.2594 24.7843 107.3089 0.0000 0.0000 0.0000
# 4 0.0000 0.0000 0.0000 20.7729 0.0000 0.0000
# 5 0.0000 0.0000 0.0000 0.0000 30.5751 0.0000
# 6 0.0000 0.0000 0.0000 0.0000 0.0000 8.6342
#
#
#
# Elastic Compliance Matrix: (Units=1/GPa)
#
#
# Indices 1 2 3 4 5 6 
#
# 1 0.013171 -0.001374 -0.007692 0.000000 0.000000 0.000000
# 2 -0.001374 0.050210 -0.010761 0.000000 0.000000 0.000000
# 3 -0.007692 -0.010761 0.016482 0.000000 0.000000 0.000000
# 4 0.000000 0.000000 0.000000 0.048140 0.000000 0.000000
# 5 0.000000 0.000000 0.000000 0.000000 0.032706 0.000000
# 6 0.000000 0.000000 0.000000 0.000000 0.000000 0.115819
#
#
# Mechanical properties :
#
#
# Convention : Reuss Voigt Hill
#
# Bulk Modulus (GPa) = 24.87060 51.47098 38.17079
# Shear Modulus (GPa) = 15.17059 21.43896 18.30477
#
# Velocity S-wave (km/s) = 3.19095 3.79333 3.50511
# Velocity P-wave (km/s) = 5.50171 7.33022 6.48078
#
# Compressibility (1/GPa) = 0.04020812
#
# Stress axis : x y z
#
# Youngs Moduli (GPa) = 75.92708 19.91634 60.67147
#
# Poissons Ratio (x) = 0.02737 0.46670
# Poissons Ratio (y) = 0.10434 0.65288
# Poissons Ratio (z) = 0.58405 0.21432
#
# Static dielectric constant tensor:
#      x y z
#    x 3.219560 0.000000 0.000000 
#    y 0.000000 2.388620 0.000000 
#    z 0.000000 0.000000 2.933870 
# 
# 
# High freq. dielectric constant tensor:
#      x y z
#    x 1.592890 0.000000 0.000000 
#    y 0.000000 1.486770 0.000000 
#    z 0.000000 0.000000 1.571270 
# 
# From -- ./inp_files/62664.got.cif
#   From: 2010.03.12/outbox.cif.g09.slc.cpg/sg74_32_cif.got.tgz:62664.got - 2010.04.16 15:46:19.
