data_PCOD8297192
_publ_section_title
;
Structure prediction by ZEFSAII (Michael W. Deem and Ramdas Pophale) SiO2 
 PCOD8297192
Probable space group: I M M A
;
_chemical_formula_sum "Si O2"
_cell_formula_units_Z 120
_cell_length_a 8.971535
_cell_length_b 28.793185
_cell_length_c 24.338871
_cell_angle_alpha 90.000000
_cell_angle_beta 90.000000
_cell_angle_gamma 90.000000
_cell_volume 6287.194448
_symmetry_space_group_name_H-M "I M M A"
_symmetry_group_IT_number 74
_symmetry_cell_setting 'orthorhombic'
loop_
_space_group_symop_operation_xyz
x,y,z
-x,1/2-y,z
x,-y,-z
-x,1/2+y,-z
-x,-y,-z
x,1/2+y,-z
-x,y,z
x,1/2-y,z
1/2+x,1/2+y,1/2+z
1/2-x,-y,1/2+z
1/2+x,1/2-y,1/2-z
1/2-x,y,1/2-z
1/2-x,1/2-y,1/2-z
1/2+x,y,1/2-z
1/2-x,1/2+y,1/2+z
1/2+x,-y,1/2+z
loop_
_atom_site_type_symbol
_atom_site_label
_atom_site_fract_x
_atom_site_fract_y
_atom_site_fract_z
Si Si1 0.323651 0.947683 0.192903
Si Si2 0.665018 0.031203 0.116303
Si Si3 0.249789 0.500000 0.000000
Si Si4 0.677650 0.368575 0.624802
Si Si5 0.832962 0.304597 0.696287
Si Si6 0.675490 0.803986 0.807898
Si Si7 0.834864 0.397989 0.990625
Si Si8 0.177563 0.875965 0.890361
O O1 0.500000 0.941725 0.198727
O O2 0.250000 0.961110 0.250000
O O3 0.251136 0.901027 0.170456
O O4 0.277939 0.988414 0.151680
O O5 0.500000 0.047449 0.133778
O O6 0.653866 0.013894 0.053154
O O7 0.776851 0.073151 0.131210
O O8 0.152729 0.545947 0.011611
O O9 0.500000 0.373119 0.625985
O O10 0.735694 0.317839 0.642394
O O11 0.745938 0.379694 0.564405
O O12 0.841579 0.250000 0.698664
O O13 0.750000 0.324566 0.750000
O O14 0.000000 0.325654 0.693807
O O15 0.500000 0.813615 0.803586
O O16 0.708568 0.750000 0.821322
O O17 0.750000 0.818109 0.750000
O O18 0.744523 0.834732 0.856766
O O19 0.000000 0.377715 0.989850
O O20 0.762064 0.376506 0.046149
O O21 0.000000 0.870362 0.886040
#
# Coordination Sequence:
#
# PCOD8297192 Si02
#       8
#    16  16   8  16  16  16  16  16
#     4  11  23  38  53  77 110 149 189 230 281 337
#     4  10  21  35  54  80 112 148 190 237 285 336
#     4  10  16  34  56  80 107 144 195 240 283 328
#     4  11  21  36  57  82 111 146 187 233 281 332
#     4  10  21  38  59  82 107 139 181 230 284 340
#     4  10  21  39  64  91 117 148 188 234 285 343
#     4   9  19  33  54  83 114 150 192 234 280 333
#     4  10  21  37  58  85 117 152 189 232 281 335
#
# _framework density 19.086414000000001
#
# number of rings (size 3 to 8) (size 9 to 14) (size 15 to 20)
#    0.000    1.867    1.333    2.800    0.000    3.733 
#    0.000    4.000    0.000    4.000    0.000    0.000 
#    0.000    0.000    0.000    0.000    0.000    0.000 
#
# Total GULP energy -743645.169700 kJ/mol
# GULP energy per Si atom -12394.086162 kJ/mol
# Density = 1.904297 g / cm^3
# Si number density = 19.086414 Si / 1000 Ang^3
#
#
#
# Elastic Constant Matrix: (Units=GPa)
#
#
# Indices 1 2 3 4 5 6 
#
# 1 98.6441 36.0562 44.3544 0.0000 0.0000 0.0000
# 2 36.0562 68.2258 52.3544 0.0000 0.0000 0.0000
# 3 44.3544 52.3544 122.7095 0.0001 0.0000 0.0000
# 4 0.0000 0.0000 0.0001 33.1982 0.0000 0.0000
# 5 0.0000 0.0000 0.0000 0.0000 24.7357 0.0000
# 6 0.0000 0.0000 0.0000 0.0000 0.0000 30.6758
#
#
#
# Elastic Compliance Matrix: (Units=1/GPa)
#
#
# Indices 1 2 3 4 5 6 
#
# 1 0.013121 -0.004899 -0.002653 0.000000 0.000000 0.000000
# 2 -0.004899 0.023621 -0.008307 0.000000 0.000000 0.000000
# 3 -0.002653 -0.008307 0.012652 0.000000 0.000000 0.000000
# 4 0.000000 0.000000 0.000000 0.030122 0.000000 0.000000
# 5 0.000000 0.000000 0.000000 0.000000 0.040427 0.000000
# 6 0.000000 0.000000 0.000000 0.000000 0.000000 0.032599
#
#
# Mechanical properties :
#
#
# Convention : Reuss Voigt Hill
#
# Bulk Modulus (GPa) = 56.57040 61.67883 59.12461
# Shear Modulus (GPa) = 26.29483 28.17624 27.23553
#
# Velocity S-wave (km/s) = 3.71573 3.84636 3.78161
# Velocity P-wave (km/s) = 6.93630 7.21885 7.07898
#
# Compressibility (1/GPa) = 0.01767709
#
# Stress axis : x y z
#
# Youngs Moduli (GPa) = 76.21564 42.33570 79.03611
#
# Poissons Ratio (x) = 0.20738 0.20965
# Poissons Ratio (y) = 0.37334 0.65657
# Poissons Ratio (z) = 0.20217 0.35169
#
# Static dielectric constant tensor:
#      x y z
#    x 3.485570 0.000000 0.000000 
#    y 0.000000 3.423990 0.000000 
#    z 0.000000 0.000000 3.724780 
# 
# 
# High freq. dielectric constant tensor:
#      x y z
#    x 1.741850 0.000000 0.000000 
#    y 0.000000 1.733410 0.000000 
#    z 0.000000 0.000000 1.747830 
# 
# From -- ./inp_files/65115.got.cif
#   From: 2010.03.12/outbox.cif.g09.slc.cpg/sg74_33_cif.got.tgz:65115.got - 2010.04.16 15:46:19.
