data_PCOD8297898
_publ_section_title
;
Structure prediction by ZEFSAII (Michael W. Deem and Ramdas Pophale) SiO2 
 PCOD8297898
Probable space group: I M M A
;
_chemical_formula_sum "Si O2"
_cell_formula_units_Z 96
_cell_length_a 8.778280
_cell_length_b 22.559811
_cell_length_c 27.220117
_cell_angle_alpha 90.000000
_cell_angle_beta 90.000000
_cell_angle_gamma 90.000000
_cell_volume 5390.572283
_symmetry_space_group_name_H-M "I M M A"
_symmetry_group_IT_number 74
_symmetry_cell_setting 'orthorhombic'
loop_
_space_group_symop_operation_xyz
x,y,z
-x,1/2-y,z
x,-y,-z
-x,1/2+y,-z
-x,-y,-z
x,1/2+y,-z
-x,y,z
x,1/2-y,z
1/2+x,1/2+y,1/2+z
1/2-x,-y,1/2+z
1/2+x,1/2-y,1/2-z
1/2-x,y,1/2-z
1/2-x,1/2-y,1/2-z
1/2+x,y,1/2-z
1/2-x,1/2+y,1/2+z
1/2+x,-y,1/2+z
loop_
_atom_site_type_symbol
_atom_site_label
_atom_site_fract_x
_atom_site_fract_y
_atom_site_fract_z
Si Si1 0.320182 0.750000 0.010362
Si Si2 0.175746 0.552222 0.607062
Si Si3 0.173478 0.434391 0.549603
Si Si4 0.326712 0.250000 0.615890
Si Si5 0.677350 0.511096 0.301875
Si Si6 0.174499 0.122560 0.861213
Si Si7 0.678429 0.132579 0.466155
O O1 0.500000 0.750000 0.006347
O O2 0.257037 0.692880 0.982643
O O3 0.276517 0.750000 0.067604
O O4 0.195391 0.502236 0.565212
O O5 0.253764 0.532266 0.657402
O O6 0.256265 0.611551 0.586673
O O7 0.000000 0.565239 0.618101
O O8 0.211241 0.392134 0.595065
O O9 0.285897 0.419099 0.505303
O O10 0.000000 0.422024 0.532948
O O11 0.500000 0.250000 0.596320
O O12 0.297924 0.192214 0.650328
O O13 0.500000 0.498186 0.298686
O O14 0.750000 0.495854 0.250000
O O15 0.711751 0.580294 0.314915
O O16 0.000000 0.110914 0.878125
O O17 0.500000 0.143013 0.461705
#
# Coordination Sequence:
#
# PCOD8297898 Si02
#       7
#     8  16  16   8  16  16  16
#     4  12  24  36  52  75 106 147 187 223 259 305
#     4  10  21  36  54  78 106 137 174 221 270 319
#     4  10  19  31  49  74 106 140 176 218 263 310
#     4  10  18  32  51  73 101 141 185 225 265 313
#     4  10  20  36  56  79 104 136 174 223 280 331
#     4   9  18  31  50  73 102 138 181 225 269 317
#     4  12  23  35  51  75 108 144 180 216 259 315
#
# _framework density 17.808869000000001
#
# number of rings (size 3 to 8) (size 9 to 14) (size 15 to 20)
#    0.000    1.667    1.667    4.250    0.000    4.667 
#    0.000    0.417    0.000    0.000    0.000    0.583 
#    0.000    0.000    0.000    0.000    0.000    0.000 
#
# Total GULP energy -595140.572986 kJ/mol
# GULP energy per Si atom -12398.761937 kJ/mol
# Density = 1.776833 g / cm^3
# Si number density = 17.808869 Si / 1000 Ang^3
#
#
#
# Elastic Constant Matrix: (Units=GPa)
#
#
# Indices 1 2 3 4 5 6 
#
# 1 119.7891 30.7438 54.1996 0.0000 0.0000 0.0000
# 2 30.7438 46.5636 46.3798 0.0000 0.0000 0.0000
# 3 54.1996 46.3798 91.9432 0.0000 0.0000 0.0000
# 4 0.0000 0.0000 0.0000 8.5583 0.0000 0.0000
# 5 0.0000 0.0000 0.0000 0.0000 29.1200 0.0000
# 6 0.0000 0.0000 0.0000 0.0000 0.0000 24.4018
#
#
#
# Elastic Compliance Matrix: (Units=1/GPa)
#
#
# Indices 1 2 3 4 5 6 
#
# 1 0.011450 -0.001682 -0.005901 0.000000 0.000000 0.000000
# 2 -0.001682 0.043410 -0.020906 0.000000 0.000000 0.000000
# 3 -0.005901 -0.020906 0.024901 0.000000 0.000000 0.000000
# 4 0.000000 0.000000 0.000000 0.116845 0.000000 0.000000
# 5 0.000000 0.000000 0.000000 0.000000 0.034341 0.000000
# 6 0.000000 0.000000 0.000000 0.000000 0.000000 0.040981
#
#
# Mechanical properties :
#
#
# Convention : Reuss Voigt Hill
#
# Bulk Modulus (GPa) = 43.89396 57.88247 50.88822
# Shear Modulus (GPa) = 14.85882 20.88088 17.86985
#
# Velocity S-wave (km/s) = 2.89164 3.42789 3.17112
# Velocity P-wave (km/s) = 5.98745 6.94549 6.48419
#
# Compressibility (1/GPa) = 0.02278218
#
# Stress axis : x y z
#
# Youngs Moduli (GPa) = 87.33903 23.03590 40.15913
#
# Poissons Ratio (x) = 0.03875 0.23698
# Poissons Ratio (y) = 0.14690 0.83959
# Poissons Ratio (z) = 0.51539 0.48160
#
# Static dielectric constant tensor:
#      x y z
#    x 3.411560 0.000000 0.000000 
#    y 0.000000 3.371150 0.000000 
#    z 0.000000 0.000000 4.052970 
# 
# 
# High freq. dielectric constant tensor:
#      x y z
#    x 1.703760 0.000000 0.000000 
#    y 0.000000 1.680780 0.000000 
#    z 0.000000 0.000000 1.657790 
# 
# From -- ./inp_files/57329.got.cif
#   From: 2010.03.12/outbox.cif.g09.slc.cpg/sg74_29_cif.got.tgz:57329.got - 2010.04.16 15:46:19.
