data_PCOD8297932
_publ_section_title
;
Structure prediction by ZEFSAII (Michael W. Deem and Ramdas Pophale) SiO2 
 PCOD8297932
Probable space group: I M M A
;
_chemical_formula_sum "Si O2"
_cell_formula_units_Z 88
_cell_length_a 16.731461
_cell_length_b 8.981415
_cell_length_c 28.565294
_cell_angle_alpha 90.000000
_cell_angle_beta 90.000000
_cell_angle_gamma 90.000000
_cell_volume 4292.569424
_symmetry_space_group_name_H-M "I M M A"
_symmetry_group_IT_number 74
_symmetry_cell_setting 'orthorhombic'
loop_
_space_group_symop_operation_xyz
x,y,z
-x,1/2-y,z
x,-y,-z
-x,1/2+y,-z
-x,-y,-z
x,1/2+y,-z
-x,y,z
x,1/2-y,z
1/2+x,1/2+y,1/2+z
1/2-x,-y,1/2+z
1/2+x,1/2-y,1/2-z
1/2-x,y,1/2-z
1/2-x,1/2-y,1/2-z
1/2+x,y,1/2-z
1/2-x,1/2+y,1/2+z
1/2+x,-y,1/2+z
loop_
_atom_site_type_symbol
_atom_site_label
_atom_site_fract_x
_atom_site_fract_y
_atom_site_fract_z
Si Si1 0.590199 0.919208 0.193383
Si Si2 0.819153 0.572443 0.050568
Si Si3 0.657866 0.426429 0.901262
Si Si4 0.000000 0.427487 0.549398
Si Si5 0.668248 0.074276 0.272743
Si Si6 0.592334 0.576950 0.631418
O O1 0.500000 0.930754 0.173502
O O2 0.609949 0.750000 0.207447
O O3 0.652091 0.975407 0.153225
O O4 0.597262 0.020250 0.239176
O O5 0.820931 0.750000 0.045610
O O6 0.736545 0.511128 0.073184
O O7 0.889136 0.519083 0.085195
O O8 0.831813 0.500000 0.000000
O O9 0.657927 0.250000 0.904187
O O10 0.579260 0.490290 0.925950
O O11 0.000000 0.500000 0.500000
O O12 0.000000 0.250000 0.546915
O O13 0.670243 0.250000 0.272656
O O14 0.750000 0.008155 0.250000
O O15 0.648410 0.019747 0.325531
O O16 0.500000 0.551624 0.645076
O O17 0.608980 0.750000 0.620588
#
# Coordination Sequence:
#
# PCOD8297932 Si02
#       6
#    16  16  16   8  16  16
#     4  10  19  33  55  82 113 152 194 233 275 329
#     4  11  23  39  61  87 114 147 190 242 297 349
#     4   9  18  34  55  80 113 153 192 232 282 341
#     4  10  18  32  52  74 108 150 192 234 279 332
#     4  10  21  37  58  86 119 153 187 231 288 344
#     4  10  22  41  62  84 115 154 193 235 287 345
#
# _framework density 20.500543
#
# number of rings (size 3 to 8) (size 9 to 14) (size 15 to 20)
#    0.000    2.000    0.909    2.727    0.000    2.909 
#    0.000    2.727    0.000    0.000    0.000    0.000 
#    0.000    0.000    0.000    0.000    0.000    0.000 
#
# Total GULP energy -545504.065543 kJ/mol
# GULP energy per Si atom -12397.819671 kJ/mol
# Density = 2.045388 g / cm^3
# Si number density = 20.500543 Si / 1000 Ang^3
#
#
#
# Elastic Constant Matrix: (Units=GPa)
#
#
# Indices 1 2 3 4 5 6 
#
# 1 89.7849 28.4601 48.4438 0.0000 0.0000 0.0000
# 2 28.4601 30.9878 40.0011 0.0000 0.0000 0.0000
# 3 48.4438 40.0011 164.1817 0.0000 0.0000 0.0000
# 4 0.0000 0.0000 0.0000 34.5095 0.0000 0.0000
# 5 0.0000 0.0000 0.0000 0.0000 36.1422 0.0000
# 6 0.0000 0.0000 0.0000 0.0000 0.0000 24.5583
#
#
#
# Elastic Compliance Matrix: (Units=1/GPa)
#
#
# Indices 1 2 3 4 5 6 
#
# 1 0.016018 -0.012561 -0.001666 0.000000 0.000000 0.000000
# 2 -0.012561 0.056926 -0.010163 0.000000 0.000000 0.000000
# 3 -0.001666 -0.010163 0.009059 0.000000 0.000000 0.000000
# 4 0.000000 0.000000 0.000000 0.028977 0.000000 0.000000
# 5 0.000000 0.000000 0.000000 0.000000 0.027668 0.000000
# 6 0.000000 0.000000 0.000000 0.000000 0.000000 0.040719
#
#
# Mechanical properties :
#
#
# Convention : Reuss Voigt Hill
#
# Bulk Modulus (GPa) = 30.09985 57.64049 43.87017
# Shear Modulus (GPa) = 20.90097 30.24530 25.57313
#
# Velocity S-wave (km/s) = 3.19648 3.84518 3.53574
# Velocity P-wave (km/s) = 5.32331 6.92037 6.17370
#
# Compressibility (1/GPa) = 0.03322275
#
# Stress axis : x y z
#
# Youngs Moduli (GPa) = 62.42885 17.56653 110.39284
#
# Poissons Ratio (x) = 0.22065 0.18392
# Poissons Ratio (y) = 0.78417 1.12195
# Poissons Ratio (z) = 0.10401 0.17853
#
# Static dielectric constant tensor:
#      x y z
#    x 3.668430 0.000000 0.000000 
#    y 0.000000 3.374850 0.000000 
#    z 0.000000 0.000000 3.774030 
# 
# 
# High freq. dielectric constant tensor:
#      x y z
#    x 1.806670 0.000000 0.000000 
#    y 0.000000 1.770740 0.000000 
#    z 0.000000 0.000000 1.813660 
# 
# From -- ./inp_files/59794.got.cif
#   From: 2010.03.12/outbox.cif.g09.slc.cpg/sg74_30_cif.got.tgz:59794.got - 2010.04.16 15:46:19.
