data_PCOD8297515
_publ_section_title
;
Structure prediction by ZEFSAII (Michael W. Deem and Ramdas Pophale) SiO2 
 PCOD8297515
Probable space group: I M M A
;
_chemical_formula_sum "Si O2"
_cell_formula_units_Z 96
_cell_length_a 19.273166
_cell_length_b 16.315980
_cell_length_c 18.174816
_cell_angle_alpha 90.000000
_cell_angle_beta 90.000000
_cell_angle_gamma 90.000000
_cell_volume 5715.263381
_symmetry_space_group_name_H-M "I M M A"
_symmetry_group_IT_number 74
_symmetry_cell_setting 'orthorhombic'
loop_
_space_group_symop_operation_xyz
x,y,z
-x,1/2-y,z
x,-y,-z
-x,1/2+y,-z
-x,-y,-z
x,1/2+y,-z
-x,y,z
x,1/2-y,z
1/2+x,1/2+y,1/2+z
1/2-x,-y,1/2+z
1/2+x,1/2-y,1/2-z
1/2-x,y,1/2-z
1/2-x,1/2-y,1/2-z
1/2+x,y,1/2-z
1/2-x,1/2+y,1/2+z
1/2+x,-y,1/2+z
loop_
_atom_site_type_symbol
_atom_site_label
_atom_site_fract_x
_atom_site_fract_y
_atom_site_fract_z
Si Si1 0.575953 0.845369 0.476065
Si Si2 0.078079 0.061684 0.825697
Si Si3 0.219178 0.996272 0.827396
Si Si4 0.288982 0.088584 0.467958
Si Si5 0.783451 0.154681 0.603155
Si Si6 0.423987 0.844732 0.175768
O O1 0.500000 0.874816 0.505369
O O2 0.575696 0.750000 0.462577
O O3 0.592244 0.883274 0.396862
O O4 0.635917 0.867491 0.534354
O O5 0.135308 0.989969 0.825517
O O6 0.092758 0.112630 0.752389
O O7 0.000000 0.025261 0.826153
O O8 0.250000 0.968988 0.750000
O O9 0.240411 0.090429 0.846955
O O10 0.243273 0.927314 0.886776
O O11 0.234326 0.139726 0.517185
O O12 0.304544 0.000000 0.500000
O O13 0.766087 0.250000 0.623721
O O14 0.865020 0.135136 0.615324
O O15 0.500000 0.871988 0.145032
O O16 0.424230 0.750000 0.194707
#
# Coordination Sequence:
#
# PCOD8297515 Si02
#       6
#    16  16  16  16  16  16
#     4  10  19  30  47  71  99 131 166 199 232 278
#     4  10  18  28  44  69 102 133 158 187 230 284
#     4  11  21  34  48  71  98 133 165 200 239 290
#     4  10  20  32  46  68  99 133 162 199 238 288
#     4  10  19  31  51  73  95 124 161 203 245 285
#     4   9  17  28  44  70 101 127 153 192 242 292
#
# _framework density 16.797127
#
# number of rings (size 3 to 8) (size 9 to 14) (size 15 to 20)
#    0.000    2.000    5.000    1.000    0.000    4.000 
#    0.000    0.000    0.000    7.500    0.000    0.000 
#    0.000    2.667    0.000    0.000    0.000    0.000 
#
# Total GULP energy -594752.780583 kJ/mol
# GULP energy per Si atom -12390.682929 kJ/mol
# Density = 1.675890 g / cm^3
# Si number density = 16.797127 Si / 1000 Ang^3
#
#
#
# Elastic Constant Matrix: (Units=GPa)
#
#
# Indices 1 2 3 4 5 6 
#
# 1 93.9838 19.9774 44.5448 0.0000 0.0000 0.0000
# 2 19.9774 20.7303 23.6496 0.0000 0.0000 0.0000
# 3 44.5448 23.6496 104.8180 0.0000 0.0000 0.0000
# 4 0.0000 0.0000 0.0000 17.4248 0.0000 0.0000
# 5 0.0000 0.0000 0.0000 0.0000 12.7547 0.0000
# 6 0.0000 0.0000 0.0000 0.0000 0.0000 16.6907
#
#
#
# Elastic Compliance Matrix: (Units=1/GPa)
#
#
# Indices 1 2 3 4 5 6 
#
# 1 0.014566 -0.009393 -0.004071 0.000000 0.000000 0.000000
# 2 -0.009393 0.071016 -0.012031 0.000000 0.000000 0.000000
# 3 -0.004071 -0.012031 0.013985 0.000000 0.000000 0.000000
# 4 0.000000 0.000000 0.000000 0.057390 0.000000 0.000000
# 5 0.000000 0.000000 0.000000 0.000000 0.078402 0.000000
# 6 0.000000 0.000000 0.000000 0.000000 0.000000 0.059914
#
#
# Mechanical properties :
#
#
# Convention : Reuss Voigt Hill
#
# Bulk Modulus (GPa) = 20.58595 43.98620 32.28607
# Shear Modulus (GPa) = 13.79480 18.13140 15.96310
#
# Velocity S-wave (km/s) = 2.86887 3.28904 3.08611
# Velocity P-wave (km/s) = 4.82246 6.37709 5.65347
#
# Compressibility (1/GPa) = 0.04857683
#
# Stress axis : x y z
#
# Youngs Moduli (GPa) = 68.65211 14.08131 71.50544
#
# Poissons Ratio (x) = 0.13227 0.29109
# Poissons Ratio (y) = 0.64485 0.86030
# Poissons Ratio (z) = 0.27948 0.16942
#
# Static dielectric constant tensor:
#      x y z
#    x 3.594920 0.000000 0.000000 
#    y 0.000000 2.974290 0.000000 
#    z 0.000000 0.000000 3.234980 
# 
# 
# High freq. dielectric constant tensor:
#      x y z
#    x 1.660580 0.000000 0.000000 
#    y 0.000000 1.611920 0.000000 
#    z 0.000000 0.000000 1.623980 
# 
# From -- ./inp_files/44102.got.cif
#   From: 2010.03.12/outbox.cif.g09.slc.cpg/sg74_23_cif.got.tgz:44102.got - 2010.04.16 15:46:19.
