data_PCOD8297481
_publ_section_title
;
Structure prediction by ZEFSAII (Michael W. Deem and Ramdas Pophale) SiO2 
 PCOD8297481
Probable space group: I M M A
;
_chemical_formula_sum "Si O2"
_cell_formula_units_Z 96
_cell_length_a 26.126925
_cell_length_b 8.982747
_cell_length_c 28.496203
_cell_angle_alpha 90.000000
_cell_angle_beta 90.000000
_cell_angle_gamma 90.000000
_cell_volume 6687.818255
_symmetry_space_group_name_H-M "I M M A"
_symmetry_group_IT_number 74
_symmetry_cell_setting 'orthorhombic'
loop_
_space_group_symop_operation_xyz
x,y,z
-x,1/2-y,z
x,-y,-z
-x,1/2+y,-z
-x,-y,-z
x,1/2+y,-z
-x,y,z
x,1/2-y,z
1/2+x,1/2+y,1/2+z
1/2-x,-y,1/2+z
1/2+x,1/2-y,1/2-z
1/2-x,y,1/2-z
1/2-x,1/2-y,1/2-z
1/2+x,y,1/2-z
1/2-x,1/2+y,1/2+z
1/2+x,-y,1/2+z
loop_
_atom_site_type_symbol
_atom_site_label
_atom_site_fract_x
_atom_site_fract_y
_atom_site_fract_z
Si Si1 0.599697 0.576936 0.953586
Si Si2 0.300866 0.417944 0.280524
Si Si3 0.941068 0.922186 0.645069
Si Si4 0.755417 0.074867 0.640900
Si Si5 0.218030 0.574461 0.547542
Si Si6 0.354737 0.575617 0.200927
O O1 0.592801 0.750000 0.961830
O O2 0.568371 0.522515 0.908165
O O3 0.658642 0.532578 0.946013
O O4 0.576976 0.500000 0.000000
O O5 0.317207 0.250000 0.293526
O O6 0.250000 0.418716 0.250000
O O7 0.290940 0.511603 0.327701
O O8 0.345773 0.495175 0.250705
O O9 0.924165 0.750000 0.649511
O O10 0.000000 0.945033 0.658233
O O11 0.908475 0.019980 0.680844
O O12 0.748260 0.250000 0.634762
O O13 0.809886 0.035065 0.664350
O O14 0.751254 0.995271 0.590818
O O15 0.239219 0.500000 0.500000
O O16 0.227293 0.750000 0.545728
O O17 0.357010 0.750000 0.210470
#
# Coordination Sequence:
#
# PCOD8297481 Si02
#       6
#    16  16  16  16  16  16
#     4   9  18  30  43  57  74  98 132 173 216 257
#     4   9  17  28  44  63  82 104 129 158 199 246
#     4  10  20  33  46  59  77 104 137 173 215 260
#     4  10  18  28  43  63  84 105 132 166 204 245
#     4  10  18  28  42  59  81 108 138 171 209 250
#     4  10  19  30  44  61  82 103 129 168 209 249
#
# _framework density 14.354457999999999
#
# number of rings (size 3 to 8) (size 9 to 14) (size 15 to 20)
#    0.000    2.333    1.667    2.000    0.000    5.333 
#    0.000    0.000    0.000    0.000    0.000    0.000 
#    0.000    0.000    0.000    0.000    0.000    0.833 
#
# Total GULP energy -595289.314586 kJ/mol
# GULP energy per Si atom -12401.860721 kJ/mol
# Density = 1.432179 g / cm^3
# Si number density = 14.354458 Si / 1000 Ang^3
#
#
#
# Elastic Constant Matrix: (Units=GPa)
#
#
# Indices 1 2 3 4 5 6 
#
# 1 40.9401 25.6278 38.6342 0.0000 0.0000 0.0000
# 2 25.6278 76.2143 49.7802 0.0000 0.0000 0.0000
# 3 38.6342 49.7802 95.4552 0.0000 0.0000 0.0000
# 4 0.0000 0.0000 0.0000 30.3904 0.0000 0.0000
# 5 0.0000 0.0000 0.0000 0.0000 19.3845 0.0000
# 6 0.0000 0.0000 0.0000 0.0000 0.0000 17.1488
#
#
#
# Elastic Compliance Matrix: (Units=1/GPa)
#
#
# Indices 1 2 3 4 5 6 
#
# 1 0.040476 -0.004414 -0.014080 0.000000 0.000000 0.000000
# 2 -0.004414 0.020380 -0.008842 0.000000 0.000000 0.000000
# 3 -0.014080 -0.008842 0.020786 0.000000 0.000000 0.000000
# 4 0.000000 0.000000 0.000000 0.032905 0.000000 0.000000
# 5 0.000000 0.000000 0.000000 0.000000 0.051588 0.000000
# 6 0.000000 0.000000 0.000000 0.000000 0.000000 0.058313
#
#
# Mechanical properties :
#
#
# Convention : Reuss Voigt Hill
#
# Bulk Modulus (GPa) = 37.07778 48.96598 43.02188
# Shear Modulus (GPa) = 17.35444 19.95591 18.65518
#
# Velocity S-wave (km/s) = 3.48083 3.73262 3.60892
# Velocity P-wave (km/s) = 6.48391 7.26379 6.88490
#
# Compressibility (1/GPa) = 0.02697033
#
# Stress axis : x y z
#
# Youngs Moduli (GPa) = 24.70584 49.06695 48.10908
#
# Poissons Ratio (x) = 0.21657 0.67740
# Poissons Ratio (y) = 0.10905 0.42538
# Poissons Ratio (z) = 0.34787 0.43385
#
# Static dielectric constant tensor:
#      x y z
#    x 2.432970 0.000000 0.000000 
#    y 0.000000 2.880680 0.000000 
#    z 0.000000 0.000000 2.845100 
# 
# 
# High freq. dielectric constant tensor:
#      x y z
#    x 1.492360 0.000000 0.000000 
#    y 0.000000 1.562990 0.000000 
#    z 0.000000 0.000000 1.543550 
# 
# From -- ./inp_files/57247.got.cif
#   From: 2010.03.12/outbox.cif.g09.slc.cpg/sg74_29_cif.got.tgz:57247.got - 2010.04.16 15:46:19.
