data_PCOD8297060
_publ_section_title
;
Structure prediction by ZEFSAII (Michael W. Deem and Ramdas Pophale) SiO2 
 PCOD8297060
Probable space group: I B C A 
;
_chemical_formula_sum "Si O2"
_cell_formula_units_Z 96
_cell_length_a 15.175229
_cell_length_b 18.853582
_cell_length_c 14.649520
_cell_angle_alpha 90.000000
_cell_angle_beta 90.000000
_cell_angle_gamma 90.000000
_cell_volume 4191.336435
_symmetry_space_group_name_H-M "I B C A "
_symmetry_group_IT_number 73
_symmetry_cell_setting 'orthorhombic'
loop_
_space_group_symop_operation_xyz
x,y,z
-x,1/2-y,z
x,-y,1/2-z
1/2-x,y,-z
-x,-y,-z
x,1/2+y,-z
-x,y,1/2+z
1/2+x,-y,z
1/2+x,1/2+y,1/2+z
1/2-x,-y,1/2+z
1/2+x,1/2-y,-z
-x,1/2+y,1/2-z
1/2-x,1/2-y,1/2-z
1/2+x,y,1/2-z
1/2-x,1/2+y,z
x,1/2-y,1/2+z
loop_
_atom_site_type_symbol
_atom_site_label
_atom_site_fract_x
_atom_site_fract_y
_atom_site_fract_z
Si Si1 0.958285 0.467818 0.411148
Si Si2 0.673886 0.652302 0.935573
Si Si3 0.578294 0.708384 0.466497
Si Si4 0.604829 0.386263 0.864175
Si Si5 0.546545 0.629799 0.283864
Si Si6 0.743485 0.165915 0.749669
O O1 0.911321 0.396680 0.447729
O O2 0.896821 0.528359 0.366767
O O3 0.000000 0.500000 0.500000
O O4 0.028783 0.446281 0.332506
O O5 0.658545 0.735927 0.955312
O O6 0.703417 0.635944 0.834064
O O7 0.750000 0.623535 0.000000
O O8 0.500000 0.750000 0.516785
O O9 0.598356 0.642539 0.532150
O O10 0.543984 0.687011 0.365717
O O11 0.527977 0.356284 0.794926
O O12 0.703570 0.363598 0.837005
O O13 0.644532 0.635186 0.242512
O O14 0.750000 0.250000 0.750000
#
# Coordination Sequence:
#
# PCOD8297060 Si02
#       6
#    16  16  16  16  16  16
#     4  12  26  53  74 108 154 206 250 316 384 464
#     4  12  27  48  72 111 154 192 254 317 378 459
#     4  12  24  46  77 107 149 196 249 317 379 453
#     4  12  28  49  77 108 154 200 254 317 384 457
#     4  12  27  48  75 110 153 196 257 309 385 453
#     4  12  27  46  77 112 148 199 255 322 382 451
#
# _framework density 22.904388999999998
#
# number of rings (size 3 to 8) (size 9 to 14) (size 15 to 20)
#    0.000    0.000    6.667    1.500    7.000    1.333 
#    3.000    0.000    0.000    0.000    0.000    0.000 
#    0.000    0.000    0.000    0.000    0.000    0.000 
#
# Total GULP energy -594871.908264 kJ/mol
# GULP energy per Si atom -12393.164756 kJ/mol
# Density = 2.285226 g / cm^3
# Si number density = 22.904389 Si / 1000 Ang^3
#
#
#
# Elastic Constant Matrix: (Units=GPa)
#
#
# Indices 1 2 3 4 5 6 
#
# 1 103.2296 31.9300 15.4124 0.0000 0.0000 0.0000
# 2 31.9300 134.6995 27.4405 0.0000 0.0000 0.0000
# 3 15.4124 27.4405 98.9460 0.0000 0.0000 0.0000
# 4 0.0000 0.0000 0.0000 42.1507 0.0000 0.0000
# 5 0.0000 0.0000 0.0000 0.0000 43.9773 0.0000
# 6 0.0000 0.0000 0.0000 0.0000 0.0000 33.7000
#
#
#
# Elastic Compliance Matrix: (Units=1/GPa)
#
#
# Indices 1 2 3 4 5 6 
#
# 1 0.010547 -0.002295 -0.001006 0.000000 0.000000 0.000000
# 2 -0.002295 0.008368 -0.001963 0.000000 0.000000 0.000000
# 3 -0.001006 -0.001963 0.010808 0.000000 0.000000 0.000000
# 4 0.000000 0.000000 0.000000 0.023724 0.000000 0.000000
# 5 0.000000 0.000000 0.000000 0.000000 0.022739 0.000000
# 6 0.000000 0.000000 0.000000 0.000000 0.000000 0.029674
#
#
# Mechanical properties :
#
#
# Convention : Reuss Voigt Hill
#
# Bulk Modulus (GPa) = 52.10093 54.04899 53.07496
# Shear Modulus (GPa) = 40.72085 41.43842 41.07963
#
# Velocity S-wave (km/s) = 4.22104 4.25807 4.23960
# Velocity P-wave (km/s) = 6.82296 6.91548 6.86937
#
# Compressibility (1/GPa) = 0.01919351
#
# Stress axis : x y z
#
# Youngs Moduli (GPa) = 94.81077 119.50398 92.52643
#
# Poissons Ratio (x) = 0.27428 0.09312
# Poissons Ratio (y) = 0.21761 0.18164
# Poissons Ratio (z) = 0.09542 0.23460
#
# Static dielectric constant tensor:
#      x y z
#    x 4.406070 0.000000 0.000000 
#    y 0.000000 4.908660 0.000000 
#    z 0.000000 0.000000 4.188940 
# 
# 
# High freq. dielectric constant tensor:
#      x y z
#    x 1.902810 0.000000 0.000000 
#    y 0.000000 1.906730 0.000000 
#    z 0.000000 0.000000 1.917750 
# 
# From -- ./inp_files/17039.got.cif
#   From: 2010.03.12/outbox.cif.g09.slc.cpg/sg73_9_cif.got.tgz:17039.got - 2010.04.16 15:25:48.
