data_PCOD8297419
_publ_section_title
;
Structure prediction by ZEFSAII (Michael W. Deem and Ramdas Pophale) SiO2 
 PCOD8297419
Probable space group: I M M A
;
_chemical_formula_sum "Si O2"
_cell_formula_units_Z 80
_cell_length_a 8.958455
_cell_length_b 24.796191
_cell_length_c 20.464396
_cell_angle_alpha 90.000000
_cell_angle_beta 90.000000
_cell_angle_gamma 90.000000
_cell_volume 4545.870091
_symmetry_space_group_name_H-M "I M M A"
_symmetry_group_IT_number 74
_symmetry_cell_setting 'orthorhombic'
loop_
_space_group_symop_operation_xyz
x,y,z
-x,1/2-y,z
x,-y,-z
-x,1/2+y,-z
-x,-y,-z
x,1/2+y,-z
-x,y,z
x,1/2-y,z
1/2+x,1/2+y,1/2+z
1/2-x,-y,1/2+z
1/2+x,1/2-y,1/2-z
1/2-x,y,1/2-z
1/2-x,1/2-y,1/2-z
1/2+x,y,1/2-z
1/2-x,1/2+y,1/2+z
1/2+x,-y,1/2+z
loop_
_atom_site_type_symbol
_atom_site_label
_atom_site_fract_x
_atom_site_fract_y
_atom_site_fract_z
Si Si1 0.827063 0.356686 0.133202
Si Si2 0.169469 0.866375 0.019543
Si Si3 0.329989 0.250000 0.505096
Si Si4 0.825886 0.750000 0.629724
Si Si5 0.176865 0.528683 0.816858
Si Si6 0.674382 0.031936 0.934679
O O1 0.740371 0.304651 0.161626
O O2 0.771869 0.409723 0.171151
O O3 0.000000 0.345917 0.144777
O O4 0.791918 0.365972 0.057039
O O5 0.191745 0.804935 0.047039
O O6 0.282326 0.905435 0.057051
O O7 0.000000 0.886384 0.031020
O O8 0.500000 0.250000 0.475529
O O9 0.212495 0.250000 0.446681
O O10 0.000000 0.750000 0.641532
O O11 0.250000 0.507973 0.750000
O O12 0.233369 0.491240 0.874861
O O13 0.000000 0.523528 0.812880
O O14 0.500000 0.026830 0.919742
O O15 0.720084 0.000000 0.000000
#
# Coordination Sequence:
#
# PCOD8297419 Si02
#       6
#    16  16   8   8  16  16
#     4   9  18  33  51  70  99 138 176 214 262 317
#     4   9  16  30  52  76 103 137 177 214 259 313
#     4   8  16  30  46  71 106 139 170 209 261 317
#     4  10  18  26  45  73 100 131 172 221 262 301
#     4  11  23  39  57  76 103 140 179 221 270 320
#     4  11  22  34  52  80 111 139 176 222 263 310
#
# _framework density 17.598390999999999
#
# number of rings (size 3 to 8) (size 9 to 14) (size 15 to 20)
#    0.000    2.200    2.000    3.300    0.000    5.600 
#    0.000    0.500    0.000    0.000    0.000    0.700 
#    0.000    0.000    0.000    0.000    0.000    0.000 
#
# Total GULP energy -495926.931967 kJ/mol
# GULP energy per Si atom -12398.173299 kJ/mol
# Density = 1.755834 g / cm^3
# Si number density = 17.598391 Si / 1000 Ang^3
#
#
#
# Elastic Constant Matrix: (Units=GPa)
#
#
# Indices 1 2 3 4 5 6 
#
# 1 69.3277 41.7595 31.0706 0.0000 0.0000 0.0000
# 2 41.7595 115.2779 39.9133 0.0000 0.0000 0.0000
# 3 31.0706 39.9133 66.8452 0.0000 0.0000 0.0000
# 4 0.0000 0.0000 0.0000 12.2889 0.0000 0.0000
# 5 0.0000 0.0000 0.0000 0.0000 20.9748 0.0000
# 6 0.0000 0.0000 0.0000 0.0000 0.0000 22.8272
#
#
#
# Elastic Compliance Matrix: (Units=1/GPa)
#
#
# Indices 1 2 3 4 5 6 
#
# 1 0.020410 -0.005180 -0.006394 0.000000 0.000000 0.000000
# 2 -0.005180 0.012250 -0.004907 0.000000 0.000000 0.000000
# 3 -0.006394 -0.004907 0.020862 0.000000 0.000000 0.000000
# 4 0.000000 0.000000 0.000000 0.081374 0.000000 0.000000
# 5 0.000000 0.000000 0.000000 0.000000 0.047676 0.000000
# 6 0.000000 0.000000 0.000000 0.000000 0.000000 0.043807
#
#
# Mechanical properties :
#
#
# Convention : Reuss Voigt Hill
#
# Bulk Modulus (GPa) = 48.63678 52.99307 50.81493
# Shear Modulus (GPa) = 18.78330 20.46534 19.62432
#
# Velocity S-wave (km/s) = 3.27055 3.41385 3.34296
# Velocity P-wave (km/s) = 6.47758 6.76143 6.62103
#
# Compressibility (1/GPa) = 0.02056057
#
# Stress axis : x y z
#
# Youngs Moduli (GPa) = 48.99606 81.63298 47.93434
#
# Poissons Ratio (x) = 0.42283 0.30649
# Poissons Ratio (y) = 0.25378 0.23521
# Poissons Ratio (z) = 0.31328 0.40056
#
# Static dielectric constant tensor:
#      x y z
#    x 3.172410 0.000000 0.000000 
#    y 0.000000 3.614040 0.000000 
#    z 0.000000 0.000000 2.839570 
# 
# 
# High freq. dielectric constant tensor:
#      x y z
#    x 1.682430 0.000000 0.000000 
#    y 0.000000 1.693450 0.000000 
#    z 0.000000 0.000000 1.628420 
# 
# From -- ./inp_files/39815.got.cif
#   From: 2010.03.12/outbox.cif.g09.slc.cpg/sg74_20_cif.got.tgz:39815.got - 2010.04.16 15:46:19.
