data_PCOD8297062
_publ_section_title
;
Structure prediction by ZEFSAII (Michael W. Deem and Ramdas Pophale) SiO2 
 PCOD8297062
Probable space group: I B C A 
;
_chemical_formula_sum "Si O2"
_cell_formula_units_Z 112
_cell_length_a 15.489311
_cell_length_b 14.791220
_cell_length_c 20.943185
_cell_angle_alpha 90.000000
_cell_angle_beta 90.000000
_cell_angle_gamma 90.000000
_cell_volume 4798.205293
_symmetry_space_group_name_H-M "I B C A "
_symmetry_group_IT_number 73
_symmetry_cell_setting 'orthorhombic'
loop_
_space_group_symop_operation_xyz
x,y,z
-x,1/2-y,z
x,-y,1/2-z
1/2-x,y,-z
-x,-y,-z
x,1/2+y,-z
-x,y,1/2+z
1/2+x,-y,z
1/2+x,1/2+y,1/2+z
1/2-x,-y,1/2+z
1/2+x,1/2-y,-z
-x,1/2+y,1/2-z
1/2-x,1/2-y,1/2-z
1/2+x,y,1/2-z
1/2-x,1/2+y,z
x,1/2-y,1/2+z
loop_
_atom_site_type_symbol
_atom_site_label
_atom_site_fract_x
_atom_site_fract_y
_atom_site_fract_z
Si Si1 0.328622 0.183205 0.742853
Si Si2 0.750519 0.583140 0.344230
Si Si3 0.442093 0.933064 0.311946
Si Si4 0.809294 0.765791 0.941897
Si Si5 0.476036 0.065012 0.557801
Si Si6 0.201117 0.393546 0.889406
Si Si7 0.500000 0.750000 0.503420
Si Si8 0.000000 0.750000 0.736837
O O1 0.250000 0.250000 0.750000
O O2 0.308755 0.090511 0.780403
O O3 0.343850 0.159109 0.669028
O O4 0.410387 0.236721 0.775016
O O5 0.652706 0.605457 0.325820
O O6 0.794636 0.656215 0.390336
O O7 0.747670 0.482040 0.368801
O O8 0.483113 0.976587 0.376569
O O9 0.498035 0.843335 0.302273
O O10 0.446251 0.000000 0.250000
O O11 0.772542 0.668925 0.921349
O O12 0.911543 0.749647 0.954934
O O13 0.750000 0.799861 0.000000
O O14 0.372543 0.074034 0.561747
O O15 0.512047 0.164225 0.542575
O O16 0.500000 0.000000 0.500000
#
# Coordination Sequence:
#
# PCOD8297062 Si02
#       8
#    16  16  16  16  16  16   8   8
#     4  12  24  47  74 111 145 202 248 315 387 464
#     4  12  28  48  76 111 158 197 255 324 396 473
#     4  12  27  48  80 115 152 208 264 327 397 476
#     4  12  26  50  78 112 152 211 261 323 399 476
#     4  12  28  51  79 116 156 207 265 326 399 476
#     4  12  26  48  77 108 158 199 258 322 395 469
#     4  12  27  51  78 114 159 204 269 326 401 478
#     4  12  25  45  76 108 157 198 255 312 389 466
#
# _framework density 23.342061999999999
#
# number of rings (size 3 to 8) (size 9 to 14) (size 15 to 20)
#    0.000    0.000    5.714    3.429    4.000    1.143 
#    0.000    0.000    0.000    0.000    0.000    0.000 
#    0.000    0.000    0.000    0.000    0.000    0.000 
#
# Total GULP energy -694006.190980 kJ/mol
# GULP energy per Si atom -12392.967696 kJ/mol
# Density = 2.328893 g / cm^3
# Si number density = 23.342062 Si / 1000 Ang^3
#
#
#
# Elastic Constant Matrix: (Units=GPa)
#
#
# Indices 1 2 3 4 5 6 
#
# 1 183.0790 38.1544 48.9753 0.0000 0.0000 0.0000
# 2 38.1544 110.2639 49.3791 0.0000 0.0000 0.0000
# 3 48.9753 49.3791 122.4751 0.0000 0.0000 0.0000
# 4 0.0000 0.0000 0.0000 43.5757 0.0000 0.0000
# 5 0.0000 0.0000 0.0000 0.0000 34.3817 0.0000
# 6 0.0000 0.0000 0.0000 0.0000 0.0000 32.6400
#
#
#
# Elastic Compliance Matrix: (Units=1/GPa)
#
#
# Indices 1 2 3 4 5 6 
#
# 1 0.006260 -0.001275 -0.001989 0.000000 0.000000 0.000000
# 2 -0.001275 0.011327 -0.004057 0.000000 0.000000 0.000000
# 3 -0.001989 -0.004057 0.010596 0.000000 0.000000 0.000000
# 4 0.000000 0.000000 0.000000 0.022949 0.000000 0.000000
# 5 0.000000 0.000000 0.000000 0.000000 0.029085 0.000000
# 6 0.000000 0.000000 0.000000 0.000000 0.000000 0.030637
#
#
# Mechanical properties :
#
#
# Convention : Reuss Voigt Hill
#
# Bulk Modulus (GPa) = 73.85212 76.53729 75.19470
# Shear Modulus (GPa) = 38.45848 40.74012 39.59930
#
# Velocity S-wave (km/s) = 4.06347 4.18227 4.12330
# Velocity P-wave (km/s) = 7.32963 7.49550 7.41303
#
# Compressibility (1/GPa) = 0.01354057
#
# Stress axis : x y z
#
# Youngs Moduli (GPa) = 159.74431 88.28270 94.37579
#
# Poissons Ratio (x) = 0.11259 0.18772
# Poissons Ratio (y) = 0.20374 0.38287
# Poissons Ratio (z) = 0.31774 0.35815
#
# Static dielectric constant tensor:
#      x y z
#    x 4.236800 0.000000 0.000000 
#    y 0.000000 4.248900 0.000000 
#    z 0.000000 0.000000 4.863950 
# 
# 
# High freq. dielectric constant tensor:
#      x y z
#    x 1.947320 0.000000 0.000000 
#    y 0.000000 1.930570 0.000000 
#    z 0.000000 0.000000 1.918560 
# 
# From -- ./inp_files/29573.got.cif
#   From: 2010.03.12/outbox.cif.g09.slc.cpg/sg73_15_cif.got.tgz:29573.got - 2010.04.16 15:25:48.
