data_PCOD8297672
_publ_section_title
;
Structure prediction by ZEFSAII (Michael W. Deem and Ramdas Pophale) SiO2 
 PCOD8297672
Probable space group: I M M A
;
_chemical_formula_sum "Si O2"
_cell_formula_units_Z 112
_cell_length_a 21.281225
_cell_length_b 17.297602
_cell_length_c 17.659822
_cell_angle_alpha 90.000000
_cell_angle_beta 90.000000
_cell_angle_gamma 90.000000
_cell_volume 6500.830543
_symmetry_space_group_name_H-M "I M M A"
_symmetry_group_IT_number 74
_symmetry_cell_setting 'orthorhombic'
loop_
_space_group_symop_operation_xyz
x,y,z
-x,1/2-y,z
x,-y,-z
-x,1/2+y,-z
-x,-y,-z
x,1/2+y,-z
-x,y,z
x,1/2-y,z
1/2+x,1/2+y,1/2+z
1/2-x,-y,1/2+z
1/2+x,1/2-y,1/2-z
1/2-x,y,1/2-z
1/2-x,1/2-y,1/2-z
1/2+x,y,1/2-z
1/2-x,1/2+y,1/2+z
1/2+x,-y,1/2+z
loop_
_atom_site_type_symbol
_atom_site_label
_atom_site_fract_x
_atom_site_fract_y
_atom_site_fract_z
Si Si1 0.350216 0.585328 0.529241
Si Si2 0.210672 0.840386 0.354579
Si Si3 0.071935 0.839322 0.094662
Si Si4 0.335429 0.591731 0.293245
Si Si5 0.826907 0.913651 0.804693
Si Si6 0.797012 0.589320 0.508183
Si Si7 0.306943 0.158885 0.160428
O O1 0.367282 0.500000 0.500000
O O2 0.392157 0.646430 0.484163
O O3 0.367745 0.594877 0.618446
O O4 0.277231 0.603066 0.516245
O O5 0.223058 0.750000 0.353269
O O6 0.277471 0.882688 0.345943
O O7 0.164341 0.863466 0.286419
O O8 0.179264 0.866314 0.433343
O O9 0.078610 0.750000 0.116301
O O10 0.100579 0.889794 0.162804
O O11 0.000000 0.864441 0.084774
O O12 0.328181 0.501615 0.277129
O O13 0.756886 0.887251 0.824645
O O14 0.851787 0.862236 0.732864
O O15 0.814885 0.500000 0.500000
O O16 0.833336 0.626788 0.580373
O O17 0.295461 0.250000 0.155740
#
# Coordination Sequence:
#
# PCOD8297672 Si02
#       7
#    16  16  16  16  16  16  16
#     4  10  18  32  48  69  89 129 170 207 240 291
#     4  11  19  27  47  71  95 125 159 201 240 296
#     4  11  23  36  50  69  97 129 165 215 260 292
#     4  11  19  33  47  69  94 127 166 201 248 300
#     4  10  18  30  47  63  92 128 163 199 241 292
#     4  10  18  30  46  69 100 131 165 195 242 296
#     4  10  19  29  44  70 101 132 164 201 248 302
#
# _framework density 17.228567999999999
#
# number of rings (size 3 to 8) (size 9 to 14) (size 15 to 20)
#    0.000    1.571    2.857    7.286    0.000    3.143 
#    0.000    0.000    0.000    0.000    0.000    0.000 
#    0.000    6.286    0.000    5.571    0.000    0.143 
#
# Total GULP energy -694218.661543 kJ/mol
# GULP energy per Si atom -12396.761813 kJ/mol
# Density = 1.718935 g / cm^3
# Si number density = 17.228568 Si / 1000 Ang^3
#
#
#
# Elastic Constant Matrix: (Units=GPa)
#
#
# Indices 1 2 3 4 5 6 
#
# 1 31.2937 15.4625 18.6367 0.0000 0.0000 0.0000
# 2 15.4625 84.9121 25.6013 0.0000 0.0000 0.0000
# 3 18.6367 25.6013 157.0484 0.0000 0.0000 0.0000
# 4 0.0000 0.0000 0.0000 31.9906 0.0000 0.0000
# 5 0.0000 0.0000 0.0000 0.0000 12.3809 0.0000
# 6 0.0000 0.0000 0.0000 0.0000 0.0000 10.9237
#
#
#
# Elastic Compliance Matrix: (Units=1/GPa)
#
#
# Indices 1 2 3 4 5 6 
#
# 1 0.036805 -0.005664 -0.003444 0.000000 0.000000 0.000000
# 2 -0.005664 0.013257 -0.001489 0.000000 0.000000 0.000000
# 3 -0.003444 -0.001489 0.007019 0.000000 0.000000 0.000000
# 4 0.000000 0.000000 0.000000 0.031259 0.000000 0.000000
# 5 0.000000 0.000000 0.000000 0.000000 0.080770 0.000000
# 6 0.000000 0.000000 0.000000 0.000000 0.000000 0.091544
#
#
# Mechanical properties :
#
#
# Convention : Reuss Voigt Hill
#
# Bulk Modulus (GPa) = 27.86520 43.62836 35.74678
# Shear Modulus (GPa) = 17.01778 25.29596 21.15687
#
# Velocity S-wave (km/s) = 3.14628 3.83594 3.50810
# Velocity P-wave (km/s) = 5.42289 6.70802 6.09940
#
# Compressibility (1/GPa) = 0.03588705
#
# Stress axis : x y z
#
# Youngs Moduli (GPa) = 27.17017 75.43080 142.47181
#
# Poissons Ratio (x) = 0.42722 0.49072
# Poissons Ratio (y) = 0.15388 0.21214
# Poissons Ratio (z) = 0.09358 0.11232
#
# Static dielectric constant tensor:
#      x y z
#    x 2.618090 0.000000 0.000000 
#    y 0.000000 3.271430 0.000000 
#    z 0.000000 0.000000 4.091410 
# 
# 
# High freq. dielectric constant tensor:
#      x y z
#    x 1.573830 0.000000 0.000000 
#    y 0.000000 1.680650 0.000000 
#    z 0.000000 0.000000 1.694070 
# 
# From -- ./inp_files/45458.got.cif
#   From: 2010.03.12/outbox.cif.g09.slc.cpg/sg74_23_cif.got.tgz:45458.got - 2010.04.16 15:46:19.
