data_PCOD8297048
_publ_section_title
;
Structure prediction by ZEFSAII (Michael W. Deem and Ramdas Pophale) SiO2 
 PCOD8297048
Probable space group: I B C A 
;
_chemical_formula_sum "Si O2"
_cell_formula_units_Z 64
_cell_length_a 17.187442
_cell_length_b 11.173454
_cell_length_c 14.159690
_cell_angle_alpha 90.000000
_cell_angle_beta 90.000000
_cell_angle_gamma 90.000000
_cell_volume 2719.270657
_symmetry_space_group_name_H-M "I B C A "
_symmetry_group_IT_number 73
_symmetry_cell_setting 'orthorhombic'
loop_
_space_group_symop_operation_xyz
x,y,z
-x,1/2-y,z
x,-y,1/2-z
1/2-x,y,-z
-x,-y,-z
x,1/2+y,-z
-x,y,1/2+z
1/2+x,-y,z
1/2+x,1/2+y,1/2+z
1/2-x,-y,1/2+z
1/2+x,1/2-y,-z
-x,1/2+y,1/2-z
1/2-x,1/2-y,1/2-z
1/2+x,y,1/2-z
1/2-x,1/2+y,z
x,1/2-y,1/2+z
loop_
_atom_site_type_symbol
_atom_site_label
_atom_site_fract_x
_atom_site_fract_y
_atom_site_fract_z
Si Si1 0.463599 0.946102 0.095130
Si Si2 0.079069 0.692383 0.134749
Si Si3 0.168893 0.237709 0.539175
Si Si4 0.112650 0.872690 0.297069
O O1 0.388459 0.867707 0.071030
O O2 0.528493 0.871909 0.152171
O O3 0.437559 0.055171 0.164039
O O4 0.500000 0.000000 0.000000
O O5 0.113730 0.768295 0.220101
O O6 0.000000 0.750000 0.095968
O O7 0.137039 0.686642 0.047760
O O8 0.250000 0.183728 0.500000
O O9 0.177509 0.333048 0.625725
O O10 0.134762 0.000000 0.250000
#
# Coordination Sequence:
#
# PCOD8297048 Si02
#       4
#    16  16  16  16
#     4  12  23  46  78 106 145 200 262 318 374 446
#     4  12  23  44  75 110 143 193 260 319 376 442
#     4  12  28  47  73 109 160 201 246 313 392 465
#     4  12  25  45  81 116 144 196 264 326 375 451
#
# _framework density 23.535722
#
# number of rings (size 3 to 8) (size 9 to 14) (size 15 to 20)
#    0.000    0.000    7.500    2.250    0.000    2.000 
#    0.000    0.000    0.000    0.000    0.000    0.000 
#    0.000    0.000    0.000    0.000    0.000    0.000 
#
# Total GULP energy -396741.202733 kJ/mol
# GULP energy per Si atom -12398.162585 kJ/mol
# Density = 2.348215 g / cm^3
# Si number density = 23.535722 Si / 1000 Ang^3
#
#
#
# Elastic Constant Matrix: (Units=GPa)
#
#
# Indices 1 2 3 4 5 6 
#
# 1 82.9728 41.0737 30.3176 0.0000 0.0000 0.0000
# 2 41.0737 142.9616 64.0428 0.0000 0.0000 0.0000
# 3 30.3176 64.0428 149.0532 0.0000 0.0000 0.0000
# 4 0.0000 0.0000 0.0000 40.0432 0.0000 0.0000
# 5 0.0000 0.0000 0.0000 0.0000 17.7270 0.0000
# 6 0.0000 0.0000 0.0000 0.0000 0.0000 24.9822
#
#
#
# Elastic Compliance Matrix: (Units=1/GPa)
#
#
# Indices 1 2 3 4 5 6 
#
# 1 0.014287 -0.003471 -0.001415 0.000000 0.000000 0.000000
# 2 -0.003471 0.009505 -0.003378 0.000000 0.000000 0.000000
# 3 -0.001415 -0.003378 0.008448 0.000000 0.000000 0.000000
# 4 0.000000 0.000000 0.000000 0.024973 0.000000 0.000000
# 5 0.000000 0.000000 0.000000 0.000000 0.056411 0.000000
# 6 0.000000 0.000000 0.000000 0.000000 0.000000 0.040028
#
#
# Mechanical properties :
#
#
# Convention : Reuss Voigt Hill
#
# Bulk Modulus (GPa) = 63.64063 71.76177 67.70120
# Shear Modulus (GPa) = 28.50315 32.52071 30.51193
#
# Velocity S-wave (km/s) = 3.48380 3.72124 3.60447
# Velocity P-wave (km/s) = 6.57885 7.00144 6.79343
#
# Compressibility (1/GPa) = 0.01571323
#
# Stress axis : x y z
#
# Youngs Moduli (GPa) = 69.99210 105.20268 118.36813
#
# Poissons Ratio (x) = 0.36517 0.16745
# Poissons Ratio (y) = 0.24295 0.39986
# Poissons Ratio (z) = 0.09901 0.35539
#
# Static dielectric constant tensor:
#      x y z
#    x 4.143060 0.000000 0.000000 
#    y 0.000000 4.637840 0.000000 
#    z 0.000000 0.000000 4.729490 
# 
# 
# High freq. dielectric constant tensor:
#      x y z
#    x 1.893860 0.000000 0.000000 
#    y 0.000000 1.943450 0.000000 
#    z 0.000000 0.000000 1.956980 
# 
# From -- ./inp_files/10434.got.cif
#   From: 2010.03.12/outbox.cif.g09.slc.cpg/sg73_6_cif.got.tgz:10434.got - 2010.04.16 15:25:48.
