data_PCOD8297070
_publ_section_title
;
Structure prediction by ZEFSAII (Michael W. Deem and Ramdas Pophale) SiO2 
 PCOD8297070
Probable space group: I B C A 
;
_chemical_formula_sum "Si O2"
_cell_formula_units_Z 56
_cell_length_a 24.089126
_cell_length_b 10.329538
_cell_length_c 9.321752
_cell_angle_alpha 90.000000
_cell_angle_beta 90.000000
_cell_angle_gamma 90.000000
_cell_volume 2319.527285
_symmetry_space_group_name_H-M "I B C A "
_symmetry_group_IT_number 73
_symmetry_cell_setting 'orthorhombic'
loop_
_space_group_symop_operation_xyz
x,y,z
-x,1/2-y,z
x,-y,1/2-z
1/2-x,y,-z
-x,-y,-z
x,1/2+y,-z
-x,y,1/2+z
1/2+x,-y,z
1/2+x,1/2+y,1/2+z
1/2-x,-y,1/2+z
1/2+x,1/2-y,-z
-x,1/2+y,1/2-z
1/2-x,1/2-y,1/2-z
1/2+x,y,1/2-z
1/2-x,1/2+y,z
x,1/2-y,1/2+z
loop_
_atom_site_type_symbol
_atom_site_label
_atom_site_fract_x
_atom_site_fract_y
_atom_site_fract_z
Si Si1 0.548289 0.651171 0.239282
Si Si2 0.630982 0.000000 0.250000
Si Si3 0.788767 0.705485 0.119825
Si Si4 0.390961 0.804014 0.524773
O O1 0.500000 0.750000 0.190362
O O2 0.531209 0.500000 0.250000
O O3 0.566396 0.697430 0.395444
O O4 0.597764 0.674229 0.121837
O O5 0.668220 0.103207 0.172713
O O6 0.595385 0.072619 0.372038
O O7 0.750000 0.750000 0.250000
O O8 0.750000 0.641298 0.000000
O O9 0.827418 0.812747 0.037336
#
# Coordination Sequence:
#
# PCOD8297070 Si02
#       4
#    16   8  16  16
#     4  12  29  50  81 112 150 197 255 318 388 456
#     4  12  26  44  78 100 158 192 252 304 380 434
#     4  12  25  45  69 109 147 200 248 303 367 446
#     4  12  26  51  74 113 151 200 249 316 380 455
#
# _framework density 24.142849999999999
#
# number of rings (size 3 to 8) (size 9 to 14) (size 15 to 20)
#    0.000    0.000    5.714    2.571    6.000    2.286 
#    2.571    0.000    0.000    0.000    0.000    0.000 
#    0.000    0.000    0.000    0.000    0.000    0.000 
#
# Total GULP energy -346950.722194 kJ/mol
# GULP energy per Si atom -12391.097221 kJ/mol
# Density = 2.408790 g / cm^3
# Si number density = 24.142850 Si / 1000 Ang^3
#
#
#
# Elastic Constant Matrix: (Units=GPa)
#
#
# Indices 1 2 3 4 5 6 
#
# 1 88.6472 30.6850 44.6321 0.0000 0.0000 0.0000
# 2 30.6850 117.4059 41.5251 0.0000 0.0000 0.0000
# 3 44.6321 41.5251 169.3332 0.0000 0.0000 0.0000
# 4 0.0000 0.0000 0.0000 48.2845 0.0000 0.0000
# 5 0.0000 0.0000 0.0000 0.0000 56.1841 0.0000
# 6 0.0000 0.0000 0.0000 0.0000 0.0000 57.1816
#
#
#
# Elastic Compliance Matrix: (Units=1/GPa)
#
#
# Indices 1 2 3 4 5 6 
#
# 1 0.013652 -0.002513 -0.002982 0.000000 0.000000 0.000000
# 2 -0.002513 0.009789 -0.001738 0.000000 0.000000 0.000000
# 3 -0.002982 -0.001738 0.007118 0.000000 0.000000 0.000000
# 4 0.000000 0.000000 0.000000 0.020711 0.000000 0.000000
# 5 0.000000 0.000000 0.000000 0.000000 0.017799 0.000000
# 6 0.000000 0.000000 0.000000 0.000000 0.000000 0.017488
#
#
# Mechanical properties :
#
#
# Convention : Reuss Voigt Hill
#
# Bulk Modulus (GPa) = 62.14292 67.67454 64.90873
# Shear Modulus (GPa) = 46.99818 49.56632 48.28225
#
# Velocity S-wave (km/s) = 4.41690 4.53597 4.47683
# Velocity P-wave (km/s) = 7.19774 7.45151 7.32573
#
# Compressibility (1/GPa) = 0.01609194
#
# Stress axis : x y z
#
# Youngs Moduli (GPa) = 73.24911 102.15456 140.49432
#
# Poissons Ratio (x) = 0.25675 0.41895
# Poissons Ratio (y) = 0.18410 0.24419
# Poissons Ratio (z) = 0.21843 0.17755
#
# Static dielectric constant tensor:
#      x y z
#    x 4.315060 0.000000 0.000000 
#    y 0.000000 4.860550 0.000000 
#    z 0.000000 0.000000 2.249310 
# 
# 
# High freq. dielectric constant tensor:
#      x y z
#    x 1.958430 0.000000 0.000000 
#    y 0.000000 1.935730 0.000000 
#    z 0.000000 0.000000 1.997910 
# 
# From -- ./inp_files/3901.got.cif
#   From: 2010.03.12/outbox.cif.g09.slc.cpg/sg73_2_cif.got.tgz:3901.got - 2010.04.16 15:25:48.
