data_PCOD8297271
_publ_section_title
;
Structure prediction by ZEFSAII (Michael W. Deem and Ramdas Pophale) SiO2 
 PCOD8297271
Probable space group: I M M A
;
_chemical_formula_sum "Si O2"
_cell_formula_units_Z 96
_cell_length_a 26.319326
_cell_length_b 9.034840
_cell_length_c 28.353382
_cell_angle_alpha 90.000000
_cell_angle_beta 90.000000
_cell_angle_gamma 90.000000
_cell_volume 6742.176204
_symmetry_space_group_name_H-M "I M M A"
_symmetry_group_IT_number 74
_symmetry_cell_setting 'orthorhombic'
loop_
_space_group_symop_operation_xyz
x,y,z
-x,1/2-y,z
x,-y,-z
-x,1/2+y,-z
-x,-y,-z
x,1/2+y,-z
-x,y,z
x,1/2-y,z
1/2+x,1/2+y,1/2+z
1/2-x,-y,1/2+z
1/2+x,1/2-y,1/2-z
1/2-x,y,1/2-z
1/2-x,1/2-y,1/2-z
1/2+x,y,1/2-z
1/2-x,1/2+y,1/2+z
1/2+x,-y,1/2+z
loop_
_atom_site_type_symbol
_atom_site_label
_atom_site_fract_x
_atom_site_fract_y
_atom_site_fract_z
Si Si1 0.699566 0.083005 0.280888
Si Si2 0.647778 0.421455 0.798138
Si Si3 0.716243 0.424064 0.048034
Si Si4 0.942440 0.580490 0.363622
Si Si5 0.598454 0.922636 0.952547
Si Si6 0.754104 0.423297 0.640391
O O1 0.685222 0.250000 0.295182
O O2 0.750000 0.078122 0.250000
O O3 0.654077 0.013970 0.249956
O O4 0.708205 0.986525 0.327842
O O5 0.649098 0.250000 0.784118
O O6 0.594490 0.469865 0.821316
O O7 0.692056 0.458302 0.835319
O O8 0.726417 0.250000 0.045212
O O9 0.657205 0.461188 0.056531
O O10 0.748225 0.493849 0.090543
O O11 0.735263 0.500000 0.000000
O O12 0.930075 0.750000 0.377431
O O13 0.934572 0.480616 0.409300
O O14 0.000000 0.561731 0.345614
O O15 0.589196 0.750000 0.958350
O O16 0.578752 0.000000 0.000000
O O17 0.745759 0.250000 0.632584
#
# Coordination Sequence:
#
# PCOD8297271 Si02
#       6
#    16  16  16  16  16  16
#     4   9  17  27  41  61  82 102 126 158 197 240
#     4   9  17  29  43  59  79 102 129 163 203 246
#     4  10  19  29  42  60  81 106 135 167 204 245
#     4  10  20  33  47  61  78 102 133 170 212 254
#     4  10  20  32  46  59  75  99 132 172 214 254
#     4  10  17  27  44  62  81 104 130 163 200 241
#
# _framework density 14.238726
#
# number of rings (size 3 to 8) (size 9 to 14) (size 15 to 20)
#    0.000    2.333    1.667    2.000    0.000    5.333 
#    0.000    0.000    0.000    0.000    0.000    0.000 
#    0.000    0.000    0.000    0.000    0.000    0.833 
#
# Total GULP energy -595306.155223 kJ/mol
# GULP energy per Si atom -12402.211567 kJ/mol
# Density = 1.420632 g / cm^3
# Si number density = 14.238726 Si / 1000 Ang^3
#
#
#
# Elastic Constant Matrix: (Units=GPa)
#
#
# Indices 1 2 3 4 5 6 
#
# 1 48.8578 29.1419 47.5047 0.0000 0.0000 0.0000
# 2 29.1419 80.5097 53.1629 0.0000 0.0000 0.0000
# 3 47.5047 53.1629 99.5873 0.0000 0.0000 0.0000
# 4 0.0000 0.0000 0.0000 30.0377 0.0000 0.0000
# 5 0.0000 0.0000 0.0000 0.0000 19.3624 0.0000
# 6 0.0000 0.0000 0.0000 0.0000 0.0000 13.8686
#
#
#
# Elastic Compliance Matrix: (Units=1/GPa)
#
#
# Indices 1 2 3 4 5 6 
#
# 1 0.038576 -0.002799 -0.016907 0.000000 0.000000 0.000000
# 2 -0.002799 0.019386 -0.009014 0.000000 0.000000 0.000000
# 3 -0.016907 -0.009014 0.022918 0.000000 0.000000 0.000000
# 4 0.000000 0.000000 0.000000 0.033291 0.000000 0.000000
# 5 0.000000 0.000000 0.000000 0.000000 0.051647 0.000000
# 6 0.000000 0.000000 0.000000 0.000000 0.000000 0.072106
#
#
# Mechanical properties :
#
#
# Convention : Reuss Voigt Hill
#
# Bulk Modulus (GPa) = 42.66111 54.28597 48.47354
# Shear Modulus (GPa) = 16.49200 19.26342 17.87771
#
# Velocity S-wave (km/s) = 3.40700 3.68215 3.54725
# Velocity P-wave (km/s) = 6.74561 7.50240 7.13405
#
# Compressibility (1/GPa) = 0.02344055
#
# Stress axis : x y z
#
# Youngs Moduli (GPa) = 25.92284 51.58352 43.63330
#
# Poissons Ratio (x) = 0.14438 0.73772
# Poissons Ratio (y) = 0.07256 0.39330
# Poissons Ratio (z) = 0.43828 0.46496
#
# Static dielectric constant tensor:
#      x y z
#    x 2.489550 0.000000 0.000000 
#    y 0.000000 2.881150 0.000000 
#    z 0.000000 0.000000 2.773490 
# 
# 
# High freq. dielectric constant tensor:
#      x y z
#    x 1.490230 0.000000 0.000000 
#    y 0.000000 1.559410 0.000000 
#    z 0.000000 0.000000 1.535660 
# 
# From -- ./inp_files/57477.got.cif
#   From: 2010.03.12/outbox.cif.g09.slc.cpg/sg74_29_cif.got.tgz:57477.got - 2010.04.16 15:46:19.
