data_PCOD8297210
_publ_section_title
;
Structure prediction by ZEFSAII (Michael W. Deem and Ramdas Pophale) SiO2 
 PCOD8297210
Probable space group: I M M A
;
_chemical_formula_sum "Si O2"
_cell_formula_units_Z 72
_cell_length_a 8.614935
_cell_length_b 22.908586
_cell_length_c 24.201099
_cell_angle_alpha 90.000000
_cell_angle_beta 90.000000
_cell_angle_gamma 90.000000
_cell_volume 4776.231594
_symmetry_space_group_name_H-M "I M M A"
_symmetry_group_IT_number 74
_symmetry_cell_setting 'orthorhombic'
loop_
_space_group_symop_operation_xyz
x,y,z
-x,1/2-y,z
x,-y,-z
-x,1/2+y,-z
-x,-y,-z
x,1/2+y,-z
-x,y,z
x,1/2-y,z
1/2+x,1/2+y,1/2+z
1/2-x,-y,1/2+z
1/2+x,1/2-y,1/2-z
1/2-x,y,1/2-z
1/2-x,1/2-y,1/2-z
1/2+x,y,1/2-z
1/2-x,1/2+y,1/2+z
1/2+x,-y,1/2+z
loop_
_atom_site_type_symbol
_atom_site_label
_atom_site_fract_x
_atom_site_fract_y
_atom_site_fract_z
Si Si1 0.819520 0.684417 0.990425
Si Si2 0.183932 0.349019 0.607148
Si Si3 0.317159 0.750000 0.189431
Si Si4 0.682961 0.573492 0.959064
Si Si5 0.682549 0.036798 0.576388
O O1 0.793446 0.750000 0.968209
O O2 0.735976 0.640128 0.946766
O O3 0.000000 0.668597 0.994545
O O4 0.746174 0.678999 0.050889
O O5 0.239420 0.307875 0.657247
O O6 0.253014 0.413937 0.618309
O O7 0.000000 0.353141 0.602774
O O8 0.500000 0.750000 0.193179
O O9 0.250000 0.750000 0.250000
O O10 0.500000 0.569123 0.967014
O O11 0.739528 0.527043 0.912545
O O12 0.770470 0.557532 0.015504
O O13 0.500000 0.030794 0.582987
#
# Coordination Sequence:
#
# PCOD8297210 Si02
#       5
#    16  16   8  16  16
#     4  10  18  26  38  56  77 102 130 161 194 231
#     4  10  18  30  43  57  73  95 126 160 200 240
#     4  10  22  34  46  60  78 100 128 168 208 248
#     4  10  17  25  37  53  74  99 124 156 190 225
#     4  10  17  26  39  55  73  94 121 156 193 231
#
# _framework density 15.074645
#
# number of rings (size 3 to 8) (size 9 to 14) (size 15 to 20)
#    0.000    2.000    1.111    9.333    0.000    3.111 
#    0.000    0.000    0.000    0.000    0.000    0.000 
#    0.000    0.000    0.000    0.000    0.000    1.111 
#
# Total GULP energy -446140.658163 kJ/mol
# GULP energy per Si atom -12392.796060 kJ/mol
# Density = 1.504033 g / cm^3
# Si number density = 15.074645 Si / 1000 Ang^3
#
#
#
# Elastic Constant Matrix: (Units=GPa)
#
#
# Indices 1 2 3 4 5 6 
#
# 1 72.3788 52.2611 17.5118 0.0000 0.0000 0.0000
# 2 52.2611 154.2736 43.9624 0.0000 0.0000 0.0000
# 3 17.5118 43.9624 33.6912 0.0000 0.0000 0.0000
# 4 0.0000 0.0000 0.0000 13.7339 0.0000 0.0000
# 5 0.0000 0.0000 0.0000 0.0000 13.2037 0.0000
# 6 0.0000 0.0000 0.0000 0.0000 0.0000 27.5056
#
#
#
# Elastic Compliance Matrix: (Units=1/GPa)
#
#
# Indices 1 2 3 4 5 6 
#
# 1 0.018399 -0.005584 -0.002277 0.000000 0.000000 0.000000
# 2 -0.005584 0.012014 -0.012774 0.000000 0.000000 0.000000
# 3 -0.002277 -0.012774 0.047533 0.000000 0.000000 0.000000
# 4 0.000000 0.000000 0.000000 0.072812 0.000000 0.000000
# 5 0.000000 0.000000 0.000000 0.000000 0.075736 0.000000
# 6 0.000000 0.000000 0.000000 0.000000 0.000000 0.036356
#
#
# Mechanical properties :
#
#
# Convention : Reuss Voigt Hill
#
# Bulk Modulus (GPa) = 27.26574 54.20157 40.73366
# Shear Modulus (GPa) = 15.80552 20.66255 18.23403
#
# Velocity S-wave (km/s) = 3.24154 3.70629 3.48168
# Velocity P-wave (km/s) = 5.66891 7.37217 6.57592
#
# Compressibility (1/GPa) = 0.03667606
#
# Stress axis : x y z
#
# Youngs Moduli (GPa) = 54.35090 83.23878 21.03801
#
# Poissons Ratio (x) = 0.46479 0.04791
# Poissons Ratio (y) = 0.30349 0.26874
# Poissons Ratio (z) = 0.12376 1.06328
#
# Static dielectric constant tensor:
#      x y z
#    x 3.010000 0.000000 0.000000 
#    y 0.000000 4.100000 0.000000 
#    z 0.000000 0.000000 2.308240 
# 
# 
# High freq. dielectric constant tensor:
#      x y z
#    x 1.599950 0.000000 0.000000 
#    y 0.000000 1.605050 0.000000 
#    z 0.000000 0.000000 1.478950 
# 
# From -- ./inp_files/57124.got.cif
#   From: 2010.03.12/outbox.cif.g09.slc.cpg/sg74_29_cif.got.tgz:57124.got - 2010.04.16 15:46:19.
