data_PCOD8297769
_publ_section_title
;
Structure prediction by ZEFSAII (Michael W. Deem and Ramdas Pophale) SiO2 
 PCOD8297769
Probable space group: I M M A
;
_chemical_formula_sum "Si O2"
_cell_formula_units_Z 88
_cell_length_a 25.077334
_cell_length_b 9.298307
_cell_length_c 20.051418
_cell_angle_alpha 90.000000
_cell_angle_beta 90.000000
_cell_angle_gamma 90.000000
_cell_volume 4675.524488
_symmetry_space_group_name_H-M "I M M A"
_symmetry_group_IT_number 74
_symmetry_cell_setting 'orthorhombic'
loop_
_space_group_symop_operation_xyz
x,y,z
-x,1/2-y,z
x,-y,-z
-x,1/2+y,-z
-x,-y,-z
x,1/2+y,-z
-x,y,z
x,1/2-y,z
1/2+x,1/2+y,1/2+z
1/2-x,-y,1/2+z
1/2+x,1/2-y,1/2-z
1/2-x,y,1/2-z
1/2-x,1/2-y,1/2-z
1/2+x,y,1/2-z
1/2-x,1/2+y,1/2+z
1/2+x,-y,1/2+z
loop_
_atom_site_type_symbol
_atom_site_label
_atom_site_fract_x
_atom_site_fract_y
_atom_site_fract_z
Si Si1 0.380417 0.420328 0.566633
Si Si2 0.718772 0.592280 0.609862
Si Si3 0.858823 0.411811 0.693210
Si Si4 0.836277 0.083576 0.434881
Si Si5 0.250000 0.497622 0.750000
Si Si6 0.559394 0.920620 0.303056
O O1 0.399464 0.500000 0.500000
O O2 0.380161 0.250000 0.555559
O O3 0.320981 0.467511 0.587241
O O4 0.420911 0.470298 0.624209
O O5 0.695561 0.750000 0.591229
O O6 0.772933 0.564675 0.569920
O O7 0.729590 0.594750 0.689035
O O8 0.874759 0.250000 0.672338
O O9 0.863858 0.514497 0.629708
O O10 0.799475 0.402257 0.724387
O O11 0.900178 0.478152 0.746858
O O12 0.853103 0.250000 0.439349
O O13 0.857007 0.000000 0.500000
O O14 0.500000 0.982306 0.290623
O O15 0.559525 0.750000 0.300689
#
# Coordination Sequence:
#
# PCOD8297769 Si02
#       6
#    16  16  16  16   8  16
#     4  11  22  36  54  79 107 144 186 231 275 319
#     4  10  20  33  51  77 111 148 181 221 270 322
#     4  10  19  33  56  83 109 142 179 223 271 324
#     4  10  21  35  52  79 113 149 181 218 267 325
#     4  10  18  30  52  84 110 140 178 224 270 328
#     4   9  19  37  58  80 107 142 185 228 272 322
#
# _framework density 18.821418000000001
#
# number of rings (size 3 to 8) (size 9 to 14) (size 15 to 20)
#    0.000    2.000    1.818    2.182    0.000    6.182 
#    0.000    0.000    0.000    4.909    0.000    0.000 
#    0.000    0.000    0.000    0.000    0.000    0.000 
#
# Total GULP energy -545559.132265 kJ/mol
# GULP energy per Si atom -12399.071188 kJ/mol
# Density = 1.877858 g / cm^3
# Si number density = 18.821418 Si / 1000 Ang^3
#
#
#
# Elastic Constant Matrix: (Units=GPa)
#
#
# Indices 1 2 3 4 5 6 
#
# 1 93.4328 31.4215 58.0820 0.0000 0.0000 0.0000
# 2 31.4215 97.6862 60.1707 0.0000 0.0000 0.0000
# 3 58.0820 60.1707 160.7652 0.0000 0.0000 0.0000
# 4 0.0000 0.0000 0.0000 30.1329 0.0000 0.0000
# 5 0.0000 0.0000 0.0000 0.0000 20.7418 0.0000
# 6 0.0000 0.0000 0.0000 0.0000 0.0000 9.9627
#
#
#
# Elastic Compliance Matrix: (Units=1/GPa)
#
#
# Indices 1 2 3 4 5 6 
#
# 1 0.014045 -0.001809 -0.004397 0.000000 0.000000 0.000000
# 2 -0.001809 0.013537 -0.004413 0.000000 0.000000 0.000000
# 3 -0.004397 -0.004413 0.009460 0.000000 0.000000 0.000000
# 4 0.000000 0.000000 0.000000 0.033186 0.000000 0.000000
# 5 0.000000 0.000000 0.000000 0.000000 0.048212 0.000000
# 6 0.000000 0.000000 0.000000 0.000000 0.000000 0.100374
#
#
# Mechanical properties :
#
#
# Convention : Reuss Voigt Hill
#
# Bulk Modulus (GPa) = 63.27563 72.35919 67.81741
# Shear Modulus (GPa) = 20.38146 25.64814 23.01480
#
# Velocity S-wave (km/s) = 3.29429 3.69550 3.50065
# Velocity P-wave (km/s) = 6.93987 7.53243 7.24221
#
# Compressibility (1/GPa) = 0.01580387
#
# Stress axis : x y z
#
# Youngs Moduli (GPa) = 71.20139 73.87157 105.70287
#
# Poissons Ratio (x) = 0.13365 0.46477
# Poissons Ratio (y) = 0.12882 0.46646
# Poissons Ratio (z) = 0.31307 0.32599
#
# Static dielectric constant tensor:
#      x y z
#    x 3.341550 0.000000 0.000000 
#    y 0.000000 3.246580 0.000000 
#    z 0.000000 0.000000 3.607900 
# 
# 
# High freq. dielectric constant tensor:
#      x y z
#    x 1.698030 0.000000 0.000000 
#    y 0.000000 1.718740 0.000000 
#    z 0.000000 0.000000 1.744490 
# 
# From -- ./inp_files/54542.got.cif
#   From: 2010.03.12/outbox.cif.g09.slc.cpg/sg74_28_cif.got.tgz:54542.got - 2010.04.16 15:46:19.
