data_PCOD8297211
_publ_section_title
;
Structure prediction by ZEFSAII (Michael W. Deem and Ramdas Pophale) SiO2 
 PCOD8297211
Probable space group: I M M A
;
_chemical_formula_sum "Si O2"
_cell_formula_units_Z 72
_cell_length_a 8.482521
_cell_length_b 22.968014
_cell_length_c 23.904824
_cell_angle_alpha 90.000000
_cell_angle_beta 90.000000
_cell_angle_gamma 90.000000
_cell_volume 4657.297044
_symmetry_space_group_name_H-M "I M M A"
_symmetry_group_IT_number 74
_symmetry_cell_setting 'orthorhombic'
loop_
_space_group_symop_operation_xyz
x,y,z
-x,1/2-y,z
x,-y,-z
-x,1/2+y,-z
-x,-y,-z
x,1/2+y,-z
-x,y,z
x,1/2-y,z
1/2+x,1/2+y,1/2+z
1/2-x,-y,1/2+z
1/2+x,1/2-y,1/2-z
1/2-x,y,1/2-z
1/2-x,1/2-y,1/2-z
1/2+x,y,1/2-z
1/2-x,1/2+y,1/2+z
1/2+x,-y,1/2+z
loop_
_atom_site_type_symbol
_atom_site_label
_atom_site_fract_x
_atom_site_fract_y
_atom_site_fract_z
Si Si1 0.314776 0.151266 0.110156
Si Si2 0.816288 0.074588 0.546786
Si Si3 0.684661 0.539410 0.572000
Si Si4 0.318019 0.815057 0.492269
Si Si5 0.186466 0.750000 0.812127
O O1 0.500000 0.144999 0.117477
O O2 0.234749 0.087205 0.118144
O O3 0.277123 0.178675 0.049837
O O4 0.248062 0.192159 0.158128
O O5 0.781809 0.056646 0.483150
O O6 0.743930 0.139417 0.554764
O O7 0.000000 0.076350 0.559480
O O8 0.735558 0.026759 0.588165
O O9 0.500000 0.541824 0.559800
O O10 0.500000 0.827936 0.505820
O O11 0.293632 0.750000 0.468401
O O12 0.250000 0.750000 0.750000
O O13 0.000000 0.750000 0.813189
#
# Coordination Sequence:
#
# PCOD8297211 Si02
#       5
#    16  16  16  16   8
#     4  11  20  31  46  62  78 100 131 167 208 249
#     4  10  17  25  37  55  78 101 130 166 201 237
#     4  10  17  27  41  56  76 100 128 162 201 242
#     4  10  18  27  40  57  80 108 138 169 203 244
#     4  12  24  38  50  64  82 104 134 172 216 256
#
# _framework density 15.459611000000001
#
# number of rings (size 3 to 8) (size 9 to 14) (size 15 to 20)
#    0.000    1.556    1.111   11.667    0.000    1.333 
#    0.000    0.000    0.000    0.000    0.000    0.000 
#    0.000    0.000    0.000    0.000    0.000    1.111 
#
# Total GULP energy -446213.495095 kJ/mol
# GULP energy per Si atom -12394.819308 kJ/mol
# Density = 1.542442 g / cm^3
# Si number density = 15.459611 Si / 1000 Ang^3
#
#
#
# Elastic Constant Matrix: (Units=GPa)
#
#
# Indices 1 2 3 4 5 6 
#
# 1 102.3184 53.2391 14.8960 0.0000 0.0000 0.0000
# 2 53.2391 165.7436 40.0707 0.0000 0.0000 0.0000
# 3 14.8960 40.0707 31.2558 0.0000 0.0000 0.0000
# 4 0.0000 0.0000 0.0000 16.4853 0.0000 0.0000
# 5 0.0000 0.0000 0.0000 0.0000 13.9264 0.0000
# 6 0.0000 0.0000 0.0000 0.0000 0.0000 25.6950
#
#
#
# Elastic Compliance Matrix: (Units=1/GPa)
#
#
# Indices 1 2 3 4 5 6 
#
# 1 0.011761 -0.003511 -0.001104 0.000000 0.000000 0.000000
# 2 -0.003511 0.009791 -0.010880 0.000000 0.000000 0.000000
# 3 -0.001104 -0.010880 0.046468 0.000000 0.000000 0.000000
# 4 0.000000 0.000000 0.000000 0.060660 0.000000 0.000000
# 5 0.000000 0.000000 0.000000 0.000000 0.071806 0.000000
# 6 0.000000 0.000000 0.000000 0.000000 0.000000 0.038918
#
#
# Mechanical properties :
#
#
# Convention : Reuss Voigt Hill
#
# Bulk Modulus (GPa) = 27.00404 57.30325 42.15365
# Shear Modulus (GPa) = 17.68424 23.96215 20.82319
#
# Velocity S-wave (km/s) = 3.38583 3.94126 3.67405
# Velocity P-wave (km/s) = 5.72630 7.60646 6.73234
#
# Compressibility (1/GPa) = 0.03703149
#
# Stress axis : x y z
#
# Youngs Moduli (GPa) = 85.02723 102.12995 21.52006
#
# Poissons Ratio (x) = 0.35856 0.02376
# Poissons Ratio (y) = 0.29852 0.23413
# Poissons Ratio (z) = 0.09388 1.11114
#
# Static dielectric constant tensor:
#      x y z
#    x 3.104920 0.000000 0.000000 
#    y 0.000000 3.926670 0.000000 
#    z 0.000000 0.000000 2.380620 
# 
# 
# High freq. dielectric constant tensor:
#      x y z
#    x 1.619950 0.000000 0.000000 
#    y 0.000000 1.621500 0.000000 
#    z 0.000000 0.000000 1.491280 
# 
# From -- ./inp_files/57131.got.cif
#   From: 2010.03.12/outbox.cif.g09.slc.cpg/sg74_29_cif.got.tgz:57131.got - 2010.04.16 15:46:19.
