data_PCOD8297267
_publ_section_title
;
Structure prediction by ZEFSAII (Michael W. Deem and Ramdas Pophale) SiO2 
 PCOD8297267
Probable space group: I M M A
;
_chemical_formula_sum "Si O2"
_cell_formula_units_Z 80
_cell_length_a 23.758643
_cell_length_b 8.623490
_cell_length_c 24.747948
_cell_angle_alpha 90.000000
_cell_angle_beta 90.000000
_cell_angle_gamma 90.000000
_cell_volume 5070.419484
_symmetry_space_group_name_H-M "I M M A"
_symmetry_group_IT_number 74
_symmetry_cell_setting 'orthorhombic'
loop_
_space_group_symop_operation_xyz
x,y,z
-x,1/2-y,z
x,-y,-z
-x,1/2+y,-z
-x,-y,-z
x,1/2+y,-z
-x,y,z
x,1/2-y,z
1/2+x,1/2+y,1/2+z
1/2-x,-y,1/2+z
1/2+x,1/2-y,1/2-z
1/2-x,y,1/2-z
1/2-x,1/2-y,1/2-z
1/2+x,y,1/2-z
1/2-x,1/2+y,1/2+z
1/2+x,-y,1/2+z
loop_
_atom_site_type_symbol
_atom_site_label
_atom_site_fract_x
_atom_site_fract_y
_atom_site_fract_z
Si Si1 0.117493 0.932830 0.555595
Si Si2 0.226803 0.933981 0.169139
Si Si3 0.063723 0.931352 0.341344
Si Si4 0.740964 0.933266 0.055431
Si Si5 0.836322 0.565988 0.269449
O O1 0.123787 0.750000 0.550783
O O2 0.091672 0.000000 0.500000
O O3 0.075769 0.976547 0.603840
O O4 0.178377 0.006423 0.565761
O O5 0.228925 0.750000 0.171108
O O6 0.220679 0.987866 0.106619
O O7 0.175404 0.993221 0.207595
O O8 0.286021 0.997018 0.192641
O O9 0.074269 0.750000 0.352476
O O10 0.104248 0.994090 0.293134
O O11 0.000000 0.964228 0.322912
O O12 0.738548 0.750000 0.050620
O O13 0.767210 0.000000 0.000000
O O14 0.836482 0.750000 0.269417
#
# Coordination Sequence:
#
# PCOD8297267 Si02
#       5
#    16  16  16  16  16
#     4  11  21  32  45  59  81 112 145 180 211 244
#     4   8  13  22  42  63  82 107 135 167 199 246
#     4  10  19  31  47  64  83 106 137 178 215 247
#     4  10  17  27  43  64  87 111 139 172 209 247
#     4   8  13  24  41  63  83 104 136 167 203 247
#
# _framework density 15.777787
#
# number of rings (size 3 to 8) (size 9 to 14) (size 15 to 20)
#    0.000    2.600    2.000    4.800    0.000    0.800 
#    0.000    0.000    0.000    3.600    0.000    0.000 
#    0.000    0.800    0.000    0.600    0.000    1.200 
#
# Total GULP energy -495601.224616 kJ/mol
# GULP energy per Si atom -12390.030615 kJ/mol
# Density = 1.574188 g / cm^3
# Si number density = 15.777787 Si / 1000 Ang^3
#
#
#
# Elastic Constant Matrix: (Units=GPa)
#
#
# Indices 1 2 3 4 5 6 
#
# 1 74.6586 14.9135 72.3022 0.0000 0.0000 0.0000
# 2 14.9135 49.1937 30.5603 0.0000 0.0000 0.0000
# 3 72.3022 30.5603 158.3961 0.0000 0.0000 0.0000
# 4 0.0000 0.0000 0.0000 17.5182 0.0000 0.0000
# 5 0.0000 0.0000 0.0000 0.0000 24.1187 0.0000
# 6 0.0000 0.0000 0.0000 0.0000 0.0000 5.9364
#
#
#
# Elastic Compliance Matrix: (Units=1/GPa)
#
#
# Indices 1 2 3 4 5 6 
#
# 1 0.024019 -0.000535 -0.010861 0.000000 0.000000 0.000000
# 2 -0.000535 0.023108 -0.004214 0.000000 0.000000 0.000000
# 3 -0.010861 -0.004214 0.012084 0.000000 0.000000 0.000000
# 4 0.000000 0.000000 0.000000 0.057084 0.000000 0.000000
# 5 0.000000 0.000000 0.000000 0.000000 0.041462 0.000000
# 6 0.000000 0.000000 0.000000 0.000000 0.000000 0.168453
#
#
# Mechanical properties :
#
#
# Convention : Reuss Voigt Hill
#
# Bulk Modulus (GPa) = 35.72507 57.53340 46.62923
# Shear Modulus (GPa) = 13.63292 20.47946 17.05619
#
# Velocity S-wave (km/s) = 2.94268 3.60668 3.29146
# Velocity P-wave (km/s) = 5.85129 7.34085 6.63799
#
# Compressibility (1/GPa) = 0.02799155
#
# Stress axis : x y z
#
# Youngs Moduli (GPa) = 41.63372 43.27519 82.75484
#
# Poissons Ratio (x) = 0.02314 0.89877
# Poissons Ratio (y) = 0.02226 0.34875
# Poissons Ratio (z) = 0.45217 0.18237
#
# Static dielectric constant tensor:
#      x y z
#    x 2.872130 0.000000 0.000000 
#    y 0.000000 2.743580 0.000000 
#    z 0.000000 0.000000 3.530890 
# 
# 
# High freq. dielectric constant tensor:
#      x y z
#    x 1.558300 0.000000 0.000000 
#    y 0.000000 1.581500 0.000000 
#    z 0.000000 0.000000 1.615240 
# 
# From -- ./inp_files/72858.got.cif
#   From: 2010.03.12/outbox.cif.g09.slc.cpg/sg74_37_cif.got.tgz:72858.got - 2010.04.16 15:46:19.
