data_PCOD8297181
_publ_section_title
;
Structure prediction by ZEFSAII (Michael W. Deem and Ramdas Pophale) SiO2 
 PCOD8297181
Probable space group: I M M A
;
_chemical_formula_sum "Si O2"
_cell_formula_units_Z 84
_cell_length_a 23.497436
_cell_length_b 20.066184
_cell_length_c 8.985918
_cell_angle_alpha 90.000000
_cell_angle_beta 90.000000
_cell_angle_gamma 90.000000
_cell_volume 4236.895151
_symmetry_space_group_name_H-M "I M M A"
_symmetry_group_IT_number 74
_symmetry_cell_setting 'orthorhombic'
loop_
_space_group_symop_operation_xyz
x,y,z
-x,1/2-y,z
x,-y,-z
-x,1/2+y,-z
-x,-y,-z
x,1/2+y,-z
-x,y,z
x,1/2-y,z
1/2+x,1/2+y,1/2+z
1/2-x,-y,1/2+z
1/2+x,1/2-y,1/2-z
1/2-x,y,1/2-z
1/2-x,1/2-y,1/2-z
1/2+x,y,1/2-z
1/2-x,1/2+y,1/2+z
1/2+x,-y,1/2+z
loop_
_atom_site_type_symbol
_atom_site_label
_atom_site_fract_x
_atom_site_fract_y
_atom_site_fract_z
Si Si1 0.122626 0.380997 0.711975
Si Si2 0.184558 0.750000 0.783396
Si Si3 0.500000 0.250000 0.615479
Si Si4 0.500000 0.329291 0.119933
Si Si5 0.500000 0.118881 0.797327
Si Si6 0.692078 0.506340 0.828168
Si Si7 0.875144 0.250000 0.909065
Si Si8 0.620336 0.868260 0.862048
O O1 0.060273 0.414630 0.750547
O O2 0.170604 0.436518 0.742012
O O3 0.135643 0.316005 0.810505
O O4 0.122088 0.359137 0.539815
O O5 0.250000 0.750000 0.750000
O O6 0.162240 0.684085 0.707946
O O7 0.170091 0.750000 0.958650
O O8 0.500000 0.190831 0.728894
O O9 0.440419 0.250000 0.522861
O O10 0.500000 0.250000 0.093689
O O11 0.442695 0.352741 0.204787
O O12 0.500000 0.373237 0.972765
O O13 0.750000 0.529610 0.750000
O O14 0.641193 0.559356 0.808394
O O15 0.707287 0.500000 0.000000
#
# Coordination Sequence:
#
# PCOD8297181 Si02
#       8
#    16   8   4   8   8  16   8  16
#     4   9  19  36  60  85 113 147 190 237 288 347
#     4  12  25  38  53  79 115 151 193 240 283 332
#     4   8  14  30  52  78 112 142 174 224 280 340
#     4  10  16  30  59  88 114 147 181 229 293 348
#     4   8  14  27  55  87 114 137 178 228 293 336
#     4  10  22  39  58  81 112 156 197 236 283 337
#     4  10  21  35  57  87 112 147 191 239 289 340
#     4  10  21  37  58  85 115 146 188 233 289 345
#
# _framework density 19.825838999999998
#
# number of rings (size 3 to 8) (size 9 to 14) (size 15 to 20)
#    0.000    2.286    1.429    1.143    2.667    6.095 
#    0.000    5.238    0.000    0.000    0.000    6.667 
#    0.000    0.000    0.000    0.000    0.000    0.000 
#
# Total GULP energy -520377.656238 kJ/mol
# GULP energy per Si atom -12389.944196 kJ/mol
# Density = 1.978071 g / cm^3
# Si number density = 19.825839 Si / 1000 Ang^3
#
#
#
# Elastic Constant Matrix: (Units=GPa)
#
#
# Indices 1 2 3 4 5 6 
#
# 1 167.9490 53.7645 49.7015 0.0000 0.0000 0.0000
# 2 53.7645 93.6725 38.3489 0.0000 0.0000 0.0000
# 3 49.7015 38.3489 61.5312 0.0000 0.0000 0.0000
# 4 0.0000 0.0000 0.0000 32.3655 0.0000 0.0000
# 5 0.0000 0.0000 0.0000 0.0000 25.5089 0.0000
# 6 0.0000 0.0000 0.0000 0.0000 0.0000 39.4627
#
#
#
# Elastic Compliance Matrix: (Units=1/GPa)
#
#
# Indices 1 2 3 4 5 6 
#
# 1 0.008308 -0.002714 -0.005020 0.000000 0.000000 0.000000
# 2 -0.002714 0.015219 -0.007293 0.000000 0.000000 0.000000
# 3 -0.005020 -0.007293 0.024852 0.000000 0.000000 0.000000
# 4 0.000000 0.000000 0.000000 0.030897 0.000000 0.000000
# 5 0.000000 0.000000 0.000000 0.000000 0.039202 0.000000
# 6 0.000000 0.000000 0.000000 0.000000 0.000000 0.025340
#
#
# Mechanical properties :
#
#
# Convention : Reuss Voigt Hill
#
# Bulk Modulus (GPa) = 54.56690 67.42027 60.99358
# Shear Modulus (GPa) = 27.78083 31.55662 29.66872
#
# Velocity S-wave (km/s) = 3.74738 3.99393 3.87262
# Velocity P-wave (km/s) = 6.80490 7.43967 7.12935
#
# Compressibility (1/GPa) = 0.01832613
#
# Stress axis : x y z
#
# Youngs Moduli (GPa) = 120.35987 65.70843 40.23829
#
# Poissons Ratio (x) = 0.17831 0.20199
# Poissons Ratio (y) = 0.32661 0.29346
# Poissons Ratio (z) = 0.60418 0.47921
#
# Static dielectric constant tensor:
#      x y z
#    x 4.180760 0.000000 0.000000 
#    y 0.000000 3.699840 0.000000 
#    z 0.000000 0.000000 3.326420 
# 
# 
# High freq. dielectric constant tensor:
#      x y z
#    x 1.791450 0.000000 0.000000 
#    y 0.000000 1.765930 0.000000 
#    z 0.000000 0.000000 1.744620 
# 
# From -- ./inp_files/13710.got.cif
#   From: 2010.03.12/outbox.cif.g09.slc.cpg/sg74_7_cif.got.tgz:13710.got - 2010.04.16 15:46:19.
