data_PCOD8297342
_publ_section_title
;
Structure prediction by ZEFSAII (Michael W. Deem and Ramdas Pophale) SiO2 
 PCOD8297342
Probable space group: I M M A
;
_chemical_formula_sum "Si O2"
_cell_formula_units_Z 72
_cell_length_a 19.412805
_cell_length_b 19.916878
_cell_length_c 12.211634
_cell_angle_alpha 90.000000
_cell_angle_beta 90.000000
_cell_angle_gamma 90.000000
_cell_volume 4721.536318
_symmetry_space_group_name_H-M "I M M A"
_symmetry_group_IT_number 74
_symmetry_cell_setting 'orthorhombic'
loop_
_space_group_symop_operation_xyz
x,y,z
-x,1/2-y,z
x,-y,-z
-x,1/2+y,-z
-x,-y,-z
x,1/2+y,-z
-x,y,z
x,1/2-y,z
1/2+x,1/2+y,1/2+z
1/2-x,-y,1/2+z
1/2+x,1/2-y,1/2-z
1/2-x,y,1/2-z
1/2-x,1/2-y,1/2-z
1/2+x,y,1/2-z
1/2-x,1/2+y,1/2+z
1/2+x,-y,1/2+z
loop_
_atom_site_type_symbol
_atom_site_label
_atom_site_fract_x
_atom_site_fract_y
_atom_site_fract_z
Si Si1 0.577307 0.172076 0.701326
Si Si2 0.311063 0.075291 0.036468
Si Si3 0.921199 0.673886 0.455782
Si Si4 0.207231 0.404172 0.850224
Si Si5 0.250000 0.032214 0.250000
O O1 0.500000 0.152058 0.664099
O O2 0.590309 0.250000 0.677648
O O3 0.587084 0.155621 0.828671
O O4 0.632624 0.129082 0.633142
O O5 0.290826 0.078380 0.164397
O O6 0.377083 0.122506 0.026832
O O7 0.248896 0.104181 0.962943
O O8 0.330976 0.000000 0.000000
O O9 0.896165 0.750000 0.477104
O O10 0.000000 0.665888 0.492476
O O11 0.250000 0.368840 0.750000
O O12 0.198316 0.483358 0.819476
#
# Coordination Sequence:
#
# PCOD8297342 Si02
#       5
#    16  16  16  16   8
#     4   9  16  26  41  65  95 117 138 175 223 271
#     4  10  17  30  47  66  90 116 149 182 218 260
#     4   9  17  28  43  66  94 118 141 180 228 264
#     4   9  16  27  44  67  86 114 140 179 220 259
#     4   8  18  30  44  62  86 114 146 184 220 250
#
# _framework density 15.249274
#
# number of rings (size 3 to 8) (size 9 to 14) (size 15 to 20)
#    0.667    2.222    2.222    1.333    0.000    1.778 
#    0.000    1.667    0.000    7.333    0.000    3.111 
#    0.000    0.000    0.000    0.000    0.000    0.000 
#
# Total GULP energy -446182.977029 kJ/mol
# GULP energy per Si atom -12393.971584 kJ/mol
# Density = 1.521457 g / cm^3
# Si number density = 15.249274 Si / 1000 Ang^3
#
#
#
# Elastic Constant Matrix: (Units=GPa)
#
#
# Indices 1 2 3 4 5 6 
#
# 1 99.9413 52.8057 28.5453 0.0000 0.0000 0.0000
# 2 52.8057 62.7551 21.2607 0.0000 0.0000 0.0000
# 3 28.5453 21.2607 58.9860 0.0000 0.0000 0.0000
# 4 0.0000 0.0000 0.0000 19.1959 0.0000 0.0000
# 5 0.0000 0.0000 0.0000 0.0000 19.1958 0.0000
# 6 0.0000 0.0000 0.0000 0.0000 0.0000 28.9205
#
#
#
# Elastic Compliance Matrix: (Units=1/GPa)
#
#
# Indices 1 2 3 4 5 6 
#
# 1 0.018756 -0.014475 -0.003860 0.000000 0.000000 0.000000
# 2 -0.014475 0.029323 -0.003564 0.000000 0.000000 0.000000
# 3 -0.003860 -0.003564 0.020105 0.000000 0.000000 0.000000
# 4 0.000000 0.000000 0.000000 0.052094 0.000000 0.000000
# 5 0.000000 0.000000 0.000000 0.000000 0.052095 0.000000
# 6 0.000000 0.000000 0.000000 0.000000 0.000000 0.034577
#
#
# Mechanical properties :
#
#
# Convention : Reuss Voigt Hill
#
# Bulk Modulus (GPa) = 41.00482 47.43398 44.21940
# Shear Modulus (GPa) = 19.31416 21.40050 20.35733
#
# Velocity S-wave (km/s) = 3.56274 3.75023 3.65769
# Velocity P-wave (km/s) = 6.62361 7.06580 6.84828
#
# Compressibility (1/GPa) = 0.02438738
#
# Stress axis : x y z
#
# Youngs Moduli (GPa) = 53.31505 34.10338 49.73772
#
# Poissons Ratio (x) = 0.49365 0.19196
# Poissons Ratio (y) = 0.77174 0.17726
# Poissons Ratio (z) = 0.20577 0.12154
#
# Static dielectric constant tensor:
#      x y z
#    x 2.826470 0.000000 0.000000 
#    y 0.000000 2.775670 0.000000 
#    z 0.000000 0.000000 2.683900 
# 
# 
# High freq. dielectric constant tensor:
#      x y z
#    x 1.576730 0.000000 0.000000 
#    y 0.000000 1.570050 0.000000 
#    z 0.000000 0.000000 1.553020 
# 
# From -- ./inp_files/21879.got.cif
#   From: 2010.03.12/outbox.cif.g09.slc.cpg/sg74_11_cif.got.tgz:21879.got - 2010.04.16 15:46:19.
