data_PCOD8297003
_publ_section_title
;
Structure prediction by ZEFSAII (Michael W. Deem and Ramdas Pophale) SiO2 
 PCOD8297003
Probable space group: I B C A 
;
_chemical_formula_sum "Si O2"
_cell_formula_units_Z 72
_cell_length_a 17.282265
_cell_length_b 10.054237
_cell_length_c 19.852243
_cell_angle_alpha 90.000000
_cell_angle_beta 90.000000
_cell_angle_gamma 90.000000
_cell_volume 3449.525510
_symmetry_space_group_name_H-M "I B C A "
_symmetry_group_IT_number 73
_symmetry_cell_setting 'orthorhombic'
loop_
_space_group_symop_operation_xyz
x,y,z
-x,1/2-y,z
x,-y,1/2-z
1/2-x,y,-z
-x,-y,-z
x,1/2+y,-z
-x,y,1/2+z
1/2+x,-y,z
1/2+x,1/2+y,1/2+z
1/2-x,-y,1/2+z
1/2+x,1/2-y,-z
-x,1/2+y,1/2-z
1/2-x,1/2-y,1/2-z
1/2+x,y,1/2-z
1/2-x,1/2+y,z
x,1/2-y,1/2+z
loop_
_atom_site_type_symbol
_atom_site_label
_atom_site_fract_x
_atom_site_fract_y
_atom_site_fract_z
Si Si1 0.293446 0.875506 0.569115
Si Si2 0.766819 0.365720 0.348425
Si Si3 0.947948 0.128558 0.498577
Si Si4 0.338810 0.000000 0.250000
Si Si5 0.585071 0.197230 0.652203
O O1 0.250000 0.899094 0.500000
O O2 0.275077 0.731542 0.599273
O O3 0.384192 0.888213 0.555878
O O4 0.268316 0.986552 0.621702
O O5 0.853158 0.314028 0.332621
O O6 0.784738 0.117063 0.218858
O O7 0.909480 0.155550 0.425934
O O8 0.000000 0.250000 0.521588
O O9 0.000000 0.000000 0.500000
O O10 0.394899 0.066957 0.195188
O O11 0.500000 0.250000 0.671197
#
# Coordination Sequence:
#
# PCOD8297003 Si02
#       5
#    16  16  16   8  16
#     4  12  24  41  74 101 138 180 226 286 355 405
#     4  12  25  45  71 101 140 183 238 285 338 419
#     4  11  25  44  68 104 141 173 226 288 356 413
#     4  12  26  48  70 100 138 192 244 276 342 412
#     4  11  25  47  69  99 143 181 232 296 341 415
#
# _framework density 20.872434999999999
#
# number of rings (size 3 to 8) (size 9 to 14) (size 15 to 20)
#    0.000    0.444    4.444    4.000    6.222    0.889 
#    4.000    0.000    0.000    0.000    0.000    0.000 
#    0.000    0.000    0.000    0.000    0.000    0.000 
#
# Total GULP energy -446610.001191 kJ/mol
# GULP energy per Si atom -12405.833366 kJ/mol
# Density = 2.082493 g / cm^3
# Si number density = 20.872435 Si / 1000 Ang^3
#
#
#
# Elastic Constant Matrix: (Units=GPa)
#
#
# Indices 1 2 3 4 5 6 
#
# 1 141.7939 40.4665 31.6543 0.0000 0.0000 0.0000
# 2 40.4665 98.7972 11.9779 0.0000 0.0000 0.0000
# 3 31.6543 11.9779 43.4106 0.0000 0.0000 0.0000
# 4 0.0000 0.0000 0.0000 27.8364 0.0000 0.0000
# 5 0.0000 0.0000 0.0000 0.0000 33.1865 0.0000
# 6 0.0000 0.0000 0.0000 0.0000 0.0000 40.2770
#
#
#
# Elastic Compliance Matrix: (Units=1/GPa)
#
#
# Indices 1 2 3 4 5 6 
#
# 1 0.009245 -0.003072 -0.005894 0.000000 0.000000 0.000000
# 2 -0.003072 0.011493 -0.000931 0.000000 0.000000 0.000000
# 3 -0.005894 -0.000931 0.027590 0.000000 0.000000 0.000000
# 4 0.000000 0.000000 0.000000 0.035924 0.000000 0.000000
# 5 0.000000 0.000000 0.000000 0.000000 0.030133 0.000000
# 6 0.000000 0.000000 0.000000 0.000000 0.000000 0.024828
#
#
# Mechanical properties :
#
#
# Convention : Reuss Voigt Hill
#
# Bulk Modulus (GPa) = 35.04509 50.24437 42.64473
# Shear Modulus (GPa) = 29.67039 33.58684 31.62861
#
# Velocity S-wave (km/s) = 3.77438 4.01577 3.89695
# Velocity P-wave (km/s) = 5.98508 6.75472 6.38151
#
# Compressibility (1/GPa) = 0.02853467
#
# Stress axis : x y z
#
# Youngs Moduli (GPa) = 108.16731 87.01001 36.24468
#
# Poissons Ratio (x) = 0.26731 0.21361
# Poissons Ratio (y) = 0.33230 0.03374
# Poissons Ratio (z) = 0.63749 0.08101
#
# Static dielectric constant tensor:
#      x y z
#    x 4.171690 0.000000 0.000000 
#    y 0.000000 3.508230 0.000000 
#    z 0.000000 0.000000 4.456420 
# 
# 
# High freq. dielectric constant tensor:
#      x y z
#    x 1.834380 0.000000 0.000000 
#    y 0.000000 1.828790 0.000000 
#    z 0.000000 0.000000 1.815400 
# 
# From -- ./inp_files/26335.got.cif
#   From: 2010.03.12/outbox.cif.g09.slc.cpg/sg73_14_cif.got.tgz:26335.got - 2010.04.16 15:25:48.
