data_PCOD8297453
_publ_section_title
;
Structure prediction by ZEFSAII (Michael W. Deem and Ramdas Pophale) SiO2 
 PCOD8297453
Probable space group: I M M A
;
_chemical_formula_sum "Si O2"
_cell_formula_units_Z 104
_cell_length_a 13.692053
_cell_length_b 13.235613
_cell_length_c 32.519015
_cell_angle_alpha 90.000000
_cell_angle_beta 90.000000
_cell_angle_gamma 90.000000
_cell_volume 5893.184177
_symmetry_space_group_name_H-M "I M M A"
_symmetry_group_IT_number 74
_symmetry_cell_setting 'orthorhombic'
loop_
_space_group_symop_operation_xyz
x,y,z
-x,1/2-y,z
x,-y,-z
-x,1/2+y,-z
-x,-y,-z
x,1/2+y,-z
-x,y,z
x,1/2-y,z
1/2+x,1/2+y,1/2+z
1/2-x,-y,1/2+z
1/2+x,1/2-y,1/2-z
1/2-x,y,1/2-z
1/2-x,1/2-y,1/2-z
1/2+x,y,1/2-z
1/2-x,1/2+y,1/2+z
1/2+x,-y,1/2+z
loop_
_atom_site_type_symbol
_atom_site_label
_atom_site_fract_x
_atom_site_fract_y
_atom_site_fract_z
Si Si1 0.113016 0.867668 0.194652
Si Si2 0.385313 0.369240 0.190217
Si Si3 0.111661 0.868728 0.521745
Si Si4 0.750000 0.505417 0.750000
Si Si5 0.113506 0.541224 0.605017
Si Si6 0.699174 0.868872 0.063157
Si Si7 0.894940 0.130843 0.897916
O O1 0.141126 0.750000 0.199791
O O2 0.184250 0.934105 0.221991
O O3 0.130004 0.906353 0.148032
O O4 0.000000 0.884402 0.207472
O O5 0.500000 0.394643 0.196223
O O6 0.366931 0.250000 0.191648
O O7 0.323232 0.422632 0.225326
O O8 0.343934 0.412247 0.146839
O O9 0.120553 0.750000 0.520981
O O10 0.160365 0.906117 0.564368
O O11 0.166736 0.911654 0.481341
O O12 0.000000 0.905096 0.518465
O O13 0.136645 0.422003 0.599688
O O14 0.000000 0.564451 0.605587
O O15 0.680629 0.750000 0.067889
O O16 0.812117 0.900420 0.069563
O O17 0.903631 0.250000 0.895414
O O18 0.000000 0.085817 0.912326
#
# Coordination Sequence:
#
# PCOD8297453 Si02
#       7
#    16  16  16   8  16  16  16
#     4   9  18  32  50  74 105 137 164 191 231 292
#     4  10  22  38  53  71  95 124 164 210 251 295
#     4   9  17  29  46  68  94 125 159 192 227 272
#     4  12  20  32  54  78  98 122 160 208 258 290
#     4  10  19  32  49  67  93 130 160 184 228 292
#     4  10  18  27  44  73 101 122 152 196 236 271
#     4   8  15  29  46  63  88 125 162 189 219 265
#
# _framework density 17.647504999999999
#
# number of rings (size 3 to 8) (size 9 to 14) (size 15 to 20)
#    0.000    2.462    0.000    4.154    0.000    4.000 
#    0.000    0.769    0.000    3.692    0.000    0.000 
#    0.000    8.615    0.000    0.000    0.000    0.000 
#
# Total GULP energy -644466.198639 kJ/mol
# GULP energy per Si atom -12393.580743 kJ/mol
# Density = 1.760734 g / cm^3
# Si number density = 17.647505 Si / 1000 Ang^3
#
#
#
# Elastic Constant Matrix: (Units=GPa)
#
#
# Indices 1 2 3 4 5 6 
#
# 1 78.5369 31.6647 65.7495 0.0000 0.0000 0.0000
# 2 31.6647 60.8473 41.6303 0.0000 0.0000 0.0000
# 3 65.7495 41.6303 113.0640 0.0000 0.0000 0.0000
# 4 0.0000 0.0000 0.0000 26.1761 0.0000 0.0000
# 5 0.0000 0.0000 0.0000 0.0000 3.7353 0.0000
# 6 0.0000 0.0000 0.0000 0.0000 0.0000 21.4879
#
#
#
# Elastic Compliance Matrix: (Units=1/GPa)
#
#
# Indices 1 2 3 4 5 6 
#
# 1 0.025588 -0.004191 -0.013337 0.000000 0.000000 0.000000
# 2 -0.004191 0.022655 -0.005904 0.000000 0.000000 0.000000
# 3 -0.013337 -0.005904 0.018774 0.000000 0.000000 0.000000
# 4 0.000000 0.000000 0.000000 0.038203 0.000000 0.000000
# 5 0.000000 0.000000 0.000000 0.000000 0.267717 0.000000
# 6 0.000000 0.000000 0.000000 0.000000 0.000000 0.046538
#
#
# Mechanical properties :
#
#
# Convention : Reuss Voigt Hill
#
# Bulk Modulus (GPa) = 49.62119 58.94859 54.28489
# Shear Modulus (GPa) = 10.56954 17.84009 14.20481
#
# Velocity S-wave (km/s) = 2.44995 3.18294 2.84019
# Velocity P-wave (km/s) = 6.01515 6.85449 6.44849
#
# Compressibility (1/GPa) = 0.02015268
#
# Stress axis : x y z
#
# Youngs Moduli (GPa) = 39.08074 44.13971 53.26423
#
# Poissons Ratio (x) = 0.18500 0.71038
# Poissons Ratio (y) = 0.16379 0.31450
# Poissons Ratio (z) = 0.52122 0.26062
#
# Static dielectric constant tensor:
#      x y z
#    x 3.663020 0.000000 0.000000 
#    y 0.000000 3.175840 0.000000 
#    z 0.000000 0.000000 3.458100 
# 
# 
# High freq. dielectric constant tensor:
#      x y z
#    x 1.668370 0.000000 0.000000 
#    y 0.000000 1.677610 0.000000 
#    z 0.000000 0.000000 1.683780 
# 
# From -- ./inp_files/72526.got.cif
#   From: 2010.03.12/outbox.cif.g09.slc.cpg/sg74_37_cif.got.tgz:72526.got - 2010.04.16 15:46:19.
