data_PCOD8297321
_publ_section_title
;
Structure prediction by ZEFSAII (Michael W. Deem and Ramdas Pophale) SiO2 
 PCOD8297321
Probable space group: I M M A
;
_chemical_formula_sum "Si O2"
_cell_formula_units_Z 96
_cell_length_a 21.224067
_cell_length_b 19.425383
_cell_length_c 14.132430
_cell_angle_alpha 90.000000
_cell_angle_beta 90.000000
_cell_angle_gamma 90.000000
_cell_volume 5826.597810
_symmetry_space_group_name_H-M "I M M A"
_symmetry_group_IT_number 74
_symmetry_cell_setting 'orthorhombic'
loop_
_space_group_symop_operation_xyz
x,y,z
-x,1/2-y,z
x,-y,-z
-x,1/2+y,-z
-x,-y,-z
x,1/2+y,-z
-x,y,z
x,1/2-y,z
1/2+x,1/2+y,1/2+z
1/2-x,-y,1/2+z
1/2+x,1/2-y,1/2-z
1/2-x,y,1/2-z
1/2-x,1/2-y,1/2-z
1/2+x,y,1/2-z
1/2-x,1/2+y,1/2+z
1/2+x,-y,1/2+z
loop_
_atom_site_type_symbol
_atom_site_label
_atom_site_fract_x
_atom_site_fract_y
_atom_site_fract_z
Si Si1 0.324699 0.473344 0.740168
Si Si2 0.572795 0.669710 0.942007
Si Si3 0.798720 0.926583 0.045804
Si Si4 0.161126 0.873257 0.714154
Si Si5 0.280429 0.827076 0.608152
Si Si6 0.653055 0.431284 0.939285
O O1 0.250000 0.472516 0.750000
O O2 0.338618 0.429464 0.644143
O O3 0.345414 0.552858 0.735663
O O4 0.362980 0.441793 0.828363
O O5 0.500000 0.649596 0.947390
O O6 0.584215 0.750000 0.958814
O O7 0.597094 0.647817 0.838075
O O8 0.609430 0.629840 0.024276
O O9 0.725486 0.909819 0.059829
O O10 0.820125 0.865508 0.974884
O O11 0.809184 0.000000 0.000000
O O12 0.217389 0.871091 0.635085
O O13 0.176021 0.820239 0.798530
O O14 0.262046 0.750000 0.575448
O O15 0.639775 0.500000 0.000000
#
# Coordination Sequence:
#
# PCOD8297321 Si02
#       6
#    16  16  16  16  16  16
#     4  10  17  29  48  73  99 133 167 199 250 300
#     4  11  23  36  50  71 102 139 174 211 255 296
#     4  10  17  29  47  72 106 134 160 194 251 311
#     4  11  17  32  48  73 103 129 168 211 255 303
#     4  11  19  27  48  76 102 132 164 204 255 311
#     4  10  18  31  49  69 100 133 167 206 242 298
#
# _framework density 16.476167
#
# number of rings (size 3 to 8) (size 9 to 14) (size 15 to 20)
#    0.000    1.500    6.667    3.000    0.000    0.333 
#    0.000    0.833    0.000    3.000    0.000    3.500 
#    0.000    2.667    0.000    0.000    0.000    0.000 
#
# Total GULP energy -594856.748386 kJ/mol
# GULP energy per Si atom -12392.848925 kJ/mol
# Density = 1.643867 g / cm^3
# Si number density = 16.476167 Si / 1000 Ang^3
#
#
#
# Elastic Constant Matrix: (Units=GPa)
#
#
# Indices 1 2 3 4 5 6 
#
# 1 48.2669 27.0642 39.2589 0.0000 0.0000 0.0000
# 2 27.0642 84.0881 49.9287 0.0000 0.0000 0.0000
# 3 39.2589 49.9287 126.9149 0.0000 0.0000 0.0000
# 4 0.0000 0.0000 0.0000 26.2042 0.0000 0.0000
# 5 0.0000 0.0000 0.0000 0.0000 15.0680 0.0000
# 6 0.0000 0.0000 0.0000 0.0000 0.0000 17.8061
#
#
#
# Elastic Compliance Matrix: (Units=1/GPa)
#
#
# Indices 1 2 3 4 5 6 
#
# 1 0.029388 -0.005299 -0.007006 0.000000 0.000000 0.000000
# 2 -0.005299 0.016472 -0.004841 0.000000 0.000000 0.000000
# 3 -0.007006 -0.004841 0.011951 0.000000 0.000000 0.000000
# 4 0.000000 0.000000 0.000000 0.038162 0.000000 0.000000
# 5 0.000000 0.000000 0.000000 0.000000 0.066366 0.000000
# 6 0.000000 0.000000 0.000000 0.000000 0.000000 0.056160
#
#
# Mechanical properties :
#
#
# Convention : Reuss Voigt Hill
#
# Bulk Modulus (GPa) = 42.51846 54.64149 48.57998
# Shear Modulus (GPa) = 19.18424 21.35020 20.26722
#
# Velocity S-wave (km/s) = 3.41598 3.60366 3.51107
# Velocity P-wave (km/s) = 6.43588 7.10993 6.78129
#
# Compressibility (1/GPa) = 0.02351919
#
# Stress axis : x y z
#
# Youngs Moduli (GPa) = 34.02786 60.70831 83.67467
#
# Poissons Ratio (x) = 0.32167 0.58623
# Poissons Ratio (y) = 0.18030 0.40508
# Poissons Ratio (z) = 0.23840 0.29390
#
# Static dielectric constant tensor:
#      x y z
#    x 2.697260 0.000000 0.000000 
#    y 0.000000 3.046610 0.000000 
#    z 0.000000 0.000000 3.560870 
# 
# 
# High freq. dielectric constant tensor:
#      x y z
#    x 1.569820 0.000000 0.000000 
#    y 0.000000 1.632880 0.000000 
#    z 0.000000 0.000000 1.643490 
# 
# From -- ./inp_files/35609.got.cif
#   From: 2010.03.12/outbox.cif.g09.slc.cpg/sg74_18_cif.got.tgz:35609.got - 2010.04.16 15:46:19.
