data_PCOD8297050
_publ_section_title
;
Structure prediction by ZEFSAII (Michael W. Deem and Ramdas Pophale) SiO2 
 PCOD8297050
Probable space group: I B C A 
;
_chemical_formula_sum "Si O2"
_cell_formula_units_Z 48
_cell_length_a 13.418176
_cell_length_b 5.053073
_cell_length_c 32.018111
_cell_angle_alpha 90.000000
_cell_angle_beta 90.000000
_cell_angle_gamma 90.000000
_cell_volume 2170.924712
_symmetry_space_group_name_H-M "I B C A "
_symmetry_group_IT_number 73
_symmetry_cell_setting 'orthorhombic'
loop_
_space_group_symop_operation_xyz
x,y,z
-x,1/2-y,z
x,-y,1/2-z
1/2-x,y,-z
-x,-y,-z
x,1/2+y,-z
-x,y,1/2+z
1/2+x,-y,z
1/2+x,1/2+y,1/2+z
1/2-x,-y,1/2+z
1/2+x,1/2-y,-z
-x,1/2+y,1/2-z
1/2-x,1/2-y,1/2-z
1/2+x,y,1/2-z
1/2-x,1/2+y,z
x,1/2-y,1/2+z
loop_
_atom_site_type_symbol
_atom_site_label
_atom_site_fract_x
_atom_site_fract_y
_atom_site_fract_z
Si Si1 0.686876 0.596164 0.915475
Si Si2 0.000000 0.250000 0.470567
Si Si3 0.432415 0.500293 0.164833
Si Si4 0.319428 0.500000 0.250000
O O1 0.723881 0.300366 0.926160
O O2 0.594649 0.707117 0.941388
O O3 0.656357 0.570965 0.867091
O O4 0.000000 0.500000 0.500000
O O5 0.500000 0.750000 0.150165
O O6 0.388046 0.545415 0.210142
O O7 0.500000 0.250000 0.167755
O O8 0.250000 0.750000 0.250000
#
# Coordination Sequence:
#
# PCOD8297050 Si02
#       4
#    16   8  16   8
#     4  12  26  46  74 106 142 189 236 291 360 433
#     4  12  28  48  74 106 144 182 236 304 362 436
#     4  12  24  43  70 100 143 190 241 291 356 422
#     4  12  24  42  64 102 142 186 244 296 348 422
#
# _framework density 22.110396000000001
#
# number of rings (size 3 to 8) (size 9 to 14) (size 15 to 20)
#    0.000    0.000    1.667    9.000    2.333    4.000 
#    0.000    0.000    0.000    0.000    0.000    0.000 
#    0.000    0.000    0.000    0.000    0.000    0.000 
#
# Total GULP energy -297508.731230 kJ/mol
# GULP energy per Si atom -12396.197135 kJ/mol
# Density = 2.206007 g / cm^3
# Si number density = 22.110396 Si / 1000 Ang^3
#
#
#
# Elastic Constant Matrix: (Units=GPa)
#
#
# Indices 1 2 3 4 5 6 
#
# 1 91.0606 50.2043 23.3233 0.0000 0.0000 0.0000
# 2 50.2043 177.7098 32.9484 0.0000 0.0000 0.0000
# 3 23.3233 32.9484 105.3940 0.0000 0.0000 0.0000
# 4 0.0000 0.0000 0.0000 39.8539 0.0000 0.0000
# 5 0.0000 0.0000 0.0000 0.0000 -59.0925 0.0000
# 6 0.0000 0.0000 0.0000 0.0000 0.0000 48.3595
#
#
#
# Elastic Compliance Matrix: (Units=1/GPa)
#
#
# Indices 1 2 3 4 5 6 
#
# 1 0.013351 -0.003422 -0.001885 0.000000 0.000000 0.000000
# 2 -0.003422 0.006851 -0.001384 0.000000 0.000000 0.000000
# 3 -0.001885 -0.001384 0.010338 0.000000 0.000000 0.000000
# 4 0.000000 0.000000 0.000000 0.025092 0.000000 0.000000
# 5 0.000000 0.000000 0.000000 0.000000 -0.016923 0.000000
# 6 0.000000 0.000000 0.000000 0.000000 0.000000 0.020678
#
#
# Mechanical properties :
#
#
# Convention : Reuss Voigt Hill
#
# Bulk Modulus (GPa) = 58.28444 65.23515 61.75980
# Shear Modulus (GPa) = 63.70293 23.67006 43.68650
#
# Velocity S-wave (km/s) = 5.37344 3.27546 4.44986
# Velocity P-wave (km/s) = 8.05707 6.62368 7.37528
#
# Compressibility (1/GPa) = 0.01715724
#
# Stress axis : x y z
#
# Youngs Moduli (GPa) = 74.89912 145.97129 96.73016
#
# Poissons Ratio (x) = 0.49957 0.18230
# Poissons Ratio (y) = 0.25633 0.13390
# Poissons Ratio (z) = 0.14116 0.20207
#
# Static dielectric constant tensor:
#      x y z
#    x 4.154650 0.000000 0.000000 
#    y 0.000000 4.280260 0.000000 
#    z 0.000000 0.000000 3.930710 
# 
# 
# High freq. dielectric constant tensor:
#      x y z
#    x 1.887290 0.000000 0.000000 
#    y 0.000000 1.896790 0.000000 
#    z 0.000000 0.000000 1.880780 
# 
# From -- ./inp_files/589.got.cif
#   From: 2010.03.12/outbox.cif.g09.slc.cpg/sg73_1_cif.got.tgz:589.got - 2010.04.16 15:25:48.
