data_PCOD8297266
_publ_section_title
;
Structure prediction by ZEFSAII (Michael W. Deem and Ramdas Pophale) SiO2 
 PCOD8297266
Probable space group: I M M A
;
_chemical_formula_sum "Si O2"
_cell_formula_units_Z 64
_cell_length_a 10.292533
_cell_length_b 31.370215
_cell_length_c 12.938995
_cell_angle_alpha 90.000000
_cell_angle_beta 90.000000
_cell_angle_gamma 90.000000
_cell_volume 4177.729419
_symmetry_space_group_name_H-M "I M M A"
_symmetry_group_IT_number 74
_symmetry_cell_setting 'orthorhombic'
loop_
_space_group_symop_operation_xyz
x,y,z
-x,1/2-y,z
x,-y,-z
-x,1/2+y,-z
-x,-y,-z
x,1/2+y,-z
-x,y,z
x,1/2-y,z
1/2+x,1/2+y,1/2+z
1/2-x,-y,1/2+z
1/2+x,1/2-y,1/2-z
1/2-x,y,1/2-z
1/2-x,1/2-y,1/2-z
1/2+x,y,1/2-z
1/2-x,1/2+y,1/2+z
1/2+x,-y,1/2+z
loop_
_atom_site_type_symbol
_atom_site_label
_atom_site_fract_x
_atom_site_fract_y
_atom_site_fract_z
Si Si1 0.648776 0.520449 0.661748
Si Si2 0.351838 0.566374 0.451105
Si Si3 0.750968 0.348705 0.872802
Si Si4 0.000000 0.298112 0.625098
Si Si5 0.000000 0.702448 0.129232
O O1 0.500000 0.521294 0.703034
O O2 0.750000 0.533421 0.750000
O O3 0.684589 0.473751 0.619935
O O4 0.664935 0.554755 0.570815
O O5 0.500000 0.580302 0.427934
O O6 0.254607 0.604600 0.423496
O O7 0.750000 0.354007 0.750000
O O8 0.625192 0.323860 0.914196
O O9 0.873494 0.321673 0.911705
O O10 0.000000 0.250000 0.579518
O O11 0.000000 0.295537 0.747802
O O12 0.000000 0.750000 0.083068
#
# Coordination Sequence:
#
# PCOD8297266 Si02
#       5
#    16  16  16   8   8
#     4   9  18  33  49  65  90 120 148 183 222 260
#     4   9  17  31  48  65  89 121 153 180 214 262
#     4  10  17  27  43  63  90 120 153 182 215 260
#     4   9  18  28  38  61  93 121 145 181 226 258
#     4   9  16  26  42  59  83 121 153 177 212 268
#
# _framework density 15.319326999999999
#
# number of rings (size 3 to 8) (size 9 to 14) (size 15 to 20)
#    0.000    2.750    1.250    3.000    0.000    3.000 
#    4.500    1.250    0.000    0.000    0.000    0.000 
#    0.000    6.000    0.000    0.000    0.000    0.000 
#
# Total GULP energy -396763.101838 kJ/mol
# GULP energy per Si atom -12398.846932 kJ/mol
# Density = 1.528446 g / cm^3
# Si number density = 15.319327 Si / 1000 Ang^3
#
#
#
# Elastic Constant Matrix: (Units=GPa)
#
#
# Indices 1 2 3 4 5 6 
#
# 1 115.5731 56.5010 30.3599 0.0000 0.0000 0.0000
# 2 56.5010 116.2300 19.3993 -0.0002 0.0001 0.0001
# 3 30.3599 19.3993 41.2287 -0.0014 0.0004 0.0004
# 4 0.0000 -0.0002 -0.0014 17.8354 0.0003 0.0002
# 5 0.0000 0.0001 0.0004 0.0003 19.8339 0.0000
# 6 0.0000 0.0001 0.0004 0.0002 0.0000 30.6371
#
#
#
# Elastic Compliance Matrix: (Units=1/GPa)
#
#
# Indices 1 2 3 4 5 6 
#
# 1 0.013059 -0.005147 -0.007194 -0.000001 0.000000 0.000000
# 2 -0.005147 0.011366 -0.001558 0.000000 0.000000 0.000000
# 3 -0.007194 -0.001558 0.030285 0.000002 -0.000001 0.000000
# 4 -0.000001 0.000000 0.000002 0.056068 -0.000001 0.000000
# 5 0.000000 0.000000 -0.000001 -0.000001 0.050419 0.000000
# 6 0.000000 0.000000 0.000000 0.000000 0.000000 0.032640
#
#
# Mechanical properties :
#
#
# Convention : Reuss Voigt Hill
#
# Bulk Modulus (GPa) = 37.15840 53.95025 45.55433
# Shear Modulus (GPa) = 21.68202 24.77941 23.23072
#
# Velocity S-wave (km/s) = 3.76618 4.02621 3.89836
# Velocity P-wave (km/s) = 6.57424 7.54370 7.07560
#
# Compressibility (1/GPa) = 0.02691182
#
# Stress axis : x y z
#
# Youngs Moduli (GPa) = 76.57686 87.98348 33.01914
#
# Poissons Ratio (x) = 0.45288 0.23755
# Poissons Ratio (y) = 0.39416 0.05143
# Poissons Ratio (z) = 0.55091 0.13704
#
# Static dielectric constant tensor:
#      x y z
#    x 2.996430 0.000000 0.000000 
#    y 0.000000 2.977710 0.000000 
#    z 0.000000 0.000000 2.483990 
# 
# 
# High freq. dielectric constant tensor:
#      x y z
#    x 1.592900 0.000000 0.000000 
#    y 0.000000 1.594240 0.000000 
#    z 0.000000 0.000000 1.532000 
# 
# From -- ./inp_files/7353.got.cif
#   From: 2010.03.12/outbox.cif.g09.slc.cpg/sg74_4_cif.got.tgz:7353.got - 2010.04.16 15:46:19.
