data_PCOD8297110
_publ_section_title
;
Structure prediction by ZEFSAII (Michael W. Deem and Ramdas Pophale) SiO2 
 PCOD8297110
Probable space group: I M M A
;
_chemical_formula_sum "Si O2"
_cell_formula_units_Z 128
_cell_length_a 24.203585
_cell_length_b 17.505870
_cell_length_c 20.622343
_cell_angle_alpha 90.000000
_cell_angle_beta 90.000000
_cell_angle_gamma 90.000000
_cell_volume 8737.785975
_symmetry_space_group_name_H-M "I M M A"
_symmetry_group_IT_number 74
_symmetry_cell_setting 'orthorhombic'
loop_
_space_group_symop_operation_xyz
x,y,z
-x,1/2-y,z
x,-y,-z
-x,1/2+y,-z
-x,-y,-z
x,1/2+y,-z
-x,y,z
x,1/2-y,z
1/2+x,1/2+y,1/2+z
1/2-x,-y,1/2+z
1/2+x,1/2-y,1/2-z
1/2-x,y,1/2-z
1/2-x,1/2-y,1/2-z
1/2+x,y,1/2-z
1/2-x,1/2+y,1/2+z
1/2+x,-y,1/2+z
loop_
_atom_site_type_symbol
_atom_site_label
_atom_site_fract_x
_atom_site_fract_y
_atom_site_fract_z
Si Si1 0.337425 0.494325 0.235675
Si Si2 0.938121 0.467868 0.656736
Si Si3 0.101409 0.336665 0.564568
Si Si4 0.695784 0.834037 0.791967
Si Si5 0.268849 0.836283 0.063564
Si Si6 0.102938 0.064605 0.451162
Si Si7 0.724011 0.602986 0.925290
Si Si8 0.767170 0.528991 0.146967
O O1 0.395088 0.534145 0.216405
O O2 0.345333 0.402032 0.229765
O O3 0.288951 0.519437 0.187463
O O4 0.321354 0.522223 0.307781
O O5 0.930762 0.392388 0.612901
O O6 0.928912 0.546794 0.615813
O O7 0.000000 0.468209 0.684992
O O8 0.082575 0.250000 0.577657
O O9 0.166382 0.348642 0.576693
O O10 0.088459 0.355800 0.488119
O O11 0.669501 0.750000 0.778876
O O12 0.750000 0.846912 0.750000
O O13 0.712426 0.837149 0.867651
O O14 0.251200 0.750000 0.079446
O O15 0.232966 0.889796 0.110832
O O16 0.254537 0.853102 0.988562
O O17 0.167939 0.056506 0.438826
O O18 0.083455 0.000000 0.500000
O O19 0.769499 0.539697 0.905323
#
# Coordination Sequence:
#
# PCOD8297110 Si02
#       8
#    16  16  16  16  16  16  16  16
#     4  10  18  32  45  63  83 115 154 185 218 266
#     4  11  20  32  47  60  81 114 157 197 224 259
#     4   9  18  30  43  62  88 117 150 190 225 253
#     4  10  17  26  43  67  89 113 143 176 214 257
#     4  10  18  27  42  68  97 118 143 181 225 265
#     4   9  16  27  42  60  82 112 148 180 213 253
#     4  10  15  26  44  66  90 116 142 172 212 265
#     4  10  16  29  48  61  85 120 148 179 216 272
#
# _framework density 14.64902
#
# number of rings (size 3 to 8) (size 9 to 14) (size 15 to 20)
#    0.000    2.125    6.250    2.250    0.000    3.000 
#    0.000    1.875    0.000    1.125    0.000    0.000 
#    0.000    2.000    0.000    0.250    0.000    0.000 
#
# Total GULP energy -793116.424257 kJ/mol
# GULP energy per Si atom -12392.444129 kJ/mol
# Density = 1.461568 g / cm^3
# Si number density = 14.649020 Si / 1000 Ang^3
#
#
#
# Elastic Constant Matrix: (Units=GPa)
#
#
# Indices 1 2 3 4 5 6 
#
# 1 61.5320 24.5490 34.3272 0.0000 0.0000 0.0000
# 2 24.5490 89.4357 32.2682 0.0000 0.0000 0.0000
# 3 34.3272 32.2682 60.2890 0.0000 0.0000 0.0000
# 4 0.0000 0.0000 0.0000 17.8855 0.0000 0.0000
# 5 0.0000 0.0000 0.0000 0.0000 15.3806 0.0000
# 6 0.0000 0.0000 0.0000 0.0000 0.0000 14.2368
#
#
#
# Elastic Compliance Matrix: (Units=1/GPa)
#
#
# Indices 1 2 3 4 5 6 
#
# 1 0.024121 -0.002064 -0.012629 0.000000 0.000000 0.000000
# 2 -0.002064 0.014034 -0.006336 0.000000 0.000000 0.000000
# 3 -0.012629 -0.006336 0.027168 0.000000 0.000000 0.000000
# 4 0.000000 0.000000 0.000000 0.055911 0.000000 0.000000
# 5 0.000000 0.000000 0.000000 0.000000 0.065017 0.000000
# 6 0.000000 0.000000 0.000000 0.000000 0.000000 0.070240
#
#
# Mechanical properties :
#
#
# Convention : Reuss Voigt Hill
#
# Bulk Modulus (GPa) = 42.98341 43.72727 43.35534
# Shear Modulus (GPa) = 16.32362 17.50807 16.91585
#
# Velocity S-wave (km/s) = 3.34176 3.46087 3.40184
# Velocity P-wave (km/s) = 6.65550 6.77384 6.71493
#
# Compressibility (1/GPa) = 0.02326479
#
# Stress axis : x y z
#
# Youngs Moduli (GPa) = 41.45826 71.25643 36.80737
#
# Poissons Ratio (x) = 0.14710 0.46484
# Poissons Ratio (y) = 0.08558 0.23321
# Poissons Ratio (z) = 0.52357 0.45147
#
# Static dielectric constant tensor:
#      x y z
#    x 2.459550 0.000000 0.000000 
#    y 0.000000 2.990760 0.000000 
#    z 0.000000 0.000000 2.958190 
# 
# 
# High freq. dielectric constant tensor:
#      x y z
#    x 1.501500 0.000000 0.000000 
#    y 0.000000 1.566730 0.000000 
#    z 0.000000 0.000000 1.549170 
# 
# From -- ./inp_files/53474.got.cif
#   From: 2010.03.12/outbox.cif.g09.slc.cpg/sg74_27_cif.got.tgz:53474.got - 2010.04.16 15:46:19.
