data_PCOD8297857
_publ_section_title
;
Structure prediction by ZEFSAII (Michael W. Deem and Ramdas Pophale) SiO2 
 PCOD8297857
Probable space group: I M M A
;
_chemical_formula_sum "Si O2"
_cell_formula_units_Z 112
_cell_length_a 16.392968
_cell_length_b 15.268121
_cell_length_c 25.109674
_cell_angle_alpha 90.000000
_cell_angle_beta 90.000000
_cell_angle_gamma 90.000000
_cell_volume 6284.695760
_symmetry_space_group_name_H-M "I M M A"
_symmetry_group_IT_number 74
_symmetry_cell_setting 'orthorhombic'
loop_
_space_group_symop_operation_xyz
x,y,z
-x,1/2-y,z
x,-y,-z
-x,1/2+y,-z
-x,-y,-z
x,1/2+y,-z
-x,y,z
x,1/2-y,z
1/2+x,1/2+y,1/2+z
1/2-x,-y,1/2+z
1/2+x,1/2-y,1/2-z
1/2-x,y,1/2-z
1/2-x,1/2-y,1/2-z
1/2+x,y,1/2-z
1/2-x,1/2+y,1/2+z
1/2+x,-y,1/2+z
loop_
_atom_site_type_symbol
_atom_site_label
_atom_site_fract_x
_atom_site_fract_y
_atom_site_fract_z
Si Si1 0.591114 0.000000 0.332399
Si Si2 0.711719 0.649859 0.694077
Si Si3 0.592598 0.396561 0.000000
Si Si4 0.288282 0.149861 0.694076
Si Si5 0.275716 0.348976 0.917918
Si Si6 0.724285 0.848976 0.917917
Si Si7 0.654266 0.499999 0.556521
O O1 0.500000 1.000000 0.309833
O O2 0.634145 0.088067 0.312967
O O3 0.588806 0.999995 0.396610
O O4 0.634148 0.911938 0.312962
O O5 0.680814 0.750000 0.694897
O O6 0.750000 0.622886 0.750000
O O7 0.777884 0.635025 0.646377
O O8 0.500000 0.360159 0.000001
O O9 0.636682 0.363470 0.945877
O O10 0.593028 0.500000 0.000000
O O11 0.636684 0.363471 0.054122
O O12 0.319191 0.250000 0.694887
O O13 0.250000 0.122902 0.750000
O O14 0.222118 0.135021 0.646376
O O15 0.246639 0.250000 0.929497
O O16 0.210692 0.414237 0.942825
O O17 0.753363 0.750000 0.929497
O O18 0.789311 0.914237 0.942823
O O19 0.607346 0.500000 0.500000
#
# Coordination Sequence:
#
# PCOD8297857 Si02
#       7
#    16  16  16  16  16  16  16
#     4  10  21  34  52  79 108 136 166 208 264 309
#     4   9  19  36  58  79 101 135 179 218 253 305
#     4  11  21  33  49  74 109 140 168 212 268 313
#     4   9  19  36  58  79 101 135 179 218 253 305
#     4  10  18  31  53  75  98 133 173 211 253 301
#     4  10  18  31  53  75  98 133 173 211 253 301
#     4  10  18  32  50  73 102 131 169 208 245 302
#
# _framework density 17.821069999999999
#
# number of rings (size 3 to 8) (size 9 to 14) (size 15 to 20)
#    0.000    2.143    2.857    0.857    0.000    2.000 
#    0.000    1.429    0.000    5.143    0.000    8.000 
#    0.000    0.000    0.000    0.000    0.000    0.000 
#
# Total GULP energy -694042.317127 kJ/mol
# GULP energy per Si atom -12393.612806 kJ/mol
# Density = 1.778051 g / cm^3
# Si number density = 17.821070 Si / 1000 Ang^3
#
#
#
# Elastic Constant Matrix: (Units=GPa)
#
#
# Indices 1 2 3 4 5 6 
#
# 1 107.6116 42.5945 54.4085 0.0000 0.0000 0.0000
# 2 42.5945 107.5981 40.5624 0.0000 0.0000 0.0000
# 3 54.4085 40.5624 150.9607 0.0000 0.0000 0.0000
# 4 0.0000 0.0000 0.0000 27.3417 0.0000 0.0000
# 5 0.0000 0.0000 0.0000 0.0000 15.7748 0.0000
# 6 0.0000 0.0000 0.0000 0.0000 0.0000 -52.1211
#
#
#
# Elastic Compliance Matrix: (Units=1/GPa)
#
#
# Indices 1 2 3 4 5 6 
#
# 1 0.012514 -0.003620 -0.003538 0.000000 0.000000 0.000000
# 2 -0.003620 0.011389 -0.001755 0.000000 0.000000 0.000000
# 3 -0.003538 -0.001755 0.008371 0.000000 0.000000 0.000000
# 4 0.000000 0.000000 0.000000 0.036574 0.000000 0.000000
# 5 0.000000 0.000000 0.000000 0.000000 0.063392 0.000000
# 6 0.000000 0.000000 0.000000 0.000000 0.000000 -0.019186
#
#
# Mechanical properties :
#
#
# Convention : Reuss Voigt Hill
#
# Bulk Modulus (GPa) = 69.21628 71.25569 70.23599
# Shear Modulus (GPa) = 36.84703 13.43944 25.14323
#
# Velocity S-wave (km/s) = 4.55203 2.74913 3.76023
# Velocity P-wave (km/s) = 8.15793 7.08150 7.63870
#
# Compressibility (1/GPa) = 0.01444747
#
# Stress axis : x y z
#
# Youngs Moduli (GPa) = 79.90873 87.80613 119.46216
#
# Poissons Ratio (x) = 0.31789 0.42260
# Poissons Ratio (y) = 0.28930 0.20969
# Poissons Ratio (z) = 0.28268 0.15412
#
# Static dielectric constant tensor:
#      x y z
#    x 2.960850 0.000000 0.000000 
#    y 0.000000 3.529750 0.000000 
#    z 0.000000 0.000000 3.629140 
# 
# 
# High freq. dielectric constant tensor:
#      x y z
#    x 1.642130 0.000000 0.000000 
#    y 0.000000 1.713670 0.000000 
#    z 0.000000 0.000000 1.703790 
# 
# From -- ./inp_files/67169.got.cif
#   From: 2010.03.12/outbox.cif.g09.slc.cpg/sg74_34_cif.got.tgz:67169.got - 2010.04.16 15:46:19.
