data_PCOD8297018
_publ_section_title
;
Structure prediction by ZEFSAII (Michael W. Deem and Ramdas Pophale) SiO2 
 PCOD8297018
Probable space group: I B C A 
;
_chemical_formula_sum "Si O2"
_cell_formula_units_Z 64
_cell_length_a 9.481440
_cell_length_b 10.915212
_cell_length_c 25.029477
_cell_angle_alpha 90.000000
_cell_angle_beta 90.000000
_cell_angle_gamma 90.000000
_cell_volume 2590.348823
_symmetry_space_group_name_H-M "I B C A "
_symmetry_group_IT_number 73
_symmetry_cell_setting 'orthorhombic'
loop_
_space_group_symop_operation_xyz
x,y,z
-x,1/2-y,z
x,-y,1/2-z
1/2-x,y,-z
-x,-y,-z
x,1/2+y,-z
-x,y,1/2+z
1/2+x,-y,z
1/2+x,1/2+y,1/2+z
1/2-x,-y,1/2+z
1/2+x,1/2-y,-z
-x,1/2+y,1/2-z
1/2-x,1/2-y,1/2-z
1/2+x,y,1/2-z
1/2-x,1/2+y,z
x,1/2-y,1/2+z
loop_
_atom_site_type_symbol
_atom_site_label
_atom_site_fract_x
_atom_site_fract_y
_atom_site_fract_z
Si Si1 0.690694 0.584357 0.345761
Si Si2 0.048494 0.549177 0.913240
Si Si3 0.897955 0.841315 0.508533
Si Si4 0.362034 0.000000 0.750000
Si Si5 0.500000 0.250000 0.715784
O O1 0.817808 0.616774 0.386343
O O2 0.555379 0.514654 0.370650
O O3 0.760702 0.496984 0.301307
O O4 0.634071 0.711351 0.320563
O O5 0.959274 0.640590 0.949154
O O6 0.123430 0.458935 0.955372
O O7 0.750000 0.774338 0.500000
O O8 0.000000 0.750000 0.540976
O O9 0.455407 0.127149 0.749638
#
# Coordination Sequence:
#
# PCOD8297018 Si02
#       5
#    16  16  16   8   8
#     4  12  26  49  77 111 155 206 265 328 400 468
#     4  11  26  47  74 106 153 202 262 322 393 471
#     4  11  26  44  70 109 151 200 258 326 392 471
#     4  12  28  54  80 122 160 206 264 334 404 482
#     4  12  28  52  84 116 160 212 268 338 398 484
#
# _framework density 24.707096
#
# number of rings (size 3 to 8) (size 9 to 14) (size 15 to 20)
#    0.000    0.500    5.000    1.500    5.250    2.000 
#    2.250    0.000    0.000    0.000    0.000    0.000 
#    0.000    0.000    0.000    0.000    0.000    0.000 
#
# Total GULP energy -396554.907470 kJ/mol
# GULP energy per Si atom -12392.340858 kJ/mol
# Density = 2.465086 g / cm^3
# Si number density = 24.707096 Si / 1000 Ang^3
#
#
#
# Elastic Constant Matrix: (Units=GPa)
#
#
# Indices 1 2 3 4 5 6 
#
# 1 195.1270 53.9142 48.6348 0.0000 0.0000 0.0000
# 2 53.9142 120.6549 27.6966 0.0000 0.0000 0.0000
# 3 48.6348 27.6966 98.8577 0.0000 0.0000 0.0000
# 4 0.0000 0.0000 0.0000 -5.1013 0.0000 0.0000
# 5 0.0000 0.0000 0.0000 0.0000 20.1763 0.0000
# 6 0.0000 0.0000 0.0000 0.0000 0.0000 49.4550
#
#
#
# Elastic Compliance Matrix: (Units=1/GPa)
#
#
# Indices 1 2 3 4 5 6 
#
# 1 0.006377 -0.002276 -0.002500 0.000000 0.000000 0.000000
# 2 -0.002276 0.009670 -0.001590 0.000000 0.000000 0.000000
# 3 -0.002500 -0.001590 0.011791 0.000000 0.000000 0.000000
# 4 0.000000 0.000000 0.000000 -0.196028 0.000000 0.000000
# 5 0.000000 0.000000 0.000000 0.000000 0.049563 0.000000
# 6 0.000000 0.000000 0.000000 0.000000 0.000000 0.020220
#
#
# Mechanical properties :
#
#
# Convention : Reuss Voigt Hill
#
# Bulk Modulus (GPa) = 66.19224 75.01453 70.60338
# Shear Modulus (GPa) = -62.00231 31.86558 -15.06837
#
# Velocity S-wave (km/s) = -5.01492 3.59518 -2.47225
# Velocity P-wave (km/s) = 2.58527 6.90371 4.52646
#
# Compressibility (1/GPa) = 0.01510751
#
# Stress axis : x y z
#
# Youngs Moduli (GPa) = 156.82273 103.41423 84.81319
#
# Poissons Ratio (x) = 0.23533 0.21199
# Poissons Ratio (y) = 0.35687 0.13482
# Poissons Ratio (z) = 0.39199 0.16439
#
# Static dielectric constant tensor:
#      x y z
#    x 4.734590 0.000000 0.000000 
#    y 0.000000 4.383510 0.000000 
#    z 0.000000 0.000000 4.543100 
# 
# 
# High freq. dielectric constant tensor:
#      x y z
#    x 2.008690 0.000000 0.000000 
#    y 0.000000 1.966120 0.000000 
#    z 0.000000 0.000000 1.986780 
# 
# From -- ./inp_files/28730.got.cif
#   From: 2010.03.12/outbox.cif.g09.slc.cpg/sg73_15_cif.got.tgz:28730.got - 2010.04.16 15:25:48.
