data_PCOD8297508
_publ_section_title
;
Structure prediction by ZEFSAII (Michael W. Deem and Ramdas Pophale) SiO2 
 PCOD8297508
Probable space group: I M M A
;
_chemical_formula_sum "Si O2"
_cell_formula_units_Z 80
_cell_length_a 32.641907
_cell_length_b 9.434972
_cell_length_c 14.862580
_cell_angle_alpha 90.000000
_cell_angle_beta 90.000000
_cell_angle_gamma 90.000000
_cell_volume 4577.310188
_symmetry_space_group_name_H-M "I M M A"
_symmetry_group_IT_number 74
_symmetry_cell_setting 'orthorhombic'
loop_
_space_group_symop_operation_xyz
x,y,z
-x,1/2-y,z
x,-y,-z
-x,1/2+y,-z
-x,-y,-z
x,1/2+y,-z
-x,y,z
x,1/2-y,z
1/2+x,1/2+y,1/2+z
1/2-x,-y,1/2+z
1/2+x,1/2-y,1/2-z
1/2-x,y,1/2-z
1/2-x,1/2-y,1/2-z
1/2+x,y,1/2-z
1/2-x,1/2+y,1/2+z
1/2+x,-y,1/2+z
loop_
_atom_site_type_symbol
_atom_site_label
_atom_site_fract_x
_atom_site_fract_y
_atom_site_fract_z
Si Si1 0.178145 0.911533 0.917550
Si Si2 0.648790 0.419271 0.089044
Si Si3 0.614495 0.916699 0.726206
Si Si4 0.453130 0.583780 0.589870
Si Si5 0.735824 0.413436 0.156331
O O1 0.166491 0.750000 0.936948
O O2 0.155902 0.962496 0.826264
O O3 0.226930 0.932685 0.912803
O O4 0.160186 0.000000 0.000000
O O5 0.647906 0.250000 0.073033
O O6 0.618541 0.468646 0.170441
O O7 0.694467 0.476834 0.113572
O O8 0.633589 0.500000 0.000000
O O9 0.611427 0.750000 0.729960
O O10 0.574472 0.973910 0.673164
O O11 0.440629 0.500000 0.500000
O O12 0.500000 0.552839 0.616339
O O13 0.445544 0.750000 0.571739
O O14 0.725933 0.250000 0.177981
O O15 0.750000 0.487225 0.250000
#
# Coordination Sequence:
#
# PCOD8297508 Si02
#       5
#    16  16  16  16  16
#     4  10  18  28  44  65  88 115 147 181 220 265
#     4  10  19  32  49  66  87 118 157 194 227 264
#     4   9  17  30  48  67  89 120 153 181 216 270
#     4   9  17  30  49  73  98 122 148 178 217 268
#     4   9  15  27  46  63  82 116 155 185 218 266
#
# _framework density 17.477513999999999
#
# number of rings (size 3 to 8) (size 9 to 14) (size 15 to 20)
#    0.000    2.600    2.000    1.200    0.000    0.000 
#    0.000    2.000    0.000    1.800    0.000    0.000 
#    0.000    0.000    0.000    0.000    0.000    0.000 
#
# Total GULP energy -495695.823575 kJ/mol
# GULP energy per Si atom -12392.395589 kJ/mol
# Density = 1.743773 g / cm^3
# Si number density = 17.477514 Si / 1000 Ang^3
#
#
#
# Elastic Constant Matrix: (Units=GPa)
#
#
# Indices 1 2 3 4 5 6 
#
# 1 95.7221 19.4966 58.3544 0.0000 0.0000 0.0000
# 2 19.4966 32.7997 43.4249 0.0000 0.0000 0.0000
# 3 58.3544 43.4249 160.3274 0.0000 0.0000 0.0000
# 4 0.0000 0.0000 0.0000 27.0960 0.0000 0.0000
# 5 0.0000 0.0000 0.0000 0.0000 27.1396 0.0000
# 6 0.0000 0.0000 0.0000 0.0000 0.0000 10.2286
#
#
#
# Elastic Compliance Matrix: (Units=1/GPa)
#
#
# Indices 1 2 3 4 5 6 
#
# 1 0.013544 -0.002376 -0.004286 0.000000 0.000000 0.000000
# 2 -0.002376 0.047950 -0.012122 0.000000 0.000000 0.000000
# 3 -0.004286 -0.012122 0.011081 0.000000 0.000000 0.000000
# 4 0.000000 0.000000 0.000000 0.036906 0.000000 0.000000
# 5 0.000000 0.000000 0.000000 0.000000 0.036846 0.000000
# 6 0.000000 0.000000 0.000000 0.000000 0.000000 0.097765
#
#
# Mechanical properties :
#
#
# Convention : Reuss Voigt Hill
#
# Bulk Modulus (GPa) = 28.56730 59.04454 43.80592
# Shear Modulus (GPa) = 17.04571 24.06441 20.55506
#
# Velocity S-wave (km/s) = 3.12636 3.71466 3.43313
# Velocity P-wave (km/s) = 5.42336 7.22874 6.39013
#
# Compressibility (1/GPa) = 0.03500506
#
# Stress axis : x y z
#
# Youngs Moduli (GPa) = 73.83521 20.85503 90.24818
#
# Poissons Ratio (x) = 0.04956 0.38679
# Poissons Ratio (y) = 0.17545 1.09403
# Poissons Ratio (z) = 0.31645 0.25281
#
# Static dielectric constant tensor:
#      x y z
#    x 3.323260 0.000000 0.000000 
#    y 0.000000 2.829360 0.000000 
#    z 0.000000 0.000000 3.409890 
# 
# 
# High freq. dielectric constant tensor:
#      x y z
#    x 1.665380 0.000000 0.000000 
#    y 0.000000 1.625970 0.000000 
#    z 0.000000 0.000000 1.677660 
# 
# From -- ./inp_files/26905.got.cif
#   From: 2010.03.12/outbox.cif.g09.slc.cpg/sg74_14_cif.got.tgz:26905.got - 2010.04.16 15:46:19.
