data_PCOD8297604
_publ_section_title
;
Structure prediction by ZEFSAII (Michael W. Deem and Ramdas Pophale) SiO2 
 PCOD8297604
Probable space group: I M M A
;
_chemical_formula_sum "Si O2"
_cell_formula_units_Z 64
_cell_length_a 17.388259
_cell_length_b 24.796848
_cell_length_c 7.644664
_cell_angle_alpha 90.000000
_cell_angle_beta 90.000000
_cell_angle_gamma 90.000000
_cell_volume 3296.180473
_symmetry_space_group_name_H-M "I M M A"
_symmetry_group_IT_number 74
_symmetry_cell_setting 'orthorhombic'
loop_
_space_group_symop_operation_xyz
x,y,z
-x,1/2-y,z
x,-y,-z
-x,1/2+y,-z
-x,-y,-z
x,1/2+y,-z
-x,y,z
x,1/2-y,z
1/2+x,1/2+y,1/2+z
1/2-x,-y,1/2+z
1/2+x,1/2-y,1/2-z
1/2-x,y,1/2-z
1/2-x,1/2-y,1/2-z
1/2+x,y,1/2-z
1/2-x,1/2+y,1/2+z
1/2+x,-y,1/2+z
loop_
_atom_site_type_symbol
_atom_site_label
_atom_site_fract_x
_atom_site_fract_y
_atom_site_fract_z
Si Si1 0.908812 0.860570 0.296477
Si Si2 0.591819 0.560639 0.503008
Si Si3 0.411020 0.866930 0.810106
Si Si4 0.087804 0.750000 0.656845
Si Si5 0.161302 0.750000 0.293505
O O1 0.880633 0.909137 0.172604
O O2 0.876713 0.872079 0.493234
O O3 0.876648 0.804546 0.217130
O O4 0.000000 0.855603 0.299280
O O5 0.624554 0.500000 0.500000
O O6 0.500000 0.560673 0.511529
O O7 0.627124 0.591496 0.672958
O O8 0.500000 0.881670 0.820988
O O9 0.399333 0.805470 0.735472
O O10 0.148445 0.750000 0.500804
O O11 0.000000 0.750000 0.580148
O O12 0.250000 0.750000 0.250000
#
# Coordination Sequence:
#
# PCOD8297604 Si02
#       5
#    16  16  16   8   8
#     4   9  17  30  48  69  95 127 156 189 238 289
#     4   9  17  27  42  70  98 120 156 199 234 274
#     4   8  14  25  42  65  95 125 152 188 229 274
#     4   8  14  27  46  67  93 127 161 190 233 293
#     4  10  18  29  48  74  95 123 152 199 241 284
#
# _framework density 19.416411
#
# number of rings (size 3 to 8) (size 9 to 14) (size 15 to 20)
#    0.000    3.250    0.000    2.625    0.000    2.000 
#    0.000    8.750    0.000   12.000   13.000    0.000 
#    0.000    0.000    0.000    0.000    0.000    0.000 
#
# Total GULP energy -396418.378718 kJ/mol
# GULP energy per Si atom -12388.074335 kJ/mol
# Density = 1.937222 g / cm^3
# Si number density = 19.416411 Si / 1000 Ang^3
#
#
#
# Elastic Constant Matrix: (Units=GPa)
#
#
# Indices 1 2 3 4 5 6 
#
# 1 25.7386 15.9972 15.2561 0.0000 0.0000 0.0000
# 2 15.9972 207.6830 98.1770 0.0000 0.0000 0.0000
# 3 15.2561 98.1770 118.8450 0.0000 0.0000 0.0000
# 4 0.0000 0.0000 0.0000 39.6167 0.0000 0.0000
# 5 0.0000 0.0000 0.0000 0.0000 5.3456 0.0000
# 6 0.0000 0.0000 0.0000 0.0000 0.0000 5.3310
#
#
#
# Elastic Compliance Matrix: (Units=1/GPa)
#
#
# Indices 1 2 3 4 5 6 
#
# 1 0.042213 -0.001132 -0.004484 0.000000 0.000000 0.000000
# 2 -0.001132 0.007931 -0.006406 0.000000 0.000000 0.000000
# 3 -0.004484 -0.006406 0.014282 0.000000 0.000000 0.000000
# 4 0.000000 0.000000 0.000000 0.025242 0.000000 0.000000
# 5 0.000000 0.000000 0.000000 0.000000 0.187070 0.000000
# 6 0.000000 0.000000 0.000000 0.000000 0.000000 0.187583
#
#
# Mechanical properties :
#
#
# Convention : Reuss Voigt Hill
#
# Bulk Modulus (GPa) = 24.76339 67.90303 46.33321
# Shear Modulus (GPa) = 9.96363 24.91440 17.43901
#
# Velocity S-wave (km/s) = 2.26775 3.58601 3.00018
# Velocity P-wave (km/s) = 4.43153 7.22453 5.99301
#
# Compressibility (1/GPa) = 0.04038219
#
# Stress axis : x y z
#
# Youngs Moduli (GPa) = 23.68915 126.09524 70.01877
#
# Poissons Ratio (x) = 0.14273 0.31395
# Poissons Ratio (y) = 0.02681 0.44854
# Poissons Ratio (z) = 0.10622 0.80777
#
# Static dielectric constant tensor:
#      x y z
#    x 2.801070 0.000000 0.000000 
#    y 0.000000 3.958770 0.000000 
#    z 0.000000 0.000000 3.673730 
# 
# 
# High freq. dielectric constant tensor:
#      x y z
#    x 1.680070 0.000000 0.000000 
#    y 0.000000 1.767370 0.000000 
#    z 0.000000 0.000000 1.747050 
# 
# From -- ./inp_files/8838.got.cif
#   From: 2010.03.12/outbox.cif.g09.slc.cpg/sg74_5_cif.got.tgz:8838.got - 2010.04.16 15:46:19.
