data_PCOD8297904
_publ_section_title
;
Structure prediction by ZEFSAII (Michael W. Deem and Ramdas Pophale) SiO2 
 PCOD8297904
Probable space group: I M M A
;
_chemical_formula_sum "Si O2"
_cell_formula_units_Z 80
_cell_length_a 9.229134
_cell_length_b 14.777867
_cell_length_c 32.991186
_cell_angle_alpha 90.000000
_cell_angle_beta 90.000000
_cell_angle_gamma 90.000000
_cell_volume 4499.566073
_symmetry_space_group_name_H-M "I M M A"
_symmetry_group_IT_number 74
_symmetry_cell_setting 'orthorhombic'
loop_
_space_group_symop_operation_xyz
x,y,z
-x,1/2-y,z
x,-y,-z
-x,1/2+y,-z
-x,-y,-z
x,1/2+y,-z
-x,y,z
x,1/2-y,z
1/2+x,1/2+y,1/2+z
1/2-x,-y,1/2+z
1/2+x,1/2-y,1/2-z
1/2-x,y,1/2-z
1/2-x,1/2-y,1/2-z
1/2+x,y,1/2-z
1/2-x,1/2+y,1/2+z
1/2+x,-y,1/2+z
loop_
_atom_site_type_symbol
_atom_site_label
_atom_site_fract_x
_atom_site_fract_y
_atom_site_fract_z
Si Si1 0.328489 0.465867 0.367649
Si Si2 0.664789 0.894739 0.491324
Si Si3 0.828447 0.150729 0.901544
Si Si4 0.164096 0.350586 0.432734
Si Si5 0.830451 0.646356 0.790707
O O1 0.500000 0.454212 0.372291
O O2 0.280823 0.571885 0.369833
O O3 0.258775 0.416017 0.405427
O O4 0.274421 0.420718 0.325911
O O5 0.500000 0.859165 0.496016
O O6 0.726479 0.873625 0.446578
O O7 0.768222 0.843924 0.522603
O O8 0.672667 0.000000 0.500000
O O9 0.767588 0.250000 0.888229
O O10 0.000000 0.153624 0.902543
O O11 0.166375 0.250000 0.413833
O O12 0.000000 0.387525 0.435157
O O13 0.792668 0.750000 0.802537
O O14 0.750000 0.616754 0.750000
O O15 0.000000 0.634566 0.783131
#
# Coordination Sequence:
#
# PCOD8297904 Si02
#       5
#    16  16  16  16  16
#     4  10  19  34  54  75  99 129 168 208 246 293
#     4  10  18  32  52  71  93 129 174 216 253 291
#     4   9  17  30  50  74  97 125 168 217 255 287
#     4  11  23  34  46  70 103 136 167 205 255 302
#     4   9  18  32  52  77 102 128 157 193 242 301
#
# _framework density 17.779492000000001
#
# number of rings (size 3 to 8) (size 9 to 14) (size 15 to 20)
#    0.000    2.200    2.000    1.800    0.000    4.400 
#    0.000    2.000    0.000    1.200    0.000    0.000 
#    0.000    0.000    0.000    0.000    0.000    0.000 
#
# Total GULP energy -495863.819016 kJ/mol
# GULP energy per Si atom -12396.595475 kJ/mol
# Density = 1.773903 g / cm^3
# Si number density = 17.779492 Si / 1000 Ang^3
#
#
#
# Elastic Constant Matrix: (Units=GPa)
#
#
# Indices 1 2 3 4 5 6 
#
# 1 35.8967 22.0144 27.7490 0.0000 0.0000 0.0000
# 2 22.0144 134.5805 69.8009 -0.0001 0.0000 0.0000
# 3 27.7490 69.8009 115.8690 0.0000 0.0000 0.0000
# 4 0.0000 -0.0001 0.0000 31.6142 0.0000 0.0000
# 5 0.0000 0.0000 0.0000 0.0000 21.1165 0.0000
# 6 0.0000 0.0000 0.0000 0.0000 0.0000 13.2768
#
#
#
# Elastic Compliance Matrix: (Units=1/GPa)
#
#
# Indices 1 2 3 4 5 6 
#
# 1 0.034545 -0.001978 -0.007081 0.000000 0.000000 0.000000
# 2 -0.001978 0.010920 -0.006105 0.000000 0.000000 0.000000
# 3 -0.007081 -0.006105 0.014004 0.000000 0.000000 0.000000
# 4 0.000000 0.000000 0.000000 0.031631 0.000000 0.000000
# 5 0.000000 0.000000 0.000000 0.000000 0.047356 0.000000
# 6 0.000000 0.000000 0.000000 0.000000 0.000000 0.075320
#
#
# Mechanical properties :
#
#
# Convention : Reuss Voigt Hill
#
# Bulk Modulus (GPa) = 34.31632 58.38609 46.35121
# Shear Modulus (GPa) = 19.69911 24.32029 22.00970
#
# Velocity S-wave (km/s) = 3.33223 3.70250 3.52223
# Velocity P-wave (km/s) = 5.84362 7.15460 6.53209
#
# Compressibility (1/GPa) = 0.02914066
#
# Stress axis : x y z
#
# Youngs Moduli (GPa) = 28.94786 91.57206 71.40820
#
# Poissons Ratio (x) = 0.18112 0.50568
# Poissons Ratio (y) = 0.05726 0.43594
# Poissons Ratio (z) = 0.20499 0.55904
#
# Static dielectric constant tensor:
#      x y z
#    x 3.078860 0.000000 0.000000 
#    y 0.000000 3.675800 0.000000 
#    z 0.000000 0.000000 3.222330 
# 
# 
# High freq. dielectric constant tensor:
#      x y z
#    x 1.661920 0.000000 0.000000 
#    y 0.000000 1.696160 0.000000 
#    z 0.000000 0.000000 1.665500 
# 
# From -- ./inp_files/70126.got.cif
#   From: 2010.03.12/outbox.cif.g09.slc.cpg/sg74_36_cif.got.tgz:70126.got - 2010.04.16 15:46:19.
