data_PCOD8297000
_publ_section_title
;
Structure prediction by ZEFSAII (Michael W. Deem and Ramdas Pophale) SiO2 
 PCOD8297000
Probable space group: I B C A 
;
_chemical_formula_sum "Si O2"
_cell_formula_units_Z 88
_cell_length_a 17.911834
_cell_length_b 15.466587
_cell_length_c 15.466589
_cell_angle_alpha 90.000000
_cell_angle_beta 90.000000
_cell_angle_gamma 90.000000
_cell_volume 4284.785538
_symmetry_space_group_name_H-M "I B C A "
_symmetry_group_IT_number 73
_symmetry_cell_setting 'orthorhombic'
loop_
_space_group_symop_operation_xyz
x,y,z
-x,1/2-y,z
x,-y,1/2-z
1/2-x,y,-z
-x,-y,-z
x,1/2+y,-z
-x,y,1/2+z
1/2+x,-y,z
1/2+x,1/2+y,1/2+z
1/2-x,-y,1/2+z
1/2+x,1/2-y,-z
-x,1/2+y,1/2-z
1/2-x,1/2-y,1/2-z
1/2+x,y,1/2-z
1/2-x,1/2+y,z
x,1/2-y,1/2+z
loop_
_atom_site_type_symbol
_atom_site_label
_atom_site_fract_x
_atom_site_fract_y
_atom_site_fract_z
Si Si1 0.000000 0.750000 0.301212
Si Si2 0.250000 0.051212 0.000000
Si Si3 0.375000 0.500000 0.750000
Si Si4 0.225099 0.355627 0.325425
Si Si5 0.143956 0.816955 0.208840
Si Si6 0.024901 0.075425 0.605627
Si Si7 0.106044 0.041160 0.433045
O O1 0.066688 0.778244 0.240104
O O2 0.026598 0.672380 0.360912
O O3 0.276599 0.110912 0.077620
O O4 0.183312 0.990104 0.028244
O O5 0.325032 0.415029 0.737001
O O6 0.424968 0.487001 0.834971
O O7 0.194361 0.258591 0.331741
O O8 0.309300 0.358587 0.287927
O O9 0.125000 0.887974 0.137974
O O10 0.055639 0.081741 0.508591
O O11 0.940700 0.037927 0.608587
#
# Coordination Sequence:
#
# PCOD8297000 Si02
#       7
#     8   8   8  16  16  16  16
#     4  12  24  44  70 100 140 182 232 294 346 422
#     4  12  24  44  70 100 140 182 232 294 346 422
#     4  12  20  48  74  92 140 188 226 296 348 424
#     4  11  25  43  70 100 137 180 232 283 352 417
#     4  11  26  44  68 103 136 181 232 284 350 419
#     4  11  25  43  70 100 137 180 232 283 352 417
#     4  11  26  44  68 103 136 181 232 284 350 419
#
# _framework density 20.537783000000001
#
# number of rings (size 3 to 8) (size 9 to 14) (size 15 to 20)
#    0.000    0.727    3.636    3.273    0.000    5.818 
#    0.000    0.000    0.000    0.000    0.000    0.000 
#    0.000    0.000    0.000    0.000    0.000    0.000 
#
# Total GULP energy -545893.372232 kJ/mol
# GULP energy per Si atom -12406.667551 kJ/mol
# Density = 2.049104 g / cm^3
# Si number density = 20.537783 Si / 1000 Ang^3
#
#
#
# Elastic Constant Matrix: (Units=GPa)
#
#
# Indices 1 2 3 4 5 6 
#
# 1 118.0264 17.5436 17.5435 0.0000 0.0000 0.0000
# 2 17.5436 76.2717 14.7136 0.0000 0.0000 0.0000
# 3 17.5435 14.7136 76.2717 0.0000 0.0000 0.0000
# 4 0.0000 0.0000 0.0000 42.6173 0.0000 0.0000
# 5 0.0000 0.0000 0.0000 0.0000 65.3766 0.0000
# 6 0.0000 0.0000 0.0000 0.0000 0.0000 65.3770
#
#
#
# Elastic Compliance Matrix: (Units=1/GPa)
#
#
# Indices 1 2 3 4 5 6 
#
# 1 0.008988 -0.001733 -0.001733 0.000000 0.000000 0.000000
# 2 -0.001733 0.013952 -0.002293 0.000000 0.000000 0.000000
# 3 -0.001733 -0.002293 0.013952 0.000000 0.000000 0.000000
# 4 0.000000 0.000000 0.000000 0.023465 0.000000 0.000000
# 5 0.000000 0.000000 0.000000 0.000000 0.015296 0.000000
# 6 0.000000 0.000000 0.000000 0.000000 0.000000 0.015296
#
#
# Mechanical properties :
#
#
# Convention : Reuss Voigt Hill
#
# Bulk Modulus (GPa) = 39.41040 41.13011 40.27026
# Shear Modulus (GPa) = 45.07586 49.39212 47.23399
#
# Velocity S-wave (km/s) = 4.68993 4.90934 4.80089
# Velocity P-wave (km/s) = 6.96836 7.22534 7.09801
#
# Compressibility (1/GPa) = 0.02537401
#
# Stress axis : x y z
#
# Youngs Moduli (GPa) = 111.26102 71.67449 71.67450
#
# Poissons Ratio (x) = 0.12421 0.12421
# Poissons Ratio (y) = 0.19282 0.16434
# Poissons Ratio (z) = 0.19282 0.16434
#
# Static dielectric constant tensor:
#      x y z
#    x -0.072620 0.000000 0.000000 
#    y 0.000000 3.596380 0.000000 
#    z 0.000000 0.000000 3.596380 
# 
# 
# High freq. dielectric constant tensor:
#      x y z
#    x 1.824550 0.000000 0.000000 
#    y 0.000000 1.811010 0.000000 
#    z 0.000000 0.000000 1.811010 
# 
# From -- ./inp_files/16980.got.cif
#   From: 2010.03.12/outbox.cif.g09.slc.cpg/sg73_9_cif.got.tgz:16980.got - 2010.04.16 15:25:48.
