data_PCOD8297344
_publ_section_title
;
Structure prediction by ZEFSAII (Michael W. Deem and Ramdas Pophale) SiO2 
 PCOD8297344
Probable space group: I M M A
;
_chemical_formula_sum "Si O2"
_cell_formula_units_Z 96
_cell_length_a 14.789069
_cell_length_b 16.463625
_cell_length_c 23.569260
_cell_angle_alpha 90.000000
_cell_angle_beta 90.000000
_cell_angle_gamma 90.000000
_cell_volume 5738.683165
_symmetry_space_group_name_H-M "I M M A"
_symmetry_group_IT_number 74
_symmetry_cell_setting 'orthorhombic'
loop_
_space_group_symop_operation_xyz
x,y,z
-x,1/2-y,z
x,-y,-z
-x,1/2+y,-z
-x,-y,-z
x,1/2+y,-z
-x,y,z
x,1/2-y,z
1/2+x,1/2+y,1/2+z
1/2-x,-y,1/2+z
1/2+x,1/2-y,1/2-z
1/2-x,y,1/2-z
1/2-x,1/2-y,1/2-z
1/2+x,y,1/2-z
1/2-x,1/2+y,1/2+z
1/2+x,-y,1/2+z
loop_
_atom_site_type_symbol
_atom_site_label
_atom_site_fract_x
_atom_site_fract_y
_atom_site_fract_z
Si Si1 0.601502 0.158520 0.496046
Si Si2 0.149321 0.841205 0.398775
Si Si3 0.895257 0.654266 0.524121
Si Si4 0.838050 0.595637 0.112163
Si Si5 0.500000 0.153425 0.816419
Si Si6 0.760330 0.051625 0.057148
Si Si7 0.000000 0.151764 0.812689
O O1 0.500000 0.154980 0.472985
O O2 0.633479 0.250000 0.508379
O O3 0.607360 0.108973 0.554330
O O4 0.663753 0.120872 0.447685
O O5 0.114439 0.750000 0.403888
O O6 0.131978 0.878975 0.461124
O O7 0.254287 0.842753 0.381249
O O8 0.087777 0.881810 0.349755
O O9 0.872970 0.750000 0.531235
O O10 0.834968 0.599267 0.567137
O O11 0.000000 0.636898 0.536503
O O12 0.789988 0.506082 0.109905
O O13 0.909197 0.610730 0.162253
O O14 0.500000 0.250000 0.812854
O O15 0.500000 0.122688 0.752093
O O16 0.755484 0.000000 0.000000
O O17 0.000000 0.250000 0.822552
#
# Coordination Sequence:
#
# PCOD8297344 Si02
#       7
#    16  16  16  16   8  16   8
#     4  10  18  28  44  63  89 128 166 196 232 281
#     4  10  17  30  48  68  93 124 165 203 242 281
#     4  10  18  30  49  69  96 134 166 194 232 286
#     4  11  21  30  45  67  94 130 162 199 243 287
#     4   9  20  34  50  70  88 119 171 223 244 267
#     4  10  20  29  41  69  96 126 164 199 231 290
#     4  11  22  36  51  67  91 129 178 214 244 279
#
# _framework density 16.728577000000001
#
# number of rings (size 3 to 8) (size 9 to 14) (size 15 to 20)
#    0.000    1.833    5.000    2.000    1.167    2.000 
#    1.500    2.500    0.000    0.000    0.000    0.000 
#    0.000    0.000    0.000   18.000    0.000    0.000 
#
# Total GULP energy -594806.121826 kJ/mol
# GULP energy per Si atom -12391.794205 kJ/mol
# Density = 1.669050 g / cm^3
# Si number density = 16.728577 Si / 1000 Ang^3
#
#
#
# Elastic Constant Matrix: (Units=GPa)
#
#
# Indices 1 2 3 4 5 6 
#
# 1 124.0327 43.9614 28.8928 0.0000 0.0000 0.0000
# 2 43.9614 68.1765 27.8227 0.0000 0.0000 0.0000
# 3 28.8928 27.8227 48.5002 0.0000 0.0000 0.0000
# 4 0.0000 0.0000 0.0000 14.6055 0.0000 0.0000
# 5 0.0000 0.0000 0.0000 0.0000 17.6559 0.0000
# 6 0.0000 0.0000 0.0000 0.0000 0.0000 29.4236
#
#
#
# Elastic Compliance Matrix: (Units=1/GPa)
#
#
# Indices 1 2 3 4 5 6 
#
# 1 0.010816 -0.005673 -0.003189 0.000000 0.000000 0.000000
# 2 -0.005673 0.022127 -0.009314 0.000000 0.000000 0.000000
# 3 -0.003189 -0.009314 0.027861 0.000000 0.000000 0.000000
# 4 0.000000 0.000000 0.000000 0.068467 0.000000 0.000000
# 5 0.000000 0.000000 0.000000 0.000000 0.056638 0.000000
# 6 0.000000 0.000000 0.000000 0.000000 0.000000 0.033986
#
#
# Mechanical properties :
#
#
# Convention : Reuss Voigt Hill
#
# Bulk Modulus (GPa) = 40.89556 49.11814 45.00685
# Shear Modulus (GPa) = 18.91088 21.67249 20.29168
#
# Velocity S-wave (km/s) = 3.36587 3.60326 3.48659
# Velocity P-wave (km/s) = 6.29325 6.83644 6.57046
#
# Compressibility (1/GPa) = 0.02445253
#
# Stress axis : x y z
#
# Youngs Moduli (GPa) = 92.45642 45.19432 35.89221
#
# Poissons Ratio (x) = 0.25638 0.11446
# Poissons Ratio (y) = 0.52449 0.33429
# Poissons Ratio (z) = 0.29485 0.42093
#
# Static dielectric constant tensor:
#      x y z
#    x 3.332940 0.000000 0.000000 
#    y 0.000000 3.288800 0.000000 
#    z 0.000000 0.000000 2.800620 
# 
# 
# High freq. dielectric constant tensor:
#      x y z
#    x 1.670680 0.000000 0.000000 
#    y 0.000000 1.630480 0.000000 
#    z 0.000000 0.000000 1.574910 
# 
# From -- ./inp_files/60025.got.cif
#   From: 2010.03.12/outbox.cif.g09.slc.cpg/sg74_31_cif.got.tgz:60025.got - 2010.04.16 15:46:19.
