data_PCOD8297252
_publ_section_title
;
Structure prediction by ZEFSAII (Michael W. Deem and Ramdas Pophale) SiO2 
 PCOD8297252
Probable space group: I M M A
;
_chemical_formula_sum "Si O2"
_cell_formula_units_Z 88
_cell_length_a 23.649511
_cell_length_b 13.281460
_cell_length_c 17.099328
_cell_angle_alpha 90.000000
_cell_angle_beta 90.000000
_cell_angle_gamma 90.000000
_cell_volume 5370.899512
_symmetry_space_group_name_H-M "I M M A"
_symmetry_group_IT_number 74
_symmetry_cell_setting 'orthorhombic'
loop_
_space_group_symop_operation_xyz
x,y,z
-x,1/2-y,z
x,-y,-z
-x,1/2+y,-z
-x,-y,-z
x,1/2+y,-z
-x,y,z
x,1/2-y,z
1/2+x,1/2+y,1/2+z
1/2-x,-y,1/2+z
1/2+x,1/2-y,1/2-z
1/2-x,y,1/2-z
1/2-x,1/2-y,1/2-z
1/2+x,y,1/2-z
1/2-x,1/2+y,1/2+z
1/2+x,-y,1/2+z
loop_
_atom_site_type_symbol
_atom_site_label
_atom_site_fract_x
_atom_site_fract_y
_atom_site_fract_z
Si Si1 0.224345 0.369009 0.635214
Si Si2 0.937191 0.114941 0.019688
Si Si3 0.328564 0.863829 0.614771
Si Si4 0.829746 0.046787 0.784191
Si Si5 0.256394 0.500000 0.500000
Si Si6 0.437014 0.641690 0.347630
O O1 0.209886 0.250000 0.627909
O O2 0.182296 0.427532 0.694173
O O3 0.289055 0.381434 0.663994
O O4 0.216908 0.428682 0.553780
O O5 0.920063 0.164896 0.937417
O O6 0.000000 0.149258 0.046698
O O7 0.893917 0.144158 0.088177
O O8 0.935292 0.000000 0.000000
O O9 0.305430 0.750000 0.628146
O O10 0.294940 0.922230 0.547570
O O11 0.320477 0.928422 0.694984
O O12 0.894625 0.067611 0.804167
O O13 0.500000 0.593279 0.343373
O O14 0.435707 0.750000 0.304506
#
# Coordination Sequence:
#
# PCOD8297252 Si02
#       6
#    16  16  16  16   8  16
#     4  10  19  33  53  70  90 120 152 186 228 274
#     4  10  17  27  40  59  89 127 164 192 214 249
#     4  11  20  30  44  64  92 125 156 190 230 269
#     4  10  19  32  46  68  93 123 155 189 222 272
#     4  10  20  34  47  70  87 112 148 198 232 280
#     4  10  18  27  43  66  92 122 154 191 229 262
#
# _framework density 16.384592999999999
#
# number of rings (size 3 to 8) (size 9 to 14) (size 15 to 20)
#    0.000    1.818    2.727    4.364    0.000    1.091 
#    0.000    8.182    0.000    0.000    0.000    0.636 
#    0.000    0.000    0.000    0.000    0.000    0.000 
#
# Total GULP energy -545140.438710 kJ/mol
# GULP energy per Si atom -12389.555425 kJ/mol
# Density = 1.634730 g / cm^3
# Si number density = 16.384593 Si / 1000 Ang^3
#
#
#
# Elastic Constant Matrix: (Units=GPa)
#
#
# Indices 1 2 3 4 5 6 
#
# 1 59.0502 25.9130 32.1274 0.0000 0.0000 0.0000
# 2 25.9130 148.9133 51.1590 0.0000 0.0000 0.0000
# 3 32.1274 51.1590 83.3909 0.0000 0.0000 0.0000
# 4 0.0000 0.0000 0.0000 16.2205 0.0000 0.0000
# 5 0.0000 0.0000 0.0000 0.0000 17.8518 0.0000
# 6 0.0000 0.0000 0.0000 0.0000 0.0000 -5.0994
#
#
#
# Elastic Compliance Matrix: (Units=1/GPa)
#
#
# Indices 1 2 3 4 5 6 
#
# 1 0.021577 -0.001139 -0.007614 0.000000 0.000000 0.000000
# 2 -0.001139 0.008569 -0.004818 0.000000 0.000000 0.000000
# 3 -0.007614 -0.004818 0.017881 0.000000 0.000000 0.000000
# 4 0.000000 0.000000 0.000000 0.061650 0.000000 0.000000
# 5 0.000000 0.000000 0.000000 0.000000 0.056017 0.000000
# 6 0.000000 0.000000 0.000000 0.000000 0.000000 -0.196103
#
#
# Mechanical properties :
#
#
# Convention : Reuss Voigt Hill
#
# Bulk Modulus (GPa) = 47.88200 56.63923 52.26061
# Shear Modulus (GPa) = 1353.21869 17.93827 685.57848
#
# Velocity S-wave (km/s) = 28.76981 3.31240 20.47772
# Velocity P-wave (km/s) = 33.65843 7.01947 24.31217
#
# Compressibility (1/GPa) = 0.02088468
#
# Stress axis : x y z
#
# Youngs Moduli (GPa) = 46.34534 116.70358 55.92541
#
# Poissons Ratio (x) = 0.13291 0.42583
# Poissons Ratio (y) = 0.05278 0.26945
# Poissons Ratio (z) = 0.35288 0.56228
#
# Static dielectric constant tensor:
#      x y z
#    x 3.008940 0.000000 0.000000 
#    y 0.000000 3.369290 0.000000 
#    z 0.000000 0.000000 3.699770 
# 
# 
# High freq. dielectric constant tensor:
#      x y z
#    x 1.604210 0.000000 0.000000 
#    y 0.000000 1.651160 0.000000 
#    z 0.000000 0.000000 1.587380 
# 
# From -- ./inp_files/46079.got.cif
#   From: 2010.03.12/outbox.cif.g09.slc.cpg/sg74_24_cif.got.tgz:46079.got - 2010.04.16 15:46:19.
