data_PCOD8297800
_publ_section_title
;
Structure prediction by ZEFSAII (Michael W. Deem and Ramdas Pophale) SiO2 
 PCOD8297800
Probable space group: I M M A
;
_chemical_formula_sum "Si O2"
_cell_formula_units_Z 72
_cell_length_a 14.581108
_cell_length_b 9.513883
_cell_length_c 29.838622
_cell_angle_alpha 90.000000
_cell_angle_beta 90.000000
_cell_angle_gamma 90.000000
_cell_volume 4139.301833
_symmetry_space_group_name_H-M "I M M A"
_symmetry_group_IT_number 74
_symmetry_cell_setting 'orthorhombic'
loop_
_space_group_symop_operation_xyz
x,y,z
-x,1/2-y,z
x,-y,-z
-x,1/2+y,-z
-x,-y,-z
x,1/2+y,-z
-x,y,z
x,1/2-y,z
1/2+x,1/2+y,1/2+z
1/2-x,-y,1/2+z
1/2+x,1/2-y,1/2-z
1/2-x,y,1/2-z
1/2-x,1/2-y,1/2-z
1/2+x,y,1/2-z
1/2-x,1/2+y,1/2+z
1/2+x,-y,1/2+z
loop_
_atom_site_type_symbol
_atom_site_label
_atom_site_fract_x
_atom_site_fract_y
_atom_site_fract_z
Si Si1 0.500000 0.408699 0.560928
Si Si2 0.000000 0.085846 0.742206
Si Si3 0.297337 0.403642 0.360429
Si Si4 0.500000 0.504181 0.655666
Si Si5 0.690472 0.915372 0.207563
Si Si6 0.677054 0.086028 0.460717
O O1 0.500000 0.250000 0.541370
O O2 0.500000 0.391775 0.615240
O O3 0.415933 0.498196 0.543052
O O4 0.089309 0.022023 0.717622
O O5 0.000000 0.250000 0.734241
O O6 0.000000 0.064224 0.795459
O O7 0.264137 0.250000 0.344804
O O8 0.406469 0.407222 0.350231
O O9 0.236632 0.519139 0.335918
O O10 0.273244 0.423987 0.412824
O O11 0.688505 0.750000 0.199580
O O12 0.750000 0.957538 0.250000
O O13 0.661321 0.250000 0.473639
O O14 0.732546 0.000000 0.500000
#
# Coordination Sequence:
#
# PCOD8297800 Si02
#       6
#     8   8  16   8  16  16
#     4  10  19  28  45  69  97 134 173 209 248 295
#     4  10  19  33  50  73 103 133 171 211 247 287
#     4  10  21  35  50  73 104 134 168 212 256 300
#     4  10  18  31  48  72 101 139 175 210 246 294
#     4  10  20  34  53  75 101 135 171 210 248 294
#     4  10  20  33  48  67  96 130 167 210 255 303
#
# _framework density 17.394238999999999
#
# number of rings (size 3 to 8) (size 9 to 14) (size 15 to 20)
#    0.000    2.000    2.222    2.000    0.000    7.556 
#    0.000    0.556    0.000    0.000    0.000    0.778 
#    0.000    0.000    0.000    0.000    0.000    0.000 
#
# Total GULP energy -446000.749205 kJ/mol
# GULP energy per Si atom -12388.909700 kJ/mol
# Density = 1.735465 g / cm^3
# Si number density = 17.394239 Si / 1000 Ang^3
#
#
#
# Elastic Constant Matrix: (Units=GPa)
#
#
# Indices 1 2 3 4 5 6 
#
# 1 84.9317 29.6836 45.7701 0.0000 0.0000 0.0000
# 2 29.6836 82.6873 41.5759 0.0000 0.0000 0.0000
# 3 45.7701 41.5759 107.0457 0.0000 0.0000 0.0000
# 4 0.0000 0.0000 0.0000 29.5780 0.0000 0.0000
# 5 0.0000 0.0000 0.0000 0.0000 18.8199 0.0000
# 6 0.0000 0.0000 0.0000 0.0000 0.0000 -1.7982
#
#
#
# Elastic Compliance Matrix: (Units=1/GPa)
#
#
# Indices 1 2 3 4 5 6 
#
# 1 0.015815 -0.002830 -0.005663 0.000000 0.000000 0.000000
# 2 -0.002830 0.015535 -0.004824 0.000000 0.000000 0.000000
# 3 -0.005663 -0.004824 0.013637 0.000000 0.000000 0.000000
# 4 0.000000 0.000000 0.000000 0.033809 0.000000 0.000000
# 5 0.000000 0.000000 0.000000 0.000000 0.053135 0.000000
# 6 0.000000 0.000000 0.000000 0.000000 0.000000 -0.556123
#
#
# Mechanical properties :
#
#
# Convention : Reuss Voigt Hill
#
# Bulk Modulus (GPa) = 54.48566 56.52487 55.50526
# Shear Modulus (GPa) = -12.77333 19.82896 3.52782
#
# Velocity S-wave (km/s) = -2.71282 3.38001 1.42568
# Velocity P-wave (km/s) = 4.64537 6.91372 5.88978
#
# Compressibility (1/GPa) = 0.01835345
#
# Stress axis : x y z
#
# Youngs Moduli (GPa) = 63.23093 64.37052 73.33188
#
# Poissons Ratio (x) = 0.18217 0.41528
# Poissons Ratio (y) = 0.17894 0.35373
# Poissons Ratio (z) = 0.35807 0.31050
#
# Static dielectric constant tensor:
#      x y z
#    x 3.118340 0.000000 0.000000 
#    y 0.000000 3.224000 0.000000 
#    z 0.000000 0.000000 3.557600 
# 
# 
# High freq. dielectric constant tensor:
#      x y z
#    x 1.626090 0.000000 0.000000 
#    y 0.000000 1.672650 0.000000 
#    z 0.000000 0.000000 1.685080 
# 
# From -- ./inp_files/66804.got.cif
#   From: 2010.03.12/outbox.cif.g09.slc.cpg/sg74_34_cif.got.tgz:66804.got - 2010.04.16 15:46:19.
