data_PCOD8297031
_publ_section_title
;
Structure prediction by ZEFSAII (Michael W. Deem and Ramdas Pophale) SiO2 
 PCOD8297031
Probable space group: I B C A 
;
_chemical_formula_sum "Si O2"
_cell_formula_units_Z 112
_cell_length_a 11.134761
_cell_length_b 21.844262
_cell_length_c 21.653859
_cell_angle_alpha 90.000000
_cell_angle_beta 90.000000
_cell_angle_gamma 90.000000
_cell_volume 5266.881909
_symmetry_space_group_name_H-M "I B C A "
_symmetry_group_IT_number 73
_symmetry_cell_setting 'orthorhombic'
loop_
_space_group_symop_operation_xyz
x,y,z
-x,1/2-y,z
x,-y,1/2-z
1/2-x,y,-z
-x,-y,-z
x,1/2+y,-z
-x,y,1/2+z
1/2+x,-y,z
1/2+x,1/2+y,1/2+z
1/2-x,-y,1/2+z
1/2+x,1/2-y,-z
-x,1/2+y,1/2-z
1/2-x,1/2-y,1/2-z
1/2+x,y,1/2-z
1/2-x,1/2+y,z
x,1/2-y,1/2+z
loop_
_atom_site_type_symbol
_atom_site_label
_atom_site_fract_x
_atom_site_fract_y
_atom_site_fract_z
Si Si1 0.211584 0.500000 0.750000
Si Si2 0.250000 0.132091 0.500000
Si Si3 0.103467 0.174554 0.848182
Si Si4 0.448119 0.065896 0.847419
Si Si5 0.900379 0.023486 0.047368
Si Si6 0.329424 0.193367 0.624449
Si Si7 0.844951 0.876382 0.282864
Si Si8 0.259139 0.407221 0.566625
O O1 0.128708 0.480424 0.693320
O O2 0.292956 0.443940 0.771914
O O3 0.143946 0.090510 0.527590
O O4 0.307822 0.173870 0.553643
O O5 0.177793 0.233253 0.872243
O O6 0.151866 0.161669 0.779862
O O7 0.131988 0.119446 0.894267
O O8 0.960533 0.177971 0.849198
O O9 0.544459 0.025943 0.884402
O O10 0.518022 0.116272 0.806569
O O11 0.364563 0.101353 0.896439
O O12 0.786693 0.978694 0.053419
O O13 0.000000 0.000000 0.000000
O O14 0.232206 0.160946 0.667704
O O15 0.250000 0.373736 0.500000
#
# Coordination Sequence:
#
# PCOD8297031 Si02
#       8
#     8   8  16  16  16  16  16  16
#     4  12  26  42  68 106 140 174 230 294 360 422
#     4  12  24  46  70 108 140 186 238 292 360 434
#     4  11  27  48  71 100 137 192 240 298 357 415
#     4  12  25  41  65 107 141 185 227 291 360 430
#     4  12  23  41  68 103 143 187 228 285 367 431
#     4  11  27  48  74  97 140 191 243 298 352 425
#     4  12  25  46  71 101 142 186 238 293 359 434
#     4  12  25  43  68 102 140 181 231 294 354 426
#
# _framework density 21.264955
#
# number of rings (size 3 to 8) (size 9 to 14) (size 15 to 20)
#    0.000    0.286    5.000    3.429    7.000    0.000 
#    0.000    0.000    0.000    0.000    0.000    0.000 
#    0.000    0.000    0.000    0.000    0.000    0.000 
#
# Total GULP energy -694593.075133 kJ/mol
# GULP energy per Si atom -12403.447770 kJ/mol
# Density = 2.121655 g / cm^3
# Si number density = 21.264955 Si / 1000 Ang^3
#
#
#
# Elastic Constant Matrix: (Units=GPa)
#
#
# Indices 1 2 3 4 5 6 
#
# 1 101.6955 43.7266 49.9245 0.0000 0.0000 0.0000
# 2 43.7266 106.9526 53.3337 0.0000 0.0000 0.0000
# 3 49.9245 53.3337 158.7913 0.0000 0.0000 0.0000
# 4 0.0000 0.0000 0.0000 33.8983 0.0000 0.0000
# 5 0.0000 0.0000 0.0000 0.0000 48.4422 0.0000
# 6 0.0000 0.0000 0.0000 0.0000 0.0000 7.1949
#
#
#
# Elastic Compliance Matrix: (Units=1/GPa)
#
#
# Indices 1 2 3 4 5 6 
#
# 1 0.012847 -0.003890 -0.002733 0.000000 0.000000 0.000000
# 2 -0.003890 0.012409 -0.002945 0.000000 0.000000 0.000000
# 3 -0.002733 -0.002945 0.008146 0.000000 0.000000 0.000000
# 4 0.000000 0.000000 0.000000 0.029500 0.000000 0.000000
# 5 0.000000 0.000000 0.000000 0.000000 0.020643 0.000000
# 6 0.000000 0.000000 0.000000 0.000000 0.000000 0.138987
#
#
# Mechanical properties :
#
#
# Convention : Reuss Voigt Hill
#
# Bulk Modulus (GPa) = 70.09077 73.48989 71.79033
# Shear Modulus (GPa) = 20.29038 32.60407 26.44723
#
# Velocity S-wave (km/s) = 3.09232 3.91990 3.53044
# Velocity P-wave (km/s) = 6.76625 7.42439 7.10295
#
# Compressibility (1/GPa) = 0.01426721
#
# Stress axis : x y z
#
# Youngs Moduli (GPa) = 77.83694 80.58859 122.76201
#
# Poissons Ratio (x) = 0.31347 0.33548
# Poissons Ratio (y) = 0.30277 0.36151
# Poissons Ratio (z) = 0.21271 0.23732
#
# Static dielectric constant tensor:
#      x y z
#    x 3.933690 0.000000 0.000000 
#    y 0.000000 3.852060 0.000000 
#    z 0.000000 0.000000 4.214770 
# 
# 
# High freq. dielectric constant tensor:
#      x y z
#    x 1.845460 0.000000 0.000000 
#    y 0.000000 1.817700 0.000000 
#    z 0.000000 0.000000 1.861260 
# 
# From -- ./inp_files/25604.got.cif
#   From: 2010.03.12/outbox.cif.g09.slc.cpg/sg73_13_cif.got.tgz:25604.got - 2010.04.16 15:25:48.
