data_PCOD8297390
_publ_section_title
;
Structure prediction by ZEFSAII (Michael W. Deem and Ramdas Pophale) SiO2 
 PCOD8297390
Probable space group: I M M A
;
_chemical_formula_sum "Si O2"
_cell_formula_units_Z 128
_cell_length_a 28.507555
_cell_length_b 23.289874
_cell_length_c 12.831278
_cell_angle_alpha 90.000000
_cell_angle_beta 90.000000
_cell_angle_gamma 90.000000
_cell_volume 8519.164892
_symmetry_space_group_name_H-M "I M M A"
_symmetry_group_IT_number 74
_symmetry_cell_setting 'orthorhombic'
loop_
_space_group_symop_operation_xyz
x,y,z
-x,1/2-y,z
x,-y,-z
-x,1/2+y,-z
-x,-y,-z
x,1/2+y,-z
-x,y,z
x,1/2-y,z
1/2+x,1/2+y,1/2+z
1/2-x,-y,1/2+z
1/2+x,1/2-y,1/2-z
1/2-x,y,1/2-z
1/2-x,1/2-y,1/2-z
1/2+x,y,1/2-z
1/2-x,1/2+y,1/2+z
1/2+x,-y,1/2+z
loop_
_atom_site_type_symbol
_atom_site_label
_atom_site_fract_x
_atom_site_fract_y
_atom_site_fract_z
Si Si1 0.306604 0.318058 0.365416
Si Si2 0.948296 0.182986 0.264410
Si Si3 0.891542 0.818531 0.539706
Si Si4 0.551662 0.985211 0.619809
Si Si5 0.703292 0.182531 0.126435
Si Si6 0.899117 0.127181 0.080139
Si Si7 0.555180 0.889682 0.359961
Si Si8 0.445718 0.182955 0.837720
O O1 0.314635 0.250000 0.386382
O O2 0.311540 0.333090 0.243706
O O3 0.255173 0.340086 0.403730
O O4 0.344076 0.357574 0.426039
O O5 0.952296 0.250000 0.283572
O O6 0.919520 0.155897 0.361059
O O7 0.923386 0.174109 0.153627
O O8 0.000000 0.154930 0.262911
O O9 0.893497 0.750000 0.542269
O O10 0.837313 0.840104 0.548146
O O11 0.914765 0.841192 0.433325
O O12 0.500000 0.965722 0.661907
O O13 0.590055 0.934924 0.633652
O O14 0.546087 0.000000 0.500000
O O15 0.568253 0.044795 0.673732
O O16 0.707334 0.250000 0.119981
O O17 0.918575 0.131018 0.963570
O O18 0.500000 0.884696 0.382801
O O19 0.571184 0.848990 0.266120
O O20 0.500000 0.170058 0.863082
O O21 0.437158 0.250000 0.819524
#
# Coordination Sequence:
#
# PCOD8297390 Si02
#       8
#    16  16  16  16  16  16  16  16
#     4   9  16  25  39  63  91 112 135 170 216 263
#     4  10  18  24  34  60  94 116 129 160 215 264
#     4   9  15  26  42  59  83 116 149 173 198 241
#     4   8  15  28  43  58  79 111 148 177 202 243
#     4   8  14  26  41  58  85 116 142 171 206 248
#     4  11  17  25  42  64  85 109 135 174 219 265
#     4   9  18  31  44  60  85 115 145 176 207 245
#     4   9  17  28  43  63  86 117 153 178 197 237
#
# _framework density 15.024946
#
# number of rings (size 3 to 8) (size 9 to 14) (size 15 to 20)
#    0.000    2.875    1.250    3.375    0.000    2.500 
#    0.000    1.250    0.000    1.500    0.000   17.500 
#    0.000    0.000    0.000    0.000    0.000    0.000 
#
# Total GULP energy -793017.848888 kJ/mol
# GULP energy per Si atom -12390.903889 kJ/mol
# Density = 1.499075 g / cm^3
# Si number density = 15.024946 Si / 1000 Ang^3
#
#
#
# Elastic Constant Matrix: (Units=GPa)
#
#
# Indices 1 2 3 4 5 6 
#
# 1 115.5262 33.1402 56.7689 0.0000 0.0000 0.0000
# 2 33.1402 41.0037 28.1205 0.0000 0.0000 0.0000
# 3 56.7689 28.1205 86.4342 0.0000 0.0000 0.0000
# 4 0.0000 0.0000 0.0000 4.5699 0.0000 0.0000
# 5 0.0000 0.0000 0.0000 0.0000 19.5115 0.0000
# 6 0.0000 0.0000 0.0000 0.0000 0.0000 12.3705
#
#
#
# Elastic Compliance Matrix: (Units=1/GPa)
#
#
# Indices 1 2 3 4 5 6 
#
# 1 0.013989 -0.006443 -0.007092 0.000000 0.000000 0.000000
# 2 -0.006443 0.034360 -0.006947 0.000000 0.000000 0.000000
# 3 -0.007092 -0.006947 0.018487 0.000000 0.000000 0.000000
# 4 0.000000 0.000000 0.000000 0.218822 0.000000 0.000000
# 5 0.000000 0.000000 0.000000 0.000000 0.051252 0.000000
# 6 0.000000 0.000000 0.000000 0.000000 0.000000 0.080837
#
#
# Mechanical properties :
#
#
# Convention : Reuss Voigt Hill
#
# Bulk Modulus (GPa) = 38.65038 53.22481 45.93759
# Shear Modulus (GPa) = 10.69897 15.61936 13.15917
#
# Velocity S-wave (km/s) = 2.67138 3.22772 2.96264
# Velocity P-wave (km/s) = 5.94096 7.02795 6.50719
#
# Compressibility (1/GPa) = 0.02587297
#
# Stress axis : x y z
#
# Youngs Moduli (GPa) = 71.48433 29.10402 54.09096
#
# Poissons Ratio (x) = 0.18751 0.38360
# Poissons Ratio (y) = 0.46056 0.37577
# Poissons Ratio (z) = 0.50695 0.20218
#
# Static dielectric constant tensor:
#      x y z
#    x 3.197560 0.000000 0.000000 
#    y 0.000000 2.891770 0.000000 
#    z 0.000000 0.000000 2.808080 
# 
# 
# High freq. dielectric constant tensor:
#      x y z
#    x 1.573430 0.000000 0.000000 
#    y 0.000000 1.539690 0.000000 
#    z 0.000000 0.000000 1.554890 
# 
# From -- ./inp_files/26618.got.cif
#   From: 2010.03.12/outbox.cif.g09.slc.cpg/sg74_14_cif.got.tgz:26618.got - 2010.04.16 15:46:19.
