data_PCOD8297034
_publ_section_title
;
Structure prediction by ZEFSAII (Michael W. Deem and Ramdas Pophale) SiO2 
 PCOD8297034
Probable space group: I B C A 
;
_chemical_formula_sum "Si O2"
_cell_formula_units_Z 104
_cell_length_a 8.470126
_cell_length_b 21.977906
_cell_length_c 25.381812
_cell_angle_alpha 90.000000
_cell_angle_beta 90.000000
_cell_angle_gamma 90.000000
_cell_volume 4724.967280
_symmetry_space_group_name_H-M "I B C A "
_symmetry_group_IT_number 73
_symmetry_cell_setting 'orthorhombic'
loop_
_space_group_symop_operation_xyz
x,y,z
-x,1/2-y,z
x,-y,1/2-z
1/2-x,y,-z
-x,-y,-z
x,1/2+y,-z
-x,y,1/2+z
1/2+x,-y,z
1/2+x,1/2+y,1/2+z
1/2-x,-y,1/2+z
1/2+x,1/2-y,-z
-x,1/2+y,1/2-z
1/2-x,1/2-y,1/2-z
1/2+x,y,1/2-z
1/2-x,1/2+y,z
x,1/2-y,1/2+z
loop_
_atom_site_type_symbol
_atom_site_label
_atom_site_fract_x
_atom_site_fract_y
_atom_site_fract_z
Si Si1 0.158184 0.428229 0.588468
Si Si2 0.500000 0.250000 0.030799
Si Si3 0.726238 0.173577 0.103077
Si Si4 0.035023 0.180185 0.292245
Si Si5 0.750000 0.159815 0.500000
Si Si6 0.313922 0.348878 0.313583
Si Si7 0.000000 0.250000 0.631634
Si Si8 0.192395 0.047341 0.558795
O O1 0.255963 0.380016 0.553068
O O2 0.128931 0.401895 0.646907
O O3 0.261759 0.489173 0.594079
O O4 0.994790 0.443698 0.559679
O O5 0.624414 0.217020 0.067294
O O6 0.406922 0.201331 0.995322
O O7 0.665614 0.174875 0.162645
O O8 0.717370 0.105678 0.081337
O O9 0.906605 0.198425 0.098602
O O10 0.103980 0.142492 0.242931
O O11 0.000000 0.250000 0.276737
O O12 0.874656 0.147809 0.310264
O O13 0.364488 0.282520 0.334267
O O14 0.250000 0.034452 0.500000
#
# Coordination Sequence:
#
# PCOD8297034 Si02
#       8
#    16   8  16  16   8  16   8  16
#     4  12  28  50  74 102 144 194 254 303 355 439
#     4  12  28  42  70 110 152 190 231 305 376 444
#     4  12  25  44  72 104 147 190 237 302 370 445
#     4  12  23  43  70 108 146 187 235 292 374 451
#     4  12  28  48  72 108 152 190 240 304 374 442
#     4  12  25  42  73 104 144 187 240 298 365 444
#     4  12  20  42  68 108 140 182 231 297 374 434
#     4  12  28  48  76 102 141 197 250 301 360 433
#
# _framework density 22.010735
#
# number of rings (size 3 to 8) (size 9 to 14) (size 15 to 20)
#    0.000    0.000    5.385    4.615    7.538    0.615 
#    0.000    0.769    0.000    0.000    0.000    0.000 
#    0.000    0.000    0.000    0.000    0.000    0.000 
#
# Total GULP energy -645175.998849 kJ/mol
# GULP energy per Si atom -12407.230747 kJ/mol
# Density = 2.196064 g / cm^3
# Si number density = 22.010735 Si / 1000 Ang^3
#
#
#
# Elastic Constant Matrix: (Units=GPa)
#
#
# Indices 1 2 3 4 5 6 
#
# 1 117.1410 34.2972 23.2618 0.0000 0.0000 0.0000
# 2 34.2972 118.9217 43.0530 0.0000 0.0000 0.0000
# 3 23.2618 43.0530 94.9866 0.0000 0.0000 0.0000
# 4 0.0000 0.0000 0.0000 28.0620 0.0000 0.0000
# 5 0.0000 0.0000 0.0000 0.0000 36.6141 0.0000
# 6 0.0000 0.0000 0.0000 0.0000 0.0000 31.8786
#
#
#
# Elastic Compliance Matrix: (Units=1/GPa)
#
#
# Indices 1 2 3 4 5 6 
#
# 1 0.009455 -0.002259 -0.001291 0.000000 0.000000 0.000000
# 2 -0.002259 0.010599 -0.004251 0.000000 0.000000 0.000000
# 3 -0.001291 -0.004251 0.012771 0.000000 0.000000 0.000000
# 4 0.000000 0.000000 0.000000 0.035635 0.000000 0.000000
# 5 0.000000 0.000000 0.000000 0.000000 0.027312 0.000000
# 6 0.000000 0.000000 0.000000 0.000000 0.000000 0.031369
#
#
# Mechanical properties :
#
#
# Convention : Reuss Voigt Hill
#
# Bulk Modulus (GPa) = 58.06614 59.14148 58.60381
# Shear Modulus (GPa) = 33.67349 34.67344 34.17347
#
# Velocity S-wave (km/s) = 3.91559 3.97331 3.94456
# Velocity P-wave (km/s) = 6.84694 6.92656 6.88687
#
# Compressibility (1/GPa) = 0.01722174
#
# Stress axis : x y z
#
# Youngs Moduli (GPa) = 105.76833 94.34479 78.30346
#
# Poissons Ratio (x) = 0.21314 0.10112
# Poissons Ratio (y) = 0.23895 0.33286
# Poissons Ratio (z) = 0.13659 0.40106
#
# Static dielectric constant tensor:
#      x y z
#    x 4.173480 0.000000 0.000000 
#    y 0.000000 3.761960 0.000000 
#    z 0.000000 0.000000 3.954970 
# 
# 
# High freq. dielectric constant tensor:
#      x y z
#    x 1.884530 0.000000 0.000000 
#    y 0.000000 1.856210 0.000000 
#    z 0.000000 0.000000 1.864060 
# 
# From -- ./inp_files/31289.got.cif
#   From: 2010.03.12/outbox.cif.g09.slc.cpg/sg73_16_cif.got.tgz:31289.got - 2010.04.16 15:25:48.
