data_PCOD8297585
_publ_section_title
;
Structure prediction by ZEFSAII (Michael W. Deem and Ramdas Pophale) SiO2 
 PCOD8297585
Probable space group: I M M A
;
_chemical_formula_sum "Si O2"
_cell_formula_units_Z 80
_cell_length_a 13.944737
_cell_length_b 14.882566
_cell_length_c 21.306243
_cell_angle_alpha 90.000000
_cell_angle_beta 90.000000
_cell_angle_gamma 90.000000
_cell_volume 4421.758516
_symmetry_space_group_name_H-M "I M M A"
_symmetry_group_IT_number 74
_symmetry_cell_setting 'orthorhombic'
loop_
_space_group_symop_operation_xyz
x,y,z
-x,1/2-y,z
x,-y,-z
-x,1/2+y,-z
-x,-y,-z
x,1/2+y,-z
-x,y,z
x,1/2-y,z
1/2+x,1/2+y,1/2+z
1/2-x,-y,1/2+z
1/2+x,1/2-y,1/2-z
1/2-x,y,1/2-z
1/2-x,1/2-y,1/2-z
1/2+x,y,1/2-z
1/2-x,1/2+y,1/2+z
1/2+x,-y,1/2+z
loop_
_atom_site_type_symbol
_atom_site_label
_atom_site_fract_x
_atom_site_fract_y
_atom_site_fract_z
Si Si1 0.113895 0.150810 0.346927
Si Si2 0.113209 0.469382 0.707102
Si Si3 0.891468 0.395687 0.486123
Si Si4 0.608769 0.146821 0.676739
Si Si5 0.292507 0.651265 0.107388
O O1 0.153096 0.250000 0.327360
O O2 0.148816 0.126359 0.417048
O O3 0.000000 0.151151 0.347012
O O4 0.149455 0.073447 0.298124
O O5 0.151942 0.418866 0.769071
O O6 0.143191 0.419846 0.643739
O O7 0.000000 0.465222 0.709776
O O8 0.890212 0.500000 0.500000
O O9 0.818247 0.349020 0.534120
O O10 0.000000 0.358021 0.494465
O O11 0.500000 0.120514 0.657556
O O12 0.611747 0.250000 0.700824
O O13 0.678538 0.131820 0.617182
O O14 0.315315 0.750000 0.134806
#
# Coordination Sequence:
#
# PCOD8297585 Si02
#       5
#    16  16  16  16  16
#     4   9  17  29  45  67  98 131 158 187 228 281
#     4  10  18  29  46  70 100 129 157 191 235 287
#     4  10  18  30  46  71 104 131 153 184 233 288
#     4   9  19  34  49  68  96 126 158 200 243 281
#     4  11  20  29  47  72  97 128 161 191 234 290
#
# _framework density 18.09235
#
# number of rings (size 3 to 8) (size 9 to 14) (size 15 to 20)
#    0.000    2.200    2.000    2.400    0.000    4.800 
#    0.000    0.000    0.000    3.000    0.000    0.000 
#    0.000    0.000    0.000    0.000    0.000    0.000 
#
# Total GULP energy -495702.614641 kJ/mol
# GULP energy per Si atom -12392.565366 kJ/mol
# Density = 1.805117 g / cm^3
# Si number density = 18.092350 Si / 1000 Ang^3
#
#
#
# Elastic Constant Matrix: (Units=GPa)
#
#
# Indices 1 2 3 4 5 6 
#
# 1 42.9689 25.0444 41.0631 0.0000 0.0000 0.0000
# 2 25.0444 112.7896 29.2859 0.0000 0.0000 0.0000
# 3 41.0631 29.2859 60.9138 0.0000 0.0000 0.0000
# 4 0.0000 0.0000 0.0000 24.0140 0.0000 0.0000
# 5 0.0000 0.0000 0.0000 0.0000 22.9788 0.0000
# 6 0.0000 0.0000 0.0000 0.0000 0.0000 12.5018
#
#
#
# Elastic Compliance Matrix: (Units=1/GPa)
#
#
# Indices 1 2 3 4 5 6 
#
# 1 0.066655 -0.003580 -0.043212 0.000000 0.000000 0.000000
# 2 -0.003580 0.010323 -0.002549 0.000000 0.000000 0.000000
# 3 -0.043212 -0.002549 0.046772 0.000000 0.000000 0.000000
# 4 0.000000 0.000000 0.000000 0.041642 0.000000 0.000000
# 5 0.000000 0.000000 0.000000 0.000000 0.043518 0.000000
# 6 0.000000 0.000000 0.000000 0.000000 0.000000 0.079988
#
#
# Mechanical properties :
#
#
# Convention : Reuss Voigt Hill
#
# Bulk Modulus (GPa) = 39.89359 45.27322 42.58341
# Shear Modulus (GPa) = 12.62824 19.98419 16.30622
#
# Velocity S-wave (km/s) = 2.64481 3.32711 3.00538
# Velocity P-wave (km/s) = 5.60576 6.31168 5.96916
#
# Compressibility (1/GPa) = 0.02506668
#
# Stress axis : x y z
#
# Youngs Moduli (GPa) = 15.00269 96.87064 21.38020
#
# Poissons Ratio (x) = 0.34683 0.92388
# Poissons Ratio (y) = 0.05372 0.05451
# Poissons Ratio (z) = 0.64829 0.24697
#
# Static dielectric constant tensor:
#      x y z
#    x 3.141970 0.000000 0.000000 
#    y 0.000000 3.828260 0.000000 
#    z 0.000000 0.000000 3.241560 
# 
# 
# High freq. dielectric constant tensor:
#      x y z
#    x 1.670860 0.000000 0.000000 
#    y 0.000000 1.714320 0.000000 
#    z 0.000000 0.000000 1.671630 
# 
# From -- ./inp_files/51640.got.cif
#   From: 2010.03.12/outbox.cif.g09.slc.cpg/sg74_26_cif.got.tgz:51640.got - 2010.04.16 15:46:19.
