data_PCOD8297491
_publ_section_title
;
Structure prediction by ZEFSAII (Michael W. Deem and Ramdas Pophale) SiO2 
 PCOD8297491
Probable space group: I M M A
;
_chemical_formula_sum "Si O2"
_cell_formula_units_Z 88
_cell_length_a 8.885241
_cell_length_b 30.442345
_cell_length_c 17.959712
_cell_angle_alpha 90.000000
_cell_angle_beta 90.000000
_cell_angle_gamma 90.000000
_cell_volume 4857.878891
_symmetry_space_group_name_H-M "I M M A"
_symmetry_group_IT_number 74
_symmetry_cell_setting 'orthorhombic'
loop_
_space_group_symop_operation_xyz
x,y,z
-x,1/2-y,z
x,-y,-z
-x,1/2+y,-z
-x,-y,-z
x,1/2+y,-z
-x,y,z
x,1/2-y,z
1/2+x,1/2+y,1/2+z
1/2-x,-y,1/2+z
1/2+x,1/2-y,1/2-z
1/2-x,y,1/2-z
1/2-x,1/2-y,1/2-z
1/2+x,y,1/2-z
1/2-x,1/2+y,1/2+z
1/2+x,-y,1/2+z
loop_
_atom_site_type_symbol
_atom_site_label
_atom_site_fract_x
_atom_site_fract_y
_atom_site_fract_z
Si Si1 0.327074 0.837245 0.895563
Si Si2 0.320589 0.371542 0.950092
Si Si3 0.677771 0.200088 0.829212
Si Si4 0.173720 0.573829 0.673703
Si Si5 0.680091 0.250000 0.170959
Si Si6 0.826970 0.449671 0.019992
O O1 0.500000 0.828020 0.912751
O O2 0.307696 0.873482 0.831080
O O3 0.251569 0.792138 0.870545
O O4 0.254882 0.851741 0.973264
O O5 0.500000 0.376803 0.947775
O O6 0.264775 0.338205 0.885350
O O7 0.248221 0.420520 0.952711
O O8 0.500000 0.197038 0.821063
O O9 0.722296 0.250000 0.855643
O O10 0.750000 0.189473 0.750000
O O11 0.250000 0.556866 0.750000
O O12 0.248189 0.554143 0.600113
O O13 0.000000 0.559541 0.675149
O O14 0.500000 0.250000 0.176153
O O15 0.750000 0.250000 0.250000
O O16 0.000000 0.435525 0.027467
O O17 0.808553 0.500000 0.000000
#
# Coordination Sequence:
#
# PCOD8297491 Si02
#       6
#    16  16  16  16   8  16
#     4   8  16  28  45  69  95 128 166 203 241 285
#     4   9  18  33  53  77 101 133 175 214 260 312
#     4   9  18  32  52  78 108 142 178 219 266 320
#     4  10  19  33  53  77 103 134 172 211 255 305
#     4  10  18  28  42  62  93 128 160 196 235 276
#     4  10  21  37  56  78 104 135 172 218 272 322
#
# _framework density 18.114902000000001
#
# number of rings (size 3 to 8) (size 9 to 14) (size 15 to 20)
#    0.000    2.727    0.000    2.727    1.273    2.182 
#    0.000    4.545    0.000    2.182    0.000    0.000 
#    0.000    0.000    0.000    0.000    0.000    0.000 
#
# Total GULP energy -545159.597959 kJ/mol
# GULP energy per Si atom -12389.990863 kJ/mol
# Density = 1.807367 g / cm^3
# Si number density = 18.114902 Si / 1000 Ang^3
#
#
#
# Elastic Constant Matrix: (Units=GPa)
#
#
# Indices 1 2 3 4 5 6 
#
# 1 69.8791 43.9962 42.7955 0.0000 0.0000 0.0000
# 2 43.9962 101.9436 46.1913 0.0000 0.0000 0.0000
# 3 42.7955 46.1913 102.1673 -0.0001 0.0000 0.0000
# 4 0.0000 0.0000 -0.0001 24.8193 0.0000 0.0000
# 5 0.0000 0.0000 0.0000 0.0000 30.4612 0.0000
# 6 0.0000 0.0000 0.0000 0.0000 0.0000 21.9737
#
#
#
# Elastic Compliance Matrix: (Units=1/GPa)
#
#
# Indices 1 2 3 4 5 6 
#
# 1 0.022493 -0.006839 -0.006330 0.000000 0.000000 0.000000
# 2 -0.006839 0.014416 -0.003653 0.000000 0.000000 0.000000
# 3 -0.006330 -0.003653 0.014091 0.000000 0.000000 0.000000
# 4 0.000000 0.000000 0.000000 0.040291 0.000000 0.000000
# 5 0.000000 0.000000 0.000000 0.000000 0.032829 0.000000
# 6 0.000000 0.000000 0.000000 0.000000 0.000000 0.045509
#
#
# Mechanical properties :
#
#
# Convention : Reuss Voigt Hill
#
# Bulk Modulus (GPa) = 57.61668 59.99513 58.80591
# Shear Modulus (GPa) = 23.91682 24.85129 24.38406
#
# Velocity S-wave (km/s) = 3.63751 3.70789 3.67287
# Velocity P-wave (km/s) = 7.03685 7.17791 7.10773
#
# Compressibility (1/GPa) = 0.01735608
#
# Stress axis : x y z
#
# Youngs Moduli (GPa) = 44.45841 69.36638 70.96873
#
# Poissons Ratio (x) = 0.47442 0.44920
# Poissons Ratio (y) = 0.30407 0.25924
# Poissons Ratio (z) = 0.28140 0.25339
#
# Static dielectric constant tensor:
#      x y z
#    x 3.381950 0.000000 0.000000 
#    y 0.000000 3.456340 0.000000 
#    z 0.000000 0.000000 3.363410 
# 
# 
# High freq. dielectric constant tensor:
#      x y z
#    x 1.685960 0.000000 0.000000 
#    y 0.000000 1.702160 0.000000 
#    z 0.000000 0.000000 1.695450 
# 
# From -- ./inp_files/40075.got.cif
#   From: 2010.03.12/outbox.cif.g09.slc.cpg/sg74_21_cif.got.tgz:40075.got - 2010.04.16 15:46:19.
