data_PCOD8297194
_publ_section_title
;
Structure prediction by ZEFSAII (Michael W. Deem and Ramdas Pophale) SiO2 
 PCOD8297194
Probable space group: I M M A
;
_chemical_formula_sum "Si O2"
_cell_formula_units_Z 104
_cell_length_a 23.910138
_cell_length_b 14.373006
_cell_length_c 22.628172
_cell_angle_alpha 90.000000
_cell_angle_beta 90.000000
_cell_angle_gamma 90.000000
_cell_volume 7776.410192
_symmetry_space_group_name_H-M "I M M A"
_symmetry_group_IT_number 74
_symmetry_cell_setting 'orthorhombic'
loop_
_space_group_symop_operation_xyz
x,y,z
-x,1/2-y,z
x,-y,-z
-x,1/2+y,-z
-x,-y,-z
x,1/2+y,-z
-x,y,z
x,1/2-y,z
1/2+x,1/2+y,1/2+z
1/2-x,-y,1/2+z
1/2+x,1/2-y,1/2-z
1/2-x,y,1/2-z
1/2-x,1/2-y,1/2-z
1/2+x,y,1/2-z
1/2-x,1/2+y,1/2+z
1/2+x,-y,1/2+z
loop_
_atom_site_type_symbol
_atom_site_label
_atom_site_fract_x
_atom_site_fract_y
_atom_site_fract_z
Si Si1 0.227980 0.143150 0.344090
Si Si2 0.938451 0.250000 0.344753
Si Si3 0.063122 0.250000 0.585402
Si Si4 0.437522 0.434348 0.230276
Si Si5 0.065685 0.548831 0.382088
Si Si6 0.837685 0.940211 0.553343
Si Si7 0.336426 0.856332 0.721882
Si Si8 0.882201 0.250000 0.467415
O O1 0.224796 0.250000 0.366755
O O2 0.206530 0.070878 0.393427
O O3 0.291972 0.115721 0.328574
O O4 0.190790 0.132530 0.286092
O O5 0.927981 0.159199 0.306748
O O6 0.896915 0.250000 0.398758
O O7 0.000000 0.250000 0.372030
O O8 0.089057 0.345405 0.611966
O O9 0.067159 0.250000 0.514223
O O10 0.000000 0.250000 0.605833
O O11 0.500000 0.438108 0.257978
O O12 0.427919 0.521317 0.186752
O O13 0.390206 0.426567 0.281499
O O14 0.103097 0.482067 0.423558
O O15 0.000000 0.538749 0.401488
O O16 0.846641 0.841836 0.521500
O O17 0.811510 0.000000 0.500000
O O18 0.355557 0.750000 0.711889
#
# Coordination Sequence:
#
# PCOD8297194 Si02
#       8
#    16   8   8  16  16  16  16   8
#     4   9  17  28  41  58  81 106 137 170 200 238
#     4  10  17  22  33  55  84 108 128 156 192 232
#     4  10  21  32  36  47  71 108 149 181 203 219
#     4  10  17  25  40  62  85 108 131 158 196 244
#     4  10  20  30  39  52  76 107 142 176 203 232
#     4  12  21  29  41  56  79 106 144 173 208 235
#     4   9  15  25  42  61  82 108 131 161 203 245
#     4  12  19  26  37  54  74 105 139 180 198 222
#
# _framework density 13.37378
#
# number of rings (size 3 to 8) (size 9 to 14) (size 15 to 20)
#    0.000    1.846    6.154    1.154    0.000    0.923 
#    0.000    0.000    0.000    0.000    0.000    3.231 
#    0.000    0.615    0.000    0.000    0.000    0.000 
#
# Total GULP energy -644351.100037 kJ/mol
# GULP energy per Si atom -12391.367308 kJ/mol
# Density = 1.334334 g / cm^3
# Si number density = 13.373780 Si / 1000 Ang^3
#
#
#
# Elastic Constant Matrix: (Units=GPa)
#
#
# Indices 1 2 3 4 5 6 
#
# 1 77.3415 28.9698 34.5610 0.0000 0.0000 0.0000
# 2 28.9698 75.0577 25.3105 0.0000 0.0000 0.0000
# 3 34.5610 25.3105 44.1092 0.0000 0.0000 0.0000
# 4 0.0000 0.0000 0.0000 29.0777 0.0000 0.0000
# 5 0.0000 0.0000 0.0000 0.0000 21.8806 0.0000
# 6 0.0000 0.0000 0.0000 0.0000 0.0000 11.6335
#
#
#
# Elastic Compliance Matrix: (Units=1/GPa)
#
#
# Indices 1 2 3 4 5 6 
#
# 1 0.020457 -0.003088 -0.014257 0.000000 0.000000 0.000000
# 2 -0.003088 0.016986 -0.007327 0.000000 0.000000 0.000000
# 3 -0.014257 -0.007327 0.038046 0.000000 0.000000 0.000000
# 4 0.000000 0.000000 0.000000 0.034391 0.000000 0.000000
# 5 0.000000 0.000000 0.000000 0.000000 0.045703 0.000000
# 6 0.000000 0.000000 0.000000 0.000000 0.000000 0.085958
#
#
# Mechanical properties :
#
#
# Convention : Reuss Voigt Hill
#
# Bulk Modulus (GPa) = 38.24824 41.57677 39.91251
# Shear Modulus (GPa) = 16.68891 19.69616 18.19253
#
# Velocity S-wave (km/s) = 3.53637 3.84180 3.69224
# Velocity P-wave (km/s) = 6.73321 7.12987 6.93437
#
# Compressibility (1/GPa) = 0.02614499
#
# Stress axis : x y z
#
# Youngs Moduli (GPa) = 48.88226 58.87280 26.28388
#
# Poissons Ratio (x) = 0.18181 0.37473
# Poissons Ratio (y) = 0.15096 0.19258
# Poissons Ratio (z) = 0.69691 0.43136
#
# Static dielectric constant tensor:
#      x y z
#    x 2.854180 0.000000 0.000000 
#    y 0.000000 2.725690 0.000000 
#    z 0.000000 0.000000 2.431870 
# 
# 
# High freq. dielectric constant tensor:
#      x y z
#    x 1.495300 0.000000 0.000000 
#    y 0.000000 1.502180 0.000000 
#    z 0.000000 0.000000 1.465690 
# 
# From -- ./inp_files/62141.got.cif
#   From: 2010.03.12/outbox.cif.g09.slc.cpg/sg74_32_cif.got.tgz:62141.got - 2010.04.16 15:46:19.
