data_PCOD8297411
_publ_section_title
;
Structure prediction by ZEFSAII (Michael W. Deem and Ramdas Pophale) SiO2 
 PCOD8297411
Probable space group: I M M A
;
_chemical_formula_sum "Si O2"
_cell_formula_units_Z 104
_cell_length_a 20.022755
_cell_length_b 9.223817
_cell_length_c 32.560663
_cell_angle_alpha 90.000000
_cell_angle_beta 90.000000
_cell_angle_gamma 90.000000
_cell_volume 6013.506029
_symmetry_space_group_name_H-M "I M M A"
_symmetry_group_IT_number 74
_symmetry_cell_setting 'orthorhombic'
loop_
_space_group_symop_operation_xyz
x,y,z
-x,1/2-y,z
x,-y,-z
-x,1/2+y,-z
-x,-y,-z
x,1/2+y,-z
-x,y,z
x,1/2-y,z
1/2+x,1/2+y,1/2+z
1/2-x,-y,1/2+z
1/2+x,1/2-y,1/2-z
1/2-x,y,1/2-z
1/2-x,1/2-y,1/2-z
1/2+x,y,1/2-z
1/2-x,1/2+y,1/2+z
1/2+x,-y,1/2+z
loop_
_atom_site_type_symbol
_atom_site_label
_atom_site_fract_x
_atom_site_fract_y
_atom_site_fract_z
Si Si1 0.076554 0.420599 0.733895
Si Si2 0.730014 0.919418 0.459571
Si Si3 0.363961 0.922064 0.078258
Si Si4 0.181807 0.580330 0.131430
Si Si5 0.923097 0.582991 0.817975
Si Si6 0.500000 0.921584 0.041908
Si Si7 0.676968 0.079131 0.835551
O O1 0.085503 0.250000 0.741275
O O2 0.092581 0.500708 0.775971
O O3 0.132789 0.482202 0.702252
O O4 0.000000 0.453515 0.718995
O O5 0.722676 0.750000 0.468222
O O6 0.807192 0.969486 0.454174
O O7 0.694430 0.960112 0.416421
O O8 0.700352 0.000000 0.500000
O O9 0.360308 0.750000 0.082070
O O10 0.435614 0.979166 0.065361
O O11 0.352618 0.990220 0.122992
O O12 0.165524 0.750000 0.134983
O O13 0.118961 0.486665 0.145270
O O14 0.243827 0.542420 0.162420
O O15 0.903161 0.750000 0.812338
O O16 0.000000 0.565544 0.830501
O O17 0.500000 0.750000 0.036067
O O18 0.500000 0.000000 0.000000
O O19 0.666795 0.250000 0.835249
#
# Coordination Sequence:
#
# PCOD8297411 Si02
#       7
#    16  16  16  16  16   8  16
#     4   9  17  29  49  74  97 127 167 204 236 277
#     4   9  17  30  48  70  96 125 156 193 236 280
#     4   8  15  26  41  64  92 123 159 200 240 274
#     4   9  18  33  52  73  98 126 159 199 239 280
#     4  10  21  36  52  71  97 126 154 190 239 293
#     4  10  18  26  40  60  86 122 162 202 240 278
#     4   8  15  28  46  71  98 123 160 206 243 272
#
# _framework density 17.294404
#
# number of rings (size 3 to 8) (size 9 to 14) (size 15 to 20)
#    0.000    3.077    0.000    2.769    1.077    2.154 
#    0.000    3.846    0.000    3.231    0.000    0.000 
#    0.000    0.000    0.000    0.000    0.000    0.000 
#
# Total GULP energy -644273.137148 kJ/mol
# GULP energy per Si atom -12389.868022 kJ/mol
# Density = 1.725504 g / cm^3
# Si number density = 17.294404 Si / 1000 Ang^3
#
#
#
# Elastic Constant Matrix: (Units=GPa)
#
#
# Indices 1 2 3 4 5 6 
#
# 1 85.3471 37.9019 62.8308 0.0000 0.0000 0.0000
# 2 37.9019 45.0019 46.1935 0.0000 0.0000 0.0000
# 3 62.8308 46.1935 115.7209 0.0000 0.0000 0.0000
# 4 0.0000 0.0000 0.0000 22.8203 0.0000 0.0000
# 5 0.0000 0.0000 0.0000 0.0000 22.0134 0.0000
# 6 0.0000 0.0000 0.0000 0.0000 0.0000 16.4314
#
#
#
# Elastic Compliance Matrix: (Units=1/GPa)
#
#
# Indices 1 2 3 4 5 6 
#
# 1 0.022200 -0.010716 -0.007776 0.000000 0.000000 0.000000
# 2 -0.010716 0.042819 -0.011275 0.000000 0.000000 0.000000
# 3 -0.007776 -0.011275 0.017364 0.000000 0.000000 0.000000
# 4 0.000000 0.000000 0.000000 0.043821 0.000000 0.000000
# 5 0.000000 0.000000 0.000000 0.000000 0.045427 0.000000
# 6 0.000000 0.000000 0.000000 0.000000 0.000000 0.060859
#
#
# Mechanical properties :
#
#
# Convention : Reuss Voigt Hill
#
# Bulk Modulus (GPa) = 43.76171 59.99137 51.87654
# Shear Modulus (GPa) = 16.68667 18.86259 17.77463
#
# Velocity S-wave (km/s) = 3.10959 3.30612 3.20936
# Velocity P-wave (km/s) = 6.18479 7.02407 6.61775
#
# Compressibility (1/GPa) = 0.02285103
#
# Stress axis : x y z
#
# Youngs Moduli (GPa) = 45.04453 23.35388 57.58987
#
# Poissons Ratio (x) = 0.25025 0.44783
# Poissons Ratio (y) = 0.48268 0.64930
# Poissons Ratio (z) = 0.35027 0.26331
#
# Static dielectric constant tensor:
#      x y z
#    x 3.223310 0.000000 0.000000 
#    y 0.000000 2.850950 0.000000 
#    z 0.000000 0.000000 3.236270 
# 
# 
# High freq. dielectric constant tensor:
#      x y z
#    x 1.662590 0.000000 0.000000 
#    y 0.000000 1.633030 0.000000 
#    z 0.000000 0.000000 1.669270 
# 
# From -- ./inp_files/73152.got.cif
#   From: 2010.03.12/outbox.cif.g09.slc.cpg/sg74_37_cif.got.tgz:73152.got - 2010.04.16 15:46:19.
