data_PCOD8297287
_publ_section_title
;
Structure prediction by ZEFSAII (Michael W. Deem and Ramdas Pophale) SiO2 
 PCOD8297287
Probable space group: I M M A
;
_chemical_formula_sum "Si O2"
_cell_formula_units_Z 80
_cell_length_a 8.737933
_cell_length_b 24.346519
_cell_length_c 23.640625
_cell_angle_alpha 90.000000
_cell_angle_beta 90.000000
_cell_angle_gamma 90.000000
_cell_volume 5029.265234
_symmetry_space_group_name_H-M "I M M A"
_symmetry_group_IT_number 74
_symmetry_cell_setting 'orthorhombic'
loop_
_space_group_symop_operation_xyz
x,y,z
-x,1/2-y,z
x,-y,-z
-x,1/2+y,-z
-x,-y,-z
x,1/2+y,-z
-x,y,z
x,1/2-y,z
1/2+x,1/2+y,1/2+z
1/2-x,-y,1/2+z
1/2+x,1/2-y,1/2-z
1/2-x,y,1/2-z
1/2-x,1/2-y,1/2-z
1/2+x,y,1/2-z
1/2-x,1/2+y,1/2+z
1/2+x,-y,1/2+z
loop_
_atom_site_type_symbol
_atom_site_label
_atom_site_fract_x
_atom_site_fract_y
_atom_site_fract_z
Si Si1 0.821119 0.585225 0.191906
Si Si2 0.177651 0.187691 0.638552
Si Si3 0.818524 0.190526 0.511359
Si Si4 0.180547 0.423816 0.472573
Si Si5 0.680057 0.978872 0.418953
O O1 0.750000 0.563049 0.250000
O O2 0.767816 0.647128 0.179647
O O3 0.771110 0.543668 0.142129
O O4 0.000000 0.585743 0.199472
O O5 0.204509 0.250000 0.659450
O O6 0.243651 0.180749 0.574898
O O7 0.000000 0.171901 0.640989
O O8 0.758756 0.250000 0.488321
O O9 0.768343 0.140494 0.470426
O O10 0.000000 0.192362 0.516043
O O11 0.272111 0.456823 0.423901
O O12 0.223604 0.446325 0.534340
O O13 0.000000 0.430632 0.463070
O O14 0.500000 0.971731 0.430493
#
# Coordination Sequence:
#
# PCOD8297287 Si02
#       5
#    16  16  16  16  16
#     4  11  23  35  48  63  85 118 154 195 233 267
#     4   9  17  31  49  65  86 117 152 192 229 262
#     4   8  14  25  43  68  94 117 144 180 218 254
#     4  10  17  27  49  71  88 116 149 180 214 265
#     4  10  20  32  44  63  91 117 144 184 231 267
#
# _framework density 15.906896
#
# number of rings (size 3 to 8) (size 9 to 14) (size 15 to 20)
#    0.000    2.400    2.000    4.200    0.000    3.200 
#    0.000    0.000    0.000    2.400    0.000    0.000 
#    0.000    0.800    0.000    1.800    0.000    2.800 
#
# Total GULP energy -495780.292643 kJ/mol
# GULP energy per Si atom -12394.507316 kJ/mol
# Density = 1.587069 g / cm^3
# Si number density = 15.906896 Si / 1000 Ang^3
#
#
#
# Elastic Constant Matrix: (Units=GPa)
#
#
# Indices 1 2 3 4 5 6 
#
# 1 42.3527 21.6612 28.5584 0.0000 0.0000 0.0000
# 2 21.6612 112.6105 53.9922 0.0000 0.0000 0.0000
# 3 28.5584 53.9922 79.4397 0.0000 0.0000 0.0000
# 4 0.0000 0.0000 0.0000 20.9969 0.0000 0.0000
# 5 0.0000 0.0000 0.0000 0.0000 20.6333 0.0000
# 6 0.0000 0.0000 0.0000 0.0000 0.0000 17.4427
#
#
#
# Elastic Compliance Matrix: (Units=1/GPa)
#
#
# Indices 1 2 3 4 5 6 
#
# 1 0.031231 -0.000926 -0.010598 0.000000 0.000000 0.000000
# 2 -0.000926 0.013200 -0.008639 0.000000 0.000000 0.000000
# 3 -0.010598 -0.008639 0.022270 0.000000 0.000000 0.000000
# 4 0.000000 0.000000 0.000000 0.047626 0.000000 0.000000
# 5 0.000000 0.000000 0.000000 0.000000 0.048465 0.000000
# 6 0.000000 0.000000 0.000000 0.000000 0.000000 0.057330
#
#
# Mechanical properties :
#
#
# Convention : Reuss Voigt Hill
#
# Bulk Modulus (GPa) = 37.91457 49.20294 43.55875
# Shear Modulus (GPa) = 18.57074 20.49400 19.53237
#
# Velocity S-wave (km/s) = 3.42053 3.59328 3.50797
# Velocity P-wave (km/s) = 6.28387 6.94367 6.62199
#
# Compressibility (1/GPa) = 0.02637508
#
# Stress axis : x y z
#
# Youngs Moduli (GPa) = 32.01922 75.75610 44.90418
#
# Poissons Ratio (x) = 0.07016 0.47590
# Poissons Ratio (y) = 0.02965 0.38792
# Poissons Ratio (z) = 0.33934 0.65444
#
# Static dielectric constant tensor:
#      x y z
#    x 2.896300 0.000000 0.000000 
#    y 0.000000 3.571620 0.000000 
#    z 0.000000 0.000000 2.866590 
# 
# 
# High freq. dielectric constant tensor:
#      x y z
#    x 1.605560 0.000000 0.000000 
#    y 0.000000 1.615470 0.000000 
#    z 0.000000 0.000000 1.565950 
# 
# From -- ./inp_files/57725.got.cif
#   From: 2010.03.12/outbox.cif.g09.slc.cpg/sg74_29_cif.got.tgz:57725.got - 2010.04.16 15:46:19.
