data_PCOD8297452
_publ_section_title
;
Structure prediction by ZEFSAII (Michael W. Deem and Ramdas Pophale) SiO2 
 PCOD8297452
Probable space group: I M M A
;
_chemical_formula_sum "Si O2"
_cell_formula_units_Z 96
_cell_length_a 25.117864
_cell_length_b 18.865553
_cell_length_c 10.386693
_cell_angle_alpha 90.000000
_cell_angle_beta 90.000000
_cell_angle_gamma 90.000000
_cell_volume 4921.863216
_symmetry_space_group_name_H-M "I M M A"
_symmetry_group_IT_number 74
_symmetry_cell_setting 'orthorhombic'
loop_
_space_group_symop_operation_xyz
x,y,z
-x,1/2-y,z
x,-y,-z
-x,1/2+y,-z
-x,-y,-z
x,1/2+y,-z
-x,y,z
x,1/2-y,z
1/2+x,1/2+y,1/2+z
1/2-x,-y,1/2+z
1/2+x,1/2-y,1/2-z
1/2-x,y,1/2-z
1/2-x,1/2-y,1/2-z
1/2+x,y,1/2-z
1/2-x,1/2+y,1/2+z
1/2+x,-y,1/2+z
loop_
_atom_site_type_symbol
_atom_site_label
_atom_site_fract_x
_atom_site_fract_y
_atom_site_fract_z
Si Si1 0.731796 0.332299 0.050584
Si Si2 0.561287 0.328842 0.971078
Si Si3 0.717785 0.543824 0.121832
Si Si4 0.940258 0.599994 0.747058
Si Si5 0.403095 0.532731 0.133401
Si Si6 0.164376 0.167367 0.203846
O O1 0.725032 0.250000 0.021198
O O2 0.791858 0.349641 0.095343
O O3 0.689018 0.357148 0.158473
O O4 0.719576 0.373620 0.918502
O O5 0.500000 0.321601 0.938911
O O6 0.587800 0.250000 0.960867
O O7 0.585198 0.382920 0.864124
O O8 0.570415 0.359881 0.112682
O O9 0.750000 0.527908 0.250000
O O10 0.658795 0.518427 0.154935
O O11 0.740949 0.500000 0.000000
O O12 0.935198 0.514159 0.738343
O O13 0.891241 0.628355 0.834221
O O14 0.000000 0.618048 0.799605
O O15 0.423553 0.500000 0.000000
O O16 0.152381 0.250000 0.208580
#
# Coordination Sequence:
#
# PCOD8297452 Si02
#       6
#    16  16  16  16  16  16
#     4   9  19  35  55  78 108 145 186 230 285 339
#     4   9  16  26  42  66  99 138 178 219 265 322
#     4  11  24  36  55  82 109 145 181 232 280 334
#     4  10  18  27  44  71 106 142 179 227 276 326
#     4   9  18  31  45  68 100 139 176 218 276 326
#     4   9  17  30  53  80 108 147 184 226 277 336
#
# _framework density 19.504809999999999
#
# number of rings (size 3 to 8) (size 9 to 14) (size 15 to 20)
#    0.000    2.500    0.000    5.000    4.667    5.333 
#    0.000    0.000    0.000    0.000    0.000    3.500 
#    0.000    0.000    0.000    0.667    0.000    0.000 
#
# Total GULP energy -594805.052632 kJ/mol
# GULP energy per Si atom -12391.771930 kJ/mol
# Density = 1.946042 g / cm^3
# Si number density = 19.504810 Si / 1000 Ang^3
#
#
#
# Elastic Constant Matrix: (Units=GPa)
#
#
# Indices 1 2 3 4 5 6 
#
# 1 110.0660 27.5884 13.9597 0.0000 0.0000 0.0000
# 2 27.5884 107.6609 12.1960 0.0000 0.0000 0.0000
# 3 13.9597 12.1960 37.4948 0.0000 0.0000 0.0000
# 4 0.0000 0.0000 0.0000 19.4808 0.0000 0.0000
# 5 0.0000 0.0000 0.0000 0.0000 18.8555 0.0000
# 6 0.0000 0.0000 0.0000 0.0000 0.0000 30.9773
#
#
#
# Elastic Compliance Matrix: (Units=1/GPa)
#
#
# Indices 1 2 3 4 5 6 
#
# 1 0.010025 -0.002228 -0.003008 0.000000 0.000000 0.000000
# 2 -0.002228 0.010139 -0.002468 0.000000 0.000000 0.000000
# 3 -0.003008 -0.002468 0.028593 0.000000 0.000000 0.000000
# 4 0.000000 0.000000 0.000000 0.051332 0.000000 0.000000
# 5 0.000000 0.000000 0.000000 0.000000 0.053035 0.000000
# 6 0.000000 0.000000 0.000000 0.000000 0.000000 0.032282
#
#
# Mechanical properties :
#
#
# Convention : Reuss Voigt Hill
#
# Bulk Modulus (GPa) = 29.98612 40.30109 35.14361
# Shear Modulus (GPa) = 23.59250 27.29457 25.44353
#
# Velocity S-wave (km/s) = 3.48167 3.74488 3.61567
# Velocity P-wave (km/s) = 5.61870 6.27741 5.95716
#
# Compressibility (1/GPa) = 0.03334876
#
# Stress axis : x y z
#
# Youngs Moduli (GPa) = 99.74591 98.62851 34.97351
#
# Poissons Ratio (x) = 0.21978 0.10519
# Poissons Ratio (y) = 0.22227 0.08633
# Poissons Ratio (z) = 0.30001 0.24345
#
# Static dielectric constant tensor:
#      x y z
#    x 3.640790 0.000000 0.000000 
#    y 0.000000 3.897080 0.000000 
#    z 0.000000 0.000000 2.874950 
# 
# 
# High freq. dielectric constant tensor:
#      x y z
#    x 1.769850 0.000000 0.000000 
#    y 0.000000 1.777770 0.000000 
#    z 0.000000 0.000000 1.668530 
# 
# From -- ./inp_files/26261.got.cif
#   From: 2010.03.12/outbox.cif.g09.slc.cpg/sg74_14_cif.got.tgz:26261.got - 2010.04.16 15:46:19.
