data_PCOD8297815
_publ_section_title
;
Structure prediction by ZEFSAII (Michael W. Deem and Ramdas Pophale) SiO2 
 PCOD8297815
Probable space group: I M M A
;
_chemical_formula_sum "Si O2"
_cell_formula_units_Z 96
_cell_length_a 21.024398
_cell_length_b 8.969447
_cell_length_c 30.206694
_cell_angle_alpha 90.000000
_cell_angle_beta 90.000000
_cell_angle_gamma 90.000000
_cell_volume 5696.294488
_symmetry_space_group_name_H-M "I M M A"
_symmetry_group_IT_number 74
_symmetry_cell_setting 'orthorhombic'
loop_
_space_group_symop_operation_xyz
x,y,z
-x,1/2-y,z
x,-y,-z
-x,1/2+y,-z
-x,-y,-z
x,1/2+y,-z
-x,y,z
x,1/2-y,z
1/2+x,1/2+y,1/2+z
1/2-x,-y,1/2+z
1/2+x,1/2-y,1/2-z
1/2-x,y,1/2-z
1/2-x,1/2-y,1/2-z
1/2+x,y,1/2-z
1/2-x,1/2+y,1/2+z
1/2+x,-y,1/2+z
loop_
_atom_site_type_symbol
_atom_site_label
_atom_site_fract_x
_atom_site_fract_y
_atom_site_fract_z
Si Si1 0.615347 0.913751 0.041583
Si Si2 0.069445 0.926062 0.272451
Si Si3 0.872306 0.426873 0.636768
Si Si4 0.737570 0.572640 0.633510
Si Si5 0.266976 0.918312 0.456616
Si Si6 0.309488 0.926517 0.281213
O O1 0.587351 0.750000 0.036330
O O2 0.595421 0.977008 0.090029
O O3 0.691234 0.915883 0.040091
O O4 0.585491 0.000000 0.000000
O O5 0.069439 0.750000 0.268005
O O6 0.080445 0.969055 0.323752
O O7 0.126092 0.987453 0.241924
O O8 0.000000 0.990349 0.258365
O O9 0.855843 0.250000 0.635395
O O10 0.807685 0.515350 0.644669
O O11 0.736625 0.750000 0.630926
O O12 0.711651 0.507445 0.587131
O O13 0.692581 0.514214 0.672694
O O14 0.293777 0.750000 0.454484
O O15 0.295362 0.000000 0.500000
O O16 0.310880 0.750000 0.290212
O O17 0.250000 0.967731 0.250000
#
# Coordination Sequence:
#
# PCOD8297815 Si02
#       6
#    16  16  16  16  16  16
#     4   8  14  22  36  56  81 111 144 183 226 272
#     4   9  17  30  50  71  88 113 156 201 241 291
#     4   9  16  29  45  63  87 117 153 196 244 283
#     4  11  20  28  43  68  96 125 161 196 232 280
#     4   9  16  27  42  63  94 127 157 190 236 282
#     4  10  18  31  50  69  92 122 154 197 248 288
#
# _framework density 16.853061
#
# number of rings (size 3 to 8) (size 9 to 14) (size 15 to 20)
#    0.000    2.667    1.667    3.000    0.000    4.333 
#    0.000    0.000    0.000    2.500    0.000    0.000 
#    0.000    0.667    0.000    1.833    0.000    4.667 
#
# Total GULP energy -594859.554234 kJ/mol
# GULP energy per Si atom -12392.907380 kJ/mol
# Density = 1.681470 g / cm^3
# Si number density = 16.853061 Si / 1000 Ang^3
#
#
#
# Elastic Constant Matrix: (Units=GPa)
#
#
# Indices 1 2 3 4 5 6 
#
# 1 77.2515 22.6663 53.0277 0.0000 0.0000 0.0000
# 2 22.6663 74.7569 47.7472 0.0000 0.0000 0.0000
# 3 53.0277 47.7472 137.8120 0.0000 0.0000 0.0000
# 4 0.0000 0.0000 0.0000 30.3927 0.0000 0.0000
# 5 0.0000 0.0000 0.0000 0.0000 10.8856 0.0000
# 6 0.0000 0.0000 0.0000 0.0000 0.0000 4.1061
#
#
#
# Elastic Compliance Matrix: (Units=1/GPa)
#
#
# Indices 1 2 3 4 5 6 
#
# 1 0.017690 -0.001305 -0.006355 0.000000 0.000000 0.000000
# 2 -0.001305 0.017274 -0.005483 0.000000 0.000000 0.000000
# 3 -0.006355 -0.005483 0.011601 0.000000 0.000000 0.000000
# 4 0.000000 0.000000 0.000000 0.032903 0.000000 0.000000
# 5 0.000000 0.000000 0.000000 0.000000 0.091865 0.000000
# 6 0.000000 0.000000 0.000000 0.000000 0.000000 0.243541
#
#
# Mechanical properties :
#
#
# Convention : Reuss Voigt Hill
#
# Bulk Modulus (GPa) = 49.30894 59.63364 54.47129
# Shear Modulus (GPa) = 11.16277 20.16881 15.66579
#
# Velocity S-wave (km/s) = 2.57642 3.46315 3.05216
# Velocity P-wave (km/s) = 6.17837 7.17304 6.69421
#
# Compressibility (1/GPa) = 0.02028030
#
# Stress axis : x y z
#
# Youngs Moduli (GPa) = 56.53061 57.88971 86.19941
#
# Poissons Ratio (x) = 0.07554 0.54776
# Poissons Ratio (y) = 0.07376 0.47262
# Poissons Ratio (z) = 0.35923 0.31740
#
# Static dielectric constant tensor:
#      x y z
#    x 2.865120 0.000000 0.000000 
#    y 0.000000 3.043290 0.000000 
#    z 0.000000 0.000000 3.503090 
# 
# 
# High freq. dielectric constant tensor:
#      x y z
#    x 1.588460 0.000000 0.000000 
#    y 0.000000 1.631350 0.000000 
#    z 0.000000 0.000000 1.667260 
# 
# From -- ./inp_files/68583.got.cif
#   From: 2010.03.12/outbox.cif.g09.slc.cpg/sg74_35_cif.got.tgz:68583.got - 2010.04.16 15:46:19.
