data_PCOD8297849
_publ_section_title
;
Structure prediction by ZEFSAII (Michael W. Deem and Ramdas Pophale) SiO2 
 PCOD8297849
Probable space group: I M M A
;
_chemical_formula_sum "Si O2"
_cell_formula_units_Z 96
_cell_length_a 19.298320
_cell_length_b 15.276181
_cell_length_c 18.157365
_cell_angle_alpha 90.000000
_cell_angle_beta 90.000000
_cell_angle_gamma 90.000000
_cell_volume 5352.875258
_symmetry_space_group_name_H-M "I M M A"
_symmetry_group_IT_number 74
_symmetry_cell_setting 'orthorhombic'
loop_
_space_group_symop_operation_xyz
x,y,z
-x,1/2-y,z
x,-y,-z
-x,1/2+y,-z
-x,-y,-z
x,1/2+y,-z
-x,y,z
x,1/2-y,z
1/2+x,1/2+y,1/2+z
1/2-x,-y,1/2+z
1/2+x,1/2-y,1/2-z
1/2-x,y,1/2-z
1/2-x,1/2-y,1/2-z
1/2+x,y,1/2-z
1/2-x,1/2+y,1/2+z
1/2+x,-y,1/2+z
loop_
_atom_site_type_symbol
_atom_site_label
_atom_site_fract_x
_atom_site_fract_y
_atom_site_fract_z
Si Si1 0.283150 0.346970 0.050973
Si Si2 0.422528 0.064402 0.822178
Si Si3 0.077109 0.601909 0.484652
Si Si4 0.284602 0.514559 0.825712
Si Si5 0.425065 0.147896 0.668547
Si Si6 0.217012 0.852402 0.103666
O O1 0.266133 0.250000 0.080898
O O2 0.261839 0.416972 0.112207
O O3 0.364408 0.346909 0.029468
O O4 0.235680 0.369095 0.980901
O O5 0.500000 0.023647 0.820549
O O6 0.412724 0.119656 0.897521
O O7 0.408528 0.127620 0.753572
O O8 0.368102 0.984127 0.818197
O O9 0.087760 0.500000 0.500000
O O10 0.000000 0.632520 0.509614
O O11 0.250000 0.544925 0.750000
O O12 0.264285 0.414588 0.845625
O O13 0.500000 0.105592 0.645592
O O14 0.431658 0.250000 0.660135
O O15 0.362528 0.115903 0.616311
O O16 0.228081 0.750000 0.125823
#
# Coordination Sequence:
#
# PCOD8297849 Si02
#       6
#    16  16  16  16  16  16
#     4  11  23  37  53  75 109 148 190 229 262 312
#     4  10  19  31  50  77 111 145 170 206 266 327
#     4  10  18  31  52  75 104 141 177 218 266 317
#     4  12  22  36  56  79 106 146 182 227 271 318
#     4   9  18  32  51  80 113 138 165 207 268 338
#     4  10  20  34  56  83 109 137 173 220 275 330
#
# _framework density 17.934287999999999
#
# number of rings (size 3 to 8) (size 9 to 14) (size 15 to 20)
#    0.000    1.667    5.000    0.500    0.000    2.333 
#    0.000    1.667    0.000    3.000    0.000    0.000 
#    0.000    0.000    0.000    0.000    0.000    0.000 
#
# Total GULP energy -594960.812596 kJ/mol
# GULP energy per Si atom -12395.016929 kJ/mol
# Density = 1.789347 g / cm^3
# Si number density = 17.934288 Si / 1000 Ang^3
#
#
#
# Elastic Constant Matrix: (Units=GPa)
#
#
# Indices 1 2 3 4 5 6 
#
# 1 107.2030 32.9699 56.5846 0.0000 0.0000 0.0000
# 2 32.9699 54.4912 35.8338 0.0000 0.0000 0.0000
# 3 56.5846 35.8338 100.3455 0.0000 0.0000 0.0000
# 4 0.0000 0.0000 0.0000 26.2868 0.0000 0.0000
# 5 0.0000 0.0000 0.0000 0.0000 -270.1740 0.0000
# 6 0.0000 0.0000 0.0000 0.0000 0.0000 14.9157
#
#
#
# Elastic Compliance Matrix: (Units=1/GPa)
#
#
# Indices 1 2 3 4 5 6 
#
# 1 0.014008 -0.004288 -0.006368 0.000000 0.000000 0.000000
# 2 -0.004288 0.025296 -0.006615 0.000000 0.000000 0.000000
# 3 -0.006368 -0.006615 0.015919 0.000000 0.000000 0.000000
# 4 0.000000 0.000000 0.000000 0.038042 0.000000 0.000000
# 5 0.000000 0.000000 0.000000 0.000000 -0.003701 0.000000
# 6 0.000000 0.000000 0.000000 0.000000 0.000000 0.067043
#
#
# Mechanical properties :
#
#
# Convention : Reuss Voigt Hill
#
# Bulk Modulus (GPa) = 48.35446 56.97959 52.66702
# Shear Modulus (GPa) = 25.24704 -36.68419 -5.71857
#
# Velocity S-wave (km/s) = 3.75607 -4.52760 -1.78761
# Velocity P-wave (km/s) = 6.76988 2.12322 5.01694
#
# Compressibility (1/GPa) = 0.02068062
#
# Stress axis : x y z
#
# Youngs Moduli (GPa) = 71.38808 39.53129 62.81906
#
# Poissons Ratio (x) = 0.16951 0.40002
# Poissons Ratio (y) = 0.30611 0.41558
# Poissons Ratio (z) = 0.45458 0.26152
#
# Static dielectric constant tensor:
#      x y z
#    x 2.842490 0.000000 0.000000 
#    y 0.000000 3.065290 0.000000 
#    z 0.000000 0.000000 3.280400 
# 
# 
# High freq. dielectric constant tensor:
#      x y z
#    x 1.709020 0.000000 0.000000 
#    y 0.000000 1.660130 0.000000 
#    z 0.000000 0.000000 1.680620 
# 
# From -- ./inp_files/51856.got.cif
#   From: 2010.03.12/outbox.cif.g09.slc.cpg/sg74_26_cif.got.tgz:51856.got - 2010.04.16 15:46:19.
