data_PCOD8297642
_publ_section_title
;
Structure prediction by ZEFSAII (Michael W. Deem and Ramdas Pophale) SiO2 
 PCOD8297642
Probable space group: I M M A
;
_chemical_formula_sum "Si O2"
_cell_formula_units_Z 72
_cell_length_a 9.152547
_cell_length_b 22.949733
_cell_length_c 22.758642
_cell_angle_alpha 90.000000
_cell_angle_beta 90.000000
_cell_angle_gamma 90.000000
_cell_volume 4780.418840
_symmetry_space_group_name_H-M "I M M A"
_symmetry_group_IT_number 74
_symmetry_cell_setting 'orthorhombic'
loop_
_space_group_symop_operation_xyz
x,y,z
-x,1/2-y,z
x,-y,-z
-x,1/2+y,-z
-x,-y,-z
x,1/2+y,-z
-x,y,z
x,1/2-y,z
1/2+x,1/2+y,1/2+z
1/2-x,-y,1/2+z
1/2+x,1/2-y,1/2-z
1/2-x,y,1/2-z
1/2-x,1/2-y,1/2-z
1/2+x,y,1/2-z
1/2-x,1/2+y,1/2+z
1/2+x,-y,1/2+z
loop_
_atom_site_type_symbol
_atom_site_label
_atom_site_fract_x
_atom_site_fract_y
_atom_site_fract_z
Si Si1 0.830246 0.153300 0.612778
Si Si2 0.824336 0.750000 0.187130
Si Si3 0.165659 0.455204 0.916028
Si Si4 0.668344 0.314203 0.021936
Si Si5 0.163486 0.921190 0.948567
O O1 0.730239 0.192527 0.654042
O O2 0.774821 0.086574 0.620136
O O3 0.806033 0.174785 0.546741
O O4 0.000000 0.157543 0.631324
O O5 0.750000 0.750000 0.250000
O O6 0.000000 0.750000 0.191380
O O7 0.220405 0.522597 0.911485
O O8 0.000000 0.449329 0.891831
O O9 0.168458 0.436750 0.983397
O O10 0.500000 0.316979 0.037682
O O11 0.731711 0.250000 0.037035
O O12 0.742895 0.363101 0.062820
O O13 0.000000 0.906848 0.928517
#
# Coordination Sequence:
#
# PCOD8297642 Si02
#       5
#    16   8  16  16  16
#     4  10  18  30  44  58  75  95 125 160 197 240
#     4  12  24  36  48  60  76  98 126 164 208 246
#     4   8  14  25  38  54  74  95 122 156 193 228
#     4   9  16  25  36  52  77 103 129 161 194 230
#     4   8  14  23  35  52  74  97 125 159 188 223
#
# _framework density 15.061443000000001
#
# number of rings (size 3 to 8) (size 9 to 14) (size 15 to 20)
#    0.000    2.889    1.111    3.000    0.000    2.222 
#    0.000    4.444    0.000    0.000    0.000    0.000 
#    0.000    0.000    0.000    0.000    0.000    1.111 
#
# Total GULP energy -446070.755503 kJ/mol
# GULP energy per Si atom -12390.854320 kJ/mol
# Density = 1.502716 g / cm^3
# Si number density = 15.061443 Si / 1000 Ang^3
#
#
#
# Elastic Constant Matrix: (Units=GPa)
#
#
# Indices 1 2 3 4 5 6 
#
# 1 91.6850 71.3674 23.3022 0.0000 0.0000 0.0000
# 2 71.3674 164.9766 25.4011 0.0000 0.0000 0.0000
# 3 23.3022 25.4011 18.8305 0.0000 0.0000 0.0000
# 4 0.0000 0.0000 0.0000 0.4359 0.0000 0.0000
# 5 0.0000 0.0000 0.0000 0.0000 13.3583 0.0000
# 6 0.0000 0.0000 0.0000 0.0000 0.0000 32.2560
#
#
#
# Elastic Compliance Matrix: (Units=1/GPa)
#
#
# Indices 1 2 3 4 5 6 
#
# 1 0.019744 -0.006032 -0.016296 0.000000 0.000000 0.000000
# 2 -0.006032 0.009493 -0.005341 0.000000 0.000000 0.000000
# 3 -0.016296 -0.005341 0.080476 0.000000 0.000000 0.000000
# 4 0.000000 0.000000 0.000000 2.294169 0.000000 0.000000
# 5 0.000000 0.000000 0.000000 0.000000 0.074860 0.000000
# 6 0.000000 0.000000 0.000000 0.000000 0.000000 0.031002
#
#
# Mechanical properties :
#
#
# Convention : Reuss Voigt Hill
#
# Bulk Modulus (GPa) = 18.39081 57.29261 37.84171
# Shear Modulus (GPa) = 1.93558 19.57147 10.75352
#
# Velocity S-wave (km/s) = 1.13486 3.60869 2.67493
# Velocity P-wave (km/s) = 3.73554 7.44885 5.89235
#
# Compressibility (1/GPa) = 0.05437499
#
# Stress axis : x y z
#
# Youngs Moduli (GPa) = 50.64880 105.33798 12.42608
#
# Poissons Ratio (x) = 0.63540 0.20249
# Poissons Ratio (y) = 0.30551 0.06637
# Poissons Ratio (z) = 0.82535 0.56265
#
# Static dielectric constant tensor:
#      x y z
#    x 3.017200 0.000000 0.000000 
#    y 0.000000 3.436880 0.000000 
#    z 0.000000 0.000000 2.342310 
# 
# 
# High freq. dielectric constant tensor:
#      x y z
#    x 1.581530 0.000000 0.000000 
#    y 0.000000 1.596260 0.000000 
#    z 0.000000 0.000000 1.490440 
# 
# From -- ./inp_files/45819.got.cif
#   From: 2010.03.12/outbox.cif.g09.slc.cpg/sg74_23_cif.got.tgz:45819.got - 2010.04.16 15:46:19.
