data_PCOD8297496
_publ_section_title
;
Structure prediction by ZEFSAII (Michael W. Deem and Ramdas Pophale) SiO2 
 PCOD8297496
Probable space group: I M M A
;
_chemical_formula_sum "Si O2"
_cell_formula_units_Z 112
_cell_length_a 9.723733
_cell_length_b 26.669758
_cell_length_c 27.217732
_cell_angle_alpha 90.000000
_cell_angle_beta 90.000000
_cell_angle_gamma 90.000000
_cell_volume 7058.363715
_symmetry_space_group_name_H-M "I M M A"
_symmetry_group_IT_number 74
_symmetry_cell_setting 'orthorhombic'
loop_
_space_group_symop_operation_xyz
x,y,z
-x,1/2-y,z
x,-y,-z
-x,1/2+y,-z
-x,-y,-z
x,1/2+y,-z
-x,y,z
x,1/2-y,z
1/2+x,1/2+y,1/2+z
1/2-x,-y,1/2+z
1/2+x,1/2-y,1/2-z
1/2-x,y,1/2-z
1/2-x,1/2-y,1/2-z
1/2+x,y,1/2-z
1/2-x,1/2+y,1/2+z
1/2+x,-y,1/2+z
loop_
_atom_site_type_symbol
_atom_site_label
_atom_site_fract_x
_atom_site_fract_y
_atom_site_fract_z
Si Si1 0.346205 0.040042 0.114930
Si Si2 0.837073 0.807707 0.015910
Si Si3 0.848133 0.882089 0.534153
Si Si4 0.248409 0.037969 0.539275
Si Si5 0.157954 0.517799 0.794879
Si Si6 0.653479 0.875870 0.399147
Si Si7 0.343510 0.101258 0.706191
O O1 0.500000 0.039912 0.138350
O O2 0.317775 0.091727 0.086186
O O3 0.227754 0.036834 0.155285
O O4 0.343049 0.993666 0.077067
O O5 0.794066 0.750000 0.014096
O O6 0.782417 0.831488 0.067461
O O7 0.000000 0.815443 0.010031
O O8 0.762790 0.837681 0.972120
O O9 0.846066 0.923485 0.490914
O O10 0.000000 0.858067 0.533929
O O11 0.353323 0.071371 0.571189
O O12 0.322843 0.000000 0.500000
O O13 0.250000 0.538990 0.750000
O O14 0.158812 0.458300 0.793877
O O15 0.000000 0.537570 0.791799
O O16 0.500000 0.860438 0.386401
O O17 0.724957 0.880640 0.345653
O O18 0.500000 0.120190 0.713662
O O19 0.250000 0.123199 0.750000
#
# Coordination Sequence:
#
# PCOD8297496 Si02
#       7
#    16  16  16  16  16  16  16
#     4  10  18  28  43  63  91 122 150 181 216 258
#     4   9  18  32  49  67  87 113 146 185 229 273
#     4   9  18  30  44  65  90 118 149 179 218 265
#     4   9  16  26  40  60  87 118 149 179 213 258
#     4  10  19  30  43  61  87 120 157 189 221 259
#     4   9  16  28  43  62  86 111 145 186 226 270
#     4   9  17  29  42  59  83 111 146 185 222 263
#
# _framework density 15.867699999999999
#
# number of rings (size 3 to 8) (size 9 to 14) (size 15 to 20)
#    0.000    2.714    1.429    0.857    0.000    3.429 
#    0.000    3.571    0.000    0.429    0.000    0.000 
#    0.000    0.571    0.000    1.857    0.000    2.714 
#
# Total GULP energy -693806.074575 kJ/mol
# GULP energy per Si atom -12389.394189 kJ/mol
# Density = 1.583158 g / cm^3
# Si number density = 15.867700 Si / 1000 Ang^3
#
#
#
# Elastic Constant Matrix: (Units=GPa)
#
#
# Indices 1 2 3 4 5 6 
#
# 1 83.5880 30.1464 44.1768 0.0000 0.0000 0.0000
# 2 30.1464 75.0834 27.4077 0.0000 0.0000 0.0000
# 3 44.1768 27.4077 71.9764 0.0000 0.0000 0.0000
# 4 0.0000 0.0000 0.0000 13.6948 0.0000 0.0000
# 5 0.0000 0.0000 0.0000 0.0000 25.3829 0.0000
# 6 0.0000 0.0000 0.0000 0.0000 0.0000 15.8954
#
#
#
# Elastic Compliance Matrix: (Units=1/GPa)
#
#
# Indices 1 2 3 4 5 6 
#
# 1 0.018613 -0.003836 -0.009963 0.000000 0.000000 0.000000
# 2 -0.003836 0.016259 -0.003837 0.000000 0.000000 0.000000
# 3 -0.009963 -0.003837 0.021469 0.000000 0.000000 0.000000
# 4 0.000000 0.000000 0.000000 0.073020 0.000000 0.000000
# 5 0.000000 0.000000 0.000000 0.000000 0.039397 0.000000
# 6 0.000000 0.000000 0.000000 0.000000 0.000000 0.062911
#
#
# Mechanical properties :
#
#
# Convention : Reuss Voigt Hill
#
# Bulk Modulus (GPa) = 47.46256 48.23441 47.84849
# Shear Modulus (GPa) = 18.25055 19.58909 18.91982
#
# Velocity S-wave (km/s) = 3.39509 3.51739 3.45679
# Velocity P-wave (km/s) = 6.73389 6.85273 6.79357
#
# Compressibility (1/GPa) = 0.02106924
#
# Stress axis : x y z
#
# Youngs Moduli (GPa) = 53.72729 61.50315 46.57792
#
# Poissons Ratio (x) = 0.23594 0.46405
# Poissons Ratio (y) = 0.20611 0.17871
# Poissons Ratio (z) = 0.53528 0.23597
#
# Static dielectric constant tensor:
#      x y z
#    x 2.960110 0.000000 0.000000 
#    y 0.000000 2.756780 0.000000 
#    z 0.000000 0.000000 3.176410 
# 
# 
# High freq. dielectric constant tensor:
#      x y z
#    x 1.600980 0.000000 0.000000 
#    y 0.000000 1.565950 0.000000 
#    z 0.000000 0.000000 1.607890 
# 
# From -- ./inp_files/59140.got.cif
#   From: 2010.03.12/outbox.cif.g09.slc.cpg/sg74_30_cif.got.tgz:59140.got - 2010.04.16 15:46:19.
