data_PCOD8297949
_publ_section_title
;
Structure prediction by ZEFSAII (Michael W. Deem and Ramdas Pophale) SiO2 
 PCOD8297949
Probable space group: I M M A
;
_chemical_formula_sum "Si O2"
_cell_formula_units_Z 56
_cell_length_a 35.077333
_cell_length_b 8.586950
_cell_length_c 10.062122
_cell_angle_alpha 90.000000
_cell_angle_beta 90.000000
_cell_angle_gamma 90.000000
_cell_volume 3030.784646
_symmetry_space_group_name_H-M "I M M A"
_symmetry_group_IT_number 74
_symmetry_cell_setting 'orthorhombic'
loop_
_space_group_symop_operation_xyz
x,y,z
-x,1/2-y,z
x,-y,-z
-x,1/2+y,-z
-x,-y,-z
x,1/2+y,-z
-x,y,z
x,1/2-y,z
1/2+x,1/2+y,1/2+z
1/2-x,-y,1/2+z
1/2+x,1/2-y,1/2-z
1/2-x,y,1/2-z
1/2-x,1/2-y,1/2-z
1/2+x,y,1/2-z
1/2-x,1/2+y,1/2+z
1/2+x,-y,1/2+z
loop_
_atom_site_type_symbol
_atom_site_label
_atom_site_fract_x
_atom_site_fract_y
_atom_site_fract_z
Si Si1 0.777840 0.933376 0.138246
Si Si2 0.000000 0.434808 0.647649
Si Si3 0.922201 0.434166 0.352595
Si Si4 0.864998 0.065593 0.858372
O O1 0.774434 0.750000 0.132631
O O2 0.750000 0.003719 0.250000
O O3 0.821255 0.984047 0.165914
O O4 0.762938 0.000000 0.000000
O O5 0.000000 0.500000 0.500000
O O6 0.038743 0.499369 0.714266
O O7 0.000000 0.250000 0.650722
O O8 0.915355 0.500000 0.500000
O O9 0.924811 0.250000 0.361719
O O10 0.887757 0.485346 0.259836
O O11 0.871027 0.250000 0.855104
O O12 0.879228 0.000000 0.000000
#
# Coordination Sequence:
#
# PCOD8297949 Si02
#       4
#    16   8  16  16
#     4   9  19  35  54  77 105 137 174 216 261 311
#     4  10  18  32  53  78 107 138 173 216 264 310
#     4  11  21  35  55  80 108 140 178 219 263 311
#     4  10  20  36  55  77 107 142 178 217 265 317
#
# _framework density 18.477063000000001
#
# number of rings (size 3 to 8) (size 9 to 14) (size 15 to 20)
#    0.000    2.000    0.000    6.429    0.000    2.857 
#    0.000    3.571    0.000    0.000    0.000    0.000 
#    0.000    0.000    0.000    0.000    0.000    0.000 
#
# Total GULP energy -347196.485628 kJ/mol
# GULP energy per Si atom -12399.874487 kJ/mol
# Density = 1.843501 g / cm^3
# Si number density = 18.477063 Si / 1000 Ang^3
#
#
#
# Elastic Constant Matrix: (Units=GPa)
#
#
# Indices 1 2 3 4 5 6 
#
# 1 113.0891 45.4330 84.6861 0.0000 0.0000 0.0000
# 2 45.4330 118.2914 47.1034 0.0000 0.0000 0.0000
# 3 84.6861 47.1034 126.7330 0.0000 0.0000 0.0000
# 4 0.0000 0.0000 0.0000 32.6997 0.0000 0.0000
# 5 0.0000 0.0000 0.0000 0.0000 41.8339 0.0000
# 6 0.0000 0.0000 0.0000 0.0000 0.0000 19.9360
#
#
#
# Elastic Compliance Matrix: (Units=1/GPa)
#
#
# Indices 1 2 3 4 5 6 
#
# 1 0.018326 -0.002538 -0.011303 0.000000 0.000000 0.000000
# 2 -0.002538 0.010274 -0.002123 0.000000 0.000000 0.000000
# 3 -0.011303 -0.002123 0.016232 0.000000 0.000000 0.000000
# 4 0.000000 0.000000 0.000000 0.030581 0.000000 0.000000
# 5 0.000000 0.000000 0.000000 0.000000 0.023904 0.000000
# 6 0.000000 0.000000 0.000000 0.000000 0.000000 0.050161
#
#
# Mechanical properties :
#
#
# Convention : Reuss Voigt Hill
#
# Bulk Modulus (GPa) = 77.48520 79.17317 78.32919
# Shear Modulus (GPa) = 26.92424 30.95332 28.93878
#
# Velocity S-wave (km/s) = 3.82143 4.09740 3.96182
# Velocity P-wave (km/s) = 7.84207 8.08253 7.96321
#
# Compressibility (1/GPa) = 0.01290569
#
# Stress axis : x y z
#
# Youngs Moduli (GPa) = 54.56676 97.33635 61.60573
#
# Poissons Ratio (x) = 0.24703 0.69631
# Poissons Ratio (y) = 0.13849 0.13076
# Poissons Ratio (z) = 0.61675 0.20660
#
# Static dielectric constant tensor:
#      x y z
#    x 3.953420 0.000000 0.000000 
#    y 0.000000 3.465970 0.000000 
#    z 0.000000 0.000000 3.272050 
# 
# 
# High freq. dielectric constant tensor:
#      x y z
#    x 1.726650 0.000000 0.000000 
#    y 0.000000 1.730060 0.000000 
#    z 0.000000 0.000000 1.700770 
# 
# From -- ./inp_files/17259.got.cif
#   From: 2010.03.12/outbox.cif.g09.slc.cpg/sg74_9_cif.got.tgz:17259.got - 2010.04.16 15:46:19.
