data_PCOD8297295
_publ_section_title
;
Structure prediction by ZEFSAII (Michael W. Deem and Ramdas Pophale) SiO2 
 PCOD8297295
Probable space group: I M M A
;
_chemical_formula_sum "Si O2"
_cell_formula_units_Z 128
_cell_length_a 18.222472
_cell_length_b 18.395774
_cell_length_c 24.965907
_cell_angle_alpha 90.000000
_cell_angle_beta 90.000000
_cell_angle_gamma 90.000000
_cell_volume 8368.983380
_symmetry_space_group_name_H-M "I M M A"
_symmetry_group_IT_number 74
_symmetry_cell_setting 'orthorhombic'
loop_
_space_group_symop_operation_xyz
x,y,z
-x,1/2-y,z
x,-y,-z
-x,1/2+y,-z
-x,-y,-z
x,1/2+y,-z
-x,y,z
x,1/2-y,z
1/2+x,1/2+y,1/2+z
1/2-x,-y,1/2+z
1/2+x,1/2-y,1/2-z
1/2-x,y,1/2-z
1/2-x,1/2-y,1/2-z
1/2+x,y,1/2-z
1/2-x,1/2+y,1/2+z
1/2+x,-y,1/2+z
loop_
_atom_site_type_symbol
_atom_site_label
_atom_site_fract_x
_atom_site_fract_y
_atom_site_fract_z
Si Si1 0.168785 0.090197 0.351066
Si Si2 0.792042 0.332802 0.805750
Si Si3 0.916403 0.568440 0.464319
Si Si4 0.083495 0.417165 0.245680
Si Si5 0.329567 0.423056 0.855530
Si Si6 0.916566 0.168019 0.440049
Si Si7 0.583969 0.912465 0.249781
Si Si8 0.295668 0.168205 0.304354
O O1 0.113415 0.109675 0.302994
O O2 0.128652 0.109939 0.405803
O O3 0.243722 0.136122 0.350379
O O4 0.191699 0.006562 0.346862
O O5 0.802738 0.250000 0.825132
O O6 0.750000 0.337151 0.750000
O O7 0.745169 0.375843 0.850842
O O8 0.871252 0.369532 0.795725
O O9 0.888859 0.500000 0.500000
O O10 0.865504 0.584496 0.413616
O O11 0.912304 0.642113 0.498706
O O12 0.000000 0.552616 0.445061
O O13 0.091477 0.502757 0.237683
O O14 0.129815 0.378076 0.199133
O O15 0.000000 0.391339 0.240829
O O16 0.386503 0.396154 0.810058
O O17 0.884997 0.250000 0.435278
O O18 0.000000 0.166186 0.419591
O O19 0.500000 0.886170 0.252431
O O20 0.317281 0.250000 0.318873
O O21 0.250000 0.162253 0.250000
#
# Coordination Sequence:
#
# PCOD8297295 Si02
#       8
#    16  16  16  16  16  16  16  16
#     4  10  17  28  44  61  82 113 151 185 220 261
#     4   9  18  31  45  65  93 121 150 188 232 278
#     4  10  19  31  46  65  90 120 157 195 228 264
#     4   9  17  27  41  61  85 112 146 184 219 261
#     4  10  18  29  48  67  88 121 156 188 228 270
#     4  10  20  31  43  62  88 116 147 187 229 263
#     4   9  17  29  46  68  91 118 152 187 225 273
#     4   9  17  27  38  55  81 112 144 179 218 260
#
# _framework density 15.29457
#
# number of rings (size 3 to 8) (size 9 to 14) (size 15 to 20)
#    0.000    2.500    1.250    1.875    0.000    5.500 
#    0.000    0.000    0.000    2.250    0.000    0.000 
#    0.000    1.500    0.000    2.750    0.000    0.625 
#
# Total GULP energy -793486.794975 kJ/mol
# GULP energy per Si atom -12398.231171 kJ/mol
# Density = 1.525976 g / cm^3
# Si number density = 15.294570 Si / 1000 Ang^3
#
#
#
# Elastic Constant Matrix: (Units=GPa)
#
#
# Indices 1 2 3 4 5 6 
#
# 1 109.3448 49.1467 44.8874 0.0000 0.0000 0.0000
# 2 49.1467 75.6281 27.3218 0.0000 0.0000 0.0000
# 3 44.8874 27.3218 62.5352 0.0000 0.0000 0.0000
# 4 0.0000 0.0000 0.0000 18.5919 0.0000 0.0000
# 5 0.0000 0.0000 0.0000 0.0000 24.0379 0.0000
# 6 0.0000 0.0000 0.0000 0.0000 0.0000 22.8250
#
#
#
# Elastic Compliance Matrix: (Units=1/GPa)
#
#
# Indices 1 2 3 4 5 6 
#
# 1 0.015766 -0.007311 -0.008122 0.000000 0.000000 0.000000
# 2 -0.007311 0.019091 -0.003093 0.000000 0.000000 0.000000
# 3 -0.008122 -0.003093 0.023173 0.000000 0.000000 0.000000
# 4 0.000000 0.000000 0.000000 0.053787 0.000000 0.000000
# 5 0.000000 0.000000 0.000000 0.000000 0.041601 0.000000
# 6 0.000000 0.000000 0.000000 0.000000 0.000000 0.043812
#
#
# Mechanical properties :
#
#
# Convention : Reuss Voigt Hill
#
# Bulk Modulus (GPa) = 47.67267 54.46886 51.07077
# Shear Modulus (GPa) = 20.72333 21.50111 21.11222
#
# Velocity S-wave (km/s) = 3.68495 3.75347 3.71937
# Velocity P-wave (km/s) = 7.02442 7.38073 7.20478
#
# Compressibility (1/GPa) = 0.02097638
#
# Stress axis : x y z
#
# Youngs Moduli (GPa) = 63.42865 52.38049 43.15439
#
# Poissons Ratio (x) = 0.38295 0.35052
# Poissons Ratio (y) = 0.46373 0.13348
# Poissons Ratio (z) = 0.51519 0.16202
#
# Static dielectric constant tensor:
#      x y z
#    x 2.935690 0.000000 0.000000 
#    y 0.000000 3.019380 0.000000 
#    z 0.000000 0.000000 2.628230 
# 
# 
# High freq. dielectric constant tensor:
#      x y z
#    x 1.573850 0.000000 0.000000 
#    y 0.000000 1.596370 0.000000 
#    z 0.000000 0.000000 1.546120 
# 
# From -- ./inp_files/53398.got.cif
#   From: 2010.03.12/outbox.cif.g09.slc.cpg/sg74_27_cif.got.tgz:53398.got - 2010.04.16 15:46:19.
