data_PCOD8297406
_publ_section_title
;
Structure prediction by ZEFSAII (Michael W. Deem and Ramdas Pophale) SiO2 
 PCOD8297406
Probable space group: I M M A
;
_chemical_formula_sum "Si O2"
_cell_formula_units_Z 96
_cell_length_a 13.234077
_cell_length_b 34.175872
_cell_length_c 11.890916
_cell_angle_alpha 90.000000
_cell_angle_beta 90.000000
_cell_angle_gamma 90.000000
_cell_volume 5378.096280
_symmetry_space_group_name_H-M "I M M A"
_symmetry_group_IT_number 74
_symmetry_cell_setting 'orthorhombic'
loop_
_space_group_symop_operation_xyz
x,y,z
-x,1/2-y,z
x,-y,-z
-x,1/2+y,-z
-x,-y,-z
x,1/2+y,-z
-x,y,z
x,1/2-y,z
1/2+x,1/2+y,1/2+z
1/2-x,-y,1/2+z
1/2+x,1/2-y,1/2-z
1/2-x,y,1/2-z
1/2-x,1/2-y,1/2-z
1/2+x,y,1/2-z
1/2-x,1/2+y,1/2+z
1/2+x,-y,1/2+z
loop_
_atom_site_type_symbol
_atom_site_label
_atom_site_fract_x
_atom_site_fract_y
_atom_site_fract_z
Si Si1 0.885583 0.618519 0.968080
Si Si2 0.890252 0.366882 0.295382
Si Si3 0.382410 0.750000 0.953734
Si Si4 0.818724 0.965148 0.922945
Si Si5 0.611488 0.955450 0.826197
Si Si6 0.743493 0.184640 0.432990
Si Si7 0.882928 0.750000 0.814140
O O1 0.883524 0.628459 0.837134
O O2 0.837671 0.575690 0.989230
O O3 0.814497 0.653828 0.017358
O O4 0.000000 0.619870 0.016766
O O5 0.876290 0.409467 0.349333
O O6 0.804452 0.338951 0.339092
O O7 0.000000 0.349314 0.328629
O O8 0.500000 0.750000 0.987944
O O9 0.324277 0.711545 0.001950
O O10 0.362079 0.750000 0.819295
O O11 0.700333 0.974701 0.899351
O O12 0.878914 0.964756 0.806090
O O13 0.861449 0.000000 0.000000
O O14 0.500000 0.970015 0.864881
O O15 0.661544 0.211047 0.369141
O O16 0.000000 0.750000 0.840930
#
# Coordination Sequence:
#
# PCOD8297406 Si02
#       7
#    16  16   8  16  16  16   8
#     4  10  18  26  38  55  74 100 134 172 214 255
#     4   9  15  24  39  54  70  95 130 170 209 247
#     4  10  19  25  32  49  71  96 129 171 214 251
#     4  10  19  31  46  65  88 111 141 184 228 266
#     4   9  18  31  46  64  85 111 142 177 221 267
#     4  11  17  25  37  49  70  98 134 174 211 249
#     4  10  19  25  30  45  69  98 129 167 210 246
#
# _framework density 17.850182
#
# number of rings (size 3 to 8) (size 9 to 14) (size 15 to 20)
#    0.000    2.167    1.667    6.000    0.000    4.333 
#    0.000    0.000    0.000    0.000    0.000    0.000 
#    0.000    0.000    0.000    0.000    0.000   13.333 
#
# Total GULP energy -594734.716875 kJ/mol
# GULP energy per Si atom -12390.306602 kJ/mol
# Density = 1.780955 g / cm^3
# Si number density = 17.850182 Si / 1000 Ang^3
#
#
#
# Elastic Constant Matrix: (Units=GPa)
#
#
# Indices 1 2 3 4 5 6 
#
# 1 125.2575 53.7018 9.6912 -0.0003 0.0004 0.0001
# 2 53.7018 123.5259 19.1952 0.0021 -0.0005 -0.0004
# 3 9.6912 19.1952 8.9422 0.0109 -0.0045 -0.0013
# 4 -0.0003 0.0021 0.0109 12.7202 -0.0020 -0.0007
# 5 0.0004 -0.0005 -0.0045 -0.0020 4.4096 0.0007
# 6 0.0001 -0.0004 -0.0013 -0.0007 0.0007 20.7570
#
#
#
# Elastic Compliance Matrix: (Units=1/GPa)
#
#
# Indices 1 2 3 4 5 6 
#
# 1 0.009842 -0.003933 -0.002223 0.000003 -0.000004 0.000000
# 2 -0.003933 0.013719 -0.025187 0.000019 -0.000024 -0.000001
# 3 -0.002223 -0.025187 0.168306 -0.000141 0.000170 0.000010
# 4 0.000003 0.000019 -0.000141 0.078615 0.000036 0.000003
# 5 -0.000004 -0.000024 0.000170 0.000036 0.226776 -0.000008
# 6 0.000000 -0.000001 0.000010 0.000003 -0.000008 0.048177
#
#
# Mechanical properties :
#
#
# Convention : Reuss Voigt Hill
#
# Bulk Modulus (GPa) = 7.74113 46.98910 27.36512
# Shear Modulus (GPa) = 7.67834 19.25320 13.46577
#
# Velocity S-wave (km/s) = 2.07627 3.28777 2.74957
# Velocity P-wave (km/s) = 3.17710 6.38701 5.04420
#
# Compressibility (1/GPa) = 0.12918006
#
# Stress axis : x y z
#
# Youngs Moduli (GPa) = 101.60702 72.88991 5.94155
#
# Poissons Ratio (x) = 0.28669 0.01321
# Poissons Ratio (y) = 0.39964 0.14965
# Poissons Ratio (z) = 0.22590 1.83590
#
# Static dielectric constant tensor:
#      x y z
#    x 4.018120 0.000000 0.000000 
#    y 0.000000 3.741020 0.000000 
#    z 0.000000 0.000000 2.352590 
# 
# 
# High freq. dielectric constant tensor:
#      x y z
#    x 1.726650 0.000000 0.000000 
#    y 0.000000 1.704960 0.000000 
#    z 0.000000 0.000000 1.568850 
# 
# From -- ./inp_files/43323.got.cif
#   From: 2010.03.12/outbox.cif.g09.slc.cpg/sg74_22_cif.got.tgz:43323.got - 2010.04.16 15:46:19.
