data_PCOD8297346
_publ_section_title
;
Structure prediction by ZEFSAII (Michael W. Deem and Ramdas Pophale) SiO2 
 PCOD8297346
Probable space group: I M M A
;
_chemical_formula_sum "Si O2"
_cell_formula_units_Z 128
_cell_length_a 19.398628
_cell_length_b 21.276216
_cell_length_c 17.872070
_cell_angle_alpha 90.000000
_cell_angle_beta 90.000000
_cell_angle_gamma 90.000000
_cell_volume 7376.328718
_symmetry_space_group_name_H-M "I M M A"
_symmetry_group_IT_number 74
_symmetry_cell_setting 'orthorhombic'
loop_
_space_group_symop_operation_xyz
x,y,z
-x,1/2-y,z
x,-y,-z
-x,1/2+y,-z
-x,-y,-z
x,1/2+y,-z
-x,y,z
x,1/2-y,z
1/2+x,1/2+y,1/2+z
1/2-x,-y,1/2+z
1/2+x,1/2-y,1/2-z
1/2-x,y,1/2-z
1/2-x,1/2-y,1/2-z
1/2+x,y,1/2-z
1/2-x,1/2+y,1/2+z
1/2+x,-y,1/2+z
loop_
_atom_site_type_symbol
_atom_site_label
_atom_site_fract_x
_atom_site_fract_y
_atom_site_fract_z
Si Si1 0.671971 0.320396 0.152475
Si Si2 0.423385 0.820809 0.984296
Si Si3 0.078487 0.623977 0.768765
Si Si4 0.225876 0.433686 0.973158
Si Si5 0.922475 0.485306 0.714682
Si Si6 0.697416 0.041060 0.684571
Si Si7 0.199803 0.098634 0.129461
Si Si8 0.615138 0.944890 0.051952
O O1 0.699307 0.250000 0.146766
O O2 0.632543 0.340145 0.077182
O O3 0.616431 0.324006 0.219180
O O4 0.739022 0.362286 0.168572
O O5 0.500000 0.820269 0.948627
O O6 0.408066 0.750000 0.017006
O O7 0.421714 0.876616 0.045825
O O8 0.079255 0.560274 0.720576
O O9 0.123062 0.617063 0.844447
O O10 0.000000 0.643607 0.789142
O O11 0.199992 0.414122 0.889530
O O12 0.307500 0.435751 0.973776
O O13 0.194002 0.500000 0.000000
O O14 0.201682 0.387151 0.039846
O O15 0.879590 0.455228 0.782880
O O16 0.887721 0.466542 0.637173
O O17 0.000000 0.459128 0.720006
O O18 0.750000 0.062231 0.750000
O O19 0.718136 0.972376 0.653884
O O20 0.581009 0.000000 0.000000
#
# Coordination Sequence:
#
# PCOD8297346 Si02
#       8
#    16  16  16  16  16  16  16  16
#     4  11  21  33  49  70  96 132 173 209 244 290
#     4  10  21  34  47  69 107 146 168 193 246 306
#     4  10  21  34  48  68  99 134 165 208 255 290
#     4   9  18  29  48  73  96 124 164 206 247 292
#     4  10  20  31  47  74 102 129 163 202 249 301
#     4  10  17  30  49  70  98 131 155 201 254 298
#     4  10  19  33  49  68  97 127 168 207 245 297
#     4  11  19  30  50  76 103 132 169 212 248 297
#
# _framework density 17.352806000000001
#
# number of rings (size 3 to 8) (size 9 to 14) (size 15 to 20)
#    0.000    1.875    2.500    3.375    1.750    3.750 
#    0.000    0.625    0.000    3.750    0.000    2.625 
#    0.000    0.000    0.000    0.000    0.000    0.000 
#
# Total GULP energy -793144.387145 kJ/mol
# GULP energy per Si atom -12392.881049 kJ/mol
# Density = 1.731331 g / cm^3
# Si number density = 17.352806 Si / 1000 Ang^3
#
#
#
# Elastic Constant Matrix: (Units=GPa)
#
#
# Indices 1 2 3 4 5 6 
#
# 1 96.7048 25.5476 43.6921 0.0000 0.0000 0.0000
# 2 25.5476 52.9776 27.5876 0.0000 0.0000 0.0000
# 3 43.6921 27.5876 118.7340 0.0000 0.0000 0.0000
# 4 0.0000 0.0000 0.0000 16.5443 0.0000 0.0000
# 5 0.0000 0.0000 0.0000 0.0000 23.6905 0.0000
# 6 0.0000 0.0000 0.0000 0.0000 0.0000 14.1493
#
#
#
# Elastic Compliance Matrix: (Units=1/GPa)
#
#
# Indices 1 2 3 4 5 6 
#
# 1 0.013239 -0.004377 -0.003855 0.000000 0.000000 0.000000
# 2 -0.004377 0.022921 -0.003715 0.000000 0.000000 0.000000
# 3 -0.003855 -0.003715 0.010704 0.000000 0.000000 0.000000
# 4 0.000000 0.000000 0.000000 0.060444 0.000000 0.000000
# 5 0.000000 0.000000 0.000000 0.000000 0.042211 0.000000
# 6 0.000000 0.000000 0.000000 0.000000 0.000000 0.070675
#
#
# Mechanical properties :
#
#
# Convention : Reuss Voigt Hill
#
# Bulk Modulus (GPa) = 43.53414 51.34121 47.43767
# Shear Modulus (GPa) = 19.86153 22.31610 21.08881
#
# Velocity S-wave (km/s) = 3.38682 3.59001 3.48989
# Velocity P-wave (km/s) = 6.35895 6.84362 6.60573
#
# Compressibility (1/GPa) = 0.02297048
#
# Stress axis : x y z
#
# Youngs Moduli (GPa) = 75.53682 43.62779 93.42454
#
# Poissons Ratio (x) = 0.19095 0.36012
# Poissons Ratio (y) = 0.33061 0.34708
# Poissons Ratio (z) = 0.29117 0.16208
#
# Static dielectric constant tensor:
#      x y z
#    x 3.256720 0.000000 0.000000 
#    y 0.000000 3.016690 0.000000 
#    z 0.000000 0.000000 3.341710 
# 
# 
# High freq. dielectric constant tensor:
#      x y z
#    x 1.670360 0.000000 0.000000 
#    y 0.000000 1.630020 0.000000 
#    z 0.000000 0.000000 1.663370 
# 
# From -- ./inp_files/45598.got.cif
#   From: 2010.03.12/outbox.cif.g09.slc.cpg/sg74_23_cif.got.tgz:45598.got - 2010.04.16 15:46:19.
