data_PCOD8297132
_publ_section_title
;
Structure prediction by ZEFSAII (Michael W. Deem and Ramdas Pophale) SiO2 
 PCOD8297132
Probable space group: I M M A
;
_chemical_formula_sum "Si O2"
_cell_formula_units_Z 84
_cell_length_a 20.577569
_cell_length_b 12.080929
_cell_length_c 15.852534
_cell_angle_alpha 90.000000
_cell_angle_beta 90.000000
_cell_angle_gamma 90.000000
_cell_volume 3940.878921
_symmetry_space_group_name_H-M "I M M A"
_symmetry_group_IT_number 74
_symmetry_cell_setting 'orthorhombic'
loop_
_space_group_symop_operation_xyz
x,y,z
-x,1/2-y,z
x,-y,-z
-x,1/2+y,-z
-x,-y,-z
x,1/2+y,-z
-x,y,z
x,1/2-y,z
1/2+x,1/2+y,1/2+z
1/2-x,-y,1/2+z
1/2+x,1/2-y,1/2-z
1/2-x,y,1/2-z
1/2-x,1/2-y,1/2-z
1/2+x,y,1/2-z
1/2-x,1/2+y,1/2+z
1/2+x,-y,1/2+z
loop_
_atom_site_type_symbol
_atom_site_label
_atom_site_fract_x
_atom_site_fract_y
_atom_site_fract_z
Si Si1 0.000000 0.250000 0.507930
Si Si2 0.500000 0.877241 0.677647
Si Si3 0.745038 0.623967 0.648995
Si Si4 0.423905 0.750000 0.328336
Si Si5 0.884143 0.750000 0.364044
Si Si6 0.000000 0.563083 0.627593
Si Si7 0.876187 0.988962 0.157309
Si Si8 0.638328 0.016692 0.853046
O O1 0.936402 0.250000 0.563245
O O2 0.000000 0.147421 0.446914
O O3 0.500000 0.750000 0.649923
O O4 0.500000 0.883165 0.779423
O O5 0.561304 0.937349 0.635327
O O6 0.736302 0.750000 0.616611
O O7 0.750000 0.623147 0.750000
O O8 0.686633 0.545839 0.613474
O O9 0.811592 0.573094 0.608696
O O10 0.500000 0.750000 0.353088
O O11 0.419722 0.750000 0.227045
O O12 0.388804 0.640122 0.366754
O O13 0.838302 0.858084 0.373160
O O14 0.064567 0.490575 0.613198
O O15 0.861916 0.002050 0.254644
#
# Coordination Sequence:
#
# PCOD8297132 Si02
#       8
#     4   8  16   8   8   8  16  16
#     4  12  22  32  48  64  90 110 166 218 244 280
#     4  10  16  26  41  62  91 114 149 190 227 273
#     4   9  17  29  44  63  84 108 142 188 228 273
#     4  10  16  29  43  60  90 119 149 180 232 267
#     4  10  20  31  44  60  82 114 150 198 244 268
#     4  10  21  30  44  66  80 119 156 199 251 268
#     4   9  17  26  43  64  83 115 148 180 221 274
#     4   9  19  31  45  59  84 112 149 192 241 278
#
# _framework density 21.315041999999998
#
# number of rings (size 3 to 8) (size 9 to 14) (size 15 to 20)
#    0.000    2.476    1.905    1.143    4.000    4.571 
#    0.000    3.810    0.000    0.000    0.000    0.000 
#    0.000    0.000    0.000    0.000    0.000    5.714 
#
# Total GULP energy -520362.471898 kJ/mol
# GULP energy per Si atom -12389.582664 kJ/mol
# Density = 2.126653 g / cm^3
# Si number density = 21.315042 Si / 1000 Ang^3
#
#
#
# Elastic Constant Matrix: (Units=GPa)
#
#
# Indices 1 2 3 4 5 6 
#
# 1 159.8714 102.7445 4.9077 0.0000 0.0000 0.0000
# 2 102.7445 215.9761 -0.5919 0.0000 0.0000 0.0000
# 3 4.9077 -0.5919 6.3478 0.0000 0.0000 0.0000
# 4 0.0000 0.0000 0.0000 8.2149 0.0000 0.0000
# 5 0.0000 0.0000 0.0000 0.0000 -1.0287 0.0000
# 6 0.0000 0.0000 0.0000 0.0000 0.0000 39.9006
#
#
#
# Elastic Compliance Matrix: (Units=1/GPa)
#
#
# Indices 1 2 3 4 5 6 
#
# 1 0.009368 -0.004477 -0.007660 0.000000 0.000000 0.000000
# 2 -0.004477 0.006771 0.004093 0.000000 0.000000 0.000000
# 3 -0.007660 0.004093 0.163838 0.000000 0.000000 0.000000
# 4 0.000000 0.000000 0.000000 0.121730 0.000000 0.000000
# 5 0.000000 0.000000 0.000000 0.000000 -0.972114 0.000000
# 6 0.000000 0.000000 0.000000 0.000000 0.000000 0.025062
#
#
# Mechanical properties :
#
#
# Convention : Reuss Voigt Hill
#
# Bulk Modulus (GPa) = 6.10170 66.25733 36.17952
# Shear Modulus (GPa) = -8.70130 27.75971 9.52920
#
# Velocity S-wave (km/s) = -2.02265 3.61273 2.11668
# Velocity P-wave (km/s) = 1.60809 6.96812 4.79420
#
# Compressibility (1/GPa) = 0.16388867
#
# Stress axis : x y z
#
# Youngs Moduli (GPa) = 106.75031 147.68099 6.10358
#
# Poissons Ratio (x) = 0.66123 0.04675
# Poissons Ratio (y) = 0.47796 -0.02498
# Poissons Ratio (z) = 0.81770 -0.60446
#
# Static dielectric constant tensor:
#      x y z
#    x 5.129140 0.000000 0.000000 
#    y 0.000000 4.179240 0.000000 
#    z 0.000000 0.000000 3.074540 
# 
# 
# High freq. dielectric constant tensor:
#      x y z
#    x 1.832330 0.000000 0.000000 
#    y 0.000000 1.858320 0.000000 
#    z 0.000000 0.000000 1.761730 
# 
# From -- ./inp_files/53858.got.cif
#   From: 2010.03.12/outbox.cif.g09.slc.cpg/sg74_27_cif.got.tgz:53858.got - 2010.04.16 15:46:19.
