data_PCOD8297389
_publ_section_title
;
Structure prediction by ZEFSAII (Michael W. Deem and Ramdas Pophale) SiO2 
 PCOD8297389
Probable space group: I M M A
;
_chemical_formula_sum "Si O2"
_cell_formula_units_Z 80
_cell_length_a 28.214719
_cell_length_b 7.595970
_cell_length_c 22.189732
_cell_angle_alpha 90.000000
_cell_angle_beta 90.000000
_cell_angle_gamma 90.000000
_cell_volume 4755.662513
_symmetry_space_group_name_H-M "I M M A"
_symmetry_group_IT_number 74
_symmetry_cell_setting 'orthorhombic'
loop_
_space_group_symop_operation_xyz
x,y,z
-x,1/2-y,z
x,-y,-z
-x,1/2+y,-z
-x,-y,-z
x,1/2+y,-z
-x,y,z
x,1/2-y,z
1/2+x,1/2+y,1/2+z
1/2-x,-y,1/2+z
1/2+x,1/2-y,1/2-z
1/2-x,y,1/2-z
1/2-x,1/2-y,1/2-z
1/2+x,y,1/2-z
1/2-x,1/2+y,1/2+z
1/2+x,-y,1/2+z
loop_
_atom_site_type_symbol
_atom_site_label
_atom_site_fract_x
_atom_site_fract_y
_atom_site_fract_z
Si Si1 0.326209 0.750000 0.271652
Si Si2 0.000000 0.441952 0.623334
Si Si3 0.000000 0.556546 0.751762
Si Si4 0.402041 0.452255 0.107712
Si Si5 0.301815 0.457611 0.066898
Si Si6 0.734552 0.750000 0.151917
Si Si7 0.602594 0.042618 0.248711
O O1 0.302640 0.750000 0.206167
O O2 0.287894 0.750000 0.324155
O O3 0.357665 0.574156 0.281026
O O4 0.048384 0.462868 0.584334
O O5 0.000000 0.250000 0.653257
O O6 0.000000 0.578519 0.678737
O O7 0.949593 0.471715 0.771475
O O8 0.000000 0.750000 0.779478
O O9 0.406875 0.250000 0.093976
O O10 0.356423 0.524675 0.071860
O O11 0.393721 0.493584 0.177782
O O12 0.296498 0.250000 0.082779
O O13 0.270932 0.571867 0.113158
O O14 0.283559 0.500000 0.000000
O O15 0.610231 0.250000 0.263151
#
# Coordination Sequence:
#
# PCOD8297389 Si02
#       7
#     8   8   8  16  16   8  16
#     4  11  22  33  54  74 106 141 164 223 258 312
#     4  10  18  22  41  67  92 126 161 209 256 304
#     4   8  16  26  40  65  97 132 168 202 237 295
#     4   9  18  31  45  66  94 127 167 212 259 304
#     4  11  22  37  58  74  93 129 174 224 265 307
#     4  11  24  38  50  78 104 127 180 220 270 309
#     4   9  17  30  47  71 102 136 170 204 250 302
#
# _framework density 16.822051999999999
#
# number of rings (size 3 to 8) (size 9 to 14) (size 15 to 20)
#    0.000    2.200    3.000    2.100    7.000    0.800 
#    0.000    2.500    0.000    0.000    0.000    0.000 
#    0.000    0.000    0.000    3.600    0.000    0.400 
#
# Total GULP energy -495551.176650 kJ/mol
# GULP energy per Si atom -12388.779416 kJ/mol
# Density = 1.678376 g / cm^3
# Si number density = 16.822052 Si / 1000 Ang^3
#
#
#
# Elastic Constant Matrix: (Units=GPa)
#
#
# Indices 1 2 3 4 5 6 
#
# 1 128.5095 56.1545 47.5039 0.0000 0.0000 0.0000
# 2 56.1545 91.6008 31.5649 0.0000 0.0000 0.0000
# 3 47.5039 31.5649 53.6783 0.0000 0.0000 0.0000
# 4 0.0000 0.0000 0.0000 15.7529 0.0000 0.0000
# 5 0.0000 0.0000 0.0000 0.0000 17.1758 0.0000
# 6 0.0000 0.0000 0.0000 0.0000 0.0000 28.5117
#
#
#
# Elastic Compliance Matrix: (Units=1/GPa)
#
#
# Indices 1 2 3 4 5 6 
#
# 1 0.013233 -0.005113 -0.008705 0.000000 0.000000 0.000000
# 2 -0.005113 0.015667 -0.004688 0.000000 0.000000 0.000000
# 3 -0.008705 -0.004688 0.029089 0.000000 0.000000 0.000000
# 4 0.000000 0.000000 0.000000 0.063480 0.000000 0.000000
# 5 0.000000 0.000000 0.000000 0.000000 0.058222 0.000000
# 6 0.000000 0.000000 0.000000 0.000000 0.000000 0.035073
#
#
# Mechanical properties :
#
#
# Convention : Reuss Voigt Hill
#
# Bulk Modulus (GPa) = 47.66702 60.47058 54.06880
# Shear Modulus (GPa) = 19.32227 21.52575 20.42401
#
# Velocity S-wave (km/s) = 3.39282 3.58105 3.48820
# Velocity P-wave (km/s) = 6.61406 7.28861 6.95951
#
# Compressibility (1/GPa) = 0.02097887
#
# Stress axis : x y z
#
# Youngs Moduli (GPa) = 75.56613 63.82940 34.37674
#
# Poissons Ratio (x) = 0.32636 0.29924
# Poissons Ratio (y) = 0.38637 0.16115
# Poissons Ratio (z) = 0.65777 0.29922
#
# Static dielectric constant tensor:
#      x y z
#    x 3.355390 0.000000 0.000000 
#    y 0.000000 3.180030 0.000000 
#    z 0.000000 0.000000 2.594340 
# 
# 
# High freq. dielectric constant tensor:
#      x y z
#    x 1.650050 0.000000 0.000000 
#    y 0.000000 1.660710 0.000000 
#    z 0.000000 0.000000 1.572310 
# 
# From -- ./inp_files/54469.got.cif
#   From: 2010.03.12/outbox.cif.g09.slc.cpg/sg74_28_cif.got.tgz:54469.got - 2010.04.16 15:46:19.
