data_PCOD8297225
_publ_section_title
;
Structure prediction by ZEFSAII (Michael W. Deem and Ramdas Pophale) SiO2 
 PCOD8297225
Probable space group: I M M A
;
_chemical_formula_sum "Si O2"
_cell_formula_units_Z 88
_cell_length_a 18.873063
_cell_length_b 14.456689
_cell_length_c 19.848846
_cell_angle_alpha 90.000000
_cell_angle_beta 90.000000
_cell_angle_gamma 90.000000
_cell_volume 5415.598885
_symmetry_space_group_name_H-M "I M M A"
_symmetry_group_IT_number 74
_symmetry_cell_setting 'orthorhombic'
loop_
_space_group_symop_operation_xyz
x,y,z
-x,1/2-y,z
x,-y,-z
-x,1/2+y,-z
-x,-y,-z
x,1/2+y,-z
-x,y,z
x,1/2-y,z
1/2+x,1/2+y,1/2+z
1/2-x,-y,1/2+z
1/2+x,1/2-y,1/2-z
1/2-x,y,1/2-z
1/2-x,1/2-y,1/2-z
1/2+x,y,1/2-z
1/2-x,1/2+y,1/2+z
1/2+x,-y,1/2+z
loop_
_atom_site_type_symbol
_atom_site_label
_atom_site_fract_x
_atom_site_fract_y
_atom_site_fract_z
Si Si1 0.284996 0.359580 0.821827
Si Si2 0.917034 0.449886 0.144384
Si Si3 0.371181 0.250000 0.525746
Si Si4 0.305965 0.561908 0.439504
Si Si5 0.418094 0.585019 0.242465
Si Si6 0.421401 0.250000 0.670355
Si Si7 0.420807 0.250000 0.381008
O O1 0.280160 0.250000 0.838651
O O2 0.250000 0.382662 0.750000
O O3 0.249864 0.420904 0.880003
O O4 0.366572 0.397550 0.820855
O O5 0.875923 0.511795 0.089848
O O6 0.908903 0.486456 0.221023
O O7 0.885075 0.345225 0.145255
O O8 0.000000 0.452210 0.122614
O O9 0.323050 0.340567 0.526074
O O10 0.420738 0.250000 0.590849
O O11 0.421667 0.250000 0.461692
O O12 0.273109 0.500000 0.500000
O O13 0.500000 0.600521 0.220646
O O14 0.387024 0.658077 0.298514
O O15 0.500000 0.250000 0.697788
O O16 0.500000 0.250000 0.353047
#
# Coordination Sequence:
#
# PCOD8297225 Si02
#       7
#    16  16   8  16  16   8   8
#     4  11  20  33  54  80 108 137 173 215 266 314
#     4  10  20  33  48  71 103 142 179 210 247 302
#     4  12  19  29  44  70 102 142 178 204 237 303
#     4  12  23  34  49  73 108 146 175 214 259 311
#     4  10  19  32  53  79 107 133 164 212 268 318
#     4  10  17  25  43  76 108 128 157 204 256 308
#     4  10  21  32  45  65 100 147 188 209 228 291
#
# _framework density 16.249358000000001
#
# number of rings (size 3 to 8) (size 9 to 14) (size 15 to 20)
#    0.000    1.273    7.273    0.273    0.000    1.091 
#    0.000    0.000    0.000    3.818    0.000    0.000 
#    0.000    0.000    0.000    0.000    0.000    0.000 
#
# Total GULP energy -545255.565630 kJ/mol
# GULP energy per Si atom -12392.171946 kJ/mol
# Density = 1.621237 g / cm^3
# Si number density = 16.249358 Si / 1000 Ang^3
#
#
#
# Elastic Constant Matrix: (Units=GPa)
#
#
# Indices 1 2 3 4 5 6 
#
# 1 68.3172 39.1464 40.6452 0.0000 0.0000 0.0000
# 2 39.1464 125.8012 42.9799 0.0000 0.0000 0.0000
# 3 40.6452 42.9799 69.2688 0.0000 0.0000 0.0000
# 4 0.0000 0.0000 0.0000 27.7392 0.0000 0.0000
# 5 0.0000 0.0000 0.0000 0.0000 24.9739 0.0000
# 6 0.0000 0.0000 0.0000 0.0000 0.0000 13.2527
#
#
#
# Elastic Compliance Matrix: (Units=1/GPa)
#
#
# Indices 1 2 3 4 5 6 
#
# 1 0.023523 -0.003305 -0.011752 0.000000 0.000000 0.000000
# 2 -0.003305 0.010552 -0.004608 0.000000 0.000000 0.000000
# 3 -0.011752 -0.004608 0.024192 0.000000 0.000000 0.000000
# 4 0.000000 0.000000 0.000000 0.036050 0.000000 0.000000
# 5 0.000000 0.000000 0.000000 0.000000 0.040042 0.000000
# 6 0.000000 0.000000 0.000000 0.000000 0.000000 0.075457
#
#
# Mechanical properties :
#
#
# Convention : Reuss Voigt Hill
#
# Bulk Modulus (GPa) = 52.80801 56.54779 54.67790
# Shear Modulus (GPa) = 19.57274 22.56753 21.07014
#
# Velocity S-wave (km/s) = 3.47439 3.73074 3.60484
# Velocity P-wave (km/s) = 6.97598 7.30982 7.14485
#
# Compressibility (1/GPa) = 0.01893652
#
# Stress axis : x y z
#
# Youngs Moduli (GPa) = 42.51111 94.77124 41.33654
#
# Poissons Ratio (x) = 0.31319 0.48580
# Poissons Ratio (y) = 0.14049 0.19048
# Poissons Ratio (z) = 0.49961 0.43671
#
# Static dielectric constant tensor:
#      x y z
#    x 3.010900 0.000000 0.000000 
#    y 0.000000 3.450440 0.000000 
#    z 0.000000 0.000000 2.830600 
# 
# 
# High freq. dielectric constant tensor:
#      x y z
#    x 1.604240 0.000000 0.000000 
#    y 0.000000 1.635820 0.000000 
#    z 0.000000 0.000000 1.587570 
# 
# From -- ./inp_files/32275.got.cif
#   From: 2010.03.12/outbox.cif.g09.slc.cpg/sg74_17_cif.got.tgz:32275.got - 2010.04.16 15:46:19.
