data_PCOD8297244
_publ_section_title
;
Structure prediction by ZEFSAII (Michael W. Deem and Ramdas Pophale) SiO2 
 PCOD8297244
Probable space group: I M M A
;
_chemical_formula_sum "Si O2"
_cell_formula_units_Z 96
_cell_length_a 8.916888
_cell_length_b 19.208747
_cell_length_c 31.150705
_cell_angle_alpha 90.000000
_cell_angle_beta 90.000000
_cell_angle_gamma 90.000000
_cell_volume 5335.562705
_symmetry_space_group_name_H-M "I M M A"
_symmetry_group_IT_number 74
_symmetry_cell_setting 'orthorhombic'
loop_
_space_group_symop_operation_xyz
x,y,z
-x,1/2-y,z
x,-y,-z
-x,1/2+y,-z
-x,-y,-z
x,1/2+y,-z
-x,y,z
x,1/2-y,z
1/2+x,1/2+y,1/2+z
1/2-x,-y,1/2+z
1/2+x,1/2-y,1/2-z
1/2-x,y,1/2-z
1/2-x,1/2-y,1/2-z
1/2+x,y,1/2-z
1/2-x,1/2+y,1/2+z
1/2+x,-y,1/2+z
loop_
_atom_site_type_symbol
_atom_site_label
_atom_site_fract_x
_atom_site_fract_y
_atom_site_fract_z
Si Si1 0.175999 0.419794 0.121854
Si Si2 0.674214 0.927243 0.289893
Si Si3 0.170599 0.418575 0.884589
Si Si4 0.175704 0.171070 0.545132
Si Si5 0.176262 0.670457 0.958176
Si Si6 0.177670 0.076959 0.292234
O O1 0.214897 0.500398 0.113440
O O2 0.233894 0.376013 0.081242
O O3 0.261500 0.389334 0.163586
O O4 0.000000 0.410084 0.130032
O O5 0.500000 0.943944 0.280505
O O6 0.750000 0.883961 0.250000
O O7 0.689723 0.889023 0.335824
O O8 0.769327 0.997476 0.292600
O O9 0.279879 0.375819 0.914736
O O10 0.000000 0.408061 0.900158
O O11 0.230637 0.250000 0.553678
O O12 0.249834 0.141734 0.501732
O O13 0.000000 0.167468 0.538951
O O14 0.224845 0.750000 0.949562
O O15 0.000000 0.663003 0.963749
O O16 0.250000 0.114034 0.250000
O O17 0.000000 0.083505 0.290170
#
# Coordination Sequence:
#
# PCOD8297244 Si02
#       6
#    16  16  16  16  16  16
#     4   9  18  32  49  73 101 124 155 198 239 279
#     4   9  16  27  44  68  97 127 158 193 234 279
#     4   9  18  31  48  71  98 127 157 193 236 280
#     4  10  21  35  50  69  94 124 159 200 240 280
#     4   9  18  34  55  73  92 125 162 193 233 288
#     4  10  17  26  43  67  96 129 161 193 233 279
#
# _framework density 17.992478999999999
#
# number of rings (size 3 to 8) (size 9 to 14) (size 15 to 20)
#    0.000    2.667    0.000    4.500    0.000    5.667 
#    0.000    3.333    0.000    1.000    0.000    0.000 
#    0.000    0.000    0.000    0.000    0.000    0.000 
#
# Total GULP energy -594954.810668 kJ/mol
# GULP energy per Si atom -12394.891889 kJ/mol
# Density = 1.795153 g / cm^3
# Si number density = 17.992479 Si / 1000 Ang^3
#
#
#
# Elastic Constant Matrix: (Units=GPa)
#
#
# Indices 1 2 3 4 5 6 
#
# 1 80.1906 22.7403 61.6164 0.0000 0.0000 0.0000
# 2 22.7403 39.5897 49.8685 0.0000 0.0000 0.0000
# 3 61.6164 49.8685 174.3934 0.0000 0.0000 0.0000
# 4 0.0000 0.0000 0.0000 0.5481 0.0000 0.0000
# 5 0.0000 0.0000 0.0000 0.0000 38.0418 0.0000
# 6 0.0000 0.0000 0.0000 0.0000 0.0000 16.9131
#
#
#
# Elastic Compliance Matrix: (Units=1/GPa)
#
#
# Indices 1 2 3 4 5 6 
#
# 1 0.017426 -0.003523 -0.005150 0.000000 0.000000 0.000000
# 2 -0.003523 0.040192 -0.010248 -0.000001 0.000000 0.000000
# 3 -0.005150 -0.010248 0.010484 0.000000 0.000000 0.000000
# 4 0.000000 -0.000001 0.000000 1.824328 0.000000 0.000000
# 5 0.000000 0.000000 0.000000 0.000000 0.026287 0.000000
# 6 0.000000 0.000000 0.000000 0.000000 0.000000 0.059126
#
#
# Mechanical properties :
#
#
# Convention : Reuss Voigt Hill
#
# Bulk Modulus (GPa) = 33.04654 62.51379 47.78016
# Shear Modulus (GPa) = 2.46820 21.76383 12.11601
#
# Velocity S-wave (km/s) = 1.17251 3.48171 2.59780
# Velocity P-wave (km/s) = 4.49886 7.14023 5.96752
#
# Compressibility (1/GPa) = 0.03026036
#
# Stress axis : x y z
#
# Youngs Moduli (GPa) = 57.38508 24.88070 95.38235
#
# Poissons Ratio (x) = 0.08766 0.49118
# Poissons Ratio (y) = 0.20217 0.97750
# Poissons Ratio (z) = 0.29551 0.25498
#
# Static dielectric constant tensor:
#      x y z
#    x 3.311370 0.000000 0.000000 
#    y 0.000000 2.949090 0.000000 
#    z 0.000000 0.000000 4.020690 
# 
# 
# High freq. dielectric constant tensor:
#      x y z
#    x 1.698900 0.000000 0.000000 
#    y 0.000000 1.639740 0.000000 
#    z 0.000000 0.000000 1.721620 
# 
# From -- ./inp_files/64294.got.cif
#   From: 2010.03.12/outbox.cif.g09.slc.cpg/sg74_33_cif.got.tgz:64294.got - 2010.04.16 15:46:19.
