data_PCOD8297874
_publ_section_title
;
Structure prediction by ZEFSAII (Michael W. Deem and Ramdas Pophale) SiO2 
 PCOD8297874
Probable space group: I M M A
;
_chemical_formula_sum "Si O2"
_cell_formula_units_Z 84
_cell_length_a 11.959658
_cell_length_b 14.435350
_cell_length_c 25.633213
_cell_angle_alpha 90.000000
_cell_angle_beta 90.000000
_cell_angle_gamma 90.000000
_cell_volume 4425.365291
_symmetry_space_group_name_H-M "I M M A"
_symmetry_group_IT_number 74
_symmetry_cell_setting 'orthorhombic'
loop_
_space_group_symop_operation_xyz
x,y,z
-x,1/2-y,z
x,-y,-z
-x,1/2+y,-z
-x,-y,-z
x,1/2+y,-z
-x,y,z
x,1/2-y,z
1/2+x,1/2+y,1/2+z
1/2-x,-y,1/2+z
1/2+x,1/2-y,1/2-z
1/2-x,y,1/2-z
1/2-x,1/2-y,1/2-z
1/2+x,y,1/2-z
1/2-x,1/2+y,1/2+z
1/2+x,-y,1/2+z
loop_
_atom_site_type_symbol
_atom_site_label
_atom_site_fract_x
_atom_site_fract_y
_atom_site_fract_z
Si Si1 0.729932 0.586411 0.406339
Si Si2 0.867183 0.062568 0.351909
Si Si3 0.500000 0.450667 0.555359
Si Si4 0.130660 0.250000 0.407262
Si Si5 0.757527 0.250000 0.986925
Si Si6 0.375810 0.649202 0.307307
Si Si7 0.000000 0.250000 0.981774
Si Si8 0.750000 0.002434 0.750000
O O1 0.831620 0.516517 0.393638
O O2 0.617608 0.523682 0.416795
O O3 0.761155 0.655943 0.453432
O O4 0.710694 0.647389 0.354964
O O5 0.829589 0.160043 0.376014
O O6 0.000000 0.055822 0.341776
O O7 0.797449 0.057912 0.297805
O O8 0.500000 0.500000 0.500000
O O9 0.500000 0.339106 0.555025
O O10 0.173012 0.250000 0.466143
O O11 0.000000 0.250000 0.413063
O O12 0.882803 0.250000 0.013165
O O13 0.500000 0.633598 0.329671
O O14 0.365396 0.750000 0.279924
O O15 0.352272 0.568736 0.266067
#
# Coordination Sequence:
#
# PCOD8297874 Si02
#       8
#    16  16   8   8   8  16   4   8
#     4  10  20  34  57  86 119 157 184 236 278 345
#     4  10  23  42  61  84 114 148 195 241 295 340
#     4  10  20  32  52  84 118 160 198 226 284 323
#     4  10  24  43  61  80 109 156 197 240 282 346
#     4  10  20  36  59  86 124 154 198 219 291 332
#     4  10  18  31  54  82 116 150 183 220 282 349
#     4   8  20  32  52  78 118 156 182 242 268 330
#     4  10  21  37  60  84 108 144 190 248 286 338
#
# _framework density 18.981483000000001
#
# number of rings (size 3 to 8) (size 9 to 14) (size 15 to 20)
#    0.000    2.095    1.905    0.857    5.333    1.143 
#    0.000    1.905    0.000    0.000    0.000    0.000 
#    0.000    0.000    0.000    0.000    0.000    0.000 
#
# Total GULP energy -520484.691725 kJ/mol
# GULP energy per Si atom -12392.492660 kJ/mol
# Density = 1.893828 g / cm^3
# Si number density = 18.981483 Si / 1000 Ang^3
#
#
#
# Elastic Constant Matrix: (Units=GPa)
#
#
# Indices 1 2 3 4 5 6 
#
# 1 56.2633 46.8651 31.9191 0.0000 0.0000 0.0000
# 2 46.8651 119.0638 60.6041 0.0000 0.0000 0.0000
# 3 31.9191 60.6041 110.1095 0.0000 0.0000 0.0000
# 4 0.0000 0.0000 0.0000 24.1123 0.0000 0.0000
# 5 0.0000 0.0000 0.0000 0.0000 33.3588 0.0000
# 6 0.0000 0.0000 0.0000 0.0000 0.0000 23.5353
#
#
#
# Elastic Compliance Matrix: (Units=1/GPa)
#
#
# Indices 1 2 3 4 5 6 
#
# 1 0.027030 -0.009239 -0.002750 0.000000 0.000000 0.000000
# 2 -0.009239 0.014826 -0.005482 0.000000 0.000000 0.000000
# 3 -0.002750 -0.005482 0.012896 0.000000 0.000000 0.000000
# 4 0.000000 0.000000 0.000000 0.041473 0.000000 0.000000
# 5 0.000000 0.000000 0.000000 0.000000 0.029977 0.000000
# 6 0.000000 0.000000 0.000000 0.000000 0.000000 0.042489
#
#
# Mechanical properties :
#
#
# Convention : Reuss Voigt Hill
#
# Bulk Modulus (GPa) = 50.48155 62.69038 56.58596
# Shear Modulus (GPa) = 23.78269 25.93784 24.86027
#
# Velocity S-wave (km/s) = 3.54353 3.70061 3.62292
# Velocity P-wave (km/s) = 6.58749 7.16646 6.88307
#
# Compressibility (1/GPa) = 0.01980922
#
# Stress axis : x y z
#
# Youngs Moduli (GPa) = 36.99607 67.44963 77.54189
#
# Poissons Ratio (x) = 0.62320 0.21325
# Poissons Ratio (y) = 0.34182 0.42507
# Poissons Ratio (z) = 0.10175 0.36974
#
# Static dielectric constant tensor:
#      x y z
#    x 3.566380 0.000000 0.000000 
#    y 0.000000 3.568580 0.000000 
#    z 0.000000 0.000000 3.332100 
# 
# 
# High freq. dielectric constant tensor:
#      x y z
#    x 1.737160 0.000000 0.000000 
#    y 0.000000 1.732070 0.000000 
#    z 0.000000 0.000000 1.727610 
# 
# From -- ./inp_files/58719.got.cif
#   From: 2010.03.12/outbox.cif.g09.slc.cpg/sg74_30_cif.got.tgz:58719.got - 2010.04.16 15:46:19.
