data_PCOD8297500
_publ_section_title
;
Structure prediction by ZEFSAII (Michael W. Deem and Ramdas Pophale) SiO2 
 PCOD8297500
Probable space group: I M M A
;
_chemical_formula_sum "Si O2"
_cell_formula_units_Z 96
_cell_length_a 13.852362
_cell_length_b 11.915564
_cell_length_c 33.881333
_cell_angle_alpha 90.000000
_cell_angle_beta 90.000000
_cell_angle_gamma 90.000000
_cell_volume 5592.408981
_symmetry_space_group_name_H-M "I M M A"
_symmetry_group_IT_number 74
_symmetry_cell_setting 'orthorhombic'
loop_
_space_group_symop_operation_xyz
x,y,z
-x,1/2-y,z
x,-y,-z
-x,1/2+y,-z
-x,-y,-z
x,1/2+y,-z
-x,y,z
x,1/2-y,z
1/2+x,1/2+y,1/2+z
1/2-x,-y,1/2+z
1/2+x,1/2-y,1/2-z
1/2-x,y,1/2-z
1/2-x,1/2-y,1/2-z
1/2+x,y,1/2-z
1/2-x,1/2+y,1/2+z
1/2+x,-y,1/2+z
loop_
_atom_site_type_symbol
_atom_site_label
_atom_site_fract_x
_atom_site_fract_y
_atom_site_fract_z
Si Si1 0.114140 0.625195 0.762687
Si Si2 0.605626 0.882443 0.650944
Si Si3 0.114513 0.008809 0.688841
Si Si4 0.114208 0.983433 0.455069
Si Si5 0.114960 0.250000 0.667244
Si Si6 0.801083 0.617466 0.614640
Si Si7 0.885526 0.750000 0.421012
O O1 0.157962 0.750000 0.758592
O O2 0.137562 0.571199 0.805730
O O3 0.160643 0.551361 0.727326
O O4 0.000000 0.630104 0.757416
O O5 0.500000 0.930892 0.638096
O O6 0.595931 0.750000 0.656225
O O7 0.687266 0.913324 0.619117
O O8 0.139542 0.944287 0.648698
O O9 0.000000 0.009904 0.691938
O O10 0.153293 0.137236 0.688451
O O11 0.151982 0.860545 0.443141
O O12 0.000000 0.996966 0.449487
O O13 0.145973 0.000000 0.500000
O O14 0.165371 0.076936 0.428219
O O15 0.156794 0.250000 0.622933
O O16 0.000000 0.250000 0.665527
O O17 0.819236 0.750000 0.618385
O O18 0.000000 0.750000 0.420696
#
# Coordination Sequence:
#
# PCOD8297500 Si02
#       7
#    16  16  16  16   8  16   8
#     4   8  14  26  45  67  92 122 153 191 243 289
#     4   8  16  32  50  68  92 123 159 198 241 289
#     4  10  18  28  43  67  97 128 161 195 231 278
#     4  10  21  34  50  73 102 131 156 185 224 280
#     4   9  16  28  44  60  88 132 172 190 211 269
#     4  11  21  30  47  74  98 122 156 198 243 281
#     4   9  16  32  50  63  89 137 171 177 211 275
#
# _framework density 17.166125999999998
#
# number of rings (size 3 to 8) (size 9 to 14) (size 15 to 20)
#    0.000    2.667    1.667    2.000    1.167    2.667 
#    0.000    2.500    0.000    3.500    0.000    4.667 
#    0.000    0.000    0.000    0.000    0.000    0.000 
#
# Total GULP energy -594930.233077 kJ/mol
# GULP energy per Si atom -12394.379856 kJ/mol
# Density = 1.712706 g / cm^3
# Si number density = 17.166126 Si / 1000 Ang^3
#
#
#
# Elastic Constant Matrix: (Units=GPa)
#
#
# Indices 1 2 3 4 5 6 
#
# 1 39.9616 17.5925 31.7138 0.0000 0.0000 0.0000
# 2 17.5925 110.2125 46.2179 0.0000 0.0000 0.0000
# 3 31.7138 46.2179 108.6569 0.0000 0.0000 0.0000
# 4 0.0000 0.0000 0.0000 23.5575 0.0000 0.0000
# 5 0.0000 0.0000 0.0000 0.0000 20.6821 0.0000
# 6 0.0000 0.0000 0.0000 0.0000 0.0000 9.7183
#
#
#
# Elastic Compliance Matrix: (Units=1/GPa)
#
#
# Indices 1 2 3 4 5 6 
#
# 1 0.032766 -0.001485 -0.008932 0.000000 0.000000 0.000000
# 2 -0.001485 0.011110 -0.004293 0.000000 0.000000 0.000000
# 3 -0.008932 -0.004293 0.013636 0.000000 0.000000 0.000000
# 4 0.000000 0.000000 0.000000 0.042449 0.000000 0.000000
# 5 0.000000 0.000000 0.000000 0.000000 0.048351 0.000000
# 6 0.000000 0.000000 0.000000 0.000000 0.000000 0.102898
#
#
# Mechanical properties :
#
#
# Convention : Reuss Voigt Hill
#
# Bulk Modulus (GPa) = 35.59432 49.98659 42.79045
# Shear Modulus (GPa) = 17.24172 21.67871 19.46021
#
# Velocity S-wave (km/s) = 3.17267 3.55755 3.37061
# Velocity P-wave (km/s) = 5.84819 6.78656 6.33478
#
# Compressibility (1/GPa) = 0.02809437
#
# Stress axis : x y z
#
# Youngs Moduli (GPa) = 30.51933 90.00524 73.33446
#
# Poissons Ratio (x) = 0.13362 0.65502
# Poissons Ratio (y) = 0.04531 0.31480
# Poissons Ratio (z) = 0.27260 0.38636
#
# Static dielectric constant tensor:
#      x y z
#    x 3.054540 0.000000 0.000000 
#    y 0.000000 3.351840 0.000000 
#    z 0.000000 0.000000 3.221080 
# 
# 
# High freq. dielectric constant tensor:
#      x y z
#    x 1.635370 0.000000 0.000000 
#    y 0.000000 1.650940 0.000000 
#    z 0.000000 0.000000 1.654070 
# 
# From -- ./inp_files/72444.got.cif
#   From: 2010.03.12/outbox.cif.g09.slc.cpg/sg74_37_cif.got.tgz:72444.got - 2010.04.16 15:46:19.
