data_PCOD8297053
_publ_section_title
;
Structure prediction by ZEFSAII (Michael W. Deem and Ramdas Pophale) SiO2 
 PCOD8297053
Probable space group: I B C A 
;
_chemical_formula_sum "Si O2"
_cell_formula_units_Z 96
_cell_length_a 20.283125
_cell_length_b 12.941927
_cell_length_c 16.404889
_cell_angle_alpha 90.000000
_cell_angle_beta 90.000000
_cell_angle_gamma 90.000000
_cell_volume 4306.328034
_symmetry_space_group_name_H-M "I B C A "
_symmetry_group_IT_number 73
_symmetry_cell_setting 'orthorhombic'
loop_
_space_group_symop_operation_xyz
x,y,z
-x,1/2-y,z
x,-y,1/2-z
1/2-x,y,-z
-x,-y,-z
x,1/2+y,-z
-x,y,1/2+z
1/2+x,-y,z
1/2+x,1/2+y,1/2+z
1/2-x,-y,1/2+z
1/2+x,1/2-y,-z
-x,1/2+y,1/2-z
1/2-x,1/2-y,1/2-z
1/2+x,y,1/2-z
1/2-x,1/2+y,z
x,1/2-y,1/2+z
loop_
_atom_site_type_symbol
_atom_site_label
_atom_site_fract_x
_atom_site_fract_y
_atom_site_fract_z
Si Si1 0.443954 0.556969 0.051544
Si Si2 0.353131 0.070988 0.673503
Si Si3 0.000000 0.750000 0.351861
Si Si4 0.380865 0.709880 0.758034
Si Si5 0.750000 0.282946 0.000000
Si Si6 0.790718 0.368480 0.624274
Si Si7 0.848775 0.084975 0.409831
O O1 0.407459 0.480994 0.115068
O O2 0.472001 0.657321 0.094998
O O3 0.500000 0.500000 0.000000
O O4 0.391260 0.601645 0.989619
O O5 0.383840 0.175763 0.706614
O O6 0.285391 0.095999 0.626626
O O7 0.335280 0.000000 0.750000
O O8 0.944051 0.804871 0.298400
O O9 0.313736 0.686794 0.707697
O O10 0.386053 0.629204 0.831540
O O11 0.698762 0.210285 0.950917
O O12 0.782119 0.352147 0.928799
O O13 0.836711 0.465485 0.607006
#
# Coordination Sequence:
#
# PCOD8297053 Si02
#       7
#    16  16   8  16   8  16  16
#     4  12  29  47  73 106 149 196 256 318 382 461
#     4  12  25  47  76 111 146 197 252 319 389 469
#     4  12  28  50  76 104 152 204 264 310 380 476
#     4  12  27  48  76 108 149 203 254 315 384 469
#     4  12  24  42  74 106 152 192 244 316 394 460
#     4  12  26  47  74 115 151 196 254 321 395 471
#     4  12  27  44  75 106 148 192 250 316 392 463
#
# _framework density 22.292774999999999
#
# number of rings (size 3 to 8) (size 9 to 14) (size 15 to 20)
#    0.000    0.000    3.333    6.500    7.000    0.000 
#    0.000    0.000    0.000    0.000    0.000    0.000 
#    0.000    0.000    0.000    0.000    0.000    0.000 
#
# Total GULP energy -595462.485022 kJ/mol
# GULP energy per Si atom -12405.468438 kJ/mol
# Density = 2.224204 g / cm^3
# Si number density = 22.292775 Si / 1000 Ang^3
#
#
#
# Elastic Constant Matrix: (Units=GPa)
#
#
# Indices 1 2 3 4 5 6 
#
# 1 97.6072 54.8701 44.8301 0.0000 0.0000 0.0000
# 2 54.8701 134.8824 75.2468 0.0000 0.0000 0.0000
# 3 44.8301 75.2468 142.9488 0.0000 0.0000 0.0000
# 4 0.0000 0.0000 0.0000 44.9361 0.0000 0.0000
# 5 0.0000 0.0000 0.0000 0.0000 38.0277 0.0000
# 6 0.0000 0.0000 0.0000 0.0000 0.0000 25.3398
#
#
#
# Elastic Compliance Matrix: (Units=1/GPa)
#
#
# Indices 1 2 3 4 5 6 
#
# 1 0.013646 -0.004479 -0.001922 0.000000 0.000000 0.000000
# 2 -0.004479 0.011966 -0.004894 0.000000 0.000000 0.000000
# 3 -0.001922 -0.004894 0.010174 0.000000 0.000000 0.000000
# 4 0.000000 0.000000 0.000000 0.022254 0.000000 0.000000
# 5 0.000000 0.000000 0.000000 0.000000 0.026297 0.000000
# 6 0.000000 0.000000 0.000000 0.000000 0.000000 0.039464
#
#
# Mechanical properties :
#
#
# Convention : Reuss Voigt Hill
#
# Bulk Modulus (GPa) = 75.77792 80.59251 78.18522
# Shear Modulus (GPa) = 33.15886 35.02680 34.09283
#
# Velocity S-wave (km/s) = 3.86090 3.96816 3.91490
# Velocity P-wave (km/s) = 7.34448 7.56475 7.45542
#
# Compressibility (1/GPa) = 0.01319646
#
# Stress axis : x y z
#
# Youngs Moduli (GPa) = 73.28348 83.56812 98.28515
#
# Poissons Ratio (x) = 0.37430 0.18888
# Poissons Ratio (y) = 0.32824 0.48103
# Poissons Ratio (z) = 0.14083 0.40901
#
# Static dielectric constant tensor:
#      x y z
#    x 4.197300 0.000000 0.000000 
#    y 0.000000 4.108890 0.000000 
#    z 0.000000 0.000000 4.192450 
# 
# 
# High freq. dielectric constant tensor:
#      x y z
#    x 1.873660 0.000000 0.000000 
#    y 0.000000 1.899430 0.000000 
#    z 0.000000 0.000000 1.899110 
# 
# From -- ./inp_files/18696.got.cif
#   From: 2010.03.12/outbox.cif.g09.slc.cpg/sg73_10_cif.got.tgz:18696.got - 2010.04.16 15:25:48.
