data_PCOD8297428
_publ_section_title
;
Structure prediction by ZEFSAII (Michael W. Deem and Ramdas Pophale) SiO2 
 PCOD8297428
Probable space group: I M M A
;
_chemical_formula_sum "Si O2"
_cell_formula_units_Z 80
_cell_length_a 9.745775
_cell_length_b 17.771706
_cell_length_c 33.160527
_cell_angle_alpha 90.000000
_cell_angle_beta 90.000000
_cell_angle_gamma 90.000000
_cell_volume 5743.371709
_symmetry_space_group_name_H-M "I M M A"
_symmetry_group_IT_number 74
_symmetry_cell_setting 'orthorhombic'
loop_
_space_group_symop_operation_xyz
x,y,z
-x,1/2-y,z
x,-y,-z
-x,1/2+y,-z
-x,-y,-z
x,1/2+y,-z
-x,y,z
x,1/2-y,z
1/2+x,1/2+y,1/2+z
1/2-x,-y,1/2+z
1/2+x,1/2-y,1/2-z
1/2-x,y,1/2-z
1/2-x,1/2-y,1/2-z
1/2+x,y,1/2-z
1/2-x,1/2+y,1/2+z
1/2+x,-y,1/2+z
loop_
_atom_site_type_symbol
_atom_site_label
_atom_site_fract_x
_atom_site_fract_y
_atom_site_fract_z
Si Si1 0.500000 0.661384 0.220014
Si Si2 0.158146 0.337299 0.494413
Si Si3 0.500000 0.660967 0.309396
Si Si4 0.154195 0.924096 0.424911
Si Si5 0.782611 0.838796 0.344324
Si Si6 0.843604 0.543414 0.958068
O O1 0.500000 0.750000 0.225595
O O2 0.500000 0.624054 0.264560
O O3 0.366586 0.636179 0.195177
O O4 0.194770 0.250000 0.492263
O O5 0.187316 0.364973 0.539745
O O6 0.259500 0.379123 0.463203
O O7 0.000000 0.352747 0.482237
O O8 0.500000 0.750000 0.304059
O O9 0.371242 0.634814 0.335608
O O10 0.161574 0.881167 0.382970
O O11 0.000000 0.956503 0.430527
O O12 0.263263 0.992333 0.425483
O O13 0.797230 0.750000 0.352234
O O14 0.000000 0.559234 0.943615
O O15 0.843690 0.500000 0.000000
#
# Coordination Sequence:
#
# PCOD8297428 Si02
#       6
#     8  16   8  16  16  16
#     4   9  16  28  42  54  73 102 137 171 202 241
#     4   9  17  29  45  61  78 102 135 170 202 238
#     4   9  18  28  38  54  77 104 133 169 208 243
#     4  10  18  28  42  59  80 105 136 172 205 237
#     4  10  18  27  40  58  78 103 137 174 209 239
#     4   9  18  30  42  57  79 105 131 162 203 247
#
# _framework density 13.929100999999999
#
# number of rings (size 3 to 8) (size 9 to 14) (size 15 to 20)
#    0.000    2.600    1.000    1.800    1.400    6.000 
#    0.000    0.000    0.000    0.000    0.000    0.000 
#    0.000    0.000    0.000    0.000    0.000    6.000 
#
# Total GULP energy -495861.948876 kJ/mol
# GULP energy per Si atom -12396.548722 kJ/mol
# Density = 1.389740 g / cm^3
# Si number density = 13.929101 Si / 1000 Ang^3
#
#
#
# Elastic Constant Matrix: (Units=GPa)
#
#
# Indices 1 2 3 4 5 6 
#
# 1 102.5643 38.4911 18.4664 0.0000 0.0000 0.0000
# 2 38.4911 63.9811 22.1854 0.0000 0.0000 0.0000
# 3 18.4664 22.1854 43.5400 0.0000 0.0000 0.0000
# 4 0.0000 0.0000 0.0000 12.5352 0.0000 0.0000
# 5 0.0000 0.0000 0.0000 0.0000 26.5747 0.0000
# 6 0.0000 0.0000 0.0000 0.0000 0.0000 18.8683
#
#
#
# Elastic Compliance Matrix: (Units=1/GPa)
#
#
# Indices 1 2 3 4 5 6 
#
# 1 0.012710 -0.007017 -0.001815 0.000000 0.000000 0.000000
# 2 -0.007017 0.022858 -0.008671 0.000000 0.000000 0.000000
# 3 -0.001815 -0.008671 0.028155 0.000000 0.000000 0.000000
# 4 0.000000 0.000000 0.000000 0.079776 0.000000 0.000000
# 5 0.000000 0.000000 0.000000 0.000000 0.037630 0.000000
# 6 0.000000 0.000000 0.000000 0.000000 0.000000 0.052999
#
#
# Mechanical properties :
#
#
# Convention : Reuss Voigt Hill
#
# Bulk Modulus (GPa) = 34.82248 40.93014 37.87631
# Shear Modulus (GPa) = 17.94005 20.32513 19.13259
#
# Velocity S-wave (km/s) = 3.59270 3.82407 3.71019
# Velocity P-wave (km/s) = 6.50108 6.99617 6.75317
#
# Compressibility (1/GPa) = 0.02871708
#
# Stress axis : x y z
#
# Youngs Moduli (GPa) = 78.67674 43.74898 35.51722
#
# Poissons Ratio (x) = 0.30699 0.06447
# Poissons Ratio (y) = 0.55208 0.30796
# Poissons Ratio (z) = 0.14282 0.37934
#
# Static dielectric constant tensor:
#      x y z
#    x 2.903050 0.000000 0.000000 
#    y 0.000000 2.462970 0.000000 
#    z 0.000000 0.000000 2.590210 
# 
# 
# High freq. dielectric constant tensor:
#      x y z
#    x 1.552070 0.000000 0.000000 
#    y 0.000000 1.486630 0.000000 
#    z 0.000000 0.000000 1.508530 
# 
# From -- ./inp_files/70147.got.cif
#   From: 2010.03.12/outbox.cif.g09.slc.cpg/sg74_36_cif.got.tgz:70147.got - 2010.04.16 15:46:19.
