data_PCOD8297432
_publ_section_title
;
Structure prediction by ZEFSAII (Michael W. Deem and Ramdas Pophale) SiO2 
 PCOD8297432
Probable space group: I M M A
;
_chemical_formula_sum "Si O2"
_cell_formula_units_Z 96
_cell_length_a 9.081538
_cell_length_b 23.241125
_cell_length_c 26.209875
_cell_angle_alpha 90.000000
_cell_angle_beta 90.000000
_cell_angle_gamma 90.000000
_cell_volume 5531.991457
_symmetry_space_group_name_H-M "I M M A"
_symmetry_group_IT_number 74
_symmetry_cell_setting 'orthorhombic'
loop_
_space_group_symop_operation_xyz
x,y,z
-x,1/2-y,z
x,-y,-z
-x,1/2+y,-z
-x,-y,-z
x,1/2+y,-z
-x,y,z
x,1/2-y,z
1/2+x,1/2+y,1/2+z
1/2-x,-y,1/2+z
1/2+x,1/2-y,1/2-z
1/2-x,y,1/2-z
1/2-x,1/2-y,1/2-z
1/2+x,y,1/2-z
1/2-x,1/2+y,1/2+z
1/2+x,-y,1/2+z
loop_
_atom_site_type_symbol
_atom_site_label
_atom_site_fract_x
_atom_site_fract_y
_atom_site_fract_z
Si Si1 0.674615 0.412953 0.641492
Si Si2 0.827866 0.816848 0.303572
Si Si3 0.661041 0.906825 0.880443
Si Si4 0.326720 0.684069 0.801854
Si Si5 0.173493 0.504889 0.942436
Si Si6 0.838811 0.499678 0.294917
O O1 0.500000 0.404825 0.642809
O O2 0.754033 0.351072 0.648339
O O3 0.723689 0.448652 0.590408
O O4 0.732752 0.447836 0.690139
O O5 0.804389 0.750000 0.316308
O O6 0.750000 0.832755 0.250000
O O7 0.000000 0.832491 0.299484
O O8 0.500000 0.891374 0.904011
O O9 0.730301 0.851464 0.851363
O O10 0.766770 0.933297 0.923188
O O11 0.637471 0.955759 0.839497
O O12 0.500000 0.673689 0.794857
O O13 0.286440 0.750000 0.812726
O O14 0.250000 0.662616 0.750000
O O15 0.000000 0.509795 0.939882
O O16 0.232221 0.500000 0.000000
O O17 0.750000 0.467564 0.250000
O O18 0.000000 0.522382 0.277601
#
# Coordination Sequence:
#
# PCOD8297432 Si02
#       6
#    16  16  16  16  16  16
#     4  10  19  31  48  68  91 120 153 189 232 279
#     4  10  20  33  49  70  98 130 161 191 223 265
#     4   9  18  30  45  67  92 121 155 190 231 277
#     4   9  17  29  45  67  97 130 162 193 224 264
#     4   9  19  35  53  72  92 116 150 195 244 287
#     4  10  18  27  40  61  91 121 151 186 225 273
#
# _framework density 17.353605000000002
#
# number of rings (size 3 to 8) (size 9 to 14) (size 15 to 20)
#    0.000    2.500    0.000    2.500    0.000    3.333 
#    0.000    0.000    0.000    1.000    0.000    4.667 
#    0.000    0.000    0.000    0.000    0.000    0.000 
#
# Total GULP energy -594757.896567 kJ/mol
# GULP energy per Si atom -12390.789512 kJ/mol
# Density = 1.731411 g / cm^3
# Si number density = 17.353605 Si / 1000 Ang^3
#
#
#
# Elastic Constant Matrix: (Units=GPa)
#
#
# Indices 1 2 3 4 5 6 
#
# 1 72.4383 35.2446 45.3597 0.0000 0.0000 0.0000
# 2 35.2446 93.3288 47.1241 0.0000 0.0000 0.0000
# 3 45.3597 47.1241 99.3049 0.0000 0.0000 0.0000
# 4 0.0000 0.0000 0.0000 21.4556 0.0000 0.0000
# 5 0.0000 0.0000 0.0000 0.0000 21.8173 0.0000
# 6 0.0000 0.0000 0.0000 0.0000 0.0000 24.4416
#
#
#
# Elastic Compliance Matrix: (Units=1/GPa)
#
#
# Indices 1 2 3 4 5 6 
#
# 1 0.020380 -0.003940 -0.007439 0.000000 0.000000 0.000000
# 2 -0.003940 0.014853 -0.005249 0.000000 0.000000 0.000000
# 3 -0.007439 -0.005249 0.015959 0.000000 0.000000 0.000000
# 4 0.000000 0.000000 0.000000 0.046608 0.000000 0.000000
# 5 0.000000 0.000000 0.000000 0.000000 0.045835 0.000000
# 6 0.000000 0.000000 0.000000 0.000000 0.000000 0.040914
#
#
# Mechanical properties :
#
#
# Convention : Reuss Voigt Hill
#
# Bulk Modulus (GPa) = 55.75430 57.83656 56.79543
# Shear Modulus (GPa) = 22.34301 22.69914 22.52108
#
# Velocity S-wave (km/s) = 3.59209 3.62060 3.60637
# Velocity P-wave (km/s) = 7.02867 7.13295 7.08100
#
# Compressibility (1/GPa) = 0.01793583
#
# Stress axis : x y z
#
# Youngs Moduli (GPa) = 49.06692 67.32709 62.66139
#
# Poissons Ratio (x) = 0.26527 0.46617
# Poissons Ratio (y) = 0.19333 0.32888
# Poissons Ratio (z) = 0.36503 0.35337
#
# Static dielectric constant tensor:
#      x y z
#    x 3.680680 0.000000 0.000000 
#    y 0.000000 3.395240 0.000000 
#    z 0.000000 0.000000 3.402790 
# 
# 
# High freq. dielectric constant tensor:
#      x y z
#    x 1.677580 0.000000 0.000000 
#    y 0.000000 1.666710 0.000000 
#    z 0.000000 0.000000 1.638000 
# 
# From -- ./inp_files/64672.got.cif
#   From: 2010.03.12/outbox.cif.g09.slc.cpg/sg74_33_cif.got.tgz:64672.got - 2010.04.16 15:46:19.
