data_PCOD8297367
_publ_section_title
;
Structure prediction by ZEFSAII (Michael W. Deem and Ramdas Pophale) SiO2 
 PCOD8297367
Probable space group: I M M A
;
_chemical_formula_sum "Si O2"
_cell_formula_units_Z 80
_cell_length_a 18.731056
_cell_length_b 19.265569
_cell_length_c 12.742055
_cell_angle_alpha 90.000000
_cell_angle_beta 90.000000
_cell_angle_gamma 90.000000
_cell_volume 4598.154693
_symmetry_space_group_name_H-M "I M M A"
_symmetry_group_IT_number 74
_symmetry_cell_setting 'orthorhombic'
loop_
_space_group_symop_operation_xyz
x,y,z
-x,1/2-y,z
x,-y,-z
-x,1/2+y,-z
-x,-y,-z
x,1/2+y,-z
-x,y,z
x,1/2-y,z
1/2+x,1/2+y,1/2+z
1/2-x,-y,1/2+z
1/2+x,1/2-y,1/2-z
1/2-x,y,1/2-z
1/2-x,1/2-y,1/2-z
1/2+x,y,1/2-z
1/2-x,1/2+y,1/2+z
1/2+x,-y,1/2+z
loop_
_atom_site_type_symbol
_atom_site_label
_atom_site_fract_x
_atom_site_fract_y
_atom_site_fract_z
Si Si1 0.500000 0.397717 0.096631
Si Si2 0.353979 0.618092 0.802925
Si Si3 0.000000 0.061620 0.631328
Si Si4 0.352246 0.543553 0.215356
Si Si5 0.210633 0.330577 0.098220
Si Si6 0.223995 0.935140 0.076685
O O1 0.431104 0.361282 0.149749
O O2 0.500000 0.479951 0.110499
O O3 0.500000 0.388666 0.970837
O O4 0.344379 0.536362 0.817750
O O5 0.291915 0.657370 0.865497
O O6 0.347016 0.639571 0.681234
O O7 0.070643 0.077885 0.698009
O O8 0.296723 0.582898 0.139330
O O9 0.337078 0.549390 0.338532
O O10 0.196010 0.250000 0.082172
O O11 0.198724 0.368203 0.987713
O O12 0.235022 0.000000 0.000000
#
# Coordination Sequence:
#
# PCOD8297367 Si02
#       6
#     8  16   8  16  16  16
#     4   9  18  28  52  77 107 136 157 209 257 311
#     4  10  17  32  51  79 106 130 168 208 262 305
#     4   9  18  30  46  82 112 125 164 209 270 296
#     4  10  19  31  54  80 102 135 168 221 251 304
#     4  11  21  33  51  75 106 138 169 213 257 305
#     4  11  18  33  54  76 101 135 180 207 257 303
#
# _framework density 17.398282999999999
#
# number of rings (size 3 to 8) (size 9 to 14) (size 15 to 20)
#    0.000    1.800    4.000    3.600    2.800    0.000 
#    0.000    5.500    0.000    0.000    0.000    1.400 
#    0.000    0.000    0.000    0.000    0.000    0.000 
#
# Total GULP energy -495916.469327 kJ/mol
# GULP energy per Si atom -12397.911733 kJ/mol
# Density = 1.735868 g / cm^3
# Si number density = 17.398283 Si / 1000 Ang^3
#
#
#
# Elastic Constant Matrix: (Units=GPa)
#
#
# Indices 1 2 3 4 5 6 
#
# 1 126.7954 13.1059 57.0610 0.0000 0.0000 0.0000
# 2 13.1059 51.6375 22.2020 0.0000 0.0000 0.0000
# 3 57.0610 22.2020 118.8130 0.0000 0.0000 0.0000
# 4 0.0000 0.0000 0.0000 19.5442 0.0000 0.0000
# 5 0.0000 0.0000 0.0000 0.0000 25.7487 0.0000
# 6 0.0000 0.0000 0.0000 0.0000 0.0000 10.5849
#
#
#
# Elastic Compliance Matrix: (Units=1/GPa)
#
#
# Indices 1 2 3 4 5 6 
#
# 1 0.010074 -0.000518 -0.004741 0.000000 0.000000 0.000000
# 2 -0.000518 0.021084 -0.003691 0.000000 0.000000 0.000000
# 3 -0.004741 -0.003691 0.011383 0.000000 0.000000 0.000000
# 4 0.000000 0.000000 0.000000 0.051166 0.000000 0.000000
# 5 0.000000 0.000000 0.000000 0.000000 0.038837 0.000000
# 6 0.000000 0.000000 0.000000 0.000000 0.000000 0.094475
#
#
# Mechanical properties :
#
#
# Convention : Reuss Voigt Hill
#
# Bulk Modulus (GPa) = 40.58360 53.55376 47.06868
# Shear Modulus (GPa) = 19.75241 24.83403 22.29322
#
# Velocity S-wave (km/s) = 3.37309 3.78217 3.58347
# Velocity P-wave (km/s) = 6.20864 7.06548 6.65087
#
# Compressibility (1/GPa) = 0.02464050
#
# Stress axis : x y z
#
# Youngs Moduli (GPa) = 99.26561 47.42864 87.84762
#
# Poissons Ratio (x) = 0.02458 0.41651
# Poissons Ratio (y) = 0.05145 0.32425
# Poissons Ratio (z) = 0.47065 0.17506
#
# Static dielectric constant tensor:
#      x y z
#    x 3.353470 0.000000 0.000000 
#    y 0.000000 2.936460 0.000000 
#    z 0.000000 0.000000 3.419080 
# 
# 
# High freq. dielectric constant tensor:
#      x y z
#    x 1.665660 0.000000 0.000000 
#    y 0.000000 1.632410 0.000000 
#    z 0.000000 0.000000 1.678960 
# 
# From -- ./inp_files/23604.got.cif
#   From: 2010.03.12/outbox.cif.g09.slc.cpg/sg74_12_cif.got.tgz:23604.got - 2010.04.16 15:46:19.
