data_PCOD8297202
_publ_section_title
;
Structure prediction by ZEFSAII (Michael W. Deem and Ramdas Pophale) SiO2 
 PCOD8297202
Probable space group: I M M A
;
_chemical_formula_sum "Si O2"
_cell_formula_units_Z 112
_cell_length_a 17.562321
_cell_length_b 14.714427
_cell_length_c 34.132667
_cell_angle_alpha 90.000000
_cell_angle_beta 90.000000
_cell_angle_gamma 90.000000
_cell_volume 8820.546409
_symmetry_space_group_name_H-M "I M M A"
_symmetry_group_IT_number 74
_symmetry_cell_setting 'orthorhombic'
loop_
_space_group_symop_operation_xyz
x,y,z
-x,1/2-y,z
x,-y,-z
-x,1/2+y,-z
-x,-y,-z
x,1/2+y,-z
-x,y,z
x,1/2-y,z
1/2+x,1/2+y,1/2+z
1/2-x,-y,1/2+z
1/2+x,1/2-y,1/2-z
1/2-x,y,1/2-z
1/2-x,1/2-y,1/2-z
1/2+x,y,1/2-z
1/2-x,1/2+y,1/2+z
1/2+x,-y,1/2+z
loop_
_atom_site_type_symbol
_atom_site_label
_atom_site_fract_x
_atom_site_fract_y
_atom_site_fract_z
Si Si1 0.410157 0.594767 0.610204
Si Si2 0.661048 0.350954 0.675615
Si Si3 0.410455 0.891504 0.403817
Si Si4 0.693213 0.649322 0.213889
Si Si5 0.408978 0.750000 0.554164
Si Si6 0.089620 0.250000 0.967123
Si Si7 0.088708 0.472478 0.760774
Si Si8 0.090534 0.352211 0.195721
O O1 0.500000 0.605565 0.613053
O O2 0.386651 0.496306 0.594353
O O3 0.377600 0.663192 0.577730
O O4 0.376014 0.616195 0.653384
O O5 0.654123 0.250000 0.694085
O O6 0.635914 0.345940 0.631021
O O7 0.751033 0.380054 0.677933
O O8 0.604903 0.415728 0.699859
O O9 0.500000 0.878426 0.395856
O O10 0.385664 0.840949 0.443745
O O11 0.656012 0.750000 0.206883
O O12 0.750000 0.653322 0.250000
O O13 0.630628 0.571341 0.222889
O O14 0.500000 0.750000 0.552288
O O15 0.373250 0.750000 0.510396
O O16 0.000000 0.250000 0.972398
O O17 0.116014 0.576301 0.770311
O O18 0.000000 0.469807 0.751130
O O19 0.119807 0.250000 0.205767
O O20 0.000000 0.353112 0.193054
#
# Coordination Sequence:
#
# PCOD8297202 Si02
#       8
#    16  16  16  16   8   8  16  16
#     4   9  15  23  35  48  62  84 114 141 171 209
#     4  10  17  25  37  50  68  91 111 140 180 211
#     4  10  17  24  35  53  68  82 116 155 178 200
#     4   8  16  27  35  48  69  91 110 131 174 222
#     4   9  16  26  36  44  64  94 110 137 187 217
#     4   9  18  26  32  48  71  87 107 145 184 210
#     4  10  17  24  37  54  68  85 112 145 178 201
#     4   9  15  23  35  52  67  82 112 148 175 204
#
# _framework density 12.697626
#
# number of rings (size 3 to 8) (size 9 to 14) (size 15 to 20)
#    0.000    2.714    2.857    1.714    0.000    2.286 
#    0.000    2.857    0.000    3.857    0.000    0.000 
#    0.000    0.000    0.000    0.000    0.000    0.000 
#
# Total GULP energy -693784.883078 kJ/mol
# GULP energy per Si atom -12389.015769 kJ/mol
# Density = 1.266873 g / cm^3
# Si number density = 12.697626 Si / 1000 Ang^3
#
#
#
# Elastic Constant Matrix: (Units=GPa)
#
#
# Indices 1 2 3 4 5 6 
#
# 1 29.8457 25.3121 21.5207 0.0000 0.0000 0.0000
# 2 25.3121 105.1204 27.6647 0.0000 0.0000 0.0000
# 3 21.5207 27.6647 44.3908 0.0000 0.0000 0.0000
# 4 0.0000 0.0000 0.0000 17.2914 0.0000 0.0000
# 5 0.0000 0.0000 0.0000 0.0000 8.9387 0.0000
# 6 0.0000 0.0000 0.0000 0.0000 0.0000 6.9995
#
#
#
# Elastic Compliance Matrix: (Units=1/GPa)
#
#
# Indices 1 2 3 4 5 6 
#
# 1 0.056177 -0.007607 -0.022494 0.000000 0.000000 0.000000
# 2 -0.007607 0.012409 -0.004046 0.000000 0.000000 0.000000
# 3 -0.022494 -0.004046 0.035953 0.000000 0.000000 0.000000
# 4 0.000000 0.000000 0.000000 0.057832 0.000000 0.000000
# 5 0.000000 0.000000 0.000000 0.000000 0.111873 0.000000
# 6 0.000000 0.000000 0.000000 0.000000 0.000000 0.142868
#
#
# Mechanical properties :
#
#
# Convention : Reuss Voigt Hill
#
# Bulk Modulus (GPa) = 27.58890 36.48354 32.03622
# Shear Modulus (GPa) = 10.05050 13.63654 11.84352
#
# Velocity S-wave (km/s) = 2.81646 3.28066 3.05738
# Velocity P-wave (km/s) = 5.68783 6.56851 6.14397
#
# Compressibility (1/GPa) = 0.03624646
#
# Stress axis : x y z
#
# Youngs Moduli (GPa) = 17.80098 80.58451 27.81373
#
# Poissons Ratio (x) = 0.61302 0.62563
# Poissons Ratio (y) = 0.13541 0.11252
# Poissons Ratio (z) = 0.40041 0.32601
#
# Static dielectric constant tensor:
#      x y z
#    x 2.357550 0.000000 0.000000 
#    y 0.000000 2.930320 0.000000 
#    z 0.000000 0.000000 2.692320 
# 
# 
# High freq. dielectric constant tensor:
#      x y z
#    x 1.418780 0.000000 0.000000 
#    y 0.000000 1.500240 0.000000 
#    z 0.000000 0.000000 1.458120 
# 
# From -- ./inp_files/73535.got.cif
#   From: 2010.03.12/outbox.cif.g09.slc.cpg/sg74_37_cif.got.tgz:73535.got - 2010.04.16 15:46:19.
