data_PCOD8297505
_publ_section_title
;
Structure prediction by ZEFSAII (Michael W. Deem and Ramdas Pophale) SiO2 
 PCOD8297505
Probable space group: I M M A
;
_chemical_formula_sum "Si O2"
_cell_formula_units_Z 56
_cell_length_a 8.592879
_cell_length_b 29.301422
_cell_length_c 13.607106
_cell_angle_alpha 90.000000
_cell_angle_beta 90.000000
_cell_angle_gamma 90.000000
_cell_volume 3426.045777
_symmetry_space_group_name_H-M "I M M A"
_symmetry_group_IT_number 74
_symmetry_cell_setting 'orthorhombic'
loop_
_space_group_symop_operation_xyz
x,y,z
-x,1/2-y,z
x,-y,-z
-x,1/2+y,-z
-x,-y,-z
x,1/2+y,-z
-x,y,z
x,1/2-y,z
1/2+x,1/2+y,1/2+z
1/2-x,-y,1/2+z
1/2+x,1/2-y,1/2-z
1/2-x,y,1/2-z
1/2-x,1/2-y,1/2-z
1/2+x,y,1/2-z
1/2-x,1/2+y,1/2+z
1/2+x,-y,1/2+z
loop_
_atom_site_type_symbol
_atom_site_label
_atom_site_fract_x
_atom_site_fract_y
_atom_site_fract_z
Si Si1 0.182846 0.564362 0.956928
Si Si2 0.316393 0.750000 0.859266
Si Si3 0.317782 0.842050 0.642449
Si Si4 0.184188 0.978731 0.355543
O O1 0.224862 0.615787 0.927403
O O2 0.269002 0.530364 0.882193
O O3 0.000000 0.554446 0.949960
O O4 0.242193 0.556599 0.067190
O O5 0.500000 0.750000 0.859968
O O6 0.250000 0.750000 0.750000
O O7 0.254130 0.796635 0.909073
O O8 0.500000 0.835053 0.653775
O O9 0.250000 0.851405 0.750000
O O10 0.250000 0.965170 0.250000
O O11 0.000000 0.974066 0.357047
#
# Coordination Sequence:
#
# PCOD8297505 Si02
#       4
#    16   8  16  16
#     4  10  20  33  49  70  94 122 157 193 230 275
#     4  10  18  28  44  64  91 122 153 188 226 272
#     4  10  19  30  46  67  94 124 154 189 228 272
#     4  11  21  33  49  68  94 125 156 193 231 272
#
# _framework density 16.345374
#
# number of rings (size 3 to 8) (size 9 to 14) (size 15 to 20)
#    0.000    1.714    0.000    9.857    0.000    6.857 
#    0.000    0.000    0.000    0.000    0.000    1.000 
#    0.000    0.000    0.000    0.000    0.000    0.000 
#
# Total GULP energy -347209.607617 kJ/mol
# GULP energy per Si atom -12400.343129 kJ/mol
# Density = 1.630817 g / cm^3
# Si number density = 16.345374 Si / 1000 Ang^3
#
#
#
# Elastic Constant Matrix: (Units=GPa)
#
#
# Indices 1 2 3 4 5 6 
#
# 1 77.4799 45.2557 19.8760 0.0000 0.0000 0.0000
# 2 45.2557 143.1469 46.6770 0.0000 0.0001 0.0001
# 3 19.8760 46.6770 83.5485 -0.0022 0.0003 0.0005
# 4 0.0000 0.0000 -0.0022 19.5924 0.0002 0.0003
# 5 0.0000 0.0001 0.0003 0.0002 24.9596 -0.0001
# 6 0.0000 0.0001 0.0005 0.0003 -0.0001 27.4236
#
#
#
# Elastic Compliance Matrix: (Units=1/GPa)
#
#
# Indices 1 2 3 4 5 6 
#
# 1 0.015926 -0.004646 -0.001193 0.000000 0.000000 0.000000
# 2 -0.004646 0.009897 -0.004424 -0.000001 0.000000 0.000000
# 3 -0.001193 -0.004424 0.014725 0.000002 0.000000 0.000000
# 4 0.000000 -0.000001 0.000002 0.051040 0.000000 -0.000001
# 5 0.000000 0.000000 0.000000 0.000000 0.040065 0.000000
# 6 0.000000 0.000000 0.000000 -0.000001 0.000000 0.036465
#
#
# Mechanical properties :
#
#
# Convention : Reuss Voigt Hill
#
# Bulk Modulus (GPa) = 49.94613 58.64361 54.29487
# Shear Modulus (GPa) = 25.59917 27.21955 26.40936
#
# Velocity S-wave (km/s) = 3.96174 4.08521 4.02395
# Velocity P-wave (km/s) = 7.17985 7.62939 7.40803
#
# Compressibility (1/GPa) = 0.02002157
#
# Stress axis : x y z
#
# Youngs Moduli (GPa) = 62.78881 101.03785 67.91332
#
# Poissons Ratio (x) = 0.46943 0.08103
# Poissons Ratio (y) = 0.29172 0.30046
# Poissons Ratio (z) = 0.07492 0.44701
#
# Static dielectric constant tensor:
#      x y z
#    x 3.281060 0.000000 0.000000 
#    y 0.000000 3.529660 0.000000 
#    z 0.000000 0.000000 2.876810 
# 
# 
# High freq. dielectric constant tensor:
#      x y z
#    x 1.654760 0.000000 0.000000 
#    y 0.000000 1.631440 0.000000 
#    z 0.000000 0.000000 1.594730 
# 
# From -- ./inp_files/17471.got.cif
#   From: 2010.03.12/outbox.cif.g09.slc.cpg/sg74_9_cif.got.tgz:17471.got - 2010.04.16 15:46:19.
