data_PCOD8297319
_publ_section_title
;
Structure prediction by ZEFSAII (Michael W. Deem and Ramdas Pophale) SiO2 
 PCOD8297319
Probable space group: I M M A
;
_chemical_formula_sum "Si O2"
_cell_formula_units_Z 112
_cell_length_a 19.546661
_cell_length_b 24.457263
_cell_length_c 12.704667
_cell_angle_alpha 90.000000
_cell_angle_beta 90.000000
_cell_angle_gamma 90.000000
_cell_volume 6073.565522
_symmetry_space_group_name_H-M "I M M A"
_symmetry_group_IT_number 74
_symmetry_cell_setting 'orthorhombic'
loop_
_space_group_symop_operation_xyz
x,y,z
-x,1/2-y,z
x,-y,-z
-x,1/2+y,-z
-x,-y,-z
x,1/2+y,-z
-x,y,z
x,1/2-y,z
1/2+x,1/2+y,1/2+z
1/2-x,-y,1/2+z
1/2+x,1/2-y,1/2-z
1/2-x,y,1/2-z
1/2-x,1/2-y,1/2-z
1/2+x,y,1/2-z
1/2-x,1/2+y,1/2+z
1/2+x,-y,1/2+z
loop_
_atom_site_type_symbol
_atom_site_label
_atom_site_fract_x
_atom_site_fract_y
_atom_site_fract_z
Si Si1 0.696388 0.882540 0.957058
Si Si2 0.830795 0.188410 0.267293
Si Si3 0.310633 0.983173 0.824603
Si Si4 0.578356 0.479694 0.340159
Si Si5 0.814270 0.392260 0.686857
Si Si6 0.422991 0.895936 0.363348
Si Si7 0.355056 0.123247 0.431690
O O1 0.654337 0.846159 0.872881
O O2 0.685353 0.946735 0.929842
O O3 0.776208 0.870237 0.956915
O O4 0.670324 0.865245 0.073381
O O5 0.857959 0.250000 0.281539
O O6 0.750000 0.187487 0.250000
O O7 0.871784 0.161662 0.168818
O O8 0.250000 0.957729 0.750000
O O9 0.385874 0.981190 0.773459
O O10 0.292251 0.046016 0.845980
O O11 0.500000 0.459518 0.328497
O O12 0.580997 0.539676 0.392761
O O13 0.622583 0.438804 0.410443
O O14 0.750000 0.366207 0.750000
O O15 0.880957 0.384840 0.757377
O O16 0.500000 0.877684 0.339260
O O17 0.395390 0.860017 0.461659
#
# Coordination Sequence:
#
# PCOD8297319 Si02
#       7
#    16  16  16  16  16  16  16
#     4  11  18  31  52  76 104 136 175 217 263 313
#     4   9  19  34  54  81 106 129 165 219 274 315
#     4  10  17  29  46  73 105 140 175 215 255 307
#     4  10  19  30  46  74 109 141 173 210 258 315
#     4  10  20  30  48  75 107 141 177 213 247 309
#     4  10  21  34  48  74 110 144 174 209 258 314
#     4  11  18  30  53  76 101 134 173 214 264 314
#
# _framework density 18.440567999999999
#
# number of rings (size 3 to 8) (size 9 to 14) (size 15 to 20)
#    0.000    1.857    4.286    1.714    0.000    2.286 
#    0.000    0.714    0.000    6.429    0.000    0.000 
#    0.000    0.000    0.000    0.000    0.000    0.000 
#
# Total GULP energy -694081.051164 kJ/mol
# GULP energy per Si atom -12394.304485 kJ/mol
# Density = 1.839860 g / cm^3
# Si number density = 18.440568 Si / 1000 Ang^3
#
#
#
# Elastic Constant Matrix: (Units=GPa)
#
#
# Indices 1 2 3 4 5 6 
#
# 1 80.0839 20.7325 45.9773 0.0000 0.0000 0.0000
# 2 20.7325 46.3013 40.1983 0.0000 0.0000 0.0000
# 3 45.9773 40.1983 158.8411 0.0000 0.0000 0.0000
# 4 0.0000 0.0000 0.0000 13.0044 0.0000 0.0000
# 5 0.0000 0.0000 0.0000 0.0000 18.5493 0.0000
# 6 0.0000 0.0000 0.0000 0.0000 0.0000 9.2270
#
#
#
# Elastic Compliance Matrix: (Units=1/GPa)
#
#
# Indices 1 2 3 4 5 6 
#
# 1 0.015507 -0.003905 -0.003501 0.000000 0.000000 0.000000
# 2 -0.003905 0.028662 -0.006123 0.000000 0.000000 0.000000
# 3 -0.003501 -0.006123 0.008859 0.000000 0.000000 0.000000
# 4 0.000000 0.000000 0.000000 0.076897 0.000000 0.000000
# 5 0.000000 0.000000 0.000000 0.000000 0.053910 0.000000
# 6 0.000000 0.000000 0.000000 0.000000 0.000000 0.108377
#
#
# Mechanical properties :
#
#
# Convention : Reuss Voigt Hill
#
# Bulk Modulus (GPa) = 38.50442 55.44916 46.97679
# Shear Modulus (GPa) = 15.24726 20.04403 17.64565
#
# Velocity S-wave (km/s) = 2.87859 3.30047 3.09672
# Velocity P-wave (km/s) = 5.65455 6.68271 6.19001
#
# Compressibility (1/GPa) = 0.02597104
#
# Stress axis : x y z
#
# Youngs Moduli (GPa) = 64.48500 34.88894 112.88578
#
# Poissons Ratio (x) = 0.13623 0.39516
# Poissons Ratio (y) = 0.25180 0.69125
# Poissons Ratio (z) = 0.22573 0.21364
#
# Static dielectric constant tensor:
#      x y z
#    x 3.225920 0.000000 0.000000 
#    y 0.000000 3.123210 0.000000 
#    z 0.000000 0.000000 3.551970 
# 
# 
# High freq. dielectric constant tensor:
#      x y z
#    x 1.690540 0.000000 0.000000 
#    y 0.000000 1.665350 0.000000 
#    z 0.000000 0.000000 1.724440 
# 
# From -- ./inp_files/24372.got.cif
#   From: 2010.03.12/outbox.cif.g09.slc.cpg/sg74_13_cif.got.tgz:24372.got - 2010.04.16 15:46:19.
