data_PCOD8297026
_publ_section_title
;
Structure prediction by ZEFSAII (Michael W. Deem and Ramdas Pophale) SiO2 
 PCOD8297026
Probable space group: I B C A 
;
_chemical_formula_sum "Si O2"
_cell_formula_units_Z 96
_cell_length_a 21.656169
_cell_length_b 13.580383
_cell_length_c 14.232032
_cell_angle_alpha 90.000000
_cell_angle_beta 90.000000
_cell_angle_gamma 90.000000
_cell_volume 4185.627366
_symmetry_space_group_name_H-M "I B C A "
_symmetry_group_IT_number 73
_symmetry_cell_setting 'orthorhombic'
loop_
_space_group_symop_operation_xyz
x,y,z
-x,1/2-y,z
x,-y,1/2-z
1/2-x,y,-z
-x,-y,-z
x,1/2+y,-z
-x,y,1/2+z
1/2+x,-y,z
1/2+x,1/2+y,1/2+z
1/2-x,-y,1/2+z
1/2+x,1/2-y,-z
-x,1/2+y,1/2-z
1/2-x,1/2-y,1/2-z
1/2+x,y,1/2-z
1/2-x,1/2+y,z
x,1/2-y,1/2+z
loop_
_atom_site_type_symbol
_atom_site_label
_atom_site_fract_x
_atom_site_fract_y
_atom_site_fract_z
Si Si1 0.365009 0.006722 0.144981
Si Si2 0.500000 0.250000 0.445093
Si Si3 0.171168 0.312664 0.809670
Si Si4 0.504439 0.959639 0.605182
Si Si5 0.899165 0.000000 0.750000
Si Si6 0.126383 0.801429 0.531907
Si Si7 0.191570 0.306727 0.128809
O O1 0.345860 0.099284 0.079999
O O2 0.335585 0.000000 0.250000
O O3 0.439074 0.014355 0.155204
O O4 0.341711 0.907122 0.094668
O O5 0.476203 0.156806 0.385420
O O6 0.554993 0.194858 0.501304
O O7 0.147940 0.411206 0.761882
O O8 0.123137 0.283212 0.889840
O O9 0.235380 0.324203 0.865789
O O10 0.171040 0.226477 0.732538
O O11 0.500000 0.000000 0.500000
O O12 0.440609 0.982126 0.658045
O O13 0.172620 0.777239 0.445996
#
# Coordination Sequence:
#
# PCOD8297026 Si02
#       7
#    16   8  16  16   8  16  16
#     4  12  25  45  76 106 143 194 247 311 378 449
#     4  12  24  42  74  98 148 188 234 308 366 450
#     4  11  27  47  71 105 149 193 251 306 371 457
#     4  12  25  45  68 108 145 186 246 303 378 456
#     4  12  28  44  70 110 150 196 246 316 386 448
#     4  12  25  45  73 107 145 196 247 310 378 448
#     4  11  26  49  74 104 145 194 252 306 374 452
#
# _framework density 22.935631000000001
#
# number of rings (size 3 to 8) (size 9 to 14) (size 15 to 20)
#    0.000    0.333    5.833    2.500    1.167    0.000 
#    0.000    3.333    0.000    0.000    0.000    0.000 
#    0.000    0.000    0.000    0.000    0.000    0.000 
#
# Total GULP energy -595030.927245 kJ/mol
# GULP energy per Si atom -12396.477651 kJ/mol
# Density = 2.288343 g / cm^3
# Si number density = 22.935631 Si / 1000 Ang^3
#
#
#
# Elastic Constant Matrix: (Units=GPa)
#
#
# Indices 1 2 3 4 5 6 
#
# 1 103.4536 43.5268 45.9565 0.0000 0.0000 0.0000
# 2 43.5268 116.4149 34.5198 0.0000 0.0000 0.0000
# 3 45.9565 34.5198 110.3661 0.0000 0.0000 0.0000
# 4 0.0000 0.0000 0.0000 39.1590 0.0000 0.0000
# 5 0.0000 0.0000 0.0000 0.0000 35.7615 0.0000
# 6 0.0000 0.0000 0.0000 0.0000 0.0000 32.1074
#
#
#
# Elastic Compliance Matrix: (Units=1/GPa)
#
#
# Indices 1 2 3 4 5 6 
#
# 1 0.013111 -0.003619 -0.004328 0.000000 0.000000 0.000000
# 2 -0.003619 0.010467 -0.001767 0.000000 0.000000 0.000000
# 3 -0.004328 -0.001767 0.011415 0.000000 0.000000 0.000000
# 4 0.000000 0.000000 0.000000 0.025537 0.000000 0.000000
# 5 0.000000 0.000000 0.000000 0.000000 0.027963 0.000000
# 6 0.000000 0.000000 0.000000 0.000000 0.000000 0.031146
#
#
# Mechanical properties :
#
#
# Convention : Reuss Voigt Hill
#
# Bulk Modulus (GPa) = 64.23956 64.24900 64.24428
# Shear Modulus (GPa) = 34.66088 35.15435 34.90762
#
# Velocity S-wave (km/s) = 3.89166 3.91927 3.90549
# Velocity P-wave (km/s) = 6.94715 6.96810 6.95763
#
# Compressibility (1/GPa) = 0.01556673
#
# Stress axis : x y z
#
# Youngs Moduli (GPa) = 76.27056 95.53839 87.60096
#
# Poissons Ratio (x) = 0.34575 0.37910
# Poissons Ratio (y) = 0.27602 0.15478
# Poissons Ratio (z) = 0.33007 0.16880
#
# Static dielectric constant tensor:
#      x y z
#    x 3.995420 0.000000 0.000000 
#    y 0.000000 4.248190 0.000000 
#    z 0.000000 0.000000 4.110080 
# 
# 
# High freq. dielectric constant tensor:
#      x y z
#    x 1.902820 0.000000 0.000000 
#    y 0.000000 1.915550 0.000000 
#    z 0.000000 0.000000 1.909160 
# 
# From -- ./inp_files/18692.got.cif
#   From: 2010.03.12/outbox.cif.g09.slc.cpg/sg73_10_cif.got.tgz:18692.got - 2010.04.16 15:25:48.
