data_PCOD8297435
_publ_section_title
;
Structure prediction by ZEFSAII (Michael W. Deem and Ramdas Pophale) SiO2 
 PCOD8297435
Probable space group: I M M A
;
_chemical_formula_sum "Si O2"
_cell_formula_units_Z 80
_cell_length_a 7.738797
_cell_length_b 26.174706
_cell_length_c 27.984648
_cell_angle_alpha 90.000000
_cell_angle_beta 90.000000
_cell_angle_gamma 90.000000
_cell_volume 5668.590903
_symmetry_space_group_name_H-M "I M M A"
_symmetry_group_IT_number 74
_symmetry_cell_setting 'orthorhombic'
loop_
_space_group_symop_operation_xyz
x,y,z
-x,1/2-y,z
x,-y,-z
-x,1/2+y,-z
-x,-y,-z
x,1/2+y,-z
-x,y,z
x,1/2-y,z
1/2+x,1/2+y,1/2+z
1/2-x,-y,1/2+z
1/2+x,1/2-y,1/2-z
1/2-x,y,1/2-z
1/2-x,1/2-y,1/2-z
1/2+x,y,1/2-z
1/2-x,1/2+y,1/2+z
1/2+x,-y,1/2+z
loop_
_atom_site_type_symbol
_atom_site_label
_atom_site_fract_x
_atom_site_fract_y
_atom_site_fract_z
Si Si1 0.000000 0.419100 0.517919
Si Si2 0.194536 0.750000 0.661051
Si Si3 0.807192 0.425888 0.112473
Si Si4 0.697103 0.140738 0.479490
Si Si5 0.500000 0.485943 0.076771
Si Si6 0.296596 0.643228 0.803924
Si Si7 0.698689 0.250000 0.444297
O O1 0.172852 0.384467 0.517670
O O2 0.000000 0.453467 0.565804
O O3 0.000000 0.455412 0.472364
O O4 0.283673 0.698728 0.681974
O O5 0.190937 0.750000 0.603792
O O6 0.000000 0.750000 0.680141
O O7 0.770943 0.382613 0.072902
O O8 0.671317 0.472081 0.106914
O O9 0.791126 0.400091 0.164020
O O10 0.000000 0.448683 0.106660
O O11 0.500000 0.131375 0.496646
O O12 0.741323 0.200693 0.476364
O O13 0.500000 0.642008 0.813669
O O14 0.250000 0.629854 0.750000
O O15 0.500000 0.250000 0.427856
#
# Coordination Sequence:
#
# PCOD8297435 Si02
#       7
#     8   8  16  16   8  16   8
#     4   9  18  29  46  60  80 105 126 177 218 256
#     4  10  21  29  43  58  76 110 144 179 223 261
#     4  10  18  30  46  61  78 105 135 173 219 262
#     4   9  18  28  42  63  83 106 138 167 209 254
#     4   9  18  32  44  62  80  98 134 170 222 271
#     4  11  21  32  42  59  82 107 143 183 223 267
#     4  10  18  27  41  60  83 110 140 177 205 258
#
# _framework density 14.112854
#
# number of rings (size 3 to 8) (size 9 to 14) (size 15 to 20)
#    0.000    2.200    3.000    0.900    1.400    1.600 
#    0.000    4.000    0.000    0.000    0.000    0.000 
#    0.000    0.000    0.000    0.000    0.000    0.000 
#
# Total GULP energy -495986.823673 kJ/mol
# GULP energy per Si atom -12399.670592 kJ/mol
# Density = 1.408073 g / cm^3
# Si number density = 14.112854 Si / 1000 Ang^3
#
#
#
# Elastic Constant Matrix: (Units=GPa)
#
#
# Indices 1 2 3 4 5 6 
#
# 1 88.6625 44.2866 28.1181 0.0000 0.0000 0.0000
# 2 44.2866 81.4614 45.4858 0.0000 0.0000 0.0000
# 3 28.1181 45.4858 47.5331 0.0000 0.0000 0.0000
# 4 0.0000 0.0000 0.0000 19.1007 0.0000 0.0000
# 5 0.0000 0.0000 0.0000 0.0000 15.8119 0.0000
# 6 0.0000 0.0000 0.0000 0.0000 0.0000 13.6634
#
#
#
# Elastic Compliance Matrix: (Units=1/GPa)
#
#
# Indices 1 2 3 4 5 6 
#
# 1 0.015609 -0.007151 -0.002390 0.000000 0.000000 0.000000
# 2 -0.007151 0.029637 -0.024130 0.000000 0.000000 0.000000
# 3 -0.002390 -0.024130 0.045543 0.000000 0.000000 0.000000
# 4 0.000000 0.000000 0.000000 0.052354 0.000000 0.000000
# 5 0.000000 0.000000 0.000000 0.000000 0.063243 0.000000
# 6 0.000000 0.000000 0.000000 0.000000 0.000000 0.073188
#
#
# Mechanical properties :
#
#
# Convention : Reuss Voigt Hill
#
# Bulk Modulus (GPa) = 42.65232 50.38200 46.51716
# Shear Modulus (GPa) = 14.09510 16.36631 15.23070
#
# Velocity S-wave (km/s) = 3.16372 3.40909 3.28869
# Velocity P-wave (km/s) = 6.60556 7.16050 6.88862
#
# Compressibility (1/GPa) = 0.02344538
#
# Stress axis : x y z
#
# Youngs Moduli (GPa) = 64.06695 33.74138 21.95727
#
# Poissons Ratio (x) = 0.24129 0.05248
# Poissons Ratio (y) = 0.45815 0.52984
# Poissons Ratio (z) = 0.15313 0.81420
#
# Static dielectric constant tensor:
#      x y z
#    x 2.919380 0.000000 0.000000 
#    y 0.000000 2.745930 0.000000 
#    z 0.000000 0.000000 2.412600 
# 
# 
# High freq. dielectric constant tensor:
#      x y z
#    x 1.556200 0.000000 0.000000 
#    y 0.000000 1.513180 0.000000 
#    z 0.000000 0.000000 1.486220 
# 
# From -- ./inp_files/49020.got.cif
#   From: 2010.03.12/outbox.cif.g09.slc.cpg/sg74_25_cif.got.tgz:49020.got - 2010.04.16 15:46:19.
