data_PCOD8297296
_publ_section_title
;
Structure prediction by ZEFSAII (Michael W. Deem and Ramdas Pophale) SiO2 
 PCOD8297296
Probable space group: I M M A
;
_chemical_formula_sum "Si O2"
_cell_formula_units_Z 128
_cell_length_a 16.810434
_cell_length_b 23.948968
_cell_length_c 20.999545
_cell_angle_alpha 90.000000
_cell_angle_beta 90.000000
_cell_angle_gamma 90.000000
_cell_volume 8454.260285
_symmetry_space_group_name_H-M "I M M A"
_symmetry_group_IT_number 74
_symmetry_cell_setting 'orthorhombic'
loop_
_space_group_symop_operation_xyz
x,y,z
-x,1/2-y,z
x,-y,-z
-x,1/2+y,-z
-x,-y,-z
x,1/2+y,-z
-x,y,z
x,1/2-y,z
1/2+x,1/2+y,1/2+z
1/2-x,-y,1/2+z
1/2+x,1/2-y,1/2-z
1/2-x,y,1/2-z
1/2-x,1/2-y,1/2-z
1/2+x,y,1/2-z
1/2-x,1/2+y,1/2+z
1/2+x,-y,1/2+z
loop_
_atom_site_type_symbol
_atom_site_label
_atom_site_fract_x
_atom_site_fract_y
_atom_site_fract_z
Si Si1 0.850619 0.813132 0.324967
Si Si2 0.586458 0.895395 0.081737
Si Si3 0.190517 0.686750 0.101329
Si Si4 0.592957 0.130837 0.699376
Si Si5 0.249608 0.525018 0.900616
Si Si6 0.252926 0.912239 0.023883
Si Si7 0.331097 0.016909 0.716095
Si Si8 0.589481 0.493996 0.157819
O O1 0.877142 0.750000 0.312603
O O2 0.904173 0.836601 0.382430
O O3 0.759113 0.818193 0.345749
O O4 0.861293 0.847113 0.260816
O O5 0.500000 0.898535 0.048418
O O6 0.651828 0.902205 0.026479
O O7 0.593815 0.941359 0.137541
O O8 0.183999 0.750000 0.074337
O O9 0.109922 0.669730 0.137968
O O10 0.206090 0.643835 0.043346
O O11 0.500000 0.129998 0.713334
O O12 0.625073 0.069139 0.683744
O O13 0.235577 0.463149 0.928498
O O14 0.192339 0.528310 0.838760
O O15 0.342244 0.537319 0.882755
O O16 0.226412 0.571941 0.952290
O O17 0.250000 0.037340 0.750000
O O18 0.390282 0.988699 0.767214
O O19 0.500000 0.469855 0.145530
#
# Coordination Sequence:
#
# PCOD8297296 Si02
#       8
#    16  16  16  16  16  16  16  16
#     4  10  19  29  41  58  82 115 152 181 205 239
#     4   9  16  25  38  58  85 112 138 171 211 249
#     4  10  20  33  46  59  81 112 147 185 215 246
#     4  12  21  28  41  60  83 112 146 186 220 244
#     4   9  17  28  46  61  80 112 145 177 205 252
#     4   9  17  30  44  60  79 111 149 178 209 244
#     4  10  17  28  44  61  84 113 142 171 210 258
#     4   9  16  26  41  64  88 107 130 166 217 261
#
# _framework density 15.140295999999999
#
# number of rings (size 3 to 8) (size 9 to 14) (size 15 to 20)
#    0.000    2.250    2.500    2.250    0.000    3.250 
#    0.000    2.500    0.000    2.250    0.000    0.000 
#    0.000    4.500    0.000    0.250    0.000    0.000 
#
# Total GULP energy -793262.162708 kJ/mol
# GULP energy per Si atom -12394.721292 kJ/mol
# Density = 1.510584 g / cm^3
# Si number density = 15.140296 Si / 1000 Ang^3
#
#
#
# Elastic Constant Matrix: (Units=GPa)
#
#
# Indices 1 2 3 4 5 6 
#
# 1 32.2678 14.0951 20.8504 0.0000 0.0000 0.0000
# 2 14.0951 53.3780 36.9132 0.0000 0.0000 0.0000
# 3 20.8504 36.9132 72.1049 0.0001 0.0000 0.0000
# 4 0.0000 0.0000 0.0001 19.8286 0.0000 0.0000
# 5 0.0000 0.0000 0.0000 0.0000 12.5959 0.0000
# 6 0.0000 0.0000 0.0000 0.0000 0.0000 8.2155
#
#
#
# Elastic Compliance Matrix: (Units=1/GPa)
#
#
# Indices 1 2 3 4 5 6 
#
# 1 0.038611 -0.003831 -0.009204 0.000000 0.000000 0.000000
# 2 -0.003831 0.029382 -0.013934 0.000000 0.000000 0.000000
# 3 -0.009204 -0.013934 0.023663 0.000000 0.000000 0.000000
# 4 0.000000 0.000000 0.000000 0.050432 0.000000 0.000000
# 5 0.000000 0.000000 0.000000 0.000000 0.079391 0.000000
# 6 0.000000 0.000000 0.000000 0.000000 0.000000 0.121721
#
#
# Mechanical properties :
#
#
# Convention : Reuss Voigt Hill
#
# Bulk Modulus (GPa) = 26.51174 33.49646 30.00410
# Shear Modulus (GPa) = 12.20374 13.85415 13.02894
#
# Velocity S-wave (km/s) = 2.84217 3.02826 2.93669
# Velocity P-wave (km/s) = 5.32159 5.86509 5.59994
#
# Compressibility (1/GPa) = 0.03771914
#
# Stress axis : x y z
#
# Youngs Moduli (GPa) = 25.89919 34.03473 42.25926
#
# Poissons Ratio (x) = 0.13038 0.38895
# Poissons Ratio (y) = 0.09921 0.58884
# Poissons Ratio (z) = 0.23838 0.47424
#
# Static dielectric constant tensor:
#      x y z
#    x 2.921210 0.000000 0.000000 
#    y 0.000000 2.652990 0.000000 
#    z 0.000000 0.000000 2.719740 
# 
# 
# High freq. dielectric constant tensor:
#      x y z
#    x 1.578120 0.000000 0.000000 
#    y 0.000000 1.538140 0.000000 
#    z 0.000000 0.000000 1.554740 
# 
# From -- ./inp_files/61200.got.cif
#   From: 2010.03.12/outbox.cif.g09.slc.cpg/sg74_31_cif.got.tgz:61200.got - 2010.04.16 15:46:19.
