data_PCOD8297514
_publ_section_title
;
Structure prediction by ZEFSAII (Michael W. Deem and Ramdas Pophale) SiO2 
 PCOD8297514
Probable space group: I M M A
;
_chemical_formula_sum "Si O2"
_cell_formula_units_Z 128
_cell_length_a 23.823320
_cell_length_b 19.362915
_cell_length_c 17.168594
_cell_angle_alpha 90.000000
_cell_angle_beta 90.000000
_cell_angle_gamma 90.000000
_cell_volume 7919.682187
_symmetry_space_group_name_H-M "I M M A"
_symmetry_group_IT_number 74
_symmetry_cell_setting 'orthorhombic'
loop_
_space_group_symop_operation_xyz
x,y,z
-x,1/2-y,z
x,-y,-z
-x,1/2+y,-z
-x,-y,-z
x,1/2+y,-z
-x,y,z
x,1/2-y,z
1/2+x,1/2+y,1/2+z
1/2-x,-y,1/2+z
1/2+x,1/2-y,1/2-z
1/2-x,y,1/2-z
1/2-x,1/2-y,1/2-z
1/2+x,y,1/2-z
1/2-x,1/2+y,1/2+z
1/2+x,-y,1/2+z
loop_
_atom_site_type_symbol
_atom_site_label
_atom_site_fract_x
_atom_site_fract_y
_atom_site_fract_z
Si Si1 0.265209 0.327945 0.062553
Si Si2 0.435703 0.571852 0.911524
Si Si3 0.630518 0.173595 0.167305
Si Si4 0.247468 0.560618 0.060576
Si Si5 0.804414 0.370654 0.197416
Si Si6 0.434284 0.831510 0.058619
Si Si7 0.133667 0.558962 0.360982
Si Si8 0.690450 0.524683 0.291566
O O1 0.275394 0.250000 0.037785
O O2 0.319634 0.354914 0.110450
O O3 0.209738 0.334784 0.115751
O O4 0.253764 0.367423 0.983132
O O5 0.500000 0.551120 0.914045
O O6 0.421009 0.620166 0.837814
O O7 0.404157 0.499342 0.903290
O O8 0.418965 0.621756 0.983644
O O9 0.611208 0.250000 0.142801
O O10 0.649956 0.175087 0.256972
O O11 0.306406 0.545974 0.101084
O O12 0.198354 0.566353 0.126617
O O13 0.232904 0.500000 0.000000
O O14 0.750000 0.373558 0.250000
O O15 0.827431 0.447553 0.184181
O O16 0.500000 0.837658 0.079956
O O17 0.418480 0.750000 0.046832
O O18 0.395370 0.865940 0.125748
O O19 0.141951 0.553218 0.266844
O O20 0.750000 0.525749 0.250000
#
# Coordination Sequence:
#
# PCOD8297514 Si02
#       8
#    16  16  16  16  16  16  16  16
#     4  10  19  29  45  69  95 123 158 192 225 273
#     4  11  21  32  47  69  94 121 157 201 235 265
#     4  10  18  28  44  67  97 131 156 180 225 280
#     4  11  19  29  47  68  93 125 154 190 230 276
#     4   9  15  28  44  65  94 122 152 189 225 272
#     4  10  21  35  49  67  93 125 161 199 234 264
#     4  11  20  33  50  67  91 125 164 194 228 275
#     4   9  18  30  46  67  91 119 156 194 229 272
#
# _framework density 16.162265000000001
#
# number of rings (size 3 to 8) (size 9 to 14) (size 15 to 20)
#    0.000    1.875    2.500    3.750    0.000    4.750 
#    0.000    0.625    0.000    2.250    0.000    0.000 
#    0.000    9.000    0.000    1.750    0.000    0.000 
#
# Total GULP energy -792962.929656 kJ/mol
# GULP energy per Si atom -12390.045776 kJ/mol
# Density = 1.612548 g / cm^3
# Si number density = 16.162265 Si / 1000 Ang^3
#
#
#
# Elastic Constant Matrix: (Units=GPa)
#
#
# Indices 1 2 3 4 5 6 
#
# 1 42.0939 26.6595 29.7072 0.0000 0.0000 0.0000
# 2 26.6595 82.8425 33.1880 0.0000 0.0000 0.0000
# 3 29.7072 33.1880 78.8768 0.0000 0.0000 0.0000
# 4 0.0000 0.0000 0.0000 24.7429 0.0000 0.0000
# 5 0.0000 0.0000 0.0000 0.0000 18.4864 0.0000
# 6 0.0000 0.0000 0.0000 0.0000 0.0000 20.9414
#
#
#
# Elastic Compliance Matrix: (Units=1/GPa)
#
#
# Indices 1 2 3 4 5 6 
#
# 1 0.035722 -0.007344 -0.010364 0.000000 0.000000 0.000000
# 2 -0.007344 0.016028 -0.003978 0.000000 0.000000 0.000000
# 3 -0.010364 -0.003978 0.018255 0.000000 0.000000 0.000000
# 4 0.000000 0.000000 0.000000 0.040416 0.000000 0.000000
# 5 0.000000 0.000000 0.000000 0.000000 0.054094 0.000000
# 6 0.000000 0.000000 0.000000 0.000000 0.000000 0.047752
#
#
# Mechanical properties :
#
#
# Convention : Reuss Voigt Hill
#
# Bulk Modulus (GPa) = 37.54661 42.54696 40.04679
# Shear Modulus (GPa) = 18.90250 20.45139 19.67694
#
# Velocity S-wave (km/s) = 3.42357 3.56108 3.49300
# Velocity P-wave (km/s) = 6.23773 6.57954 6.41091
#
# Compressibility (1/GPa) = 0.02663356
#
# Stress axis : x y z
#
# Youngs Moduli (GPa) = 27.99434 62.39067 54.77915
#
# Poissons Ratio (x) = 0.45817 0.56772
# Poissons Ratio (y) = 0.20558 0.21792
# Poissons Ratio (z) = 0.29013 0.24820
#
# Static dielectric constant tensor:
#      x y z
#    x 2.888720 0.000000 0.000000 
#    y 0.000000 3.117450 0.000000 
#    z 0.000000 0.000000 3.317400 
# 
# 
# High freq. dielectric constant tensor:
#      x y z
#    x 1.582640 0.000000 0.000000 
#    y 0.000000 1.627950 0.000000 
#    z 0.000000 0.000000 1.602810 
# 
# From -- ./inp_files/46347.got.cif
#   From: 2010.03.12/outbox.cif.g09.slc.cpg/sg74_24_cif.got.tgz:46347.got - 2010.04.16 15:46:19.
