data_PCOD8297688
_publ_section_title
;
Structure prediction by ZEFSAII (Michael W. Deem and Ramdas Pophale) SiO2 
 PCOD8297688
Probable space group: I M M A
;
_chemical_formula_sum "Si O2"
_cell_formula_units_Z 80
_cell_length_a 17.942002
_cell_length_b 13.372032
_cell_length_c 19.783341
_cell_angle_alpha 90.000000
_cell_angle_beta 90.000000
_cell_angle_gamma 90.000000
_cell_volume 4746.439448
_symmetry_space_group_name_H-M "I M M A"
_symmetry_group_IT_number 74
_symmetry_cell_setting 'orthorhombic'
loop_
_space_group_symop_operation_xyz
x,y,z
-x,1/2-y,z
x,-y,-z
-x,1/2+y,-z
-x,-y,-z
x,1/2+y,-z
-x,y,z
x,1/2-y,z
1/2+x,1/2+y,1/2+z
1/2-x,-y,1/2+z
1/2+x,1/2-y,1/2-z
1/2-x,y,1/2-z
1/2-x,1/2-y,1/2-z
1/2+x,y,1/2-z
1/2-x,1/2+y,1/2+z
1/2+x,-y,1/2+z
loop_
_atom_site_type_symbol
_atom_site_label
_atom_site_fract_x
_atom_site_fract_y
_atom_site_fract_z
Si Si1 0.268971 0.865063 0.968985
Si Si2 0.851904 0.368051 0.672160
Si Si3 0.586076 0.866858 0.315526
Si Si4 0.918544 0.131960 0.532999
Si Si5 0.716046 0.949704 0.394070
O O1 0.262544 0.750000 0.945839
O O2 0.229517 0.933989 0.913012
O O3 0.355643 0.900677 0.978445
O O4 0.229466 0.878615 0.041340
O O5 0.840649 0.250000 0.670720
O O6 0.893646 0.401967 0.739857
O O7 0.899868 0.406918 0.608273
O O8 0.770260 0.418132 0.667415
O O9 0.500000 0.889219 0.329167
O O10 0.604789 0.750000 0.325382
O O11 0.631822 0.933262 0.369135
O O12 0.918946 0.250000 0.536316
O O13 0.000000 0.091000 0.510688
#
# Coordination Sequence:
#
# PCOD8297688 Si02
#       5
#    16  16  16  16  16
#     4   9  18  31  46  66  92 123 159 191 220 264
#     4   9  16  27  45  69  95 119 143 176 224 281
#     4  10  19  30  47  71  95 117 145 188 238 279
#     4   8  13  24  43  66  93 120 143 175 221 268
#     4  10  18  30  48  68  91 121 153 185 225 272
#
# _framework density 16.85474
#
# number of rings (size 3 to 8) (size 9 to 14) (size 15 to 20)
#    0.000    2.800    0.000    4.200    0.000    4.000 
#    0.000   11.000    0.000    4.200    0.000    0.000 
#    0.000    0.000    0.000    0.000    0.000    0.000 
#
# Total GULP energy -495815.908987 kJ/mol
# GULP energy per Si atom -12395.397725 kJ/mol
# Density = 1.681638 g / cm^3
# Si number density = 16.854740 Si / 1000 Ang^3
#
#
#
# Elastic Constant Matrix: (Units=GPa)
#
#
# Indices 1 2 3 4 5 6 
#
# 1 128.8504 44.8289 54.8058 0.0000 0.0000 0.0000
# 2 44.8289 71.0542 36.6125 0.0000 0.0000 0.0000
# 3 54.8058 36.6125 63.0052 0.0000 0.0000 0.0000
# 4 0.0000 0.0000 0.0000 25.1368 0.0000 0.0000
# 5 0.0000 0.0000 0.0000 0.0000 20.4086 0.0000
# 6 0.0000 0.0000 0.0000 0.0000 0.0000 -18.3270
#
#
#
# Elastic Compliance Matrix: (Units=1/GPa)
#
#
# Indices 1 2 3 4 5 6 
#
# 1 0.012855 -0.003352 -0.009234 0.000000 0.000000 0.000000
# 2 -0.003352 0.020963 -0.009266 0.000000 0.000000 0.000000
# 3 -0.009234 -0.009266 0.029288 0.000000 0.000000 0.000000
# 4 0.000000 0.000000 0.000000 0.039782 0.000000 0.000000
# 5 0.000000 0.000000 0.000000 0.000000 0.048999 0.000000
# 6 0.000000 0.000000 0.000000 0.000000 0.000000 -0.054564
#
#
# Mechanical properties :
#
#
# Convention : Reuss Voigt Hill
#
# Bulk Modulus (GPa) = 51.53993 59.48935 55.51464
# Shear Modulus (GPa) = 33.89956 13.88786 23.89371
#
# Velocity S-wave (km/s) = 4.48959 2.87361 3.76922
# Velocity P-wave (km/s) = 7.58423 6.81044 7.20773
#
# Compressibility (1/GPa) = 0.01940243
#
# Stress axis : x y z
#
# Youngs Moduli (GPa) = 77.79176 47.70276 34.14332
#
# Poissons Ratio (x) = 0.15991 0.31528
# Poissons Ratio (y) = 0.26078 0.31636
# Poissons Ratio (z) = 0.71832 0.44200
#
# Static dielectric constant tensor:
#      x y z
#    x 3.346540 0.000000 0.000000 
#    y 0.000000 2.917190 0.000000 
#    z 0.000000 0.000000 2.984730 
# 
# 
# High freq. dielectric constant tensor:
#      x y z
#    x 1.650070 0.000000 0.000000 
#    y 0.000000 1.626490 0.000000 
#    z 0.000000 0.000000 1.626200 
# 
# From -- ./inp_files/42662.got.cif
#   From: 2010.03.12/outbox.cif.g09.slc.cpg/sg74_22_cif.got.tgz:42662.got - 2010.04.16 15:46:19.
