data_PCOD8297844
_publ_section_title
;
Structure prediction by ZEFSAII (Michael W. Deem and Ramdas Pophale) SiO2 
 PCOD8297844
Probable space group: I M M A
;
_chemical_formula_sum "Si O2"
_cell_formula_units_Z 96
_cell_length_a 17.427266
_cell_length_b 19.678162
_cell_length_c 16.535248
_cell_angle_alpha 90.000000
_cell_angle_beta 90.000000
_cell_angle_gamma 90.000000
_cell_volume 5670.541127
_symmetry_space_group_name_H-M "I M M A"
_symmetry_group_IT_number 74
_symmetry_cell_setting 'orthorhombic'
loop_
_space_group_symop_operation_xyz
x,y,z
-x,1/2-y,z
x,-y,-z
-x,1/2+y,-z
-x,-y,-z
x,1/2+y,-z
-x,y,z
x,1/2-y,z
1/2+x,1/2+y,1/2+z
1/2-x,-y,1/2+z
1/2+x,1/2-y,1/2-z
1/2-x,y,1/2-z
1/2-x,1/2-y,1/2-z
1/2+x,y,1/2-z
1/2-x,1/2+y,1/2+z
1/2+x,-y,1/2+z
loop_
_atom_site_type_symbol
_atom_site_label
_atom_site_fract_x
_atom_site_fract_y
_atom_site_fract_z
Si Si1 0.588448 0.068267 0.948925
Si Si2 0.414600 0.825047 0.783639
Si Si3 0.773276 0.948068 0.928438
Si Si4 0.411616 0.449185 0.324034
Si Si5 0.171462 0.671901 0.552715
Si Si6 0.682156 0.528114 0.197686
O O1 0.500000 0.066771 0.922892
O O2 0.640960 0.075257 0.868634
O O3 0.604901 0.135814 0.000450
O O4 0.608798 0.000000 0.000000
O O5 0.500000 0.841207 0.818169
O O6 0.411131 0.750000 0.745924
O O7 0.395327 0.874515 0.710407
O O8 0.353755 0.831335 0.854723
O O9 0.863123 0.953512 0.906741
O O10 0.749801 0.871965 0.956884
O O11 0.723112 0.965587 0.848827
O O12 0.754594 0.000000 0.000000
O O13 0.500000 0.462891 0.345309
O O14 0.384729 0.503110 0.257103
O O15 0.184140 0.750000 0.524368
O O16 0.750000 0.565694 0.250000
#
# Coordination Sequence:
#
# PCOD8297844 Si02
#       6
#    16  16  16  16  16  16
#     4  11  19  31  53  77 104 136 168 203 255 309
#     4   9  17  29  45  70 107 137 156 187 236 298
#     4  11  20  35  51  71 102 135 169 207 251 297
#     4  10  20  32  50  75  99 128 168 210 249 294
#     4  11  20  31  49  76 106 136 168 199 244 297
#     4  10  18  31  52  74 100 130 164 207 250 300
#
# _framework density 16.929600000000001
#
# number of rings (size 3 to 8) (size 9 to 14) (size 15 to 20)
#    0.000    1.667    5.000    1.000    0.000    4.667 
#    0.000    1.667    0.000    0.500    0.000    0.000 
#    0.000    0.000    0.000    0.000    0.000    0.000 
#
# Total GULP energy -594944.547205 kJ/mol
# GULP energy per Si atom -12394.678067 kJ/mol
# Density = 1.689107 g / cm^3
# Si number density = 16.929600 Si / 1000 Ang^3
#
#
#
# Elastic Constant Matrix: (Units=GPa)
#
#
# Indices 1 2 3 4 5 6 
#
# 1 104.4084 24.6059 36.9167 0.0000 0.0000 0.0000
# 2 24.6059 75.6259 21.5356 0.0000 0.0000 0.0000
# 3 36.9167 21.5356 56.4895 0.0000 0.0000 0.0000
# 4 0.0000 0.0000 0.0000 18.0048 0.0000 0.0000
# 5 0.0000 0.0000 0.0000 0.0000 33.5214 0.0000
# 6 0.0000 0.0000 0.0000 0.0000 0.0000 13.6755
#
#
#
# Elastic Compliance Matrix: (Units=1/GPa)
#
#
# Indices 1 2 3 4 5 6 
#
# 1 0.012717 -0.001987 -0.007553 0.000000 0.000000 0.000000
# 2 -0.001987 0.015144 -0.004475 0.000000 0.000000 0.000000
# 3 -0.007553 -0.004475 0.024344 0.000000 0.000000 0.000000
# 4 0.000000 0.000000 0.000000 0.055541 0.000000 0.000000
# 5 0.000000 0.000000 0.000000 0.000000 0.029832 0.000000
# 6 0.000000 0.000000 0.000000 0.000000 0.000000 0.073123
#
#
# Mechanical properties :
#
#
# Convention : Reuss Voigt Hill
#
# Bulk Modulus (GPa) = 41.36450 44.73780 43.05115
# Shear Modulus (GPa) = 20.26026 23.27137 21.76582
#
# Velocity S-wave (km/s) = 3.46314 3.71158 3.58951
# Velocity P-wave (km/s) = 6.36219 6.69708 6.53178
#
# Compressibility (1/GPa) = 0.02417532
#
# Stress axis : x y z
#
# Youngs Moduli (GPa) = 78.63734 66.03414 41.07709
#
# Poissons Ratio (x) = 0.13119 0.31026
# Poissons Ratio (y) = 0.15623 0.18382
# Poissons Ratio (z) = 0.59396 0.29550
#
# Static dielectric constant tensor:
#      x y z
#    x 3.275930 0.000000 0.000000 
#    y 0.000000 2.997110 0.000000 
#    z 0.000000 0.000000 3.032710 
# 
# 
# High freq. dielectric constant tensor:
#      x y z
#    x 1.661010 0.000000 0.000000 
#    y 0.000000 1.620980 0.000000 
#    z 0.000000 0.000000 1.634330 
# 
# From -- ./inp_files/44095.got.cif
#   From: 2010.03.12/outbox.cif.g09.slc.cpg/sg74_23_cif.got.tgz:44095.got - 2010.04.16 15:46:19.
