data_PCOD8297720
_publ_section_title
;
Structure prediction by ZEFSAII (Michael W. Deem and Ramdas Pophale) SiO2 
 PCOD8297720
Probable space group: I M M A
;
_chemical_formula_sum "Si O2"
_cell_formula_units_Z 112
_cell_length_a 27.802728
_cell_length_b 18.847950
_cell_length_c 12.796994
_cell_angle_alpha 90.000000
_cell_angle_beta 90.000000
_cell_angle_gamma 90.000000
_cell_volume 6705.937451
_symmetry_space_group_name_H-M "I M M A"
_symmetry_group_IT_number 74
_symmetry_cell_setting 'orthorhombic'
loop_
_space_group_symop_operation_xyz
x,y,z
-x,1/2-y,z
x,-y,-z
-x,1/2+y,-z
-x,-y,-z
x,1/2+y,-z
-x,y,z
x,1/2-y,z
1/2+x,1/2+y,1/2+z
1/2-x,-y,1/2+z
1/2+x,1/2-y,1/2-z
1/2-x,y,1/2-z
1/2-x,1/2-y,1/2-z
1/2+x,y,1/2-z
1/2-x,1/2+y,1/2+z
1/2+x,-y,1/2+z
loop_
_atom_site_type_symbol
_atom_site_label
_atom_site_fract_x
_atom_site_fract_y
_atom_site_fract_z
Si Si1 0.297172 0.834085 0.894801
Si Si2 0.120446 0.916479 0.507329
Si Si3 0.556453 0.828398 0.382475
Si Si4 0.944037 0.917659 0.311207
Si Si5 0.194278 0.667412 0.839385
Si Si6 0.590071 0.833611 0.603987
Si Si7 0.945614 0.082237 0.301366
O O1 0.305141 0.750000 0.911231
O O2 0.328850 0.875059 0.982183
O O3 0.240988 0.858093 0.905250
O O4 0.311367 0.862118 0.778709
O O5 0.089697 0.893233 0.406624
O O6 0.089275 0.892467 0.606920
O O7 0.130644 0.000000 0.500000
O O8 0.500000 0.823699 0.371533
O O9 0.579685 0.750000 0.373789
O O10 0.576421 0.876063 0.288936
O O11 0.569027 0.861647 0.494856
O O12 0.000000 0.900543 0.337903
O O13 0.937735 0.999349 0.281699
O O14 0.201932 0.750000 0.822318
O O15 0.146554 0.648126 0.902444
O O16 0.580592 0.750000 0.621250
O O17 0.564158 0.875106 0.696090
O O18 0.000000 0.097127 0.337773
#
# Coordination Sequence:
#
# PCOD8297720 Si02
#       7
#    16  16  16  16  16  16  16
#     4   9  16  29  50  73  94 121 158 195 238 294
#     4  10  19  31  49  70  99 128 159 197 245 285
#     4   9  18  32  49  68  93 127 163 198 236 281
#     4   9  19  34  48  65  94 133 171 195 225 287
#     4   8  15  28  49  73  94 117 149 191 240 292
#     4  10  18  30  49  73  98 123 155 201 251 289
#     4  10  19  30  47  71  97 126 157 197 244 288
#
# _framework density 16.701616999999999
#
# number of rings (size 3 to 8) (size 9 to 14) (size 15 to 20)
#    0.000    2.714    1.429    1.714    0.000    3.714 
#    0.000    2.143    3.143    3.429    0.000    4.000 
#    0.000    0.000    0.000    0.000    0.000    0.000 
#
# Total GULP energy -694065.819834 kJ/mol
# GULP energy per Si atom -12394.032497 kJ/mol
# Density = 1.666360 g / cm^3
# Si number density = 16.701617 Si / 1000 Ang^3
#
#
#
# Elastic Constant Matrix: (Units=GPa)
#
#
# Indices 1 2 3 4 5 6 
#
# 1 61.7902 26.8719 26.8725 0.0000 0.0000 0.0000
# 2 26.8719 39.7478 37.7517 0.0000 0.0000 0.0000
# 3 26.8725 37.7517 101.0682 0.0000 0.0000 0.0000
# 4 0.0000 0.0000 0.0000 28.5941 0.0000 0.0000
# 5 0.0000 0.0000 0.0000 0.0000 28.6304 0.0000
# 6 0.0000 0.0000 0.0000 0.0000 0.0000 22.9566
#
#
#
# Elastic Compliance Matrix: (Units=1/GPa)
#
#
# Indices 1 2 3 4 5 6 
#
# 1 0.022938 -0.015057 -0.000475 0.000000 0.000000 0.000000
# 2 -0.015057 0.048875 -0.014253 0.000000 0.000000 0.000000
# 3 -0.000475 -0.014253 0.015344 0.000000 0.000000 0.000000
# 4 0.000000 0.000000 0.000000 0.034972 0.000000 0.000000
# 5 0.000000 0.000000 0.000000 0.000000 0.034928 0.000000
# 6 0.000000 0.000000 0.000000 0.000000 0.000000 0.043561
#
#
# Mechanical properties :
#
#
# Convention : Reuss Voigt Hill
#
# Bulk Modulus (GPa) = 36.24643 42.84429 39.54536
# Shear Modulus (GPa) = 18.56095 23.44354 21.00225
#
# Velocity S-wave (km/s) = 3.33727 3.75062 3.54997
# Velocity P-wave (km/s) = 6.04974 6.66818 6.36647
#
# Compressibility (1/GPa) = 0.02758893
#
# Stress axis : x y z
#
# Youngs Moduli (GPa) = 43.59526 20.46050 65.17062
#
# Poissons Ratio (x) = 0.30807 0.03095
# Poissons Ratio (y) = 0.65640 0.92886
# Poissons Ratio (z) = 0.02070 0.29162
#
# Static dielectric constant tensor:
#      x y z
#    x 3.285360 0.000000 0.000000 
#    y 0.000000 3.004650 0.000000 
#    z 0.000000 0.000000 3.085820 
# 
# 
# High freq. dielectric constant tensor:
#      x y z
#    x 1.643710 0.000000 0.000000 
#    y 0.000000 1.620410 0.000000 
#    z 0.000000 0.000000 1.634060 
# 
# From -- ./inp_files/26492.got.cif
#   From: 2010.03.12/outbox.cif.g09.slc.cpg/sg74_14_cif.got.tgz:26492.got - 2010.04.16 15:46:19.
