data_PCOD8297269
_publ_section_title
;
Structure prediction by ZEFSAII (Michael W. Deem and Ramdas Pophale) SiO2 
 PCOD8297269
Probable space group: I M M A
;
_chemical_formula_sum "Si O2"
_cell_formula_units_Z 96
_cell_length_a 29.134593
_cell_length_b 9.156434
_cell_length_c 23.170192
_cell_angle_alpha 90.000000
_cell_angle_beta 90.000000
_cell_angle_gamma 90.000000
_cell_volume 6181.088438
_symmetry_space_group_name_H-M "I M M A"
_symmetry_group_IT_number 74
_symmetry_cell_setting 'orthorhombic'
loop_
_space_group_symop_operation_xyz
x,y,z
-x,1/2-y,z
x,-y,-z
-x,1/2+y,-z
-x,-y,-z
x,1/2+y,-z
-x,y,z
x,1/2-y,z
1/2+x,1/2+y,1/2+z
1/2-x,-y,1/2+z
1/2+x,1/2-y,1/2-z
1/2-x,y,1/2-z
1/2-x,1/2-y,1/2-z
1/2+x,y,1/2-z
1/2-x,1/2+y,1/2+z
1/2+x,-y,1/2+z
loop_
_atom_site_type_symbol
_atom_site_label
_atom_site_fract_x
_atom_site_fract_y
_atom_site_fract_z
Si Si1 0.684798 0.422646 0.059684
Si Si2 0.233650 0.581925 0.341443
Si Si3 0.411058 0.080761 0.114374
Si Si4 0.500000 0.415887 0.750568
Si Si5 0.910102 0.579559 0.748758
Si Si6 0.500000 0.914528 0.112040
Si Si7 0.822007 0.917722 0.227766
O O1 0.689299 0.250000 0.052968
O O2 0.722177 0.476852 0.105615
O O3 0.633987 0.469062 0.080018
O O4 0.696113 0.500000 0.000000
O O5 0.224747 0.750000 0.358679
O O6 0.202283 0.537585 0.287360
O O7 0.286868 0.558133 0.324933
O O8 0.421972 0.250000 0.105706
O O9 0.403104 0.044336 0.181355
O O10 0.454260 0.992927 0.088474
O O11 0.500000 0.250000 0.727941
O O12 0.544906 0.498405 0.726927
O O13 0.500000 0.422529 0.819308
O O14 0.915776 0.750000 0.760823
O O15 0.866001 0.519403 0.782874
O O16 0.500000 0.750000 0.088792
O O17 0.838068 0.750000 0.230628
#
# Coordination Sequence:
#
# PCOD8297269 Si02
#       7
#    16  16  16   8  16   8  16
#     4  11  22  35  49  66  86 115 150 187 231 274
#     4   9  18  32  48  67  90 116 146 183 224 269
#     4   9  18  31  44  60  84 111 142 182 228 272
#     4   9  17  27  39  60  88 119 150 179 219 269
#     4  10  17  27  43  65  90 117 148 185 223 264
#     4   9  17  27  44  64  79 103 142 185 226 268
#     4   9  17  29  47  69  92 117 145 180 224 268
#
# _framework density 15.531245999999999
#
# number of rings (size 3 to 8) (size 9 to 14) (size 15 to 20)
#    0.000    2.500    1.667    2.500    0.000    4.667 
#    0.000    2.083    0.000    0.000    0.000    0.000 
#    0.000    0.000    0.000    0.750    0.000   10.000 
#
# Total GULP energy -595258.567695 kJ/mol
# GULP energy per Si atom -12401.220160 kJ/mol
# Density = 1.549590 g / cm^3
# Si number density = 15.531246 Si / 1000 Ang^3
#
#
#
# Elastic Constant Matrix: (Units=GPa)
#
#
# Indices 1 2 3 4 5 6 
#
# 1 107.3865 60.9969 35.4622 0.0000 0.0000 0.0000
# 2 60.9969 90.6146 32.3345 0.0000 0.0000 0.0000
# 3 35.4622 32.3345 48.8659 0.0000 0.0000 0.0000
# 4 0.0000 0.0000 0.0000 18.2106 0.0000 0.0000
# 5 0.0000 0.0000 0.0000 0.0000 14.0353 0.0000
# 6 0.0000 0.0000 0.0000 0.0000 0.0000 32.5800
#
#
#
# Elastic Compliance Matrix: (Units=1/GPa)
#
#
# Indices 1 2 3 4 5 6 
#
# 1 0.016313 -0.008845 -0.005986 0.000000 0.000000 0.000000
# 2 -0.008845 0.019243 -0.006314 0.000000 0.000000 0.000000
# 3 -0.005986 -0.006314 0.028986 0.000000 0.000000 0.000000
# 4 0.000000 0.000000 0.000000 0.054913 0.000000 0.000000
# 5 0.000000 0.000000 0.000000 0.000000 0.071249 0.000000
# 6 0.000000 0.000000 0.000000 0.000000 0.000000 0.030694
#
#
# Mechanical properties :
#
#
# Convention : Reuss Voigt Hill
#
# Bulk Modulus (GPa) = 44.93924 56.05047 50.49486
# Shear Modulus (GPa) = 18.44309 20.83674 19.63992
#
# Velocity S-wave (km/s) = 3.44973 3.66676 3.55990
# Velocity P-wave (km/s) = 6.69814 7.35486 7.03417
#
# Compressibility (1/GPa) = 0.02225227
#
# Stress axis : x y z
#
# Youngs Moduli (GPa) = 61.30115 51.96728 34.49954
#
# Poissons Ratio (x) = 0.45966 0.20650
# Poissons Ratio (y) = 0.54222 0.21783
# Poissons Ratio (z) = 0.36692 0.32812
#
# Static dielectric constant tensor:
#      x y z
#    x 3.031540 0.000000 0.000000 
#    y 0.000000 2.988640 0.000000 
#    z 0.000000 0.000000 2.516640 
# 
# 
# High freq. dielectric constant tensor:
#      x y z
#    x 1.599310 0.000000 0.000000 
#    y 0.000000 1.606490 0.000000 
#    z 0.000000 0.000000 1.535130 
# 
# From -- ./inp_files/62288.got.cif
#   From: 2010.03.12/outbox.cif.g09.slc.cpg/sg74_32_cif.got.tgz:62288.got - 2010.04.16 15:46:19.
