data_PCOD8297265
_publ_section_title
;
Structure prediction by ZEFSAII (Michael W. Deem and Ramdas Pophale) SiO2 
 PCOD8297265
Probable space group: I M M A
;
_chemical_formula_sum "Si O2"
_cell_formula_units_Z 112
_cell_length_a 16.191353
_cell_length_b 15.739943
_cell_length_c 26.365948
_cell_angle_alpha 90.000000
_cell_angle_beta 90.000000
_cell_angle_gamma 90.000000
_cell_volume 6719.387510
_symmetry_space_group_name_H-M "I M M A"
_symmetry_group_IT_number 74
_symmetry_cell_setting 'orthorhombic'
loop_
_space_group_symop_operation_xyz
x,y,z
-x,1/2-y,z
x,-y,-z
-x,1/2+y,-z
-x,-y,-z
x,1/2+y,-z
-x,y,z
x,1/2-y,z
1/2+x,1/2+y,1/2+z
1/2-x,-y,1/2+z
1/2+x,1/2-y,1/2-z
1/2-x,y,1/2-z
1/2-x,1/2-y,1/2-z
1/2+x,y,1/2-z
1/2-x,1/2+y,1/2+z
1/2+x,-y,1/2+z
loop_
_atom_site_type_symbol
_atom_site_label
_atom_site_fract_x
_atom_site_fract_y
_atom_site_fract_z
Si Si1 0.595373 0.844827 0.742103
Si Si2 0.597905 0.154768 0.769894
Si Si3 0.832558 0.927830 0.849135
Si Si4 0.094264 0.600264 0.161938
Si Si5 0.685641 0.990074 0.795394
Si Si6 0.091002 0.650339 0.056618
Si Si7 0.597460 0.348656 0.446474
O O1 0.500000 0.857272 0.728065
O O2 0.611426 0.750000 0.764006
O O3 0.649668 0.852011 0.690493
O O4 0.620662 0.915032 0.783798
O O5 0.500000 0.139135 0.771829
O O6 0.620212 0.250000 0.789507
O O7 0.631042 0.146700 0.711642
O O8 0.640851 0.081354 0.803944
O O9 0.738377 0.963318 0.845194
O O10 0.849299 0.902162 0.906758
O O11 0.896657 0.000039 0.830530
O O12 0.140116 0.624864 0.108358
O O13 0.000000 0.629497 0.157643
O O14 0.750000 0.998904 0.750000
O O15 0.081832 0.750000 0.053711
O O16 0.000000 0.608222 0.059718
O O17 0.129841 0.621590 0.002529
O O18 0.500000 0.367259 0.440279
O O19 0.615494 0.250000 0.437014
#
# Coordination Sequence:
#
# PCOD8297265 Si02
#       7
#    16  16  16  16  16  16  16
#     4  10  19  31  47  62  81 113 151 191 230 267
#     4  10  19  32  50  66  84 118 158 193 227 266
#     4  11  20  28  40  62  88 118 154 188 223 265
#     4  10  17  27  43  63  88 117 154 193 221 257
#     4  10  20  32  42  63  90 115 150 193 229 269
#     4   8  15  27  41  60  85 113 152 197 229 253
#     4   9  17  29  44  61  85 120 160 196 226 260
#
# _framework density 16.668185999999999
#
# number of rings (size 3 to 8) (size 9 to 14) (size 15 to 20)
#    0.000    2.286    2.857    3.429    0.000    6.857 
#    0.000    2.143    0.000    0.000    0.000    0.000 
#    0.000    0.000    0.000   10.286    0.000   37.143 
#
# Total GULP energy -693752.862105 kJ/mol
# GULP energy per Si atom -12388.443966 kJ/mol
# Density = 1.663025 g / cm^3
# Si number density = 16.668186 Si / 1000 Ang^3
#
#
#
# Elastic Constant Matrix: (Units=GPa)
#
#
# Indices 1 2 3 4 5 6 
#
# 1 50.7450 35.4688 31.1622 0.0000 0.0000 0.0000
# 2 35.4688 94.9730 21.4490 0.0000 0.0000 0.0000
# 3 31.1622 21.4490 64.8103 0.0000 0.0000 0.0000
# 4 0.0000 0.0000 0.0000 21.0188 0.0000 0.0000
# 5 0.0000 0.0000 0.0000 0.0000 14.3339 0.0000
# 6 0.0000 0.0000 0.0000 0.0000 0.0000 20.4201
#
#
#
# Elastic Compliance Matrix: (Units=1/GPa)
#
#
# Indices 1 2 3 4 5 6 
#
# 1 0.035014 -0.010023 -0.013518 0.000000 0.000000 0.000000
# 2 -0.010023 0.014249 0.000104 0.000000 0.000000 0.000000
# 3 -0.013518 0.000104 0.021895 0.000000 0.000000 0.000000
# 4 0.000000 0.000000 0.000000 0.047576 0.000000 0.000000
# 5 0.000000 0.000000 0.000000 0.000000 0.069765 0.000000
# 6 0.000000 0.000000 0.000000 0.000000 0.000000 0.048971
#
#
# Mechanical properties :
#
#
# Convention : Reuss Voigt Hill
#
# Bulk Modulus (GPa) = 41.18197 42.96538 42.07368
# Shear Modulus (GPa) = 17.09748 19.31776 18.20762
#
# Velocity S-wave (km/s) = 3.20622 3.40804 3.30867
# Velocity P-wave (km/s) = 6.20218 6.42800 6.31610
#
# Compressibility (1/GPa) = 0.02428247
#
# Stress axis : x y z
#
# Youngs Moduli (GPa) = 28.56023 70.17922 45.67212
#
# Poissons Ratio (x) = 0.70343 0.61740
# Poissons Ratio (y) = 0.28627 -0.00473
# Poissons Ratio (z) = 0.38608 -0.00727
#
# Static dielectric constant tensor:
#      x y z
#    x 3.009550 0.000000 0.000000 
#    y 0.000000 3.252960 0.000000 
#    z 0.000000 0.000000 3.244200 
# 
# 
# High freq. dielectric constant tensor:
#      x y z
#    x 1.593260 0.000000 0.000000 
#    y 0.000000 1.656570 0.000000 
#    z 0.000000 0.000000 1.611750 
# 
# From -- ./inp_files/72671.got.cif
#   From: 2010.03.12/outbox.cif.g09.slc.cpg/sg74_37_cif.got.tgz:72671.got - 2010.04.16 15:46:19.
