data_PCOD8297379
_publ_section_title
;
Structure prediction by ZEFSAII (Michael W. Deem and Ramdas Pophale) SiO2 
 PCOD8297379
Probable space group: I M M A
;
_chemical_formula_sum "Si O2"
_cell_formula_units_Z 104
_cell_length_a 25.276023
_cell_length_b 20.343954
_cell_length_c 11.798219
_cell_angle_alpha 90.000000
_cell_angle_beta 90.000000
_cell_angle_gamma 90.000000
_cell_volume 6066.812325
_symmetry_space_group_name_H-M "I M M A"
_symmetry_group_IT_number 74
_symmetry_cell_setting 'orthorhombic'
loop_
_space_group_symop_operation_xyz
x,y,z
-x,1/2-y,z
x,-y,-z
-x,1/2+y,-z
-x,-y,-z
x,1/2+y,-z
-x,y,z
x,1/2-y,z
1/2+x,1/2+y,1/2+z
1/2-x,-y,1/2+z
1/2+x,1/2-y,1/2-z
1/2-x,y,1/2-z
1/2-x,1/2-y,1/2-z
1/2+x,y,1/2-z
1/2-x,1/2+y,1/2+z
1/2+x,-y,1/2+z
loop_
_atom_site_type_symbol
_atom_site_label
_atom_site_fract_x
_atom_site_fract_y
_atom_site_fract_z
Si Si1 0.312411 0.675167 0.380449
Si Si2 0.594457 0.996202 0.810875
Si Si3 0.000000 0.326950 0.422243
Si Si4 0.099842 0.900916 0.496269
Si Si5 0.808623 0.323577 0.616189
Si Si6 0.500000 0.582009 0.714590
Si Si7 0.385421 0.441884 0.591586
Si Si8 0.500000 0.074827 0.532700
O O1 0.324635 0.750000 0.423580
O O2 0.251899 0.655923 0.405548
O O3 0.323723 0.672080 0.247301
O O4 0.348476 0.620167 0.441883
O O5 0.632443 0.029307 0.715482
O O6 0.617811 0.936975 0.886961
O O7 0.548415 0.966916 0.733754
O O8 0.575764 0.050482 0.901527
O O9 0.000000 0.250000 0.412437
O O10 0.053167 0.348756 0.486273
O O11 0.000000 0.356354 0.297051
O O12 0.154248 0.870143 0.455920
O O13 0.817560 0.250000 0.572101
O O14 0.500000 0.612894 0.588441
O O15 0.379430 0.500000 0.500000
O O16 0.445371 0.411415 0.600224
O O17 0.500000 0.000000 0.500000
#
# Coordination Sequence:
#
# PCOD8297379 Si02
#       8
#    16  16   8  16  16   8  16   8
#     4   9  19  35  54  75 102 136 179 218 257 309
#     4  10  18  30  50  77 105 133 167 212 260 307
#     4  10  21  32  49  79 109 138 174 215 255 311
#     4  10  19  31  52  78 108 134 168 211 264 315
#     4   9  17  34  55  72 100 144 174 203 259 323
#     4  10  17  34  49  70 106 141 177 196 254 322
#     4  11  19  34  55  80 103 137 177 218 259 308
#     4  10  18  30  56  74  97 139 170 205 252 311
#
# _framework density 17.142446
#
# number of rings (size 3 to 8) (size 9 to 14) (size 15 to 20)
#    0.000    2.154    4.615    1.846    0.000    1.846 
#    2.769    1.154    0.000    0.000    0.000    2.154 
#    0.000    0.000    0.000    0.000    0.000    0.000 
#
# Total GULP energy -644256.203755 kJ/mol
# GULP energy per Si atom -12389.542380 kJ/mol
# Density = 1.710343 g / cm^3
# Si number density = 17.142446 Si / 1000 Ang^3
#
#
#
# Elastic Constant Matrix: (Units=GPa)
#
#
# Indices 1 2 3 4 5 6 
#
# 1 92.2132 52.8919 25.4200 0.0000 0.0000 0.0000
# 2 52.8919 101.2390 28.3819 0.0000 0.0000 0.0000
# 3 25.4200 28.3819 76.3084 0.0000 0.0000 0.0000
# 4 0.0000 0.0000 0.0000 21.3312 0.0000 0.0000
# 5 0.0000 0.0000 0.0000 0.0000 -60.4778 0.0000
# 6 0.0000 0.0000 0.0000 0.0000 0.0000 -100.8450
#
#
#
# Elastic Compliance Matrix: (Units=1/GPa)
#
#
# Indices 1 2 3 4 5 6 
#
# 1 0.015888 -0.007611 -0.002462 0.000000 0.000000 0.000000
# 2 -0.007611 0.014673 -0.002922 0.000000 0.000000 0.000000
# 3 -0.002462 -0.002922 0.015012 0.000000 0.000000 0.000000
# 4 0.000000 0.000000 0.000000 0.046880 0.000000 0.000000
# 5 0.000000 0.000000 0.000000 0.000000 -0.016535 0.000000
# 6 0.000000 0.000000 0.000000 0.000000 0.000000 -0.009916
#
#
# Mechanical properties :
#
#
# Convention : Reuss Voigt Hill
#
# Bulk Modulus (GPa) = 51.06364 53.68312 52.37338
# Shear Modulus (GPa) = 50.75152 -17.12720 16.81216
#
# Velocity S-wave (km/s) = 5.44702 -3.16430 3.13506
# Velocity P-wave (km/s) = 8.33142 4.24659 6.61234
#
# Compressibility (1/GPa) = 0.01958341
#
# Stress axis : x y z
#
# Youngs Moduli (GPa) = 62.93866 68.15252 66.61445
#
# Poissons Ratio (x) = 0.51868 0.16401
# Poissons Ratio (y) = 0.47900 0.19466
# Poissons Ratio (z) = 0.15496 0.19915
#
# Static dielectric constant tensor:
#      x y z
#    x 3.185380 0.000000 0.000000 
#    y 0.000000 3.188970 0.000000 
#    z 0.000000 0.000000 3.554820 
# 
# 
# High freq. dielectric constant tensor:
#      x y z
#    x 1.645340 0.000000 0.000000 
#    y 0.000000 1.657320 0.000000 
#    z 0.000000 0.000000 1.654550 
# 
# From -- ./inp_files/26370.got.cif
#   From: 2010.03.12/outbox.cif.g09.slc.cpg/sg74_14_cif.got.tgz:26370.got - 2010.04.16 15:46:19.
