data_PCOD8297294
_publ_section_title
;
Structure prediction by ZEFSAII (Michael W. Deem and Ramdas Pophale) SiO2 
 PCOD8297294
Probable space group: I M M A
;
_chemical_formula_sum "Si O2"
_cell_formula_units_Z 104
_cell_length_a 8.955799
_cell_length_b 26.108548
_cell_length_c 28.691101
_cell_angle_alpha 90.000000
_cell_angle_beta 90.000000
_cell_angle_gamma 90.000000
_cell_volume 6708.636672
_symmetry_space_group_name_H-M "I M M A"
_symmetry_group_IT_number 74
_symmetry_cell_setting 'orthorhombic'
loop_
_space_group_symop_operation_xyz
x,y,z
-x,1/2-y,z
x,-y,-z
-x,1/2+y,-z
-x,-y,-z
x,1/2+y,-z
-x,y,z
x,1/2-y,z
1/2+x,1/2+y,1/2+z
1/2-x,-y,1/2+z
1/2+x,1/2-y,1/2-z
1/2-x,y,1/2-z
1/2-x,1/2-y,1/2-z
1/2+x,y,1/2-z
1/2-x,1/2+y,1/2+z
1/2+x,-y,1/2+z
loop_
_atom_site_type_symbol
_atom_site_label
_atom_site_fract_x
_atom_site_fract_y
_atom_site_fract_z
Si Si1 0.664889 0.092975 0.206887
Si Si2 0.328788 0.840941 0.643912
Si Si3 0.672159 0.590686 0.562857
Si Si4 0.677019 0.250000 0.198373
Si Si5 0.831672 0.444508 0.522709
Si Si6 0.676140 0.015467 0.608497
Si Si7 0.665805 0.973782 0.205079
O O1 0.500000 0.117931 0.200958
O O2 0.750000 0.119825 0.250000
O O3 0.774518 0.104555 0.164118
O O4 0.647707 0.033473 0.215133
O O5 0.500000 0.828075 0.655934
O O6 0.309084 0.853955 0.588944
O O7 0.224614 0.797920 0.666347
O O8 0.500000 0.580706 0.550404
O O9 0.763961 0.595170 0.514901
O O10 0.727622 0.542074 0.594128
O O11 0.500000 0.250000 0.204999
O O12 0.750000 0.250000 0.250000
O O13 0.825769 0.500000 0.500000
O O14 0.734611 0.444414 0.569767
O O15 0.000000 0.427815 0.534690
O O16 0.500000 0.019727 0.613076
O O17 0.744979 0.033930 0.657362
O O18 0.500000 0.949326 0.200787
O O19 0.750000 0.949049 0.250000
#
# Coordination Sequence:
#
# PCOD8297294 Si02
#       7
#    16  16  16   8  16  16  16
#     4  10  19  29  42  58  76  98 126 162 202 247
#     4  11  21  35  51  65  81 101 129 167 212 261
#     4   9  18  30  45  63  81 103 130 162 204 253
#     4  12  26  42  54  66  82 106 138 176 225 274
#     4   9  17  27  41  61  84 107 131 161 198 242
#     4  10  17  28  43  60  83 109 135 165 204 245
#     4  10  19  28  39  56  79 105 136 168 202 241
#
# _framework density 15.502405
#
# number of rings (size 3 to 8) (size 9 to 14) (size 15 to 20)
#    0.000    2.000    1.538    3.462    0.000    4.923 
#    0.000    0.000    0.000    0.000    0.000    0.000 
#    0.000    0.000    0.000    0.000    0.000    0.000 
#
# Total GULP energy -644275.434610 kJ/mol
# GULP energy per Si atom -12389.912204 kJ/mol
# Density = 1.546712 g / cm^3
# Si number density = 15.502405 Si / 1000 Ang^3
#
#
#
# Elastic Constant Matrix: (Units=GPa)
#
#
# Indices 1 2 3 4 5 6 
#
# 1 104.0574 19.3428 61.6029 0.0000 0.0000 0.0000
# 2 19.3428 23.1149 22.8118 0.0000 0.0000 0.0000
# 3 61.6029 22.8118 119.5489 0.0000 0.0000 0.0000
# 4 0.0000 0.0000 0.0000 18.1605 0.0000 0.0000
# 5 0.0000 0.0000 0.0000 0.0000 31.4280 0.0000
# 6 0.0000 0.0000 0.0000 0.0000 0.0000 13.9553
#
#
#
# Elastic Compliance Matrix: (Units=1/GPa)
#
#
# Indices 1 2 3 4 5 6 
#
# 1 0.014441 -0.005841 -0.006327 0.000000 0.000000 0.000000
# 2 -0.005841 0.055661 -0.007611 0.000000 0.000000 0.000000
# 3 -0.006327 -0.007611 0.013077 0.000000 0.000000 0.000000
# 4 0.000000 0.000000 0.000000 0.055065 0.000000 0.000000
# 5 0.000000 0.000000 0.000000 0.000000 0.031819 0.000000
# 6 0.000000 0.000000 0.000000 0.000000 0.000000 0.071658
#
#
# Mechanical properties :
#
#
# Convention : Reuss Voigt Hill
#
# Bulk Modulus (GPa) = 22.92425 50.47069 36.69747
# Shear Modulus (GPa) = 16.90216 22.23966 19.57091
#
# Velocity S-wave (km/s) = 3.30554 3.79171 3.55694
# Velocity P-wave (km/s) = 5.42111 7.19700 6.37123
#
# Compressibility (1/GPa) = 0.04362193
#
# Stress axis : x y z
#
# Youngs Moduli (GPa) = 69.24494 17.96582 76.46723
#
# Poissons Ratio (x) = 0.10493 0.48382
# Poissons Ratio (y) = 0.40443 0.58202
# Poissons Ratio (z) = 0.43812 0.13675
#
# Static dielectric constant tensor:
#      x y z
#    x 3.229500 0.000000 0.000000 
#    y 0.000000 2.429290 0.000000 
#    z 0.000000 0.000000 3.091330 
# 
# 
# High freq. dielectric constant tensor:
#      x y z
#    x 1.616410 0.000000 0.000000 
#    y 0.000000 1.509130 0.000000 
#    z 0.000000 0.000000 1.598420 
# 
# From -- ./inp_files/62663.got.cif
#   From: 2010.03.12/outbox.cif.g09.slc.cpg/sg74_32_cif.got.tgz:62663.got - 2010.04.16 15:46:19.
