data_PCOD8297325
_publ_section_title
;
Structure prediction by ZEFSAII (Michael W. Deem and Ramdas Pophale) SiO2 
 PCOD8297325
Probable space group: I M M A
;
_chemical_formula_sum "Si O2"
_cell_formula_units_Z 80
_cell_length_a 16.508701
_cell_length_b 13.247797
_cell_length_c 19.664355
_cell_angle_alpha 90.000000
_cell_angle_beta 90.000000
_cell_angle_gamma 90.000000
_cell_volume 4300.671515
_symmetry_space_group_name_H-M "I M M A"
_symmetry_group_IT_number 74
_symmetry_cell_setting 'orthorhombic'
loop_
_space_group_symop_operation_xyz
x,y,z
-x,1/2-y,z
x,-y,-z
-x,1/2+y,-z
-x,-y,-z
x,1/2+y,-z
-x,y,z
x,1/2-y,z
1/2+x,1/2+y,1/2+z
1/2-x,-y,1/2+z
1/2+x,1/2-y,1/2-z
1/2-x,y,1/2-z
1/2-x,1/2-y,1/2-z
1/2+x,y,1/2-z
1/2-x,1/2+y,1/2+z
1/2+x,-y,1/2+z
loop_
_atom_site_type_symbol
_atom_site_label
_atom_site_fract_x
_atom_site_fract_y
_atom_site_fract_z
Si Si1 0.000000 0.370353 0.379331
Si Si2 0.000000 0.131959 0.526426
Si Si3 0.145528 0.869447 0.710021
Si Si4 0.820386 0.365662 0.540676
Si Si5 0.250486 0.443922 0.096851
Si Si6 0.908079 0.629834 0.857065
O O1 0.077897 0.410105 0.340793
O O2 0.000000 0.250000 0.381016
O O3 0.000000 0.424103 0.453011
O O4 0.086032 0.107660 0.562141
O O5 0.000000 0.250000 0.509086
O O6 0.153725 0.750000 0.713696
O O7 0.227450 0.911867 0.674933
O O8 0.120969 0.911231 0.783592
O O9 0.800110 0.250000 0.557844
O O10 0.803993 0.384735 0.460015
O O11 0.762299 0.436264 0.585922
O O12 0.154988 0.417010 0.088125
O O13 0.904538 0.750000 0.860174
O O14 0.000000 0.592950 0.872115
#
# Coordination Sequence:
#
# PCOD8297325 Si02
#       6
#     8   8  16  16  16  16
#     4   9  14  23  45  75 105 133 153 188 241 300
#     4   9  16  30  50  70 104 140 159 190 243 299
#     4  10  17  29  49  76 107 131 158 197 249 307
#     4  10  21  35  50  74 105 135 170 207 246 295
#     4  11  21  31  52  77 100 134 169 206 249 301
#     4  10  20  34  52  75 104 133 164 210 261 303
#
# _framework density 18.601745000000001
#
# number of rings (size 3 to 8) (size 9 to 14) (size 15 to 20)
#    0.000    2.000    3.000    2.400    0.000    4.000 
#    0.000    2.000    0.000    4.200    0.000    0.000 
#    0.000    0.000    0.000    0.000    0.000    0.000 
#
# Total GULP energy -495597.514121 kJ/mol
# GULP energy per Si atom -12389.937853 kJ/mol
# Density = 1.855941 g / cm^3
# Si number density = 18.601745 Si / 1000 Ang^3
#
#
#
# Elastic Constant Matrix: (Units=GPa)
#
#
# Indices 1 2 3 4 5 6 
#
# 1 149.8023 33.2191 24.5596 0.0000 0.0000 0.0000
# 2 33.2191 72.1963 12.3309 0.0000 0.0000 0.0000
# 3 24.5596 12.3309 30.5604 0.0000 0.0000 0.0000
# 4 0.0000 0.0000 0.0000 22.6420 0.0000 0.0000
# 5 0.0000 0.0000 0.0000 0.0000 -77.0989 0.0000
# 6 0.0000 0.0000 0.0000 0.0000 0.0000 24.2670
#
#
#
# Elastic Compliance Matrix: (Units=1/GPa)
#
#
# Indices 1 2 3 4 5 6 
#
# 1 0.008198 -0.002843 -0.005441 0.000000 0.000000 0.000000
# 2 -0.002843 0.015862 -0.004116 0.000000 0.000000 0.000000
# 3 -0.005441 -0.004116 0.038756 0.000000 0.000000 0.000000
# 4 0.000000 0.000000 0.000000 0.044166 0.000000 0.000000
# 5 0.000000 0.000000 0.000000 0.000000 -0.012970 0.000000
# 6 0.000000 0.000000 0.000000 0.000000 0.000000 0.041208
#
#
# Mechanical properties :
#
#
# Convention : Reuss Voigt Hill
#
# Bulk Modulus (GPa) = 26.30449 43.64201 34.97325
# Shear Modulus (GPa) = 28.95356 6.12531 17.53943
#
# Velocity S-wave (km/s) = 3.94953 1.81660 3.07399
# Velocity P-wave (km/s) = 5.91354 5.28320 5.60723
#
# Compressibility (1/GPa) = 0.03801633
#
# Stress axis : x y z
#
# Youngs Moduli (GPa) = 121.98246 63.04349 25.80279
#
# Poissons Ratio (x) = 0.17921 0.14040
# Poissons Ratio (y) = 0.34676 0.10620
# Poissons Ratio (z) = 0.66373 0.25947
#
# Static dielectric constant tensor:
#      x y z
#    x 3.705910 0.000000 0.000000 
#    y 0.000000 3.121470 0.000000 
#    z 0.000000 0.000000 3.210650 
# 
# 
# High freq. dielectric constant tensor:
#      x y z
#    x 1.737520 0.000000 0.000000 
#    y 0.000000 1.688630 0.000000 
#    z 0.000000 0.000000 1.690330 
# 
# From -- ./inp_files/43885.got.cif
#   From: 2010.03.12/outbox.cif.g09.slc.cpg/sg74_22_cif.got.tgz:43885.got - 2010.04.16 15:46:19.
