data_PCOD8297311
_publ_section_title
;
Structure prediction by ZEFSAII (Michael W. Deem and Ramdas Pophale) SiO2 
 PCOD8297311
Probable space group: I M M A
;
_chemical_formula_sum "Si O2"
_cell_formula_units_Z 80
_cell_length_a 18.020975
_cell_length_b 18.747141
_cell_length_c 13.472477
_cell_angle_alpha 90.000000
_cell_angle_beta 90.000000
_cell_angle_gamma 90.000000
_cell_volume 4551.565332
_symmetry_space_group_name_H-M "I M M A"
_symmetry_group_IT_number 74
_symmetry_cell_setting 'orthorhombic'
loop_
_space_group_symop_operation_xyz
x,y,z
-x,1/2-y,z
x,-y,-z
-x,1/2+y,-z
-x,-y,-z
x,1/2+y,-z
-x,y,z
x,1/2-y,z
1/2+x,1/2+y,1/2+z
1/2-x,-y,1/2+z
1/2+x,1/2-y,1/2-z
1/2-x,y,1/2-z
1/2-x,1/2-y,1/2-z
1/2+x,y,1/2-z
1/2-x,1/2+y,1/2+z
1/2+x,-y,1/2+z
loop_
_atom_site_type_symbol
_atom_site_label
_atom_site_fract_x
_atom_site_fract_y
_atom_site_fract_z
Si Si1 0.654431 0.329776 0.347552
Si Si2 0.173733 0.532511 0.285583
Si Si3 0.184864 0.878258 0.633424
Si Si4 0.583962 0.080717 0.962825
Si Si5 0.585727 0.028776 0.396846
O O1 0.629219 0.250000 0.376288
O O2 0.735845 0.344404 0.393378
O O3 0.652573 0.337247 0.228398
O O4 0.597108 0.386003 0.393519
O O5 0.250000 0.570931 0.250000
O O6 0.198838 0.461295 0.343497
O O7 0.127224 0.584386 0.357877
O O8 0.124140 0.512656 0.192158
O O9 0.127428 0.870061 0.542322
O O10 0.500000 0.110150 0.950075
O O11 0.580457 0.000000 0.000000
O O12 0.500000 0.010546 0.388017
O O13 0.618968 0.000000 0.500000
#
# Coordination Sequence:
#
# PCOD8297311 Si02
#       5
#    16  16  16  16  16
#     4  10  19  32  51  75 104 135 172 212 253 311
#     4  10  17  28  48  74 100 135 173 214 259 313
#     4   9  16  29  47  71 100 138 166 202 254 312
#     4   9  18  28  44  71 104 136 173 220 265 314
#     4  10  21  34  50  73 105 139 173 215 264 311
#
# _framework density 17.576371000000002
#
# number of rings (size 3 to 8) (size 9 to 14) (size 15 to 20)
#    0.000    2.400    4.000    1.800    2.800    5.200 
#    0.000    0.000    0.000    1.800    0.000    4.200 
#    0.000    6.400    0.000    0.000    0.000    0.000 
#
# Total GULP energy -495910.400459 kJ/mol
# GULP energy per Si atom -12397.760011 kJ/mol
# Density = 1.753637 g / cm^3
# Si number density = 17.576371 Si / 1000 Ang^3
#
#
#
# Elastic Constant Matrix: (Units=GPa)
#
#
# Indices 1 2 3 4 5 6 
#
# 1 102.7228 20.4980 68.3496 0.0000 0.0000 0.0000
# 2 20.4980 38.4724 35.1196 0.0000 0.0000 0.0000
# 3 68.3496 35.1196 108.7714 0.0000 0.0000 0.0000
# 4 0.0000 0.0000 0.0000 11.1664 0.0000 0.0000
# 5 0.0000 0.0000 0.0000 0.0000 33.6489 0.0000
# 6 0.0000 0.0000 0.0000 0.0000 0.0000 11.8935
#
#
#
# Elastic Compliance Matrix: (Units=1/GPa)
#
#
# Indices 1 2 3 4 5 6 
#
# 1 0.016755 0.000970 -0.010842 0.000000 0.000000 0.000000
# 2 0.000970 0.036911 -0.012527 0.000000 0.000000 0.000000
# 3 -0.010842 -0.012527 0.020051 0.000000 0.000000 0.000000
# 4 0.000000 0.000000 0.000000 0.089555 0.000000 0.000000
# 5 0.000000 0.000000 0.000000 0.000000 0.029719 0.000000
# 6 0.000000 0.000000 0.000000 0.000000 0.000000 0.084079
#
#
# Mechanical properties :
#
#
# Convention : Reuss Voigt Hill
#
# Bulk Modulus (GPa) = 34.57887 55.32233 44.95060
# Shear Modulus (GPa) = 15.08257 19.74172 17.41214
#
# Velocity S-wave (km/s) = 2.93254 3.35505 3.15088
# Velocity P-wave (km/s) = 5.58414 6.82292 6.23437
#
# Compressibility (1/GPa) = 0.02891940
#
# Stress axis : x y z
#
# Youngs Moduli (GPa) = 59.68259 27.09187 49.87274
#
# Poissons Ratio (x) = -0.02627 0.54071
# Poissons Ratio (y) = -0.05788 0.62476
# Poissons Ratio (z) = 0.64706 0.33938
#
# Static dielectric constant tensor:
#      x y z
#    x 3.380720 0.000000 0.000000 
#    y 0.000000 2.857160 0.000000 
#    z 0.000000 0.000000 3.374650 
# 
# 
# High freq. dielectric constant tensor:
#      x y z
#    x 1.688730 0.000000 0.000000 
#    y 0.000000 1.623240 0.000000 
#    z 0.000000 0.000000 1.671850 
# 
# From -- ./inp_files/32111.got.cif
#   From: 2010.03.12/outbox.cif.g09.slc.cpg/sg74_17_cif.got.tgz:32111.got - 2010.04.16 15:46:19.
