data_PCOD8297644
_publ_section_title
;
Structure prediction by ZEFSAII (Michael W. Deem and Ramdas Pophale) SiO2 
 PCOD8297644
Probable space group: I M M A
;
_chemical_formula_sum "Si O2"
_cell_formula_units_Z 72
_cell_length_a 17.125781
_cell_length_b 8.705031
_cell_length_c 28.390814
_cell_angle_alpha 90.000000
_cell_angle_beta 90.000000
_cell_angle_gamma 90.000000
_cell_volume 4232.515455
_symmetry_space_group_name_H-M "I M M A"
_symmetry_group_IT_number 74
_symmetry_cell_setting 'orthorhombic'
loop_
_space_group_symop_operation_xyz
x,y,z
-x,1/2-y,z
x,-y,-z
-x,1/2+y,-z
-x,-y,-z
x,1/2+y,-z
-x,y,z
x,1/2-y,z
1/2+x,1/2+y,1/2+z
1/2-x,-y,1/2+z
1/2+x,1/2-y,1/2-z
1/2-x,y,1/2-z
1/2-x,1/2-y,1/2-z
1/2+x,y,1/2-z
1/2-x,1/2+y,1/2+z
1/2+x,-y,1/2+z
loop_
_atom_site_type_symbol
_atom_site_label
_atom_site_fract_x
_atom_site_fract_y
_atom_site_fract_z
Si Si1 0.779770 0.069311 0.138326
Si Si2 0.172841 0.419806 0.280983
Si Si3 0.000000 0.933081 0.947987
Si Si4 0.910086 0.072146 0.797987
Si Si5 0.341536 0.430966 0.551159
O O1 0.781445 0.250000 0.128551
O O2 0.701563 0.022308 0.167447
O O3 0.857907 0.027374 0.166976
O O4 0.775045 0.978772 0.088564
O O5 0.135032 0.250000 0.284767
O O6 0.250000 0.409959 0.250000
O O7 0.110856 0.533749 0.256690
O O8 0.000000 0.750000 0.947245
O O9 0.920901 0.999463 0.925258
O O10 0.000000 0.000000 0.000000
O O11 0.892930 0.250000 0.807354
O O12 0.000000 0.030701 0.807307
O O13 0.322387 0.500000 0.500000
O O14 0.349087 0.250000 0.545839
#
# Coordination Sequence:
#
# PCOD8297644 Si02
#       5
#    16  16   8  16  16
#     4  10  20  33  48  66  89 120 156 191 229 272
#     4   8  16  31  48  65  87 116 150 186 227 273
#     4  10  18  30  44  58  80 112 146 184 226 260
#     4  10  20  31  45  68  95 120 151 189 227 271
#     4  11  21  33  47  64  88 117 152 191 228 268
#
# _framework density 17.01116
#
# number of rings (size 3 to 8) (size 9 to 14) (size 15 to 20)
#    0.000    2.222    0.000    7.000    1.556    6.667 
#    0.000    0.000    0.000    0.000    0.000    0.000 
#    0.000    0.889    0.000    2.889    0.000    4.222 
#
# Total GULP energy -446173.601779 kJ/mol
# GULP energy per Si atom -12393.711161 kJ/mol
# Density = 1.697244 g / cm^3
# Si number density = 17.011160 Si / 1000 Ang^3
#
#
#
# Elastic Constant Matrix: (Units=GPa)
#
#
# Indices 1 2 3 4 5 6 
#
# 1 17.7750 9.6958 12.9363 0.0000 0.0000 0.0000
# 2 9.6958 97.5912 26.9871 0.0000 0.0000 0.0000
# 3 12.9363 26.9871 90.1245 0.0000 0.0000 0.0000
# 4 0.0000 0.0000 0.0000 29.7844 0.0000 0.0000
# 5 0.0000 0.0000 0.0000 0.0000 24.0210 0.0000
# 6 0.0000 0.0000 0.0000 0.0000 0.0000 21.3807
#
#
#
# Elastic Compliance Matrix: (Units=1/GPa)
#
#
# Indices 1 2 3 4 5 6 
#
# 1 0.064352 -0.004186 -0.007984 0.000000 0.000000 0.000000
# 2 -0.004186 0.011444 -0.002826 0.000000 0.000000 0.000000
# 3 -0.007984 -0.002826 0.013088 0.000000 0.000000 0.000000
# 4 0.000000 0.000000 0.000000 0.033575 0.000000 0.000000
# 5 0.000000 0.000000 0.000000 0.000000 0.041630 0.000000
# 6 0.000000 0.000000 0.000000 0.000000 0.000000 0.046771
#
#
# Mechanical properties :
#
#
# Convention : Reuss Voigt Hill
#
# Bulk Modulus (GPa) = 16.97980 33.85881 25.41931
# Shear Modulus (GPa) = 19.19516 25.42866 22.31191
#
# Velocity S-wave (km/s) = 3.36279 3.87049 3.62554
# Velocity P-wave (km/s) = 5.00810 6.31833 5.70098
#
# Compressibility (1/GPa) = 0.05889350
#
# Stress axis : x y z
#
# Youngs Moduli (GPa) = 15.53948 87.38067 76.40608
#
# Poissons Ratio (x) = 0.36575 0.61000
# Poissons Ratio (y) = 0.06504 0.21593
# Poissons Ratio (z) = 0.12406 0.24694
#
# Static dielectric constant tensor:
#      x y z
#    x 3.281580 0.000000 0.000000 
#    y 0.000000 3.243780 0.000000 
#    z 0.000000 0.000000 3.450220 
# 
# 
# High freq. dielectric constant tensor:
#      x y z
#    x 1.602450 0.000000 0.000000 
#    y 0.000000 1.668880 0.000000 
#    z 0.000000 0.000000 1.653660 
# 
# From -- ./inp_files/67448.got.cif
#   From: 2010.03.12/outbox.cif.g09.slc.cpg/sg74_34_cif.got.tgz:67448.got - 2010.04.16 15:46:19.
