data_PCOD8297994
_publ_section_title
;
Structure prediction by ZEFSAII (Michael W. Deem and Ramdas Pophale) SiO2 
 PCOD8297994
Probable space group: I M M A
;
_chemical_formula_sum "Si O2"
_cell_formula_units_Z 104
_cell_length_a 20.673413
_cell_length_b 8.630389
_cell_length_c 29.794563
_cell_angle_alpha 90.000000
_cell_angle_beta 90.000000
_cell_angle_gamma 90.000000
_cell_volume 5315.933898
_symmetry_space_group_name_H-M "I M M A"
_symmetry_group_IT_number 74
_symmetry_cell_setting 'orthorhombic'
loop_
_space_group_symop_operation_xyz
x,y,z
-x,1/2-y,z
x,-y,-z
-x,1/2+y,-z
-x,-y,-z
x,1/2+y,-z
-x,y,z
x,1/2-y,z
1/2+x,1/2+y,1/2+z
1/2-x,-y,1/2+z
1/2+x,1/2-y,1/2-z
1/2-x,y,1/2-z
1/2-x,1/2-y,1/2-z
1/2+x,y,1/2-z
1/2-x,1/2+y,1/2+z
1/2+x,-y,1/2+z
loop_
_atom_site_type_symbol
_atom_site_label
_atom_site_fract_x
_atom_site_fract_y
_atom_site_fract_z
Si Si1 0.130494 0.570859 0.368903
Si Si2 0.928145 0.067053 0.281083
Si Si3 0.631113 0.568062 0.549105
Si Si4 0.811765 0.067268 0.223246
Si Si5 0.000000 0.566656 0.049675
Si Si6 0.576238 0.922806 0.955227
Si Si7 0.269234 0.569133 0.626101
O O1 0.122143 0.750000 0.357017
O O2 0.098334 0.470217 0.330146
O O3 0.093442 0.533423 0.414387
O O4 0.205319 0.532004 0.375253
O O5 0.932663 0.250000 0.276664
O O6 0.878268 0.998325 0.244052
O O7 0.000000 0.995053 0.273813
O O8 0.646620 0.500000 0.500000
O O9 0.621071 0.750000 0.544192
O O10 0.566087 0.496647 0.571833
O O11 0.689341 0.526180 0.582373
O O12 0.811837 0.250000 0.230788
O O13 0.750000 0.996752 0.250000
O O14 0.809079 0.024017 0.170848
O O15 0.000000 0.750000 0.050219
O O16 0.000000 0.500000 0.000000
O O17 0.500000 0.910038 0.959617
O O18 0.605988 0.750000 0.948952
O O19 0.605839 0.000000 0.000000
O O20 0.250736 0.750000 0.627017
#
# Coordination Sequence:
#
# PCOD8297994 Si02
#       7
#    16  16  16  16   8  16  16
#     4  12  24  36  55  82 114 152 192 232 278 338
#     4  10  20  36  60  87 112 143 187 237 288 344
#     4  10  20  35  57  84 114 147 187 233 282 336
#     4   9  16  33  61  85 109 142 185 238 289 338
#     4  10  18  32  56  80 110 148 188 228 276 332
#     4  10  21  38  59  82 111 147 187 233 283 334
#     4  10  21  38  59  83 111 147 190 239 288 339
#
# _framework density 19.563824
#
# number of rings (size 3 to 8) (size 9 to 14) (size 15 to 20)
#    0.000    1.846    1.538    4.385    0.000    4.923 
#    1.385    3.077    0.000    0.000    0.000    0.000 
#    0.000    0.000    0.000    0.000    0.000    0.000 
#
# Total GULP energy -644761.993279 kJ/mol
# GULP energy per Si atom -12399.269102 kJ/mol
# Density = 1.951930 g / cm^3
# Si number density = 19.563824 Si / 1000 Ang^3
#
#
#
# Elastic Constant Matrix: (Units=GPa)
#
#
# Indices 1 2 3 4 5 6 
#
# 1 113.2097 30.9955 39.5719 0.0000 0.0000 0.0000
# 2 30.9955 56.5108 15.1080 0.0000 0.0000 0.0000
# 3 39.5719 15.1080 108.0497 0.0000 0.0000 0.0000
# 4 0.0000 0.0000 0.0000 17.7853 0.0000 0.0000
# 5 0.0000 0.0000 0.0000 0.0000 32.1573 0.0000
# 6 0.0000 0.0000 0.0000 0.0000 0.0000 20.2150
#
#
#
# Elastic Compliance Matrix: (Units=1/GPa)
#
#
# Indices 1 2 3 4 5 6 
#
# 1 0.011521 -0.005393 -0.003465 0.000000 0.000000 0.000000
# 2 -0.005393 0.020907 -0.000948 0.000000 0.000000 0.000000
# 3 -0.003465 -0.000948 0.010657 0.000000 0.000000 0.000000
# 4 0.000000 0.000000 0.000000 0.056226 0.000000 0.000000
# 5 0.000000 0.000000 0.000000 0.000000 0.031097 0.000000
# 6 0.000000 0.000000 0.000000 0.000000 0.000000 0.049468
#
#
# Mechanical properties :
#
#
# Convention : Reuss Voigt Hill
#
# Bulk Modulus (GPa) = 42.60386 49.90234 46.25310
# Shear Modulus (GPa) = 24.11810 26.83781 25.47796
#
# Velocity S-wave (km/s) = 3.51492 3.70781 3.61265
# Velocity P-wave (km/s) = 6.18846 6.62520 6.41055
#
# Compressibility (1/GPa) = 0.02347205
#
# Stress axis : x y z
#
# Youngs Moduli (GPa) = 86.79870 47.83069 93.83719
#
# Poissons Ratio (x) = 0.25793 0.32518
# Poissons Ratio (y) = 0.46807 0.08899
# Poissons Ratio (z) = 0.30079 0.04536
#
# Static dielectric constant tensor:
#      x y z
#    x 3.985710 0.000000 0.000000 
#    y 0.000000 3.487710 0.000000 
#    z 0.000000 0.000000 3.611790 
# 
# 
# High freq. dielectric constant tensor:
#      x y z
#    x 1.768670 0.000000 0.000000 
#    y 0.000000 1.745150 0.000000 
#    z 0.000000 0.000000 1.758260 
# 
# From -- ./inp_files/73402.got.cif
#   From: 2010.03.12/outbox.cif.g09.slc.cpg/sg74_37_cif.got.tgz:73402.got - 2010.04.16 15:46:19.
