data_PCOD8297658
_publ_section_title
;
Structure prediction by ZEFSAII (Michael W. Deem and Ramdas Pophale) SiO2 
 PCOD8297658
Probable space group: I M M A
;
_chemical_formula_sum "Si O2"
_cell_formula_units_Z 104
_cell_length_a 8.814872
_cell_length_b 27.652459
_cell_length_c 23.824952
_cell_angle_alpha 90.000000
_cell_angle_beta 90.000000
_cell_angle_gamma 90.000000
_cell_volume 5807.400822
_symmetry_space_group_name_H-M "I M M A"
_symmetry_group_IT_number 74
_symmetry_cell_setting 'orthorhombic'
loop_
_space_group_symop_operation_xyz
x,y,z
-x,1/2-y,z
x,-y,-z
-x,1/2+y,-z
-x,-y,-z
x,1/2+y,-z
-x,y,z
x,1/2-y,z
1/2+x,1/2+y,1/2+z
1/2-x,-y,1/2+z
1/2+x,1/2-y,1/2-z
1/2-x,y,1/2-z
1/2-x,1/2-y,1/2-z
1/2+x,y,1/2-z
1/2-x,1/2+y,1/2+z
1/2+x,-y,1/2+z
loop_
_atom_site_type_symbol
_atom_site_label
_atom_site_fract_x
_atom_site_fract_y
_atom_site_fract_z
Si Si1 0.320594 0.553446 0.986892
Si Si2 0.170689 0.382387 0.590373
Si Si3 0.179696 0.305225 0.190488
Si Si4 0.818666 0.750000 0.311643
Si Si5 0.671252 0.695124 0.003659
Si Si6 0.322142 0.153007 0.690393
Si Si7 0.822831 0.368521 0.085849
O O1 0.500000 0.553201 0.978358
O O2 0.253379 0.579745 0.931017
O O3 0.257067 0.500000 0.000000
O O4 0.270222 0.582318 0.041999
O O5 0.177806 0.328442 0.565086
O O6 0.280109 0.387983 0.644623
O O7 0.000000 0.395890 0.609087
O O8 0.230050 0.250000 0.174348
O O9 0.250000 0.320506 0.250000
O O10 0.236858 0.344515 0.144221
O O11 0.000000 0.307382 0.195551
O O12 0.750000 0.750000 0.250000
O O13 0.753119 0.700833 0.337830
O O14 0.000000 0.750000 0.312604
O O15 0.500000 0.689644 0.979234
O O16 0.720391 0.750000 0.011800
O O17 0.789106 0.670633 0.961844
O O18 0.500000 0.159305 0.698497
O O19 0.250000 0.139172 0.750000
O O20 0.000000 0.378148 0.089811
#
# Coordination Sequence:
#
# PCOD8297658 Si02
#       7
#    16  16  16   8  16  16  16
#     4   9  19  37  59  79  99 127 164 205 254 312
#     4   9  18  32  50  73  98 126 162 204 248 295
#     4   9  18  31  47  71 105 144 181 212 246 291
#     4  10  18  30  46  64  90 126 166 202 235 272
#     4   9  18  31  47  69  98 135 171 202 243 296
#     4  11  21  33  48  69  96 129 167 203 243 289
#     4  10  19  31  49  75 105 134 166 210 258 302
#
# _framework density 17.908183999999999
#
# number of rings (size 3 to 8) (size 9 to 14) (size 15 to 20)
#    0.000    2.462    0.000    4.846    1.077    4.923 
#    0.000    1.538    0.000    0.923    0.000    2.154 
#    0.000    0.000    0.000    0.000    0.000    0.000 
#
# Total GULP energy -644345.691621 kJ/mol
# GULP energy per Si atom -12391.263300 kJ/mol
# Density = 1.786742 g / cm^3
# Si number density = 17.908184 Si / 1000 Ang^3
#
#
#
# Elastic Constant Matrix: (Units=GPa)
#
#
# Indices 1 2 3 4 5 6 
#
# 1 76.1538 24.8824 40.5173 0.0000 0.0000 0.0000
# 2 24.8824 111.2049 50.2248 0.0000 0.0000 0.0000
# 3 40.5173 50.2248 114.8543 0.0000 0.0000 0.0000
# 4 0.0000 0.0000 0.0000 21.7400 0.0000 0.0000
# 5 0.0000 0.0000 0.0000 0.0000 30.3961 0.0000
# 6 0.0000 0.0000 0.0000 0.0000 0.0000 20.5377
#
#
#
# Elastic Compliance Matrix: (Units=1/GPa)
#
#
# Indices 1 2 3 4 5 6 
#
# 1 0.016317 -0.001310 -0.005183 0.000000 0.000000 0.000000
# 2 -0.001310 0.011311 -0.004484 0.000000 0.000000 0.000000
# 3 -0.005183 -0.004484 0.012496 0.000000 0.000000 0.000000
# 4 0.000000 0.000000 0.000000 0.045998 0.000000 0.000000
# 5 0.000000 0.000000 0.000000 0.000000 0.032899 0.000000
# 6 0.000000 0.000000 0.000000 0.000000 0.000000 0.048691
#
#
# Mechanical properties :
#
#
# Convention : Reuss Voigt Hill
#
# Bulk Modulus (GPa) = 55.03805 59.27354 57.15580
# Shear Modulus (GPa) = 25.54635 26.97401 26.26018
#
# Velocity S-wave (km/s) = 3.78103 3.88524 3.83349
# Velocity P-wave (km/s) = 7.06128 7.30049 7.18189
#
# Compressibility (1/GPa) = 0.01816925
#
# Stress axis : x y z
#
# Youngs Moduli (GPa) = 61.28524 88.41227 80.02559
#
# Poissons Ratio (x) = 0.11582 0.41480
# Poissons Ratio (y) = 0.08028 0.35883
# Poissons Ratio (z) = 0.31766 0.39643
#
# Static dielectric constant tensor:
#      x y z
#    x 3.195270 0.000000 0.000000 
#    y 0.000000 3.508480 0.000000 
#    z 0.000000 0.000000 3.300980 
# 
# 
# High freq. dielectric constant tensor:
#      x y z
#    x 1.688200 0.000000 0.000000 
#    y 0.000000 1.666850 0.000000 
#    z 0.000000 0.000000 1.689630 
# 
# From -- ./inp_files/57827.got.cif
#   From: 2010.03.12/outbox.cif.g09.slc.cpg/sg74_29_cif.got.tgz:57827.got - 2010.04.16 15:46:19.
