data_PCOD8297134
_publ_section_title
;
Structure prediction by ZEFSAII (Michael W. Deem and Ramdas Pophale) SiO2 
 PCOD8297134
Probable space group: I M M A
;
_chemical_formula_sum "Si O2"
_cell_formula_units_Z 112
_cell_length_a 7.913001
_cell_length_b 37.146575
_cell_length_c 26.341979
_cell_angle_alpha 90.000000
_cell_angle_beta 90.000000
_cell_angle_gamma 90.000000
_cell_volume 7742.984623
_symmetry_space_group_name_H-M "I M M A"
_symmetry_group_IT_number 74
_symmetry_cell_setting 'orthorhombic'
loop_
_space_group_symop_operation_xyz
x,y,z
-x,1/2-y,z
x,-y,-z
-x,1/2+y,-z
-x,-y,-z
x,1/2+y,-z
-x,y,z
x,1/2-y,z
1/2+x,1/2+y,1/2+z
1/2-x,-y,1/2+z
1/2+x,1/2-y,1/2-z
1/2-x,y,1/2-z
1/2-x,1/2-y,1/2-z
1/2+x,y,1/2-z
1/2-x,1/2+y,1/2+z
1/2+x,-y,1/2+z
loop_
_atom_site_type_symbol
_atom_site_label
_atom_site_fract_x
_atom_site_fract_y
_atom_site_fract_z
Si Si1 0.190126 0.338503 0.151715
Si Si2 0.689464 0.161842 0.466419
Si Si3 0.500000 0.709787 0.967521
Si Si4 0.306731 0.087308 0.009022
Si Si5 0.195123 0.975982 0.046423
Si Si6 0.198875 0.459901 0.397537
Si Si7 0.500000 0.709757 0.846934
Si Si8 0.801392 0.912261 0.694431
O O1 0.223866 0.346655 0.092658
O O2 0.329739 0.310274 0.172197
O O3 0.205467 0.375323 0.182698
O O4 0.000000 0.322998 0.160075
O O5 0.500000 0.177545 0.474781
O O6 0.829286 0.189991 0.486730
O O7 0.705080 0.124451 0.497023
O O8 0.500000 0.750000 0.990546
O O9 0.500000 0.711632 0.907229
O O10 0.500000 0.097789 0.018770
O O11 0.230140 0.065113 0.056867
O O12 0.287666 0.062873 0.957942
O O13 0.000000 0.967569 0.041262
O O14 0.233416 0.998859 0.097485
O O15 0.265248 0.000000 0.000000
O O16 0.259937 0.443384 0.344184
O O17 0.000000 0.461227 0.401118
O O18 0.500000 0.750000 0.823934
O O19 0.750000 0.925815 0.750000
O O20 0.000000 0.905357 0.688938
#
# Coordination Sequence:
#
# PCOD8297134 Si02
#       8
#    16  16   8  16  16  16   8  16
#     4  10  19  31  48  66  83 102 126 160 203 244
#     4  10  18  27  44  64  82 106 134 165 201 243
#     4   9  18  30  42  60  84 108 132 162 204 243
#     4  10  16  26  43  60  83 108 135 158 195 243
#     4   9  17  26  37  58  84 106 131 161 189 235
#     4   9  18  29  43  57  80 108 131 161 199 242
#     4   9  18  32  50  66  83 101 123 155 197 257
#     4  11  21  33  47  65  83 103 134 168 204 247
#
# _framework density 14.464706
#
# number of rings (size 3 to 8) (size 9 to 14) (size 15 to 20)
#    0.000    2.286    2.857    1.286    0.000    4.000 
#    0.000    2.857    0.000    0.429    0.000    0.000 
#    0.000    0.000    0.000    0.000    0.000    0.000 
#
# Total GULP energy -694193.184772 kJ/mol
# GULP energy per Si atom -12396.306871 kJ/mol
# Density = 1.443178 g / cm^3
# Si number density = 14.464706 Si / 1000 Ang^3
#
#
#
# Elastic Constant Matrix: (Units=GPa)
#
#
# Indices 1 2 3 4 5 6 
#
# 1 83.5144 39.9548 17.6388 0.0000 0.0000 0.0000
# 2 39.9548 96.6493 39.2385 0.0000 0.0000 0.0000
# 3 17.6388 39.2385 32.2511 0.0000 0.0000 0.0000
# 4 0.0000 0.0000 0.0000 11.9770 0.0000 0.0000
# 5 0.0000 0.0000 0.0000 0.0000 12.3738 0.0000
# 6 0.0000 0.0000 0.0000 0.0000 0.0000 16.7509
#
#
#
# Elastic Compliance Matrix: (Units=1/GPa)
#
#
# Indices 1 2 3 4 5 6 
#
# 1 0.014954 -0.005654 -0.001299 0.000000 0.000000 0.000000
# 2 -0.005654 0.022584 -0.024384 0.000000 0.000000 0.000000
# 3 -0.001299 -0.024384 0.061384 0.000000 0.000000 0.000000
# 4 0.000000 0.000000 0.000000 0.083493 0.000000 0.000000
# 5 0.000000 0.000000 0.000000 0.000000 0.080816 0.000000
# 6 0.000000 0.000000 0.000000 0.000000 0.000000 0.059698
#
#
# Mechanical properties :
#
#
# Convention : Reuss Voigt Hill
#
# Bulk Modulus (GPa) = 27.58888 45.11991 36.35440
# Shear Modulus (GPa) = 12.57271 15.92587 14.24929
#
# Velocity S-wave (km/s) = 2.95142 3.32176 3.14205
# Velocity P-wave (km/s) = 5.54339 6.78033 6.19282
#
# Compressibility (1/GPa) = 0.03624649
#
# Stress axis : x y z
#
# Youngs Moduli (GPa) = 66.87388 44.27912 16.29078
#
# Poissons Ratio (x) = 0.25037 0.02116
# Poissons Ratio (y) = 0.37814 0.39724
# Poissons Ratio (z) = 0.08686 1.07972
#
# Static dielectric constant tensor:
#      x y z
#    x 2.914420 0.000000 0.000000 
#    y 0.000000 2.880510 0.000000 
#    z 0.000000 0.000000 2.452510 
# 
# 
# High freq. dielectric constant tensor:
#      x y z
#    x 1.571350 0.000000 0.000000 
#    y 0.000000 1.541590 0.000000 
#    z 0.000000 0.000000 1.479910 
# 
# From -- ./inp_files/71140.got.cif
#   From: 2010.03.12/outbox.cif.g09.slc.cpg/sg74_36_cif.got.tgz:71140.got - 2010.04.16 15:46:19.
