data_PCOD8297676
_publ_section_title
;
Structure prediction by ZEFSAII (Michael W. Deem and Ramdas Pophale) SiO2 
 PCOD8297676
Probable space group: I M M A
;
_chemical_formula_sum "Si O2"
_cell_formula_units_Z 104
_cell_length_a 28.040734
_cell_length_b 9.079624
_cell_length_c 28.113336
_cell_angle_alpha 90.000000
_cell_angle_beta 90.000000
_cell_angle_gamma 90.000000
_cell_volume 7157.636268
_symmetry_space_group_name_H-M "I M M A"
_symmetry_group_IT_number 74
_symmetry_cell_setting 'orthorhombic'
loop_
_space_group_symop_operation_xyz
x,y,z
-x,1/2-y,z
x,-y,-z
-x,1/2+y,-z
-x,-y,-z
x,1/2+y,-z
-x,y,z
x,1/2-y,z
1/2+x,1/2+y,1/2+z
1/2-x,-y,1/2+z
1/2+x,1/2-y,1/2-z
1/2-x,y,1/2-z
1/2-x,1/2-y,1/2-z
1/2+x,y,1/2-z
1/2-x,1/2+y,1/2+z
1/2+x,-y,1/2+z
loop_
_atom_site_type_symbol
_atom_site_label
_atom_site_fract_x
_atom_site_fract_y
_atom_site_fract_z
Si Si1 0.289531 0.414930 0.209635
Si Si2 0.000000 0.079122 0.950952
Si Si3 0.220174 0.418264 0.851616
Si Si4 0.678007 0.077053 0.548037
Si Si5 0.141888 0.422745 0.774839
Si Si6 0.055023 0.414131 0.191883
Si Si7 0.913629 0.415386 0.087390
O O1 0.306174 0.250000 0.197175
O O2 0.250000 0.415477 0.250000
O O3 0.266249 0.486869 0.162812
O O4 0.334725 0.506679 0.227876
O O5 0.000000 0.250000 0.959396
O O6 0.954489 0.030978 0.922265
O O7 0.000000 0.000000 0.000000
O O8 0.231375 0.250000 0.838709
O O9 0.214602 0.439856 0.908258
O O10 0.172353 0.465471 0.822392
O O11 0.666332 0.250000 0.539252
O O12 0.698583 0.000000 0.500000
O O13 0.632294 0.984367 0.563268
O O14 0.140329 0.250000 0.767784
O O15 0.087010 0.478554 0.775869
O O16 0.053469 0.250000 0.213965
O O17 0.086045 0.406032 0.143883
O O18 0.000000 0.471231 0.185844
O O19 0.921715 0.250000 0.066267
#
# Coordination Sequence:
#
# PCOD8297676 Si02
#       7
#    16   8  16  16  16  16  16
#     4   9  17  28  45  68  88 108 135 167 212 261
#     4  12  24  36  48  58  72  94 130 178 226 272
#     4   9  18  31  46  64  87 110 138 176 217 259
#     4  11  22  35  47  64  85 112 145 179 221 264
#     4  10  18  30  47  66  87 110 138 174 217 260
#     4  10  20  33  47  63  84 110 142 179 221 264
#     4  11  21  35  49  61  78 103 137 179 225 266
#
# _framework density 14.529935999999999
#
# number of rings (size 3 to 8) (size 9 to 14) (size 15 to 20)
#    0.000    1.846    2.308    3.000    0.000    4.615 
#    0.000    0.000    0.000    0.000    0.000    0.000 
#    0.000    0.000    0.000    0.000    0.000    0.769 
#
# Total GULP energy -644406.932315 kJ/mol
# GULP energy per Si atom -12392.441006 kJ/mol
# Density = 1.449687 g / cm^3
# Si number density = 14.529936 Si / 1000 Ang^3
#
#
#
# Elastic Constant Matrix: (Units=GPa)
#
#
# Indices 1 2 3 4 5 6 
#
# 1 56.3268 44.3066 39.9279 0.0000 0.0000 0.0000
# 2 44.3066 111.6587 40.1720 0.0000 0.0000 0.0000
# 3 39.9279 40.1720 58.2553 0.0000 0.0000 0.0000
# 4 0.0000 0.0000 0.0000 22.3510 0.0000 0.0000
# 5 0.0000 0.0000 0.0000 0.0000 22.7693 0.0000
# 6 0.0000 0.0000 0.0000 0.0000 0.0000 25.8378
#
#
#
# Elastic Compliance Matrix: (Units=1/GPa)
#
#
# Indices 1 2 3 4 5 6 
#
# 1 0.039048 -0.007801 -0.021384 0.000000 0.000000 0.000000
# 2 -0.007801 0.013469 -0.003941 0.000000 0.000000 0.000000
# 3 -0.021384 -0.003941 0.034540 0.000000 0.000000 0.000000
# 4 0.000000 0.000000 0.000000 0.044741 0.000000 0.000000
# 5 0.000000 0.000000 0.000000 0.000000 0.043919 0.000000
# 6 0.000000 0.000000 0.000000 0.000000 0.000000 0.038703
#
#
# Mechanical properties :
#
#
# Convention : Reuss Voigt Hill
#
# Bulk Modulus (GPa) = 48.06571 52.78375 50.42473
# Shear Modulus (GPa) = 17.38478 20.98057 19.18267
#
# Velocity S-wave (km/s) = 3.46277 3.80406 3.63742
# Velocity P-wave (km/s) = 7.00999 7.46331 7.24020
#
# Compressibility (1/GPa) = 0.02080485
#
# Stress axis : x y z
#
# Youngs Moduli (GPa) = 25.60946 74.24232 28.95175
#
# Poissons Ratio (x) = 0.57917 0.61910
# Poissons Ratio (y) = 0.19978 0.11411
# Poissons Ratio (z) = 0.54763 0.29263
#
# Static dielectric constant tensor:
#      x y z
#    x 4.242410 0.000000 0.000000 
#    y 0.000000 2.978550 0.000000 
#    z 0.000000 0.000000 2.697230 
# 
# 
# High freq. dielectric constant tensor:
#      x y z
#    x 1.524140 0.000000 0.000000 
#    y 0.000000 1.575650 0.000000 
#    z 0.000000 0.000000 1.520500 
# 
# From -- ./inp_files/62654.got.cif
#   From: 2010.03.12/outbox.cif.g09.slc.cpg/sg74_32_cif.got.tgz:62654.got - 2010.04.16 15:46:19.
