data_PCOD8297494
_publ_section_title
;
Structure prediction by ZEFSAII (Michael W. Deem and Ramdas Pophale) SiO2 
 PCOD8297494
Probable space group: I M M A
;
_chemical_formula_sum "Si O2"
_cell_formula_units_Z 80
_cell_length_a 10.349130
_cell_length_b 22.797134
_cell_length_c 23.208689
_cell_angle_alpha 90.000000
_cell_angle_beta 90.000000
_cell_angle_gamma 90.000000
_cell_volume 5475.637679
_symmetry_space_group_name_H-M "I M M A"
_symmetry_group_IT_number 74
_symmetry_cell_setting 'orthorhombic'
loop_
_space_group_symop_operation_xyz
x,y,z
-x,1/2-y,z
x,-y,-z
-x,1/2+y,-z
-x,-y,-z
x,1/2+y,-z
-x,y,z
x,1/2-y,z
1/2+x,1/2+y,1/2+z
1/2-x,-y,1/2+z
1/2+x,1/2-y,1/2-z
1/2-x,y,1/2-z
1/2-x,1/2-y,1/2-z
1/2+x,y,1/2-z
1/2-x,1/2+y,1/2+z
1/2+x,-y,1/2+z
loop_
_atom_site_type_symbol
_atom_site_label
_atom_site_fract_x
_atom_site_fract_y
_atom_site_fract_z
Si Si1 0.757972 0.965082 0.365372
Si Si2 0.000000 0.814847 0.401955
Si Si3 0.147099 0.949465 0.547598
Si Si4 0.500000 0.081891 0.677404
Si Si5 0.000000 0.584640 0.308617
Si Si6 0.740615 0.135483 0.959406
Si Si7 0.500000 0.317668 0.582525
O O1 0.622021 0.960487 0.332908
O O2 0.761221 0.916899 0.414536
O O3 0.873898 0.954445 0.320692
O O4 0.776458 0.028564 0.395503
O O5 0.000000 0.857621 0.347603
O O6 0.124172 0.821649 0.442825
O O7 0.000000 0.750000 0.375453
O O8 0.218836 0.891609 0.523098
O O9 0.000000 0.933671 0.564280
O O10 0.145875 0.000000 0.500000
O O11 0.500000 0.105075 0.742585
O O12 0.500000 0.140398 0.638433
O O13 0.875473 0.170136 0.957234
O O14 0.500000 0.250000 0.603227
#
# Coordination Sequence:
#
# PCOD8297494 Si02
#       7
#    16   8  16   8   8  16   8
#     4   9  17  28  43  61  80 104 136 177 219 260
#     4  10  18  28  43  61  79 107 154 194 213 238
#     4   9  14  25  45  64  80  97 126 172 222 266
#     4  10  20  30  41  59  83 113 154 188 207 242
#     4  10  18  30  43  57  81 115 152 186 215 240
#     4   9  17  28  43  61  79 103 137 177 219 262
#     4  10  20  32  41  55  85 119 148 182 219 244
#
# _framework density 14.610170999999999
#
# number of rings (size 3 to 8) (size 9 to 14) (size 15 to 20)
#    0.000    2.600    2.000    1.200    0.000    1.200 
#    0.000    4.000    0.000    7.200    0.000    0.000 
#    0.000    0.000    0.000    0.000    0.000   70.000 
#
# Total GULP energy -495826.618663 kJ/mol
# GULP energy per Si atom -12395.665467 kJ/mol
# Density = 1.457692 g / cm^3
# Si number density = 14.610171 Si / 1000 Ang^3
#
#
#
# Elastic Constant Matrix: (Units=GPa)
#
#
# Indices 1 2 3 4 5 6 
#
# 1 138.4739 40.8171 43.3768 0.0000 0.0000 0.0000
# 2 40.8171 52.6049 50.5589 0.0000 0.0000 0.0000
# 3 43.3768 50.5589 60.9307 0.0000 0.0000 0.0000
# 4 0.0000 0.0000 0.0000 14.4930 0.0000 0.0000
# 5 0.0000 0.0000 0.0000 0.0000 13.5004 0.0000
# 6 0.0000 0.0000 0.0000 0.0000 0.0000 11.8853
#
#
#
# Elastic Compliance Matrix: (Units=1/GPa)
#
#
# Indices 1 2 3 4 5 6 
#
# 1 0.009487 -0.004296 -0.003189 0.000000 0.000000 0.000000
# 2 -0.004296 0.095823 -0.076453 0.000000 0.000000 0.000000
# 3 -0.003189 -0.076453 0.082121 0.000000 0.000000 0.000000
# 4 0.000000 0.000000 0.000000 0.068999 0.000000 0.000000
# 5 0.000000 0.000000 0.000000 0.000000 0.074072 0.000000
# 6 0.000000 0.000000 0.000000 0.000000 0.000000 0.084138
#
#
# Mechanical properties :
#
#
# Convention : Reuss Voigt Hill
#
# Bulk Modulus (GPa) = 51.13875 57.94611 54.54243
# Shear Modulus (GPa) = 8.48849 15.79284 12.14067
#
# Velocity S-wave (km/s) = 2.41301 3.29135 2.88579
# Velocity P-wave (km/s) = 6.54535 7.36149 6.96538
#
# Compressibility (1/GPa) = 0.01955464
#
# Stress axis : x y z
#
# Youngs Moduli (GPa) = 105.40927 10.43596 12.17714
#
# Poissons Ratio (x) = 0.04484 0.03883
# Poissons Ratio (y) = 0.45286 0.93098
# Poissons Ratio (z) = 0.33613 0.79786
#
# Static dielectric constant tensor:
#      x y z
#    x 3.191060 0.000000 0.000000 
#    y 0.000000 2.657150 0.000000 
#    z 0.000000 0.000000 2.682090 
# 
# 
# High freq. dielectric constant tensor:
#      x y z
#    x 1.576940 0.000000 0.000000 
#    y 0.000000 1.522970 0.000000 
#    z 0.000000 0.000000 1.525860 
# 
# From -- ./inp_files/48658.got.cif
#   From: 2010.03.12/outbox.cif.g09.slc.cpg/sg74_25_cif.got.tgz:48658.got - 2010.04.16 15:46:19.
