data_PCOD8297037
_publ_section_title
;
Structure prediction by ZEFSAII (Michael W. Deem and Ramdas Pophale) SiO2 
 PCOD8297037
Probable space group: I B C A 
;
_chemical_formula_sum "Si O2"
_cell_formula_units_Z 72
_cell_length_a 18.760999
_cell_length_b 9.785906
_cell_length_c 18.822652
_cell_angle_alpha 90.000000
_cell_angle_beta 90.000000
_cell_angle_gamma 90.000000
_cell_volume 3455.714163
_symmetry_space_group_name_H-M "I B C A "
_symmetry_group_IT_number 73
_symmetry_cell_setting 'orthorhombic'
loop_
_space_group_symop_operation_xyz
x,y,z
-x,1/2-y,z
x,-y,1/2-z
1/2-x,y,-z
-x,-y,-z
x,1/2+y,-z
-x,y,1/2+z
1/2+x,-y,z
1/2+x,1/2+y,1/2+z
1/2-x,-y,1/2+z
1/2+x,1/2-y,-z
-x,1/2+y,1/2-z
1/2-x,1/2-y,1/2-z
1/2+x,y,1/2-z
1/2-x,1/2+y,z
x,1/2-y,1/2+z
loop_
_atom_site_type_symbol
_atom_site_label
_atom_site_fract_x
_atom_site_fract_y
_atom_site_fract_z
Si Si1 0.739389 0.622486 0.202189
Si Si2 0.893434 0.443657 0.356649
Si Si3 0.953069 0.131872 0.995394
Si Si4 0.101347 0.730556 0.353678
Si Si5 0.500000 0.750000 0.267708
O O1 0.709536 0.500000 0.250000
O O2 0.750000 0.750000 0.250000
O O3 0.814866 0.587460 0.169232
O O4 0.680300 0.666118 0.144779
O O5 0.890431 0.399480 0.439408
O O6 0.904088 0.605486 0.348672
O O7 0.956192 0.361737 0.314744
O O8 0.929618 0.177842 0.072849
O O9 0.000000 0.250000 0.959879
O O10 0.000000 0.000000 0.000000
O O11 0.056746 0.674847 0.285496
#
# Coordination Sequence:
#
# PCOD8297037 Si02
#       5
#    16  16  16  16   8
#     4  12  25  47  73 107 148 186 235 299 361 428
#     4  12  25  46  71 106 145 189 242 298 360 433
#     4  12  25  46  71 104 147 187 235 298 355 421
#     4  12  26  47  71 106 147 187 241 300 360 429
#     4  12  22  40  76 102 136 190 238 294 370 420
#
# _framework density 20.835056000000002
#
# number of rings (size 3 to 8) (size 9 to 14) (size 15 to 20)
#    0.000    0.000    8.889    0.667    0.000    6.222 
#    0.000    2.222    0.000    0.000    0.000    0.000 
#    0.000    0.000    0.000    0.000    0.000    0.000 
#
# Total GULP energy -446081.620110 kJ/mol
# GULP energy per Si atom -12391.156114 kJ/mol
# Density = 2.078763 g / cm^3
# Si number density = 20.835056 Si / 1000 Ang^3
#
#
#
# Elastic Constant Matrix: (Units=GPa)
#
#
# Indices 1 2 3 4 5 6 
#
# 1 140.5725 68.8070 66.9609 0.0000 0.0000 0.0000
# 2 68.8070 151.2073 65.3266 0.0000 0.0000 0.0000
# 3 66.9609 65.3266 141.7509 0.0000 0.0000 0.0000
# 4 0.0000 0.0000 0.0000 34.4128 0.0000 0.0000
# 5 0.0000 0.0000 0.0000 0.0000 36.9415 0.0000
# 6 0.0000 0.0000 0.0000 0.0000 0.0000 33.7513
#
#
#
# Elastic Compliance Matrix: (Units=1/GPa)
#
#
# Indices 1 2 3 4 5 6 
#
# 1 0.010304 -0.003229 -0.003379 0.000000 0.000000 0.000000
# 2 -0.003229 0.009269 -0.002747 0.000000 0.000000 0.000000
# 3 -0.003379 -0.002747 0.009917 0.000000 0.000000 0.000000
# 4 0.000000 0.000000 0.000000 0.029059 0.000000 0.000000
# 5 0.000000 0.000000 0.000000 0.000000 0.027070 0.000000
# 6 0.000000 0.000000 0.000000 0.000000 0.000000 0.029629
#
#
# Mechanical properties :
#
#
# Convention : Reuss Voigt Hill
#
# Bulk Modulus (GPa) = 92.76032 92.85773 92.80902
# Shear Modulus (GPa) = 36.35030 36.51686 36.43358
#
# Velocity S-wave (km/s) = 4.18146 4.19102 4.18624
# Velocity P-wave (km/s) = 8.24201 8.25132 8.24667
#
# Compressibility (1/GPa) = 0.01078047
#
# Stress axis : x y z
#
# Youngs Moduli (GPa) = 97.05008 107.88286 100.83914
#
# Poissons Ratio (x) = 0.34833 0.34078
# Poissons Ratio (y) = 0.31336 0.27696
# Poissons Ratio (z) = 0.32797 0.29631
#
# Static dielectric constant tensor:
#      x y z
#    x 3.123790 0.000000 0.000000 
#    y 0.000000 8.037970 0.000000 
#    z 0.000000 0.000000 5.300640 
# 
# 
# High freq. dielectric constant tensor:
#      x y z
#    x 1.821250 0.000000 0.000000 
#    y 0.000000 1.831640 0.000000 
#    z 0.000000 0.000000 1.825940 
# 
# From -- ./inp_files/6031.got.cif
#   From: 2010.03.12/outbox.cif.g09.slc.cpg/sg73_4_cif.got.tgz:6031.got - 2010.04.16 15:25:48.
