data_PCOD8297113
_publ_section_title
;
Structure prediction by ZEFSAII (Michael W. Deem and Ramdas Pophale) SiO2 
 PCOD8297113
Probable space group: I M M A
;
_chemical_formula_sum "Si O2"
_cell_formula_units_Z 96
_cell_length_a 18.608212
_cell_length_b 16.705732
_cell_length_c 19.841291
_cell_angle_alpha 90.000000
_cell_angle_beta 90.000000
_cell_angle_gamma 90.000000
_cell_volume 6167.939170
_symmetry_space_group_name_H-M "I M M A"
_symmetry_group_IT_number 74
_symmetry_cell_setting 'orthorhombic'
loop_
_space_group_symop_operation_xyz
x,y,z
-x,1/2-y,z
x,-y,-z
-x,1/2+y,-z
-x,-y,-z
x,1/2+y,-z
-x,y,z
x,1/2-y,z
1/2+x,1/2+y,1/2+z
1/2-x,-y,1/2+z
1/2+x,1/2-y,1/2-z
1/2-x,y,1/2-z
1/2-x,1/2-y,1/2-z
1/2+x,y,1/2-z
1/2-x,1/2+y,1/2+z
1/2+x,-y,1/2+z
loop_
_atom_site_type_symbol
_atom_site_label
_atom_site_fract_x
_atom_site_fract_y
_atom_site_fract_z
Si Si1 0.580016 0.419341 0.169687
Si Si2 0.578624 0.577790 0.258878
Si Si3 0.083208 0.340597 0.626201
Si Si4 0.326745 0.516093 0.076558
Si Si5 0.704107 0.999741 0.318984
Si Si6 0.170218 0.163819 0.224068
O O1 0.500000 0.391624 0.148663
O O2 0.577311 0.497705 0.215161
O O3 0.625317 0.441745 0.103027
O O4 0.618302 0.349525 0.211663
O O5 0.500000 0.591786 0.292806
O O6 0.597194 0.648853 0.206589
O O7 0.640901 0.567471 0.314974
O O8 0.103199 0.250000 0.606442
O O9 0.131576 0.399840 0.581961
O O10 0.000000 0.359957 0.610404
O O11 0.252660 0.522002 0.117831
O O12 0.305978 0.500000 0.000000
O O13 0.750000 0.999041 0.250000
O O14 0.667802 0.088414 0.327627
O O15 0.147876 0.250000 0.190728
O O16 0.250000 0.172175 0.250000
#
# Coordination Sequence:
#
# PCOD8297113 Si02
#       6
#    16  16  16  16  16  16
#     4   9  16  27  42  63  88 117 153 186 216 266
#     4   8  14  26  47  67  86 113 146 189 235 274
#     4   9  17  30  47  69  96 122 151 188 231 278
#     4  11  20  31  46  66  92 129 164 189 221 275
#     4  10  15  30  48  67  88 118 159 193 228 275
#     4   9  15  26  45  65  86 115 150 192 235 264
#
# _framework density 15.564356
#
# number of rings (size 3 to 8) (size 9 to 14) (size 15 to 20)
#    0.000    2.667    6.667    1.500    0.000    1.667 
#    0.000    3.333    0.000    0.500    0.000    0.000 
#    0.000    0.000    0.000    0.333    0.000    0.000 
#
# Total GULP energy -594710.802838 kJ/mol
# GULP energy per Si atom -12389.808392 kJ/mol
# Density = 1.552893 g / cm^3
# Si number density = 15.564356 Si / 1000 Ang^3
#
#
#
# Elastic Constant Matrix: (Units=GPa)
#
#
# Indices 1 2 3 4 5 6 
#
# 1 88.6250 19.7232 52.5443 0.0000 0.0000 0.0000
# 2 19.7232 70.3435 25.5660 0.0000 0.0000 0.0000
# 3 52.5443 25.5660 75.3228 0.0000 0.0000 0.0000
# 4 0.0000 0.0000 0.0000 8.4857 0.0000 0.0000
# 5 0.0000 0.0000 0.0000 0.0000 16.5241 0.0000
# 6 0.0000 0.0000 0.0000 0.0000 0.0000 25.1719
#
#
#
# Elastic Compliance Matrix: (Units=1/GPa)
#
#
# Indices 1 2 3 4 5 6 
#
# 1 0.019263 -0.000590 -0.013237 0.000000 0.000000 0.000000
# 2 -0.000590 0.016234 -0.005099 0.000000 0.000000 0.000000
# 3 -0.013237 -0.005099 0.024241 0.000000 0.000000 0.000000
# 4 0.000000 0.000000 0.000000 0.117846 0.000000 0.000000
# 5 0.000000 0.000000 0.000000 0.000000 0.060518 0.000000
# 6 0.000000 0.000000 0.000000 0.000000 0.000000 0.039727
#
#
# Mechanical properties :
#
#
# Convention : Reuss Voigt Hill
#
# Bulk Modulus (GPa) = 45.69059 47.77312 46.73185
# Shear Modulus (GPa) = 15.48101 19.13352 17.30727
#
# Velocity S-wave (km/s) = 3.15722 3.50997 3.33826
# Velocity P-wave (km/s) = 6.53532 6.86928 6.70438
#
# Compressibility (1/GPa) = 0.02188635
#
# Stress axis : x y z
#
# Youngs Moduli (GPa) = 51.91290 61.59725 41.25229
#
# Poissons Ratio (x) = 0.03634 0.54607
# Poissons Ratio (y) = 0.03063 0.21033
# Poissons Ratio (z) = 0.68719 0.31407
#
# Static dielectric constant tensor:
#      x y z
#    x 3.428830 0.000000 0.000000 
#    y 0.000000 3.278790 0.000000 
#    z 0.000000 0.000000 2.529120 
# 
# 
# High freq. dielectric constant tensor:
#      x y z
#    x 1.602560 0.000000 0.000000 
#    y 0.000000 1.590330 0.000000 
#    z 0.000000 0.000000 1.533240 
# 
# From -- ./inp_files/45386.got.cif
#   From: 2010.03.12/outbox.cif.g09.slc.cpg/sg74_23_cif.got.tgz:45386.got - 2010.04.16 15:46:19.
