data_PCOD8297320
_publ_section_title
;
Structure prediction by ZEFSAII (Michael W. Deem and Ramdas Pophale) SiO2 
 PCOD8297320
Probable space group: I M M A
;
_chemical_formula_sum "Si O2"
_cell_formula_units_Z 112
_cell_length_a 14.361091
_cell_length_b 14.118750
_cell_length_c 31.592861
_cell_angle_alpha 90.000000
_cell_angle_beta 90.000000
_cell_angle_gamma 90.000000
_cell_volume 6405.789144
_symmetry_space_group_name_H-M "I M M A"
_symmetry_group_IT_number 74
_symmetry_cell_setting 'orthorhombic'
loop_
_space_group_symop_operation_xyz
x,y,z
-x,1/2-y,z
x,-y,-z
-x,1/2+y,-z
-x,-y,-z
x,1/2+y,-z
-x,y,z
x,1/2-y,z
1/2+x,1/2+y,1/2+z
1/2-x,-y,1/2+z
1/2+x,1/2-y,1/2-z
1/2-x,y,1/2-z
1/2-x,1/2-y,1/2-z
1/2+x,y,1/2-z
1/2-x,1/2+y,1/2+z
1/2+x,-y,1/2+z
loop_
_atom_site_type_symbol
_atom_site_label
_atom_site_fract_x
_atom_site_fract_y
_atom_site_fract_z
Si Si1 0.108558 0.858453 0.725120
Si Si2 0.145773 0.643416 0.239870
Si Si3 0.109917 0.644824 0.480567
Si Si4 0.396150 0.033422 0.310137
Si Si5 0.708297 0.536622 0.850964
Si Si6 0.602180 0.356047 0.833424
Si Si7 0.610283 0.957801 0.934811
O O1 0.140317 0.750000 0.725030
O O2 0.133887 0.901019 0.770763
O O3 0.162390 0.913089 0.688843
O O4 0.000000 0.870288 0.715611
O O5 0.144018 0.750000 0.221500
O O6 0.250000 0.609809 0.250000
O O7 0.101933 0.575632 0.204679
O O8 0.088329 0.635404 0.283028
O O9 0.151962 0.750000 0.470919
O O10 0.138199 0.567410 0.445127
O O11 0.142505 0.608858 0.526645
O O12 0.000000 0.650977 0.481625
O O13 0.500000 0.060315 0.326702
O O14 0.320434 0.047320 0.347592
O O15 0.679861 0.426159 0.851128
O O16 0.669467 0.579677 0.894678
O O17 0.500000 0.378665 0.853347
O O18 0.634094 0.250000 0.845755
O O19 0.500000 0.948430 0.925834
#
# Coordination Sequence:
#
# PCOD8297320 Si02
#       7
#    16  16  16  16  16  16  16
#     4  10  21  36  52  69  92 126 167 208 251 294
#     4  10  17  29  47  64  84 118 164 207 247 289
#     4   8  15  31  52  73 100 129 149 170 217 291
#     4  11  22  35  48  63  90 133 177 213 247 279
#     4  12  21  32  48  72 100 127 162 208 246 281
#     4  10  19  29  43  65  93 122 152 192 243 293
#     4   9  18  30  48  75 102 125 150 183 227 285
#
# _framework density 17.484185
#
# number of rings (size 3 to 8) (size 9 to 14) (size 15 to 20)
#    0.000    2.000    2.857    3.000    0.000    3.143 
#    0.000    2.857    0.000    0.000    0.000    2.000 
#    0.000    1.143    0.000    0.000    0.000    0.000 
#
# Total GULP energy -694162.731890 kJ/mol
# GULP energy per Si atom -12395.763069 kJ/mol
# Density = 1.744439 g / cm^3
# Si number density = 17.484185 Si / 1000 Ang^3
#
#
#
# Elastic Constant Matrix: (Units=GPa)
#
#
# Indices 1 2 3 4 5 6 
#
# 1 78.0454 17.4531 43.1488 0.0000 0.0000 0.0000
# 2 17.4531 76.0469 4.4725 0.0000 0.0000 0.0000
# 3 43.1488 4.4725 55.4142 0.0000 0.0000 0.0000
# 4 0.0000 0.0000 0.0000 9.4416 0.0000 0.0000
# 5 0.0000 0.0000 0.0000 0.0000 19.7279 0.0000
# 6 0.0000 0.0000 0.0000 0.0000 0.0000 13.2274
#
#
#
# Elastic Compliance Matrix: (Units=1/GPa)
#
#
# Indices 1 2 3 4 5 6 
#
# 1 0.023884 -0.004409 -0.018242 0.000000 0.000000 0.000000
# 2 -0.004409 0.014026 0.002301 0.000000 0.000000 0.000000
# 3 -0.018242 0.002301 0.032064 0.000000 0.000000 0.000000
# 4 0.000000 0.000000 0.000000 0.105914 0.000000 0.000000
# 5 0.000000 0.000000 0.000000 0.000000 0.050690 0.000000
# 6 0.000000 0.000000 0.000000 0.000000 0.000000 0.075601
#
#
# Mechanical properties :
#
#
# Convention : Reuss Voigt Hill
#
# Bulk Modulus (GPa) = 34.15834 37.73950 35.94892
# Shear Modulus (GPa) = 14.17887 18.10820 16.14354
#
# Velocity S-wave (km/s) = 2.85082 3.22171 3.04192
# Velocity P-wave (km/s) = 5.51501 5.95575 5.73961
#
# Compressibility (1/GPa) = 0.02927543
#
# Stress axis : x y z
#
# Youngs Moduli (GPa) = 41.86841 71.29474 31.18717
#
# Poissons Ratio (x) = 0.31432 0.56891
# Poissons Ratio (y) = 0.18459 -0.07176
# Poissons Ratio (z) = 0.76376 -0.16404
#
# Static dielectric constant tensor:
#      x y z
#    x 3.573580 0.000000 0.000000 
#    y 0.000000 3.605080 0.000000 
#    z 0.000000 0.000000 3.037790 
# 
# 
# High freq. dielectric constant tensor:
#      x y z
#    x 1.644390 0.000000 0.000000 
#    y 0.000000 1.686050 0.000000 
#    z 0.000000 0.000000 1.638410 
# 
# From -- ./inp_files/72678.got.cif
#   From: 2010.03.12/outbox.cif.g09.slc.cpg/sg74_37_cif.got.tgz:72678.got - 2010.04.16 15:46:19.
