data_PCOD8297229
_publ_section_title
;
Structure prediction by ZEFSAII (Michael W. Deem and Ramdas Pophale) SiO2 
 PCOD8297229
Probable space group: I M M A
;
_chemical_formula_sum "Si O2"
_cell_formula_units_Z 80
_cell_length_a 8.523386
_cell_length_b 23.048404
_cell_length_c 29.430047
_cell_angle_alpha 90.000000
_cell_angle_beta 90.000000
_cell_angle_gamma 90.000000
_cell_volume 5781.545799
_symmetry_space_group_name_H-M "I M M A"
_symmetry_group_IT_number 74
_symmetry_cell_setting 'orthorhombic'
loop_
_space_group_symop_operation_xyz
x,y,z
-x,1/2-y,z
x,-y,-z
-x,1/2+y,-z
-x,-y,-z
x,1/2+y,-z
-x,y,z
x,1/2-y,z
1/2+x,1/2+y,1/2+z
1/2-x,-y,1/2+z
1/2+x,1/2-y,1/2-z
1/2-x,y,1/2-z
1/2-x,1/2-y,1/2-z
1/2+x,y,1/2-z
1/2-x,1/2+y,1/2+z
1/2+x,-y,1/2+z
loop_
_atom_site_type_symbol
_atom_site_label
_atom_site_fract_x
_atom_site_fract_y
_atom_site_fract_z
Si Si1 0.814246 0.620877 0.613107
Si Si2 0.816500 0.983753 0.931484
Si Si3 0.315061 0.816247 0.525577
Si Si4 0.183955 0.080462 0.517948
Si Si5 0.814701 0.815496 0.702819
O O1 0.758211 0.553788 0.609500
O O2 0.738139 0.660731 0.574504
O O3 0.754941 0.644674 0.661519
O O4 0.000000 0.624543 0.607711
O O5 0.000000 0.991033 0.923333
O O6 0.737097 0.047993 0.935498
O O7 0.781466 0.948812 0.977407
O O8 0.500000 0.823339 0.521044
O O9 0.261309 0.750000 0.520406
O O10 0.231581 0.851778 0.484210
O O11 0.000000 0.072106 0.509903
O O12 0.750753 0.750000 0.695645
O O13 0.750000 0.841501 0.750000
O O14 0.000000 0.815610 0.704679
#
# Coordination Sequence:
#
# PCOD8297229 Si02
#       5
#    16  16  16  16  16
#     4  10  18  28  41  56  73  93 122 157 191 225
#     4  10  17  26  39  54  72  92 117 149 185 221
#     4  10  19  28  38  54  75  98 124 154 187 221
#     4  10  17  26  39  53  71  94 120 149 182 218
#     4   9  18  30  42  55  72  95 122 154 191 229
#
# _framework density 13.83713
#
# number of rings (size 3 to 8) (size 9 to 14) (size 15 to 20)
#    0.000    2.200    0.000    9.000    0.000    4.000 
#    0.000    2.000    0.000    0.000    0.000    0.000 
#    0.000    0.000    0.000    0.000    0.000    1.000 
#
# Total GULP energy -495776.527470 kJ/mol
# GULP energy per Si atom -12394.413187 kJ/mol
# Density = 1.380564 g / cm^3
# Si number density = 13.837130 Si / 1000 Ang^3
#
#
#
# Elastic Constant Matrix: (Units=GPa)
#
#
# Indices 1 2 3 4 5 6 
#
# 1 36.4068 24.8842 15.1974 0.0000 0.0000 0.0000
# 2 24.8842 101.8590 57.0062 0.0000 0.0000 0.0000
# 3 15.1974 57.0062 65.7547 0.0000 0.0000 0.0000
# 4 0.0000 0.0000 0.0000 23.4002 0.0000 0.0000
# 5 0.0000 0.0000 0.0000 0.0000 17.2164 0.0000
# 6 0.0000 0.0000 0.0000 0.0000 0.0000 19.7365
#
#
#
# Elastic Compliance Matrix: (Units=1/GPa)
#
#
# Indices 1 2 3 4 5 6 
#
# 1 0.033025 -0.007374 -0.001240 0.000000 0.000000 0.000000
# 2 -0.007374 0.020717 -0.016256 0.000000 0.000000 0.000000
# 3 -0.001240 -0.016256 0.029588 0.000000 0.000000 0.000000
# 4 0.000000 0.000000 0.000000 0.042735 0.000000 0.000000
# 5 0.000000 0.000000 0.000000 0.000000 0.058084 0.000000
# 6 0.000000 0.000000 0.000000 0.000000 0.000000 0.050668
#
#
# Mechanical properties :
#
#
# Convention : Reuss Voigt Hill
#
# Bulk Modulus (GPa) = 29.77109 44.24400 37.00755
# Shear Modulus (GPa) = 16.90596 19.19948 18.05272
#
# Velocity S-wave (km/s) = 3.49919 3.72900 3.61592
# Velocity P-wave (km/s) = 6.15531 7.11230 6.65104
#
# Compressibility (1/GPa) = 0.03358963
#
# Stress axis : x y z
#
# Youngs Moduli (GPa) = 30.27992 48.26956 33.79743
#
# Poissons Ratio (x) = 0.35595 0.04190
# Poissons Ratio (y) = 0.22329 0.54942
# Poissons Ratio (z) = 0.03754 0.78469
#
# Static dielectric constant tensor:
#      x y z
#    x 2.774590 0.000000 0.000000 
#    y 0.000000 3.309230 0.000000 
#    z 0.000000 0.000000 2.666520 
# 
# 
# High freq. dielectric constant tensor:
#      x y z
#    x 1.545590 0.000000 0.000000 
#    y 0.000000 1.520570 0.000000 
#    z 0.000000 0.000000 1.476470 
# 
# From -- ./inp_files/70682.got.cif
#   From: 2010.03.12/outbox.cif.g09.slc.cpg/sg74_36_cif.got.tgz:70682.got - 2010.04.16 15:46:19.
