data_PCOD8297887
_publ_section_title
;
Structure prediction by ZEFSAII (Michael W. Deem and Ramdas Pophale) SiO2 
 PCOD8297887
Probable space group: I M M A
;
_chemical_formula_sum "Si O2"
_cell_formula_units_Z 84
_cell_length_a 26.322175
_cell_length_b 7.862167
_cell_length_c 25.142263
_cell_angle_alpha 90.000000
_cell_angle_beta 90.000000
_cell_angle_gamma 90.000000
_cell_volume 5203.174625
_symmetry_space_group_name_H-M "I M M A"
_symmetry_group_IT_number 74
_symmetry_cell_setting 'orthorhombic'
loop_
_space_group_symop_operation_xyz
x,y,z
-x,1/2-y,z
x,-y,-z
-x,1/2+y,-z
-x,-y,-z
x,1/2+y,-z
-x,y,z
x,1/2-y,z
1/2+x,1/2+y,1/2+z
1/2-x,-y,1/2+z
1/2+x,1/2-y,1/2-z
1/2-x,y,1/2-z
1/2-x,1/2-y,1/2-z
1/2+x,y,1/2-z
1/2-x,1/2+y,1/2+z
1/2+x,-y,1/2+z
loop_
_atom_site_type_symbol
_atom_site_label
_atom_site_fract_x
_atom_site_fract_y
_atom_site_fract_z
Si Si1 0.168510 0.448993 0.657173
Si Si2 0.556430 0.250000 0.276971
Si Si3 0.500000 0.250000 0.176172
Si Si4 0.390980 0.946807 0.057399
Si Si5 0.227862 0.940624 0.808519
Si Si6 0.372729 0.944367 0.270833
Si Si7 0.500000 0.448867 0.905013
O O1 0.160796 0.250000 0.656845
O O2 0.139746 0.534090 0.606336
O O3 0.228389 0.491435 0.652021
O O4 0.143818 0.514015 0.712405
O O5 0.500000 0.250000 0.304139
O O6 0.550200 0.250000 0.212925
O O7 0.585639 0.423511 0.293575
O O8 0.500000 0.427175 0.145000
O O9 0.382176 0.750000 0.063839
O O10 0.450567 0.993637 0.060206
O O11 0.369401 0.000000 0.000000
O O12 0.213335 0.750000 0.824948
O O13 0.250000 0.950881 0.750000
O O14 0.176431 0.052116 0.809935
O O15 0.393834 0.750000 0.269707
O O16 0.500000 0.250000 0.886264
#
# Coordination Sequence:
#
# PCOD8297887 Si02
#       7
#    16   8   4  16  16  16   8
#     4   9  18  30  45  66  86 112 149 187 238 287
#     4  10  22  32  41  69  94 114 156 183 223 280
#     4  10  22  32  50  66  84 120 148 204 234 280
#     4  10  21  34  47  63  86 115 155 204 244 292
#     4   9  16  27  46  69  89 109 140 184 227 279
#     4  10  18  32  50  65  91 118 144 189 233 272
#     4  10  21  37  50  64  82 112 162 206 248 286
#
# _framework density 16.143989999999999
#
# number of rings (size 3 to 8) (size 9 to 14) (size 15 to 20)
#    0.286    2.095    0.952    2.000    2.667    5.714 
#    0.000    0.000    0.000    0.000    0.000    0.000 
#    0.000    0.000    0.000    0.000    0.000    0.952 
#
# Total GULP energy -520397.374255 kJ/mol
# GULP energy per Si atom -12390.413673 kJ/mol
# Density = 1.610725 g / cm^3
# Si number density = 16.143990 Si / 1000 Ang^3
#
#
#
# Elastic Constant Matrix: (Units=GPa)
#
#
# Indices 1 2 3 4 5 6 
#
# 1 109.8330 33.2458 35.1443 0.0000 0.0000 0.0000
# 2 33.2458 62.2205 2.0015 0.0000 0.0000 0.0000
# 3 35.1443 2.0015 41.2798 0.0000 0.0000 0.0000
# 4 0.0000 0.0000 0.0000 14.7273 0.0000 0.0000
# 5 0.0000 0.0000 0.0000 0.0000 27.9152 0.0000
# 6 0.0000 0.0000 0.0000 0.0000 0.0000 24.3657
#
#
#
# Elastic Compliance Matrix: (Units=1/GPa)
#
#
# Indices 1 2 3 4 5 6 
#
# 1 0.015650 -0.007946 -0.012939 0.000000 0.000000 0.000000
# 2 -0.007946 0.020131 0.005789 0.000000 0.000000 0.000000
# 3 -0.012939 0.005789 0.034960 0.000000 0.000000 0.000000
# 4 0.000000 0.000000 0.000000 0.067901 0.000000 0.000000
# 5 0.000000 0.000000 0.000000 0.000000 0.035823 0.000000
# 6 0.000000 0.000000 0.000000 0.000000 0.000000 0.041041
#
#
# Mechanical properties :
#
#
# Convention : Reuss Voigt Hill
#
# Bulk Modulus (GPa) = 24.66113 39.34628 32.00371
# Shear Modulus (GPa) = 19.28905 22.93109 21.11007
#
# Velocity S-wave (km/s) = 3.46036 3.77292 3.62001
# Velocity P-wave (km/s) = 5.59234 6.58824 6.11062
#
# Compressibility (1/GPa) = 0.04054963
#
# Stress axis : x y z
#
# Youngs Moduli (GPa) = 63.89769 49.67372 28.60433
#
# Poissons Ratio (x) = 0.39471 0.37010
# Poissons Ratio (y) = 0.50773 -0.16559
# Poissons Ratio (z) = 0.82675 -0.28755
#
# Static dielectric constant tensor:
#      x y z
#    x 3.288210 0.000000 0.000000 
#    y 0.000000 3.021630 0.000000 
#    z 0.000000 0.000000 4.867910 
# 
# 
# High freq. dielectric constant tensor:
#      x y z
#    x 1.617460 0.000000 0.000000 
#    y 0.000000 1.629530 0.000000 
#    z 0.000000 0.000000 1.552500 
# 
# From -- ./inp_files/62232.got.cif
#   From: 2010.03.12/outbox.cif.g09.slc.cpg/sg74_32_cif.got.tgz:62232.got - 2010.04.16 15:46:19.
