data_PCOD8297888
_publ_section_title
;
Structure prediction by ZEFSAII (Michael W. Deem and Ramdas Pophale) SiO2 
 PCOD8297888
Probable space group: I M M A
;
_chemical_formula_sum "Si O2"
_cell_formula_units_Z 104
_cell_length_a 8.707471
_cell_length_b 24.693076
_cell_length_c 32.812302
_cell_angle_alpha 90.000000
_cell_angle_beta 90.000000
_cell_angle_gamma 90.000000
_cell_volume 7055.112281
_symmetry_space_group_name_H-M "I M M A"
_symmetry_group_IT_number 74
_symmetry_cell_setting 'orthorhombic'
loop_
_space_group_symop_operation_xyz
x,y,z
-x,1/2-y,z
x,-y,-z
-x,1/2+y,-z
-x,-y,-z
x,1/2+y,-z
-x,y,z
x,1/2-y,z
1/2+x,1/2+y,1/2+z
1/2-x,-y,1/2+z
1/2+x,1/2-y,1/2-z
1/2-x,y,1/2-z
1/2-x,1/2-y,1/2-z
1/2+x,y,1/2-z
1/2-x,1/2+y,1/2+z
1/2+x,-y,1/2+z
loop_
_atom_site_type_symbol
_atom_site_label
_atom_site_fract_x
_atom_site_fract_y
_atom_site_fract_z
Si Si1 0.681593 0.691172 0.416119
Si Si2 0.681134 0.809032 0.508086
Si Si3 0.680409 0.918007 0.981886
Si Si4 0.318538 0.524010 0.063252
Si Si5 0.816263 0.250000 0.795190
Si Si6 0.818034 0.411095 0.867656
Si Si7 0.682201 0.639215 0.205398
O O1 0.500000 0.685301 0.417145
O O2 0.726443 0.750000 0.396894
O O3 0.744968 0.688126 0.462046
O O4 0.750057 0.642092 0.390269
O O5 0.500000 0.814873 0.509145
O O6 0.728896 0.750000 0.526764
O O7 0.751986 0.860005 0.532140
O O8 0.500000 0.913608 0.983484
O O9 0.728716 0.962736 0.948523
O O10 0.739018 0.936330 0.026818
O O11 0.500000 0.529306 0.069515
O O12 0.232471 0.537477 0.105465
O O13 0.750000 0.250000 0.750000
O O14 0.752689 0.305587 0.814920
O O15 0.000000 0.250000 0.796621
O O16 0.735744 0.410603 0.823456
O O17 0.000000 0.411183 0.861677
O O18 0.500000 0.643487 0.208346
O O19 0.750000 0.628459 0.250000
#
# Coordination Sequence:
#
# PCOD8297888 Si02
#       7
#    16  16  16  16   8  16  16
#     4   8  15  26  38  55  79 105 132 167 211 252
#     4   9  16  27  42  60  82 108 137 173 213 252
#     4   9  17  29  44  59  82 112 141 173 212 250
#     4   9  18  31  43  59  83 111 139 175 215 250
#     4  10  18  32  50  66  82 104 134 170 212 262
#     4  11  20  30  47  66  81 105 139 175 216 261
#     4  11  22  36  49  63  82 106 135 172 215 262
#
# _framework density 14.741083
#
# number of rings (size 3 to 8) (size 9 to 14) (size 15 to 20)
#    0.000    2.462    1.538    5.308    1.077    0.923 
#    0.000    1.538    0.000    0.000    0.000    0.000 
#    0.000    0.000    0.000    0.000    0.000    0.769 
#
# Total GULP energy -644416.954208 kJ/mol
# GULP energy per Si atom -12392.633735 kJ/mol
# Density = 1.470753 g / cm^3
# Si number density = 14.741083 Si / 1000 Ang^3
#
#
#
# Elastic Constant Matrix: (Units=GPa)
#
#
# Indices 1 2 3 4 5 6 
#
# 1 68.4842 30.8236 30.3105 0.0000 0.0000 0.0000
# 2 30.8236 103.8219 38.5929 0.0000 0.0000 0.0000
# 3 30.3105 38.5929 63.5289 0.0000 0.0000 0.0000
# 4 0.0000 0.0000 0.0000 23.1259 0.0000 0.0000
# 5 0.0000 0.0000 0.0000 0.0000 18.3206 0.0000
# 6 0.0000 0.0000 0.0000 0.0000 0.0000 23.1921
#
#
#
# Elastic Compliance Matrix: (Units=1/GPa)
#
#
# Indices 1 2 3 4 5 6 
#
# 1 0.019191 -0.002963 -0.007356 0.000000 0.000000 0.000000
# 2 -0.002963 0.012899 -0.006422 0.000000 0.000000 0.000000
# 3 -0.007356 -0.006422 0.023152 0.000000 0.000000 0.000000
# 4 0.000000 0.000000 0.000000 0.043242 0.000000 0.000000
# 5 0.000000 0.000000 0.000000 0.000000 0.054583 0.000000
# 6 0.000000 0.000000 0.000000 0.000000 0.000000 0.043118
#
#
# Mechanical properties :
#
#
# Convention : Reuss Voigt Hill
#
# Bulk Modulus (GPa) = 45.95804 48.36542 47.16173
# Shear Modulus (GPa) = 21.10400 22.00158 21.55279
#
# Velocity S-wave (km/s) = 3.78781 3.86753 3.82788
# Velocity P-wave (km/s) = 7.09750 7.26807 7.18329
#
# Compressibility (1/GPa) = 0.02175898
#
# Stress axis : x y z
#
# Youngs Moduli (GPa) = 52.10645 77.52627 43.19276
#
# Poissons Ratio (x) = 0.22973 0.31774
# Poissons Ratio (y) = 0.15440 0.27739
# Poissons Ratio (z) = 0.38332 0.49788
#
# Static dielectric constant tensor:
#      x y z
#    x 2.687590 0.000000 0.000000 
#    y 0.000000 3.135840 0.000000 
#    z 0.000000 0.000000 2.684460 
# 
# 
# High freq. dielectric constant tensor:
#      x y z
#    x 1.560830 0.000000 0.000000 
#    y 0.000000 1.546020 0.000000 
#    z 0.000000 0.000000 1.524990 
# 
# From -- ./inp_files/70828.got.cif
#   From: 2010.03.12/outbox.cif.g09.slc.cpg/sg74_36_cif.got.tgz:70828.got - 2010.04.16 15:46:19.
