data_PCOD8297830
_publ_section_title
;
Structure prediction by ZEFSAII (Michael W. Deem and Ramdas Pophale) SiO2 
 PCOD8297830
Probable space group: I M M A
;
_chemical_formula_sum "Si O2"
_cell_formula_units_Z 80
_cell_length_a 19.458696
_cell_length_b 8.930248
_cell_length_c 28.037360
_cell_angle_alpha 90.000000
_cell_angle_beta 90.000000
_cell_angle_gamma 90.000000
_cell_volume 4872.079553
_symmetry_space_group_name_H-M "I M M A"
_symmetry_group_IT_number 74
_symmetry_cell_setting 'orthorhombic'
loop_
_space_group_symop_operation_xyz
x,y,z
-x,1/2-y,z
x,-y,-z
-x,1/2+y,-z
-x,-y,-z
x,1/2+y,-z
-x,y,z
x,1/2-y,z
1/2+x,1/2+y,1/2+z
1/2-x,-y,1/2+z
1/2+x,1/2-y,1/2-z
1/2-x,y,1/2-z
1/2-x,1/2-y,1/2-z
1/2+x,y,1/2-z
1/2-x,1/2+y,1/2+z
1/2+x,-y,1/2+z
loop_
_atom_site_type_symbol
_atom_site_label
_atom_site_fract_x
_atom_site_fract_y
_atom_site_fract_z
Si Si1 0.832711 0.080573 0.637185
Si Si2 0.420838 0.075168 0.774828
Si Si3 0.079873 0.076089 0.177055
Si Si4 0.287260 0.427206 0.049593
Si Si5 0.686372 0.919363 0.387769
O O1 0.857866 0.250000 0.626276
O O2 0.875562 0.013452 0.681244
O O3 0.750800 0.080436 0.649595
O O4 0.843337 0.978815 0.589693
O O5 0.500000 0.041017 0.786679
O O6 0.407622 0.250000 0.766070
O O7 0.396588 0.989447 0.727708
O O8 0.097354 0.250000 0.176694
O O9 0.000000 0.043263 0.168130
O O10 0.120415 0.997598 0.134522
O O11 0.285281 0.250000 0.045003
O O12 0.211765 0.490569 0.064994
O O13 0.309868 0.500000 0.000000
O O14 0.666776 0.750000 0.402342
#
# Coordination Sequence:
#
# PCOD8297830 Si02
#       5
#    16  16  16  16  16
#     4   8  17  31  47  72  97 122 158 198 236 276
#     4   9  17  31  50  69  95 132 165 193 232 281
#     4  10  20  32  46  68  99 131 162 196 233 277
#     4  10  18  31  51  73  96 122 153 192 241 287
#     4   9  18  32  49  71  95 123 159 198 236 278
#
# _framework density 16.420093000000001
#
# number of rings (size 3 to 8) (size 9 to 14) (size 15 to 20)
#    1.200    1.600    0.000    2.400    0.000    2.800 
#    0.000    4.000    0.000    1.200    0.000    0.000 
#    0.000    0.000    0.000    0.000    0.000    0.000 
#
# Total GULP energy -495666.610580 kJ/mol
# GULP energy per Si atom -12391.665265 kJ/mol
# Density = 1.638272 g / cm^3
# Si number density = 16.420093 Si / 1000 Ang^3
#
#
#
# Elastic Constant Matrix: (Units=GPa)
#
#
# Indices 1 2 3 4 5 6 
#
# 1 21.7114 7.0511 -2.0876 0.0000 0.0000 0.0000
# 2 7.0511 87.1254 13.6436 0.0000 0.0000 0.0000
# 3 -2.0876 13.6436 28.9198 0.0000 0.0000 0.0000
# 4 0.0000 0.0000 0.0000 31.0034 0.0000 0.0000
# 5 0.0000 0.0000 0.0000 0.0000 13.1515 0.0000
# 6 0.0000 0.0000 0.0000 0.0000 0.0000 20.1786
#
#
#
# Elastic Compliance Matrix: (Units=1/GPa)
#
#
# Indices 1 2 3 4 5 6 
#
# 1 0.048169 -0.004797 0.005740 0.000000 0.000000 0.000000
# 2 -0.004797 0.012871 -0.006419 0.000000 0.000000 0.000000
# 3 0.005740 -0.006419 0.038021 0.000000 0.000000 0.000000
# 4 0.000000 0.000000 0.000000 0.032255 0.000000 0.000000
# 5 0.000000 0.000000 0.000000 0.000000 0.076037 0.000000
# 6 0.000000 0.000000 0.000000 0.000000 0.000000 0.049557
#
#
# Mechanical properties :
#
#
# Convention : Reuss Voigt Hill
#
# Bulk Modulus (GPa) = 11.34950 19.44121 15.39536
# Shear Modulus (GPa) = 16.82197 20.81000 18.81599
#
# Velocity S-wave (km/s) = 3.20421 3.56385 3.38881
# Velocity P-wave (km/s) = 4.54052 5.36659 4.97074
#
# Compressibility (1/GPa) = 0.08810957
#
# Stress axis : x y z
#
# Youngs Moduli (GPa) = 20.76038 77.69364 26.30139
#
# Poissons Ratio (x) = 0.37271 -0.15098
# Poissons Ratio (y) = 0.09959 0.16882
# Poissons Ratio (z) = -0.11917 0.49868
#
# Static dielectric constant tensor:
#      x y z
#    x 2.886340 0.000000 0.000000 
#    y 0.000000 3.094180 0.000000 
#    z 0.000000 0.000000 2.941800 
# 
# 
# High freq. dielectric constant tensor:
#      x y z
#    x 1.604890 0.000000 0.000000 
#    y 0.000000 1.640690 0.000000 
#    z 0.000000 0.000000 1.616980 
# 
# From -- ./inp_files/67519.got.cif
#   From: 2010.03.12/outbox.cif.g09.slc.cpg/sg74_34_cif.got.tgz:67519.got - 2010.04.16 15:46:19.
