data_PCOD8297872
_publ_section_title
;
Structure prediction by ZEFSAII (Michael W. Deem and Ramdas Pophale) SiO2 
 PCOD8297872
Probable space group: I M M A
;
_chemical_formula_sum "Si O2"
_cell_formula_units_Z 56
_cell_length_a 12.731114
_cell_length_b 19.390605
_cell_length_c 13.045412
_cell_angle_alpha 90.000000
_cell_angle_beta 90.000000
_cell_angle_gamma 90.000000
_cell_volume 3220.442624
_symmetry_space_group_name_H-M "I M M A"
_symmetry_group_IT_number 74
_symmetry_cell_setting 'orthorhombic'
loop_
_space_group_symop_operation_xyz
x,y,z
-x,1/2-y,z
x,-y,-z
-x,1/2+y,-z
-x,-y,-z
x,1/2+y,-z
-x,y,z
x,1/2-y,z
1/2+x,1/2+y,1/2+z
1/2-x,-y,1/2+z
1/2+x,1/2-y,1/2-z
1/2-x,y,1/2-z
1/2-x,1/2-y,1/2-z
1/2+x,y,1/2-z
1/2-x,1/2+y,1/2+z
1/2+x,-y,1/2+z
loop_
_atom_site_type_symbol
_atom_site_label
_atom_site_fract_x
_atom_site_fract_y
_atom_site_fract_z
Si Si1 0.381490 0.108311 0.192479
Si Si2 0.312280 0.669631 0.598842
Si Si3 0.378732 0.566698 0.432405
Si Si4 0.750000 0.516869 0.250000
O O1 0.500000 0.107893 0.150976
O O2 0.378866 0.137586 0.307936
O O3 0.311713 0.156107 0.117757
O O4 0.335760 0.030933 0.192526
O O5 0.335103 0.750000 0.590966
O O6 0.350658 0.635558 0.493987
O O7 0.352102 0.500000 0.500000
O O8 0.500000 0.567141 0.399373
O O9 0.307857 0.565881 0.330934
#
# Coordination Sequence:
#
# PCOD8297872 Si02
#       4
#    16  16  16   8
#     4  10  18  31  54  81 112 139 168 220 276 318
#     4  10  21  34  52  81 110 140 179 218 262 319
#     4  11  20  36  58  77 105 143 178 216 260 310
#     4  10  20  34  52  82 108 134 180 224 256 304
#
# _framework density 17.388912999999999
#
# number of rings (size 3 to 8) (size 9 to 14) (size 15 to 20)
#    0.000    2.000    5.714    3.429    0.000    4.000 
#    0.000    5.000    0.000    0.000    0.000    0.000 
#    0.000    0.000    0.000    0.000    0.000    0.000 
#
# Total GULP energy -347243.559314 kJ/mol
# GULP energy per Si atom -12401.555690 kJ/mol
# Density = 1.734934 g / cm^3
# Si number density = 17.388913 Si / 1000 Ang^3
#
#
#
# Elastic Constant Matrix: (Units=GPa)
#
#
# Indices 1 2 3 4 5 6 
#
# 1 111.4516 12.2934 34.9377 0.0001 0.0000 0.0000
# 2 12.2934 68.8972 37.2085 0.0005 0.0000 0.0000
# 3 34.9377 37.2085 89.6116 0.0005 0.0000 0.0000
# 4 0.0001 0.0005 0.0005 26.1606 0.0000 0.0000
# 5 0.0000 0.0000 0.0000 0.0000 17.9159 0.0000
# 6 0.0000 0.0000 0.0000 0.0000 0.0000 8.5021
#
#
#
# Elastic Compliance Matrix: (Units=1/GPa)
#
#
# Indices 1 2 3 4 5 6 
#
# 1 0.010231 0.000424 -0.004165 0.000000 0.000000 0.000000
# 2 0.000424 0.018728 -0.007941 0.000000 0.000000 0.000000
# 3 -0.004165 -0.007941 0.016080 0.000000 0.000000 0.000000
# 4 0.000000 0.000000 0.000000 0.038225 0.000000 0.000000
# 5 0.000000 0.000000 0.000000 0.000000 0.055816 0.000000
# 6 0.000000 0.000000 0.000000 0.000000 0.000000 0.117618
#
#
# Mechanical properties :
#
#
# Convention : Reuss Voigt Hill
#
# Bulk Modulus (GPa) = 46.13733 48.75998 47.44866
# Shear Modulus (GPa) = 17.40405 22.88374 20.14390
#
# Velocity S-wave (km/s) = 3.16709 3.63160 3.40727
# Velocity P-wave (km/s) = 6.32172 6.75917 6.54410
#
# Compressibility (1/GPa) = 0.02167442
#
# Stress axis : x y z
#
# Youngs Moduli (GPa) = 97.73839 53.39738 62.18724
#
# Poissons Ratio (x) = -0.02263 0.25901
# Poissons Ratio (y) = -0.04141 0.49384
# Poissons Ratio (z) = 0.40708 0.42404
#
# Static dielectric constant tensor:
#      x y z
#    x 3.326660 0.000000 0.000000 
#    y 0.000000 3.059790 0.000000 
#    z 0.000000 0.000000 3.019490 
# 
# 
# High freq. dielectric constant tensor:
#      x y z
#    x 1.679950 0.000000 0.000000 
#    y 0.000000 1.654360 0.000000 
#    z 0.000000 0.000000 1.640050 
# 
# From -- ./inp_files/23218.got.cif
#   From: 2010.03.12/outbox.cif.g09.slc.cpg/sg74_12_cif.got.tgz:23218.got - 2010.04.16 15:46:19.
