data_PCOD8297629
_publ_section_title
;
Structure prediction by ZEFSAII (Michael W. Deem and Ramdas Pophale) SiO2 
 PCOD8297629
Probable space group: I M M A
;
_chemical_formula_sum "Si O2"
_cell_formula_units_Z 96
_cell_length_a 19.872633
_cell_length_b 18.302137
_cell_length_c 14.261098
_cell_angle_alpha 90.000000
_cell_angle_beta 90.000000
_cell_angle_gamma 90.000000
_cell_volume 5186.927509
_symmetry_space_group_name_H-M "I M M A"
_symmetry_group_IT_number 74
_symmetry_cell_setting 'orthorhombic'
loop_
_space_group_symop_operation_xyz
x,y,z
-x,1/2-y,z
x,-y,-z
-x,1/2+y,-z
-x,-y,-z
x,1/2+y,-z
-x,y,z
x,1/2-y,z
1/2+x,1/2+y,1/2+z
1/2-x,-y,1/2+z
1/2+x,1/2-y,1/2-z
1/2-x,y,1/2-z
1/2-x,1/2-y,1/2-z
1/2+x,y,1/2-z
1/2-x,1/2+y,1/2+z
1/2+x,-y,1/2+z
loop_
_atom_site_type_symbol
_atom_site_label
_atom_site_fract_x
_atom_site_fract_y
_atom_site_fract_z
Si Si1 0.800616 0.329745 0.664867
Si Si2 0.746871 0.480252 0.894878
Si Si3 0.578720 0.164980 0.332373
Si Si4 0.923469 0.606559 0.232511
Si Si5 0.420794 0.329944 0.539912
Si Si6 0.854091 0.467563 0.255014
O O1 0.801487 0.250000 0.613695
O O2 0.750000 0.326292 0.750000
O O3 0.774132 0.394792 0.599057
O O4 0.876208 0.345734 0.700494
O O5 0.808728 0.495947 0.826157
O O6 0.684634 0.528629 0.854467
O O7 0.766201 0.500000 0.000000
O O8 0.500000 0.148874 0.316860
O O9 0.594429 0.250000 0.312277
O O10 0.603093 0.142537 0.437376
O O11 0.623080 0.115447 0.262567
O O12 0.918895 0.520746 0.257876
O O13 0.000000 0.633635 0.246263
O O14 0.900045 0.616185 0.123536
O O15 0.500000 0.321588 0.531982
O O16 0.389342 0.250000 0.561236
#
# Coordination Sequence:
#
# PCOD8297629 Si02
#       6
#    16  16  16  16  16  16
#     4  10  19  35  55  78 108 145 181 215 269 330
#     4  10  21  39  55  76 108 140 182 231 266 312
#     4   9  18  32  50  74 107 142 173 213 265 321
#     4  10  18  29  50  81 111 138 173 222 273 326
#     4   8  15  26  40  69 109 139 164 201 256 319
#     4  10  20  35  53  78 101 140 181 217 269 328
#
# _framework density 18.508065999999999
#
# number of rings (size 3 to 8) (size 9 to 14) (size 15 to 20)
#    0.000    2.500    3.333    2.000    2.333    1.000 
#    0.000    5.833    0.000   12.500    0.000    0.000 
#    0.000    0.000    0.000    0.000    0.000    0.000 
#
# Total GULP energy -594738.563222 kJ/mol
# GULP energy per Si atom -12390.386734 kJ/mol
# Density = 1.846594 g / cm^3
# Si number density = 18.508066 Si / 1000 Ang^3
#
#
#
# Elastic Constant Matrix: (Units=GPa)
#
#
# Indices 1 2 3 4 5 6 
#
# 1 58.6368 25.8134 2.6167 0.0000 0.0000 0.0000
# 2 25.8134 102.5099 8.0547 0.0000 0.0000 0.0000
# 3 2.6167 8.0547 37.5546 0.0000 0.0000 0.0000
# 4 0.0000 0.0000 0.0000 15.8951 0.0000 0.0000
# 5 0.0000 0.0000 0.0000 0.0000 15.9649 0.0000
# 6 0.0000 0.0000 0.0000 0.0000 0.0000 25.1992
#
#
#
# Elastic Compliance Matrix: (Units=1/GPa)
#
#
# Indices 1 2 3 4 5 6 
#
# 1 0.019184 -0.004807 -0.000306 0.000000 0.000000 0.000000
# 2 -0.004807 0.011127 -0.002052 0.000000 0.000000 0.000000
# 3 -0.000306 -0.002052 0.027089 0.000000 0.000000 0.000000
# 4 0.000000 0.000000 0.000000 0.062912 0.000000 0.000000
# 5 0.000000 0.000000 0.000000 0.000000 0.062637 0.000000
# 6 0.000000 0.000000 0.000000 0.000000 0.000000 0.039684
#
#
# Mechanical properties :
#
#
# Convention : Reuss Voigt Hill
#
# Bulk Modulus (GPa) = 23.21704 30.18564 26.70134
# Shear Modulus (GPa) = 19.89507 22.22629 21.06068
#
# Velocity S-wave (km/s) = 3.28219 3.46916 3.37696
# Velocity P-wave (km/s) = 5.18991 5.69136 5.44641
#
# Compressibility (1/GPa) = 0.04307181
#
# Stress axis : x y z
#
# Youngs Moduli (GPa) = 52.12727 89.87352 36.91506
#
# Poissons Ratio (x) = 0.43200 0.01129
# Poissons Ratio (y) = 0.25056 0.07573
# Poissons Ratio (z) = 0.01594 0.18438
#
# Static dielectric constant tensor:
#      x y z
#    x 3.304180 0.000000 0.000000 
#    y 0.000000 3.702180 0.000000 
#    z 0.000000 0.000000 3.113380 
# 
# 
# High freq. dielectric constant tensor:
#      x y z
#    x 1.712000 0.000000 0.000000 
#    y 0.000000 1.722180 0.000000 
#    z 0.000000 0.000000 1.673100 
# 
# From -- ./inp_files/44103.got.cif
#   From: 2010.03.12/outbox.cif.g09.slc.cpg/sg74_23_cif.got.tgz:44103.got - 2010.04.16 15:46:19.
