data_PCOD8297041
_publ_section_title
;
Structure prediction by ZEFSAII (Michael W. Deem and Ramdas Pophale) SiO2 
 PCOD8297041
Probable space group: I B C A 
;
_chemical_formula_sum "Si O2"
_cell_formula_units_Z 112
_cell_length_a 12.422217
_cell_length_b 29.981163
_cell_length_c 13.576178
_cell_angle_alpha 90.000000
_cell_angle_beta 90.000000
_cell_angle_gamma 90.000000
_cell_volume 5056.210085
_symmetry_space_group_name_H-M "I B C A "
_symmetry_group_IT_number 73
_symmetry_cell_setting 'orthorhombic'
loop_
_space_group_symop_operation_xyz
x,y,z
-x,1/2-y,z
x,-y,1/2-z
1/2-x,y,-z
-x,-y,-z
x,1/2+y,-z
-x,y,1/2+z
1/2+x,-y,z
1/2+x,1/2+y,1/2+z
1/2-x,-y,1/2+z
1/2+x,1/2-y,-z
-x,1/2+y,1/2-z
1/2-x,1/2-y,1/2-z
1/2+x,y,1/2-z
1/2-x,1/2+y,z
x,1/2-y,1/2+z
loop_
_atom_site_type_symbol
_atom_site_label
_atom_site_fract_x
_atom_site_fract_y
_atom_site_fract_z
Si Si1 0.671426 0.209181 0.761818
Si Si2 0.769360 0.864626 0.608116
Si Si3 0.000000 0.250000 0.595304
Si Si4 0.792314 0.000000 0.750000
Si Si5 0.484645 0.994124 0.886847
Si Si6 0.014011 0.892909 0.631638
Si Si7 0.131018 0.682687 0.041602
Si Si8 0.128884 0.929788 0.795198
O O1 0.750000 0.250000 0.750000
O O2 0.744287 0.170096 0.806148
O O3 0.574900 0.219880 0.836182
O O4 0.624685 0.198814 0.654151
O O5 0.750000 0.843100 0.500000
O O6 0.890067 0.880172 0.630034
O O7 0.688420 0.906886 0.611870
O O8 0.931415 0.217269 0.526661
O O9 0.862035 0.005206 0.849685
O O10 0.720793 0.955776 0.766643
O O11 0.542576 0.033794 0.828950
O O12 0.536575 0.945875 0.870959
O O13 0.500000 0.000000 0.000000
O O14 0.072939 0.865837 0.543600
O O15 0.073724 0.887025 0.737892
O O16 0.250000 0.676703 0.000000
#
# Coordination Sequence:
#
# PCOD8297041 Si02
#       8
#    16  16   8   8  16  16  16  16
#     4  12  28  49  78 108 145 198 239 305 374 439
#     4  12  27  47  75 110 149 192 245 304 370 444
#     4  12  28  50  82 104 148 192 246 302 372 458
#     4  12  22  44  70  96 144 190 240 302 356 422
#     4  12  25  43  70 102 138 194 247 291 358 431
#     4  12  25  47  70 106 146 191 241 302 368 434
#     4  12  28  49  74 113 149 185 246 301 370 447
#     4  12  23  46  72 102 147 193 243 302 365 430
#
# _framework density 22.150979
#
# number of rings (size 3 to 8) (size 9 to 14) (size 15 to 20)
#    0.000    0.000    7.143    2.143    6.000    1.143 
#    5.143    0.000    0.000    0.000    0.000    0.000 
#    0.000    0.000    0.000    0.000    0.000    0.000 
#
# Total GULP energy -694152.629876 kJ/mol
# GULP energy per Si atom -12395.582676 kJ/mol
# Density = 2.210056 g / cm^3
# Si number density = 22.150979 Si / 1000 Ang^3
#
#
#
# Elastic Constant Matrix: (Units=GPa)
#
#
# Indices 1 2 3 4 5 6 
#
# 1 162.7021 59.9287 63.5961 0.0004 0.0000 0.0000
# 2 59.9287 103.6540 36.4255 0.0003 0.0000 0.0000
# 3 63.5961 36.4255 141.7098 0.0012 0.0006 -0.0005
# 4 0.0004 0.0003 0.0012 31.7276 -0.0001 -0.0003
# 5 0.0000 0.0000 0.0006 -0.0001 24.8228 0.0003
# 6 0.0000 0.0000 -0.0005 -0.0003 0.0003 31.8050
#
#
#
# Elastic Compliance Matrix: (Units=1/GPa)
#
#
# Indices 1 2 3 4 5 6 
#
# 1 0.008771 -0.004054 -0.002894 0.000000 0.000000 0.000000
# 2 -0.004054 0.012479 -0.001388 0.000000 0.000000 0.000000
# 3 -0.002894 -0.001388 0.008712 0.000000 0.000000 0.000000
# 4 0.000000 0.000000 0.000000 0.031518 0.000000 0.000000
# 5 0.000000 0.000000 0.000000 0.000000 0.040286 0.000000
# 6 0.000000 0.000000 0.000000 0.000000 0.000000 0.031442
#
#
# Mechanical properties :
#
#
# Convention : Reuss Voigt Hill
#
# Bulk Modulus (GPa) = 75.24713 80.88515 78.06614
# Shear Modulus (GPa) = 32.40238 34.21214 33.30726
#
# Velocity S-wave (km/s) = 3.82880 3.93427 3.88190
# Velocity P-wave (km/s) = 7.32053 7.56523 7.44388
#
# Compressibility (1/GPa) = 0.01328954
#
# Stress axis : x y z
#
# Youngs Moduli (GPa) = 114.01792 80.13376 114.77985
#
# Poissons Ratio (x) = 0.32485 0.33218
# Poissons Ratio (y) = 0.46220 0.15936
# Poissons Ratio (z) = 0.32997 0.11126
#
# Static dielectric constant tensor:
#      x y z
#    x 3.710800 -0.001290 -0.000030 
#    y -0.001290 4.630100 -0.000020 
#    z -0.000030 -0.000020 4.130390 
# 
# 
# High freq. dielectric constant tensor:
#      x y z
#    x 1.888620 0.000000 0.000000 
#    y 0.000000 1.886720 0.000000 
#    z 0.000000 0.000000 1.875370 
# 
# From -- ./inp_files/16390.got.cif
#   From: 2010.03.12/outbox.cif.g09.slc.cpg/sg73_9_cif.got.tgz:16390.got - 2010.04.16 15:25:48.
