data_PCOD8297275
_publ_section_title
;
Structure prediction by ZEFSAII (Michael W. Deem and Ramdas Pophale) SiO2 
 PCOD8297275
Probable space group: I M M A
;
_chemical_formula_sum "Si O2"
_cell_formula_units_Z 80
_cell_length_a 19.147337
_cell_length_b 8.925048
_cell_length_c 27.835731
_cell_angle_alpha 90.000000
_cell_angle_beta 90.000000
_cell_angle_gamma 90.000000
_cell_volume 4756.873173
_symmetry_space_group_name_H-M "I M M A"
_symmetry_group_IT_number 74
_symmetry_cell_setting 'orthorhombic'
loop_
_space_group_symop_operation_xyz
x,y,z
-x,1/2-y,z
x,-y,-z
-x,1/2+y,-z
-x,-y,-z
x,1/2+y,-z
-x,y,z
x,1/2-y,z
1/2+x,1/2+y,1/2+z
1/2-x,-y,1/2+z
1/2+x,1/2-y,1/2-z
1/2-x,y,1/2-z
1/2-x,1/2-y,1/2-z
1/2+x,y,1/2-z
1/2-x,1/2+y,1/2+z
1/2+x,-y,1/2+z
loop_
_atom_site_type_symbol
_atom_site_label
_atom_site_fract_x
_atom_site_fract_y
_atom_site_fract_z
Si Si1 0.817586 0.084646 0.102303
Si Si2 0.825843 0.416784 0.358941
Si Si3 0.919400 0.073996 0.181360
Si Si4 0.707139 0.573628 0.049648
Si Si5 0.828415 0.573152 0.262234
O O1 0.828206 0.250000 0.079011
O O2 0.758585 0.094347 0.144271
O O3 0.887827 0.029769 0.128921
O O4 0.788598 0.971601 0.061224
O O5 0.859116 0.250000 0.361442
O O6 0.843395 0.508730 0.408143
O O7 0.854250 0.501726 0.312316
O O8 0.907890 0.250000 0.191194
O O9 0.000000 0.029343 0.180448
O O10 0.882295 0.978279 0.222067
O O11 0.699628 0.750000 0.046226
O O12 0.683045 0.500000 0.000000
O O13 0.831810 0.750000 0.267659
O O14 0.750000 0.520197 0.250000
#
# Coordination Sequence:
#
# PCOD8297275 Si02
#       5
#    16  16  16  16  16
#     4   8  16  29  44  64  88 118 153 189 231 274
#     4   9  17  28  44  65  88 118 152 189 232 274
#     4  10  20  33  49  68  93 127 162 196 237 283
#     4  10  17  27  44  67  93 119 150 190 238 283
#     4  11  20  29  45  68  93 122 157 194 234 280
#
# _framework density 16.817769999999999
#
# number of rings (size 3 to 8) (size 9 to 14) (size 15 to 20)
#    1.200    1.200    2.000    2.400    0.000    2.000 
#    0.000    0.000    0.000    0.600    0.000    0.000 
#    0.000    0.800    0.000    3.000    0.000    4.600 
#
# Total GULP energy -495534.158082 kJ/mol
# GULP energy per Si atom -12388.353952 kJ/mol
# Density = 1.677949 g / cm^3
# Si number density = 16.817770 Si / 1000 Ang^3
#
#
#
# Elastic Constant Matrix: (Units=GPa)
#
#
# Indices 1 2 3 4 5 6 
#
# 1 10.1980 -9.3261 -21.9995 0.0000 0.0000 0.0000
# 2 -9.3261 92.6958 29.6353 0.0000 0.0000 0.0000
# 3 -21.9995 29.6353 63.5300 0.0000 0.0000 0.0000
# 4 0.0000 0.0000 0.0000 31.8628 0.0000 0.0000
# 5 0.0000 0.0000 0.0000 0.0000 16.0104 0.0000
# 6 0.0000 0.0000 0.0000 0.0000 0.0000 14.3252
#
#
#
# Elastic Compliance Matrix: (Units=1/GPa)
#
#
# Indices 1 2 3 4 5 6 
#
# 1 0.389289 -0.004621 0.136961 0.000000 0.000000 0.000000
# 2 -0.004621 0.012734 -0.007540 0.000000 0.000000 0.000000
# 3 0.136961 -0.007540 0.066685 0.000000 0.000000 0.000000
# 4 0.000000 0.000000 0.000000 0.031385 0.000000 0.000000
# 5 0.000000 0.000000 0.000000 0.000000 0.062459 0.000000
# 6 0.000000 0.000000 0.000000 0.000000 0.000000 0.069807
#
#
# Mechanical properties :
#
#
# Convention : Reuss Voigt Hill
#
# Bulk Modulus (GPa) = 1.39216 18.11590 9.75403
# Shear Modulus (GPa) = 8.03606 23.64729 15.84167
#
# Velocity S-wave (km/s) = 2.18831 3.75385 3.07247
# Velocity P-wave (km/s) = 2.68598 5.43910 4.28942
#
# Compressibility (1/GPa) = 0.71830762
#
# Stress axis : x y z
#
# Youngs Moduli (GPa) = 2.56879 78.53186 14.99578
#
# Poissons Ratio (x) = 0.36288 -2.05383
# Poissons Ratio (y) = 0.01187 0.11307
# Poissons Ratio (z) = -0.35182 0.59214
#
# Static dielectric constant tensor:
#      x y z
#    x 2.720670 0.000000 0.000000 
#    y 0.000000 3.117160 0.000000 
#    z 0.000000 0.000000 3.011160 
# 
# 
# High freq. dielectric constant tensor:
#      x y z
#    x 1.589340 0.000000 0.000000 
#    y 0.000000 1.656210 0.000000 
#    z 0.000000 0.000000 1.642770 
# 
# From -- ./inp_files/72855.got.cif
#   From: 2010.03.12/outbox.cif.g09.slc.cpg/sg74_37_cif.got.tgz:72855.got - 2010.04.16 15:46:19.
