data_PCOD8297032
_publ_section_title
;
Structure prediction by ZEFSAII (Michael W. Deem and Ramdas Pophale) SiO2 
 PCOD8297032
Probable space group: I B C A 
;
_chemical_formula_sum "Si O2"
_cell_formula_units_Z 48
_cell_length_a 8.147773
_cell_length_b 24.399984
_cell_length_c 9.967233
_cell_angle_alpha 90.000000
_cell_angle_beta 90.000000
_cell_angle_gamma 90.000000
_cell_volume 1981.541048
_symmetry_space_group_name_H-M "I B C A "
_symmetry_group_IT_number 73
_symmetry_cell_setting 'orthorhombic'
loop_
_space_group_symop_operation_xyz
x,y,z
-x,1/2-y,z
x,-y,1/2-z
1/2-x,y,-z
-x,-y,-z
x,1/2+y,-z
-x,y,1/2+z
1/2+x,-y,z
1/2+x,1/2+y,1/2+z
1/2-x,-y,1/2+z
1/2+x,1/2-y,-z
-x,1/2+y,1/2-z
1/2-x,1/2-y,1/2-z
1/2+x,y,1/2-z
1/2-x,1/2+y,z
x,1/2-y,1/2+z
loop_
_atom_site_type_symbol
_atom_site_label
_atom_site_fract_x
_atom_site_fract_y
_atom_site_fract_z
Si Si1 0.166211 0.000000 0.250000
Si Si2 0.750000 0.935238 0.000000
Si Si3 0.155659 0.783552 0.136737
Si Si4 0.085788 0.400805 0.912366
O O1 0.271448 0.025963 0.129603
O O2 0.057385 0.049205 0.310093
O O3 0.582043 0.898377 0.002697
O O4 0.250000 0.750000 0.250000
O O5 0.105621 0.845554 0.178370
O O6 0.000000 0.750000 0.094755
O O7 0.250000 0.790485 0.000000
O O8 0.250000 0.410407 0.000000
#
# Coordination Sequence:
#
# PCOD8297032 Si02
#       4
#     8   8  16  16
#     4  12  26  48  76 118 156 206 256 324 392 464
#     4  12  28  46  78 108 164 202 258 318 388 468
#     4  11  27  50  78 111 151 199 259 317 387 461
#     4  11  28  48  75 111 154 201 253 314 390 457
#
# _framework density 24.223569999999999
#
# number of rings (size 3 to 8) (size 9 to 14) (size 15 to 20)
#    0.000    0.667    1.667    3.000   11.667    2.667 
#    0.000    0.000    0.000    0.000    0.000    0.000 
#    0.000    0.000    0.000    0.000    0.000    0.000 
#
# Total GULP energy -297333.889878 kJ/mol
# GULP energy per Si atom -12388.912078 kJ/mol
# Density = 2.416844 g / cm^3
# Si number density = 24.223570 Si / 1000 Ang^3
#
#
#
# Elastic Constant Matrix: (Units=GPa)
#
#
# Indices 1 2 3 4 5 6 
#
# 1 172.2132 67.4401 38.8216 -0.0007 0.0003 0.0004
# 2 67.4401 215.3195 53.0220 -0.0007 0.0001 0.0006
# 3 38.8216 53.0220 105.9848 -0.0124 0.0013 0.0014
# 4 -0.0007 -0.0007 -0.0124 45.8599 -0.0005 0.0008
# 5 0.0003 0.0001 0.0013 -0.0005 11.7316 -0.0025
# 6 0.0004 0.0006 0.0014 0.0008 -0.0025 15.5277
#
#
#
# Elastic Compliance Matrix: (Units=1/GPa)
#
#
# Indices 1 2 3 4 5 6 
#
# 1 0.006860 -0.001745 -0.001640 0.000000 0.000000 0.000000
# 2 -0.001745 0.005741 -0.002233 -0.000001 0.000000 0.000000
# 3 -0.001640 -0.002233 0.011153 0.000003 -0.000001 -0.000001
# 4 0.000000 -0.000001 0.000003 0.021806 0.000001 -0.000001
# 5 0.000000 0.000000 -0.000001 0.000001 0.085240 0.000013
# 6 0.000000 0.000000 -0.000001 -0.000001 0.000013 0.064401
#
#
# Mechanical properties :
#
#
# Convention : Reuss Voigt Hill
#
# Bulk Modulus (GPa) = 79.88140 90.23163 85.05651
# Shear Modulus (GPa) = 23.74087 36.90610 30.32349
#
# Velocity S-wave (km/s) = 3.13401 3.90752 3.54194
# Velocity P-wave (km/s) = 6.79296 7.59530 7.20531
#
# Compressibility (1/GPa) = 0.01251856
#
# Stress axis : x y z
#
# Youngs Moduli (GPa) = 145.77995 174.19960 89.66206
#
# Poissons Ratio (x) = 0.30393 0.14703
# Poissons Ratio (y) = 0.25434 0.20020
# Poissons Ratio (z) = 0.23905 0.38895
#
# Static dielectric constant tensor:
#      x y z
#    x 3.796140 0.000040 -0.000070 
#    y 0.000040 4.798430 -0.000010 
#    z -0.000070 -0.000010 4.236150 
# 
# 
# High freq. dielectric constant tensor:
#      x y z
#    x 1.972550 0.000000 0.000000 
#    y 0.000000 1.976100 0.000000 
#    z 0.000000 0.000000 1.951410 
# 
# From -- ./inp_files/3467.got.cif
#   From: 2010.03.12/outbox.cif.g09.slc.cpg/sg73_2_cif.got.tgz:3467.got - 2010.04.16 15:25:48.
