data_PCOD8297007
_publ_section_title
;
Structure prediction by ZEFSAII (Michael W. Deem and Ramdas Pophale) SiO2 
 PCOD8297007
Probable space group: I B C A 
;
_chemical_formula_sum "Si O2"
_cell_formula_units_Z 80
_cell_length_a 23.928839
_cell_length_b 10.914398
_cell_length_c 13.697739
_cell_angle_alpha 90.000000
_cell_angle_beta 90.000000
_cell_angle_gamma 90.000000
_cell_volume 3577.423051
_symmetry_space_group_name_H-M "I B C A "
_symmetry_group_IT_number 73
_symmetry_cell_setting 'orthorhombic'
loop_
_space_group_symop_operation_xyz
x,y,z
-x,1/2-y,z
x,-y,1/2-z
1/2-x,y,-z
-x,-y,-z
x,1/2+y,-z
-x,y,1/2+z
1/2+x,-y,z
1/2+x,1/2+y,1/2+z
1/2-x,-y,1/2+z
1/2+x,1/2-y,-z
-x,1/2+y,1/2-z
1/2-x,1/2-y,1/2-z
1/2+x,y,1/2-z
1/2-x,1/2+y,z
x,1/2-y,1/2+z
loop_
_atom_site_type_symbol
_atom_site_label
_atom_site_fract_x
_atom_site_fract_y
_atom_site_fract_z
Si Si1 0.820886 0.117611 0.289948
Si Si2 0.631718 0.683643 0.912904
Si Si3 0.044363 0.640078 0.741291
Si Si4 0.858917 0.228705 0.619020
Si Si5 0.281368 0.016512 0.903767
O O1 0.853948 0.178155 0.378989
O O2 0.817334 0.207415 0.196487
O O3 0.855899 0.000000 0.250000
O O4 0.760269 0.065499 0.320819
O O5 0.573933 0.642409 0.864209
O O6 0.682037 0.600021 0.869778
O O7 0.624135 0.679469 0.030405
O O8 0.020005 0.500000 0.750000
O O9 0.087593 0.669935 0.828143
O O10 0.000000 0.750000 0.744963
O O11 0.823924 0.123026 0.566698
O O12 0.250000 0.971920 0.000000
#
# Coordination Sequence:
#
# PCOD8297007 Si02
#       5
#    16  16  16  16  16
#     4  11  26  37  65 102 144 196 235 284 350 442
#     4  11  26  47  68 106 147 189 243 303 362 452
#     4  11  26  52  79 104 141 193 256 327 384 434
#     4  11  25  46  69 105 144 189 246 296 367 448
#     4  12  24  40  67 103 153 193 233 280 359 443
#
# _framework density 22.362466999999999
#
# number of rings (size 3 to 8) (size 9 to 14) (size 15 to 20)
#    0.000    0.800    4.000    1.800   11.200    4.000 
#    0.000    2.000    0.000    0.000    0.000    0.000 
#    0.000    0.000    0.000    0.000    0.000    0.000 
#
# Total GULP energy -495719.432443 kJ/mol
# GULP energy per Si atom -12392.985811 kJ/mol
# Density = 2.231157 g / cm^3
# Si number density = 22.362467 Si / 1000 Ang^3
#
#
#
# Elastic Constant Matrix: (Units=GPa)
#
#
# Indices 1 2 3 4 5 6 
#
# 1 83.2169 53.6867 30.0691 0.0000 0.0000 0.0000
# 2 53.6867 147.3063 34.9678 0.0000 0.0000 0.0000
# 3 30.0691 34.9678 125.6500 0.0000 0.0000 0.0000
# 4 0.0000 0.0000 0.0000 29.5847 0.0000 0.0000
# 5 0.0000 0.0000 0.0000 0.0000 -14.2389 0.0000
# 6 0.0000 0.0000 0.0000 0.0000 0.0000 35.8698
#
#
#
# Elastic Compliance Matrix: (Units=1/GPa)
#
#
# Indices 1 2 3 4 5 6 
#
# 1 0.016369 -0.005392 -0.002417 0.000000 0.000000 0.000000
# 2 -0.005392 0.009045 -0.001227 0.000000 0.000000 0.000000
# 3 -0.002417 -0.001227 0.008878 0.000000 0.000000 0.000000
# 4 0.000000 0.000000 0.000000 0.033801 0.000000 0.000000
# 5 0.000000 0.000000 0.000000 0.000000 -0.070230 0.000000
# 6 0.000000 0.000000 0.000000 0.000000 0.000000 0.027879
#
#
# Mechanical properties :
#
#
# Convention : Reuss Voigt Hill
#
# Bulk Modulus (GPa) = 61.64805 65.95781 63.80293
# Shear Modulus (GPa) = 101.58581 26.07309 63.82945
#
# Velocity S-wave (km/s) = 6.74726 3.41828 5.34837
# Velocity P-wave (km/s) = 9.39831 6.71851 8.16905
#
# Compressibility (1/GPa) = 0.01622111
#
# Stress axis : x y z
#
# Youngs Moduli (GPa) = 61.09272 110.55911 112.63366
#
# Poissons Ratio (x) = 0.59613 0.27219
# Poissons Ratio (y) = 0.32941 0.13818
# Poissons Ratio (z) = 0.14763 0.13564
#
# Static dielectric constant tensor:
#      x y z
#    x 3.690760 0.000000 0.000000 
#    y 0.000000 4.407440 0.000000 
#    z 0.000000 0.000000 3.951640 
# 
# 
# High freq. dielectric constant tensor:
#      x y z
#    x 1.841400 0.000000 0.000000 
#    y 0.000000 1.900990 0.000000 
#    z 0.000000 0.000000 1.894230 
# 
# From -- ./inp_files/19181.got.cif
#   From: 2010.03.12/outbox.cif.g09.slc.cpg/sg73_10_cif.got.tgz:19181.got - 2010.04.16 15:25:48.
