data_PCOD8297458
_publ_section_title
;
Structure prediction by ZEFSAII (Michael W. Deem and Ramdas Pophale) SiO2 
 PCOD8297458
Probable space group: I M M A
;
_chemical_formula_sum "Si O2"
_cell_formula_units_Z 104
_cell_length_a 7.652379
_cell_length_b 22.583538
_cell_length_c 33.606206
_cell_angle_alpha 90.000000
_cell_angle_beta 90.000000
_cell_angle_gamma 90.000000
_cell_volume 5807.750316
_symmetry_space_group_name_H-M "I M M A"
_symmetry_group_IT_number 74
_symmetry_cell_setting 'orthorhombic'
loop_
_space_group_symop_operation_xyz
x,y,z
-x,1/2-y,z
x,-y,-z
-x,1/2+y,-z
-x,-y,-z
x,1/2+y,-z
-x,y,z
x,1/2-y,z
1/2+x,1/2+y,1/2+z
1/2-x,-y,1/2+z
1/2+x,1/2-y,1/2-z
1/2-x,y,1/2-z
1/2-x,1/2-y,1/2-z
1/2+x,y,1/2-z
1/2-x,1/2+y,1/2+z
1/2+x,-y,1/2+z
loop_
_atom_site_type_symbol
_atom_site_label
_atom_site_fract_x
_atom_site_fract_y
_atom_site_fract_z
Si Si1 0.292723 0.861818 0.842916
Si Si2 0.000000 0.819961 0.075006
Si Si3 0.000000 0.820153 0.986646
Si Si4 0.202015 0.819184 0.365811
Si Si5 0.794679 0.750000 0.704065
Si Si6 0.705293 0.470262 0.206163
Si Si7 0.699680 0.819574 0.928281
Si Si8 0.795572 0.898559 0.293651
O O1 0.500000 0.860929 0.838716
O O2 0.213099 0.808118 0.816882
O O3 0.216626 0.923910 0.825964
O O4 0.239682 0.854644 0.888921
O O5 0.176555 0.840129 0.097615
O O6 0.000000 0.750000 0.071151
O O7 0.000000 0.848470 0.030840
O O8 0.174886 0.841095 0.963833
O O9 0.000000 0.750000 0.989662
O O10 0.225927 0.750000 0.356814
O O11 0.273528 0.853485 0.326981
O O12 0.000000 0.834065 0.376163
O O13 0.750000 0.750000 0.750000
O O14 0.000000 0.750000 0.697200
O O15 0.500000 0.474556 0.200563
O O16 0.750000 0.446143 0.250000
O O17 0.788922 0.535873 0.200211
O O18 0.500000 0.834543 0.940160
O O19 0.720289 0.750000 0.919377
O O20 0.750000 0.873446 0.250000
O O21 0.000000 0.903630 0.298190
#
# Coordination Sequence:
#
# PCOD8297458 Si02
#       8
#    16   8   8  16   8  16  16  16
#     4   9  16  28  44  58  86 124 156 197 245 287
#     4   9  18  32  50  73 103 131 153 191 241 289
#     4   9  18  30  46  73  99 119 157 196 238 300
#     4   9  18  32  49  72 101 129 159 190 230 283
#     4  10  18  28  38  58  86 118 160 194 238 296
#     4   9  17  30  44  61  88 120 160 204 238 275
#     4   9  16  29  46  65  91 123 154 195 247 289
#     4   9  18  30  46  68  93 124 161 197 232 273
#
# _framework density 17.907107
#
# number of rings (size 3 to 8) (size 9 to 14) (size 15 to 20)
#    0.000    2.923    0.769    0.462    1.077    0.923 
#    2.769    3.077    0.000    0.000    0.000    2.154 
#    0.000    6.154    0.000    0.000    0.000    0.000 
#
# Total GULP energy -644530.185372 kJ/mol
# GULP energy per Si atom -12394.811257 kJ/mol
# Density = 1.786635 g / cm^3
# Si number density = 17.907107 Si / 1000 Ang^3
#
#
#
# Elastic Constant Matrix: (Units=GPa)
#
#
# Indices 1 2 3 4 5 6 
#
# 1 64.5583 24.3441 54.5285 0.0000 0.0000 0.0000
# 2 24.3441 62.7775 60.0215 0.0000 0.0000 0.0000
# 3 54.5285 60.0215 174.1965 0.0000 0.0000 0.0000
# 4 0.0000 0.0000 0.0000 22.4346 0.0000 0.0000
# 5 0.0000 0.0000 0.0000 0.0000 28.8845 0.0000
# 6 0.0000 0.0000 0.0000 0.0000 0.0000 6.2855
#
#
#
# Elastic Compliance Matrix: (Units=1/GPa)
#
#
# Indices 1 2 3 4 5 6 
#
# 1 0.021388 -0.002823 -0.005722 0.000000 0.000000 0.000000
# 2 -0.002823 0.024128 -0.007430 0.000000 0.000000 0.000000
# 3 -0.005722 -0.007430 0.010092 0.000000 0.000000 0.000000
# 4 0.000000 0.000000 0.000000 0.044574 0.000000 0.000000
# 5 0.000000 0.000000 0.000000 0.000000 0.034621 0.000000
# 6 0.000000 0.000000 0.000000 0.000000 0.000000 0.159096
#
#
# Mechanical properties :
#
#
# Convention : Reuss Voigt Hill
#
# Bulk Modulus (GPa) = 42.27015 64.36895 53.31955
# Shear Modulus (GPa) = 14.98202 22.36346 18.67274
#
# Velocity S-wave (km/s) = 2.89563 3.53775 3.23268
# Velocity P-wave (km/s) = 5.90221 7.26028 6.61618
#
# Compressibility (1/GPa) = 0.02365736
#
# Stress axis : x y z
#
# Youngs Moduli (GPa) = 46.75607 41.44644 99.08887
#
# Poissons Ratio (x) = 0.11699 0.56702
# Poissons Ratio (y) = 0.13198 0.73622
# Poissons Ratio (z) = 0.26755 0.30794
#
# Static dielectric constant tensor:
#      x y z
#    x 3.068510 0.000000 0.000000 
#    y 0.000000 3.480560 0.000000 
#    z 0.000000 0.000000 3.214610 
# 
# 
# High freq. dielectric constant tensor:
#      x y z
#    x 1.689060 0.000000 0.000000 
#    y 0.000000 1.660780 0.000000 
#    z 0.000000 0.000000 1.683130 
# 
# From -- ./inp_files/70847.got.cif
#   From: 2010.03.12/outbox.cif.g09.slc.cpg/sg74_36_cif.got.tgz:70847.got - 2010.04.16 15:46:19.
