data_PCOD8297928
_publ_section_title
;
Structure prediction by ZEFSAII (Michael W. Deem and Ramdas Pophale) SiO2 
 PCOD8297928
Probable space group: I M M A
;
_chemical_formula_sum "Si O2"
_cell_formula_units_Z 72
_cell_length_a 8.563648
_cell_length_b 33.006218
_cell_length_c 14.466571
_cell_angle_alpha 90.000000
_cell_angle_beta 90.000000
_cell_angle_gamma 90.000000
_cell_volume 4089.028847
_symmetry_space_group_name_H-M "I M M A"
_symmetry_group_IT_number 74
_symmetry_cell_setting 'orthorhombic'
loop_
_space_group_symop_operation_xyz
x,y,z
-x,1/2-y,z
x,-y,-z
-x,1/2+y,-z
-x,-y,-z
x,1/2+y,-z
-x,y,z
x,1/2-y,z
1/2+x,1/2+y,1/2+z
1/2-x,-y,1/2+z
1/2+x,1/2-y,1/2-z
1/2-x,y,1/2-z
1/2-x,1/2-y,1/2-z
1/2+x,y,1/2-z
1/2-x,1/2+y,1/2+z
1/2+x,-y,1/2+z
loop_
_atom_site_type_symbol
_atom_site_label
_atom_site_fract_x
_atom_site_fract_y
_atom_site_fract_z
Si Si1 0.684281 0.750000 0.352694
Si Si2 0.682435 0.332216 0.851448
Si Si3 0.318324 0.478511 0.654346
Si Si4 0.180528 0.402338 0.970938
Si Si5 0.815664 0.065302 0.349635
O O1 0.500000 0.750000 0.354454
O O2 0.750000 0.750000 0.250000
O O3 0.746787 0.708549 0.398858
O O4 0.500000 0.326360 0.840239
O O5 0.750000 0.341107 0.750000
O O6 0.718158 0.369283 0.918256
O O7 0.500000 0.489207 0.667337
O O8 0.250000 0.460825 0.750000
O O9 0.290813 0.445934 0.574969
O O10 0.228360 0.519155 0.626219
O O11 0.000000 0.389737 0.966371
O O12 0.237881 0.404686 0.076184
O O13 0.750000 0.077913 0.250000
O O14 0.000000 0.070731 0.351886
#
# Coordination Sequence:
#
# PCOD8297928 Si02
#       5
#     8  16  16  16  16
#     4  10  18  32  52  74 103 138 169 200 242 294
#     4  11  21  34  52  77 107 138 170 204 246 297
#     4  10  20  33  50  71  99 133 168 208 252 300
#     4  11  22  35  51  74 102 132 169 212 255 299
#     4  11  22  36  53  71  95 130 171 214 258 303
#
# _framework density 17.608094000000001
#
# number of rings (size 3 to 8) (size 9 to 14) (size 15 to 20)
#    0.000    1.333    0.000   10.333    0.000    8.000 
#    0.000    0.000    0.000    0.000    0.000    0.778 
#    0.000    0.000    0.000    0.000    0.000    0.000 
#
# Total GULP energy -446502.471957 kJ/mol
# GULP energy per Si atom -12402.846443 kJ/mol
# Density = 1.756802 g / cm^3
# Si number density = 17.608094 Si / 1000 Ang^3
#
#
#
# Elastic Constant Matrix: (Units=GPa)
#
#
# Indices 1 2 3 4 5 6 
#
# 1 124.3036 28.4888 32.7979 -0.0002 0.0000 0.0000
# 2 28.4888 66.2770 42.8019 0.0001 0.0000 0.0000
# 3 32.7979 42.8019 92.3005 0.0005 0.0000 0.0000
# 4 -0.0002 0.0001 0.0005 7.4230 0.0000 0.0000
# 5 0.0000 0.0000 0.0000 0.0000 27.9087 0.0001
# 6 0.0000 0.0000 0.0000 0.0000 0.0001 30.2826
#
#
#
# Elastic Compliance Matrix: (Units=1/GPa)
#
#
# Indices 1 2 3 4 5 6 
#
# 1 0.009187 -0.002628 -0.002046 0.000000 0.000000 0.000000
# 2 -0.002628 0.022290 -0.009403 0.000000 0.000000 0.000000
# 3 -0.002046 -0.009403 0.015921 -0.000001 0.000000 0.000000
# 4 0.000000 0.000000 -0.000001 0.134717 0.000000 0.000000
# 5 0.000000 0.000000 0.000000 0.000000 0.035831 0.000000
# 6 0.000000 0.000000 0.000000 0.000000 0.000000 0.033022
#
#
# Mechanical properties :
#
#
# Convention : Reuss Voigt Hill
#
# Bulk Modulus (GPa) = 51.95962 54.56203 53.26083
# Shear Modulus (GPa) = 17.51090 25.04235 21.27663
#
# Velocity S-wave (km/s) = 3.15696 3.77531 3.47989
# Velocity P-wave (km/s) = 6.54687 7.07517 6.81614
#
# Compressibility (1/GPa) = 0.01924571
#
# Stress axis : x y z
#
# Youngs Moduli (GPa) = 108.85098 44.86336 62.80850
#
# Poissons Ratio (x) = 0.11788 0.12850
# Poissons Ratio (y) = 0.28602 0.59057
# Poissons Ratio (z) = 0.22270 0.42183
#
# Static dielectric constant tensor:
#      x y z
#    x 3.444750 0.000000 0.000000 
#    y 0.000000 3.495750 0.000000 
#    z 0.000000 0.000000 3.273660 
# 
# 
# High freq. dielectric constant tensor:
#      x y z
#    x 1.705470 0.000000 0.000000 
#    y 0.000000 1.665690 0.000000 
#    z 0.000000 0.000000 1.661320 
# 
# From -- ./inp_files/29411.got.cif
#   From: 2010.03.12/outbox.cif.g09.slc.cpg/sg74_15_cif.got.tgz:29411.got - 2010.04.16 15:46:19.
