data_PCOD8297876
_publ_section_title
;
Structure prediction by ZEFSAII (Michael W. Deem and Ramdas Pophale) SiO2 
 PCOD8297876
Probable space group: I M M A
;
_chemical_formula_sum "Si O2"
_cell_formula_units_Z 96
_cell_length_a 21.686538
_cell_length_b 19.285666
_cell_length_c 12.260107
_cell_angle_alpha 90.000000
_cell_angle_beta 90.000000
_cell_angle_gamma 90.000000
_cell_volume 5127.658920
_symmetry_space_group_name_H-M "I M M A"
_symmetry_group_IT_number 74
_symmetry_cell_setting 'orthorhombic'
loop_
_space_group_symop_operation_xyz
x,y,z
-x,1/2-y,z
x,-y,-z
-x,1/2+y,-z
-x,-y,-z
x,1/2+y,-z
-x,y,z
x,1/2-y,z
1/2+x,1/2+y,1/2+z
1/2-x,-y,1/2+z
1/2+x,1/2-y,1/2-z
1/2-x,y,1/2-z
1/2-x,1/2-y,1/2-z
1/2+x,y,1/2-z
1/2-x,1/2+y,1/2+z
1/2+x,-y,1/2+z
loop_
_atom_site_type_symbol
_atom_site_label
_atom_site_fract_x
_atom_site_fract_y
_atom_site_fract_z
Si Si1 0.931663 0.410495 0.193827
Si Si2 0.880443 0.671918 0.618756
Si Si3 0.853974 0.920218 0.005433
Si Si4 0.570676 0.428216 0.715051
Si Si5 0.929294 0.569827 0.451058
Si Si6 0.257454 0.328932 0.374399
O O1 0.884208 0.363726 0.262325
O O2 0.914112 0.407308 0.067458
O O3 0.928236 0.489426 0.230423
O O4 0.000000 0.380111 0.209450
O O5 0.904625 0.750000 0.629016
O O6 0.924207 0.632233 0.535412
O O7 0.810759 0.669379 0.574362
O O8 0.798658 0.873581 0.958039
O O9 0.878998 0.901346 0.126548
O O10 0.831697 0.000000 0.000000
O O11 0.500000 0.403709 0.687295
O O12 0.595777 0.403307 0.833517
O O13 0.896583 0.500000 0.500000
O O14 0.000000 0.550826 0.429800
O O15 0.283449 0.250000 0.369570
O O16 0.250000 0.357843 0.250000
#
# Coordination Sequence:
#
# PCOD8297876 Si02
#       6
#    16  16  16  16  16  16
#     4  10  18  31  54  83 115 142 174 228 289 349
#     4  11  22  35  55  82 110 148 196 241 284 332
#     4  10  20  35  56  88 114 144 189 236 285 340
#     4   9  18  34  56  83 115 150 183 224 291 354
#     4  10  19  34  56  81 113 153 191 235 291 345
#     4  10  21  39  58  76 108 155 196 237 289 339
#
# _framework density 18.721993000000001
#
# number of rings (size 3 to 8) (size 9 to 14) (size 15 to 20)
#    0.000    2.000    3.333    1.000    0.000    4.000 
#    0.000    1.667    0.000    4.500    0.000    0.000 
#    0.000    0.000    0.000    0.000    0.000    0.000 
#
# Total GULP energy -594833.479873 kJ/mol
# GULP energy per Si atom -12392.364164 kJ/mol
# Density = 1.867938 g / cm^3
# Si number density = 18.721993 Si / 1000 Ang^3
#
#
#
# Elastic Constant Matrix: (Units=GPa)
#
#
# Indices 1 2 3 4 5 6 
#
# 1 64.5091 31.9621 27.5443 0.0000 0.0000 0.0000
# 2 31.9621 77.0516 45.7021 0.0000 0.0000 0.0000
# 3 27.5443 45.7021 132.7933 0.0000 0.0000 0.0000
# 4 0.0000 0.0000 0.0000 24.4441 0.0000 0.0000
# 5 0.0000 0.0000 0.0000 0.0000 33.9664 0.0000
# 6 0.0000 0.0000 0.0000 0.0000 0.0000 21.4953
#
#
#
# Elastic Compliance Matrix: (Units=1/GPa)
#
#
# Indices 1 2 3 4 5 6 
#
# 1 0.019781 -0.007252 -0.001607 0.000000 0.000000 0.000000
# 2 -0.007252 0.018966 -0.005023 0.000000 0.000000 0.000000
# 3 -0.001607 -0.005023 0.009593 0.000000 0.000000 0.000000
# 4 0.000000 0.000000 0.000000 0.040910 0.000000 0.000000
# 5 0.000000 0.000000 0.000000 0.000000 0.029441 0.000000
# 6 0.000000 0.000000 0.000000 0.000000 0.000000 0.046522
#
#
# Mechanical properties :
#
#
# Convention : Reuss Voigt Hill
#
# Bulk Modulus (GPa) = 48.60292 53.86342 51.23317
# Shear Modulus (GPa) = 25.02059 27.25751 26.13905
#
# Velocity S-wave (km/s) = 3.65968 3.81978 3.74059
# Velocity P-wave (km/s) = 6.62378 6.94887 6.78827
#
# Compressibility (1/GPa) = 0.02057490
#
# Stress axis : x y z
#
# Youngs Moduli (GPa) = 50.55315 52.72586 104.24719
#
# Poissons Ratio (x) = 0.38238 0.16754
# Poissons Ratio (y) = 0.36662 0.52364
# Poissons Ratio (z) = 0.08124 0.26485
#
# Static dielectric constant tensor:
#      x y z
#    x 3.294800 0.000000 0.000000 
#    y 0.000000 3.238640 0.000000 
#    z 0.000000 0.000000 3.577830 
# 
# 
# High freq. dielectric constant tensor:
#      x y z
#    x 1.713930 0.000000 0.000000 
#    y 0.000000 1.700360 0.000000 
#    z 0.000000 0.000000 1.733800 
# 
# From -- ./inp_files/22484.got.cif
#   From: 2010.03.12/outbox.cif.g09.slc.cpg/sg74_12_cif.got.tgz:22484.got - 2010.04.16 15:46:19.
