data_PCOD8297004
_publ_section_title
;
Structure prediction by ZEFSAII (Michael W. Deem and Ramdas Pophale) SiO2 
 PCOD8297004
Probable space group: I B C A 
;
_chemical_formula_sum "Si O2"
_cell_formula_units_Z 72
_cell_length_a 19.165126
_cell_length_b 17.330625
_cell_length_c 9.476738
_cell_angle_alpha 90.000000
_cell_angle_beta 90.000000
_cell_angle_gamma 90.000000
_cell_volume 3147.637987
_symmetry_space_group_name_H-M "I B C A "
_symmetry_group_IT_number 73
_symmetry_cell_setting 'orthorhombic'
loop_
_space_group_symop_operation_xyz
x,y,z
-x,1/2-y,z
x,-y,1/2-z
1/2-x,y,-z
-x,-y,-z
x,1/2+y,-z
-x,y,1/2+z
1/2+x,-y,z
1/2+x,1/2+y,1/2+z
1/2-x,-y,1/2+z
1/2+x,1/2-y,-z
-x,1/2+y,1/2-z
1/2-x,1/2-y,1/2-z
1/2+x,y,1/2-z
1/2-x,1/2+y,z
x,1/2-y,1/2+z
loop_
_atom_site_type_symbol
_atom_site_label
_atom_site_fract_x
_atom_site_fract_y
_atom_site_fract_z
Si Si1 0.421426 0.163330 0.414530
Si Si2 0.750000 1.000000 0.500000
Si Si3 0.630245 0.074649 0.170750
Si Si4 0.130245 0.074649 0.829251
Si Si5 0.078574 0.163330 0.085470
O O1 0.418431 0.104709 0.545466
O O2 0.366196 0.139911 0.292385
O O3 0.402769 0.250000 0.464662
O O4 0.500000 0.159747 0.352877
O O5 0.705186 0.945536 0.396595
O O6 0.794814 0.054464 0.396596
O O7 0.633804 0.139911 0.292385
O O8 0.597397 0.000000 0.250000
O O9 0.097397 0.000000 0.750000
O O10 0.081568 0.104709 0.954534
#
# Coordination Sequence:
#
# PCOD8297004 Si02
#       5
#    16   8  16  16  16
#     4  11  25  45  69 104 142 172 215 279 345 407
#     4  12  26  48  66  96 138 176 236 294 310 384
#     4  12  24  44  73  96 136 182 226 275 336 388
#     4  12  24  44  73  96 136 182 226 275 336 388
#     4  11  25  45  69 104 142 172 215 279 345 407
#
# _framework density 22.874295
#
# number of rings (size 3 to 8) (size 9 to 14) (size 15 to 20)
#    0.000    0.444    4.444    3.333    0.000    8.889 
#    0.000    6.667    0.000    0.000    0.000    0.000 
#    0.000    0.000    0.000    0.000    0.000    0.000 
#
# Total GULP energy -446188.194711 kJ/mol
# GULP energy per Si atom -12394.116520 kJ/mol
# Density = 2.282223 g / cm^3
# Si number density = 22.874295 Si / 1000 Ang^3
#
#
#
# Elastic Constant Matrix: (Units=GPa)
#
#
# Indices 1 2 3 4 5 6 
#
# 1 81.6763 78.5248 57.1854 0.0000 0.0000 0.0000
# 2 78.5248 137.9584 79.4247 0.0000 0.0000 0.0000
# 3 57.1854 79.4247 179.7782 0.0000 0.0000 0.0000
# 4 0.0000 0.0000 0.0000 50.0562 0.0000 0.0000
# 5 0.0000 0.0000 0.0000 0.0000 34.6634 0.0000
# 6 0.0000 0.0000 0.0000 0.0000 0.0000 23.2660
#
#
#
# Elastic Compliance Matrix: (Units=1/GPa)
#
#
# Indices 1 2 3 4 5 6 
#
# 1 0.027847 -0.014418 -0.002488 0.000000 0.000000 0.000000
# 2 -0.014418 0.017186 -0.003006 0.000000 0.000000 0.000000
# 3 -0.002488 -0.003006 0.007682 0.000000 0.000000 0.000000
# 4 0.000000 0.000000 0.000000 0.019978 0.000000 0.000000
# 5 0.000000 0.000000 0.000000 0.000000 0.028849 0.000000
# 6 0.000000 0.000000 0.000000 0.000000 0.000000 0.042981
#
#
# Mechanical properties :
#
#
# Convention : Reuss Voigt Hill
#
# Bulk Modulus (GPa) = 77.57839 92.18697 84.88268
# Shear Modulus (GPa) = 26.50489 33.88232 30.19361
#
# Velocity S-wave (km/s) = 3.40769 3.85286 3.63709
# Velocity P-wave (km/s) = 7.03362 7.75769 7.40451
#
# Compressibility (1/GPa) = 0.01289019
#
# Stress axis : x y z
#
# Youngs Moduli (GPa) = 35.91039 58.18695 130.17292
#
# Poissons Ratio (x) = 0.83893 0.32389
# Poissons Ratio (y) = 0.51775 0.39136
# Poissons Ratio (z) = 0.08935 0.17494
#
# Static dielectric constant tensor:
#      x y z
#    x 3.751830 0.000000 0.000000 
#    y 0.000000 4.384780 0.000000 
#    z 0.000000 0.000000 4.504070 
# 
# 
# High freq. dielectric constant tensor:
#      x y z
#    x 1.868270 0.000000 0.000000 
#    y 0.000000 1.906680 0.000000 
#    z 0.000000 0.000000 1.929970 
# 
# From -- ./inp_files/6013.got.cif
#   From: 2010.03.12/outbox.cif.g09.slc.cpg/sg73_4_cif.got.tgz:6013.got - 2010.04.16 15:25:48.
