data_PCOD8297641
_publ_section_title
;
Structure prediction by ZEFSAII (Michael W. Deem and Ramdas Pophale) SiO2 
 PCOD8297641
Probable space group: I M M A
;
_chemical_formula_sum "Si O2"
_cell_formula_units_Z 88
_cell_length_a 8.800023
_cell_length_b 21.094928
_cell_length_c 32.223295
_cell_angle_alpha 90.000000
_cell_angle_beta 90.000000
_cell_angle_gamma 90.000000
_cell_volume 5981.798808
_symmetry_space_group_name_H-M "I M M A"
_symmetry_group_IT_number 74
_symmetry_cell_setting 'orthorhombic'
loop_
_space_group_symop_operation_xyz
x,y,z
-x,1/2-y,z
x,-y,-z
-x,1/2+y,-z
-x,-y,-z
x,1/2+y,-z
-x,y,z
x,1/2-y,z
1/2+x,1/2+y,1/2+z
1/2-x,-y,1/2+z
1/2+x,1/2-y,1/2-z
1/2-x,y,1/2-z
1/2-x,1/2-y,1/2-z
1/2+x,y,1/2-z
1/2-x,1/2+y,1/2+z
1/2+x,-y,1/2+z
loop_
_atom_site_type_symbol
_atom_site_label
_atom_site_fract_x
_atom_site_fract_y
_atom_site_fract_z
Si Si1 0.821457 0.068754 0.370846
Si Si2 0.681970 0.750000 0.795627
Si Si3 0.671136 0.398153 0.496891
Si Si4 0.321032 0.320659 0.068255
Si Si5 0.819574 0.622180 0.795144
Si Si6 0.172002 0.986559 0.066378
O O1 0.761905 0.129224 0.397571
O O2 0.730821 0.067502 0.327142
O O3 0.780452 0.003513 0.394826
O O4 0.000000 0.071380 0.362280
O O5 0.500000 0.750000 0.796773
O O6 0.750000 0.750000 0.750000
O O7 0.747111 0.685998 0.815958
O O8 0.500000 0.372873 0.501115
O O9 0.771514 0.341270 0.478247
O O10 0.728652 0.422760 0.542279
O O11 0.678173 0.456713 0.465947
O O12 0.500000 0.319931 0.069240
O O13 0.257697 0.250000 0.078195
O O14 0.750000 0.607808 0.750000
O O15 0.000000 0.627972 0.791035
O O16 0.000000 0.977085 0.082504
#
# Coordination Sequence:
#
# PCOD8297641 Si02
#       6
#    16   8  16  16  16  16
#     4  10  19  29  42  59  77 101 130 164 202 237
#     4  10  18  30  44  56  70  90 120 156 192 234
#     4   8  14  25  41  57  74  98 125 156 192 230
#     4   9  18  29  39  55  79 105 129 159 199 235
#     4  11  21  33  45  58  74  97 128 161 201 242
#     4   8  14  26  41  57  76  96 122 158 196 231
#
# _framework density 14.711294000000001
#
# number of rings (size 3 to 8) (size 9 to 14) (size 15 to 20)
#    0.000    2.727    0.000    5.182    1.273    1.818 
#    0.000    3.636    0.000    0.000    0.000    0.000 
#    0.000    0.000    0.000    0.000    0.000    0.909 
#
# Total GULP energy -545155.131963 kJ/mol
# GULP energy per Si atom -12389.889363 kJ/mol
# Density = 1.467781 g / cm^3
# Si number density = 14.711294 Si / 1000 Ang^3
#
#
#
# Elastic Constant Matrix: (Units=GPa)
#
#
# Indices 1 2 3 4 5 6 
#
# 1 71.5404 11.4303 32.5887 0.0000 0.0000 0.0000
# 2 11.4303 21.3474 25.4491 0.0000 0.0000 0.0000
# 3 32.5887 25.4491 80.2255 0.0000 0.0000 0.0000
# 4 0.0000 0.0000 0.0000 21.1029 0.0000 0.0000
# 5 0.0000 0.0000 0.0000 0.0000 23.8264 0.0000
# 6 0.0000 0.0000 0.0000 0.0000 0.0000 17.9662
#
#
#
# Elastic Compliance Matrix: (Units=1/GPa)
#
#
# Indices 1 2 3 4 5 6 
#
# 1 0.017178 -0.001414 -0.006530 0.000000 0.000000 0.000000
# 2 -0.001414 0.075449 -0.023359 0.000000 0.000000 0.000000
# 3 -0.006530 -0.023359 0.022527 0.000000 0.000000 0.000000
# 4 0.000000 0.000000 0.000000 0.047387 0.000000 0.000000
# 5 0.000000 0.000000 0.000000 0.000000 0.041970 0.000000
# 6 0.000000 0.000000 0.000000 0.000000 0.000000 0.055660
#
#
# Mechanical properties :
#
#
# Convention : Reuss Voigt Hill
#
# Bulk Modulus (GPa) = 19.02996 34.67217 26.85106
# Shear Modulus (GPa) = 14.69318 19.48877 17.09097
#
# Velocity S-wave (km/s) = 3.16376 3.64366 3.41216
# Velocity P-wave (km/s) = 5.12928 6.42816 5.81510
#
# Compressibility (1/GPa) = 0.05254872
#
# Stress axis : x y z
#
# Youngs Moduli (GPa) = 58.21252 13.25403 44.39045
#
# Poissons Ratio (x) = 0.01874 0.28985
# Poissons Ratio (y) = 0.08230 1.03694
# Poissons Ratio (z) = 0.38011 0.30961
#
# Static dielectric constant tensor:
#      x y z
#    x 2.848550 0.000000 0.000000 
#    y 0.000000 3.021100 0.000000 
#    z 0.000000 0.000000 2.957380 
# 
# 
# High freq. dielectric constant tensor:
#      x y z
#    x 1.567930 0.000000 0.000000 
#    y 0.000000 1.511230 0.000000 
#    z 0.000000 0.000000 1.547320 
# 
# From -- ./inp_files/70728.got.cif
#   From: 2010.03.12/outbox.cif.g09.slc.cpg/sg74_36_cif.got.tgz:70728.got - 2010.04.16 15:46:19.
