data_PCOD8297531
_publ_section_title
;
Structure prediction by ZEFSAII (Michael W. Deem and Ramdas Pophale) SiO2 
 PCOD8297531
Probable space group: I M M A
;
_chemical_formula_sum "Si O2"
_cell_formula_units_Z 80
_cell_length_a 8.818226
_cell_length_b 24.874758
_cell_length_c 20.737848
_cell_angle_alpha 90.000000
_cell_angle_beta 90.000000
_cell_angle_gamma 90.000000
_cell_volume 4548.872627
_symmetry_space_group_name_H-M "I M M A"
_symmetry_group_IT_number 74
_symmetry_cell_setting 'orthorhombic'
loop_
_space_group_symop_operation_xyz
x,y,z
-x,1/2-y,z
x,-y,-z
-x,1/2+y,-z
-x,-y,-z
x,1/2+y,-z
-x,y,z
x,1/2-y,z
1/2+x,1/2+y,1/2+z
1/2-x,-y,1/2+z
1/2+x,1/2-y,1/2-z
1/2-x,y,1/2-z
1/2-x,1/2-y,1/2-z
1/2+x,y,1/2-z
1/2-x,1/2+y,1/2+z
1/2+x,-y,1/2+z
loop_
_atom_site_type_symbol
_atom_site_label
_atom_site_fract_x
_atom_site_fract_y
_atom_site_fract_z
Si Si1 0.673442 0.750000 0.997076
Si Si2 0.822015 0.640221 0.366406
Si Si3 0.821344 0.968479 0.938387
Si Si4 0.180104 0.965994 0.183950
Si Si5 0.328348 0.866146 0.982650
Si Si6 0.822361 0.250000 0.869849
O O1 0.500000 0.750000 0.026471
O O2 0.695281 0.695131 0.955941
O O3 0.795670 0.750000 0.053611
O O4 0.738144 0.594136 0.326969
O O5 0.784784 0.632811 0.442002
O O6 0.755707 0.696721 0.340427
O O7 0.000000 0.637879 0.352461
O O8 0.776041 0.905967 0.941562
O O9 0.000000 0.973041 0.939712
O O10 0.758991 0.995435 0.873175
O O11 0.751623 0.000000 0.000000
O O12 0.250000 0.988857 0.250000
O O13 0.000000 0.965912 0.188076
O O14 0.500000 0.885261 0.972682
O O15 0.000000 0.250000 0.854415
#
# Coordination Sequence:
#
# PCOD8297531 Si02
#       6
#     8  16  16  16  16   8
#     4   8  16  30  44  71 108 137 166 209 259 305
#     4  10  19  33  51  73 102 136 174 216 258 304
#     4  10  20  34  52  76 106 134 169 216 259 303
#     4  11  23  38  54  74 103 138 173 214 261 310
#     4   9  17  29  50  76 104 135 170 209 252 304
#     4  10  18  28  47  73 100 135 175 215 257 301
#
# _framework density 17.586776
#
# number of rings (size 3 to 8) (size 9 to 14) (size 15 to 20)
#    0.000    2.200    2.000    3.300    0.000    5.200 
#    0.000    0.500    0.000    0.000    0.000    0.700 
#    0.000    0.000    0.000    0.000    0.000    0.000 
#
# Total GULP energy -495912.138518 kJ/mol
# GULP energy per Si atom -12397.803463 kJ/mol
# Density = 1.754675 g / cm^3
# Si number density = 17.586776 Si / 1000 Ang^3
#
#
#
# Elastic Constant Matrix: (Units=GPa)
#
#
# Indices 1 2 3 4 5 6 
#
# 1 57.8468 23.9907 31.1833 0.0000 0.0000 0.0000
# 2 23.9907 115.8176 52.1606 0.0000 0.0000 0.0000
# 3 31.1833 52.1606 90.3220 0.0000 0.0000 0.0000
# 4 0.0000 0.0000 0.0000 13.5573 0.0000 0.0000
# 5 0.0000 0.0000 0.0000 0.0000 21.8098 0.0000
# 6 0.0000 0.0000 0.0000 0.0000 0.0000 33.2041
#
#
#
# Elastic Compliance Matrix: (Units=1/GPa)
#
#
# Indices 1 2 3 4 5 6 
#
# 1 0.021430 -0.001496 -0.006535 0.000000 0.000000 0.000000
# 2 -0.001496 0.011774 -0.006283 0.000000 0.000000 0.000000
# 3 -0.006535 -0.006283 0.016956 0.000000 0.000000 0.000000
# 4 0.000000 0.000000 0.000000 0.073761 0.000000 0.000000
# 5 0.000000 0.000000 0.000000 0.000000 0.045851 0.000000
# 6 0.000000 0.000000 0.000000 0.000000 0.000000 0.030117
#
#
# Mechanical properties :
#
#
# Convention : Reuss Voigt Hill
#
# Bulk Modulus (GPa) = 46.44111 53.18396 49.81254
# Shear Modulus (GPa) = 21.21405 24.15770 22.68587
#
# Velocity S-wave (km/s) = 3.47688 3.71027 3.59547
# Velocity P-wave (km/s) = 6.52552 6.97577 6.75440
#
# Compressibility (1/GPa) = 0.02153265
#
# Stress axis : x y z
#
# Youngs Moduli (GPa) = 46.66331 84.93481 58.97669
#
# Poissons Ratio (x) = 0.12707 0.38539
# Poissons Ratio (y) = 0.06981 0.37054
# Poissons Ratio (z) = 0.30493 0.53363
#
# Static dielectric constant tensor:
#      x y z
#    x 3.170000 0.000000 0.000000 
#    y 0.000000 3.496270 0.000000 
#    z 0.000000 0.000000 3.026590 
# 
# 
# High freq. dielectric constant tensor:
#      x y z
#    x 1.681930 0.000000 0.000000 
#    y 0.000000 1.690110 0.000000 
#    z 0.000000 0.000000 1.629890 
# 
# From -- ./inp_files/39796.got.cif
#   From: 2010.03.12/outbox.cif.g09.slc.cpg/sg74_20_cif.got.tgz:39796.got - 2010.04.16 15:46:19.
