data_PCOD8297236
_publ_section_title
;
Structure prediction by ZEFSAII (Michael W. Deem and Ramdas Pophale) SiO2 
 PCOD8297236
Probable space group: I M M A
;
_chemical_formula_sum "Si O2"
_cell_formula_units_Z 72
_cell_length_a 34.256580
_cell_length_b 7.590320
_cell_length_c 21.202767
_cell_angle_alpha 90.000000
_cell_angle_beta 90.000000
_cell_angle_gamma 90.000000
_cell_volume 5513.109642
_symmetry_space_group_name_H-M "I M M A"
_symmetry_group_IT_number 74
_symmetry_cell_setting 'orthorhombic'
loop_
_space_group_symop_operation_xyz
x,y,z
-x,1/2-y,z
x,-y,-z
-x,1/2+y,-z
-x,-y,-z
x,1/2+y,-z
-x,y,z
x,1/2-y,z
1/2+x,1/2+y,1/2+z
1/2-x,-y,1/2+z
1/2+x,1/2-y,1/2-z
1/2-x,y,1/2-z
1/2-x,1/2-y,1/2-z
1/2+x,y,1/2-z
1/2-x,1/2+y,1/2+z
1/2+x,-y,1/2+z
loop_
_atom_site_type_symbol
_atom_site_label
_atom_site_fract_x
_atom_site_fract_y
_atom_site_fract_z
Si Si1 0.657020 0.046390 0.349760
Si Si2 0.312235 0.750000 0.269402
Si Si3 0.765968 0.750000 0.349161
Si Si4 0.583802 0.957170 0.572702
Si Si5 0.000000 0.456086 0.072523
Si Si6 0.234726 0.550029 0.927550
O O1 0.653055 0.250000 0.328397
O O2 0.618277 0.969312 0.383477
O O3 0.691743 0.022313 0.399580
O O4 0.664208 0.926908 0.288070
O O5 0.271358 0.750000 0.304767
O O6 0.304868 0.750000 0.194077
O O7 0.765804 0.575402 0.392482
O O8 0.583315 0.750000 0.579778
O O9 0.541552 0.034253 0.597640
O O10 0.592074 0.000000 0.500000
O O11 0.000000 0.250000 0.085024
O O12 0.000000 0.500000 0.000000
O O13 0.249116 0.750000 0.918349
O O14 0.232474 0.500000 0.000000
#
# Coordination Sequence:
#
# PCOD8297236 Si02
#       6
#    16   8   8  16   8  16
#     4   9  18  27  38  55  72  94 124 158 187 221
#     4   9  18  30  42  51  72  96 122 149 187 230
#     4   9  18  30  40  56  72  95 118 148 189 229
#     4   9  16  24  35  51  70  93 122 156 195 227
#     4   8  14  24  34  46  68  94 118 150 190 227
#     4  10  17  26  40  57  76  93 116 152 192 226
#
# _framework density 13.059779000000001
#
# number of rings (size 3 to 8) (size 9 to 14) (size 15 to 20)
#    0.000    2.889    1.111    0.667    1.556    0.889 
#    0.000    4.444    0.000    0.000    0.000    0.000 
#    0.000    0.000    0.000    0.000    0.000    0.000 
#
# Total GULP energy -445983.062896 kJ/mol
# GULP energy per Si atom -12388.418414 kJ/mol
# Density = 1.303005 g / cm^3
# Si number density = 13.059779 Si / 1000 Ang^3
#
#
#
# Elastic Constant Matrix: (Units=GPa)
#
#
# Indices 1 2 3 4 5 6 
#
# 1 72.0467 34.3832 42.8957 0.0000 0.0000 0.0000
# 2 34.3832 77.5099 38.2579 0.0000 0.0000 0.0000
# 3 42.8957 38.2579 55.6610 0.0000 0.0000 0.0000
# 4 0.0000 0.0000 0.0000 17.8122 0.0000 0.0000
# 5 0.0000 0.0000 0.0000 0.0000 21.8953 0.0000
# 6 0.0000 0.0000 0.0000 0.0000 0.0000 7.2193
#
#
#
# Elastic Compliance Matrix: (Units=1/GPa)
#
#
# Indices 1 2 3 4 5 6 
#
# 1 0.025961 -0.002484 -0.018300 0.000000 0.000000 0.000000
# 2 -0.002484 0.019764 -0.011670 0.000000 0.000000 0.000000
# 3 -0.018300 -0.011670 0.040090 0.000000 0.000000 0.000000
# 4 0.000000 0.000000 0.000000 0.056141 0.000000 0.000000
# 5 0.000000 0.000000 0.000000 0.000000 0.045672 0.000000
# 6 0.000000 0.000000 0.000000 0.000000 0.000000 0.138517
#
#
# Mechanical properties :
#
#
# Convention : Reuss Voigt Hill
#
# Bulk Modulus (GPa) = 47.83035 48.47678 48.15357
# Shear Modulus (GPa) = 12.56216 15.36409 13.96312
#
# Velocity S-wave (km/s) = 3.10481 3.43365 3.27336
# Velocity P-wave (km/s) = 7.03966 7.27459 7.15809
#
# Compressibility (1/GPa) = 0.02090723
#
# Stress axis : x y z
#
# Youngs Moduli (GPa) = 38.52003 50.59817 24.94376
#
# Poissons Ratio (x) = 0.12566 0.45646
# Poissons Ratio (y) = 0.09567 0.29110
# Poissons Ratio (z) = 0.70491 0.59050
#
# Static dielectric constant tensor:
#      x y z
#    x 2.967480 0.000000 0.000000 
#    y 0.000000 2.766890 0.000000 
#    z 0.000000 0.000000 2.434200 
# 
# 
# High freq. dielectric constant tensor:
#      x y z
#    x 1.474700 0.000000 0.000000 
#    y 0.000000 1.511790 0.000000 
#    z 0.000000 0.000000 1.451540 
# 
# From -- ./inp_files/46458.got.cif
#   From: 2010.03.12/outbox.cif.g09.slc.cpg/sg74_24_cif.got.tgz:46458.got - 2010.04.16 15:46:19.
