data_PCOD8297280
_publ_section_title
;
Structure prediction by ZEFSAII (Michael W. Deem and Ramdas Pophale) SiO2 
 PCOD8297280
Probable space group: I M M A
;
_chemical_formula_sum "Si O2"
_cell_formula_units_Z 80
_cell_length_a 18.191273
_cell_length_b 8.505334
_cell_length_c 26.197731
_cell_angle_alpha 90.000000
_cell_angle_beta 90.000000
_cell_angle_gamma 90.000000
_cell_volume 4053.387676
_symmetry_space_group_name_H-M "I M M A"
_symmetry_group_IT_number 74
_symmetry_cell_setting 'orthorhombic'
loop_
_space_group_symop_operation_xyz
x,y,z
-x,1/2-y,z
x,-y,-z
-x,1/2+y,-z
-x,-y,-z
x,1/2+y,-z
-x,y,z
x,1/2-y,z
1/2+x,1/2+y,1/2+z
1/2-x,-y,1/2+z
1/2+x,1/2-y,1/2-z
1/2-x,y,1/2-z
1/2-x,1/2-y,1/2-z
1/2+x,y,1/2-z
1/2-x,1/2+y,1/2+z
1/2+x,-y,1/2+z
loop_
_atom_site_type_symbol
_atom_site_label
_atom_site_fract_x
_atom_site_fract_y
_atom_site_fract_z
Si Si1 0.680071 0.434252 0.346101
Si Si2 0.813609 0.065290 0.949796
Si Si3 0.651330 0.566508 0.948026
Si Si4 0.659583 0.432345 0.844280
Si Si5 0.415370 0.431632 0.250795
O O1 0.670450 0.250000 0.354682
O O2 0.647264 0.522849 0.396313
O O3 0.764997 0.473271 0.335377
O O4 0.632568 0.492869 0.298237
O O5 0.799746 0.250000 0.954286
O O6 0.737655 0.969719 0.948934
O O7 0.857434 0.000000 0.000000
O O8 0.636002 0.750000 0.944898
O O9 0.619307 0.485117 0.896926
O O10 0.614025 0.500000 0.000000
O O11 0.679522 0.250000 0.847522
O O12 0.604049 0.465678 0.798464
O O13 0.500000 0.457717 0.264836
O O14 0.397905 0.250000 0.238748
#
# Coordination Sequence:
#
# PCOD8297280 Si02
#       5
#    16  16  16  16  16
#     4  10  19  33  54  78 104 135 172 213 257 305
#     4  10  17  27  45  72 105 135 166 206 253 303
#     4  10  17  28  47  73 105 136 168 207 253 302
#     4  11  21  33  52  79 108 137 172 212 254 303
#     4  10  22  39  56  74 100 136 175 215 261 310
#
# _framework density 19.736578000000002
#
# number of rings (size 3 to 8) (size 9 to 14) (size 15 to 20)
#    0.000    1.800    0.000   10.200    0.000    4.400 
#    0.000    0.000    0.000    1.200    0.000    0.000 
#    0.000    0.000    0.000    0.000    0.000    0.000 
#
# Total GULP energy -495915.929103 kJ/mol
# GULP energy per Si atom -12397.898228 kJ/mol
# Density = 1.969166 g / cm^3
# Si number density = 19.736578 Si / 1000 Ang^3
#
#
#
# Elastic Constant Matrix: (Units=GPa)
#
#
# Indices 1 2 3 4 5 6 
#
# 1 31.3252 5.4641 20.9007 0.0000 0.0000 0.0000
# 2 5.4641 80.1139 39.6512 0.0000 0.0000 0.0000
# 3 20.9007 39.6512 163.1372 0.0000 0.0000 0.0000
# 4 0.0000 0.0000 0.0000 38.9392 0.0000 0.0000
# 5 0.0000 0.0000 0.0000 0.0000 2.1786 0.0000
# 6 0.0000 0.0000 0.0000 0.0000 0.0000 10.3475
#
#
#
# Elastic Compliance Matrix: (Units=1/GPa)
#
#
# Indices 1 2 3 4 5 6 
#
# 1 0.034910 -0.000190 -0.004426 0.000000 0.000000 0.000000
# 2 -0.000190 0.014190 -0.003425 0.000000 0.000000 0.000000
# 3 -0.004426 -0.003425 0.007529 0.000000 0.000000 0.000000
# 4 0.000000 0.000000 0.000000 0.025681 0.000000 0.000000
# 5 0.000000 0.000000 0.000000 0.000000 0.459003 0.000000
# 6 0.000000 0.000000 0.000000 0.000000 0.000000 0.096642
#
#
# Mechanical properties :
#
#
# Convention : Reuss Voigt Hill
#
# Bulk Modulus (GPa) = 24.66284 45.17870 34.92077
# Shear Modulus (GPa) = 7.49004 24.19710 15.84357
#
# Velocity S-wave (km/s) = 1.95019 3.50523 2.83636
# Velocity P-wave (km/s) = 4.19454 6.27078 5.33464
#
# Compressibility (1/GPa) = 0.04054682
#
# Stress axis : x y z
#
# Youngs Moduli (GPa) = 28.64532 70.47137 132.81513
#
# Poissons Ratio (x) = 0.01341 0.58788
# Poissons Ratio (y) = 0.00545 0.45484
# Poissons Ratio (z) = 0.12679 0.24134
#
# Static dielectric constant tensor:
#      x y z
#    x 2.971180 0.000000 0.000000 
#    y 0.000000 3.557830 0.000000 
#    z 0.000000 0.000000 4.675180 
# 
# 
# High freq. dielectric constant tensor:
#      x y z
#    x 1.695450 0.000000 0.000000 
#    y 0.000000 1.779030 0.000000 
#    z 0.000000 0.000000 1.803720 
# 
# From -- ./inp_files/67521.got.cif
#   From: 2010.03.12/outbox.cif.g09.slc.cpg/sg74_34_cif.got.tgz:67521.got - 2010.04.16 15:46:19.
