data_PCOD8297059
_publ_section_title
;
Structure prediction by ZEFSAII (Michael W. Deem and Ramdas Pophale) SiO2 
 PCOD8297059
Probable space group: I B C A 
;
_chemical_formula_sum "Si O2"
_cell_formula_units_Z 56
_cell_length_a 24.239394
_cell_length_b 17.993541
_cell_length_c 4.942429
_cell_angle_alpha 90.000000
_cell_angle_beta 90.000000
_cell_angle_gamma 90.000000
_cell_volume 2155.652911
_symmetry_space_group_name_H-M "I B C A "
_symmetry_group_IT_number 73
_symmetry_cell_setting 'orthorhombic'
loop_
_space_group_symop_operation_xyz
x,y,z
-x,1/2-y,z
x,-y,1/2-z
1/2-x,y,-z
-x,-y,-z
x,1/2+y,-z
-x,y,1/2+z
1/2+x,-y,z
1/2+x,1/2+y,1/2+z
1/2-x,-y,1/2+z
1/2+x,1/2-y,-z
-x,1/2+y,1/2-z
1/2-x,1/2-y,1/2-z
1/2+x,y,1/2-z
1/2-x,1/2+y,z
x,1/2-y,1/2+z
loop_
_atom_site_type_symbol
_atom_site_label
_atom_site_fract_x
_atom_site_fract_y
_atom_site_fract_z
Si Si1 0.111620 0.000000 0.750000
Si Si2 0.037423 0.615793 0.027404
Si Si3 0.194474 0.578082 0.622983
Si Si4 0.358887 0.702795 0.041001
O O1 0.074640 0.959347 0.519723
O O2 0.147321 0.064903 0.604424
O O3 0.014691 0.616837 0.332309
O O4 0.075592 0.686195 0.954579
O O5 0.211745 0.500000 0.750000
O O6 0.250000 0.613836 0.500000
O O7 0.174440 0.630279 0.867399
O O8 0.343632 0.772030 0.237252
#
# Coordination Sequence:
#
# PCOD8297059 Si02
#       4
#     8  16  16  16
#     4  12  24  46  74 116 162 198 268 342 402 466
#     4  12  26  45  76 111 153 205 259 319 389 469
#     4  12  26  48  81 114 154 210 271 331 407 483
#     4  12  28  50  75 112 160 205 257 325 395 474
#
# _framework density 25.978207999999999
#
# number of rings (size 3 to 8) (size 9 to 14) (size 15 to 20)
#    0.000    0.000    4.286    6.000    0.000    4.571 
#    0.000    0.000    0.000    0.000    0.000    0.000 
#    0.000    0.000    0.000    0.000    0.000    0.000 
#
# Total GULP energy -347334.861361 kJ/mol
# GULP energy per Si atom -12404.816477 kJ/mol
# Density = 2.591908 g / cm^3
# Si number density = 25.978208 Si / 1000 Ang^3
#
#
#
# Elastic Constant Matrix: (Units=GPa)
#
#
# Indices 1 2 3 4 5 6 
#
# 1 111.1427 21.9633 32.2008 0.0000 0.0000 0.0000
# 2 21.9633 88.8462 17.0277 0.0000 0.0000 0.0000
# 3 32.2008 17.0277 102.8218 0.0000 0.0000 0.0000
# 4 0.0000 0.0000 0.0000 56.5526 0.0000 0.0000
# 5 0.0000 0.0000 0.0000 0.0000 47.8908 0.0000
# 6 0.0000 0.0000 0.0000 0.0000 0.0000 213.9928
#
#
#
# Elastic Compliance Matrix: (Units=1/GPa)
#
#
# Indices 1 2 3 4 5 6 
#
# 1 0.010220 -0.001976 -0.002874 0.000000 0.000000 0.000000
# 2 -0.001976 0.012006 -0.001370 0.000000 0.000000 0.000000
# 3 -0.002874 -0.001370 0.010852 0.000000 0.000000 0.000000
# 4 0.000000 0.000000 0.000000 0.017683 0.000000 0.000000
# 5 0.000000 0.000000 0.000000 0.000000 0.020881 0.000000
# 6 0.000000 0.000000 0.000000 0.000000 0.000000 0.004673
#
#
# Mechanical properties :
#
#
# Convention : Reuss Voigt Hill
#
# Bulk Modulus (GPa) = 48.44669 49.46602 48.95636
# Shear Modulus (GPa) = 52.28280 79.12849 65.70565
#
# Velocity S-wave (km/s) = 4.49103 5.52501 5.03463
# Velocity P-wave (km/s) = 6.75144 7.73199 7.25829
#
# Compressibility (1/GPa) = 0.02064125
#
# Stress axis : x y z
#
# Youngs Moduli (GPa) = 97.84331 83.28954 92.14664
#
# Poissons Ratio (x) = 0.16457 0.26479
# Poissons Ratio (y) = 0.19332 0.12620
# Poissons Ratio (z) = 0.28116 0.11407
#
# Static dielectric constant tensor:
#      x y z
#    x 4.644200 0.000000 0.000000 
#    y 0.000000 4.609370 0.000000 
#    z 0.000000 0.000000 4.689120 
# 
# 
# High freq. dielectric constant tensor:
#      x y z
#    x 2.043060 0.000000 0.000000 
#    y 0.000000 2.033930 0.000000 
#    z 0.000000 0.000000 2.047970 
# 
# From -- ./inp_files/1433.got.cif
#   From: 2010.03.12/outbox.cif.g09.slc.cpg/sg73_1_cif.got.tgz:1433.got - 2010.04.16 15:25:48.
