data_PCOD8297079
_publ_section_title
;
Structure prediction by ZEFSAII (Michael W. Deem and Ramdas Pophale) SiO2 
 PCOD8297079
Probable space group: I B C A 
;
_chemical_formula_sum "Si O2"
_cell_formula_units_Z 56
_cell_length_a 19.705942
_cell_length_b 9.688105
_cell_length_c 12.071025
_cell_angle_alpha 90.000000
_cell_angle_beta 90.000000
_cell_angle_gamma 90.000000
_cell_volume 2304.518435
_symmetry_space_group_name_H-M "I B C A "
_symmetry_group_IT_number 73
_symmetry_cell_setting 'orthorhombic'
loop_
_space_group_symop_operation_xyz
x,y,z
-x,1/2-y,z
x,-y,1/2-z
1/2-x,y,-z
-x,-y,-z
x,1/2+y,-z
-x,y,1/2+z
1/2+x,-y,z
1/2+x,1/2+y,1/2+z
1/2-x,-y,1/2+z
1/2+x,1/2-y,-z
-x,1/2+y,1/2-z
1/2-x,1/2-y,1/2-z
1/2+x,y,1/2-z
1/2-x,1/2+y,z
x,1/2-y,1/2+z
loop_
_atom_site_type_symbol
_atom_site_label
_atom_site_fract_x
_atom_site_fract_y
_atom_site_fract_z
Si Si1 0.000000 0.750000 0.388537
Si Si2 0.618241 0.173998 0.558230
Si Si3 0.052117 0.500000 0.250000
Si Si4 0.792726 0.133383 0.812589
Si Si5 0.250000 0.470721 0.500000
O O1 0.062922 0.779864 0.469202
O O2 0.007820 0.619930 0.306786
O O3 0.640729 0.307575 0.627971
O O4 0.595329 0.060773 0.647914
O O5 0.682943 0.122213 0.487681
O O6 0.750000 0.250000 0.750000
O O7 0.821454 0.000000 0.750000
O O8 0.737761 0.069809 0.896111
#
# Coordination Sequence:
#
# PCOD8297079 Si02
#       5
#     8  16   8  16   8
#     4  12  30  56  82 118 158 218 272 332 396 480
#     4  12  27  52  80 121 160 208 269 332 400 476
#     4  12  28  54  84 110 162 214 268 326 406 478
#     4  12  26  47  80 117 161 210 261 328 406 474
#     4  12  26  48  80 118 162 204 262 340 394 474
#
# _framework density 24.300089
#
# number of rings (size 3 to 8) (size 9 to 14) (size 15 to 20)
#    0.000    0.000    2.857    6.000    4.000    2.286 
#    2.571    0.000    0.000    0.000    0.000    0.000 
#    0.000    0.000    0.000    0.000    0.000    0.000 
#
# Total GULP energy -347021.351085 kJ/mol
# GULP energy per Si atom -12393.619682 kJ/mol
# Density = 2.424478 g / cm^3
# Si number density = 24.300089 Si / 1000 Ang^3
#
#
#
# Elastic Constant Matrix: (Units=GPa)
#
#
# Indices 1 2 3 4 5 6 
#
# 1 164.0540 83.1906 74.6210 0.0000 0.0000 0.0000
# 2 83.1906 205.5088 91.6014 0.0000 0.0000 0.0000
# 3 74.6210 91.6014 147.7010 0.0000 0.0000 0.0000
# 4 0.0000 0.0000 0.0000 34.1135 0.0000 0.0000
# 5 0.0000 0.0000 0.0000 0.0000 42.9000 0.0000
# 6 0.0000 0.0000 0.0000 0.0000 0.0000 -14.0342
#
#
#
# Elastic Compliance Matrix: (Units=1/GPa)
#
#
# Indices 1 2 3 4 5 6 
#
# 1 0.008533 -0.002118 -0.002997 0.000000 0.000000 0.000000
# 2 -0.002118 0.007251 -0.003427 0.000000 0.000000 0.000000
# 3 -0.002997 -0.003427 0.010410 0.000000 0.000000 0.000000
# 4 0.000000 0.000000 0.000000 0.029314 0.000000 0.000000
# 5 0.000000 0.000000 0.000000 0.000000 0.023310 0.000000
# 6 0.000000 0.000000 0.000000 0.000000 0.000000 -0.071254
#
#
# Mechanical properties :
#
#
# Convention : Reuss Voigt Hill
#
# Bulk Modulus (GPa) = 109.77792 112.89885 111.33839
# Shear Modulus (GPa) = 180.60892 30.45256 105.53074
#
# Velocity S-wave (km/s) = 8.63051 3.54388 6.59715
# Velocity P-wave (km/s) = 12.02449 7.95654 10.19546
#
# Compressibility (1/GPa) = 0.00910930
#
# Stress axis : x y z
#
# Youngs Moduli (GPa) = 117.19143 137.91610 96.06226
#
# Poissons Ratio (x) = 0.29213 0.28793
# Poissons Ratio (y) = 0.24823 0.32917
# Poissons Ratio (z) = 0.35127 0.47259
#
# Static dielectric constant tensor:
#      x y z
#    x 4.196250 0.000000 0.000000 
#    y 0.000000 4.943510 0.000000 
#    z 0.000000 0.000000 4.841150 
# 
# 
# High freq. dielectric constant tensor:
#      x y z
#    x 1.954340 0.000000 0.000000 
#    y 0.000000 1.994620 0.000000 
#    z 0.000000 0.000000 1.991160 
# 
# From -- ./inp_files/5863.got.cif
#   From: 2010.03.12/outbox.cif.g09.slc.cpg/sg73_3_cif.got.tgz:5863.got - 2010.04.16 15:25:48.
