data_PCOD8297441
_publ_section_title
;
Structure prediction by ZEFSAII (Michael W. Deem and Ramdas Pophale) SiO2 
 PCOD8297441
Probable space group: I M M A
;
_chemical_formula_sum "Si O2"
_cell_formula_units_Z 96
_cell_length_a 28.527815
_cell_length_b 8.874718
_cell_length_c 26.346878
_cell_angle_alpha 90.000000
_cell_angle_beta 90.000000
_cell_angle_gamma 90.000000
_cell_volume 6670.405439
_symmetry_space_group_name_H-M "I M M A"
_symmetry_group_IT_number 74
_symmetry_cell_setting 'orthorhombic'
loop_
_space_group_symop_operation_xyz
x,y,z
-x,1/2-y,z
x,-y,-z
-x,1/2+y,-z
-x,-y,-z
x,1/2+y,-z
-x,y,z
x,1/2-y,z
1/2+x,1/2+y,1/2+z
1/2-x,-y,1/2+z
1/2+x,1/2-y,1/2-z
1/2-x,y,1/2-z
1/2-x,1/2-y,1/2-z
1/2+x,y,1/2-z
1/2-x,1/2+y,1/2+z
1/2+x,-y,1/2+z
loop_
_atom_site_type_symbol
_atom_site_label
_atom_site_fract_x
_atom_site_fract_y
_atom_site_fract_z
Si Si1 0.550832 0.071151 0.900788
Si Si2 0.278559 0.419757 0.698244
Si Si3 0.353883 0.929014 0.052749
Si Si4 0.697965 0.426478 0.145053
Si Si5 0.642333 0.425701 0.246705
Si Si6 0.052885 0.074903 0.714077
O O1 0.500000 0.014053 0.921724
O O2 0.551124 0.250000 0.899402
O O3 0.593291 0.010906 0.935357
O O4 0.557385 0.013228 0.843358
O O5 0.284729 0.250000 0.677790
O O6 0.250000 0.422006 0.750000
O O7 0.250697 0.518691 0.656944
O O8 0.329376 0.492021 0.708341
O O9 0.352106 0.750000 0.049359
O O10 0.318955 0.983216 0.096139
O O11 0.337340 0.000000 0.000000
O O12 0.698402 0.250000 0.133264
O O13 0.663910 0.466552 0.191835
O O14 0.645061 0.250000 0.257640
O O15 0.588725 0.481635 0.248911
O O16 0.066546 0.250000 0.716746
O O17 0.000000 0.048657 0.734159
#
# Coordination Sequence:
#
# PCOD8297441 Si02
#       6
#    16  16  16  16  16  16
#     4   8  15  28  44  58  73  98 133 173 215 256
#     4   9  17  28  44  63  81 103 131 159 197 246
#     4  11  21  32  46  60  78 103 136 173 216 260
#     4  10  19  31  44  60  82 103 129 167 210 250
#     4  10  18  27  42  63  86 106 129 166 207 245
#     4   9  16  27  43  60  79 107 141 172 205 248
#
# _framework density 14.391928
#
# number of rings (size 3 to 8) (size 9 to 14) (size 15 to 20)
#    0.000    2.500    1.667    3.000    0.000    4.000 
#    0.000    0.000    0.000    1.500    0.000    0.000 
#    0.000    0.000    0.000    0.000    0.000    0.833 
#
# Total GULP energy -595100.296394 kJ/mol
# GULP energy per Si atom -12397.922842 kJ/mol
# Density = 1.435917 g / cm^3
# Si number density = 14.391928 Si / 1000 Ang^3
#
#
#
# Elastic Constant Matrix: (Units=GPa)
#
#
# Indices 1 2 3 4 5 6 
#
# 1 83.2527 35.9762 40.9925 0.0000 0.0000 0.0000
# 2 35.9762 61.6033 23.7301 0.0000 0.0000 0.0000
# 3 40.9925 23.7301 45.4381 0.0000 0.0000 0.0000
# 4 0.0000 0.0000 0.0000 18.1679 0.0000 0.0000
# 5 0.0000 0.0000 0.0000 0.0000 14.7156 0.0000
# 6 0.0000 0.0000 0.0000 0.0000 0.0000 22.1186
#
#
#
# Elastic Compliance Matrix: (Units=1/GPa)
#
#
# Indices 1 2 3 4 5 6 
#
# 1 0.023833 -0.007055 -0.017817 0.000000 0.000000 0.000000
# 2 -0.007055 0.022410 -0.005338 0.000000 0.000000 0.000000
# 3 -0.017817 -0.005338 0.040869 0.000000 0.000000 0.000000
# 4 0.000000 0.000000 0.000000 0.055042 0.000000 0.000000
# 5 0.000000 0.000000 0.000000 0.000000 0.067955 0.000000
# 6 0.000000 0.000000 0.000000 0.000000 0.000000 0.045211
#
#
# Mechanical properties :
#
#
# Convention : Reuss Voigt Hill
#
# Bulk Modulus (GPa) = 37.46525 43.52131 40.49328
# Shear Modulus (GPa) = 15.40174 16.97342 16.18758
#
# Velocity S-wave (km/s) = 3.27489 3.43792 3.35739
# Velocity P-wave (km/s) = 6.35519 6.78711 6.57470
#
# Compressibility (1/GPa) = 0.02669140
#
# Stress axis : x y z
#
# Youngs Moduli (GPa) = 41.95825 44.62371 24.46815
#
# Poissons Ratio (x) = 0.31484 0.43594
# Poissons Ratio (y) = 0.29603 0.13062
# Poissons Ratio (z) = 0.74756 0.23821
#
# Static dielectric constant tensor:
#      x y z
#    x 2.930270 0.000000 0.000000 
#    y 0.000000 2.749560 0.000000 
#    z 0.000000 0.000000 2.464750 
# 
# 
# High freq. dielectric constant tensor:
#      x y z
#    x 1.545150 0.000000 0.000000 
#    y 0.000000 1.553350 0.000000 
#    z 0.000000 0.000000 1.495850 
# 
# From -- ./inp_files/55039.got.cif
#   From: 2010.03.12/outbox.cif.g09.slc.cpg/sg74_28_cif.got.tgz:55039.got - 2010.04.16 15:46:19.
