data_PCOD8297939
_publ_section_title
;
Structure prediction by ZEFSAII (Michael W. Deem and Ramdas Pophale) SiO2 
 PCOD8297939
Probable space group: I M M A
;
_chemical_formula_sum "Si O2"
_cell_formula_units_Z 104
_cell_length_a 21.332164
_cell_length_b 8.904554
_cell_length_c 26.993496
_cell_angle_alpha 90.000000
_cell_angle_beta 90.000000
_cell_angle_gamma 90.000000
_cell_volume 5127.506512
_symmetry_space_group_name_H-M "I M M A"
_symmetry_group_IT_number 74
_symmetry_cell_setting 'orthorhombic'
loop_
_space_group_symop_operation_xyz
x,y,z
-x,1/2-y,z
x,-y,-z
-x,1/2+y,-z
-x,-y,-z
x,1/2+y,-z
-x,y,z
x,1/2-y,z
1/2+x,1/2+y,1/2+z
1/2-x,-y,1/2+z
1/2+x,1/2-y,1/2-z
1/2-x,y,1/2-z
1/2-x,1/2-y,1/2-z
1/2+x,y,1/2-z
1/2-x,1/2+y,1/2+z
1/2+x,-y,1/2+z
loop_
_atom_site_type_symbol
_atom_site_label
_atom_site_fract_x
_atom_site_fract_y
_atom_site_fract_z
Si Si1 0.389903 0.572824 0.380228
Si Si2 0.500000 0.072054 0.552523
Si Si3 0.187990 0.574111 0.720612
Si Si4 0.172568 0.925674 0.607785
Si Si5 0.927476 0.428801 0.773073
Si Si6 0.279569 0.072497 0.551256
Si Si7 0.573326 0.077930 0.948910
O O1 0.396618 0.750000 0.376192
O O2 0.440309 0.509812 0.418451
O O3 0.403852 0.506317 0.325986
O O4 0.323208 0.524146 0.402367
O O5 0.500000 0.250000 0.547396
O O6 0.500000 0.000000 0.500000
O O7 0.179931 0.750000 0.730862
O O8 0.250000 0.513344 0.750000
O O9 0.197615 0.537855 0.662722
O O10 0.122492 0.494904 0.734524
O O11 0.173622 0.750000 0.597521
O O12 0.212312 0.009233 0.565556
O O13 0.103358 0.991769 0.598243
O O14 0.923996 0.250000 0.770760
O O15 0.000000 0.480093 0.762908
O O16 0.278525 0.250000 0.543989
O O17 0.303507 0.000000 0.500000
O O18 0.500000 0.064643 0.940341
O O19 0.595638 0.250000 0.950375
O O20 0.593967 0.000000 0.000000
#
# Coordination Sequence:
#
# PCOD8297939 Si02
#       7
#    16   8  16  16  16  16  16
#     4   9  18  34  56  80 111 151 190 231 280 333
#     4  10  18  32  52  76 110 146 186 230 275 326
#     4  10  23  42  61  84 116 153 194 245 301 351
#     4  11  23  39  59  82 112 150 189 234 287 343
#     4  10  20  37  62  89 116 151 196 244 294 348
#     4  11  22  36  56  83 115 152 193 236 283 337
#     4  10  21  38  61  88 118 150 185 227 277 338
#
# _framework density 20.282762000000002
#
# number of rings (size 3 to 8) (size 9 to 14) (size 15 to 20)
#    0.000    1.846    0.769    3.231    0.000    3.385 
#    0.000    5.385    0.000    0.000    0.000    0.000 
#    0.000    0.000    0.000    0.000    0.000    0.000 
#
# Total GULP energy -644702.014216 kJ/mol
# GULP energy per Si atom -12398.115658 kJ/mol
# Density = 2.023660 g / cm^3
# Si number density = 20.282762 Si / 1000 Ang^3
#
#
#
# Elastic Constant Matrix: (Units=GPa)
#
#
# Indices 1 2 3 4 5 6 
#
# 1 108.4128 43.1633 42.4712 0.0000 0.0000 0.0000
# 2 43.1633 72.4523 43.2901 0.0000 0.0000 0.0000
# 3 42.4712 43.2901 83.2774 0.0000 0.0000 0.0000
# 4 0.0000 0.0000 0.0000 32.5009 0.0000 0.0000
# 5 0.0000 0.0000 0.0000 0.0000 39.3907 0.0000
# 6 0.0000 0.0000 0.0000 0.0000 0.0000 26.2879
#
#
#
# Elastic Compliance Matrix: (Units=1/GPa)
#
#
# Indices 1 2 3 4 5 6 
#
# 1 0.012845 -0.005422 -0.003732 0.000000 0.000000 0.000000
# 2 -0.005422 0.022310 -0.008832 0.000000 0.000000 0.000000
# 3 -0.003732 -0.008832 0.018502 0.000000 0.000000 0.000000
# 4 0.000000 0.000000 0.000000 0.030768 0.000000 0.000000
# 5 0.000000 0.000000 0.000000 0.000000 0.025387 0.000000
# 6 0.000000 0.000000 0.000000 0.000000 0.000000 0.038040
#
#
# Mechanical properties :
#
#
# Convention : Reuss Voigt Hill
#
# Bulk Modulus (GPa) = 56.54730 57.99909 57.27320
# Shear Modulus (GPa) = 26.35464 28.65042 27.50253
#
# Velocity S-wave (km/s) = 3.60858 3.76247 3.68633
# Velocity P-wave (km/s) = 6.73071 6.89436 6.81303
#
# Compressibility (1/GPa) = 0.01768431
#
# Stress axis : x y z
#
# Youngs Moduli (GPa) = 77.85153 44.82381 54.04678
#
# Poissons Ratio (x) = 0.24305 0.20171
# Poissons Ratio (y) = 0.42214 0.47733
# Poissons Ratio (z) = 0.29055 0.39587
#
# Static dielectric constant tensor:
#      x y z
#    x 3.768820 0.000000 0.000000 
#    y 0.000000 3.690280 0.000000 
#    z 0.000000 0.000000 3.737870 
# 
# 
# High freq. dielectric constant tensor:
#      x y z
#    x 1.805420 0.000000 0.000000 
#    y 0.000000 1.774190 0.000000 
#    z 0.000000 0.000000 1.796830 
# 
# From -- ./inp_files/68269.got.cif
#   From: 2010.03.12/outbox.cif.g09.slc.cpg/sg74_35_cif.got.tgz:68269.got - 2010.04.16 15:46:19.
