data_PCOD8297615
_publ_section_title
;
Structure prediction by ZEFSAII (Michael W. Deem and Ramdas Pophale) SiO2 
 PCOD8297615
Probable space group: I M M A
;
_chemical_formula_sum "Si O2"
_cell_formula_units_Z 96
_cell_length_a 8.902402
_cell_length_b 23.688476
_cell_length_c 25.633691
_cell_angle_alpha 90.000000
_cell_angle_beta 90.000000
_cell_angle_gamma 90.000000
_cell_volume 5405.743909
_symmetry_space_group_name_H-M "I M M A"
_symmetry_group_IT_number 74
_symmetry_cell_setting 'orthorhombic'
loop_
_space_group_symop_operation_xyz
x,y,z
-x,1/2-y,z
x,-y,-z
-x,1/2+y,-z
-x,-y,-z
x,1/2+y,-z
-x,y,z
x,1/2-y,z
1/2+x,1/2+y,1/2+z
1/2-x,-y,1/2+z
1/2+x,1/2-y,1/2-z
1/2-x,y,1/2-z
1/2-x,1/2-y,1/2-z
1/2+x,y,1/2-z
1/2-x,1/2+y,1/2+z
1/2+x,-y,1/2+z
loop_
_atom_site_type_symbol
_atom_site_label
_atom_site_fract_x
_atom_site_fract_y
_atom_site_fract_z
Si Si1 0.323297 0.814349 0.804854
Si Si2 0.178065 0.620118 0.897817
Si Si3 0.822836 0.314588 0.803624
Si Si4 0.821260 0.813028 0.998931
Si Si5 0.178856 0.881976 0.097063
Si Si6 0.678331 0.001179 0.441011
O O1 0.500000 0.822352 0.799939
O O2 0.281518 0.750000 0.820739
O O3 0.250000 0.830176 0.750000
O O4 0.259481 0.858004 0.846553
O O5 0.233536 0.657901 0.946018
O O6 0.231651 0.556273 0.909500
O O7 0.000000 0.624130 0.889759
O O8 0.776683 0.250000 0.816025
O O9 0.750000 0.335676 0.750000
O O10 0.759419 0.354570 0.849583
O O11 0.000000 0.320287 0.798194
O O12 0.755757 0.750000 0.000568
O O13 0.000000 0.812815 0.001103
O O14 0.756248 0.846788 0.048317
O O15 0.234601 0.946488 0.091189
O O16 0.000000 0.878775 0.096633
O O17 0.500000 0.001299 0.445524
O O18 0.744400 0.000000 0.500000
#
# Coordination Sequence:
#
# PCOD8297615 Si02
#       6
#    16  16  16  16  16  16
#     4  10  21  37  56  76 100 131 166 205 250 301
#     4  10  18  29  49  76 104 131 163 203 247 295
#     4   9  17  29  46  67  91 121 157 199 245 288
#     4   9  15  22  38  68 100 124 153 201 251 290
#     4   9  15  25  42  66  96 126 161 201 240 284
#     4   9  15  26  44  70 102 134 165 199 240 285
#
# _framework density 17.758887000000001
#
# number of rings (size 3 to 8) (size 9 to 14) (size 15 to 20)
#    0.000    2.667    1.667    1.500    0.000    3.667 
#    0.000    0.833    0.000    4.500    0.000    2.333 
#    0.000    0.000    0.000    0.000    0.000    0.000 
#
# Total GULP energy -595109.634208 kJ/mol
# GULP energy per Si atom -12398.117379 kJ/mol
# Density = 1.771847 g / cm^3
# Si number density = 17.758887 Si / 1000 Ang^3
#
#
#
# Elastic Constant Matrix: (Units=GPa)
#
#
# Indices 1 2 3 4 5 6 
#
# 1 24.3963 24.9528 32.8346 0.0000 0.0000 0.0000
# 2 24.9528 167.6661 100.7705 0.0000 0.0000 0.0000
# 3 32.8346 100.7705 168.5906 0.0000 0.0000 0.0000
# 4 0.0000 0.0000 0.0000 28.6537 0.0000 0.0000
# 5 0.0000 0.0000 0.0000 0.0000 23.4402 0.0000
# 6 0.0000 0.0000 0.0000 0.0000 0.0000 11.6180
#
#
#
# Elastic Compliance Matrix: (Units=1/GPa)
#
#
# Indices 1 2 3 4 5 6 
#
# 1 0.056378 -0.002795 -0.009309 0.000000 0.000000 0.000000
# 2 -0.002795 0.009447 -0.005102 0.000000 0.000000 0.000000
# 3 -0.009309 -0.005102 0.010794 0.000000 0.000000 0.000000
# 4 0.000000 0.000000 0.000000 0.034899 0.000000 0.000000
# 5 0.000000 0.000000 0.000000 0.000000 0.042662 0.000000
# 6 0.000000 0.000000 0.000000 0.000000 0.000000 0.086073
#
#
# Mechanical properties :
#
#
# Convention : Reuss Voigt Hill
#
# Bulk Modulus (GPa) = 23.69353 75.30763 49.50058
# Shear Modulus (GPa) = 17.31686 26.21540 21.76613
#
# Velocity S-wave (km/s) = 3.12606 3.84628 3.50472
# Velocity P-wave (km/s) = 5.13814 7.88815 6.65670
#
# Compressibility (1/GPa) = 0.04220562
#
# Stress axis : x y z
#
# Youngs Moduli (GPa) = 17.73733 105.85691 92.64195
#
# Poissons Ratio (x) = 0.29591 0.86243
# Poissons Ratio (y) = 0.04958 0.47267
# Poissons Ratio (z) = 0.16512 0.54009
#
# Static dielectric constant tensor:
#      x y z
#    x 2.741800 0.000000 0.000000 
#    y 0.000000 3.541340 0.000000 
#    z 0.000000 0.000000 3.374840 
# 
# 
# High freq. dielectric constant tensor:
#      x y z
#    x 1.630330 0.000000 0.000000 
#    y 0.000000 1.693240 0.000000 
#    z 0.000000 0.000000 1.692710 
# 
# From -- ./inp_files/50909.got.cif
#   From: 2010.03.12/outbox.cif.g09.slc.cpg/sg74_26_cif.got.tgz:50909.got - 2010.04.16 15:46:19.
