data_PCOD8297029
_publ_section_title
;
Structure prediction by ZEFSAII (Michael W. Deem and Ramdas Pophale) SiO2 
 PCOD8297029
Probable space group: I B C A 
;
_chemical_formula_sum "Si O2"
_cell_formula_units_Z 112
_cell_length_a 10.978490
_cell_length_b 31.890710
_cell_length_c 14.043400
_cell_angle_alpha 90.000000
_cell_angle_beta 90.000000
_cell_angle_gamma 90.000000
_cell_volume 4916.760625
_symmetry_space_group_name_H-M "I B C A "
_symmetry_group_IT_number 73
_symmetry_cell_setting 'orthorhombic'
loop_
_space_group_symop_operation_xyz
x,y,z
-x,1/2-y,z
x,-y,1/2-z
1/2-x,y,-z
-x,-y,-z
x,1/2+y,-z
-x,y,1/2+z
1/2+x,-y,z
1/2+x,1/2+y,1/2+z
1/2-x,-y,1/2+z
1/2+x,1/2-y,-z
-x,1/2+y,1/2-z
1/2-x,1/2-y,1/2-z
1/2+x,y,1/2-z
1/2-x,1/2+y,z
x,1/2-y,1/2+z
loop_
_atom_site_type_symbol
_atom_site_label
_atom_site_fract_x
_atom_site_fract_y
_atom_site_fract_z
Si Si1 0.347373 0.963739 0.676779
Si Si2 0.691364 0.889151 0.747164
Si Si3 0.250000 0.311973 0.500000
Si Si4 0.865720 0.747182 0.354837
Si Si5 0.324724 0.311348 0.188900
Si Si6 0.972232 0.640354 0.585894
Si Si7 0.933796 0.078702 0.071072
Si Si8 0.750000 0.987987 0.500000
O O1 0.253271 0.933041 0.728448
O O2 0.461277 0.937308 0.640786
O O3 0.389477 0.000000 0.750000
O O4 0.278173 0.982499 0.587755
O O5 0.789364 0.851472 0.753632
O O6 0.578198 0.879735 0.816620
O O7 0.650112 0.891762 0.636954
O O8 0.223370 0.283192 0.589423
O O9 0.134716 0.340091 0.476179
O O10 0.883207 0.726336 0.250582
O O11 0.801648 0.792880 0.354784
O O12 0.000000 0.750000 0.401774
O O13 0.423400 0.325260 0.109682
O O14 0.025102 0.603717 0.521442
O O15 0.865942 0.039177 0.027417
#
# Coordination Sequence:
#
# PCOD8297029 Si02
#       8
#    16  16   8  16  16  16  16   8
#     4  12  27  46  75 107 151 197 245 311 378 448
#     4  12  25  50  74 110 150 200 251 303 382 452
#     4  12  28  47  73 116 146 194 252 312 387 449
#     4  11  27  47  76 109 150 195 247 314 379 452
#     4  11  26  49  76 109 148 199 251 309 379 458
#     4  12  27  47  78 110 154 196 257 317 376 456
#     4  12  28  45  78 109 148 195 252 310 377 451
#     4  12  26  51  69 114 146 188 258 306 379 455
#
# _framework density 22.779226999999999
#
# number of rings (size 3 to 8) (size 9 to 14) (size 15 to 20)
#    0.000    0.286    2.857    4.714   12.000    0.000 
#    0.000    0.000    0.000    0.000    0.000    0.000 
#    0.000    0.000    0.000    0.000    0.000    0.000 
#
# Total GULP energy -694699.031350 kJ/mol
# GULP energy per Si atom -12405.339846 kJ/mol
# Density = 2.272738 g / cm^3
# Si number density = 22.779227 Si / 1000 Ang^3
#
#
#
# Elastic Constant Matrix: (Units=GPa)
#
#
# Indices 1 2 3 4 5 6 
#
# 1 109.7218 35.9372 32.8649 0.0000 -0.0001 -0.0002
# 2 35.9372 102.8782 34.8500 0.0004 -0.0002 0.0000
# 3 32.8649 34.8500 87.4509 -0.0006 0.0002 -0.0007
# 4 0.0000 0.0004 -0.0006 44.7916 0.0003 -0.0005
# 5 -0.0001 -0.0002 0.0002 0.0003 47.4298 0.0001
# 6 -0.0002 0.0000 -0.0007 -0.0005 0.0001 31.0716
#
#
#
# Elastic Compliance Matrix: (Units=1/GPa)
#
#
# Indices 1 2 3 4 5 6 
#
# 1 0.010928 -0.002805 -0.002989 0.000000 0.000000 0.000000
# 2 -0.002805 0.011957 -0.003711 0.000000 0.000000 0.000000
# 3 -0.002989 -0.003711 0.014037 0.000000 0.000000 0.000000
# 4 0.000000 0.000000 0.000000 0.022326 0.000000 0.000000
# 5 0.000000 0.000000 0.000000 0.000000 0.021084 0.000000
# 6 0.000000 0.000000 0.000000 0.000000 0.000000 0.032184
#
#
# Mechanical properties :
#
#
# Convention : Reuss Voigt Hill
#
# Bulk Modulus (GPa) = 55.82677 56.37278 56.09977
# Shear Modulus (GPa) = 36.36478 37.75187 37.05833
#
# Velocity S-wave (km/s) = 3.99983 4.07540 4.03780
# Velocity P-wave (km/s) = 6.77440 6.85174 6.81318
#
# Compressibility (1/GPa) = 0.01791255
#
# Stress axis : x y z
#
# Youngs Moduli (GPa) = 91.50870 83.63255 71.23953
#
# Poissons Ratio (x) = 0.23457 0.21294
# Poissons Ratio (y) = 0.25666 0.26437
# Poissons Ratio (z) = 0.27353 0.31036
#
# Static dielectric constant tensor:
#      x y z
#    x 4.086920 0.000000 -0.000030 
#    y 0.000000 4.256940 0.000000 
#    z -0.000030 0.000000 4.110360 
# 
# 
# High freq. dielectric constant tensor:
#      x y z
#    x 1.907990 0.000000 0.000000 
#    y 0.000000 1.914200 0.000000 
#    z 0.000000 0.000000 1.905910 
# 
# From -- ./inp_files/16374.got.cif
#   From: 2010.03.12/outbox.cif.g09.slc.cpg/sg73_9_cif.got.tgz:16374.got - 2010.04.16 15:25:48.
