data_PCOD8297403
_publ_section_title
;
Structure prediction by ZEFSAII (Michael W. Deem and Ramdas Pophale) SiO2 
 PCOD8297403
Probable space group: I M M A
;
_chemical_formula_sum "Si O2"
_cell_formula_units_Z 80
_cell_length_a 8.931910
_cell_length_b 37.554261
_cell_length_c 18.143629
_cell_angle_alpha 90.000000
_cell_angle_beta 90.000000
_cell_angle_gamma 90.000000
_cell_volume 6085.940688
_symmetry_space_group_name_H-M "I M M A"
_symmetry_group_IT_number 74
_symmetry_cell_setting 'orthorhombic'
loop_
_space_group_symop_operation_xyz
x,y,z
-x,1/2-y,z
x,-y,-z
-x,1/2+y,-z
-x,-y,-z
x,1/2+y,-z
-x,y,z
x,1/2-y,z
1/2+x,1/2+y,1/2+z
1/2-x,-y,1/2+z
1/2+x,1/2-y,1/2-z
1/2-x,y,1/2-z
1/2-x,1/2-y,1/2-z
1/2+x,y,1/2-z
1/2-x,1/2+y,1/2+z
1/2+x,-y,1/2+z
loop_
_atom_site_type_symbol
_atom_site_label
_atom_site_fract_x
_atom_site_fract_y
_atom_site_fract_z
Si Si1 0.322976 0.635044 0.669861
Si Si2 0.174668 0.073157 0.419084
Si Si3 0.674080 0.212448 0.327977
Si Si4 0.331153 0.036053 0.545785
Si Si5 0.674718 0.002067 0.171193
O O1 0.500000 0.628628 0.677634
O O2 0.250000 0.629825 0.750000
O O3 0.255449 0.607517 0.612732
O O4 0.283823 0.674426 0.635165
O O5 0.242819 0.065933 0.499807
O O6 0.000000 0.080714 0.427826
O O7 0.206158 0.040245 0.365057
O O8 0.500000 0.211848 0.312129
O O9 0.716045 0.250000 0.371090
O O10 0.750000 0.213734 0.250000
O O11 0.500000 0.049148 0.561313
O O12 0.246770 0.029453 0.622736
O O13 0.331600 0.000000 0.500000
O O14 0.500000 0.994337 0.178819
O O15 0.750000 0.001921 0.250000
#
# Coordination Sequence:
#
# PCOD8297403 Si02
#       5
#    16  16  16  16  16
#     4  10  18  26  37  53  72  94 122 155 189 222
#     4  10  19  29  40  54  74  97 121 151 186 222
#     4   8  14  24  36  49  66  89 117 149 183 217
#     4   9  17  29  43  56  71  92 118 148 183 222
#     4  10  19  29  41  56  73  94 121 152 185 219
#
# _framework density 13.145051
#
# number of rings (size 3 to 8) (size 9 to 14) (size 15 to 20)
#    0.000    2.600    0.000    3.000    0.000    7.200 
#    0.000    0.000    0.000    0.000    0.000    0.000 
#    0.000    0.000    0.000    0.000    0.000    1.000 
#
# Total GULP energy -495572.802674 kJ/mol
# GULP energy per Si atom -12389.320067 kJ/mol
# Density = 1.311513 g / cm^3
# Si number density = 13.145051 Si / 1000 Ang^3
#
#
#
# Elastic Constant Matrix: (Units=GPa)
#
#
# Indices 1 2 3 4 5 6 
#
# 1 85.8467 50.9556 46.1987 0.0000 0.0000 0.0000
# 2 50.9556 95.4868 36.9135 0.0001 0.0000 0.0000
# 3 46.1987 36.9135 57.6464 0.0002 0.0000 0.0000
# 4 0.0000 0.0001 0.0002 10.3400 0.0000 0.0000
# 5 0.0000 0.0000 0.0000 0.0000 22.6478 0.0000
# 6 0.0000 0.0000 0.0000 0.0000 0.0000 14.6533
#
#
#
# Elastic Compliance Matrix: (Units=1/GPa)
#
#
# Indices 1 2 3 4 5 6 
#
# 1 0.023549 -0.007005 -0.014387 0.000000 0.000000 0.000000
# 2 -0.007005 0.016002 -0.004633 0.000000 0.000000 0.000000
# 3 -0.014387 -0.004633 0.031844 0.000000 0.000000 0.000000
# 4 0.000000 0.000000 0.000000 0.096712 0.000000 0.000000
# 5 0.000000 0.000000 0.000000 0.000000 0.044154 0.000000
# 6 0.000000 0.000000 0.000000 0.000000 0.000000 0.068244
#
#
# Mechanical properties :
#
#
# Convention : Reuss Voigt Hill
#
# Bulk Modulus (GPa) = 51.69279 56.34618 54.01948
# Shear Modulus (GPa) = 14.74918 16.52236 15.63577
#
# Velocity S-wave (km/s) = 3.35331 3.54916 3.45262
# Velocity P-wave (km/s) = 7.37585 7.73003 7.55502
#
# Compressibility (1/GPa) = 0.01934506
#
# Stress axis : x y z
#
# Youngs Moduli (GPa) = 42.46482 62.49337 31.40351
#
# Poissons Ratio (x) = 0.43776 0.45180
# Poissons Ratio (y) = 0.29746 0.14548
# Poissons Ratio (z) = 0.61094 0.28952
#
# Static dielectric constant tensor:
#      x y z
#    x 2.824400 0.000000 0.000000 
#    y 0.000000 2.990120 0.000000 
#    z 0.000000 0.000000 2.403760 
# 
# 
# High freq. dielectric constant tensor:
#      x y z
#    x 1.521820 0.000000 0.000000 
#    y 0.000000 1.488430 0.000000 
#    z 0.000000 0.000000 1.457770 
# 
# From -- ./inp_files/39981.got.cif
#   From: 2010.03.12/outbox.cif.g09.slc.cpg/sg74_20_cif.got.tgz:39981.got - 2010.04.16 15:46:19.
