data_PCOD8297782
_publ_section_title
;
Structure prediction by ZEFSAII (Michael W. Deem and Ramdas Pophale) SiO2 
 PCOD8297782
Probable space group: I M M A
;
_chemical_formula_sum "Si O2"
_cell_formula_units_Z 72
_cell_length_a 20.374178
_cell_length_b 20.221899
_cell_length_c 9.047882
_cell_angle_alpha 90.000000
_cell_angle_beta 90.000000
_cell_angle_gamma 90.000000
_cell_volume 3727.768730
_symmetry_space_group_name_H-M "I M M A"
_symmetry_group_IT_number 74
_symmetry_cell_setting 'orthorhombic'
loop_
_space_group_symop_operation_xyz
x,y,z
-x,1/2-y,z
x,-y,-z
-x,1/2+y,-z
-x,-y,-z
x,1/2+y,-z
-x,y,z
x,1/2-y,z
1/2+x,1/2+y,1/2+z
1/2-x,-y,1/2+z
1/2+x,1/2-y,1/2-z
1/2-x,y,1/2-z
1/2-x,1/2-y,1/2-z
1/2+x,y,1/2-z
1/2-x,1/2+y,1/2+z
1/2+x,-y,1/2+z
loop_
_atom_site_type_symbol
_atom_site_label
_atom_site_fract_x
_atom_site_fract_y
_atom_site_fract_z
Si Si1 0.129452 0.942346 0.607002
Si Si2 0.073364 0.430084 0.077572
Si Si3 0.315565 0.624606 0.393518
Si Si4 0.250000 0.504453 0.250000
Si Si5 0.675952 0.324870 0.925885
O O1 0.082505 0.937541 0.747398
O O2 0.129861 0.872536 0.522363
O O3 0.102053 0.000000 0.500000
O O4 0.204428 0.958069 0.651138
O O5 0.000000 0.403148 0.048151
O O6 0.083432 0.500000 0.000000
O O7 0.125623 0.377510 0.012070
O O8 0.295178 0.549570 0.354521
O O9 0.339521 0.661758 0.246153
O O10 0.253028 0.662942 0.460395
O O11 0.657566 0.250000 0.966636
#
# Coordination Sequence:
#
# PCOD8297782 Si02
#       5
#    16  16  16   8  16
#     4  12  20  34  58  87 120 154 187 235 296 348
#     4  11  23  37  55  84 119 156 201 239 275 335
#     4  10  18  36  60  83 118 148 188 236 288 342
#     4  10  18  30  56  90 110 146 182 230 296 348
#     4  10  21  36  61  92 118 144 184 245 302 351
#
# _framework density 19.314502000000001
#
# number of rings (size 3 to 8) (size 9 to 14) (size 15 to 20)
#    0.000    1.556    6.667    2.667    0.000    0.444 
#    0.000    7.222    0.000    7.333    0.000    0.000 
#    0.000    0.000    0.000    0.000    0.000    0.000 
#
# Total GULP energy -446411.122183 kJ/mol
# GULP energy per Si atom -12400.308950 kJ/mol
# Density = 1.927054 g / cm^3
# Si number density = 19.314502 Si / 1000 Ang^3
#
#
#
# Elastic Constant Matrix: (Units=GPa)
#
#
# Indices 1 2 3 4 5 6 
#
# 1 77.1242 19.4612 40.1302 0.0000 0.0000 0.0000
# 2 19.4612 119.6866 39.6294 0.0000 0.0000 0.0000
# 3 40.1302 39.6294 91.2672 0.0000 0.0000 0.0000
# 4 0.0000 0.0000 0.0000 16.9958 0.0000 0.0000
# 5 0.0000 0.0000 0.0000 0.0000 14.7569 0.0000
# 6 0.0000 0.0000 0.0000 0.0000 0.0000 12.0643
#
#
#
# Elastic Compliance Matrix: (Units=1/GPa)
#
#
# Indices 1 2 3 4 5 6 
#
# 1 0.016824 -0.000334 -0.007252 0.000000 0.000000 0.000000
# 2 -0.000334 0.009765 -0.004093 0.000000 0.000000 0.000000
# 3 -0.007252 -0.004093 0.015923 0.000000 0.000000 0.000000
# 4 0.000000 0.000000 0.000000 0.058838 0.000000 0.000000
# 5 0.000000 0.000000 0.000000 0.000000 0.067765 0.000000
# 6 0.000000 0.000000 0.000000 0.000000 0.000000 0.082889
#
#
# Mechanical properties :
#
#
# Convention : Reuss Voigt Hill
#
# Bulk Modulus (GPa) = 52.21270 54.05775 53.13523
# Shear Modulus (GPa) = 17.74640 21.35389 19.55014
#
# Velocity S-wave (km/s) = 3.03448 3.32865 3.18496
# Velocity P-wave (km/s) = 6.27447 6.54386 6.41058
#
# Compressibility (1/GPa) = 0.01915243
#
# Stress axis : x y z
#
# Youngs Moduli (GPa) = 59.43843 102.40934 62.80239
#
# Poissons Ratio (x) = 0.03423 0.45547
# Poissons Ratio (y) = 0.01987 0.25705
# Poissons Ratio (z) = 0.43107 0.41916
#
# Static dielectric constant tensor:
#      x y z
#    x 3.314260 0.000000 0.000000 
#    y 0.000000 3.293000 0.000000 
#    z 0.000000 0.000000 3.574860 
# 
# 
# High freq. dielectric constant tensor:
#      x y z
#    x 1.721760 0.000000 0.000000 
#    y 0.000000 1.725440 0.000000 
#    z 0.000000 0.000000 1.758160 
# 
# From -- ./inp_files/12165.got.cif
#   From: 2010.03.12/outbox.cif.g09.slc.cpg/sg74_7_cif.got.tgz:12165.got - 2010.04.16 15:46:19.
