data_PCOD8297905
_publ_section_title
;
Structure prediction by ZEFSAII (Michael W. Deem and Ramdas Pophale) SiO2 
 PCOD8297905
Probable space group: I M M A
;
_chemical_formula_sum "Si O2"
_cell_formula_units_Z 88
_cell_length_a 20.130541
_cell_length_b 8.904718
_cell_length_c 29.784977
_cell_angle_alpha 90.000000
_cell_angle_beta 90.000000
_cell_angle_gamma 90.000000
_cell_volume 5339.159391
_symmetry_space_group_name_H-M "I M M A"
_symmetry_group_IT_number 74
_symmetry_cell_setting 'orthorhombic'
loop_
_space_group_symop_operation_xyz
x,y,z
-x,1/2-y,z
x,-y,-z
-x,1/2+y,-z
-x,-y,-z
x,1/2+y,-z
-x,y,z
x,1/2-y,z
1/2+x,1/2+y,1/2+z
1/2-x,-y,1/2+z
1/2+x,1/2-y,1/2-z
1/2-x,y,1/2-z
1/2-x,1/2-y,1/2-z
1/2+x,y,1/2-z
1/2-x,1/2+y,1/2+z
1/2+x,-y,1/2+z
loop_
_atom_site_type_symbol
_atom_site_label
_atom_site_fract_x
_atom_site_fract_y
_atom_site_fract_z
Si Si1 0.213166 0.929286 0.295435
Si Si2 0.645354 0.574358 0.451500
Si Si3 0.574378 0.918913 0.332989
Si Si4 0.302457 0.925398 0.630512
Si Si5 0.929277 0.421327 0.726674
Si Si6 0.000000 0.420978 0.953091
O O1 0.215848 0.750000 0.298811
O O2 0.250000 0.982344 0.250000
O O3 0.137347 0.993505 0.294373
O O4 0.246493 0.999572 0.338991
O O5 0.650511 0.500000 0.500000
O O6 0.660379 0.750000 0.456122
O O7 0.699860 0.498531 0.419141
O O8 0.571135 0.543889 0.428903
O O9 0.500000 0.948645 0.352149
O O10 0.597332 0.750000 0.347669
O O11 0.574757 0.929322 0.279855
O O12 0.624744 0.044460 0.349692
O O13 0.288705 0.750000 0.627197
O O14 0.930960 0.250000 0.710975
O O15 0.000000 0.497434 0.711109
O O16 0.000000 0.250000 0.966962
O O17 0.000000 0.500000 0.000000
#
# Coordination Sequence:
#
# PCOD8297905 Si02
#       6
#    16  16  16  16  16   8
#     4  10  18  32  52  71  95 129 168 205 246 291
#     4  10  20  36  53  70  92 122 162 204 250 292
#     4   9  17  31  49  67  90 124 168 210 246 288
#     4  12  24  33  45  69 100 132 165 202 248 295
#     4   8  14  27  49  72  92 120 162 208 247 286
#     4   8  16  30  50  70  88 116 154 200 246 288
#
# _framework density 16.481995999999999
#
# number of rings (size 3 to 8) (size 9 to 14) (size 15 to 20)
#    0.000    2.364    1.818    3.273    1.273    1.455 
#    0.000    0.000    0.000    0.545    0.000    0.000 
#    0.000    0.727    0.000    2.000    0.000    2.909 
#
# Total GULP energy -545126.496007 kJ/mol
# GULP energy per Si atom -12389.238546 kJ/mol
# Density = 1.644448 g / cm^3
# Si number density = 16.481996 Si / 1000 Ang^3
#
#
#
# Elastic Constant Matrix: (Units=GPa)
#
#
# Indices 1 2 3 4 5 6 
#
# 1 117.7498 33.5341 50.1602 0.0000 0.0000 0.0000
# 2 33.5341 54.2555 29.3056 0.0000 0.0000 0.0000
# 3 50.1602 29.3056 66.2046 0.0000 0.0000 0.0000
# 4 0.0000 0.0000 0.0000 21.6496 0.0000 0.0000
# 5 0.0000 0.0000 0.0000 0.0000 29.2461 0.0000
# 6 0.0000 0.0000 0.0000 0.0000 0.0000 14.6646
#
#
#
# Elastic Compliance Matrix: (Units=1/GPa)
#
#
# Indices 1 2 3 4 5 6 
#
# 1 0.013049 -0.003581 -0.008301 0.000000 0.000000 0.000000
# 2 -0.003581 0.025206 -0.008444 0.000000 0.000000 0.000000
# 3 -0.008301 -0.008444 0.025132 0.000000 0.000000 0.000000
# 4 0.000000 0.000000 0.000000 0.046190 0.000000 0.000000
# 5 0.000000 0.000000 0.000000 0.000000 0.034193 0.000000
# 6 0.000000 0.000000 0.000000 0.000000 0.000000 0.068191
#
#
# Mechanical properties :
#
#
# Convention : Reuss Voigt Hill
#
# Bulk Modulus (GPa) = 43.98806 51.57884 47.78345
# Shear Modulus (GPa) = 19.21666 21.45942 20.33804
#
# Velocity S-wave (km/s) = 3.41826 3.61223 3.51658
# Velocity P-wave (km/s) = 6.50583 6.98280 6.74853
#
# Compressibility (1/GPa) = 0.02273344
#
# Stress axis : x y z
#
# Youngs Moduli (GPa) = 76.63595 39.67346 39.79023
#
# Poissons Ratio (x) = 0.14208 0.33030
# Poissons Ratio (y) = 0.27446 0.33599
# Poissons Ratio (z) = 0.63616 0.33500
#
# Static dielectric constant tensor:
#      x y z
#    x 4.903680 0.000000 0.000000 
#    y 0.000000 2.878540 0.000000 
#    z 0.000000 0.000000 2.964130 
# 
# 
# High freq. dielectric constant tensor:
#      x y z
#    x 1.620690 0.000000 0.000000 
#    y 0.000000 1.613050 0.000000 
#    z 0.000000 0.000000 1.618550 
# 
# From -- ./inp_files/73287.got.cif
#   From: 2010.03.12/outbox.cif.g09.slc.cpg/sg74_37_cif.got.tgz:73287.got - 2010.04.16 15:46:19.
