data_PCOD8297480
_publ_section_title
;
Structure prediction by ZEFSAII (Michael W. Deem and Ramdas Pophale) SiO2 
 PCOD8297480
Probable space group: I M M A
;
_chemical_formula_sum "Si O2"
_cell_formula_units_Z 96
_cell_length_a 16.759907
_cell_length_b 17.239123
_cell_length_c 19.767976
_cell_angle_alpha 90.000000
_cell_angle_beta 90.000000
_cell_angle_gamma 90.000000
_cell_volume 5711.484176
_symmetry_space_group_name_H-M "I M M A"
_symmetry_group_IT_number 74
_symmetry_cell_setting 'orthorhombic'
loop_
_space_group_symop_operation_xyz
x,y,z
-x,1/2-y,z
x,-y,-z
-x,1/2+y,-z
-x,-y,-z
x,1/2+y,-z
-x,y,z
x,1/2-y,z
1/2+x,1/2+y,1/2+z
1/2-x,-y,1/2+z
1/2+x,1/2-y,1/2-z
1/2-x,y,1/2-z
1/2-x,1/2-y,1/2-z
1/2+x,y,1/2-z
1/2-x,1/2+y,1/2+z
1/2+x,-y,1/2+z
loop_
_atom_site_type_symbol
_atom_site_label
_atom_site_fract_x
_atom_site_fract_y
_atom_site_fract_z
Si Si1 0.092828 0.339131 0.016043
Si Si2 0.905316 0.165404 0.167522
Si Si3 0.193624 0.106633 0.689334
Si Si4 0.412126 0.750000 0.337621
Si Si5 0.588088 0.250000 0.820231
Si Si6 0.157748 0.406627 0.888417
Si Si7 0.407857 0.507163 0.723986
O O1 0.106583 0.250000 0.991364
O O2 0.127504 0.349467 0.091594
O O3 0.000000 0.360405 0.012222
O O4 0.140043 0.400582 0.968425
O O5 0.875156 0.250000 0.193953
O O6 0.000000 0.166589 0.161220
O O7 0.878935 0.097065 0.218515
O O8 0.250000 0.138792 0.750000
O O9 0.136764 0.173101 0.659078
O O10 0.248882 0.076475 0.627375
O O11 0.143127 0.034166 0.717900
O O12 0.500000 0.750000 0.373057
O O13 0.425794 0.750000 0.258648
O O14 0.362185 0.675621 0.356188
O O15 0.500000 0.250000 0.855364
O O16 0.103363 0.470342 0.850731
O O17 0.500000 0.500759 0.744759
#
# Coordination Sequence:
#
# PCOD8297480 Si02
#       7
#    16  16  16   8   8  16  16
#     4   9  16  26  41  61  86 116 149 177 201 239
#     4   8  16  30  45  61  80 106 146 187 214 241
#     4  10  19  27  36  55  83 113 147 174 205 248
#     4  11  17  23  37  55  78 112 148 168 194 241
#     4  11  18  26  38  52  76 112 150 174 197 236
#     4  11  19  25  38  57  85 115 145 170 204 248
#     4  10  18  28  42  58  80 112 147 179 210 245
#
# _framework density 16.808240000000001
#
# number of rings (size 3 to 8) (size 9 to 14) (size 15 to 20)
#    0.000    2.167    4.167    3.750    0.000    0.667 
#    0.000    2.500    0.000    4.500    0.000    0.000 
#    0.000    0.000    0.000   82.500    8.333    0.000 
#
# Total GULP energy -594842.023993 kJ/mol
# GULP energy per Si atom -12392.542167 kJ/mol
# Density = 1.676998 g / cm^3
# Si number density = 16.808240 Si / 1000 Ang^3
#
#
#
# Elastic Constant Matrix: (Units=GPa)
#
#
# Indices 1 2 3 4 5 6 
#
# 1 82.5583 35.6573 26.0954 0.0000 0.0000 0.0000
# 2 35.6573 107.5719 28.4791 0.0000 0.0000 0.0000
# 3 26.0954 28.4791 31.7354 0.0000 0.0000 0.0000
# 4 0.0000 0.0000 0.0000 13.9612 0.0000 0.0000
# 5 0.0000 0.0000 0.0000 0.0000 16.0653 0.0000
# 6 0.0000 0.0000 0.0000 0.0000 0.0000 12.3870
#
#
#
# Elastic Compliance Matrix: (Units=1/GPa)
#
#
# Indices 1 2 3 4 5 6 
#
# 1 0.016871 -0.002518 -0.011613 0.000000 0.000000 0.000000
# 2 -0.002518 0.012569 -0.009209 0.000000 0.000000 0.000000
# 3 -0.011613 -0.009209 0.049324 0.000000 0.000000 0.000000
# 4 0.000000 0.000000 0.000000 0.071627 0.000000 0.000000
# 5 0.000000 0.000000 0.000000 0.000000 0.062246 0.000000
# 6 0.000000 0.000000 0.000000 0.000000 0.000000 0.080730
#
#
# Mechanical properties :
#
#
# Convention : Reuss Voigt Hill
#
# Bulk Modulus (GPa) = 31.16827 44.70325 37.93576
# Shear Modulus (GPa) = 14.25559 17.25830 15.75694
#
# Velocity S-wave (km/s) = 2.91543 3.20781 3.06511
# Velocity P-wave (km/s) = 5.46961 6.35404 5.92834
#
# Compressibility (1/GPa) = 0.03208391
#
# Stress axis : x y z
#
# Youngs Moduli (GPa) = 59.27412 79.56313 20.27426
#
# Poissons Ratio (x) = 0.20032 0.23545
# Poissons Ratio (y) = 0.14924 0.18670
# Poissons Ratio (z) = 0.68836 0.73268
#
# Static dielectric constant tensor:
#      x y z
#    x 3.145360 0.000000 0.000000 
#    y 0.000000 3.357180 0.000000 
#    z 0.000000 0.000000 2.854520 
# 
# 
# High freq. dielectric constant tensor:
#      x y z
#    x 1.624790 0.000000 0.000000 
#    y 0.000000 1.649690 0.000000 
#    z 0.000000 0.000000 1.596690 
# 
# From -- ./inp_files/61067.got.cif
#   From: 2010.03.12/outbox.cif.g09.slc.cpg/sg74_31_cif.got.tgz:61067.got - 2010.04.16 15:46:19.
