data_PCOD8297372
_publ_section_title
;
Structure prediction by ZEFSAII (Michael W. Deem and Ramdas Pophale) SiO2 
 PCOD8297372
Probable space group: I M M A
;
_chemical_formula_sum "Si O2"
_cell_formula_units_Z 112
_cell_length_a 16.957593
_cell_length_b 17.433813
_cell_length_c 21.354115
_cell_angle_alpha 90.000000
_cell_angle_beta 90.000000
_cell_angle_gamma 90.000000
_cell_volume 6313.034578
_symmetry_space_group_name_H-M "I M M A"
_symmetry_group_IT_number 74
_symmetry_cell_setting 'orthorhombic'
loop_
_space_group_symop_operation_xyz
x,y,z
-x,1/2-y,z
x,-y,-z
-x,1/2+y,-z
-x,-y,-z
x,1/2+y,-z
-x,y,z
x,1/2-y,z
1/2+x,1/2+y,1/2+z
1/2-x,-y,1/2+z
1/2+x,1/2-y,1/2-z
1/2-x,y,1/2-z
1/2-x,1/2-y,1/2-z
1/2+x,y,1/2-z
1/2-x,1/2+y,1/2+z
1/2+x,-y,1/2+z
loop_
_atom_site_type_symbol
_atom_site_label
_atom_site_fract_x
_atom_site_fract_y
_atom_site_fract_z
Si Si1 0.233676 0.660747 0.069546
Si Si2 0.412449 0.947748 0.439930
Si Si3 0.281942 0.934775 0.185974
Si Si4 0.168785 0.439359 0.141899
Si Si5 0.091289 0.663140 0.756895
Si Si6 0.092293 0.455342 0.351265
Si Si7 0.209715 0.576211 0.539679
O O1 0.220462 0.750000 0.078277
O O2 0.149123 0.621772 0.057899
O O3 0.272399 0.627478 0.132080
O O4 0.293906 0.644687 0.011456
O O5 0.500000 0.912014 0.436050
O O6 0.401776 0.000000 0.500000
O O7 0.400325 0.002942 0.379826
O O8 0.250000 0.895600 0.250000
O O9 0.230962 0.011467 0.180541
O O10 0.371757 0.967381 0.181214
O O11 0.137193 0.370671 0.183897
O O12 0.214805 0.404669 0.082528
O O13 0.120291 0.750000 0.745770
O O14 0.108225 0.616787 0.693629
O O15 0.000000 0.660234 0.774454
O O16 0.131035 0.435167 0.418855
O O17 0.000000 0.470196 0.362181
O O18 0.227804 0.500000 0.500000
#
# Coordination Sequence:
#
# PCOD8297372 Si02
#       7
#    16  16  16  16  16  16  16
#     4  11  22  37  55  80 114 145 184 240 287 327
#     4  10  18  33  55  77 107 146 185 223 270 329
#     4  10  19  37  60  82 107 138 190 232 273 340
#     4  10  17  32  56  78 105 150 183 220 266 330
#     4  10  21  35  51  83 123 148 179 229 281 333
#     4  10  21  36  61  86 109 147 192 235 280 333
#     4  11  19  37  57  80 111 143 190 236 272 333
#
# _framework density 17.741071000000002
#
# number of rings (size 3 to 8) (size 9 to 14) (size 15 to 20)
#    0.000    1.714    7.143    0.429    0.000    2.000 
#    0.000    5.000    0.000    1.286    0.000    0.000 
#    0.000    0.000    0.000    0.000    0.000    0.000 
#
# Total GULP energy -694072.348500 kJ/mol
# GULP energy per Si atom -12394.149080 kJ/mol
# Density = 1.770069 g / cm^3
# Si number density = 17.741071 Si / 1000 Ang^3
#
#
#
# Elastic Constant Matrix: (Units=GPa)
#
#
# Indices 1 2 3 4 5 6 
#
# 1 103.1615 47.7398 51.3879 0.0000 0.0000 0.0000
# 2 47.7398 106.7142 42.5721 0.0000 0.0000 0.0000
# 3 51.3879 42.5721 122.1781 0.0000 0.0000 0.0000
# 4 0.0000 0.0000 0.0000 24.3096 0.0000 0.0000
# 5 0.0000 0.0000 0.0000 0.0000 25.7935 0.0000
# 6 0.0000 0.0000 0.0000 0.0000 0.0000 -32.0060
#
#
#
# Elastic Compliance Matrix: (Units=1/GPa)
#
#
# Indices 1 2 3 4 5 6 
#
# 1 0.013916 -0.004519 -0.004279 0.000000 0.000000 0.000000
# 2 -0.004519 0.012351 -0.002403 0.000000 0.000000 0.000000
# 3 -0.004279 -0.002403 0.010822 0.000000 0.000000 0.000000
# 4 0.000000 0.000000 0.000000 0.041136 0.000000 0.000000
# 5 0.000000 0.000000 0.000000 0.000000 0.038769 0.000000
# 6 0.000000 0.000000 0.000000 0.000000 0.000000 -0.031244
#
#
# Mechanical properties :
#
#
# Convention : Reuss Voigt Hill
#
# Bulk Modulus (GPa) = 68.08243 68.38372 68.23307
# Shear Modulus (GPa) = 44.22970 16.30967 30.26968
#
# Velocity S-wave (km/s) = 4.99848 3.03531 4.13509
# Velocity P-wave (km/s) = 8.47183 7.13535 7.83215
#
# Compressibility (1/GPa) = 0.01468808
#
# Stress axis : x y z
#
# Youngs Moduli (GPa) = 71.86056 80.96548 92.40728
#
# Poissons Ratio (x) = 0.36585 0.39537
# Poissons Ratio (y) = 0.32471 0.22206
# Poissons Ratio (z) = 0.30746 0.19457
#
# Static dielectric constant tensor:
#      x y z
#    x 3.397050 0.000000 0.000000 
#    y 0.000000 3.067380 0.000000 
#    z 0.000000 0.000000 3.620310 
# 
# 
# High freq. dielectric constant tensor:
#      x y z
#    x 1.681720 0.000000 0.000000 
#    y 0.000000 1.656820 0.000000 
#    z 0.000000 0.000000 1.701010 
# 
# From -- ./inp_files/53230.got.cif
#   From: 2010.03.12/outbox.cif.g09.slc.cpg/sg74_27_cif.got.tgz:53230.got - 2010.04.16 15:46:19.
