data_PCOD8297895
_publ_section_title
;
Structure prediction by ZEFSAII (Michael W. Deem and Ramdas Pophale) SiO2 
 PCOD8297895
Probable space group: I M M A
;
_chemical_formula_sum "Si O2"
_cell_formula_units_Z 88
_cell_length_a 9.495078
_cell_length_b 20.285791
_cell_length_c 25.320673
_cell_angle_alpha 90.000000
_cell_angle_beta 90.000000
_cell_angle_gamma 90.000000
_cell_volume 4877.145680
_symmetry_space_group_name_H-M "I M M A"
_symmetry_group_IT_number 74
_symmetry_cell_setting 'orthorhombic'
loop_
_space_group_symop_operation_xyz
x,y,z
-x,1/2-y,z
x,-y,-z
-x,1/2+y,-z
-x,-y,-z
x,1/2+y,-z
-x,y,z
x,1/2-y,z
1/2+x,1/2+y,1/2+z
1/2-x,-y,1/2+z
1/2+x,1/2-y,1/2-z
1/2-x,y,1/2-z
1/2-x,1/2-y,1/2-z
1/2+x,y,1/2-z
1/2-x,1/2+y,1/2+z
1/2+x,-y,1/2+z
loop_
_atom_site_type_symbol
_atom_site_label
_atom_site_fract_x
_atom_site_fract_y
_atom_site_fract_z
Si Si1 0.340627 0.542777 0.610085
Si Si2 0.835916 0.178110 0.072359
Si Si3 0.761418 0.000000 0.500000
Si Si4 0.335639 0.444576 0.697105
Si Si5 0.339505 0.825501 0.375223
Si Si6 0.157710 0.141034 0.524690
O O1 0.500000 0.545937 0.628047
O O2 0.279812 0.618261 0.609669
O O3 0.333905 0.512096 0.551532
O O4 0.269030 0.496064 0.654001
O O5 0.816492 0.250000 0.099954
O O6 0.000000 0.165508 0.058288
O O7 0.749134 0.179695 0.018298
O O8 0.856538 0.063729 0.510875
O O9 0.500000 0.457338 0.708371
O O10 0.250000 0.455398 0.750000
O O11 0.312139 0.370466 0.676005
O O12 0.500000 0.835986 0.395632
O O13 0.312685 0.750000 0.358750
O O14 0.231478 0.847998 0.419646
O O15 0.000000 0.170349 0.526387
#
# Coordination Sequence:
#
# PCOD8297895 Si02
#       6
#    16  16   8  16  16  16
#     4   9  17  31  55  80 102 132 174 215 256 305
#     4   9  18  32  51  76 105 138 173 209 252 305
#     4  10  18  32  50  76 107 138 173 212 261 306
#     4  10  21  38  56  78 102 134 175 219 262 306
#     4  10  21  37  55  74 100 136 178 220 259 302
#     4  11  21  31  47  75 111 143 172 210 258 310
#
# _framework density 18.043341000000002
#
# number of rings (size 3 to 8) (size 9 to 14) (size 15 to 20)
#    0.000    2.182    1.818    1.636    0.000    5.455 
#    0.000    0.909    0.000    0.545    0.000    0.000 
#    0.000    0.000    0.000    0.000    0.000    0.000 
#
# Total GULP energy -545267.992876 kJ/mol
# GULP energy per Si atom -12392.454384 kJ/mol
# Density = 1.800227 g / cm^3
# Si number density = 18.043341 Si / 1000 Ang^3
#
#
#
# Elastic Constant Matrix: (Units=GPa)
#
#
# Indices 1 2 3 4 5 6 
#
# 1 65.1117 31.4326 37.9038 0.0000 0.0000 0.0000
# 2 31.4326 146.3083 64.5037 0.0000 0.0000 0.0000
# 3 37.9038 64.5037 116.2145 0.0000 0.0000 0.0000
# 4 0.0000 0.0000 0.0000 18.1790 0.0000 0.0000
# 5 0.0000 0.0000 0.0000 0.0000 19.2964 0.0000
# 6 0.0000 0.0000 0.0000 0.0000 0.0000 9.7948
#
#
#
# Elastic Compliance Matrix: (Units=1/GPa)
#
#
# Indices 1 2 3 4 5 6 
#
# 1 0.019316 -0.001817 -0.005291 0.000000 0.000000 0.000000
# 2 -0.001817 0.009220 -0.004525 0.000000 0.000000 0.000000
# 3 -0.005291 -0.004525 0.012842 0.000000 0.000000 0.000000
# 4 0.000000 0.000000 0.000000 0.055008 0.000000 0.000000
# 5 0.000000 0.000000 0.000000 0.000000 0.051823 0.000000
# 6 0.000000 0.000000 0.000000 0.000000 0.000000 0.102095
#
#
# Mechanical properties :
#
#
# Convention : Reuss Voigt Hill
#
# Bulk Modulus (GPa) = 55.21391 66.14606 60.67998
# Shear Modulus (GPa) = 17.88218 22.37368 20.12793
#
# Velocity S-wave (km/s) = 3.15154 3.52518 3.34358
# Velocity P-wave (km/s) = 6.62647 7.30125 6.97203
#
# Compressibility (1/GPa) = 0.01811138
#
# Stress axis : x y z
#
# Youngs Moduli (GPa) = 51.77156 108.45791 77.86867
#
# Poissons Ratio (x) = 0.19705 0.41204
# Poissons Ratio (y) = 0.09406 0.35235
# Poissons Ratio (z) = 0.27395 0.49077
#
# Static dielectric constant tensor:
#      x y z
#    x 3.093720 0.000000 0.000000 
#    y 0.000000 3.832940 0.000000 
#    z 0.000000 0.000000 3.065750 
# 
# 
# High freq. dielectric constant tensor:
#      x y z
#    x 1.679100 0.000000 0.000000 
#    y 0.000000 1.721750 0.000000 
#    z 0.000000 0.000000 1.660510 
# 
# From -- ./inp_files/56988.got.cif
#   From: 2010.03.12/outbox.cif.g09.slc.cpg/sg74_29_cif.got.tgz:56988.got - 2010.04.16 15:46:19.
