data_PCOD8297903
_publ_section_title
;
Structure prediction by ZEFSAII (Michael W. Deem and Ramdas Pophale) SiO2 
 PCOD8297903
Probable space group: I M M A
;
_chemical_formula_sum "Si O2"
_cell_formula_units_Z 64
_cell_length_a 10.019121
_cell_length_b 38.095684
_cell_length_c 9.371391
_cell_angle_alpha 90.000000
_cell_angle_beta 90.000000
_cell_angle_gamma 90.000000
_cell_volume 3576.921881
_symmetry_space_group_name_H-M "I M M A"
_symmetry_group_IT_number 74
_symmetry_cell_setting 'orthorhombic'
loop_
_space_group_symop_operation_xyz
x,y,z
-x,1/2-y,z
x,-y,-z
-x,1/2+y,-z
-x,-y,-z
x,1/2+y,-z
-x,y,z
x,1/2-y,z
1/2+x,1/2+y,1/2+z
1/2-x,-y,1/2+z
1/2+x,1/2-y,1/2-z
1/2-x,y,1/2-z
1/2-x,1/2-y,1/2-z
1/2+x,y,1/2-z
1/2-x,1/2+y,1/2+z
1/2+x,-y,1/2+z
loop_
_atom_site_type_symbol
_atom_site_label
_atom_site_fract_x
_atom_site_fract_y
_atom_site_fract_z
Si Si1 0.848888 0.790242 0.372344
Si Si2 0.500000 0.037830 0.425665
Si Si3 0.755315 0.580365 0.581112
Si Si4 0.342844 0.345818 0.114277
Si Si5 0.000000 0.964824 0.586035
O O1 0.816988 0.750000 0.411843
O O2 0.750000 0.803968 0.250000
O O3 0.826271 0.812411 0.514241
O O4 0.000000 0.794579 0.315835
O O5 0.377567 0.061995 0.477753
O O6 0.500000 0.030201 0.256731
O O7 0.500000 0.000000 0.500000
O O8 0.750000 0.582952 0.750000
O O9 0.784797 0.620103 0.528962
O O10 0.872947 0.555728 0.529359
O O11 0.500000 0.351855 0.156632
O O12 0.250000 0.338117 0.250000
O O13 0.000000 0.000000 0.500000
#
# Coordination Sequence:
#
# PCOD8297903 Si02
#       5
#    16   8  16  16   8
#     4   9  19  37  57  79 111 147 179 214 262 317
#     4  10  20  34  50  74  99 128 169 215 258 311
#     4   9  18  32  51  72  99 132 168 210 258 314
#     4  10  20  34  55  82 108 139 180 224 266 313
#     4  10  18  32  52  70  95 132 165 203 258 313
#
# _framework density 17.892479000000002
#
# number of rings (size 3 to 8) (size 9 to 14) (size 15 to 20)
#    0.000    2.500    1.250    0.750    5.250    1.500 
#    0.000    2.500    0.000    0.000    0.000    0.000 
#    0.000    0.000    0.000    0.000    0.000    0.000 
#
# Total GULP energy -396606.990958 kJ/mol
# GULP energy per Si atom -12393.968467 kJ/mol
# Density = 1.785175 g / cm^3
# Si number density = 17.892479 Si / 1000 Ang^3
#
#
#
# Elastic Constant Matrix: (Units=GPa)
#
#
# Indices 1 2 3 4 5 6 
#
# 1 156.2790 67.0773 48.1256 0.0014 -0.0013 0.0004
# 2 67.0773 113.9516 44.8978 0.0056 -0.0028 0.0021
# 3 48.1256 44.8978 53.4667 0.0043 -0.0010 0.0021
# 4 0.0014 0.0056 0.0043 30.9001 -0.0022 0.0021
# 5 -0.0013 -0.0028 -0.0010 -0.0022 15.8990 -0.0002
# 6 0.0004 0.0021 0.0021 0.0021 -0.0002 31.7874
#
#
#
# Elastic Compliance Matrix: (Units=1/GPa)
#
#
# Indices 1 2 3 4 5 6 
#
# 1 0.009649 -0.003374 -0.005852 0.000001 0.000000 0.000000
# 2 -0.003374 0.014295 -0.008967 -0.000001 0.000002 0.000000
# 3 -0.005852 -0.008967 0.031500 -0.000002 0.000000 -0.000001
# 4 0.000001 -0.000001 -0.000002 0.032362 0.000004 -0.000002
# 5 0.000000 0.000002 0.000000 0.000004 0.062897 0.000000
# 6 0.000000 0.000000 -0.000001 -0.000002 0.000000 0.031459
#
#
# Mechanical properties :
#
#
# Convention : Reuss Voigt Hill
#
# Bulk Modulus (GPa) = 52.46964 71.54429 62.00696
# Shear Modulus (GPa) = 22.23204 26.62372 24.42788
#
# Velocity S-wave (km/s) = 3.52879 3.86162 3.69895
# Velocity P-wave (km/s) = 6.78172 7.74308 7.27829
#
# Compressibility (1/GPa) = 0.01905864
#
# Stress axis : x y z
#
# Youngs Moduli (GPa) = 103.63626 69.95521 31.74611
#
# Poissons Ratio (x) = 0.23605 0.18577
# Poissons Ratio (y) = 0.34970 0.28466
# Poissons Ratio (z) = 0.60645 0.62726
#
# Static dielectric constant tensor:
#      x y z
#    x 3.761550 0.000010 0.000000 
#    y 0.000010 3.564720 0.000000 
#    z 0.000000 0.000000 2.891890 
# 
# 
# High freq. dielectric constant tensor:
#      x y z
#    x 1.712960 0.000000 0.000000 
#    y 0.000000 1.709120 0.000000 
#    z 0.000000 0.000000 1.648070 
# 
# From -- ./inp_files/17624.got.cif
#   From: 2010.03.12/outbox.cif.g09.slc.cpg/sg74_9_cif.got.tgz:17624.got - 2010.04.16 15:46:19.
