data_PCOD8297012
_publ_section_title
;
Structure prediction by ZEFSAII (Michael W. Deem and Ramdas Pophale) SiO2 
 PCOD8297012
Probable space group: I B C A 
;
_chemical_formula_sum "Si O2"
_cell_formula_units_Z 96
_cell_length_a 13.781821
_cell_length_b 14.002237
_cell_length_c 21.742903
_cell_angle_alpha 90.000000
_cell_angle_beta 90.000000
_cell_angle_gamma 90.000000
_cell_volume 4195.865493
_symmetry_space_group_name_H-M "I B C A "
_symmetry_group_IT_number 73
_symmetry_cell_setting 'orthorhombic'
loop_
_space_group_symop_operation_xyz
x,y,z
-x,1/2-y,z
x,-y,1/2-z
1/2-x,y,-z
-x,-y,-z
x,1/2+y,-z
-x,y,1/2+z
1/2+x,-y,z
1/2+x,1/2+y,1/2+z
1/2-x,-y,1/2+z
1/2+x,1/2-y,-z
-x,1/2+y,1/2-z
1/2-x,1/2-y,1/2-z
1/2+x,y,1/2-z
1/2-x,1/2+y,z
x,1/2-y,1/2+z
loop_
_atom_site_type_symbol
_atom_site_label
_atom_site_fract_x
_atom_site_fract_y
_atom_site_fract_z
Si Si1 0.000000 0.750000 0.146822
Si Si2 0.970583 0.144406 0.689057
Si Si3 0.566842 0.079551 0.565230
Si Si4 0.885163 0.000000 0.250000
Si Si5 0.227343 0.000944 0.642292
Si Si6 0.091544 0.568142 0.930398
Si Si7 0.817703 0.168635 0.779122
O O1 0.057297 0.673228 0.105978
O O2 0.084705 0.796046 0.187070
O O3 0.967136 0.137956 0.615051
O O4 0.867453 0.113239 0.720670
O O5 0.000000 0.250000 0.708607
O O6 0.053504 0.073959 0.711660
O O7 0.605433 0.113543 0.497856
O O8 0.638071 0.998362 0.593656
O O9 0.460364 0.033587 0.559874
O O10 0.815135 0.942578 0.201880
O O11 0.257819 0.104022 0.671663
O O12 0.308882 0.947701 0.605006
O O13 0.750000 0.250000 0.750000
#
# Coordination Sequence:
#
# PCOD8297012 Si02
#       7
#     8  16  16   8  16  16  16
#     4  12  26  52  72 114 152 196 254 322 378 452
#     4  12  25  44  72 106 148 197 245 304 387 448
#     4  11  26  48  77 100 150 197 252 308 377 443
#     4  12  24  44  72 106 152 190 238 320 380 456
#     4  12  24  46  71 107 142 193 246 302 381 452
#     4  11  25  47  73 106 142 200 248 304 370 460
#     4  12  27  44  72 112 151 191 247 314 383 456
#
# _framework density 22.879664999999999
#
# number of rings (size 3 to 8) (size 9 to 14) (size 15 to 20)
#    0.000    0.333    4.167    4.500    5.833    0.000 
#    0.000    0.000    0.000    0.000    0.000    0.000 
#    0.000    0.000    0.000    0.000    0.000    0.000 
#
# Total GULP energy -594654.998661 kJ/mol
# GULP energy per Si atom -12388.645805 kJ/mol
# Density = 2.282759 g / cm^3
# Si number density = 22.879665 Si / 1000 Ang^3
#
#
#
# Elastic Constant Matrix: (Units=GPa)
#
#
# Indices 1 2 3 4 5 6 
#
# 1 128.4474 27.5754 73.0467 0.0000 0.0000 0.0000
# 2 27.5754 68.2838 37.2781 0.0000 0.0000 0.0000
# 3 73.0467 37.2781 196.7675 0.0000 0.0000 0.0000
# 4 0.0000 0.0000 0.0000 27.8987 0.0000 0.0000
# 5 0.0000 0.0000 0.0000 0.0000 2258.6051 0.0000
# 6 0.0000 0.0000 0.0000 0.0000 0.0000 21.5678
#
#
#
# Elastic Compliance Matrix: (Units=1/GPa)
#
#
# Indices 1 2 3 4 5 6 
#
# 1 0.010178 -0.002284 -0.003346 0.000000 0.000000 0.000000
# 2 -0.002284 0.016847 -0.002344 0.000000 0.000000 0.000000
# 3 -0.003346 -0.002344 0.006768 0.000000 0.000000 0.000000
# 4 0.000000 0.000000 0.000000 0.035844 0.000000 0.000000
# 5 0.000000 0.000000 0.000000 0.000000 0.000443 0.000000
# 6 0.000000 0.000000 0.000000 0.000000 0.000000 0.046365
#
#
# Mechanical properties :
#
#
# Convention : Reuss Voigt Hill
#
# Bulk Modulus (GPa) = 56.03406 74.36656 65.20031
# Shear Modulus (GPa) = 36.14261 478.65423 257.39842
#
# Velocity S-wave (km/s) = 3.97883 14.47961 10.61815
# Velocity P-wave (km/s) = 6.75663 17.66691 13.37482
#
# Compressibility (1/GPa) = 0.01784629
#
# Stress axis : x y z
#
# Youngs Moduli (GPa) = 98.24797 59.35926 147.74801
#
# Poissons Ratio (x) = 0.13556 0.49435
# Poissons Ratio (y) = 0.22437 0.34629
# Poissons Ratio (z) = 0.32873 0.13913
#
# Static dielectric constant tensor:
#      x y z
#    x 4.579540 0.000000 0.000000 
#    y 0.000000 4.682120 0.000000 
#    z 0.000000 0.000000 4.808060 
# 
# 
# High freq. dielectric constant tensor:
#      x y z
#    x 1.930880 0.000000 0.000000 
#    y 0.000000 1.867940 0.000000 
#    z 0.000000 0.000000 1.928460 
# 
# From -- ./inp_files/26027.got.cif
#   From: 2010.03.12/outbox.cif.g09.slc.cpg/sg73_14_cif.got.tgz:26027.got - 2010.04.16 15:25:48.
