data_PCOD8297986
_publ_section_title
;
Structure prediction by ZEFSAII (Michael W. Deem and Ramdas Pophale) SiO2 
 PCOD8297986
Probable space group: I M M A
;
_chemical_formula_sum "Si O2"
_cell_formula_units_Z 104
_cell_length_a 8.679997
_cell_length_b 24.033030
_cell_length_c 25.650911
_cell_angle_alpha 90.000000
_cell_angle_beta 90.000000
_cell_angle_gamma 90.000000
_cell_volume 5350.950057
_symmetry_space_group_name_H-M "I M M A"
_symmetry_group_IT_number 74
_symmetry_cell_setting 'orthorhombic'
loop_
_space_group_symop_operation_xyz
x,y,z
-x,1/2-y,z
x,-y,-z
-x,1/2+y,-z
-x,-y,-z
x,1/2+y,-z
-x,y,z
x,1/2-y,z
1/2+x,1/2+y,1/2+z
1/2-x,-y,1/2+z
1/2+x,1/2-y,1/2-z
1/2-x,y,1/2-z
1/2-x,1/2-y,1/2-z
1/2+x,y,1/2-z
1/2-x,1/2+y,1/2+z
1/2+x,-y,1/2+z
loop_
_atom_site_type_symbol
_atom_site_label
_atom_site_fract_x
_atom_site_fract_y
_atom_site_fract_z
Si Si1 0.317967 0.630209 0.306841
Si Si2 0.684080 0.439203 0.597560
Si Si3 0.818391 0.750000 0.965998
Si Si4 0.182475 0.130350 0.999797
Si Si5 0.182904 0.564216 0.901052
Si Si6 0.682933 0.361662 0.305426
Si Si7 0.319821 0.250000 0.693955
Si Si8 0.182323 0.750000 0.648369
O O1 0.500000 0.625970 0.301234
O O2 0.250000 0.618570 0.250000
O O3 0.255001 0.585049 0.347593
O O4 0.269661 0.691048 0.331558
O O5 0.500000 0.438484 0.595815
O O6 0.750786 0.401022 0.550737
O O7 0.748782 0.501775 0.593197
O O8 0.770776 0.695580 0.999468
O O9 0.730395 0.750000 0.911638
O O10 0.000000 0.750000 0.953223
O O11 0.249784 0.100960 0.051538
O O12 0.000000 0.124726 0.999334
O O13 0.235847 0.591355 0.846688
O O14 0.000000 0.562770 0.904026
O O15 0.500000 0.356481 0.302661
O O16 0.750000 0.380351 0.250000
O O17 0.751417 0.303002 0.322130
O O18 0.500000 0.250000 0.700076
O O19 0.250000 0.250000 0.750000
O O20 0.000000 0.750000 0.653029
#
# Coordination Sequence:
#
# PCOD8297986 Si02
#       8
#    16  16   8  16  16  16   8   8
#     4   9  17  29  46  69  98 130 165 207 253 306
#     4   9  17  28  46  76 105 133 173 217 261 307
#     4  10  18  32  55  84 111 140 173 219 280 324
#     4   9  16  28  49  76 105 134 169 215 266 316
#     4   9  17  30  49  72 104 140 171 211 260 310
#     4  11  22  37  56  81 111 142 180 223 267 319
#     4   8  14  25  41  61  88 120 153 189 236 284
#     4  12  23  37  57  81 109 144 179 218 268 324
#
# _framework density 19.435801000000001
#
# number of rings (size 3 to 8) (size 9 to 14) (size 15 to 20)
#    0.000    2.462    1.538    1.846    0.000    3.077 
#    0.000    3.077    0.000    1.846    0.000    2.154 
#    0.000    0.000    0.000    0.000    0.000    0.000 
#
# Total GULP energy -644441.910121 kJ/mol
# GULP energy per Si atom -12393.113656 kJ/mol
# Density = 1.939156 g / cm^3
# Si number density = 19.435801 Si / 1000 Ang^3
#
#
#
# Elastic Constant Matrix: (Units=GPa)
#
#
# Indices 1 2 3 4 5 6 
#
# 1 29.7006 19.7748 22.0885 0.0000 0.0000 0.0000
# 2 19.7748 188.2300 95.5211 0.0000 0.0000 0.0000
# 3 22.0885 95.5211 157.0360 0.0000 0.0000 0.0000
# 4 0.0000 0.0000 0.0000 23.6331 0.0000 0.0000
# 5 0.0000 0.0000 0.0000 0.0000 21.8508 0.0000
# 6 0.0000 0.0000 0.0000 0.0000 0.0000 8.7486
#
#
#
# Elastic Compliance Matrix: (Units=1/GPa)
#
#
# Indices 1 2 3 4 5 6 
#
# 1 0.038045 -0.001853 -0.004224 0.000000 0.000000 0.000000
# 2 -0.001853 0.007775 -0.004469 0.000000 0.000000 0.000000
# 3 -0.004224 -0.004469 0.009680 0.000000 0.000000 0.000000
# 4 0.000000 0.000000 0.000000 0.042314 0.000000 0.000000
# 5 0.000000 0.000000 0.000000 0.000000 0.045765 0.000000
# 6 0.000000 0.000000 0.000000 0.000000 0.000000 0.114304
#
#
# Mechanical properties :
#
#
# Convention : Reuss Voigt Hill
#
# Bulk Modulus (GPa) = 29.06290 72.19281 50.62786
# Shear Modulus (GPa) = 17.21504 26.68531 21.95018
#
# Velocity S-wave (km/s) = 2.97936 3.70942 3.36425
# Velocity P-wave (km/s) = 5.17892 7.45461 6.41843
#
# Compressibility (1/GPa) = 0.03440813
#
# Stress axis : x y z
#
# Youngs Moduli (GPa) = 26.28483 128.61592 103.30248
#
# Poissons Ratio (x) = 0.23836 0.43635
# Poissons Ratio (y) = 0.04871 0.46163
# Poissons Ratio (z) = 0.11103 0.57475
#
# Static dielectric constant tensor:
#      x y z
#    x 3.030770 0.000000 0.000000 
#    y 0.000000 3.859520 0.000000 
#    z 0.000000 0.000000 3.683660 
# 
# 
# High freq. dielectric constant tensor:
#      x y z
#    x 1.701380 0.000000 0.000000 
#    y 0.000000 1.774940 0.000000 
#    z 0.000000 0.000000 1.757300 
# 
# From -- ./inp_files/64579.got.cif
#   From: 2010.03.12/outbox.cif.g09.slc.cpg/sg74_33_cif.got.tgz:64579.got - 2010.04.16 15:46:19.
