data_PCOD8297633
_publ_section_title
;
Structure prediction by ZEFSAII (Michael W. Deem and Ramdas Pophale) SiO2 
 PCOD8297633
Probable space group: I M M A
;
_chemical_formula_sum "Si O2"
_cell_formula_units_Z 96
_cell_length_a 24.132973
_cell_length_b 8.882752
_cell_length_c 24.424123
_cell_angle_alpha 90.000000
_cell_angle_beta 90.000000
_cell_angle_gamma 90.000000
_cell_volume 5235.731206
_symmetry_space_group_name_H-M "I M M A"
_symmetry_group_IT_number 74
_symmetry_cell_setting 'orthorhombic'
loop_
_space_group_symop_operation_xyz
x,y,z
-x,1/2-y,z
x,-y,-z
-x,1/2+y,-z
-x,-y,-z
x,1/2+y,-z
-x,y,z
x,1/2-y,z
1/2+x,1/2+y,1/2+z
1/2-x,-y,1/2+z
1/2+x,1/2-y,1/2-z
1/2-x,y,1/2-z
1/2-x,1/2-y,1/2-z
1/2+x,y,1/2-z
1/2-x,1/2+y,1/2+z
1/2+x,-y,1/2+z
loop_
_atom_site_type_symbol
_atom_site_label
_atom_site_fract_x
_atom_site_fract_y
_atom_site_fract_z
Si Si1 0.859280 0.428758 0.849481
Si Si2 0.935970 0.572576 0.942194
Si Si3 0.156753 0.073605 0.556790
Si Si4 0.234734 0.572135 0.346045
Si Si5 0.362517 0.928465 0.226997
Si Si6 0.061008 0.929289 0.368151
O O1 0.862511 0.250000 0.859500
O O2 0.897745 0.508891 0.893885
O O3 0.796581 0.493514 0.851132
O O4 0.878990 0.474981 0.788453
O O5 0.926995 0.750000 0.946708
O O6 0.000000 0.532287 0.929073
O O7 0.918003 0.500000 0.000000
O O8 0.157777 0.250000 0.548876
O O9 0.203410 0.021852 0.599224
O O10 0.096726 0.020690 0.579122
O O11 0.171231 0.000000 0.500000
O O12 0.240433 0.750000 0.341114
O O13 0.198473 0.513356 0.293613
O O14 0.360169 0.750000 0.221708
O O15 0.410164 0.992159 0.187001
O O16 0.058131 0.750000 0.365124
O O17 0.000000 0.000647 0.373324
#
# Coordination Sequence:
#
# PCOD8297633 Si02
#       6
#    16  16  16  16  16  16
#     4  10  18  29  52  81 101 122 157 197 235 282
#     4  10  22  40  57  72  96 128 159 196 243 293
#     4   9  17  29  44  62  88 122 157 194 235 275
#     4   8  15  28  45  69 101 132 160 193 235 279
#     4   8  14  25  44  71 101 130 160 195 232 275
#     4   8  14  25  41  63  91 121 154 194 235 270
#
# _framework density 18.335547999999999
#
# number of rings (size 3 to 8) (size 9 to 14) (size 15 to 20)
#    0.000    3.167    0.000    3.000    0.000    4.667 
#    0.000    4.167    0.000    6.000    0.000    0.000 
#    0.000    0.000    0.000    0.000    0.000    0.000 
#
# Total GULP energy -594735.681299 kJ/mol
# GULP energy per Si atom -12390.326694 kJ/mol
# Density = 1.829382 g / cm^3
# Si number density = 18.335548 Si / 1000 Ang^3
#
#
#
# Elastic Constant Matrix: (Units=GPa)
#
#
# Indices 1 2 3 4 5 6 
#
# 1 61.8606 15.5119 18.7574 0.0000 0.0000 0.0000
# 2 15.5119 28.6054 30.4177 0.0000 0.0000 0.0000
# 3 18.7574 30.4177 107.9273 0.0000 0.0000 0.0000
# 4 0.0000 0.0000 0.0000 25.2399 0.0000 0.0000
# 5 0.0000 0.0000 0.0000 0.0000 27.8617 0.0000
# 6 0.0000 0.0000 0.0000 0.0000 0.0000 15.6287
#
#
#
# Elastic Compliance Matrix: (Units=1/GPa)
#
#
# Indices 1 2 3 4 5 6 
#
# 1 0.018733 -0.009562 -0.000561 0.000000 0.000000 0.000000
# 2 -0.009562 0.054799 -0.013782 0.000000 0.000000 0.000000
# 3 -0.000561 -0.013782 0.013247 0.000000 0.000000 0.000000
# 4 0.000000 0.000000 0.000000 0.039620 0.000000 0.000000
# 5 0.000000 0.000000 0.000000 0.000000 0.035892 0.000000
# 6 0.000000 0.000000 0.000000 0.000000 0.000000 0.063985
#
#
# Mechanical properties :
#
#
# Convention : Reuss Voigt Hill
#
# Bulk Modulus (GPa) = 25.66141 36.41858 31.04000
# Shear Modulus (GPa) = 17.41697 22.65982 20.03840
#
# Velocity S-wave (km/s) = 3.08539 3.51927 3.30945
# Velocity P-wave (km/s) = 5.16901 6.03482 5.61862
#
# Compressibility (1/GPa) = 0.03896901
#
# Stress axis : x y z
#
# Youngs Moduli (GPa) = 53.38126 18.24843 75.48682
#
# Poissons Ratio (x) = 0.17449 0.04234
# Poissons Ratio (y) = 0.51043 1.04039
# Poissons Ratio (z) = 0.02994 0.25151
#
# Static dielectric constant tensor:
#      x y z
#    x 3.869930 0.000000 0.000000 
#    y 0.000000 2.813570 0.000000 
#    z 0.000000 0.000000 3.338540 
# 
# 
# High freq. dielectric constant tensor:
#      x y z
#    x 1.718370 0.000000 0.000000 
#    y 0.000000 1.650910 0.000000 
#    z 0.000000 0.000000 1.720140 
# 
# From -- ./inp_files/55105.got.cif
#   From: 2010.03.12/outbox.cif.g09.slc.cpg/sg74_28_cif.got.tgz:55105.got - 2010.04.16 15:46:19.
