data_PCOD8297996
_publ_section_title
;
Structure prediction by ZEFSAII (Michael W. Deem and Ramdas Pophale) SiO2 
 PCOD8297996
Probable space group: I M M A
;
_chemical_formula_sum "Si O2"
_cell_formula_units_Z 72
_cell_length_a 13.184768
_cell_length_b 8.584891
_cell_length_c 32.490839
_cell_angle_alpha 90.000000
_cell_angle_beta 90.000000
_cell_angle_gamma 90.000000
_cell_volume 3677.631443
_symmetry_space_group_name_H-M "I M M A"
_symmetry_group_IT_number 74
_symmetry_cell_setting 'orthorhombic'
loop_
_space_group_symop_operation_xyz
x,y,z
-x,1/2-y,z
x,-y,-z
-x,1/2+y,-z
-x,-y,-z
x,1/2+y,-z
-x,y,z
x,1/2-y,z
1/2+x,1/2+y,1/2+z
1/2-x,-y,1/2+z
1/2+x,1/2-y,1/2-z
1/2-x,y,1/2-z
1/2-x,1/2-y,1/2-z
1/2+x,y,1/2-z
1/2-x,1/2+y,1/2+z
1/2+x,-y,1/2+z
loop_
_atom_site_type_symbol
_atom_site_label
_atom_site_fract_x
_atom_site_fract_y
_atom_site_fract_z
Si Si1 0.186208 0.434226 0.312248
Si Si2 0.609827 0.565329 0.724456
Si Si3 0.500000 0.064796 0.454150
Si Si4 0.387564 0.066359 0.896567
Si Si5 0.708120 0.064545 0.545658
O O1 0.176408 0.250000 0.318893
O O2 0.303890 0.488827 0.307567
O O3 0.129932 0.491782 0.270971
O O4 0.136353 0.520024 0.350184
O O5 0.500000 0.502402 0.709645
O O6 0.612335 0.750000 0.726044
O O7 0.500000 0.250000 0.453177
O O8 0.500000 0.000000 0.500000
O O9 0.603781 0.000556 0.433540
O O10 0.500000 0.002751 0.908554
O O11 0.386685 0.250000 0.899703
O O12 0.302484 0.999709 0.927563
O O13 0.703106 0.250000 0.544479
O O14 0.723042 0.000000 0.500000
#
# Coordination Sequence:
#
# PCOD8297996 Si02
#       5
#    16  16   8  16  16
#     4   9  17  30  51  76 100 133 177 217 257 307
#     4   8  14  27  48  74 104 134 167 214 265 305
#     4  10  18  32  56  82 106 132 168 210 256 310
#     4  10  22  38  53  73 106 143 174 213 267 317
#     4  10  20  36  57  79 106 139 175 215 262 312
#
# _framework density 19.577819000000002
#
# number of rings (size 3 to 8) (size 9 to 14) (size 15 to 20)
#    0.000    2.667    0.000    5.000    0.000    3.556 
#    2.000    2.222    0.000    1.333    0.000    0.000 
#    0.000    0.000    0.000    0.000    0.000    0.000 
#
# Total GULP energy -446128.651013 kJ/mol
# GULP energy per Si atom -12392.462528 kJ/mol
# Density = 1.953326 g / cm^3
# Si number density = 19.577819 Si / 1000 Ang^3
#
#
#
# Elastic Constant Matrix: (Units=GPa)
#
#
# Indices 1 2 3 4 5 6 
#
# 1 206.1764 31.3729 52.7931 0.0000 0.0000 0.0000
# 2 31.3729 39.1261 14.0308 0.0000 0.0000 0.0000
# 3 52.7931 14.0308 61.0829 0.0000 0.0000 0.0000
# 4 0.0000 0.0000 0.0000 25.8486 0.0000 0.0000
# 5 0.0000 0.0000 0.0000 0.0000 29.1629 0.0000
# 6 0.0000 0.0000 0.0000 0.0000 0.0000 20.5087
#
#
#
# Elastic Compliance Matrix: (Units=1/GPa)
#
#
# Indices 1 2 3 4 5 6 
#
# 1 0.006656 -0.003568 -0.004933 0.000000 0.000000 0.000000
# 2 -0.003568 0.029765 -0.003753 0.000000 0.000000 0.000000
# 3 -0.004933 -0.003753 0.021497 0.000000 0.000000 0.000000
# 4 0.000000 0.000000 0.000000 0.038687 0.000000 0.000000
# 5 0.000000 0.000000 0.000000 0.000000 0.034290 0.000000
# 6 0.000000 0.000000 0.000000 0.000000 0.000000 0.048760
#
#
# Mechanical properties :
#
#
# Convention : Reuss Voigt Hill
#
# Bulk Modulus (GPa) = 29.93170 55.86432 42.89801
# Shear Modulus (GPa) = 23.22318 28.98326 26.10322
#
# Velocity S-wave (km/s) = 3.44786 3.85179 3.65541
# Velocity P-wave (km/s) = 5.58320 6.95544 6.30675
#
# Compressibility (1/GPa) = 0.03340940
#
# Stress axis : x y z
#
# Youngs Moduli (GPa) = 150.23090 33.59597 46.51770
#
# Poissons Ratio (x) = 0.11988 0.22949
# Poissons Ratio (y) = 0.53606 0.17459
# Poissons Ratio (z) = 0.74115 0.12609
#
# Static dielectric constant tensor:
#      x y z
#    x 4.698070 0.000000 0.000000 
#    y 0.000000 3.234310 0.000000 
#    z 0.000000 0.000000 3.358590 
# 
# 
# High freq. dielectric constant tensor:
#      x y z
#    x 1.791260 0.000000 0.000000 
#    y 0.000000 1.733420 0.000000 
#    z 0.000000 0.000000 1.735680 
# 
# From -- ./inp_files/66725.got.cif
#   From: 2010.03.12/outbox.cif.g09.slc.cpg/sg74_34_cif.got.tgz:66725.got - 2010.04.16 15:46:19.
