data_PCOD8297738
_publ_section_title
;
Structure prediction by ZEFSAII (Michael W. Deem and Ramdas Pophale) SiO2 
 PCOD8297738
Probable space group: I M M A
;
_chemical_formula_sum "Si O2"
_cell_formula_units_Z 104
_cell_length_a 9.000423
_cell_length_b 31.565833
_cell_length_c 19.404440
_cell_angle_alpha 90.000000
_cell_angle_beta 90.000000
_cell_angle_gamma 90.000000
_cell_volume 5512.914907
_symmetry_space_group_name_H-M "I M M A"
_symmetry_group_IT_number 74
_symmetry_cell_setting 'orthorhombic'
loop_
_space_group_symop_operation_xyz
x,y,z
-x,1/2-y,z
x,-y,-z
-x,1/2+y,-z
-x,-y,-z
x,1/2+y,-z
-x,y,z
x,1/2-y,z
1/2+x,1/2+y,1/2+z
1/2-x,-y,1/2+z
1/2+x,1/2-y,1/2-z
1/2-x,y,1/2-z
1/2-x,1/2-y,1/2-z
1/2+x,y,1/2-z
1/2-x,1/2+y,1/2+z
1/2+x,-y,1/2+z
loop_
_atom_site_type_symbol
_atom_site_label
_atom_site_fract_x
_atom_site_fract_y
_atom_site_fract_z
Si Si1 0.328141 0.250000 0.321521
Si Si2 0.173689 0.836946 0.182253
Si Si3 0.173175 0.956461 0.467093
Si Si4 0.672877 0.658355 0.677648
Si Si5 0.674892 0.573557 0.180939
Si Si6 0.324327 0.377511 0.462193
Si Si7 0.826746 0.703675 0.040206
O O1 0.500000 0.250000 0.306459
O O2 0.250000 0.250000 0.250000
O O3 0.285028 0.204876 0.356305
O O4 0.250000 0.817053 0.250000
O O5 0.252214 0.881275 0.164248
O O6 0.199706 0.803942 0.121141
O O7 0.000000 0.845594 0.195127
O O8 0.206083 0.956473 0.384994
O O9 0.255112 0.918744 0.505221
O O10 0.000000 0.950610 0.481738
O O11 0.232776 0.000000 0.500000
O O12 0.500000 0.656513 0.694043
O O13 0.750000 0.647975 0.750000
O O14 0.715772 0.624128 0.619313
O O15 0.500000 0.579160 0.193812
O O16 0.750000 0.553781 0.250000
O O17 0.500000 0.379117 0.474797
O O18 0.255757 0.335215 0.497716
O O19 0.757411 0.750000 0.020996
O O20 0.000000 0.705357 0.022529
#
# Coordination Sequence:
#
# PCOD8297738 Si02
#       7
#     8  16  16  16  16  16  16
#     4   8  14  26  44  70 100 134 175 216 253 302
#     4  10  18  30  50  75 105 142 181 220 262 305
#     4  10  22  40  60  82 109 142 175 215 274 331
#     4   9  18  31  50  75 104 139 179 218 263 312
#     4  10  19  33  56  81 107 138 176 217 263 316
#     4  10  20  35  56  81 107 139 180 224 266 315
#     4   9  18  31  49  75 108 144 181 219 263 313
#
# _framework density 18.864792999999999
#
# number of rings (size 3 to 8) (size 9 to 14) (size 15 to 20)
#    0.000    2.462    1.538    1.846    1.077    1.846 
#    0.000    0.769    0.000    7.385    0.000    0.000 
#    0.000    0.000    0.000    0.000    0.000    0.000 
#
# Total GULP energy -644285.160072 kJ/mol
# GULP energy per Si atom -12390.099232 kJ/mol
# Density = 1.882186 g / cm^3
# Si number density = 18.864793 Si / 1000 Ang^3
#
#
#
# Elastic Constant Matrix: (Units=GPa)
#
#
# Indices 1 2 3 4 5 6 
#
# 1 58.6680 37.5965 43.2497 0.0000 0.0000 0.0000
# 2 37.5965 126.0119 77.1432 -0.0001 0.0000 0.0000
# 3 43.2497 77.1432 121.5748 -0.0007 0.0000 0.0001
# 4 0.0000 -0.0001 -0.0007 24.9463 0.0000 0.0001
# 5 0.0000 0.0000 0.0000 0.0000 24.2107 0.0000
# 6 0.0000 0.0000 0.0001 0.0001 0.0000 15.4655
#
#
#
# Elastic Compliance Matrix: (Units=1/GPa)
#
#
# Indices 1 2 3 4 5 6 
#
# 1 0.023841 -0.003141 -0.006488 0.000000 0.000000 0.000000
# 2 -0.003141 0.013390 -0.007379 0.000000 0.000000 0.000000
# 3 -0.006488 -0.007379 0.015216 0.000000 0.000000 0.000000
# 4 0.000000 0.000000 0.000000 0.040086 0.000000 0.000000
# 5 0.000000 0.000000 0.000000 0.000000 0.041304 0.000000
# 6 0.000000 0.000000 0.000000 0.000000 0.000000 0.064660
#
#
# Mechanical properties :
#
#
# Convention : Reuss Voigt Hill
#
# Bulk Modulus (GPa) = 54.25854 69.13705 61.69780
# Shear Modulus (GPa) = 20.95046 22.80885 21.87966
#
# Velocity S-wave (km/s) = 3.33612 3.48094 3.40930
# Velocity P-wave (km/s) = 6.60786 7.27215 6.94795
#
# Compressibility (1/GPa) = 0.01843028
#
# Stress axis : x y z
#
# Youngs Moduli (GPa) = 41.94444 74.68026 65.72076
#
# Poissons Ratio (x) = 0.23458 0.42641
# Poissons Ratio (y) = 0.13175 0.48497
# Poissons Ratio (z) = 0.27214 0.55108
#
# Static dielectric constant tensor:
#      x y z
#    x 3.296940 0.000000 0.000000 
#    y 0.000000 3.320150 0.000000 
#    z 0.000000 0.000000 3.647950 
# 
# 
# High freq. dielectric constant tensor:
#      x y z
#    x 1.712580 0.000000 0.000000 
#    y 0.000000 1.713510 0.000000 
#    z 0.000000 0.000000 1.744820 
# 
# From -- ./inp_files/49589.got.cif
#   From: 2010.03.12/outbox.cif.g09.slc.cpg/sg74_25_cif.got.tgz:49589.got - 2010.04.16 15:46:19.
