data_PCOD8297472
_publ_section_title
;
Structure prediction by ZEFSAII (Michael W. Deem and Ramdas Pophale) SiO2 
 PCOD8297472
Probable space group: I M M A
;
_chemical_formula_sum "Si O2"
_cell_formula_units_Z 96
_cell_length_a 9.010716
_cell_length_b 27.398024
_cell_length_c 31.209135
_cell_angle_alpha 90.000000
_cell_angle_beta 90.000000
_cell_angle_gamma 90.000000
_cell_volume 7704.780583
_symmetry_space_group_name_H-M "I M M A"
_symmetry_group_IT_number 74
_symmetry_cell_setting 'orthorhombic'
loop_
_space_group_symop_operation_xyz
x,y,z
-x,1/2-y,z
x,-y,-z
-x,1/2+y,-z
-x,-y,-z
x,1/2+y,-z
-x,y,z
x,1/2-y,z
1/2+x,1/2+y,1/2+z
1/2-x,-y,1/2+z
1/2+x,1/2-y,1/2-z
1/2-x,y,1/2-z
1/2-x,1/2-y,1/2-z
1/2+x,y,1/2-z
1/2-x,1/2+y,1/2+z
1/2+x,-y,1/2+z
loop_
_atom_site_type_symbol
_atom_site_label
_atom_site_fract_x
_atom_site_fract_y
_atom_site_fract_z
Si Si1 0.667551 0.028659 0.955483
Si Si2 0.826740 0.805751 0.541123
Si Si3 0.173982 0.693650 0.794261
Si Si4 0.674655 0.860006 0.871938
Si Si5 0.666704 0.111575 0.503127
Si Si6 0.167739 0.945318 0.914245
O O1 0.500000 0.036327 0.939318
O O2 0.743469 0.081508 0.960996
O O3 0.757083 0.998270 0.919664
O O4 0.669048 0.000000 0.000000
O O5 0.774594 0.750000 0.537926
O O6 0.786489 0.824936 0.588322
O O7 0.741694 0.835953 0.504552
O O8 0.000000 0.811988 0.532297
O O9 0.207387 0.750000 0.804887
O O10 0.250000 0.678299 0.750000
O O11 0.244179 0.660856 0.830841
O O12 0.000000 0.683254 0.790946
O O13 0.500000 0.862946 0.863577
O O14 0.736932 0.914200 0.880421
O O15 0.500000 0.119609 0.519787
O O16 0.668006 0.081644 0.459422
O O17 0.000000 0.951878 0.897274
#
# Coordination Sequence:
#
# PCOD8297472 Si02
#       6
#    16  16  16  16  16  16
#     4   9  15  23  35  49  65  85 107 130 158 194
#     4   9  17  27  37  49  66  88 112 138 169 204
#     4  10  20  32  44  56  69  86 109 137 170 208
#     4  10  18  28  41  55  70  87 108 135 169 208
#     4   9  16  24  34  48  65  85 108 134 163 195
#     4   9  16  25  36  51  69  86 105 130 161 197
#
# _framework density 12.459797
#
# number of rings (size 3 to 8) (size 9 to 14) (size 15 to 20)
#    0.000    2.667    0.000    3.000    0.000    8.667 
#    0.000    0.000    0.000    0.000    0.000    0.000 
#    0.000    0.000    0.000    0.000    0.000    0.000 
#
# Total GULP energy -595186.240784 kJ/mol
# GULP energy per Si atom -12399.713350 kJ/mol
# Density = 1.243144 g / cm^3
# Si number density = 12.459797 Si / 1000 Ang^3
#
#
#
# Elastic Constant Matrix: (Units=GPa)
#
#
# Indices 1 2 3 4 5 6 
#
# 1 90.2551 49.8645 32.4902 0.0000 0.0000 0.0000
# 2 49.8645 85.0575 43.4247 0.0000 0.0000 0.0000
# 3 32.4902 43.4247 38.5269 0.0000 0.0000 0.0000
# 4 0.0000 0.0000 0.0000 11.2323 0.0000 0.0000
# 5 0.0000 0.0000 0.0000 0.0000 17.8405 0.0000
# 6 0.0000 0.0000 0.0000 0.0000 0.0000 22.9852
#
#
#
# Elastic Compliance Matrix: (Units=1/GPa)
#
#
# Indices 1 2 3 4 5 6 
#
# 1 0.017242 -0.006323 -0.007413 0.000000 0.000000 0.000000
# 2 -0.006323 0.030010 -0.028493 0.000000 0.000000 0.000000
# 3 -0.007413 -0.028493 0.064323 0.000000 0.000000 0.000000
# 4 0.000000 0.000000 0.000000 0.089029 0.000000 0.000000
# 5 0.000000 0.000000 0.000000 0.000000 0.056052 0.000000
# 6 0.000000 0.000000 0.000000 0.000000 0.000000 0.043506
#
#
# Mechanical properties :
#
#
# Convention : Reuss Voigt Hill
#
# Bulk Modulus (GPa) = 36.87839 51.71092 44.29466
# Shear Modulus (GPa) = 12.70131 16.28226 14.49179
#
# Velocity S-wave (km/s) = 3.19624 3.61887 3.41410
# Velocity P-wave (km/s) = 6.57902 7.68466 7.15323
#
# Compressibility (1/GPa) = 0.02711615
#
# Stress axis : x y z
#
# Youngs Moduli (GPa) = 57.99862 33.32177 15.54661
#
# Poissons Ratio (x) = 0.21070 0.11525
# Poissons Ratio (y) = 0.36674 0.44297
# Poissons Ratio (z) = 0.42994 0.94944
#
# Static dielectric constant tensor:
#      x y z
#    x 2.742980 0.000000 0.000000 
#    y 0.000000 2.557960 0.000000 
#    z 0.000000 0.000000 2.203980 
# 
# 
# High freq. dielectric constant tensor:
#      x y z
#    x 1.494440 0.000000 0.000000 
#    y 0.000000 1.460090 0.000000 
#    z 0.000000 0.000000 1.415650 
# 
# From -- ./inp_files/57495.got.cif
#   From: 2010.03.12/outbox.cif.g09.slc.cpg/sg74_29_cif.got.tgz:57495.got - 2010.04.16 15:46:19.
