data_PCOD8297680
_publ_section_title
;
Structure prediction by ZEFSAII (Michael W. Deem and Ramdas Pophale) SiO2 
 PCOD8297680
Probable space group: I M M A
;
_chemical_formula_sum "Si O2"
_cell_formula_units_Z 72
_cell_length_a 14.555875
_cell_length_b 9.254218
_cell_length_c 29.133097
_cell_angle_alpha 90.000000
_cell_angle_beta 90.000000
_cell_angle_gamma 90.000000
_cell_volume 3924.322570
_symmetry_space_group_name_H-M "I M M A"
_symmetry_group_IT_number 74
_symmetry_cell_setting 'orthorhombic'
loop_
_space_group_symop_operation_xyz
x,y,z
-x,1/2-y,z
x,-y,-z
-x,1/2+y,-z
-x,-y,-z
x,1/2+y,-z
-x,y,z
x,1/2-y,z
1/2+x,1/2+y,1/2+z
1/2-x,-y,1/2+z
1/2+x,1/2-y,1/2-z
1/2-x,y,1/2-z
1/2-x,1/2-y,1/2-z
1/2+x,y,1/2-z
1/2-x,1/2+y,1/2+z
1/2+x,-y,1/2+z
loop_
_atom_site_type_symbol
_atom_site_label
_atom_site_fract_x
_atom_site_fract_y
_atom_site_fract_z
Si Si1 0.604313 0.408084 0.040082
Si Si2 0.000000 0.422407 0.801158
Si Si3 0.500000 0.421389 0.548934
Si Si4 0.141481 0.421056 0.874472
Si Si5 0.500000 0.420362 0.800759
Si Si6 0.650711 0.578519 0.127827
O O1 0.500000 0.381978 0.024876
O O2 0.652146 0.250000 0.045659
O O3 0.602942 0.498801 0.086223
O O4 0.655508 0.500000 0.000000
O O5 0.088824 0.478052 0.829237
O O6 0.000000 0.250000 0.798428
O O7 0.000000 0.490749 0.750066
O O8 0.500000 0.250000 0.540412
O O9 0.500000 0.500000 0.500000
O O10 0.409918 0.469647 0.578496
O O11 0.141110 0.250000 0.873627
O O12 0.244943 0.479686 0.870326
O O13 0.500000 0.250000 0.795835
O O14 0.593284 0.467569 0.827008
O O15 0.645756 0.750000 0.119872
#
# Coordination Sequence:
#
# PCOD8297680 Si02
#       6
#    16   8   8  16   8  16
#     4  10  20  33  49  68  93 129 164 195 233 282
#     4   8  14  28  45  69  99 128 161 202 246 287
#     4   9  17  32  50  70  92 123 160 197 237 283
#     4   8  16  29  47  68  98 130 158 195 244 289
#     4   9  17  26  44  71 100 127 160 201 242 286
#     4  10  18  30  47  73 102 128 158 200 244 286
#
# _framework density 18.347116
#
# number of rings (size 3 to 8) (size 9 to 14) (size 15 to 20)
#    0.000    2.889    1.111    2.000    0.000    2.667 
#    0.000    7.778    0.000    0.000    0.000   10.889 
#    0.000    0.000    0.000    0.000    0.000    0.000 
#
# Total GULP energy -446056.965107 kJ/mol
# GULP energy per Si atom -12390.471253 kJ/mol
# Density = 1.830536 g / cm^3
# Si number density = 18.347116 Si / 1000 Ang^3
#
#
#
# Elastic Constant Matrix: (Units=GPa)
#
#
# Indices 1 2 3 4 5 6 
#
# 1 122.1604 18.0730 57.9854 0.0000 0.0000 0.0000
# 2 18.0730 44.6054 38.1412 0.0000 0.0000 0.0000
# 3 57.9854 38.1412 174.9536 0.0000 0.0000 0.0000
# 4 0.0000 0.0000 0.0000 18.7657 0.0000 0.0000
# 5 0.0000 0.0000 0.0000 0.0000 8.3519 0.0000
# 6 0.0000 0.0000 0.0000 0.0000 0.0000 9.2214
#
#
#
# Elastic Compliance Matrix: (Units=1/GPa)
#
#
# Indices 1 2 3 4 5 6 
#
# 1 0.009792 -0.001466 -0.002926 0.000000 0.000000 0.000000
# 2 -0.001466 0.027775 -0.005569 0.000000 0.000000 0.000000
# 3 -0.002926 -0.005569 0.007900 0.000000 0.000000 0.000000
# 4 0.000000 0.000000 0.000000 0.053289 0.000000 0.000000
# 5 0.000000 0.000000 0.000000 0.000000 0.119733 0.000000
# 6 0.000000 0.000000 0.000000 0.000000 0.000000 0.108444
#
#
# Mechanical properties :
#
#
# Convention : Reuss Voigt Hill
#
# Bulk Modulus (GPa) = 39.14701 63.34652 51.24676
# Shear Modulus (GPa) = 14.06992 22.43578 18.25285
#
# Velocity S-wave (km/s) = 2.77225 3.50072 3.15757
# Velocity P-wave (km/s) = 5.62409 7.13735 6.42542
#
# Compressibility (1/GPa) = 0.02554474
#
# Stress axis : x y z
#
# Youngs Moduli (GPa) = 102.12917 36.00368 126.58763
#
# Poissons Ratio (x) = 0.05276 0.37036
# Poissons Ratio (y) = 0.14967 0.70502
# Poissons Ratio (z) = 0.29880 0.20052
#
# Static dielectric constant tensor:
#      x y z
#    x 3.678780 0.000000 0.000000 
#    y 0.000000 3.065400 0.000000 
#    z 0.000000 0.000000 3.586430 
# 
# 
# High freq. dielectric constant tensor:
#      x y z
#    x 1.704420 0.000000 0.000000 
#    y 0.000000 1.662890 0.000000 
#    z 0.000000 0.000000 1.716400 
# 
# From -- ./inp_files/72304.got.cif
#   From: 2010.03.12/outbox.cif.g09.slc.cpg/sg74_37_cif.got.tgz:72304.got - 2010.04.16 15:46:19.
