data_PCOD8297318
_publ_section_title
;
Structure prediction by ZEFSAII (Michael W. Deem and Ramdas Pophale) SiO2 
 PCOD8297318
Probable space group: I M M A
;
_chemical_formula_sum "Si O2"
_cell_formula_units_Z 112
_cell_length_a 20.470746
_cell_length_b 17.039639
_cell_length_c 20.705027
_cell_angle_alpha 90.000000
_cell_angle_beta 90.000000
_cell_angle_gamma 90.000000
_cell_volume 7222.205812
_symmetry_space_group_name_H-M "I M M A"
_symmetry_group_IT_number 74
_symmetry_cell_setting 'orthorhombic'
loop_
_space_group_symop_operation_xyz
x,y,z
-x,1/2-y,z
x,-y,-z
-x,1/2+y,-z
-x,-y,-z
x,1/2+y,-z
-x,y,z
x,1/2-y,z
1/2+x,1/2+y,1/2+z
1/2-x,-y,1/2+z
1/2+x,1/2-y,1/2-z
1/2-x,y,1/2-z
1/2-x,1/2-y,1/2-z
1/2+x,y,1/2-z
1/2-x,1/2+y,1/2+z
1/2+x,-y,1/2+z
loop_
_atom_site_type_symbol
_atom_site_label
_atom_site_fract_x
_atom_site_fract_y
_atom_site_fract_z
Si Si1 0.736118 0.549458 0.181444
Si Si2 0.572525 0.659901 0.740141
Si Si3 0.292986 0.661868 0.923742
Si Si4 0.205475 0.392510 0.186557
Si Si5 0.572151 0.438135 0.947254
Si Si6 0.115749 0.050786 0.349390
Si Si7 0.696626 0.840274 0.067151
O O1 0.750000 0.593671 0.250000
O O2 0.793391 0.485516 0.170009
O O3 0.670883 0.496627 0.190393
O O4 0.733410 0.609482 0.122067
O O5 0.500000 0.648849 0.708741
O O6 0.583597 0.750000 0.760095
O O7 0.630293 0.633556 0.692599
O O8 0.574677 0.607652 0.804258
O O9 0.321398 0.750000 0.920673
O O10 0.232490 0.654876 0.874920
O O11 0.350169 0.601767 0.905667
O O12 0.269269 0.645173 0.997623
O O13 0.250000 0.372134 0.250000
O O14 0.500000 0.405462 0.964104
O O15 0.568002 0.486827 0.880543
O O16 0.621007 0.365408 0.939654
O O17 0.597721 0.500000 0.000000
O O18 0.699412 0.750000 0.088784
#
# Coordination Sequence:
#
# PCOD8297318 Si02
#       7
#    16  16  16  16  16  16  16
#     4   9  17  32  52  70  90 117 164 200 242 288
#     4  11  21  30  43  71 104 129 159 199 238 279
#     4  10  18  28  45  68  97 127 162 196 235 285
#     4  10  18  31  49  70  93 133 166 195 231 287
#     4  10  19  31  45  61  91 135 170 192 230 284
#     4  10  17  29  46  65  92 129 166 197 225 272
#     4  10  21  33  48  72  96 119 158 212 255 282
#
# _framework density 15.507728
#
# number of rings (size 3 to 8) (size 9 to 14) (size 15 to 20)
#    0.000    2.000    5.714    1.286    0.000    1.143 
#    0.000    0.000    0.000    0.000    0.000    2.000 
#    0.000    1.714    0.000    0.000    0.000    0.000 
#
# Total GULP energy -693919.537574 kJ/mol
# GULP energy per Si atom -12391.420314 kJ/mol
# Density = 1.547243 g / cm^3
# Si number density = 15.507728 Si / 1000 Ang^3
#
#
#
# Elastic Constant Matrix: (Units=GPa)
#
#
# Indices 1 2 3 4 5 6 
#
# 1 76.8069 32.8352 34.9152 0.0000 0.0000 0.0000
# 2 32.8352 79.7385 46.9863 0.0000 0.0000 0.0000
# 3 34.9152 46.9863 98.4538 0.0000 0.0000 0.0000
# 4 0.0000 0.0000 0.0000 25.7381 0.0000 0.0000
# 5 0.0000 0.0000 0.0000 0.0000 16.0948 0.0000
# 6 0.0000 0.0000 0.0000 0.0000 0.0000 16.6315
#
#
#
# Elastic Compliance Matrix: (Units=1/GPa)
#
#
# Indices 1 2 3 4 5 6 
#
# 1 0.016705 -0.004714 -0.003675 0.000000 0.000000 0.000000
# 2 -0.004714 0.018778 -0.007290 0.000000 0.000000 0.000000
# 3 -0.003675 -0.007290 0.014939 0.000000 0.000000 0.000000
# 4 0.000000 0.000000 0.000000 0.038853 0.000000 0.000000
# 5 0.000000 0.000000 0.000000 0.000000 0.062132 0.000000
# 6 0.000000 0.000000 0.000000 0.000000 0.000000 0.060127
#
#
# Mechanical properties :
#
#
# Convention : Reuss Voigt Hill
#
# Bulk Modulus (GPa) = 52.45026 53.83029 53.14027
# Shear Modulus (GPa) = 20.06056 21.04371 20.55213
#
# Velocity S-wave (km/s) = 3.60055 3.68772 3.64439
# Velocity P-wave (km/s) = 7.15407 7.27459 7.21458
#
# Compressibility (1/GPa) = 0.01906568
#
# Stress axis : x y z
#
# Youngs Moduli (GPa) = 59.86148 53.25500 66.93781
#
# Poissons Ratio (x) = 0.25103 0.24598
# Poissons Ratio (y) = 0.28217 0.48796
# Poissons Ratio (z) = 0.21997 0.38822
#
# Static dielectric constant tensor:
#      x y z
#    x 2.818290 0.000000 0.000000 
#    y 0.000000 2.960560 0.000000 
#    z 0.000000 0.000000 3.022410 
# 
# 
# High freq. dielectric constant tensor:
#      x y z
#    x 1.567920 0.000000 0.000000 
#    y 0.000000 1.593350 0.000000 
#    z 0.000000 0.000000 1.587620 
# 
# From -- ./inp_files/54109.got.cif
#   From: 2010.03.12/outbox.cif.g09.slc.cpg/sg74_28_cif.got.tgz:54109.got - 2010.04.16 15:46:19.
