data_PCOD8297351
_publ_section_title
;
Structure prediction by ZEFSAII (Michael W. Deem and Ramdas Pophale) SiO2 
 PCOD8297351
Probable space group: I M M A
;
_chemical_formula_sum "Si O2"
_cell_formula_units_Z 80
_cell_length_a 23.295287
_cell_length_b 13.351602
_cell_length_c 16.416809
_cell_angle_alpha 90.000000
_cell_angle_beta 90.000000
_cell_angle_gamma 90.000000
_cell_volume 5106.110261
_symmetry_space_group_name_H-M "I M M A"
_symmetry_group_IT_number 74
_symmetry_cell_setting 'orthorhombic'
loop_
_space_group_symop_operation_xyz
x,y,z
-x,1/2-y,z
x,-y,-z
-x,1/2+y,-z
-x,-y,-z
x,1/2+y,-z
-x,y,z
x,1/2-y,z
1/2+x,1/2+y,1/2+z
1/2-x,-y,1/2+z
1/2+x,1/2-y,1/2-z
1/2-x,y,1/2-z
1/2-x,1/2-y,1/2-z
1/2+x,y,1/2-z
1/2-x,1/2+y,1/2+z
1/2+x,-y,1/2+z
loop_
_atom_site_type_symbol
_atom_site_label
_atom_site_fract_x
_atom_site_fract_y
_atom_site_fract_z
Si Si1 0.337467 0.631809 0.267806
Si Si2 0.732944 0.439622 0.874864
Si Si3 0.065979 0.450860 0.873136
Si Si4 0.741532 0.363196 0.454954
Si Si5 0.107475 0.137262 0.038192
O O1 0.341120 0.750000 0.257442
O O2 0.322222 0.582587 0.180830
O O3 0.289694 0.605151 0.334124
O O4 0.398325 0.588567 0.296191
O O5 0.738260 0.560032 0.884952
O O6 0.724388 0.386063 0.961770
O O7 0.082285 0.565672 0.892258
O O8 0.000000 0.443499 0.847941
O O9 0.077421 0.382766 0.952034
O O10 0.754004 0.250000 0.425521
O O11 0.674795 0.382056 0.473143
O O12 0.094382 0.250000 0.066049
#
# Coordination Sequence:
#
# PCOD8297351 Si02
#       5
#    16  16  16  16  16
#     4  11  20  31  46  67  92 124 156 189 236 275
#     4  10  18  31  48  68  95 119 154 190 231 281
#     4  11  21  32  45  66  95 126 163 197 222 265
#     4  10  17  30  51  72  94 122 154 191 229 275
#     4  10  18  31  47  67  95 127 160 188 221 270
#
# _framework density 15.667503
#
# number of rings (size 3 to 8) (size 9 to 14) (size 15 to 20)
#    0.000    1.600    4.000    5.400    0.000    2.800 
#    0.000    3.000    0.000    0.000    0.000    2.800 
#    0.000    1.600    0.000    0.000    0.000    0.000 
#
# Total GULP energy -496066.275111 kJ/mol
# GULP energy per Si atom -12401.656878 kJ/mol
# Density = 1.563184 g / cm^3
# Si number density = 15.667503 Si / 1000 Ang^3
#
#
#
# Elastic Constant Matrix: (Units=GPa)
#
#
# Indices 1 2 3 4 5 6 
#
# 1 80.4471 57.3347 55.2501 0.0000 0.0000 0.0000
# 2 57.3347 143.3416 44.5664 0.0000 0.0000 0.0000
# 3 55.2501 44.5664 64.0916 0.0000 0.0000 0.0000
# 4 0.0000 0.0000 0.0000 21.2777 0.0000 0.0000
# 5 0.0000 0.0000 0.0000 0.0000 19.4301 0.0000
# 6 0.0000 0.0000 0.0000 0.0000 0.0000 9.8953
#
#
#
# Elastic Compliance Matrix: (Units=1/GPa)
#
#
# Indices 1 2 3 4 5 6 
#
# 1 0.033745 -0.005682 -0.025139 0.000000 0.000000 0.000000
# 2 -0.005682 0.009857 -0.001956 0.000000 0.000000 0.000000
# 3 -0.025139 -0.001956 0.038634 0.000000 0.000000 0.000000
# 4 0.000000 0.000000 0.000000 0.046998 0.000000 0.000000
# 5 0.000000 0.000000 0.000000 0.000000 0.051467 0.000000
# 6 0.000000 0.000000 0.000000 0.000000 0.000000 0.101058
#
#
# Mechanical properties :
#
#
# Convention : Reuss Voigt Hill
#
# Bulk Modulus (GPa) = 59.94436 66.90918 63.42677
# Shear Modulus (GPa) = 14.16938 18.83589 16.50263
#
# Velocity S-wave (km/s) = 3.01055 3.47108 3.24898
# Velocity P-wave (km/s) = 7.10126 7.67222 7.39225
#
# Compressibility (1/GPa) = 0.01668214
#
# Stress axis : x y z
#
# Youngs Moduli (GPa) = 29.63397 101.44915 25.88371
#
# Poissons Ratio (x) = 0.57638 0.65070
# Poissons Ratio (y) = 0.16837 0.05064
# Poissons Ratio (z) = 0.74498 0.19848
#
# Static dielectric constant tensor:
#      x y z
#    x 2.824790 0.000000 0.000000 
#    y 0.000000 3.226920 0.000000 
#    z 0.000000 0.000000 2.882270 
# 
# 
# High freq. dielectric constant tensor:
#      x y z
#    x 1.571080 0.000000 0.000000 
#    y 0.000000 1.621560 0.000000 
#    z 0.000000 0.000000 1.573100 
# 
# From -- ./inp_files/36321.got.cif
#   From: 2010.03.12/outbox.cif.g09.slc.cpg/sg74_19_cif.got.tgz:36321.got - 2010.04.16 15:46:19.
