data_PCOD8297290
_publ_section_title
;
Structure prediction by ZEFSAII (Michael W. Deem and Ramdas Pophale) SiO2 
 PCOD8297290
Probable space group: I M M A
;
_chemical_formula_sum "Si O2"
_cell_formula_units_Z 88
_cell_length_a 19.964866
_cell_length_b 22.716453
_cell_length_c 12.894801
_cell_angle_alpha 90.000000
_cell_angle_beta 90.000000
_cell_angle_gamma 90.000000
_cell_volume 5848.191220
_symmetry_space_group_name_H-M "I M M A"
_symmetry_group_IT_number 74
_symmetry_cell_setting 'orthorhombic'
loop_
_space_group_symop_operation_xyz
x,y,z
-x,1/2-y,z
x,-y,-z
-x,1/2+y,-z
-x,-y,-z
x,1/2+y,-z
-x,y,z
x,1/2-y,z
1/2+x,1/2+y,1/2+z
1/2-x,-y,1/2+z
1/2+x,1/2-y,1/2-z
1/2-x,y,1/2-z
1/2-x,1/2-y,1/2-z
1/2+x,y,1/2-z
1/2-x,1/2+y,1/2+z
1/2+x,-y,1/2+z
loop_
_atom_site_type_symbol
_atom_site_label
_atom_site_fract_x
_atom_site_fract_y
_atom_site_fract_z
Si Si1 0.142179 0.183185 0.775972
Si Si2 0.271003 0.315414 0.918160
Si Si3 0.858648 0.500000 0.000000
Si Si4 0.263862 0.075500 0.037575
Si Si5 0.190977 0.984333 0.328059
Si Si6 0.423039 0.437140 0.691539
O O1 0.112125 0.250000 0.780418
O O2 0.202667 0.177914 0.855708
O O3 0.168084 0.168800 0.659743
O O4 0.088662 0.133560 0.808568
O O5 0.280609 0.250000 0.960598
O O6 0.267311 0.354448 0.023094
O O7 0.811382 0.450285 0.053143
O O8 0.905150 0.533026 0.082378
O O9 0.306100 0.053701 0.138235
O O10 0.295870 0.052036 0.931449
O O11 0.250000 0.966316 0.250000
O O12 0.119340 0.968993 0.281175
O O13 0.500000 0.449145 0.716450
#
# Coordination Sequence:
#
# PCOD8297290 Si02
#       6
#    16  16   8  16  16  16
#     4   9  17  28  45  68  95 125 150 180 228 281
#     4   9  15  26  48  72  91 113 154 196 228 271
#     4  10  19  30  46  70  93 126 152 190 227 276
#     4  10  17  27  53  69  88 118 161 192 228 281
#     4  10  17  30  47  68  90 124 156 188 233 273
#     4  12  21  31  46  70 101 125 155 190 224 276
#
# _framework density 15.047388
#
# number of rings (size 3 to 8) (size 9 to 14) (size 15 to 20)
#    0.000    2.182    7.273    1.364    0.000    0.364 
#    0.000    1.818    0.000    0.545    0.000    0.000 
#    0.000    2.909    0.000    0.000    0.000    0.000 
#
# Total GULP energy -545152.943862 kJ/mol
# GULP energy per Si atom -12389.839633 kJ/mol
# Density = 1.501314 g / cm^3
# Si number density = 15.047388 Si / 1000 Ang^3
#
#
#
# Elastic Constant Matrix: (Units=GPa)
#
#
# Indices 1 2 3 4 5 6 
#
# 1 96.6342 40.3265 35.0010 0.0000 0.0000 0.0000
# 2 40.3265 97.3183 30.2833 0.0000 0.0000 0.0000
# 3 35.0010 30.2833 43.1285 0.0000 0.0000 0.0000
# 4 0.0000 0.0000 0.0000 30.9703 0.0000 0.0000
# 5 0.0000 0.0000 0.0000 0.0000 17.3432 0.0000
# 6 0.0000 0.0000 0.0000 0.0000 0.0000 15.1980
#
#
#
# Elastic Compliance Matrix: (Units=1/GPa)
#
#
# Indices 1 2 3 4 5 6 
#
# 1 0.015392 -0.003188 -0.010253 0.000000 0.000000 0.000000
# 2 -0.003188 0.013809 -0.007109 0.000000 0.000000 0.000000
# 3 -0.010253 -0.007109 0.036499 0.000000 0.000000 0.000000
# 4 0.000000 0.000000 0.000000 0.032289 0.000000 0.000000
# 5 0.000000 0.000000 0.000000 0.000000 0.057659 0.000000
# 6 0.000000 0.000000 0.000000 0.000000 0.000000 0.065798
#
#
# Mechanical properties :
#
#
# Convention : Reuss Voigt Hill
#
# Bulk Modulus (GPa) = 40.65000 49.81138 45.23069
# Shear Modulus (GPa) = 18.46743 21.46699 19.96721
#
# Velocity S-wave (km/s) = 3.50706 3.78117 3.64669
# Velocity P-wave (km/s) = 6.59338 7.22758 6.91775
#
# Compressibility (1/GPa) = 0.02460024
#
# Stress axis : x y z
#
# Youngs Moduli (GPa) = 64.96748 72.41867 27.39769
#
# Poissons Ratio (x) = 0.23084 0.28092
# Poissons Ratio (y) = 0.20709 0.19477
# Poissons Ratio (z) = 0.66614 0.51483
#
# Static dielectric constant tensor:
#      x y z
#    x 2.622190 0.000000 0.000000 
#    y 0.000000 3.410870 0.000000 
#    z 0.000000 0.000000 2.929160 
# 
# 
# High freq. dielectric constant tensor:
#      x y z
#    x 1.543560 0.000000 0.000000 
#    y 0.000000 1.582130 0.000000 
#    z 0.000000 0.000000 1.554340 
# 
# From -- ./inp_files/34414.got.cif
#   From: 2010.03.12/outbox.cif.g09.slc.cpg/sg74_18_cif.got.tgz:34414.got - 2010.04.16 15:46:19.
