data_PCOD8297906
_publ_section_title
;
Structure prediction by ZEFSAII (Michael W. Deem and Ramdas Pophale) SiO2 
 PCOD8297906
Probable space group: I M M A
;
_chemical_formula_sum "Si O2"
_cell_formula_units_Z 88
_cell_length_a 18.286569
_cell_length_b 8.736388
_cell_length_c 30.288692
_cell_angle_alpha 90.000000
_cell_angle_beta 90.000000
_cell_angle_gamma 90.000000
_cell_volume 4838.877878
_symmetry_space_group_name_H-M "I M M A"
_symmetry_group_IT_number 74
_symmetry_cell_setting 'orthorhombic'
loop_
_space_group_symop_operation_xyz
x,y,z
-x,1/2-y,z
x,-y,-z
-x,1/2+y,-z
-x,-y,-z
x,1/2+y,-z
-x,y,z
x,1/2-y,z
1/2+x,1/2+y,1/2+z
1/2-x,-y,1/2+z
1/2+x,1/2-y,1/2-z
1/2-x,y,1/2-z
1/2-x,1/2-y,1/2-z
1/2+x,y,1/2-z
1/2-x,1/2+y,1/2+z
1/2+x,-y,1/2+z
loop_
_atom_site_type_symbol
_atom_site_label
_atom_site_fract_x
_atom_site_fract_y
_atom_site_fract_z
Si Si1 0.919782 0.069353 0.854643
Si Si2 0.148871 0.932569 0.451622
Si Si3 0.916180 0.421229 0.237596
Si Si4 0.733135 0.568232 0.381408
Si Si5 0.198181 0.927264 0.291279
Si Si6 0.000000 0.433084 0.451068
O O1 0.925011 0.250000 0.857464
O O2 0.852066 0.011166 0.885451
O O3 0.000000 0.999248 0.868422
O O4 0.900028 0.027444 0.804531
O O5 0.141912 0.750000 0.453893
O O6 0.218279 0.987471 0.422597
O O7 0.161966 0.000000 0.500000
O O8 0.074770 0.001852 0.429228
O O9 0.890075 0.250000 0.225946
O O10 0.876298 0.483678 0.281117
O O11 0.000000 0.424426 0.250796
O O12 0.733263 0.750000 0.379063
O O13 0.767028 0.503832 0.335903
O O14 0.179949 0.750000 0.297449
O O15 0.250000 0.958762 0.250000
O O16 0.000000 0.500000 0.500000
O O17 0.000000 0.250000 0.450723
#
# Coordination Sequence:
#
# PCOD8297906 Si02
#       6
#    16  16  16  16  16   8
#     4   9  16  30  53  75  95 126 170 210 243 284
#     4  10  19  34  55  76 103 130 164 204 248 294
#     4  10  20  32  45  66  99 134 166 201 245 292
#     4   9  18  32  51  77 100 125 162 209 249 288
#     4  10  18  32  52  71  96 127 167 208 244 287
#     4  10  18  32  54  78 102 128 166 202 244 294
#
# _framework density 18.186033999999999
#
# number of rings (size 3 to 8) (size 9 to 14) (size 15 to 20)
#    0.000    2.364    1.818    3.000    0.000    1.455 
#    1.636    3.636    0.000    0.545    0.000    0.000 
#    0.000    0.000    0.000    0.000    0.000    0.727 
#
# Total GULP energy -545238.390755 kJ/mol
# GULP energy per Si atom -12391.781608 kJ/mol
# Density = 1.814464 g / cm^3
# Si number density = 18.186034 Si / 1000 Ang^3
#
#
#
# Elastic Constant Matrix: (Units=GPa)
#
#
# Indices 1 2 3 4 5 6 
#
# 1 170.7251 37.0107 70.0755 0.0000 0.0000 0.0000
# 2 37.0107 49.0042 18.9057 0.0000 0.0000 0.0000
# 3 70.0755 18.9057 72.4138 0.0000 0.0000 0.0000
# 4 0.0000 0.0000 0.0000 14.2941 0.0000 0.0000
# 5 0.0000 0.0000 0.0000 0.0000 32.5309 0.0000
# 6 0.0000 0.0000 0.0000 0.0000 0.0000 19.5510
#
#
#
# Elastic Compliance Matrix: (Units=1/GPa)
#
#
# Indices 1 2 3 4 5 6 
#
# 1 0.010530 -0.004472 -0.009023 0.000000 0.000000 0.000000
# 2 -0.004472 0.024591 -0.002093 0.000000 0.000000 0.000000
# 3 -0.009023 -0.002093 0.023087 0.000000 0.000000 0.000000
# 4 0.000000 0.000000 0.000000 0.069959 0.000000 0.000000
# 5 0.000000 0.000000 0.000000 0.000000 0.030740 0.000000
# 6 0.000000 0.000000 0.000000 0.000000 0.000000 0.051148
#
#
# Mechanical properties :
#
#
# Convention : Reuss Voigt Hill
#
# Bulk Modulus (GPa) = 36.99034 60.45855 48.72444
# Shear Modulus (GPa) = 19.98065 24.35194 22.16629
#
# Velocity S-wave (km/s) = 3.31823 3.66327 3.49501
# Velocity P-wave (km/s) = 5.92157 7.15607 6.56789
#
# Compressibility (1/GPa) = 0.02703409
#
# Stress axis : x y z
#
# Youngs Moduli (GPa) = 94.96404 40.66470 43.31406
#
# Poissons Ratio (x) = 0.18186 0.39081
# Poissons Ratio (y) = 0.42469 0.09064
# Poissons Ratio (z) = 0.85683 0.08509
#
# Static dielectric constant tensor:
#      x y z
#    x 4.156550 0.000000 0.000000 
#    y 0.000000 3.213640 0.000000 
#    z 0.000000 0.000000 3.078490 
# 
# 
# High freq. dielectric constant tensor:
#      x y z
#    x 1.726670 0.000000 0.000000 
#    y 0.000000 1.688850 0.000000 
#    z 0.000000 0.000000 1.660420 
# 
# From -- ./inp_files/72963.got.cif
#   From: 2010.03.12/outbox.cif.g09.slc.cpg/sg74_37_cif.got.tgz:72963.got - 2010.04.16 15:46:19.
