data_PCOD8297824
_publ_section_title
;
Structure prediction by ZEFSAII (Michael W. Deem and Ramdas Pophale) SiO2 
 PCOD8297824
Probable space group: I M M A
;
_chemical_formula_sum "Si O2"
_cell_formula_units_Z 88
_cell_length_a 19.292123
_cell_length_b 9.254579
_cell_length_c 27.382325
_cell_angle_alpha 90.000000
_cell_angle_beta 90.000000
_cell_angle_gamma 90.000000
_cell_volume 4888.853350
_symmetry_space_group_name_H-M "I M M A"
_symmetry_group_IT_number 74
_symmetry_cell_setting 'orthorhombic'
loop_
_space_group_symop_operation_xyz
x,y,z
-x,1/2-y,z
x,-y,-z
-x,1/2+y,-z
-x,-y,-z
x,1/2+y,-z
-x,y,z
x,1/2-y,z
1/2+x,1/2+y,1/2+z
1/2-x,-y,1/2+z
1/2+x,1/2-y,1/2-z
1/2-x,y,1/2-z
1/2-x,1/2-y,1/2-z
1/2+x,y,1/2-z
1/2-x,1/2+y,1/2+z
1/2+x,-y,1/2+z
loop_
_atom_site_type_symbol
_atom_site_label
_atom_site_fract_x
_atom_site_fract_y
_atom_site_fract_z
Si Si1 0.262880 0.582058 0.638609
Si Si2 0.359869 0.918670 0.549293
Si Si3 0.500000 0.994352 0.296398
Si Si4 0.137659 0.581944 0.323696
Si Si5 0.348746 0.592424 0.287127
Si Si6 0.000000 0.414181 0.095149
Si Si7 0.000000 0.412824 0.309718
O O1 0.246351 0.750000 0.647405
O O2 0.297119 0.554096 0.586328
O O3 0.192822 0.489026 0.639574
O O4 0.316420 0.533571 0.680560
O O5 0.368626 0.750000 0.538305
O O6 0.430721 0.985923 0.572391
O O7 0.340845 0.000000 0.500000
O O8 0.500000 0.083336 0.346397
O O9 0.500000 0.098794 0.249258
O O10 0.568389 0.896303 0.294021
O O11 0.126083 0.750000 0.336285
O O12 0.168681 0.561306 0.269372
O O13 0.065954 0.498134 0.330160
O O14 0.318290 0.750000 0.302166
O O15 0.000000 0.250000 0.078686
O O16 0.000000 0.250000 0.330445
#
# Coordination Sequence:
#
# PCOD8297824 Si02
#       7
#    16  16   8  16  16   8   8
#     4  11  22  35  53  76 103 136 178 224 270 320
#     4  10  22  38  55  76 103 137 179 231 278 320
#     4  10  18  31  50  75 107 143 186 225 263 305
#     4  10  21  36  53  76 109 143 174 214 262 316
#     4  10  20  33  49  73 106 142 181 221 263 313
#     4  10  18  34  53  73 104 138 180 229 273 307
#     4  10  20  33  55  82 109 142 179 215 258 313
#
# _framework density 18.000132000000001
#
# number of rings (size 3 to 8) (size 9 to 14) (size 15 to 20)
#    0.000    1.818    1.818    2.727    0.000    9.455 
#    0.000    0.000    0.000    0.000    0.000    0.636 
#    0.000    0.000    0.000    0.000    0.000    0.000 
#
# Total GULP energy -545609.096939 kJ/mol
# GULP energy per Si atom -12400.206749 kJ/mol
# Density = 1.795916 g / cm^3
# Si number density = 18.000132 Si / 1000 Ang^3
#
#
#
# Elastic Constant Matrix: (Units=GPa)
#
#
# Indices 1 2 3 4 5 6 
#
# 1 110.2617 63.0328 51.9199 0.0000 0.0000 0.0000
# 2 63.0328 116.0878 46.0452 0.0000 0.0000 0.0000
# 3 51.9199 46.0452 78.5144 0.0000 0.0000 0.0000
# 4 0.0000 0.0000 0.0000 24.4417 0.0000 0.0000
# 5 0.0000 0.0000 0.0000 0.0000 20.8657 0.0000
# 6 0.0000 0.0000 0.0000 0.0000 0.0000 28.1426
#
#
#
# Elastic Compliance Matrix: (Units=1/GPa)
#
#
# Indices 1 2 3 4 5 6 
#
# 1 0.015623 -0.005714 -0.006980 0.000000 0.000000 0.000000
# 2 -0.005714 0.013315 -0.004030 0.000000 0.000000 0.000000
# 3 -0.006980 -0.004030 0.019716 0.000000 0.000000 0.000000
# 4 0.000000 0.000000 0.000000 0.040914 0.000000 0.000000
# 5 0.000000 0.000000 0.000000 0.000000 0.047925 0.000000
# 6 0.000000 0.000000 0.000000 0.000000 0.000000 0.035533
#
#
# Mechanical properties :
#
#
# Convention : Reuss Voigt Hill
#
# Bulk Modulus (GPa) = 65.76674 69.65109 67.70892
# Shear Modulus (GPa) = 23.63588 24.28106 23.95847
#
# Velocity S-wave (km/s) = 3.62760 3.67677 3.65227
# Velocity P-wave (km/s) = 7.35949 7.53682 7.44868
#
# Compressibility (1/GPa) = 0.01520526
#
# Stress axis : x y z
#
# Youngs Moduli (GPa) = 64.00998 75.10101 50.72125
#
# Poissons Ratio (x) = 0.42914 0.35402
# Poissons Ratio (y) = 0.36577 0.20442
# Poissons Ratio (z) = 0.44677 0.30267
#
# Static dielectric constant tensor:
#      x y z
#    x 3.452840 0.000000 0.000000 
#    y 0.000000 3.224030 0.000000 
#    z 0.000000 0.000000 3.024750 
# 
# 
# High freq. dielectric constant tensor:
#      x y z
#    x 1.705030 0.000000 0.000000 
#    y 0.000000 1.698170 0.000000 
#    z 0.000000 0.000000 1.658810 
# 
# From -- ./inp_files/61460.got.cif
#   From: 2010.03.12/outbox.cif.g09.slc.cpg/sg74_31_cif.got.tgz:61460.got - 2010.04.16 15:46:19.
