data_PCOD8297937
_publ_section_title
;
Structure prediction by ZEFSAII (Michael W. Deem and Ramdas Pophale) SiO2 
 PCOD8297937
Probable space group: I M M A
;
_chemical_formula_sum "Si O2"
_cell_formula_units_Z 72
_cell_length_a 8.749415
_cell_length_b 28.477457
_cell_length_c 15.286736
_cell_angle_alpha 90.000000
_cell_angle_beta 90.000000
_cell_angle_gamma 90.000000
_cell_volume 3808.859796
_symmetry_space_group_name_H-M "I M M A"
_symmetry_group_IT_number 74
_symmetry_cell_setting 'orthorhombic'
loop_
_space_group_symop_operation_xyz
x,y,z
-x,1/2-y,z
x,-y,-z
-x,1/2+y,-z
-x,-y,-z
x,1/2+y,-z
-x,y,z
x,1/2-y,z
1/2+x,1/2+y,1/2+z
1/2-x,-y,1/2+z
1/2+x,1/2-y,1/2-z
1/2-x,y,1/2-z
1/2-x,1/2-y,1/2-z
1/2+x,y,1/2-z
1/2-x,1/2+y,1/2+z
1/2+x,-y,1/2+z
loop_
_atom_site_type_symbol
_atom_site_label
_atom_site_fract_x
_atom_site_fract_y
_atom_site_fract_z
Si Si1 0.180216 0.106042 0.984229
Si Si2 0.181389 0.250000 0.154883
Si Si3 0.821989 0.459795 0.659218
Si Si4 0.175981 0.301253 0.491886
Si Si5 0.178900 0.069240 0.341499
O O1 0.246622 0.067154 0.920506
O O2 0.000000 0.103362 0.980825
O O3 0.237549 0.157899 0.954438
O O4 0.239881 0.097713 0.081895
O O5 0.250000 0.250000 0.250000
O O6 0.243820 0.296168 0.103627
O O7 0.000000 0.250000 0.157971
O O8 0.750000 0.442197 0.750000
O O9 0.788009 0.514353 0.643916
O O10 0.000000 0.448481 0.661377
O O11 0.189763 0.250000 0.540407
O O12 0.000000 0.315576 0.479339
O O13 0.250000 0.086116 0.250000
O O14 0.000000 0.080282 0.341945
#
# Coordination Sequence:
#
# PCOD8297937 Si02
#       5
#    16   8  16  16  16
#     4  12  23  35  57  85 114 150 190 233 280 338
#     4  10  18  32  52  76 105 138 177 220 270 326
#     4  10  21  38  59  83 113 148 188 235 284 337
#     4   9  20  37  55  76 104 141 182 227 275 325
#     4  10  21  37  56  81 115 151 189 233 280 334
#
# _framework density 18.903293999999999
#
# number of rings (size 3 to 8) (size 9 to 14) (size 15 to 20)
#    0.667    1.111    0.000    5.333    0.000    6.222 
#    0.000    4.444    0.000    0.667    0.000    0.000 
#    0.000    0.000    0.000    0.000    0.000    0.000 
#
# Total GULP energy -446329.435086 kJ/mol
# GULP energy per Si atom -12398.039864 kJ/mol
# Density = 1.886027 g / cm^3
# Si number density = 18.903294 Si / 1000 Ang^3
#
#
#
# Elastic Constant Matrix: (Units=GPa)
#
#
# Indices 1 2 3 4 5 6 
#
# 1 127.6386 37.7833 25.8294 0.0003 0.0000 0.0001
# 2 37.7833 66.1505 21.6622 0.0004 0.0000 0.0001
# 3 25.8294 21.6622 59.0898 0.0018 0.0000 0.0003
# 4 0.0003 0.0004 0.0018 14.4235 0.0000 0.0001
# 5 0.0000 0.0000 0.0000 0.0000 35.9020 0.0000
# 6 0.0001 0.0001 0.0003 0.0001 0.0000 27.6900
#
#
#
# Elastic Compliance Matrix: (Units=1/GPa)
#
#
# Indices 1 2 3 4 5 6 
#
# 1 0.009749 -0.004742 -0.002523 0.000000 0.000000 0.000000
# 2 -0.004742 0.019486 -0.005071 0.000000 0.000000 0.000000
# 3 -0.002523 -0.005071 0.019885 -0.000002 0.000000 0.000000
# 4 0.000000 0.000000 -0.000002 0.069331 0.000000 0.000000
# 5 0.000000 0.000000 0.000000 0.000000 0.027854 0.000000
# 6 0.000000 0.000000 0.000000 0.000000 0.000000 0.036114
#
#
# Mechanical properties :
#
#
# Convention : Reuss Voigt Hill
#
# Bulk Modulus (GPa) = 40.90218 47.04763 43.97490
# Shear Modulus (GPa) = 23.22986 26.77671 25.00329
#
# Velocity S-wave (km/s) = 3.50934 3.76774 3.64083
# Velocity P-wave (km/s) = 6.17294 6.62348 6.40217
#
# Compressibility (1/GPa) = 0.02444858
#
# Stress axis : x y z
#
# Youngs Moduli (GPa) = 102.57533 51.31872 50.28872
#
# Poissons Ratio (x) = 0.24336 0.12688
# Poissons Ratio (y) = 0.48642 0.25500
# Poissons Ratio (z) = 0.25880 0.26022
#
# Static dielectric constant tensor:
#      x y z
#    x 3.623280 0.000000 0.000000 
#    y 0.000000 3.583180 0.000000 
#    z 0.000000 0.000000 3.240020 
# 
# 
# High freq. dielectric constant tensor:
#      x y z
#    x 1.755420 0.000000 0.000000 
#    y 0.000000 1.736090 0.000000 
#    z 0.000000 0.000000 1.706660 
# 
# From -- ./inp_files/29410.got.cif
#   From: 2010.03.12/outbox.cif.g09.slc.cpg/sg74_15_cif.got.tgz:29410.got - 2010.04.16 15:46:19.
