data_PCOD8297943
_publ_section_title
;
Structure prediction by ZEFSAII (Michael W. Deem and Ramdas Pophale) SiO2 
 PCOD8297943
Probable space group: I M M A
;
_chemical_formula_sum "Si O2"
_cell_formula_units_Z 64
_cell_length_a 8.396274
_cell_length_b 19.099483
_cell_length_c 23.412205
_cell_angle_alpha 90.000000
_cell_angle_beta 90.000000
_cell_angle_gamma 90.000000
_cell_volume 3754.486374
_symmetry_space_group_name_H-M "I M M A"
_symmetry_group_IT_number 74
_symmetry_cell_setting 'orthorhombic'
loop_
_space_group_symop_operation_xyz
x,y,z
-x,1/2-y,z
x,-y,-z
-x,1/2+y,-z
-x,-y,-z
x,1/2+y,-z
-x,y,z
x,1/2-y,z
1/2+x,1/2+y,1/2+z
1/2-x,-y,1/2+z
1/2+x,1/2-y,1/2-z
1/2-x,y,1/2-z
1/2-x,1/2-y,1/2-z
1/2+x,y,1/2-z
1/2-x,1/2+y,1/2+z
1/2+x,-y,1/2+z
loop_
_atom_site_type_symbol
_atom_site_label
_atom_site_fract_x
_atom_site_fract_y
_atom_site_fract_z
Si Si1 0.311281 0.104972 0.187320
Si Si2 0.814677 0.600263 0.474682
Si Si3 0.310820 0.250000 0.134893
Si Si4 0.315588 0.973155 0.583054
Si Si5 0.310948 0.750000 0.993199
O O1 0.500000 0.100583 0.184699
O O2 0.250000 0.088223 0.250000
O O3 0.248228 0.181365 0.167942
O O4 0.237293 0.045637 0.146738
O O5 0.788308 0.571925 0.538775
O O6 0.716191 0.555603 0.428360
O O7 0.755059 0.680879 0.472579
O O8 0.000000 0.594375 0.459807
O O9 0.500000 0.250000 0.133241
O O10 0.238856 0.250000 0.070909
O O11 0.500000 0.956572 0.573200
O O12 0.500000 0.750000 0.986861
#
# Coordination Sequence:
#
# PCOD8297943 Si02
#       5
#    16  16   8  16   8
#     4  11  21  35  52  71  98 134 173 210 249 291
#     4  10  18  32  53  73  97 130 165 206 253 297
#     4   9  17  31  49  71 100 133 171 207 240 289
#     4  11  21  33  47  71 101 131 168 208 247 294
#     4   9  16  29  51  77  99 128 167 204 246 299
#
# _framework density 17.046271999999998
#
# number of rings (size 3 to 8) (size 9 to 14) (size 15 to 20)
#    0.000    1.750    2.500    5.625    0.000    0.000 
#    0.000    5.625    0.000    0.000    0.000    0.875 
#    0.000    0.000    0.000    0.000    0.000    0.000 
#
# Total GULP energy -396833.726059 kJ/mol
# GULP energy per Si atom -12401.053939 kJ/mol
# Density = 1.700747 g / cm^3
# Si number density = 17.046272 Si / 1000 Ang^3
#
#
#
# Elastic Constant Matrix: (Units=GPa)
#
#
# Indices 1 2 3 4 5 6 
#
# 1 51.3882 18.7150 17.1710 0.0000 0.0000 0.0000
# 2 18.7150 133.9313 64.2363 0.0000 0.0000 0.0000
# 3 17.1710 64.2363 105.6583 0.0000 0.0000 0.0000
# 4 0.0000 0.0000 0.0000 29.8573 0.0000 0.0000
# 5 0.0000 0.0000 0.0000 0.0000 24.4722 0.0000
# 6 0.0000 0.0000 0.0000 0.0000 0.0000 12.2416
#
#
#
# Elastic Compliance Matrix: (Units=1/GPa)
#
#
# Indices 1 2 3 4 5 6 
#
# 1 0.020887 -0.001822 -0.002287 0.000000 0.000000 0.000000
# 2 -0.001822 0.010699 -0.006208 0.000000 0.000000 0.000000
# 3 -0.002287 -0.006208 0.013611 0.000000 0.000000 0.000000
# 4 0.000000 0.000000 0.000000 0.033493 0.000000 0.000000
# 5 0.000000 0.000000 0.000000 0.000000 0.040863 0.000000
# 6 0.000000 0.000000 0.000000 0.000000 0.000000 0.081688
#
#
# Mechanical properties :
#
#
# Convention : Reuss Voigt Hill
#
# Bulk Modulus (GPa) = 40.71251 54.58028 47.64639
# Shear Modulus (GPa) = 21.73326 26.03792 23.88559
#
# Velocity S-wave (km/s) = 3.57453 3.91254 3.74735
# Velocity P-wave (km/s) = 6.40091 7.24562 6.83633
#
# Compressibility (1/GPa) = 0.02456248
#
# Stress axis : x y z
#
# Youngs Moduli (GPa) = 47.87580 93.46879 73.47226
#
# Poissons Ratio (x) = 0.17029 0.16802
# Poissons Ratio (y) = 0.08722 0.45614
# Poissons Ratio (z) = 0.10949 0.58029
#
# Static dielectric constant tensor:
#      x y z
#    x 3.025560 0.000000 0.000000 
#    y 0.000000 3.469610 0.000000 
#    z 0.000000 0.000000 2.882060 
# 
# 
# High freq. dielectric constant tensor:
#      x y z
#    x 1.652920 0.000000 0.000000 
#    y 0.000000 1.655860 0.000000 
#    z 0.000000 0.000000 1.627800 
# 
# From -- ./inp_files/48288.got.cif
#   From: 2010.03.12/outbox.cif.g09.slc.cpg/sg74_25_cif.got.tgz:48288.got - 2010.04.16 15:46:19.
