data_PCOD8297533
_publ_section_title
;
Structure prediction by ZEFSAII (Michael W. Deem and Ramdas Pophale) SiO2 
 PCOD8297533
Probable space group: I M M A
;
_chemical_formula_sum "Si O2"
_cell_formula_units_Z 80
_cell_length_a 16.607742
_cell_length_b 9.700340
_cell_length_c 27.262977
_cell_angle_alpha 90.000000
_cell_angle_beta 90.000000
_cell_angle_gamma 90.000000
_cell_volume 4392.085879
_symmetry_space_group_name_H-M "I M M A"
_symmetry_group_IT_number 74
_symmetry_cell_setting 'orthorhombic'
loop_
_space_group_symop_operation_xyz
x,y,z
-x,1/2-y,z
x,-y,-z
-x,1/2+y,-z
-x,-y,-z
x,1/2+y,-z
-x,y,z
x,1/2-y,z
1/2+x,1/2+y,1/2+z
1/2-x,-y,1/2+z
1/2+x,1/2-y,1/2-z
1/2-x,y,1/2-z
1/2-x,1/2-y,1/2-z
1/2+x,y,1/2-z
1/2-x,1/2+y,1/2+z
1/2+x,-y,1/2+z
loop_
_atom_site_type_symbol
_atom_site_label
_atom_site_fract_x
_atom_site_fract_y
_atom_site_fract_z
Si Si1 0.687645 0.250000 0.968692
Si Si2 0.906736 0.250000 0.622527
Si Si3 0.595378 0.750000 0.388394
Si Si4 0.687971 0.976649 0.445931
Si Si5 0.904167 0.750000 0.221551
Si Si6 0.404280 0.250000 0.163735
Si Si7 0.275643 0.750000 0.922838
Si Si8 0.594913 0.459921 0.800277
O O1 0.607659 0.250000 0.935772
O O2 0.732777 0.112720 0.953013
O O3 0.672925 0.250000 0.026643
O O4 0.870867 0.384471 0.650643
O O5 0.000000 0.250000 0.630366
O O6 0.500000 0.750000 0.389439
O O7 0.624275 0.891393 0.413794
O O8 0.631320 0.750000 0.333221
O O9 0.648888 0.000000 0.500000
O O10 0.715313 0.118794 0.419801
O O11 0.872299 0.614195 0.250888
O O12 0.000000 0.750000 0.218126
O O13 0.500000 0.250000 0.148361
O O14 0.345837 0.250000 0.117080
O O15 0.381390 0.119923 0.197606
O O16 0.500000 0.443091 0.799654
#
# Coordination Sequence:
#
# PCOD8297533 Si02
#       8
#     8   8   8  16   8   8   8  16
#     4   9  17  30  48  67  94 138 178 201 233 291
#     4   9  15  25  44  69  96 131 176 219 245 262
#     4  10  20  36  61  83  94 114 158 209 243 288
#     4   9  19  35  52  72 101 135 160 184 242 312
#     4   8  15  31  53  74  93 118 157 202 248 295
#     4  10  18  28  47  74 100 134 177 212 239 268
#     4  10  19  32  49  69 102 141 168 198 243 296
#     4   8  15  27  44  68  99 130 162 204 250 290
#
# _framework density 18.214580999999999
#
# number of rings (size 3 to 8) (size 9 to 14) (size 15 to 20)
#    0.000    3.000    0.000    3.000    0.000    0.800 
#    0.000    1.500    0.000   32.400    0.000    0.000 
#    0.000    0.000    0.000    0.000    0.000    0.000 
#
# Total GULP energy -495531.521109 kJ/mol
# GULP energy per Si atom -12388.288028 kJ/mol
# Density = 1.817312 g / cm^3
# Si number density = 18.214581 Si / 1000 Ang^3
#
#
#
# Elastic Constant Matrix: (Units=GPa)
#
#
# Indices 1 2 3 4 5 6 
#
# 1 34.9150 37.5715 37.5694 0.0000 0.0000 0.0000
# 2 37.5715 167.1847 69.5462 0.0000 0.0000 0.0000
# 3 37.5694 69.5462 141.5826 0.0000 0.0000 0.0000
# 4 0.0000 0.0000 0.0000 3.9834 0.0000 0.0000
# 5 0.0000 0.0000 0.0000 0.0000 15.0702 0.0000
# 6 0.0000 0.0000 0.0000 0.0000 0.0000 7.7152
#
#
#
# Elastic Compliance Matrix: (Units=1/GPa)
#
#
# Indices 1 2 3 4 5 6 
#
# 1 0.045048 -0.006474 -0.008774 0.000000 0.000000 0.000000
# 2 -0.006474 0.008448 -0.002432 0.000000 0.000000 0.000000
# 3 -0.008774 -0.002432 0.010586 0.000000 0.000000 0.000000
# 4 0.000000 0.000000 0.000000 0.251039 0.000000 0.000000
# 5 0.000000 0.000000 0.000000 0.000000 0.066356 0.000000
# 6 0.000000 0.000000 0.000000 0.000000 0.000000 0.129614
#
#
# Mechanical properties :
#
#
# Convention : Reuss Voigt Hill
#
# Bulk Modulus (GPa) = 34.81537 70.33960 52.57748
# Shear Modulus (GPa) = 8.99241 18.62012 13.80626
#
# Velocity S-wave (km/s) = 2.22433 3.20076 2.75613
# Velocity P-wave (km/s) = 5.07468 7.23608 6.24953
#
# Compressibility (1/GPa) = 0.02872295
#
# Stress axis : x y z
#
# Youngs Moduli (GPa) = 22.19844 118.37274 94.46789
#
# Poissons Ratio (x) = 0.76635 0.82882
# Poissons Ratio (y) = 0.14371 0.22972
# Poissons Ratio (z) = 0.19476 0.28785
#
# Static dielectric constant tensor:
#      x y z
#    x 2.861750 0.000000 0.000000 
#    y 0.000000 3.101680 0.000000 
#    z 0.000000 0.000000 3.593540 
# 
# 
# High freq. dielectric constant tensor:
#      x y z
#    x 1.660520 0.000000 0.000000 
#    y 0.000000 1.721240 0.000000 
#    z 0.000000 0.000000 1.702810 
# 
# From -- ./inp_files/67617.got.cif
#   From: 2010.03.12/outbox.cif.g09.slc.cpg/sg74_34_cif.got.tgz:67617.got - 2010.04.16 15:46:19.
