data_PCOD8297743
_publ_section_title
;
Structure prediction by ZEFSAII (Michael W. Deem and Ramdas Pophale) SiO2 
 PCOD8297743
Probable space group: I M M A
;
_chemical_formula_sum "Si O2"
_cell_formula_units_Z 104
_cell_length_a 21.576424
_cell_length_b 9.854176
_cell_length_c 27.020301
_cell_angle_alpha 90.000000
_cell_angle_beta 90.000000
_cell_angle_gamma 90.000000
_cell_volume 5744.999103
_symmetry_space_group_name_H-M "I M M A"
_symmetry_group_IT_number 74
_symmetry_cell_setting 'orthorhombic'
loop_
_space_group_symop_operation_xyz
x,y,z
-x,1/2-y,z
x,-y,-z
-x,1/2+y,-z
-x,-y,-z
x,1/2+y,-z
-x,y,z
x,1/2-y,z
1/2+x,1/2+y,1/2+z
1/2-x,-y,1/2+z
1/2+x,1/2-y,1/2-z
1/2-x,y,1/2-z
1/2-x,1/2-y,1/2-z
1/2+x,y,1/2-z
1/2-x,1/2+y,1/2+z
1/2+x,-y,1/2+z
loop_
_atom_site_type_symbol
_atom_site_label
_atom_site_fract_x
_atom_site_fract_y
_atom_site_fract_z
Si Si1 0.429484 0.600322 0.374422
Si Si2 0.757672 0.405162 0.455049
Si Si3 0.196750 0.407053 0.350165
Si Si4 0.116980 0.397558 0.769523
Si Si5 0.250000 0.514663 0.250000
Si Si6 0.389231 0.404428 0.456615
Si Si7 0.568952 0.592455 0.807849
O O1 0.500000 0.597110 0.356364
O O2 0.414931 0.750000 0.398659
O O3 0.385738 0.578313 0.327667
O O4 0.416721 0.471611 0.408031
O O5 0.782821 0.500000 0.500000
O O6 0.781655 0.250000 0.463070
O O7 0.778697 0.470844 0.401995
O O8 0.684151 0.405901 0.454976
O O9 0.198692 0.250000 0.360608
O O10 0.238861 0.430645 0.301127
O O11 0.124888 0.456000 0.343675
O O12 0.089893 0.250000 0.754868
O O13 0.189267 0.395408 0.755732
O O14 0.076090 0.511840 0.743195
O O15 0.415060 0.500000 0.500000
O O16 0.414023 0.250000 0.462146
O O17 0.500000 0.565586 0.830639
O O18 0.577548 0.750000 0.794733
#
# Coordination Sequence:
#
# PCOD8297743 Si02
#       7
#    16  16  16  16   8  16  16
#     4  10  21  35  49  66  92 128 165 198 236 283
#     4   9  18  33  52  75 100 128 162 200 246 297
#     4   9  17  30  50  75 103 132 163 204 252 296
#     4  10  20  33  49  71 101 133 162 197 243 292
#     4  10  18  30  50  78 105 130 165 204 249 302
#     4  10  20  34  52  72  93 119 155 200 247 292
#     4   9  18  32  50  72  97 128 166 202 237 285
#
# _framework density 18.102701
#
# number of rings (size 3 to 8) (size 9 to 14) (size 15 to 20)
#    0.000    2.462    0.000    2.308    0.000    3.385 
#    0.000    3.846    0.000    0.462    0.000    0.000 
#    0.000    0.000    0.000    0.000    0.000    0.000 
#
# Total GULP energy -644251.352676 kJ/mol
# GULP energy per Si atom -12389.449090 kJ/mol
# Density = 1.806150 g / cm^3
# Si number density = 18.102701 Si / 1000 Ang^3
#
#
#
# Elastic Constant Matrix: (Units=GPa)
#
#
# Indices 1 2 3 4 5 6 
#
# 1 43.1777 22.5295 23.0177 0.0000 0.0000 0.0000
# 2 22.5295 88.3127 47.6992 0.0000 0.0000 0.0000
# 3 23.0177 47.6992 115.9166 0.0000 0.0000 0.0000
# 4 0.0000 0.0000 0.0000 30.4837 0.0000 0.0000
# 5 0.0000 0.0000 0.0000 0.0000 19.0956 0.0000
# 6 0.0000 0.0000 0.0000 0.0000 0.0000 16.6270
#
#
#
# Elastic Compliance Matrix: (Units=1/GPa)
#
#
# Indices 1 2 3 4 5 6 
#
# 1 0.027682 -0.005263 -0.003331 0.000000 0.000000 0.000000
# 2 -0.005263 0.015560 -0.005358 0.000000 0.000000 0.000000
# 3 -0.003331 -0.005358 0.011493 0.000000 0.000000 0.000000
# 4 0.000000 0.000000 0.000000 0.032804 0.000000 0.000000
# 5 0.000000 0.000000 0.000000 0.000000 0.052368 0.000000
# 6 0.000000 0.000000 0.000000 0.000000 0.000000 0.060143
#
#
# Mechanical properties :
#
#
# Convention : Reuss Voigt Hill
#
# Bulk Modulus (GPa) = 37.26979 48.21108 42.74043
# Shear Modulus (GPa) = 21.10615 23.51863 22.31239
#
# Velocity S-wave (km/s) = 3.41825 3.60832 3.51457
# Velocity P-wave (km/s) = 6.01763 6.63700 6.33489
#
# Compressibility (1/GPa) = 0.02683138
#
# Stress axis : x y z
#
# Youngs Moduli (GPa) = 36.12465 64.26830 87.00882
#
# Poissons Ratio (x) = 0.33822 0.28985
# Poissons Ratio (y) = 0.19011 0.46617
# Poissons Ratio (z) = 0.12034 0.34433
#
# Static dielectric constant tensor:
#      x y z
#    x 3.422460 0.000000 0.000000 
#    y 0.000000 3.456710 0.000000 
#    z 0.000000 0.000000 3.417080 
# 
# 
# High freq. dielectric constant tensor:
#      x y z
#    x 1.693860 0.000000 0.000000 
#    y 0.000000 1.699700 0.000000 
#    z 0.000000 0.000000 1.689090 
# 
# From -- ./inp_files/68235.got.cif
#   From: 2010.03.12/outbox.cif.g09.slc.cpg/sg74_35_cif.got.tgz:68235.got - 2010.04.16 15:46:19.
