data_PCOD8297656
_publ_section_title
;
Structure prediction by ZEFSAII (Michael W. Deem and Ramdas Pophale) SiO2 
 PCOD8297656
Probable space group: I M M A
;
_chemical_formula_sum "Si O2"
_cell_formula_units_Z 88
_cell_length_a 28.175459
_cell_length_b 9.546809
_cell_length_c 21.118652
_cell_angle_alpha 90.000000
_cell_angle_beta 90.000000
_cell_angle_gamma 90.000000
_cell_volume 5680.615931
_symmetry_space_group_name_H-M "I M M A"
_symmetry_group_IT_number 74
_symmetry_cell_setting 'orthorhombic'
loop_
_space_group_symop_operation_xyz
x,y,z
-x,1/2-y,z
x,-y,-z
-x,1/2+y,-z
-x,-y,-z
x,1/2+y,-z
-x,y,z
x,1/2-y,z
1/2+x,1/2+y,1/2+z
1/2-x,-y,1/2+z
1/2+x,1/2-y,1/2-z
1/2-x,y,1/2-z
1/2-x,1/2-y,1/2-z
1/2+x,y,1/2-z
1/2-x,1/2+y,1/2+z
1/2+x,-y,1/2+z
loop_
_atom_site_type_symbol
_atom_site_label
_atom_site_fract_x
_atom_site_fract_y
_atom_site_fract_z
Si Si1 0.553245 0.591439 0.674792
Si Si2 0.785561 0.093039 0.121338
Si Si3 0.784198 0.408485 0.690027
Si Si4 0.852422 0.409077 0.237467
Si Si5 0.426625 0.406568 0.554902
Si Si6 0.835515 0.500000 0.000000
O O1 0.500000 0.574341 0.702249
O O2 0.560984 0.750000 0.648003
O O3 0.591101 0.564267 0.730830
O O4 0.561973 0.478745 0.620806
O O5 0.766829 0.250000 0.133596
O O6 0.828722 0.059181 0.169192
O O7 0.802793 0.083665 0.049043
O O8 0.741913 0.986565 0.132195
O O9 0.796107 0.250000 0.669513
O O10 0.750000 0.413149 0.750000
O O11 0.832733 0.487974 0.708316
O O12 0.841570 0.250000 0.258485
O O13 0.451591 0.500000 0.500000
O O14 0.447769 0.250000 0.555591
O O15 0.369846 0.397337 0.540932
#
# Coordination Sequence:
#
# PCOD8297656 Si02
#       6
#    16  16  16  16  16   8
#     4  10  20  33  48  65  85 111 148 190 228 266
#     4  10  18  30  46  63  84 115 149 179 220 268
#     4   9  18  29  43  66  87 106 138 182 223 262
#     4   9  16  31  48  62  83 113 145 179 223 270
#     4  10  20  32  45  59  80 112 149 185 224 262
#     4  10  20  30  47  64  86 116 153 186 220 262
#
# _framework density 15.491277999999999
#
# number of rings (size 3 to 8) (size 9 to 14) (size 15 to 20)
#    0.545    1.818    1.818    1.636    0.000    5.091 
#    0.000    0.000    0.000    0.000    0.000    0.000 
#    0.000    0.000    0.000    0.818    0.000    6.909 
#
# Total GULP energy -545311.322134 kJ/mol
# GULP energy per Si atom -12393.439139 kJ/mol
# Density = 1.545602 g / cm^3
# Si number density = 15.491278 Si / 1000 Ang^3
#
#
#
# Elastic Constant Matrix: (Units=GPa)
#
#
# Indices 1 2 3 4 5 6 
#
# 1 99.5769 52.3301 37.3289 0.0000 0.0000 0.0000
# 2 52.3301 109.6295 21.0788 0.0000 0.0000 0.0000
# 3 37.3289 21.0788 30.9396 0.0000 0.0000 0.0000
# 4 0.0000 0.0000 0.0000 19.6210 0.0000 0.0000
# 5 0.0000 0.0000 0.0000 0.0000 15.4219 0.0000
# 6 0.0000 0.0000 0.0000 0.0000 0.0000 10.0242
#
#
#
# Elastic Compliance Matrix: (Units=1/GPa)
#
#
# Indices 1 2 3 4 5 6 
#
# 1 0.021302 -0.006014 -0.021603 0.000000 0.000000 0.000000
# 2 -0.006014 0.012195 -0.001052 0.000000 0.000000 0.000000
# 3 -0.021603 -0.001052 0.059102 0.000000 0.000000 0.000000
# 4 0.000000 0.000000 0.000000 0.050966 0.000000 0.000000
# 5 0.000000 0.000000 0.000000 0.000000 0.064843 0.000000
# 6 0.000000 0.000000 0.000000 0.000000 0.000000 0.099758
#
#
# Mechanical properties :
#
#
# Convention : Reuss Voigt Hill
#
# Bulk Modulus (GPa) = 28.36085 51.29129 39.82607
# Shear Modulus (GPa) = 13.25358 17.64065 15.44711
#
# Velocity S-wave (km/s) = 2.92815 3.37819 3.16119
# Velocity P-wave (km/s) = 5.45706 6.95686 6.25210
#
# Compressibility (1/GPa) = 0.03525987
#
# Stress axis : x y z
#
# Youngs Moduli (GPa) = 46.94479 82.00270 16.91992
#
# Poissons Ratio (x) = 0.49319 0.36552
# Poissons Ratio (y) = 0.28234 0.01780
# Poissons Ratio (z) = 1.01415 0.08625
#
# Static dielectric constant tensor:
#      x y z
#    x 2.944230 0.000000 0.000000 
#    y 0.000000 3.037380 0.000000 
#    z 0.000000 0.000000 2.530220 
# 
# 
# High freq. dielectric constant tensor:
#      x y z
#    x 1.575970 0.000000 0.000000 
#    y 0.000000 1.604820 0.000000 
#    z 0.000000 0.000000 1.537070 
# 
# From -- ./inp_files/62614.got.cif
#   From: 2010.03.12/outbox.cif.g09.slc.cpg/sg74_32_cif.got.tgz:62614.got - 2010.04.16 15:46:19.
