data_PCOD8297234
_publ_section_title
;
Structure prediction by ZEFSAII (Michael W. Deem and Ramdas Pophale) SiO2 
 PCOD8297234
Probable space group: I M M A
;
_chemical_formula_sum "Si O2"
_cell_formula_units_Z 80
_cell_length_a 17.711645
_cell_length_b 14.726070
_cell_length_c 19.578335
_cell_angle_alpha 90.000000
_cell_angle_beta 90.000000
_cell_angle_gamma 90.000000
_cell_volume 5106.478583
_symmetry_space_group_name_H-M "I M M A"
_symmetry_group_IT_number 74
_symmetry_cell_setting 'orthorhombic'
loop_
_space_group_symop_operation_xyz
x,y,z
-x,1/2-y,z
x,-y,-z
-x,1/2+y,-z
-x,-y,-z
x,1/2+y,-z
-x,y,z
x,1/2-y,z
1/2+x,1/2+y,1/2+z
1/2-x,-y,1/2+z
1/2+x,1/2-y,1/2-z
1/2-x,y,1/2-z
1/2-x,1/2-y,1/2-z
1/2+x,y,1/2-z
1/2-x,1/2+y,1/2+z
1/2+x,-y,1/2+z
loop_
_atom_site_type_symbol
_atom_site_label
_atom_site_fract_x
_atom_site_fract_y
_atom_site_fract_z
Si Si1 0.805558 0.350508 0.686373
Si Si2 0.589573 0.350840 0.334224
Si Si3 0.838400 0.851344 0.118672
Si Si4 0.585143 0.605294 0.515350
Si Si5 0.588385 0.031687 0.732186
O O1 0.841243 0.250000 0.673260
O O2 0.750000 0.347763 0.750000
O O3 0.750434 0.381527 0.623976
O O4 0.870395 0.424827 0.701680
O O5 0.500000 0.355624 0.338109
O O6 0.617085 0.250000 0.311373
O O7 0.620123 0.373375 0.410228
O O8 0.616614 0.427410 0.279956
O O9 0.844551 0.750000 0.149997
O O10 0.894418 0.914335 0.162370
O O11 0.861794 0.847105 0.039968
O O12 0.585797 0.500000 0.500000
O O13 0.500000 0.644130 0.509497
O O14 0.500000 0.035836 0.747266
#
# Coordination Sequence:
#
# PCOD8297234 Si02
#       5
#    16  16  16  16  16
#     4   8  16  28  39  55  79 107 136 168 205 241
#     4   9  17  27  38  56  84 111 134 166 201 231
#     4  10  18  27  40  57  81 113 139 162 202 248
#     4  10  17  26  39  60  85 110 141 168 194 234
#     4  10  17  26  41  59  80 107 138 168 200 239
#
# _framework density 15.666373999999999
#
# number of rings (size 3 to 8) (size 9 to 14) (size 15 to 20)
#    0.000    2.600    2.000    3.000    0.000    3.600 
#    0.000    0.000    0.000    5.400    0.000    0.000 
#    0.000    0.800    0.000    0.000    0.000    0.200 
#
# Total GULP energy -495600.509610 kJ/mol
# GULP energy per Si atom -12390.012740 kJ/mol
# Density = 1.563072 g / cm^3
# Si number density = 15.666374 Si / 1000 Ang^3
#
#
#
# Elastic Constant Matrix: (Units=GPa)
#
#
# Indices 1 2 3 4 5 6 
#
# 1 67.2254 41.1124 34.9363 0.0000 0.0000 0.0000
# 2 41.1124 106.7743 24.1759 0.0000 0.0000 0.0000
# 3 34.9363 24.1759 39.7027 0.0000 0.0000 0.0000
# 4 0.0000 0.0000 0.0000 18.8485 0.0000 0.0000
# 5 0.0000 0.0000 0.0000 0.0000 21.7614 0.0000
# 6 0.0000 0.0000 0.0000 0.0000 0.0000 12.0183
#
#
#
# Elastic Compliance Matrix: (Units=1/GPa)
#
#
# Indices 1 2 3 4 5 6 
#
# 1 0.031049 -0.006691 -0.023247 0.000000 0.000000 0.000000
# 2 -0.006691 0.012305 -0.001605 0.000000 0.000000 0.000000
# 3 -0.023247 -0.001605 0.046620 0.000000 0.000000 0.000000
# 4 0.000000 0.000000 0.000000 0.053055 0.000000 0.000000
# 5 0.000000 0.000000 0.000000 0.000000 0.045953 0.000000
# 6 0.000000 0.000000 0.000000 0.000000 0.000000 0.083206
#
#
# Mechanical properties :
#
#
# Convention : Reuss Voigt Hill
#
# Bulk Modulus (GPa) = 37.19079 46.01686 41.60382
# Shear Modulus (GPa) = 14.52487 18.09081 16.30784
#
# Velocity S-wave (km/s) = 3.04820 3.40185 3.22987
# Velocity P-wave (km/s) = 6.01493 6.69828 6.36578
#
# Compressibility (1/GPa) = 0.02688838
#
# Stress axis : x y z
#
# Youngs Moduli (GPa) = 32.20762 81.26510 21.44987
#
# Poissons Ratio (x) = 0.54378 0.49864
# Poissons Ratio (y) = 0.21551 0.03443
# Poissons Ratio (z) = 0.74872 0.13043
#
# Static dielectric constant tensor:
#      x y z
#    x 3.000130 0.000000 0.000000 
#    y 0.000000 3.310020 0.000000 
#    z 0.000000 0.000000 2.996560 
# 
# 
# High freq. dielectric constant tensor:
#      x y z
#    x 1.563120 0.000000 0.000000 
#    y 0.000000 1.616100 0.000000 
#    z 0.000000 0.000000 1.558150 
# 
# From -- ./inp_files/42659.got.cif
#   From: 2010.03.12/outbox.cif.g09.slc.cpg/sg74_22_cif.got.tgz:42659.got - 2010.04.16 15:46:19.
