data_PCOD8297285
_publ_section_title
;
Structure prediction by ZEFSAII (Michael W. Deem and Ramdas Pophale) SiO2 
 PCOD8297285
Probable space group: I M M A
;
_chemical_formula_sum "Si O2"
_cell_formula_units_Z 80
_cell_length_a 26.194079
_cell_length_b 8.690255
_cell_length_c 18.390894
_cell_angle_alpha 90.000000
_cell_angle_beta 90.000000
_cell_angle_gamma 90.000000
_cell_volume 4186.378530
_symmetry_space_group_name_H-M "I M M A"
_symmetry_group_IT_number 74
_symmetry_cell_setting 'orthorhombic'
loop_
_space_group_symop_operation_xyz
x,y,z
-x,1/2-y,z
x,-y,-z
-x,1/2+y,-z
-x,-y,-z
x,1/2+y,-z
-x,y,z
x,1/2-y,z
1/2+x,1/2+y,1/2+z
1/2-x,-y,1/2+z
1/2+x,1/2-y,1/2-z
1/2-x,y,1/2-z
1/2-x,1/2-y,1/2-z
1/2+x,y,1/2-z
1/2-x,1/2+y,1/2+z
1/2+x,-y,1/2+z
loop_
_atom_site_type_symbol
_atom_site_label
_atom_site_fract_x
_atom_site_fract_y
_atom_site_fract_z
Si Si1 0.094533 0.432665 0.580244
Si Si2 0.202367 0.071356 0.921143
Si Si3 0.000000 0.926202 0.832934
Si Si4 0.410214 0.071480 0.579310
Si Si5 0.500000 0.928243 0.838267
Si Si6 0.198120 0.067793 0.419247
O O1 0.086415 0.500000 0.500000
O O2 0.095848 0.250000 0.575409
O O3 0.049448 0.487549 0.631364
O O4 0.147281 0.495203 0.616322
O O5 0.216268 0.250000 0.926798
O O6 0.146500 0.044459 0.885877
O O7 0.249293 0.986057 0.878632
O O8 0.197158 0.000000 0.000000
O O9 0.000000 0.949040 0.747355
O O10 0.000000 0.750000 0.856170
O O11 0.949212 0.001886 0.863813
O O12 0.421583 0.250000 0.569895
O O13 0.417414 0.000000 0.500000
O O14 0.500000 0.750000 0.861911
O O15 0.193371 0.250000 0.419406
O O16 0.201863 0.000000 0.500000
#
# Coordination Sequence:
#
# PCOD8297285 Si02
#       6
#    16  16   8  16   8  16
#     4  11  21  35  56  81 108 139 174 215 258 308
#     4   9  16  27  45  73 105 137 169 209 256 304
#     4  11  24  39  56  75 103 139 176 219 268 317
#     4  10  20  34  55  80 109 140 177 219 261 310
#     4  11  24  41  56  75 103 137 176 219 266 317
#     4  10  17  27  46  74 107 139 169 209 255 304
#
# _framework density 19.109594999999999
#
# number of rings (size 3 to 8) (size 9 to 14) (size 15 to 20)
#    0.000    1.800    0.000    8.400    0.000    4.000 
#    0.000    0.000    0.000    1.200    0.000    8.400 
#    0.000    0.000    0.000    0.000    0.000    0.000 
#
# Total GULP energy -495766.919673 kJ/mol
# GULP energy per Si atom -12394.172992 kJ/mol
# Density = 1.906610 g / cm^3
# Si number density = 19.109595 Si / 1000 Ang^3
#
#
#
# Elastic Constant Matrix: (Units=GPa)
#
#
# Indices 1 2 3 4 5 6 
#
# 1 194.6714 94.4761 41.2429 0.0000 0.0000 0.0000
# 2 94.4761 189.9847 39.0222 0.0000 0.0000 0.0000
# 3 41.2429 39.0222 36.0688 0.0000 0.0000 0.0000
# 4 0.0000 0.0000 0.0000 20.4911 0.0000 0.0000
# 5 0.0000 0.0000 0.0000 0.0000 -0.5436 0.0000
# 6 0.0000 0.0000 0.0000 0.0000 0.0000 39.5283
#
#
#
# Elastic Compliance Matrix: (Units=1/GPa)
#
#
# Indices 1 2 3 4 5 6 
#
# 1 0.007652 -0.002582 -0.005956 0.000000 0.000000 0.000000
# 2 -0.002582 0.007638 -0.005312 0.000000 0.000000 0.000000
# 3 -0.005956 -0.005312 0.040282 0.000000 0.000000 0.000000
# 4 0.000000 0.000000 0.000000 0.048802 0.000000 0.000000
# 5 0.000000 0.000000 0.000000 0.000000 -1.839501 0.000000
# 6 0.000000 0.000000 0.000000 0.000000 0.000000 0.025298
#
#
# Mechanical properties :
#
#
# Convention : Reuss Voigt Hill
#
# Bulk Modulus (GPa) = 35.87721 85.57860 60.72790
# Shear Modulus (GPa) = -2.98893 28.29407 12.65257
#
# Velocity S-wave (km/s) = -1.25200 3.85206 2.57593
# Velocity P-wave (km/s) = 4.08965 8.04144 6.37926
#
# Compressibility (1/GPa) = 0.02787285
#
# Stress axis : x y z
#
# Youngs Moduli (GPa) = 130.69083 130.91696 24.82475
#
# Poissons Ratio (x) = 0.33798 0.14786
# Poissons Ratio (y) = 0.33740 0.13187
# Poissons Ratio (z) = 0.77843 0.69542
#
# Static dielectric constant tensor:
#      x y z
#    x 5.249520 0.000000 0.000000 
#    y 0.000000 3.727430 0.000000 
#    z 0.000000 0.000000 2.832110 
# 
# 
# High freq. dielectric constant tensor:
#      x y z
#    x 1.781010 0.000000 0.000000 
#    y 0.000000 1.767280 0.000000 
#    z 0.000000 0.000000 1.673270 
# 
# From -- ./inp_files/46535.got.cif
#   From: 2010.03.12/outbox.cif.g09.slc.cpg/sg74_24_cif.got.tgz:46535.got - 2010.04.16 15:46:19.
