data_PCOD8297086
_publ_section_title
;
Structure prediction by ZEFSAII (Michael W. Deem and Ramdas Pophale) SiO2 
 PCOD8297086
Probable space group: I B C A 
;
_chemical_formula_sum "Si O2"
_cell_formula_units_Z 64
_cell_length_a 9.493515
_cell_length_b 18.025491
_cell_length_c 16.116689
_cell_angle_alpha 90.000000
_cell_angle_beta 90.000000
_cell_angle_gamma 90.000000
_cell_volume 2757.972744
_symmetry_space_group_name_H-M "I B C A "
_symmetry_group_IT_number 73
_symmetry_cell_setting 'orthorhombic'
loop_
_space_group_symop_operation_xyz
x,y,z
-x,1/2-y,z
x,-y,1/2-z
1/2-x,y,-z
-x,-y,-z
x,1/2+y,-z
-x,y,1/2+z
1/2+x,-y,z
1/2+x,1/2+y,1/2+z
1/2-x,-y,1/2+z
1/2+x,1/2-y,-z
-x,1/2+y,1/2-z
1/2-x,1/2-y,1/2-z
1/2+x,y,1/2-z
1/2-x,1/2+y,z
x,1/2-y,1/2+z
loop_
_atom_site_type_symbol
_atom_site_label
_atom_site_fract_x
_atom_site_fract_y
_atom_site_fract_z
Si Si1 0.250000 0.184188 0.000000
Si Si2 0.000000 0.250000 0.100740
Si Si3 0.683088 0.172444 0.783427
Si Si4 0.120660 0.574137 0.127397
Si Si5 0.694464 0.064913 0.092821
O O1 0.362404 0.234856 0.953286
O O2 0.163123 0.133950 0.939249
O O3 0.959282 0.183296 0.162611
O O4 0.750000 0.250000 0.750000
O O5 0.630467 0.114952 0.715023
O O6 0.794026 0.135655 0.846485
O O7 0.222849 0.504336 0.130287
O O8 0.969513 0.543945 0.097654
O O9 0.750000 0.083184 0.000000
#
# Coordination Sequence:
#
# PCOD8297086 Si02
#       5
#     8   8  16  16  16
#     4  12  28  48  80 114 158 206 260 322 386 466
#     4  12  28  48  78 116 156 204 264 322 388 462
#     4  12  27  48  78 112 155 202 260 322 388 463
#     4  12  28  49  77 112 156 202 258 316 390 454
#     4  12  28  49  78 112 154 203 257 321 385 460
#
# _framework density 23.205451
#
# number of rings (size 3 to 8) (size 9 to 14) (size 15 to 20)
#    0.000    0.000    3.750    4.500    8.750    3.000 
#    0.000    0.000    0.000    0.000    0.000    0.000 
#    0.000    0.000    0.000    0.000    0.000    0.000 
#
# Total GULP energy -396754.649511 kJ/mol
# GULP energy per Si atom -12398.582797 kJ/mol
# Density = 2.315263 g / cm^3
# Si number density = 23.205451 Si / 1000 Ang^3
#
#
#
# Elastic Constant Matrix: (Units=GPa)
#
#
# Indices 1 2 3 4 5 6 
#
# 1 187.7386 63.8698 74.0792 0.0000 0.0000 0.0000
# 2 63.8698 131.8573 78.3395 0.0000 0.0000 0.0000
# 3 74.0792 78.3395 173.8601 0.0000 0.0000 0.0000
# 4 0.0000 0.0000 0.0000 66.8441 0.0000 0.0000
# 5 0.0000 0.0000 0.0000 0.0000 102.2388 0.0000
# 6 0.0000 0.0000 0.0000 0.0000 0.0000 41.9669
#
#
#
# Elastic Compliance Matrix: (Units=1/GPa)
#
#
# Indices 1 2 3 4 5 6 
#
# 1 0.006824 -0.002155 -0.001937 0.000000 0.000000 0.000000
# 2 -0.002155 0.011037 -0.004055 0.000000 0.000000 0.000000
# 3 -0.001937 -0.004055 0.008404 0.000000 0.000000 0.000000
# 4 0.000000 0.000000 0.000000 0.014960 0.000000 0.000000
# 5 0.000000 0.000000 0.000000 0.000000 0.009781 0.000000
# 6 0.000000 0.000000 0.000000 0.000000 0.000000 0.023828
#
#
# Mechanical properties :
#
#
# Convention : Reuss Voigt Hill
#
# Bulk Modulus (GPa) = 100.28086 102.89255 101.58671
# Shear Modulus (GPa) = 52.93760 60.68779 56.81269
#
# Velocity S-wave (km/s) = 4.78143 5.11949 4.95335
# Velocity P-wave (km/s) = 8.59017 8.90964 8.75136
#
# Compressibility (1/GPa) = 0.00997199
#
# Stress axis : x y z
#
# Youngs Moduli (GPa) = 146.54645 90.60553 118.99053
#
# Poissons Ratio (x) = 0.19523 0.23044
# Poissons Ratio (y) = 0.31577 0.48250
# Poissons Ratio (z) = 0.28380 0.36740
#
# Static dielectric constant tensor:
#      x y z
#    x 4.284150 0.000000 0.000000 
#    y 0.000000 4.233940 0.000000 
#    z 0.000000 0.000000 4.584060 
# 
# 
# High freq. dielectric constant tensor:
#      x y z
#    x 1.928340 0.000000 0.000000 
#    y 0.000000 1.925340 0.000000 
#    z 0.000000 0.000000 1.944670 
# 
# From -- ./inp_files/20582.got.cif
#   From: 2010.03.12/outbox.cif.g09.slc.cpg/sg73_11_cif.got.tgz:20582.got - 2010.04.16 15:25:48.
