data_PCOD8297359
_publ_section_title
;
Structure prediction by ZEFSAII (Michael W. Deem and Ramdas Pophale) SiO2 
 PCOD8297359
Probable space group: I M M A
;
_chemical_formula_sum "Si O2"
_cell_formula_units_Z 80
_cell_length_a 16.866893
_cell_length_b 20.528472
_cell_length_c 15.067726
_cell_angle_alpha 90.000000
_cell_angle_beta 90.000000
_cell_angle_gamma 90.000000
_cell_volume 5217.223342
_symmetry_space_group_name_H-M "I M M A"
_symmetry_group_IT_number 74
_symmetry_cell_setting 'orthorhombic'
loop_
_space_group_symop_operation_xyz
x,y,z
-x,1/2-y,z
x,-y,-z
-x,1/2+y,-z
-x,-y,-z
x,1/2+y,-z
-x,y,z
x,1/2-y,z
1/2+x,1/2+y,1/2+z
1/2-x,-y,1/2+z
1/2+x,1/2-y,1/2-z
1/2-x,y,1/2-z
1/2-x,1/2-y,1/2-z
1/2+x,y,1/2-z
1/2-x,1/2+y,1/2+z
1/2+x,-y,1/2+z
loop_
_atom_site_type_symbol
_atom_site_label
_atom_site_fract_x
_atom_site_fract_y
_atom_site_fract_z
Si Si1 0.588733 0.008111 0.750554
Si Si2 0.205498 0.501209 0.902914
Si Si3 0.195912 0.383902 0.674130
Si Si4 0.631942 0.554686 0.925536
Si Si5 0.910363 0.822847 0.465712
O O1 0.500000 0.019073 0.715148
O O2 0.641169 0.978807 0.670343
O O3 0.625381 0.076566 0.779350
O O4 0.585994 0.959709 0.834396
O O5 0.248825 0.432439 0.882908
O O6 0.274187 0.555842 0.904952
O O7 0.164258 0.500000 0.000000
O O8 0.250000 0.349678 0.750000
O O9 0.154205 0.330774 0.612483
O O10 0.611144 0.500000 0.000000
O O11 0.605010 0.625633 0.956568
O O12 0.899970 0.750000 0.504315
O O13 0.000000 0.832577 0.429089
#
# Coordination Sequence:
#
# PCOD8297359 Si02
#       5
#    16  16  16  16  16
#     4  10  18  26  46  74  96 118 154 193 232 273
#     4   9  16  30  48  68  90 123 156 193 223 271
#     4   9  17  30  46  65  93 127 154 180 224 282
#     4  10  17  31  50  66  92 128 155 182 228 288
#     4  11  21  30  45  72  99 119 150 197 238 271
#
# _framework density 15.333826
#
# number of rings (size 3 to 8) (size 9 to 14) (size 15 to 20)
#    0.000    2.200    6.000    3.000    0.000    1.600 
#    0.000    0.000    0.000    2.400    0.000    0.000 
#    0.000    2.000    0.000    0.000    0.000    0.000 
#
# Total GULP energy -495723.538277 kJ/mol
# GULP energy per Si atom -12393.088457 kJ/mol
# Density = 1.529893 g / cm^3
# Si number density = 15.333826 Si / 1000 Ang^3
#
#
#
# Elastic Constant Matrix: (Units=GPa)
#
#
# Indices 1 2 3 4 5 6 
#
# 1 87.7339 33.0171 49.8668 0.0000 0.0000 0.0000
# 2 33.0171 77.9579 28.0252 0.0000 0.0000 0.0000
# 3 49.8668 28.0252 90.6591 0.0000 0.0000 0.0000
# 4 0.0000 0.0000 0.0000 16.1524 0.0000 0.0000
# 5 0.0000 0.0000 0.0000 0.0000 18.8844 0.0000
# 6 0.0000 0.0000 0.0000 0.0000 0.0000 15.4820
#
#
#
# Elastic Compliance Matrix: (Units=1/GPa)
#
#
# Indices 1 2 3 4 5 6 
#
# 1 0.017910 -0.004550 -0.008445 0.000000 0.000000 0.000000
# 2 -0.004550 0.015587 -0.002316 0.000000 0.000000 0.000000
# 3 -0.008445 -0.002316 0.016391 0.000000 0.000000 0.000000
# 4 0.000000 0.000000 0.000000 0.061910 0.000000 0.000000
# 5 0.000000 0.000000 0.000000 0.000000 0.052954 0.000000
# 6 0.000000 0.000000 0.000000 0.000000 0.000000 0.064591
#
#
# Mechanical properties :
#
#
# Convention : Reuss Voigt Hill
#
# Bulk Modulus (GPa) = 51.90072 53.12990 52.51531
# Shear Modulus (GPa) = 18.76965 19.79988 19.28476
#
# Velocity S-wave (km/s) = 3.50246 3.59730 3.55020
# Velocity P-wave (km/s) = 7.09063 7.20959 7.15036
#
# Compressibility (1/GPa) = 0.01926755
#
# Stress axis : x y z
#
# Youngs Moduli (GPa) = 55.83362 64.15686 61.00736
#
# Poissons Ratio (x) = 0.29188 0.51522
# Poissons Ratio (y) = 0.25402 0.14128
# Poissons Ratio (z) = 0.47152 0.14858
#
# Static dielectric constant tensor:
#      x y z
#    x 3.003950 0.000000 0.000000 
#    y 0.000000 2.587310 0.000000 
#    z 0.000000 0.000000 3.111020 
# 
# 
# High freq. dielectric constant tensor:
#      x y z
#    x 1.591640 0.000000 0.000000 
#    y 0.000000 1.543450 0.000000 
#    z 0.000000 0.000000 1.588140 
# 
# From -- ./inp_files/34168.got.cif
#   From: 2010.03.12/outbox.cif.g09.slc.cpg/sg74_18_cif.got.tgz:34168.got - 2010.04.16 15:46:19.
