data_PCOD8297133
_publ_section_title
;
Structure prediction by ZEFSAII (Michael W. Deem and Ramdas Pophale) SiO2 
 PCOD8297133
Probable space group: I M M A
;
_chemical_formula_sum "Si O2"
_cell_formula_units_Z 80
_cell_length_a 9.596013
_cell_length_b 19.315540
_cell_length_c 32.665783
_cell_angle_alpha 90.000000
_cell_angle_beta 90.000000
_cell_angle_gamma 90.000000
_cell_volume 6054.673860
_symmetry_space_group_name_H-M "I M M A"
_symmetry_group_IT_number 74
_symmetry_cell_setting 'orthorhombic'
loop_
_space_group_symop_operation_xyz
x,y,z
-x,1/2-y,z
x,-y,-z
-x,1/2+y,-z
-x,-y,-z
x,1/2+y,-z
-x,y,z
x,1/2-y,z
1/2+x,1/2+y,1/2+z
1/2-x,-y,1/2+z
1/2+x,1/2-y,1/2-z
1/2-x,y,1/2-z
1/2-x,1/2-y,1/2-z
1/2+x,y,1/2-z
1/2-x,1/2+y,1/2+z
1/2+x,-y,1/2+z
loop_
_atom_site_type_symbol
_atom_site_label
_atom_site_fract_x
_atom_site_fract_y
_atom_site_fract_z
Si Si1 0.661785 0.829628 0.211587
Si Si2 0.342513 0.750000 0.076065
Si Si3 0.834842 0.969496 0.064666
Si Si4 0.836000 0.100649 0.018174
Si Si5 0.335468 0.750000 0.503930
Si Si6 0.340323 0.388412 0.874348
O O1 0.500000 0.836286 0.222677
O O2 0.699532 0.750000 0.201280
O O3 0.750000 0.856952 0.250000
O O4 0.700034 0.878070 0.173083
O O5 0.500000 0.750000 0.058593
O O6 0.314217 0.683940 0.103710
O O7 0.233214 0.750000 0.039977
O O8 0.757178 0.947347 0.106055
O O9 0.000000 0.964302 0.072039
O O10 0.785102 0.048041 0.053490
O O11 0.782670 0.921024 0.027052
O O12 0.789992 0.179959 0.028164
O O13 0.000000 0.092775 0.016166
O O14 0.500000 0.750000 0.496468
O O15 0.500000 0.412239 0.878846
#
# Coordination Sequence:
#
# PCOD8297133 Si02
#       6
#    16   8  16  16   8  16
#     4   9  17  29  41  54  74  98 124 156 191 223
#     4  10  18  26  35  53  77  98 124 159 195 220
#     4   9  16  27  39  54  75  97 124 160 193 221
#     4   8  15  25  38  55  75  96 123 161 195 218
#     4  10  16  26  42  55  69  98 134 161 188 224
#     4  10  18  28  40  54  75 101 126 157 194 226
#
# _framework density 13.212934000000001
#
# number of rings (size 3 to 8) (size 9 to 14) (size 15 to 20)
#    0.000    2.800    3.000    1.200    0.000    0.800 
#    0.000    3.000    0.000    0.000    0.000    0.000 
#    0.000    0.000    0.000    0.900    0.000    9.400 
#
# Total GULP energy -495706.531825 kJ/mol
# GULP energy per Si atom -12392.663296 kJ/mol
# Density = 1.318286 g / cm^3
# Si number density = 13.212934 Si / 1000 Ang^3
#
#
#
# Elastic Constant Matrix: (Units=GPa)
#
#
# Indices 1 2 3 4 5 6 
#
# 1 39.3562 32.1555 41.2350 0.0000 0.0000 0.0000
# 2 32.1555 97.5066 47.6802 0.0000 0.0000 0.0000
# 3 41.2350 47.6802 87.3392 0.0000 0.0000 0.0000
# 4 0.0000 0.0000 0.0000 17.3805 0.0000 0.0000
# 5 0.0000 0.0000 0.0000 0.0000 22.8810 0.0000
# 6 0.0000 0.0000 0.0000 0.0000 0.0000 14.2692
#
#
#
# Elastic Compliance Matrix: (Units=1/GPa)
#
#
# Indices 1 2 3 4 5 6 
#
# 1 0.053802 -0.007259 -0.021438 0.000000 0.000000 0.000000
# 2 -0.007259 0.014970 -0.004745 0.000000 0.000000 0.000000
# 3 -0.021438 -0.004745 0.024161 0.000000 0.000000 0.000000
# 4 0.000000 0.000000 0.000000 0.057536 0.000000 0.000000
# 5 0.000000 0.000000 0.000000 0.000000 0.043704 0.000000
# 6 0.000000 0.000000 0.000000 0.000000 0.000000 0.070081
#
#
# Mechanical properties :
#
#
# Convention : Reuss Voigt Hill
#
# Bulk Modulus (GPa) = 38.39062 51.81595 45.10329
# Shear Modulus (GPa) = 14.71357 17.78154 16.24756
#
# Velocity S-wave (km/s) = 3.34064 3.67245 3.51047
# Velocity P-wave (km/s) = 6.63312 7.56860 7.11625
#
# Compressibility (1/GPa) = 0.02604803
#
# Stress axis : x y z
#
# Youngs Moduli (GPa) = 18.58680 66.80013 41.38823
#
# Poissons Ratio (x) = 0.48493 0.88728
# Poissons Ratio (y) = 0.13493 0.19639
# Poissons Ratio (z) = 0.39846 0.31697
#
# Static dielectric constant tensor:
#      x y z
#    x 2.528170 0.000000 0.000000 
#    y 0.000000 2.970820 0.000000 
#    z 0.000000 0.000000 2.548190 
# 
# 
# High freq. dielectric constant tensor:
#      x y z
#    x 1.492240 0.000000 0.000000 
#    y 0.000000 1.487060 0.000000 
#    z 0.000000 0.000000 1.475250 
# 
# From -- ./inp_files/52801.got.cif
#   From: 2010.03.12/outbox.cif.g09.slc.cpg/sg74_27_cif.got.tgz:52801.got - 2010.04.16 15:46:19.
