data_PCOD8297005
_publ_section_title
;
Structure prediction by ZEFSAII (Michael W. Deem and Ramdas Pophale) SiO2 
 PCOD8297005
Probable space group: I B C A 
;
_chemical_formula_sum "Si O2"
_cell_formula_units_Z 40
_cell_length_a 8.669982
_cell_length_b 13.416353
_cell_length_c 13.696440
_cell_angle_alpha 90.000000
_cell_angle_beta 90.000000
_cell_angle_gamma 90.000000
_cell_volume 1593.163587
_symmetry_space_group_name_H-M "I B C A "
_symmetry_group_IT_number 73
_symmetry_cell_setting 'orthorhombic'
loop_
_space_group_symop_operation_xyz
x,y,z
-x,1/2-y,z
x,-y,1/2-z
1/2-x,y,-z
-x,-y,-z
x,1/2+y,-z
-x,y,1/2+z
1/2+x,-y,z
1/2+x,1/2+y,1/2+z
1/2-x,-y,1/2+z
1/2+x,1/2-y,-z
-x,1/2+y,1/2-z
1/2-x,1/2-y,1/2-z
1/2+x,y,1/2-z
1/2-x,1/2+y,z
x,1/2-y,1/2+z
loop_
_atom_site_type_symbol
_atom_site_label
_atom_site_fract_x
_atom_site_fract_y
_atom_site_fract_z
Si Si1 0.323125 0.614263 0.658017
Si Si2 0.500000 0.750000 0.520354
Si Si3 0.962119 0.095557 0.362316
O O1 0.364169 0.705677 0.587494
O O2 0.142935 0.595078 0.658357
O O3 0.374954 0.639408 0.767878
O O4 0.409121 0.516695 0.616237
O O5 0.421187 0.834931 0.453777
#
# Coordination Sequence:
#
# PCOD8297005 Si02
#       3
#    16   8  16
#     4  11  25  45  69  97 134 177 221 274 332 395
#     4  12  26  40  66 102 132 172 222 272 328 390
#     4  11  25  45  69  97 134 177 221 274 332 395
#
# _framework density 25.107277
#
# number of rings (size 3 to 8) (size 9 to 14) (size 15 to 20)
#    0.000    0.800    0.000    8.400    0.000   16.000 
#    0.000    0.000    0.000    0.000    0.000    0.000 
#    0.000    0.000    0.000    0.000    0.000    0.000 
#
# Total GULP energy -248164.635420 kJ/mol
# GULP energy per Si atom -12408.231771 kJ/mol
# Density = 2.505013 g / cm^3
# Si number density = 25.107277 Si / 1000 Ang^3
#
#
#
# Elastic Constant Matrix: (Units=GPa)
#
#
# Indices 1 2 3 4 5 6 
#
# 1 191.8535 52.8634 49.4930 0.0000 0.0000 0.0000
# 2 52.8634 82.3286 73.9964 0.0000 0.0000 0.0000
# 3 49.4930 73.9964 131.0909 0.0000 0.0000 0.0000
# 4 0.0000 0.0000 0.0000 72.4432 0.0000 0.0000
# 5 0.0000 0.0000 0.0000 0.0000 25.8777 0.0000
# 6 0.0000 0.0000 0.0000 0.0000 0.0000 21.4624
#
#
#
# Elastic Compliance Matrix: (Units=1/GPa)
#
#
# Indices 1 2 3 4 5 6 
#
# 1 0.006335 -0.003893 -0.000194 0.000000 0.000000 0.000000
# 2 -0.003893 0.027047 -0.013797 0.000000 0.000000 0.000000
# 3 -0.000194 -0.013797 0.015490 0.000000 0.000000 0.000000
# 4 0.000000 0.000000 0.000000 0.013804 0.000000 0.000000
# 5 0.000000 0.000000 0.000000 0.000000 0.038643 0.000000
# 6 0.000000 0.000000 0.000000 0.000000 0.000000 0.046593
#
#
# Mechanical properties :
#
#
# Convention : Reuss Voigt Hill
#
# Bulk Modulus (GPa) = 76.32121 84.21982 80.27052
# Shear Modulus (GPa) = 26.58868 39.21801 32.90334
#
# Velocity S-wave (km/s) = 3.25776 3.95652 3.62402
# Velocity P-wave (km/s) = 6.67943 7.38166 7.03931
#
# Compressibility (1/GPa) = 0.01310252
#
# Stress axis : x y z
#
# Youngs Moduli (GPa) = 157.84911 36.97217 64.55863
#
# Poissons Ratio (x) = 0.14394 0.01254
# Poissons Ratio (y) = 0.61455 0.89074
# Poissons Ratio (z) = 0.03065 0.51012
#
# Static dielectric constant tensor:
#      x y z
#    x 4.363750 0.000000 0.000000 
#    y 0.000000 5.679010 0.000000 
#    z 0.000000 0.000000 4.826110 
# 
# 
# High freq. dielectric constant tensor:
#      x y z
#    x 2.008250 0.000000 0.000000 
#    y 0.000000 2.010820 0.000000 
#    z 0.000000 0.000000 2.016960 
# 
# From -- ./inp_files/4202.got.cif
#   From: 2010.03.12/outbox.cif.g09.slc.cpg/sg73_3_cif.got.tgz:4202.got - 2010.04.16 15:25:48.
