data_PCOD8297182
_publ_section_title
;
Structure prediction by ZEFSAII (Michael W. Deem and Ramdas Pophale) SiO2 
 PCOD8297182
Probable space group: I M M A
;
_chemical_formula_sum "Si O2"
_cell_formula_units_Z 96
_cell_length_a 28.871991
_cell_length_b 13.550096
_cell_length_c 11.539665
_cell_angle_alpha 90.000000
_cell_angle_beta 90.000000
_cell_angle_gamma 90.000000
_cell_volume 4514.527544
_symmetry_space_group_name_H-M "I M M A"
_symmetry_group_IT_number 74
_symmetry_cell_setting 'orthorhombic'
loop_
_space_group_symop_operation_xyz
x,y,z
-x,1/2-y,z
x,-y,-z
-x,1/2+y,-z
-x,-y,-z
x,1/2+y,-z
-x,y,z
x,1/2-y,z
1/2+x,1/2+y,1/2+z
1/2-x,-y,1/2+z
1/2+x,1/2-y,1/2-z
1/2-x,y,1/2-z
1/2-x,1/2-y,1/2-z
1/2+x,y,1/2-z
1/2-x,1/2+y,1/2+z
1/2+x,-y,1/2+z
loop_
_atom_site_type_symbol
_atom_site_label
_atom_site_fract_x
_atom_site_fract_y
_atom_site_fract_z
Si Si1 0.291731 0.138939 0.592527
Si Si2 0.675409 0.137185 0.336778
Si Si3 0.933054 0.864216 0.810634
Si Si4 0.750000 0.496246 0.250000
Si Si5 0.888587 0.863578 0.189602
Si Si6 0.929764 0.000000 0.000000
Si Si7 0.947600 0.515682 0.369762
O O1 0.272175 0.250000 0.588750
O O2 0.308752 0.107536 0.465478
O O3 0.332718 0.130992 0.689421
O O4 0.251330 0.065579 0.635393
O O5 0.685695 0.250000 0.307580
O O6 0.621391 0.114444 0.325421
O O7 0.704140 0.072209 0.244815
O O8 0.947041 0.750000 0.821370
O O9 0.948534 0.906291 0.687033
O O10 0.958707 0.931171 0.909592
O O11 0.905126 0.750000 0.180530
O O12 0.901267 0.919795 0.072383
O O13 0.912414 0.911697 0.302671
O O14 0.929539 0.500000 0.500000
O O15 0.000000 0.559589 0.368655
#
# Coordination Sequence:
#
# PCOD8297182 Si02
#       7
#    16  16  16   8  16   8  16
#     4  10  21  37  57  82 113 149 191 237 288 349
#     4  10  21  37  57  82 113 149 191 237 288 349
#     4  10  20  37  64  89 115 153 197 243 294 351
#     4  12  20  30  54  82 112 150 188 228 280 336
#     4  10  20  37  64  89 115 153 197 243 294 351
#     4  10  16  30  59  94 116 134 184 238 288 350
#     4  10  23  41  60  86 119 155 200 243 284 348
#
# _framework density 21.264683000000002
#
# number of rings (size 3 to 8) (size 9 to 14) (size 15 to 20)
#    0.000    1.833    1.667    3.500    0.000    1.333 
#    0.000   15.000    0.000   12.000    0.000    0.000 
#    0.000    0.000    0.000    0.000    0.000    0.000 
#
# Total GULP energy -594758.493782 kJ/mol
# GULP energy per Si atom -12390.801954 kJ/mol
# Density = 2.121628 g / cm^3
# Si number density = 21.264683 Si / 1000 Ang^3
#
#
#
# Elastic Constant Matrix: (Units=GPa)
#
#
# Indices 1 2 3 4 5 6 
#
# 1 81.6461 34.8630 38.7474 0.0000 0.0000 0.0000
# 2 34.8630 141.5205 65.1929 0.0000 0.0000 0.0000
# 3 38.7474 65.1929 138.8157 0.0000 0.0000 0.0000
# 4 0.0000 0.0000 0.0000 33.4658 0.0000 0.0000
# 5 0.0000 0.0000 0.0000 0.0000 45.3477 0.0000
# 6 0.0000 0.0000 0.0000 0.0000 0.0000 2.3105
#
#
#
# Elastic Compliance Matrix: (Units=1/GPa)
#
#
# Indices 1 2 3 4 5 6 
#
# 1 0.014636 -0.002199 -0.003052 0.000000 0.000000 0.000000
# 2 -0.002199 0.009347 -0.003776 0.000000 0.000000 0.000000
# 3 -0.003052 -0.003776 0.009829 0.000000 0.000000 0.000000
# 4 0.000000 0.000000 0.000000 0.029881 0.000000 0.000000
# 5 0.000000 0.000000 0.000000 0.000000 0.022052 0.000000
# 6 0.000000 0.000000 0.000000 0.000000 0.000000 0.432809
#
#
# Mechanical properties :
#
#
# Convention : Reuss Voigt Hill
#
# Bulk Modulus (GPa) = 63.46441 71.06543 67.26492
# Shear Modulus (GPa) = 9.22744 31.10339 20.16541
#
# Velocity S-wave (km/s) = 2.08536 3.82865 3.08280
# Velocity P-wave (km/s) = 5.97563 7.28263 6.66126
#
# Compressibility (1/GPa) = 0.01575686
#
# Stress axis : x y z
#
# Youngs Moduli (GPa) = 68.32619 106.98223 101.73854
#
# Poissons Ratio (x) = 0.23529 0.31054
# Poissons Ratio (y) = 0.15027 0.38416
# Poissons Ratio (z) = 0.20855 0.40396
#
# Static dielectric constant tensor:
#      x y z
#    x 3.656310 0.000000 0.000000 
#    y 0.000000 4.201520 0.000000 
#    z 0.000000 0.000000 3.745220 
# 
# 
# High freq. dielectric constant tensor:
#      x y z
#    x 1.813820 0.000000 0.000000 
#    y 0.000000 1.858940 0.000000 
#    z 0.000000 0.000000 1.814470 
# 
# From -- ./inp_files/27133.got.cif
#   From: 2010.03.12/outbox.cif.g09.slc.cpg/sg74_14_cif.got.tgz:27133.got - 2010.04.16 15:46:19.
