data_PCOD8297011
_publ_section_title
;
Structure prediction by ZEFSAII (Michael W. Deem and Ramdas Pophale) SiO2 
 PCOD8297011
Probable space group: I B C A 
;
_chemical_formula_sum "Si O2"
_cell_formula_units_Z 80
_cell_length_a 11.047933
_cell_length_b 13.699045
_cell_length_c 23.335118
_cell_angle_alpha 90.000000
_cell_angle_beta 90.000000
_cell_angle_gamma 90.000000
_cell_volume 3531.679833
_symmetry_space_group_name_H-M "I B C A "
_symmetry_group_IT_number 73
_symmetry_cell_setting 'orthorhombic'
loop_
_space_group_symop_operation_xyz
x,y,z
-x,1/2-y,z
x,-y,1/2-z
1/2-x,y,-z
-x,-y,-z
x,1/2+y,-z
-x,y,1/2+z
1/2+x,-y,z
1/2+x,1/2+y,1/2+z
1/2-x,-y,1/2+z
1/2+x,1/2-y,-z
-x,1/2+y,1/2-z
1/2-x,1/2-y,1/2-z
1/2+x,y,1/2-z
1/2-x,1/2+y,z
x,1/2-y,1/2+z
loop_
_atom_site_type_symbol
_atom_site_label
_atom_site_fract_x
_atom_site_fract_y
_atom_site_fract_z
Si Si1 0.280889 0.936420 0.865574
Si Si2 0.365959 0.222664 0.711442
Si Si3 0.462722 0.906313 0.966203
Si Si4 0.623119 0.788910 0.572108
Si Si5 0.688336 0.356745 0.107342
O O1 0.347504 0.891699 0.808498
O O2 0.370071 0.938824 0.918518
O O3 0.166764 0.870290 0.883052
O O4 0.232448 0.046668 0.858209
O O5 0.500000 0.250000 0.739033
O O6 0.250000 0.250000 0.750000
O O7 0.362916 0.283568 0.653845
O O8 0.583288 0.866642 0.938320
O O9 0.397008 0.828485 0.007556
O O10 0.500000 0.000000 0.000000
O O11 0.500000 0.750000 0.599416
O O12 0.707211 0.693640 0.570225
#
# Coordination Sequence:
#
# PCOD8297011 Si02
#       5
#    16  16  16  16  16
#     4  11  25  47  67 107 145 186 246 304 372 457
#     4  11  26  52  79 105 141 195 257 330 390 438
#     4  12  24  42  68 103 154 196 236 290 365 454
#     4  11  26  37  66 103 144 198 240 283 358 453
#     4  11  26  47  71 105 148 194 244 307 369 462
#
# _framework density 22.65211
#
# number of rings (size 3 to 8) (size 9 to 14) (size 15 to 20)
#    0.000    0.800    4.000    1.800    8.400    5.600 
#    0.000    2.000    0.000    0.000    0.000    0.000 
#    0.000    0.000    0.000    0.000    0.000    0.000 
#
# Total GULP energy -495752.200752 kJ/mol
# GULP energy per Si atom -12393.805019 kJ/mol
# Density = 2.260055 g / cm^3
# Si number density = 22.652110 Si / 1000 Ang^3
#
#
#
# Elastic Constant Matrix: (Units=GPa)
#
#
# Indices 1 2 3 4 5 6 
#
# 1 142.6122 16.2797 29.3013 0.0000 0.0000 0.0000
# 2 16.2797 95.9587 16.0101 0.0000 0.0000 0.0000
# 3 29.3013 16.0101 65.1226 0.0000 0.0000 0.0000
# 4 0.0000 0.0000 0.0000 26.5556 0.0000 0.0000
# 5 0.0000 0.0000 0.0000 0.0000 182.4900 0.0000
# 6 0.0000 0.0000 0.0000 0.0000 0.0000 36.0132
#
#
#
# Elastic Compliance Matrix: (Units=1/GPa)
#
#
# Indices 1 2 3 4 5 6 
#
# 1 0.007780 -0.000767 -0.003312 0.000000 0.000000 0.000000
# 2 -0.000767 0.010943 -0.002345 0.000000 0.000000 0.000000
# 3 -0.003312 -0.002345 0.017422 0.000000 0.000000 0.000000
# 4 0.000000 0.000000 0.000000 0.037657 0.000000 0.000000
# 5 0.000000 0.000000 0.000000 0.000000 0.005480 0.000000
# 6 0.000000 0.000000 0.000000 0.000000 0.000000 0.027768
#
#
# Mechanical properties :
#
#
# Convention : Reuss Voigt Hill
#
# Bulk Modulus (GPa) = 42.92478 47.43065 45.17771
# Shear Modulus (GPa) = 39.16557 65.15190 52.15873
#
# Velocity S-wave (km/s) = 4.16264 5.36884 4.80375
# Velocity P-wave (km/s) = 6.48800 7.70822 7.12428
#
# Compressibility (1/GPa) = 0.02329657
#
# Stress axis : x y z
#
# Youngs Moduli (GPa) = 128.53316 91.38616 57.39765
#
# Poissons Ratio (x) = 0.07012 0.19010
# Poissons Ratio (y) = 0.09863 0.13459
# Poissons Ratio (z) = 0.42569 0.21429
#
# Static dielectric constant tensor:
#      x y z
#    x 4.538060 0.000000 0.000000 
#    y 0.000000 4.547290 0.000000 
#    z 0.000000 0.000000 4.161000 
# 
# 
# High freq. dielectric constant tensor:
#      x y z
#    x 1.917910 0.000000 0.000000 
#    y 0.000000 1.906060 0.000000 
#    z 0.000000 0.000000 1.867540 
# 
# From -- ./inp_files/28787.got.cif
#   From: 2010.03.12/outbox.cif.g09.slc.cpg/sg73_15_cif.got.tgz:28787.got - 2010.04.16 15:25:48.
