data_PCOD8297798
_publ_section_title
;
Structure prediction by ZEFSAII (Michael W. Deem and Ramdas Pophale) SiO2 
 PCOD8297798
Probable space group: I M M A
;
_chemical_formula_sum "Si O2"
_cell_formula_units_Z 104
_cell_length_a 13.723912
_cell_length_b 22.986067
_cell_length_c 21.134556
_cell_angle_alpha 90.000000
_cell_angle_beta 90.000000
_cell_angle_gamma 90.000000
_cell_volume 6667.080844
_symmetry_space_group_name_H-M "I M M A"
_symmetry_group_IT_number 74
_symmetry_cell_setting 'orthorhombic'
loop_
_space_group_symop_operation_xyz
x,y,z
-x,1/2-y,z
x,-y,-z
-x,1/2+y,-z
-x,-y,-z
x,1/2+y,-z
-x,y,z
x,1/2-y,z
1/2+x,1/2+y,1/2+z
1/2-x,-y,1/2+z
1/2+x,1/2-y,1/2-z
1/2-x,y,1/2-z
1/2-x,1/2-y,1/2-z
1/2+x,y,1/2-z
1/2-x,1/2+y,1/2+z
1/2+x,-y,1/2+z
loop_
_atom_site_type_symbol
_atom_site_label
_atom_site_fract_x
_atom_site_fract_y
_atom_site_fract_z
Si Si1 0.305807 0.933478 0.977833
Si Si2 0.610073 0.893094 0.102206
Si Si3 0.388266 0.475099 0.147202
Si Si4 0.388265 0.417620 0.661630
Si Si5 0.604348 0.935065 0.481725
Si Si6 0.250000 0.006656 0.750000
Si Si7 0.736250 0.814992 0.324278
O O1 0.355120 0.931414 0.908954
O O2 0.366271 0.894178 0.027157
O O3 0.193766 0.908997 0.976904
O O4 0.303052 0.000000 0.000000
O O5 0.500000 0.871336 0.110827
O O6 0.676294 0.848770 0.141127
O O7 0.623929 0.957605 0.129187
O O8 0.500000 0.460459 0.164427
O O9 0.317288 0.464573 0.206972
O O10 0.500000 0.428674 0.680394
O O11 0.362708 0.437594 0.591138
O O12 0.320313 0.452496 0.709323
O O13 0.364857 0.348884 0.664216
O O14 0.500000 0.900759 0.490436
O O15 0.582862 0.000000 0.500000
O O16 0.728980 0.750000 0.352848
O O17 0.750000 0.811885 0.250000
#
# Coordination Sequence:
#
# PCOD8297798 Si02
#       7
#    16  16  16  16  16   8  16
#     4   9  15  28  45  65  87 107 137 183 221 266
#     4  10  18  31  48  64  83 110 146 189 233 269
#     4  10  19  28  44  67  89 115 146 178 218 267
#     4  11  20  32  47  61  83 116 150 183 221 263
#     4   9  16  26  43  65  84 106 139 177 218 263
#     4  12  18  30  43  64  92 118 147 182 214 262
#     4  11  22  35  45  59  84 113 154 199 231 260
#
# _framework density 15.599030000000001
#
# number of rings (size 3 to 8) (size 9 to 14) (size 15 to 20)
#    0.000    1.846    3.846    2.769    0.000    4.308 
#    0.000    2.308    0.000    0.000    0.000    0.000 
#    0.000    0.000    0.000    0.692    0.308    0.769 
#
# Total GULP energy -644395.330193 kJ/mol
# GULP energy per Si atom -12392.217888 kJ/mol
# Density = 1.556353 g / cm^3
# Si number density = 15.599030 Si / 1000 Ang^3
#
#
#
# Elastic Constant Matrix: (Units=GPa)
#
#
# Indices 1 2 3 4 5 6 
#
# 1 118.4392 11.8500 54.6539 0.0000 0.0000 0.0000
# 2 11.8500 29.1301 31.8653 0.0000 0.0000 0.0000
# 3 54.6539 31.8653 95.0520 0.0000 0.0000 0.0000
# 4 0.0000 0.0000 0.0000 12.8300 0.0000 0.0000
# 5 0.0000 0.0000 0.0000 0.0000 32.4726 0.0000
# 6 0.0000 0.0000 0.0000 0.0000 0.0000 10.9889
#
#
#
# Elastic Compliance Matrix: (Units=1/GPa)
#
#
# Indices 1 2 3 4 5 6 
#
# 1 0.011800 0.004140 -0.008173 0.000000 0.000000 0.000000
# 2 0.004140 0.055660 -0.021040 0.000000 0.000000 0.000000
# 3 -0.008173 -0.021040 0.022273 0.000000 0.000000 0.000000
# 4 0.000000 0.000000 0.000000 0.077943 0.000000 0.000000
# 5 0.000000 0.000000 0.000000 0.000000 0.030795 0.000000
# 6 0.000000 0.000000 0.000000 0.000000 0.000000 0.091001
#
#
# Mechanical properties :
#
#
# Convention : Reuss Voigt Hill
#
# Bulk Modulus (GPa) = 25.26014 48.81777 37.03895
# Shear Modulus (GPa) = 14.17174 20.87510 17.52342
#
# Velocity S-wave (km/s) = 3.01741 3.66215 3.35530
# Velocity P-wave (km/s) = 5.32618 7.01749 6.22950
#
# Compressibility (1/GPa) = 0.03958807
#
# Stress axis : x y z
#
# Youngs Moduli (GPa) = 84.74307 17.96610 44.89643
#
# Poissons Ratio (x) = -0.07438 0.36694
# Poissons Ratio (y) = -0.35085 0.94463
# Poissons Ratio (z) = 0.69261 0.37801
#
# Static dielectric constant tensor:
#      x y z
#    x 3.432880 0.000000 0.000000 
#    y 0.000000 2.650110 0.000000 
#    z 0.000000 0.000000 3.127090 
# 
# 
# High freq. dielectric constant tensor:
#      x y z
#    x 1.627620 0.000000 0.000000 
#    y 0.000000 1.523350 0.000000 
#    z 0.000000 0.000000 1.598430 
# 
# From -- ./inp_files/52292.got.cif
#   From: 2010.03.12/outbox.cif.g09.slc.cpg/sg74_27_cif.got.tgz:52292.got - 2010.04.16 15:46:19.
