data_PCOD8297772
_publ_section_title
;
Structure prediction by ZEFSAII (Michael W. Deem and Ramdas Pophale) SiO2 
 PCOD8297772
Probable space group: I M M A
;
_chemical_formula_sum "Si O2"
_cell_formula_units_Z 96
_cell_length_a 23.597484
_cell_length_b 17.559281
_cell_length_c 12.402749
_cell_angle_alpha 90.000000
_cell_angle_beta 90.000000
_cell_angle_gamma 90.000000
_cell_volume 5139.139232
_symmetry_space_group_name_H-M "I M M A"
_symmetry_group_IT_number 74
_symmetry_cell_setting 'orthorhombic'
loop_
_space_group_symop_operation_xyz
x,y,z
-x,1/2-y,z
x,-y,-z
-x,1/2+y,-z
-x,-y,-z
x,1/2+y,-z
-x,y,z
x,1/2-y,z
1/2+x,1/2+y,1/2+z
1/2-x,-y,1/2+z
1/2+x,1/2-y,1/2-z
1/2-x,y,1/2-z
1/2-x,1/2-y,1/2-z
1/2+x,y,1/2-z
1/2-x,1/2+y,1/2+z
1/2+x,-y,1/2+z
loop_
_atom_site_type_symbol
_atom_site_label
_atom_site_fract_x
_atom_site_fract_y
_atom_site_fract_z
Si Si1 0.690057 0.162264 0.572774
Si Si2 0.803730 0.163334 0.309346
Si Si3 0.893626 0.161356 0.734804
Si Si4 0.000000 0.410272 0.085518
Si Si5 0.685092 0.840644 0.046905
Si Si6 0.385613 0.836272 0.618220
Si Si7 0.000000 0.914949 0.156160
O O1 0.697511 0.250000 0.540694
O O2 0.658106 0.150705 0.683810
O O3 0.753290 0.127837 0.585473
O O4 0.653868 0.124693 0.474300
O O5 0.785017 0.250000 0.333969
O O6 0.750000 0.122863 0.250000
O O7 0.821374 0.127606 0.424664
O O8 0.857570 0.158116 0.234241
O O9 0.913391 0.250000 0.730012
O O10 0.867508 0.130563 0.621334
O O11 0.945628 0.108759 0.772824
O O12 0.056317 0.379045 0.138878
O O13 0.000000 0.498421 0.116405
O O14 0.000000 0.377188 0.962086
O O15 0.682579 0.750000 0.056464
O O16 0.398526 0.750000 0.583510
#
# Coordination Sequence:
#
# PCOD8297772 Si02
#       7
#    16  16  16   8  16  16   8
#     4   9  15  25  46  79 110 131 157 204 263 314
#     4   9  15  26  47  77 110 138 165 207 262 312
#     4  10  19  31  51  78 107 137 175 218 261 316
#     4  11  23  37  52  73 100 138 181 224 267 312
#     4   9  16  27  46  79 115 140 163 202 263 324
#     4  10  18  30  53  81 106 133 168 215 263 313
#     4  11  23  37  52  71  98 142 181 224 269 306
#
# _framework density 18.680171000000001
#
# number of rings (size 3 to 8) (size 9 to 14) (size 15 to 20)
#    0.000    2.333    3.333    1.000    0.000    2.667 
#    0.000    0.833    0.000    8.000    4.333    0.000 
#    0.000    0.000    0.000    0.000    0.000    0.000 
#
# Total GULP energy -594680.034517 kJ/mol
# GULP energy per Si atom -12389.167386 kJ/mol
# Density = 1.863765 g / cm^3
# Si number density = 18.680171 Si / 1000 Ang^3
#
#
#
# Elastic Constant Matrix: (Units=GPa)
#
#
# Indices 1 2 3 4 5 6 
#
# 1 128.1227 31.4562 58.9286 0.0000 0.0000 0.0000
# 2 31.4562 22.1765 23.9091 0.0000 0.0000 0.0000
# 3 58.9286 23.9091 134.9917 0.0000 0.0000 0.0000
# 4 0.0000 0.0000 0.0000 12.9709 0.0000 0.0000
# 5 0.0000 0.0000 0.0000 0.0000 25.1180 0.0000
# 6 0.0000 0.0000 0.0000 0.0000 0.0000 -58.9558
#
#
#
# Elastic Compliance Matrix: (Units=1/GPa)
#
#
# Indices 1 2 3 4 5 6 
#
# 1 0.012858 -0.015063 -0.002945 0.000000 0.000000 0.000000
# 2 -0.015063 0.073382 -0.006422 0.000000 0.000000 0.000000
# 3 -0.002945 -0.006422 0.009831 0.000000 0.000000 0.000000
# 4 0.000000 0.000000 0.000000 0.077096 0.000000 0.000000
# 5 0.000000 0.000000 0.000000 0.000000 0.039812 0.000000
# 6 0.000000 0.000000 0.000000 0.000000 0.000000 -0.016962
#
#
# Mechanical properties :
#
#
# Convention : Reuss Voigt Hill
#
# Bulk Modulus (GPa) = 21.18128 57.09762 39.13945
# Shear Modulus (GPa) = 19.18558 7.22641 13.20600
#
# Velocity S-wave (km/s) = 3.20825 1.96898 2.66174
# Velocity P-wave (km/s) = 5.00873 5.98343 5.51764
#
# Compressibility (1/GPa) = 0.04721151
#
# Stress axis : x y z
#
# Youngs Moduli (GPa) = 77.77439 13.62734 101.72104
#
# Poissons Ratio (x) = 0.20527 0.29957
# Poissons Ratio (y) = 1.17151 0.65321
# Poissons Ratio (z) = 0.22904 0.08751
#
# Static dielectric constant tensor:
#      x y z
#    x 3.459360 0.000000 0.000000 
#    y 0.000000 2.863740 0.000000 
#    z 0.000000 0.000000 3.606270 
# 
# 
# High freq. dielectric constant tensor:
#      x y z
#    x 1.730890 0.000000 0.000000 
#    y 0.000000 1.654260 0.000000 
#    z 0.000000 0.000000 1.732610 
# 
# From -- ./inp_files/23976.got.cif
#   From: 2010.03.12/outbox.cif.g09.slc.cpg/sg74_12_cif.got.tgz:23976.got - 2010.04.16 15:46:19.
