data_PCOD8297073
_publ_section_title
;
Structure prediction by ZEFSAII (Michael W. Deem and Ramdas Pophale) SiO2 
 PCOD8297073
Probable space group: I B C A 
;
_chemical_formula_sum "Si O2"
_cell_formula_units_Z 48
_cell_length_a 13.920427
_cell_length_b 17.836719
_cell_length_c 7.919024
_cell_angle_alpha 90.000000
_cell_angle_beta 90.000000
_cell_angle_gamma 90.000000
_cell_volume 1966.252043
_symmetry_space_group_name_H-M "I B C A "
_symmetry_group_IT_number 73
_symmetry_cell_setting 'orthorhombic'
loop_
_space_group_symop_operation_xyz
x,y,z
-x,1/2-y,z
x,-y,1/2-z
1/2-x,y,-z
-x,-y,-z
x,1/2+y,-z
-x,y,1/2+z
1/2+x,-y,z
1/2+x,1/2+y,1/2+z
1/2-x,-y,1/2+z
1/2+x,1/2-y,-z
-x,1/2+y,1/2-z
1/2-x,1/2-y,1/2-z
1/2+x,y,1/2-z
1/2-x,1/2+y,z
x,1/2-y,1/2+z
loop_
_atom_site_type_symbol
_atom_site_label
_atom_site_fract_x
_atom_site_fract_y
_atom_site_fract_z
Si Si1 0.213091 0.170853 0.311459
Si Si2 0.623290 0.585057 0.302052
Si Si3 0.471838 0.332824 0.390595
O O1 0.250000 0.157511 0.500000
O O2 0.250000 0.250000 0.250000
O O3 0.263582 0.105243 0.200341
O O4 0.098227 0.168965 0.276294
O O5 0.604948 0.500000 0.250000
O O6 0.573535 0.632857 0.155336
O O7 0.579093 0.611629 0.478385
O O8 0.500000 0.250000 0.460394
#
# Coordination Sequence:
#
# PCOD8297073 Si02
#       3
#    16  16  16
#     4  12  26  46  74 107 145 194 251 309 374 447
#     4  12  27  46  73 112 151 194 247 314 381 443
#     4  12  25  46  77 109 152 200 256 306 375 458
#
# _framework density 24.411923999999999
#
# number of rings (size 3 to 8) (size 9 to 14) (size 15 to 20)
#    0.000    0.000    3.333    7.000    0.000    4.000 
#    0.000    0.000    0.000    0.000    0.000    0.000 
#    0.000    0.000    0.000    0.000    0.000    0.000 
#
# Total GULP energy -297439.195533 kJ/mol
# GULP energy per Si atom -12393.299814 kJ/mol
# Density = 2.435636 g / cm^3
# Si number density = 24.411924 Si / 1000 Ang^3
#
#
#
# Elastic Constant Matrix: (Units=GPa)
#
#
# Indices 1 2 3 4 5 6 
#
# 1 111.9820 32.2275 4.0433 0.0000 0.0000 0.0000
# 2 32.2275 163.9715 25.9711 0.0000 0.0000 0.0000
# 3 4.0433 25.9711 86.3543 0.0000 0.0000 0.0000
# 4 0.0000 0.0000 0.0000 32.6649 0.0000 0.0000
# 5 0.0000 0.0000 0.0000 0.0000 31.7359 0.0000
# 6 0.0000 0.0000 0.0000 0.0000 0.0000 37.2043
#
#
#
# Elastic Compliance Matrix: (Units=1/GPa)
#
#
# Indices 1 2 3 4 5 6 
#
# 1 0.009467 -0.001880 0.000122 0.000000 0.000000 0.000000
# 2 -0.001880 0.006777 -0.001950 0.000000 0.000000 0.000000
# 3 0.000122 -0.001950 0.012161 0.000000 0.000000 0.000000
# 4 0.000000 0.000000 0.000000 0.030614 0.000000 0.000000
# 5 0.000000 0.000000 0.000000 0.000000 0.031510 0.000000
# 6 0.000000 0.000000 0.000000 0.000000 0.000000 0.026879
#
#
# Mechanical properties :
#
#
# Convention : Reuss Voigt Hill
#
# Bulk Modulus (GPa) = 47.64470 54.08795 50.86633
# Shear Modulus (GPa) = 37.93069 40.32541 39.12805
#
# Velocity S-wave (km/s) = 3.94607 4.06873 4.00787
# Velocity P-wave (km/s) = 6.34991 6.65412 6.50379
#
# Compressibility (1/GPa) = 0.02098869
#
# Stress axis : x y z
#
# Youngs Moduli (GPa) = 105.63424 147.55802 82.23010
#
# Poissons Ratio (x) = 0.27740 -0.01004
# Poissons Ratio (y) = 0.19859 0.16036
# Poissons Ratio (z) = -0.01290 0.28776
#
# Static dielectric constant tensor:
#      x y z
#    x 5.241730 0.000000 0.000000 
#    y 0.000000 4.283460 0.000000 
#    z 0.000000 0.000000 4.640190 
# 
# 
# High freq. dielectric constant tensor:
#      x y z
#    x 1.994420 0.000000 0.000000 
#    y 0.000000 1.957050 0.000000 
#    z 0.000000 0.000000 1.978260 
# 
# From -- ./inp_files/4285.got.cif
#   From: 2010.03.12/outbox.cif.g09.slc.cpg/sg73_3_cif.got.tgz:4285.got - 2010.04.16 15:25:48.
