data_PCOD8297365
_publ_section_title
;
Structure prediction by ZEFSAII (Michael W. Deem and Ramdas Pophale) SiO2 
 PCOD8297365
Probable space group: I M M A
;
_chemical_formula_sum "Si O2"
_cell_formula_units_Z 104
_cell_length_a 16.595091
_cell_length_b 12.193323
_cell_length_c 26.145884
_cell_angle_alpha 90.000000
_cell_angle_beta 90.000000
_cell_angle_gamma 90.000000
_cell_volume 5290.601450
_symmetry_space_group_name_H-M "I M M A"
_symmetry_group_IT_number 74
_symmetry_cell_setting 'orthorhombic'
loop_
_space_group_symop_operation_xyz
x,y,z
-x,1/2-y,z
x,-y,-z
-x,1/2+y,-z
-x,-y,-z
x,1/2+y,-z
-x,y,z
x,1/2-y,z
1/2+x,1/2+y,1/2+z
1/2-x,-y,1/2+z
1/2+x,1/2-y,1/2-z
1/2-x,y,1/2-z
1/2-x,1/2-y,1/2-z
1/2+x,y,1/2-z
1/2-x,1/2+y,1/2+z
1/2+x,-y,1/2+z
loop_
_atom_site_type_symbol
_atom_site_label
_atom_site_fract_x
_atom_site_fract_y
_atom_site_fract_z
Si Si1 0.094458 0.750000 0.785343
Si Si2 0.909423 0.121683 0.868223
Si Si3 0.096274 0.750000 0.901152
Si Si4 0.178683 0.465464 0.058146
Si Si5 0.094909 0.579922 0.701398
Si Si6 0.339230 0.871610 0.906693
Si Si7 0.404774 0.631640 0.255707
Si Si8 0.000000 0.381456 0.469267
O O1 0.131510 0.750000 0.842623
O O2 0.121249 0.644347 0.752589
O O3 0.000000 0.750000 0.793329
O O4 0.909826 0.250000 0.879373
O O5 0.873098 0.096776 0.811784
O O6 0.000000 0.073608 0.873376
O O7 0.852293 0.065856 0.908769
O O8 0.128155 0.643468 0.930337
O O9 0.000000 0.750000 0.902588
O O10 0.272819 0.454017 0.071772
O O11 0.168059 0.500000 0.000000
O O12 0.147459 0.617790 0.653865
O O13 0.117939 0.453771 0.711709
O O14 0.000000 0.598302 0.690235
O O15 0.306757 0.750000 0.917966
O O16 0.422446 0.893872 0.934559
O O17 0.500000 0.640411 0.262007
O O18 0.369068 0.750000 0.239278
O O19 0.000000 0.500000 0.500000
O O20 0.000000 0.250000 0.492925
#
# Coordination Sequence:
#
# PCOD8297365 Si02
#       8
#     8  16   8  16  16  16  16   8
#     4   9  18  31  59  93 124 155 199 252 314 367
#     4   9  19  38  64  89 117 161 213 250 299 376
#     4  11  24  43  63  92 128 163 208 257 308 383
#     4  12  26  42  61  86 123 161 203 266 327 356
#     4  10  17  31  60  93 122 159 203 244 307 375
#     4  11  22  41  63  91 125 163 211 261 324 389
#     4   8  15  30  54  85 122 159 196 244 301 364
#     4  10  22  42  70  94 122 168 230 282 328 390
#
# _framework density 19.657499000000001
#
# number of rings (size 3 to 8) (size 9 to 14) (size 15 to 20)
#    0.000    2.000    2.308    2.769    1.077    3.692 
#    0.000    6.154    0.000    1.846    0.000    0.000 
#    0.000    0.000    0.000    0.000    0.000    0.000 
#
# Total GULP energy -644361.377381 kJ/mol
# GULP energy per Si atom -12391.564950 kJ/mol
# Density = 1.961276 g / cm^3
# Si number density = 19.657499 Si / 1000 Ang^3
#
#
#
# Elastic Constant Matrix: (Units=GPa)
#
#
# Indices 1 2 3 4 5 6 
#
# 1 70.0966 29.4623 27.3746 0.0000 0.0000 0.0000
# 2 29.4623 98.4303 53.6672 0.0000 0.0000 0.0000
# 3 27.3746 53.6672 103.9175 0.0000 0.0000 0.0000
# 4 0.0000 0.0000 0.0000 21.8032 0.0000 0.0000
# 5 0.0000 0.0000 0.0000 0.0000 17.6459 0.0000
# 6 0.0000 0.0000 0.0000 0.0000 0.0000 22.6113
#
#
#
# Elastic Compliance Matrix: (Units=1/GPa)
#
#
# Indices 1 2 3 4 5 6 
#
# 1 0.016789 -0.003638 -0.002544 0.000000 0.000000 0.000000
# 2 -0.003638 0.014930 -0.006752 0.000000 0.000000 0.000000
# 3 -0.002544 -0.006752 0.013780 0.000000 0.000000 0.000000
# 4 0.000000 0.000000 0.000000 0.045865 0.000000 0.000000
# 5 0.000000 0.000000 0.000000 0.000000 0.056670 0.000000
# 6 0.000000 0.000000 0.000000 0.000000 0.000000 0.044226
#
#
# Mechanical properties :
#
#
# Convention : Reuss Voigt Hill
#
# Bulk Modulus (GPa) = 50.94045 54.82806 52.88425
# Shear Modulus (GPa) = 22.25480 23.20811 22.73145
#
# Velocity S-wave (km/s) = 3.36836 3.43975 3.40424
# Velocity P-wave (km/s) = 6.41078 6.61272 6.51253
#
# Compressibility (1/GPa) = 0.01963077
#
# Stress axis : x y z
#
# Youngs Moduli (GPa) = 59.56431 66.97982 72.56877
#
# Poissons Ratio (x) = 0.24370 0.18458
# Poissons Ratio (y) = 0.21672 0.48998
# Poissons Ratio (z) = 0.15151 0.45224
#
# Static dielectric constant tensor:
#      x y z
#    x 3.314310 0.000000 0.000000 
#    y 0.000000 4.278650 0.000000 
#    z 0.000000 0.000000 3.577650 
# 
# 
# High freq. dielectric constant tensor:
#      x y z
#    x 1.746420 0.000000 0.000000 
#    y 0.000000 1.779870 0.000000 
#    z 0.000000 0.000000 1.758120 
# 
# From -- ./inp_files/67792.got.cif
#   From: 2010.03.12/outbox.cif.g09.slc.cpg/sg74_34_cif.got.tgz:67792.got - 2010.04.16 15:46:19.
