data_PCOD8297786
_publ_section_title
;
Structure prediction by ZEFSAII (Michael W. Deem and Ramdas Pophale) SiO2 
 PCOD8297786
Probable space group: I M M A
;
_chemical_formula_sum "Si O2"
_cell_formula_units_Z 112
_cell_length_a 14.187409
_cell_length_b 16.991602
_cell_length_c 25.869825
_cell_angle_alpha 90.000000
_cell_angle_beta 90.000000
_cell_angle_gamma 90.000000
_cell_volume 6236.356114
_symmetry_space_group_name_H-M "I M M A"
_symmetry_group_IT_number 74
_symmetry_cell_setting 'orthorhombic'
loop_
_space_group_symop_operation_xyz
x,y,z
-x,1/2-y,z
x,-y,-z
-x,1/2+y,-z
-x,-y,-z
x,1/2+y,-z
-x,y,z
x,1/2-y,z
1/2+x,1/2+y,1/2+z
1/2-x,-y,1/2+z
1/2+x,1/2-y,1/2-z
1/2-x,y,1/2-z
1/2-x,1/2-y,1/2-z
1/2+x,y,1/2-z
1/2-x,1/2+y,1/2+z
1/2+x,-y,1/2+z
loop_
_atom_site_type_symbol
_atom_site_label
_atom_site_fract_x
_atom_site_fract_y
_atom_site_fract_z
Si Si1 0.144794 0.432272 0.730916
Si Si2 0.297860 0.156396 0.866625
Si Si3 0.899431 0.339329 0.826315
Si Si4 0.393355 0.343775 0.083237
Si Si5 0.264227 0.161173 0.173737
Si Si6 0.895303 0.656671 0.468874
Si Si7 0.892654 0.894912 0.758171
O O1 0.250000 0.431880 0.750000
O O2 0.138070 0.390180 0.675043
O O3 0.085632 0.384770 0.772818
O O4 0.106287 0.520776 0.729853
O O5 0.314310 0.250000 0.859644
O O6 0.188014 0.131386 0.860940
O O7 0.326327 0.126659 0.923729
O O8 0.878872 0.250000 0.810708
O O9 0.000000 0.348033 0.856605
O O10 0.500000 0.373495 0.096186
O O11 0.392940 0.250000 0.086846
O O12 0.315182 0.376842 0.123327
O O13 0.363396 0.373067 0.025756
O O14 0.229120 0.250000 0.163053
O O15 0.173222 0.107707 0.189896
O O16 0.343683 0.165446 0.218641
O O17 0.896497 0.750000 0.469831
O O18 0.000000 0.624893 0.456808
O O19 0.000000 0.869628 0.771368
#
# Coordination Sequence:
#
# PCOD8297786 Si02
#       7
#    16  16  16  16  16  16  16
#     4  10  18  31  45  64  96 128 163 194 231 277
#     4   9  17  28  46  70  98 131 165 199 230 265
#     4   9  17  28  43  65  93 128 167 200 230 267
#     4   8  14  27  49  73  95 119 149 190 239 289
#     4  10  20  34  51  71  92 120 155 191 235 291
#     4   8  14  25  43  70  98 122 154 194 235 276
#     4  11  21  32  47  70  97 125 153 189 236 285
#
# _framework density 17.959205000000001
#
# number of rings (size 3 to 8) (size 9 to 14) (size 15 to 20)
#    0.000    2.714    1.429    3.000    0.000    4.571 
#    0.000    1.429    0.000    1.714    0.000    7.000 
#    0.000    3.714    0.000    0.000    0.000    0.000 
#
# Total GULP energy -693777.722274 kJ/mol
# GULP energy per Si atom -12388.887898 kJ/mol
# Density = 1.791833 g / cm^3
# Si number density = 17.959205 Si / 1000 Ang^3
#
#
#
# Elastic Constant Matrix: (Units=GPa)
#
#
# Indices 1 2 3 4 5 6 
#
# 1 123.9952 18.6479 74.1346 0.0000 0.0000 0.0000
# 2 18.6479 38.1523 14.4135 0.0000 0.0000 0.0000
# 3 74.1346 14.4135 124.6493 0.0000 0.0000 0.0000
# 4 0.0000 0.0000 0.0000 7.9830 0.0000 0.0000
# 5 0.0000 0.0000 0.0000 0.0000 29.3451 0.0000
# 6 0.0000 0.0000 0.0000 0.0000 0.0000 14.1751
#
#
#
# Elastic Compliance Matrix: (Units=1/GPa)
#
#
# Indices 1 2 3 4 5 6 
#
# 1 0.012967 -0.003581 -0.007298 0.000000 0.000000 0.000000
# 2 -0.003581 0.028397 -0.001154 0.000000 0.000000 0.000000
# 3 -0.007298 -0.001154 0.012496 0.000000 0.000000 0.000000
# 4 0.000000 0.000000 0.000000 0.125266 0.000000 0.000000
# 5 0.000000 0.000000 0.000000 0.000000 0.034077 0.000000
# 6 0.000000 0.000000 0.000000 0.000000 0.000000 0.070546
#
#
# Mechanical properties :
#
#
# Convention : Reuss Voigt Hill
#
# Bulk Modulus (GPa) = 33.56298 55.68766 44.62532
# Shear Modulus (GPa) = 15.73589 22.27405 19.00497
#
# Velocity S-wave (km/s) = 2.96328 3.52555 3.25657
# Velocity P-wave (km/s) = 5.51698 6.90274 6.24840
#
# Compressibility (1/GPa) = 0.02979474
#
# Stress axis : x y z
#
# Youngs Moduli (GPa) = 77.12153 35.21519 80.02404
#
# Poissons Ratio (x) = 0.12610 0.58400
# Poissons Ratio (y) = 0.27615 0.09234
# Poissons Ratio (z) = 0.56281 0.04064
#
# Static dielectric constant tensor:
#      x y z
#    x 3.468670 0.000000 0.000000 
#    y 0.000000 3.228380 0.000000 
#    z 0.000000 0.000000 3.517860 
# 
# 
# High freq. dielectric constant tensor:
#      x y z
#    x 1.692450 0.000000 0.000000 
#    y 0.000000 1.669110 0.000000 
#    z 0.000000 0.000000 1.673040 
# 
# From -- ./inp_files/67210.got.cif
#   From: 2010.03.12/outbox.cif.g09.slc.cpg/sg74_34_cif.got.tgz:67210.got - 2010.04.16 15:46:19.
