data_PCOD8297841
_publ_section_title
;
Structure prediction by ZEFSAII (Michael W. Deem and Ramdas Pophale) SiO2 
 PCOD8297841
Probable space group: I M M A
;
_chemical_formula_sum "Si O2"
_cell_formula_units_Z 112
_cell_length_a 17.090564
_cell_length_b 16.668985
_cell_length_c 21.688876
_cell_angle_alpha 90.000000
_cell_angle_beta 90.000000
_cell_angle_gamma 90.000000
_cell_volume 6178.778071
_symmetry_space_group_name_H-M "I M M A"
_symmetry_group_IT_number 74
_symmetry_cell_setting 'orthorhombic'
loop_
_space_group_symop_operation_xyz
x,y,z
-x,1/2-y,z
x,-y,-z
-x,1/2+y,-z
-x,-y,-z
x,1/2+y,-z
-x,y,z
x,1/2-y,z
1/2+x,1/2+y,1/2+z
1/2-x,-y,1/2+z
1/2+x,1/2-y,1/2-z
1/2-x,y,1/2-z
1/2-x,1/2-y,1/2-z
1/2+x,y,1/2-z
1/2-x,1/2+y,1/2+z
1/2+x,-y,1/2+z
loop_
_atom_site_type_symbol
_atom_site_label
_atom_site_fract_x
_atom_site_fract_y
_atom_site_fract_z
Si Si1 0.227535 0.656848 0.073255
Si Si2 0.414236 0.961118 0.434237
Si Si3 0.282167 0.944914 0.181845
Si Si4 0.178892 0.413374 0.136555
Si Si5 0.086314 0.658534 0.756709
Si Si6 0.091898 0.446947 0.359022
Si Si7 0.196098 0.656695 0.553994
O O1 0.207792 0.750000 0.075602
O O2 0.145768 0.611840 0.064666
O O3 0.263889 0.630260 0.138318
O O4 0.289138 0.637383 0.018460
O O5 0.500000 0.928590 0.414697
O O6 0.417536 0.000000 0.500000
O O7 0.391456 0.032562 0.388346
O O8 0.250000 0.922062 0.250000
O O9 0.243317 0.027682 0.162819
O O10 0.373311 0.968157 0.167944
O O11 0.148038 0.356712 0.189962
O O12 0.219355 0.356750 0.085812
O O13 0.088637 0.750000 0.738316
O O14 0.109973 0.615329 0.694540
O O15 0.000000 0.631869 0.779163
O O16 0.132144 0.407246 0.420261
O O17 0.000000 0.459696 0.372947
O O18 0.169776 0.750000 0.562700
#
# Coordination Sequence:
#
# PCOD8297841 Si02
#       7
#    16  16  16  16  16  16  16
#     4  10  22  39  58  81 111 144 187 239 282 332
#     4  10  19  33  54  79 110 147 183 221 270 327
#     4  10  20  37  59  82 105 141 187 233 282 335
#     4  10  18  31  51  76 108 146 185 221 262 323
#     4  10  19  30  46  75 113 147 179 218 267 325
#     4  10  21  36  56  82 112 147 189 234 284 339
#     4  10  20  34  53  77 110 149 185 228 277 331
#
# _framework density 18.126560999999999
#
# number of rings (size 3 to 8) (size 9 to 14) (size 15 to 20)
#    0.000    2.000    2.857    1.286    0.000    1.429 
#    0.000    3.571    0.000    1.286    0.000    0.000 
#    0.000    0.000    0.000    0.000    0.000    0.000 
#
# Total GULP energy -693975.399289 kJ/mol
# GULP energy per Si atom -12392.417844 kJ/mol
# Density = 1.808530 g / cm^3
# Si number density = 18.126561 Si / 1000 Ang^3
#
#
#
# Elastic Constant Matrix: (Units=GPa)
#
#
# Indices 1 2 3 4 5 6 
#
# 1 100.1338 39.6165 41.5810 0.0000 0.0000 0.0000
# 2 39.6165 56.7665 31.2616 0.0000 0.0000 0.0000
# 3 41.5810 31.2616 101.7879 0.0000 0.0000 0.0000
# 4 0.0000 0.0000 0.0000 28.8634 0.0000 0.0000
# 5 0.0000 0.0000 0.0000 0.0000 23.1627 0.0000
# 6 0.0000 0.0000 0.0000 0.0000 0.0000 12.1262
#
#
#
# Elastic Compliance Matrix: (Units=1/GPa)
#
#
# Indices 1 2 3 4 5 6 
#
# 1 0.014735 -0.008387 -0.003443 0.000000 0.000000 0.000000
# 2 -0.008387 0.025976 -0.004552 0.000000 0.000000 0.000000
# 3 -0.003443 -0.004552 0.012629 0.000000 0.000000 0.000000
# 4 0.000000 0.000000 0.000000 0.034646 0.000000 0.000000
# 5 0.000000 0.000000 0.000000 0.000000 0.043173 0.000000
# 6 0.000000 0.000000 0.000000 0.000000 0.000000 0.082466
#
#
# Mechanical properties :
#
#
# Convention : Reuss Voigt Hill
#
# Bulk Modulus (GPa) = 48.60160 53.73404 51.16782
# Shear Modulus (GPa) = 19.74360 22.57907 21.16133
#
# Velocity S-wave (km/s) = 3.30390 3.53318 3.42046
# Velocity P-wave (km/s) = 6.43622 6.80828 6.62486
#
# Compressibility (1/GPa) = 0.02057546
#
# Stress axis : x y z
#
# Youngs Moduli (GPa) = 67.86738 38.49758 79.18319
#
# Poissons Ratio (x) = 0.32287 0.27266
# Poissons Ratio (y) = 0.56919 0.36042
# Poissons Ratio (z) = 0.23369 0.17523
#
# Static dielectric constant tensor:
#      x y z
#    x 3.431100 0.000000 0.000000 
#    y 0.000000 3.162910 0.000000 
#    z 0.000000 0.000000 3.384140 
# 
# 
# High freq. dielectric constant tensor:
#      x y z
#    x 1.700510 0.000000 0.000000 
#    y 0.000000 1.686820 0.000000 
#    z 0.000000 0.000000 1.704950 
# 
# From -- ./inp_files/53229.got.cif
#   From: 2010.03.12/outbox.cif.g09.slc.cpg/sg74_27_cif.got.tgz:53229.got - 2010.04.16 15:46:19.
