data_PCOD8297213
_publ_section_title
;
Structure prediction by ZEFSAII (Michael W. Deem and Ramdas Pophale) SiO2 
 PCOD8297213
Probable space group: I M M A
;
_chemical_formula_sum "Si O2"
_cell_formula_units_Z 72
_cell_length_a 8.476292
_cell_length_b 23.545546
_cell_length_c 23.388405
_cell_angle_alpha 90.000000
_cell_angle_beta 90.000000
_cell_angle_gamma 90.000000
_cell_volume 4667.832685
_symmetry_space_group_name_H-M "I M M A"
_symmetry_group_IT_number 74
_symmetry_cell_setting 'orthorhombic'
loop_
_space_group_symop_operation_xyz
x,y,z
-x,1/2-y,z
x,-y,-z
-x,1/2+y,-z
-x,-y,-z
x,1/2+y,-z
-x,y,z
x,1/2-y,z
1/2+x,1/2+y,1/2+z
1/2-x,-y,1/2+z
1/2+x,1/2-y,1/2-z
1/2-x,y,1/2-z
1/2-x,1/2-y,1/2-z
1/2+x,y,1/2-z
1/2-x,1/2+y,1/2+z
1/2+x,-y,1/2+z
loop_
_atom_site_type_symbol
_atom_site_label
_atom_site_fract_x
_atom_site_fract_y
_atom_site_fract_z
Si Si1 0.817669 0.581944 0.516979
Si Si2 0.316742 0.475689 0.580168
Si Si3 0.313012 0.478973 0.187362
Si Si4 0.187146 0.136232 0.371233
Si Si5 0.187988 0.250000 0.313629
O O1 0.719621 0.581677 0.457028
O O2 0.791205 0.523632 0.551315
O O3 0.761646 0.630942 0.561740
O O4 0.000000 0.589352 0.501575
O O5 0.500000 0.490958 0.575680
O O6 0.261566 0.472167 0.646116
O O7 0.500000 0.483424 0.186089
O O8 0.250000 0.491355 0.250000
O O9 0.250860 0.417139 0.166237
O O10 0.256555 0.194499 0.345743
O O11 0.000000 0.136271 0.367449
O O12 0.250000 0.250000 0.250000
O O13 0.000000 0.250000 0.313677
#
# Coordination Sequence:
#
# PCOD8297213 Si02
#       5
#    16  16  16  16   8
#     4   9  15  26  40  55  73  96 124 159 197 234
#     4  10  17  25  38  57  75  96 123 156 193 234
#     4  10  18  28  39  55  77 104 132 161 193 231
#     4   8  16  27  41  56  74 100 132 166 201 231
#     4  10  18  30  42  56  76 102 135 170 201 232
#
# _framework density 15.424718
#
# number of rings (size 3 to 8) (size 9 to 14) (size 15 to 20)
#    0.000    2.667    0.000    6.667    0.000    0.000 
#    0.000    5.556    0.000    0.000    0.000    0.000 
#    0.000    0.000    0.000    1.000    0.000   10.000 
#
# Total GULP energy -446022.322941 kJ/mol
# GULP energy per Si atom -12389.508971 kJ/mol
# Density = 1.538961 g / cm^3
# Si number density = 15.424718 Si / 1000 Ang^3
#
#
#
# Elastic Constant Matrix: (Units=GPa)
#
#
# Indices 1 2 3 4 5 6 
#
# 1 46.5065 14.4286 31.7979 0.0000 0.0000 0.0000
# 2 14.4286 47.2548 57.6987 0.0000 0.0000 0.0000
# 3 31.7979 57.6987 156.3658 0.0000 0.0000 0.0000
# 4 0.0000 0.0000 0.0000 27.2571 0.0000 0.0000
# 5 0.0000 0.0000 0.0000 0.0000 27.3569 0.0000
# 6 0.0000 0.0000 0.0000 0.0000 0.0000 8.0711
#
#
#
# Elastic Compliance Matrix: (Units=1/GPa)
#
#
# Indices 1 2 3 4 5 6 
#
# 1 0.025151 -0.002611 -0.004151 0.000000 0.000000 0.000000
# 2 -0.002611 0.038786 -0.013781 0.000000 0.000000 0.000000
# 3 -0.004151 -0.013781 0.012325 0.000000 0.000000 0.000000
# 4 0.000000 0.000000 0.000000 0.036688 0.000000 0.000000
# 5 0.000000 0.000000 0.000000 0.000000 0.036554 0.000000
# 6 0.000000 0.000000 0.000000 0.000000 0.000000 0.123898
#
#
# Mechanical properties :
#
#
# Convention : Reuss Voigt Hill
#
# Bulk Modulus (GPa) = 28.42911 50.88638 39.65774
# Shear Modulus (GPa) = 15.32747 22.28382 18.80565
#
# Velocity S-wave (km/s) = 3.15571 3.80502 3.49548
# Velocity P-wave (km/s) = 5.63462 7.23644 6.48517
#
# Compressibility (1/GPa) = 0.03517522
#
# Stress axis : x y z
#
# Youngs Moduli (GPa) = 39.76045 25.78260 81.13861
#
# Poissons Ratio (x) = 0.06731 0.33682
# Poissons Ratio (y) = 0.10381 1.11817
# Poissons Ratio (z) = 0.16505 0.35531
#
# Static dielectric constant tensor:
#      x y z
#    x 2.795820 0.000000 0.000000 
#    y 0.000000 2.946250 0.000000 
#    z 0.000000 0.000000 3.498310 
# 
# 
# High freq. dielectric constant tensor:
#      x y z
#    x 1.588860 0.000000 0.000000 
#    y 0.000000 1.525260 0.000000 
#    z 0.000000 0.000000 1.601930 
# 
# From -- ./inp_files/57119.got.cif
#   From: 2010.03.12/outbox.cif.g09.slc.cpg/sg74_29_cif.got.tgz:57119.got - 2010.04.16 15:46:19.
