data_PCOD8297221
_publ_section_title
;
Structure prediction by ZEFSAII (Michael W. Deem and Ramdas Pophale) SiO2 
 PCOD8297221
Probable space group: I M M A
;
_chemical_formula_sum "Si O2"
_cell_formula_units_Z 64
_cell_length_a 8.855928
_cell_length_b 22.810689
_cell_length_c 20.124940
_cell_angle_alpha 90.000000
_cell_angle_beta 90.000000
_cell_angle_gamma 90.000000
_cell_volume 4065.435495
_symmetry_space_group_name_H-M "I M M A"
_symmetry_group_IT_number 74
_symmetry_cell_setting 'orthorhombic'
loop_
_space_group_symop_operation_xyz
x,y,z
-x,1/2-y,z
x,-y,-z
-x,1/2+y,-z
-x,-y,-z
x,1/2+y,-z
-x,y,z
x,1/2-y,z
1/2+x,1/2+y,1/2+z
1/2-x,-y,1/2+z
1/2+x,1/2-y,1/2-z
1/2-x,y,1/2-z
1/2-x,1/2-y,1/2-z
1/2+x,y,1/2-z
1/2-x,1/2+y,1/2+z
1/2+x,-y,1/2+z
loop_
_atom_site_type_symbol
_atom_site_label
_atom_site_fract_x
_atom_site_fract_y
_atom_site_fract_z
Si Si1 0.823452 0.008842 0.592058
Si Si2 0.826132 0.611241 0.318975
Si Si3 0.678876 0.913679 0.522688
Si Si4 0.821924 0.317575 0.553702
O O1 0.750340 0.943345 0.589935
O O2 0.000000 0.005976 0.574215
O O3 0.799032 0.042465 0.662112
O O4 0.736320 0.047304 0.538019
O O5 0.750000 0.627084 0.250000
O O6 0.763711 0.653509 0.377397
O O7 0.000000 0.624953 0.309045
O O8 0.500000 0.913339 0.528584
O O9 0.740102 0.847997 0.509619
O O10 0.775498 0.250000 0.553662
O O11 0.000000 0.327247 0.545761
#
# Coordination Sequence:
#
# PCOD8297221 Si02
#       4
#    16  16  16  16
#     4   9  16  28  43  58  79 108 138 166 206 259
#     4   9  18  29  42  60  82 111 145 178 208 242
#     4  10  17  25  41  64  83 100 130 175 220 250
#     4   9  18  32  45  57  80 116 150 174 203 249
#
# _framework density 15.742471999999999
#
# number of rings (size 3 to 8) (size 9 to 14) (size 15 to 20)
#    0.000    2.750    0.000    6.000    0.000    6.000 
#    0.000    0.000    0.000    0.000    0.000    0.000 
#    0.000    1.000    0.000    3.250    0.000    4.500 
#
# Total GULP energy -396441.651003 kJ/mol
# GULP energy per Si atom -12388.801594 kJ/mol
# Density = 1.570664 g / cm^3
# Si number density = 15.742472 Si / 1000 Ang^3
#
#
#
# Elastic Constant Matrix: (Units=GPa)
#
#
# Indices 1 2 3 4 5 6 
#
# 1 60.5167 44.3801 15.8996 0.0000 0.0000 0.0000
# 2 44.3801 120.7478 41.6928 0.0000 0.0000 0.0000
# 3 15.8996 41.6928 16.3025 0.0000 0.0000 0.0000
# 4 0.0000 0.0000 0.0000 17.8667 0.0000 0.0000
# 5 0.0000 0.0000 0.0000 0.0000 20.7347 0.0000
# 6 0.0000 0.0000 0.0000 0.0000 0.0000 19.2911
#
#
#
# Elastic Compliance Matrix: (Units=1/GPa)
#
#
# Indices 1 2 3 4 5 6 
#
# 1 0.022711 -0.005980 -0.006858 0.000000 0.000000 0.000000
# 2 -0.005980 0.072393 -0.179311 0.000000 0.000000 0.000000
# 3 -0.006858 -0.179311 0.526607 0.000000 0.000000 0.000000
# 4 0.000000 0.000000 0.000000 0.055970 0.000000 0.000000
# 5 0.000000 0.000000 0.000000 0.000000 0.048228 0.000000
# 6 0.000000 0.000000 0.000000 0.000000 0.000000 0.051837
#
#
# Mechanical properties :
#
#
# Convention : Reuss Voigt Hill
#
# Bulk Modulus (GPa) = 4.21201 44.61242 24.41221
# Shear Modulus (GPa) = 4.02842 17.95147 10.98994
#
# Velocity S-wave (km/s) = 1.60141 3.38053 2.64504
# Velocity P-wave (km/s) = 2.46996 6.60588 4.98690
#
# Compressibility (1/GPa) = 0.23741621
#
# Stress axis : x y z
#
# Youngs Moduli (GPa) = 44.03129 13.81343 1.89895
#
# Poissons Ratio (x) = 0.08260 0.01302
# Poissons Ratio (y) = 0.26329 0.34050
# Poissons Ratio (z) = 0.30195 2.47690
#
# Static dielectric constant tensor:
#      x y z
#    x 2.964120 0.000000 0.000000 
#    y 0.000000 3.481370 0.000000 
#    z 0.000000 0.000000 2.992470 
# 
# 
# High freq. dielectric constant tensor:
#      x y z
#    x 1.610080 0.000000 0.000000 
#    y 0.000000 1.596910 0.000000 
#    z 0.000000 0.000000 1.556720 
# 
# From -- ./inp_files/39345.got.cif
#   From: 2010.03.12/outbox.cif.g09.slc.cpg/sg74_20_cif.got.tgz:39345.got - 2010.04.16 15:46:19.
