data_PCOD8297626
_publ_section_title
;
Structure prediction by ZEFSAII (Michael W. Deem and Ramdas Pophale) SiO2 
 PCOD8297626
Probable space group: I M M A
;
_chemical_formula_sum "Si O2"
_cell_formula_units_Z 80
_cell_length_a 24.657080
_cell_length_b 9.019815
_cell_length_c 20.631269
_cell_angle_alpha 90.000000
_cell_angle_beta 90.000000
_cell_angle_gamma 90.000000
_cell_volume 4588.441678
_symmetry_space_group_name_H-M "I M M A"
_symmetry_group_IT_number 74
_symmetry_cell_setting 'orthorhombic'
loop_
_space_group_symop_operation_xyz
x,y,z
-x,1/2-y,z
x,-y,-z
-x,1/2+y,-z
-x,-y,-z
x,1/2+y,-z
-x,y,z
x,1/2-y,z
1/2+x,1/2+y,1/2+z
1/2-x,-y,1/2+z
1/2+x,1/2-y,1/2-z
1/2-x,y,1/2-z
1/2-x,1/2-y,1/2-z
1/2+x,y,1/2-z
1/2-x,1/2+y,1/2+z
1/2+x,-y,1/2+z
loop_
_atom_site_type_symbol
_atom_site_label
_atom_site_fract_x
_atom_site_fract_y
_atom_site_fract_z
Si Si1 0.772707 0.423398 0.565709
Si Si2 0.500000 0.915196 0.267227
Si Si3 0.220398 0.419411 0.185062
Si Si4 0.614839 0.574129 0.124342
Si Si5 0.606285 0.080009 0.258345
Si Si6 0.500000 0.412510 0.887281
O O1 0.752857 0.500000 0.500000
O O2 0.763283 0.250000 0.558962
O O3 0.737151 0.479826 0.625144
O O4 0.836107 0.462469 0.576353
O O5 0.500000 0.750000 0.297343
O O6 0.500000 0.907176 0.190187
O O7 0.554080 0.000750 0.290258
O O8 0.238403 0.250000 0.171897
O O9 0.250000 0.477684 0.250000
O O10 0.155612 0.432507 0.191300
O O11 0.609178 0.750000 0.137742
O O12 0.626355 0.495275 0.192151
O O13 0.557610 0.511564 0.093070
O O14 0.591383 0.250000 0.243572
O O15 0.500000 0.250000 0.918645
#
# Coordination Sequence:
#
# PCOD8297626 Si02
#       6
#    16   8  16  16  16   8
#     4  11  23  36  52  73 102 140 181 222 266 318
#     4   9  17  29  45  70 107 138 165 207 255 305
#     4  10  20  35  54  78 107 137 171 218 268 311
#     4   9  17  30  48  70  97 134 174 216 260 305
#     4  10  18  29  50  77 104 134 169 212 259 308
#     4   7  12  25  44  64  90 124 165 209 250 289
#
# _framework density 17.435113999999999
#
# number of rings (size 3 to 8) (size 9 to 14) (size 15 to 20)
#    0.000    2.400    2.000    2.700    0.000    2.800 
#    0.000    0.500    0.000    0.000    0.000    0.700 
#    0.000    0.000    0.000    0.000    0.000    0.000 
#
# Total GULP energy -495784.607774 kJ/mol
# GULP energy per Si atom -12394.615194 kJ/mol
# Density = 1.739543 g / cm^3
# Si number density = 17.435114 Si / 1000 Ang^3
#
#
#
# Elastic Constant Matrix: (Units=GPa)
#
#
# Indices 1 2 3 4 5 6 
#
# 1 95.7951 44.6951 36.3348 0.0000 0.0000 0.0000
# 2 44.6951 87.9792 41.0965 0.0000 0.0000 0.0000
# 3 36.3348 41.0965 81.9836 0.0000 0.0000 0.0000
# 4 0.0000 0.0000 0.0000 22.6575 0.0000 0.0000
# 5 0.0000 0.0000 0.0000 0.0000 13.4800 0.0000
# 6 0.0000 0.0000 0.0000 0.0000 0.0000 28.4325
#
#
#
# Elastic Compliance Matrix: (Units=1/GPa)
#
#
# Indices 1 2 3 4 5 6 
#
# 1 0.014433 -0.005673 -0.003553 0.000000 0.000000 0.000000
# 2 -0.005673 0.017071 -0.006043 0.000000 0.000000 0.000000
# 3 -0.003553 -0.006043 0.016802 0.000000 0.000000 0.000000
# 4 0.000000 0.000000 0.000000 0.044135 0.000000 0.000000
# 5 0.000000 0.000000 0.000000 0.000000 0.074184 0.000000
# 6 0.000000 0.000000 0.000000 0.000000 0.000000 0.035171
#
#
# Mechanical properties :
#
#
# Convention : Reuss Voigt Hill
#
# Bulk Modulus (GPa) = 56.28143 56.66785 56.47464
# Shear Modulus (GPa) = 20.98572 22.48944 21.73758
#
# Velocity S-wave (km/s) = 3.47313 3.59541 3.53479
# Velocity P-wave (km/s) = 6.95946 7.05752 7.00866
#
# Compressibility (1/GPa) = 0.01776785
#
# Stress axis : x y z
#
# Youngs Moduli (GPa) = 69.28392 58.57878 59.51788
#
# Poissons Ratio (x) = 0.33230 0.21148
# Poissons Ratio (y) = 0.39302 0.35968
# Poissons Ratio (z) = 0.24618 0.35400
#
# Static dielectric constant tensor:
#      x y z
#    x 3.591700 0.000000 0.000000 
#    y 0.000000 3.270950 0.000000 
#    z 0.000000 0.000000 2.752160 
# 
# 
# High freq. dielectric constant tensor:
#      x y z
#    x 1.688380 0.000000 0.000000 
#    y 0.000000 1.673930 0.000000 
#    z 0.000000 0.000000 1.619780 
# 
# From -- ./inp_files/39801.got.cif
#   From: 2010.03.12/outbox.cif.g09.slc.cpg/sg74_20_cif.got.tgz:39801.got - 2010.04.16 15:46:19.
