data_PCOD8297758
_publ_section_title
;
Structure prediction by ZEFSAII (Michael W. Deem and Ramdas Pophale) SiO2 
 PCOD8297758
Probable space group: I M M A
;
_chemical_formula_sum "Si O2"
_cell_formula_units_Z 80
_cell_length_a 25.126864
_cell_length_b 8.936278
_cell_length_c 19.595210
_cell_angle_alpha 90.000000
_cell_angle_beta 90.000000
_cell_angle_gamma 90.000000
_cell_volume 4399.921033
_symmetry_space_group_name_H-M "I M M A"
_symmetry_group_IT_number 74
_symmetry_cell_setting 'orthorhombic'
loop_
_space_group_symop_operation_xyz
x,y,z
-x,1/2-y,z
x,-y,-z
-x,1/2+y,-z
-x,-y,-z
x,1/2+y,-z
-x,y,z
x,1/2-y,z
1/2+x,1/2+y,1/2+z
1/2-x,-y,1/2+z
1/2+x,1/2-y,1/2-z
1/2-x,y,1/2-z
1/2-x,1/2-y,1/2-z
1/2+x,y,1/2-z
1/2-x,1/2+y,1/2+z
1/2+x,-y,1/2+z
loop_
_atom_site_type_symbol
_atom_site_label
_atom_site_fract_x
_atom_site_fract_y
_atom_site_fract_z
Si Si1 0.607606 0.075653 0.331334
Si Si2 0.615023 0.417974 0.170651
Si Si3 0.000000 0.925910 0.173719
Si Si4 0.188628 0.426657 0.929806
Si Si5 0.000000 0.579965 0.687041
Si Si6 0.189268 0.076184 0.568702
O O1 0.606833 0.250000 0.349935
O O2 0.615186 0.048481 0.250993
O O3 0.552853 0.001039 0.358276
O O4 0.656718 0.995319 0.367183
O O5 0.634968 0.250000 0.155752
O O6 0.554058 0.439471 0.143044
O O7 0.654011 0.531058 0.133298
O O8 0.000000 0.750000 0.158391
O O9 0.000000 0.955960 0.254335
O O10 0.179789 0.250000 0.933501
O O11 0.250007 0.470202 0.916885
O O12 0.168274 0.500000 0.000000
O O13 0.000000 0.750000 0.719628
O O14 0.183620 0.250000 0.556874
O O15 0.167510 0.000000 0.500000
#
# Coordination Sequence:
#
# PCOD8297758 Si02
#       6
#    16  16   8  16   8  16
#     4  10  20  35  55  79 107 139 173 212 256 306
#     4   9  18  33  54  78 105 136 173 213 255 304
#     4  10  18  30  51  78 107 138 171 210 255 304
#     4  10  21  37  55  76 103 137 174 214 260 311
#     4   8  16  32  51  74 105 140 172 208 257 310
#     4  10  21  36  54  75 103 137 174 215 261 311
#
# _framework density 18.182144000000001
#
# number of rings (size 3 to 8) (size 9 to 14) (size 15 to 20)
#    0.000    2.400    0.000    3.900    0.000    7.200 
#    0.000    5.000    0.000    0.000    0.000    0.000 
#    0.000    0.000    0.000    0.000    0.000    0.000 
#
# Total GULP energy -495962.321531 kJ/mol
# GULP energy per Si atom -12399.058038 kJ/mol
# Density = 1.814076 g / cm^3
# Si number density = 18.182144 Si / 1000 Ang^3
#
#
#
# Elastic Constant Matrix: (Units=GPa)
#
#
# Indices 1 2 3 4 5 6 
#
# 1 108.6572 53.3928 51.7148 0.0000 0.0000 0.0000
# 2 53.3928 95.5370 35.9646 0.0000 0.0000 0.0000
# 3 51.7148 35.9646 60.4592 0.0000 0.0000 0.0000
# 4 0.0000 0.0000 0.0000 33.2617 0.0000 0.0000
# 5 0.0000 0.0000 0.0000 0.0000 8.0126 0.0000
# 6 0.0000 0.0000 0.0000 0.0000 0.0000 34.6839
#
#
#
# Elastic Compliance Matrix: (Units=1/GPa)
#
#
# Indices 1 2 3 4 5 6 
#
# 1 0.017387 -0.005307 -0.011715 0.000000 0.000000 0.000000
# 2 -0.005307 0.015107 -0.004447 0.000000 0.000000 0.000000
# 3 -0.011715 -0.004447 0.029206 0.000000 0.000000 0.000000
# 4 0.000000 0.000000 0.000000 0.030065 0.000000 0.000000
# 5 0.000000 0.000000 0.000000 0.000000 0.124803 0.000000
# 6 0.000000 0.000000 0.000000 0.000000 0.000000 0.028832
#
#
# Mechanical properties :
#
#
# Convention : Reuss Voigt Hill
#
# Bulk Modulus (GPa) = 53.30046 60.75529 57.02788
# Shear Modulus (GPa) = 16.97261 23.43039 20.20150
#
# Velocity S-wave (km/s) = 3.05860 3.59367 3.33688
# Velocity P-wave (km/s) = 6.46929 7.12086 6.80288
#
# Compressibility (1/GPa) = 0.01876156
#
# Stress axis : x y z
#
# Youngs Moduli (GPa) = 57.51503 66.19389 34.23898
#
# Poissons Ratio (x) = 0.35128 0.40112
# Poissons Ratio (y) = 0.30522 0.15227
# Poissons Ratio (z) = 0.67381 0.29439
#
# Static dielectric constant tensor:
#      x y z
#    x 3.599200 0.000000 0.000000 
#    y 0.000000 3.367700 0.000000 
#    z 0.000000 0.000000 3.048370 
# 
# 
# High freq. dielectric constant tensor:
#      x y z
#    x 1.715650 0.000000 0.000000 
#    y 0.000000 1.715270 0.000000 
#    z 0.000000 0.000000 1.672550 
# 
# From -- ./inp_files/46524.got.cif
#   From: 2010.03.12/outbox.cif.g09.slc.cpg/sg74_24_cif.got.tgz:46524.got - 2010.04.16 15:46:19.
