data_PCOD8297503
_publ_section_title
;
Structure prediction by ZEFSAII (Michael W. Deem and Ramdas Pophale) SiO2 
 PCOD8297503
Probable space group: I M M A
;
_chemical_formula_sum "Si O2"
_cell_formula_units_Z 96
_cell_length_a 9.487926
_cell_length_b 23.235386
_cell_length_c 24.949764
_cell_angle_alpha 90.000000
_cell_angle_beta 90.000000
_cell_angle_gamma 90.000000
_cell_volume 5500.315765
_symmetry_space_group_name_H-M "I M M A"
_symmetry_group_IT_number 74
_symmetry_cell_setting 'orthorhombic'
loop_
_space_group_symop_operation_xyz
x,y,z
-x,1/2-y,z
x,-y,-z
-x,1/2+y,-z
-x,-y,-z
x,1/2+y,-z
-x,y,z
x,1/2-y,z
1/2+x,1/2+y,1/2+z
1/2-x,-y,1/2+z
1/2+x,1/2-y,1/2-z
1/2-x,y,1/2-z
1/2-x,1/2-y,1/2-z
1/2+x,y,1/2-z
1/2-x,1/2+y,1/2+z
1/2+x,-y,1/2+z
loop_
_atom_site_type_symbol
_atom_site_label
_atom_site_fract_x
_atom_site_fract_y
_atom_site_fract_z
Si Si1 0.664178 0.129991 0.119989
Si Si2 0.344792 0.683655 0.703721
Si Si3 0.833811 0.185873 0.486838
Si Si4 0.337722 0.970860 0.802020
Si Si5 0.332921 0.314917 0.895201
Si Si6 0.165444 0.102378 0.697286
O O1 0.500000 0.145450 0.128737
O O2 0.761283 0.177182 0.148516
O O3 0.705691 0.136826 0.057160
O O4 0.700078 0.067544 0.145404
O O5 0.500000 0.654304 0.701773
O O6 0.365186 0.750000 0.717073
O O7 0.250000 0.653677 0.750000
O O8 0.777368 0.250000 0.470839
O O9 0.773901 0.168204 0.545515
O O10 0.000000 0.190045 0.491967
O O11 0.500000 0.963350 0.786275
O O12 0.250000 0.951385 0.750000
O O13 0.302874 0.036287 0.818001
O O14 0.500000 0.319470 0.895024
O O15 0.285154 0.250000 0.880697
O O16 0.273271 0.359074 0.851180
O O17 0.250000 0.120805 0.750000
O O18 0.000000 0.112809 0.707570
#
# Coordination Sequence:
#
# PCOD8297503 Si02
#       6
#    16  16  16  16  16  16
#     4  10  18  28  44  64  85 113 151 186 216 258
#     4  10  20  31  42  59  84 112 144 186 233 272
#     4   8  14  25  42  64  88 114 145 181 220 261
#     4   9  18  30  43  62  88 117 148 183 223 262
#     4   8  14  26  45  68  92 117 144 175 216 267
#     4   9  17  30  47  67  92 118 144 178 219 263
#
# _framework density 17.453543
#
# number of rings (size 3 to 8) (size 9 to 14) (size 15 to 20)
#    0.000    3.000    0.000    2.500    0.000    4.000 
#    0.000    0.833    0.000    6.000    0.000    2.333 
#    0.000    6.667    0.000    0.000    0.000    0.000 
#
# Total GULP energy -594742.614661 kJ/mol
# GULP energy per Si atom -12390.471139 kJ/mol
# Density = 1.741382 g / cm^3
# Si number density = 17.453543 Si / 1000 Ang^3
#
#
#
# Elastic Constant Matrix: (Units=GPa)
#
#
# Indices 1 2 3 4 5 6 
#
# 1 52.2624 25.8976 39.5790 0.0000 0.0000 0.0000
# 2 25.8976 92.4772 83.2931 0.0000 0.0000 0.0000
# 3 39.5790 83.2931 165.0703 0.0000 0.0000 0.0000
# 4 0.0000 0.0000 0.0000 34.1062 0.0000 0.0000
# 5 0.0000 0.0000 0.0000 0.0000 19.6594 0.0000
# 6 0.0000 0.0000 0.0000 0.0000 0.0000 13.6337
#
#
#
# Elastic Compliance Matrix: (Units=1/GPa)
#
#
# Indices 1 2 3 4 5 6 
#
# 1 0.023766 -0.002792 -0.004290 0.000000 0.000000 0.000000
# 2 -0.002792 0.020150 -0.009498 0.000000 0.000000 0.000000
# 3 -0.004290 -0.009498 0.011879 0.000000 0.000000 0.000000
# 4 0.000000 0.000000 0.000000 0.029320 0.000000 0.000000
# 5 0.000000 0.000000 0.000000 0.000000 0.050866 0.000000
# 6 0.000000 0.000000 0.000000 0.000000 0.000000 0.073348
#
#
# Mechanical properties :
#
#
# Convention : Reuss Voigt Hill
#
# Bulk Modulus (GPa) = 44.17704 67.48326 55.83015
# Shear Modulus (GPa) = 19.99717 24.21586 22.10652
#
# Velocity S-wave (km/s) = 3.38855 3.72889 3.56278
# Velocity P-wave (km/s) = 6.37776 7.56888 6.99870
#
# Compressibility (1/GPa) = 0.02263619
#
# Stress axis : x y z
#
# Youngs Moduli (GPa) = 42.07633 49.62707 84.18007
#
# Poissons Ratio (x) = 0.13856 0.36111
# Poissons Ratio (y) = 0.11748 0.79956
# Poissons Ratio (z) = 0.18049 0.47137
#
# Static dielectric constant tensor:
#      x y z
#    x 3.050340 0.000000 0.000000 
#    y 0.000000 3.237210 0.000000 
#    z 0.000000 0.000000 3.564140 
# 
# 
# High freq. dielectric constant tensor:
#      x y z
#    x 1.639350 0.000000 0.000000 
#    y 0.000000 1.663690 0.000000 
#    z 0.000000 0.000000 1.671320 
# 
# From -- ./inp_files/57232.got.cif
#   From: 2010.03.12/outbox.cif.g09.slc.cpg/sg74_29_cif.got.tgz:57232.got - 2010.04.16 15:46:19.
