data_PCOD8297678
_publ_section_title
;
Structure prediction by ZEFSAII (Michael W. Deem and Ramdas Pophale) SiO2 
 PCOD8297678
Probable space group: I M M A
;
_chemical_formula_sum "Si O2"
_cell_formula_units_Z 80
_cell_length_a 8.725164
_cell_length_b 25.979129
_cell_length_c 19.813201
_cell_angle_alpha 90.000000
_cell_angle_beta 90.000000
_cell_angle_gamma 90.000000
_cell_volume 4491.101089
_symmetry_space_group_name_H-M "I M M A"
_symmetry_group_IT_number 74
_symmetry_cell_setting 'orthorhombic'
loop_
_space_group_symop_operation_xyz
x,y,z
-x,1/2-y,z
x,-y,-z
-x,1/2+y,-z
-x,-y,-z
x,1/2+y,-z
-x,y,z
x,1/2-y,z
1/2+x,1/2+y,1/2+z
1/2-x,-y,1/2+z
1/2+x,1/2-y,1/2-z
1/2-x,y,1/2-z
1/2-x,1/2-y,1/2-z
1/2+x,y,1/2-z
1/2-x,1/2+y,1/2+z
1/2+x,-y,1/2+z
loop_
_atom_site_type_symbol
_atom_site_label
_atom_site_fract_x
_atom_site_fract_y
_atom_site_fract_z
Si Si1 0.681256 0.442287 0.424843
Si Si2 0.681363 0.557685 0.423880
Si Si3 0.819773 0.139078 0.676202
Si Si4 0.316777 0.854536 0.675614
Si Si5 0.816771 0.750000 0.675305
Si Si6 0.178720 0.250000 0.677694
O O1 0.500000 0.440505 0.425412
O O2 0.734170 0.499749 0.404563
O O3 0.738663 0.429070 0.500378
O O4 0.744180 0.401088 0.371082
O O5 0.500000 0.563474 0.417959
O O6 0.760517 0.595803 0.372943
O O7 0.750000 0.131392 0.750000
O O8 0.773618 0.195407 0.643452
O O9 0.000000 0.133514 0.683650
O O10 0.500000 0.851209 0.679231
O O11 0.250000 0.863661 0.750000
O O12 0.249263 0.802147 0.641608
O O13 0.750000 0.750000 0.750000
O O14 0.000000 0.750000 0.674518
O O15 0.250000 0.250000 0.750000
O O16 0.000000 0.250000 0.688489
#
# Coordination Sequence:
#
# PCOD8297678 Si02
#       6
#    16  16  16  16   8   8
#     4   8  17  33  53  71  95 130 164 196 240 289
#     4   9  17  34  54  72  95 128 164 200 240 287
#     4  10  19  32  50  74  99 128 162 201 242 285
#     4  10  18  31  50  73  97 126 161 199 238 286
#     4  10  18  30  47  70  97 127 157 195 243 288
#     4   8  16  30  47  66  95 127 157 191 235 282
#
# _framework density 17.813002999999998
#
# number of rings (size 3 to 8) (size 9 to 14) (size 15 to 20)
#    0.000    2.800    0.000    4.500    0.000    1.600 
#    0.000    9.000    0.000    3.600    0.000    0.000 
#    0.000    0.000    0.000    0.000    0.000    0.000 
#
# Total GULP energy -495555.219998 kJ/mol
# GULP energy per Si atom -12388.880500 kJ/mol
# Density = 1.777246 g / cm^3
# Si number density = 17.813003 Si / 1000 Ang^3
#
#
#
# Elastic Constant Matrix: (Units=GPa)
#
#
# Indices 1 2 3 4 5 6 
#
# 1 63.0095 51.7559 34.3913 0.0001 0.0000 0.0000
# 2 51.7559 197.0853 100.2483 0.0000 0.0000 0.0000
# 3 34.3913 100.2483 95.9716 -0.0003 0.0000 0.0000
# 4 0.0001 0.0000 -0.0003 2.0249 0.0000 0.0000
# 5 0.0000 0.0000 0.0000 0.0000 22.7496 0.0000
# 6 0.0000 0.0000 0.0000 0.0000 0.0000 26.2658
#
#
#
# Elastic Compliance Matrix: (Units=1/GPa)
#
#
# Indices 1 2 3 4 5 6 
#
# 1 0.020846 -0.003573 -0.003738 -0.000001 0.000000 0.000000
# 2 -0.003573 0.011438 -0.010668 -0.000001 0.000000 0.000000
# 3 -0.003738 -0.010668 0.022902 0.000003 0.000000 0.000000
# 4 -0.000001 -0.000001 0.000003 0.493863 0.000000 0.000000
# 5 0.000000 0.000000 0.000000 0.000000 0.043957 0.000000
# 6 0.000000 0.000000 0.000000 0.000000 0.000000 0.038072
#
#
# Mechanical properties :
#
#
# Convention : Reuss Voigt Hill
#
# Bulk Modulus (GPa) = 52.00414 80.98416 66.49415
# Shear Modulus (GPa) = 7.42451 21.51945 14.47198
#
# Velocity S-wave (km/s) = 2.04379 3.47951 2.85342
# Velocity P-wave (km/s) = 5.90147 7.85524 6.94738
#
# Compressibility (1/GPa) = 0.01922924
#
# Stress axis : x y z
#
# Youngs Moduli (GPa) = 47.97182 87.42443 43.66351
#
# Poissons Ratio (x) = 0.31236 0.16321
# Poissons Ratio (y) = 0.17140 0.46579
# Poissons Ratio (z) = 0.17931 0.93263
#
# Static dielectric constant tensor:
#      x y z
#    x 3.184180 0.000000 0.000000 
#    y 0.000000 4.278310 0.000000 
#    z 0.000000 0.000000 3.124590 
# 
# 
# High freq. dielectric constant tensor:
#      x y z
#    x 1.679380 0.000000 0.000000 
#    y 0.000000 1.713190 0.000000 
#    z 0.000000 0.000000 1.659380 
# 
# From -- ./inp_files/39821.got.cif
#   From: 2010.03.12/outbox.cif.g09.slc.cpg/sg74_20_cif.got.tgz:39821.got - 2010.04.16 15:46:19.
