data_PCOD8297953
_publ_section_title
;
Structure prediction by ZEFSAII (Michael W. Deem and Ramdas Pophale) SiO2 
 PCOD8297953
Probable space group: I M M A
;
_chemical_formula_sum "Si O2"
_cell_formula_units_Z 120
_cell_length_a 23.067233
_cell_length_b 14.113788
_cell_length_c 20.078871
_cell_angle_alpha 90.000000
_cell_angle_beta 90.000000
_cell_angle_gamma 90.000000
_cell_volume 6536.998445
_symmetry_space_group_name_H-M "I M M A"
_symmetry_group_IT_number 74
_symmetry_cell_setting 'orthorhombic'
loop_
_space_group_symop_operation_xyz
x,y,z
-x,1/2-y,z
x,-y,-z
-x,1/2+y,-z
-x,-y,-z
x,1/2+y,-z
-x,y,z
x,1/2-y,z
1/2+x,1/2+y,1/2+z
1/2-x,-y,1/2+z
1/2+x,1/2-y,1/2-z
1/2-x,y,1/2-z
1/2-x,1/2-y,1/2-z
1/2+x,y,1/2-z
1/2-x,1/2+y,1/2+z
1/2+x,-y,1/2+z
loop_
_atom_site_type_symbol
_atom_site_label
_atom_site_fract_x
_atom_site_fract_y
_atom_site_fract_z
Si Si1 0.755976 0.643215 0.631669
Si Si2 0.851367 0.853474 0.083743
Si Si3 0.935338 0.104142 0.028101
Si Si4 0.728207 0.856237 0.023588
Si Si5 0.432908 0.643579 0.914931
Si Si6 0.140752 0.500000 0.500000
Si Si7 0.636754 0.954121 0.650322
Si Si8 0.631088 0.641959 0.784873
O O1 0.735350 0.750000 0.648053
O O2 0.776635 0.637120 0.555974
O O3 0.703779 0.572151 0.644099
O O4 0.808612 0.613693 0.679657
O O5 0.844845 0.750000 0.118796
O O6 0.791530 0.886279 0.049085
O O7 0.870089 0.932829 0.137258
O O8 0.898473 0.837568 0.025499
O O9 0.902462 0.105311 0.098787
O O10 0.000000 0.147729 0.036813
O O11 0.940141 0.000000 0.000000
O O12 0.713051 0.750000 0.048245
O O13 0.680998 0.933358 0.048318
O O14 0.500000 0.629461 0.929467
O O15 0.412569 0.750000 0.935944
O O16 0.399031 0.565779 0.955731
O O17 0.421254 0.629838 0.836677
O O18 0.616452 0.929282 0.724643
O O19 0.634507 0.750000 0.758453
#
# Coordination Sequence:
#
# PCOD8297953 Si02
#       8
#    16  16  16  16  16   8  16  16
#     4  10  18  32  53  80 108 135 170 219 277 330
#     4  10  21  35  51  76 112 148 183 224 275 322
#     4   9  19  34  52  76 105 138 182 232 274 313
#     4  10  19  31  53  82 111 139 173 220 271 326
#     4  10  22  39  57  82 115 144 175 219 269 325
#     4  12  19  32  60  86 107 138 180 218 270 322
#     4  11  20  32  55  79 107 144 184 228 269 321
#     4  10  21  36  54  79 109 142 176 219 276 333
#
# _framework density 18.357047999999999
#
# number of rings (size 3 to 8) (size 9 to 14) (size 15 to 20)
#    0.000    1.867    2.667    2.200    0.933    2.400 
#    0.000    0.000    0.000    3.200    0.000    0.000 
#    0.000    0.000    0.000    0.000    0.000    0.000 
#
# Total GULP energy -743799.230857 kJ/mol
# GULP energy per Si atom -12396.653848 kJ/mol
# Density = 1.831527 g / cm^3
# Si number density = 18.357048 Si / 1000 Ang^3
#
#
#
# Elastic Constant Matrix: (Units=GPa)
#
#
# Indices 1 2 3 4 5 6 
#
# 1 84.7711 39.3830 28.6935 0.0000 0.0000 0.0000
# 2 39.3830 108.0440 41.4498 0.0000 0.0000 0.0000
# 3 28.6935 41.4498 77.8729 0.0000 0.0000 0.0000
# 4 0.0000 0.0000 0.0000 25.5891 0.0000 0.0000
# 5 0.0000 0.0000 0.0000 0.0000 15.7928 0.0000
# 6 0.0000 0.0000 0.0000 0.0000 0.0000 -5.9230
#
#
#
# Elastic Compliance Matrix: (Units=1/GPa)
#
#
# Indices 1 2 3 4 5 6 
#
# 1 0.014828 -0.004158 -0.003251 0.000000 0.000000 0.000000
# 2 -0.004158 0.012796 -0.005279 0.000000 0.000000 0.000000
# 3 -0.003251 -0.005279 0.016849 0.000000 0.000000 0.000000
# 4 0.000000 0.000000 0.000000 0.039079 0.000000 0.000000
# 5 0.000000 0.000000 0.000000 0.000000 0.063320 0.000000
# 6 0.000000 0.000000 0.000000 0.000000 0.000000 -0.168833
#
#
# Mechanical properties :
#
#
# Convention : Reuss Voigt Hill
#
# Bulk Modulus (GPa) = 52.36007 54.41564 53.38785
# Shear Modulus (GPa) = 511.17114 17.83589 264.50352
#
# Velocity S-wave (km/s) = 16.70524 3.12045 12.01670
# Velocity P-wave (km/s) = 20.01678 6.53377 14.88895
#
# Compressibility (1/GPa) = 0.01909852
#
# Stress axis : x y z
#
# Youngs Moduli (GPa) = 67.43775 78.14692 59.35040
#
# Poissons Ratio (x) = 0.32494 0.19292
# Poissons Ratio (y) = 0.28041 0.31332
# Poissons Ratio (z) = 0.21921 0.41254
#
# Static dielectric constant tensor:
#      x y z
#    x 3.578250 0.000000 0.000000 
#    y 0.000000 3.472330 0.000000 
#    z 0.000000 0.000000 3.151960 
# 
# 
# High freq. dielectric constant tensor:
#      x y z
#    x 1.717400 0.000000 0.000000 
#    y 0.000000 1.714580 0.000000 
#    z 0.000000 0.000000 1.676830 
# 
# From -- ./inp_files/54822.got.cif
#   From: 2010.03.12/outbox.cif.g09.slc.cpg/sg74_28_cif.got.tgz:54822.got - 2010.04.16 15:46:19.
