data_PCOD8297376
_publ_section_title
;
Structure prediction by ZEFSAII (Michael W. Deem and Ramdas Pophale) SiO2 
 PCOD8297376
Probable space group: I M M A
;
_chemical_formula_sum "Si O2"
_cell_formula_units_Z 112
_cell_length_a 14.902741
_cell_length_b 25.495511
_cell_length_c 15.158746
_cell_angle_alpha 90.000000
_cell_angle_beta 90.000000
_cell_angle_gamma 90.000000
_cell_volume 5759.610975
_symmetry_space_group_name_H-M "I M M A"
_symmetry_group_IT_number 74
_symmetry_cell_setting 'orthorhombic'
loop_
_space_group_symop_operation_xyz
x,y,z
-x,1/2-y,z
x,-y,-z
-x,1/2+y,-z
-x,-y,-z
x,1/2+y,-z
-x,y,z
x,1/2-y,z
1/2+x,1/2+y,1/2+z
1/2-x,-y,1/2+z
1/2+x,1/2-y,1/2-z
1/2-x,y,1/2-z
1/2-x,1/2-y,1/2-z
1/2+x,y,1/2-z
1/2-x,1/2+y,1/2+z
1/2+x,-y,1/2+z
loop_
_atom_site_type_symbol
_atom_site_label
_atom_site_fract_x
_atom_site_fract_y
_atom_site_fract_z
Si Si1 0.596930 0.873120 0.795752
Si Si2 0.395161 0.809012 0.094922
Si Si3 0.714635 0.192569 0.082079
Si Si4 0.179590 0.975446 0.671137
Si Si5 0.699952 0.409431 0.842067
Si Si6 0.599512 0.648038 0.592709
Si Si7 0.802456 0.443047 0.013751
O O1 0.500000 0.855606 0.834932
O O2 0.681355 0.849267 0.846940
O O3 0.600010 0.936488 0.800479
O O4 0.603856 0.852892 0.697279
O O5 0.500000 0.815834 0.077066
O O6 0.376269 0.750000 0.134893
O O7 0.362474 0.857510 0.155171
O O8 0.343080 0.815218 0.004434
O O9 0.699587 0.250000 0.122232
O O10 0.820033 0.185379 0.059044
O O11 0.250000 0.975971 0.750000
O O12 0.220117 0.951088 0.581290
O O13 0.144215 0.035277 0.656828
O O14 0.750000 0.403645 0.750000
O O15 0.768461 0.414033 0.924631
O O16 0.500000 0.667355 0.561934
O O17 0.616930 0.590460 0.554231
O O18 0.846154 0.500000 0.000000
#
# Coordination Sequence:
#
# PCOD8297376 Si02
#       7
#    16  16  16  16  16  16  16
#     4  11  21  33  55  88 121 155 193 231 281 346
#     4  10  21  39  63  87 112 148 196 246 297 353
#     4  11  22  39  60  81 115 157 194 242 297 347
#     4  10  17  33  58  84 120 158 192 227 282 347
#     4  10  21  35  60  90 114 152 196 240 290 346
#     4  11  22  36  57  84 116 156 198 235 282 345
#     4  10  19  35  58  83 117 155 189 232 286 344
#
# _framework density 19.445758000000001
#
# number of rings (size 3 to 8) (size 9 to 14) (size 15 to 20)
#    0.000    1.571    4.286    0.857    0.000    3.429 
#    0.000    2.143    0.000    4.286    0.000    0.000 
#    0.000    0.000    0.000    0.000    0.000    0.000 
#
# Total GULP energy -693823.158879 kJ/mol
# GULP energy per Si atom -12389.699266 kJ/mol
# Density = 1.940150 g / cm^3
# Si number density = 19.445758 Si / 1000 Ang^3
#
#
#
# Elastic Constant Matrix: (Units=GPa)
#
#
# Indices 1 2 3 4 5 6 
#
# 1 110.8650 50.1519 29.1424 0.0004 0.0000 0.0002
# 2 50.1519 129.9648 33.7697 0.0017 0.0000 0.0000
# 3 29.1424 33.7697 70.8788 0.0017 0.0001 0.0002
# 4 0.0004 0.0017 0.0017 163.7147 -0.0002 -0.0025
# 5 0.0000 0.0000 0.0001 -0.0002 18.3688 0.0000
# 6 0.0002 0.0000 0.0002 -0.0025 0.0000 29.0142
#
#
#
# Elastic Compliance Matrix: (Units=1/GPa)
#
#
# Indices 1 2 3 4 5 6 
#
# 1 0.011451 -0.003647 -0.002970 0.000000 0.000000 0.000000
# 2 -0.003647 0.009943 -0.003238 0.000000 0.000000 0.000000
# 3 -0.002970 -0.003238 0.016873 0.000000 0.000000 0.000000
# 4 0.000000 0.000000 0.000000 0.006108 0.000000 0.000001
# 5 0.000000 0.000000 0.000000 0.000000 0.054440 0.000000
# 6 0.000000 0.000000 0.000000 0.000001 0.000000 0.034466
#
#
# Mechanical properties :
#
#
# Convention : Reuss Voigt Hill
#
# Bulk Modulus (GPa) = 53.89144 59.75961 56.82552
# Shear Modulus (GPa) = 31.41184 55.46251 43.43717
#
# Velocity S-wave (km/s) = 4.02351 5.34636 4.73140
# Velocity P-wave (km/s) = 7.02558 8.30118 7.68987
#
# Compressibility (1/GPa) = 0.01855582
#
# Stress axis : x y z
#
# Youngs Moduli (GPa) = 87.33239 100.57372 59.26770
#
# Poissons Ratio (x) = 0.36677 0.17605
# Poissons Ratio (y) = 0.31848 0.19190
# Poissons Ratio (z) = 0.25942 0.32564
#
# Static dielectric constant tensor:
#      x y z
#    x 3.730830 0.000000 0.000000 
#    y 0.000000 4.065290 0.000000 
#    z 0.000000 0.000000 3.534530 
# 
# 
# High freq. dielectric constant tensor:
#      x y z
#    x 1.735140 0.000000 0.000000 
#    y 0.000000 1.774090 0.000000 
#    z 0.000000 0.000000 1.745670 
# 
# From -- ./inp_files/32986.got.cif
#   From: 2010.03.12/outbox.cif.g09.slc.cpg/sg74_17_cif.got.tgz:32986.got - 2010.04.16 15:46:19.
