data_PCOD8297620
_publ_section_title
;
Structure prediction by ZEFSAII (Michael W. Deem and Ramdas Pophale) SiO2 
 PCOD8297620
Probable space group: I M M A
;
_chemical_formula_sum "Si O2"
_cell_formula_units_Z 104
_cell_length_a 18.205449
_cell_length_b 13.356091
_cell_length_c 24.590960
_cell_angle_alpha 90.000000
_cell_angle_beta 90.000000
_cell_angle_gamma 90.000000
_cell_volume 5979.381276
_symmetry_space_group_name_H-M "I M M A"
_symmetry_group_IT_number 74
_symmetry_cell_setting 'orthorhombic'
loop_
_space_group_symop_operation_xyz
x,y,z
-x,1/2-y,z
x,-y,-z
-x,1/2+y,-z
-x,-y,-z
x,1/2+y,-z
-x,y,z
x,1/2-y,z
1/2+x,1/2+y,1/2+z
1/2-x,-y,1/2+z
1/2+x,1/2-y,1/2-z
1/2-x,y,1/2-z
1/2-x,1/2-y,1/2-z
1/2+x,y,1/2-z
1/2-x,1/2+y,1/2+z
1/2+x,-y,1/2+z
loop_
_atom_site_type_symbol
_atom_site_label
_atom_site_fract_x
_atom_site_fract_y
_atom_site_fract_z
Si Si1 0.301101 0.500000 0.000000
Si Si2 0.811937 0.634140 0.795484
Si Si3 0.919482 0.865251 0.453548
Si Si4 0.716715 0.010293 0.609098
Si Si5 0.916969 0.134618 0.868702
Si Si6 0.656725 0.365843 0.842800
Si Si7 0.416497 0.970382 0.257049
O O1 0.355231 0.406774 0.991637
O O2 0.250405 0.523172 0.948279
O O3 0.831358 0.750000 0.805094
O O4 0.750000 0.621019 0.750000
O O5 0.785753 0.587584 0.852839
O O6 0.885165 0.577476 0.775892
O O7 0.922071 0.750000 0.467746
O O8 0.902102 0.883703 0.390340
O O9 0.000000 0.913062 0.465366
O O10 0.637077 0.060477 0.598346
O O11 0.763845 0.096378 0.638425
O O12 0.895261 0.250000 0.878525
O O13 0.910833 0.110962 0.804790
O O14 0.000000 0.114052 0.889164
O O15 0.662973 0.250000 0.826689
O O16 0.631876 0.429783 0.791808
O O17 0.500000 0.986438 0.238194
#
# Coordination Sequence:
#
# PCOD8297620 Si02
#       7
#     8  16  16  16  16  16  16
#     4  10  21  34  53  76 102 134 178 220 267 306
#     4  10  20  36  54  71  98 138 183 225 262 299
#     4   9  18  32  50  73 103 139 174 209 251 301
#     4  10  20  35  52  78 103 138 175 220 263 313
#     4   9  18  32  51  76 107 136 160 199 259 321
#     4  10  18  29  49  79 111 140 168 202 250 312
#     4  10  19  31  50  79 108 136 169 206 253 309
#
# _framework density 17.393104999999998
#
# number of rings (size 3 to 8) (size 9 to 14) (size 15 to 20)
#    0.000    2.308    1.538    1.615    0.000    3.077 
#    0.000    2.692    0.000    0.000    0.000    0.000 
#    0.000    0.000    0.000    0.000    0.000    0.000 
#
# Total GULP energy -644742.591017 kJ/mol
# GULP energy per Si atom -12398.895981 kJ/mol
# Density = 1.735352 g / cm^3
# Si number density = 17.393105 Si / 1000 Ang^3
#
#
#
# Elastic Constant Matrix: (Units=GPa)
#
#
# Indices 1 2 3 4 5 6 
#
# 1 96.3755 42.4187 43.7572 0.0000 0.0000 0.0000
# 2 42.4187 103.1486 45.8974 0.0000 0.0000 0.0000
# 3 43.7572 45.8974 88.3304 0.0000 0.0000 0.0000
# 4 0.0000 0.0000 0.0000 21.1798 0.0000 0.0000
# 5 0.0000 0.0000 0.0000 0.0000 13.9140 0.0000
# 6 0.0000 0.0000 0.0000 0.0000 0.0000 25.8708
#
#
#
# Elastic Compliance Matrix: (Units=1/GPa)
#
#
# Indices 1 2 3 4 5 6 
#
# 1 0.014324 -0.003555 -0.005248 0.000000 0.000000 0.000000
# 2 -0.003555 0.013493 -0.005250 0.000000 0.000000 0.000000
# 3 -0.005248 -0.005250 0.016649 0.000000 0.000000 0.000000
# 4 0.000000 0.000000 0.000000 0.047215 0.000000 0.000000
# 5 0.000000 0.000000 0.000000 0.000000 0.071870 0.000000
# 6 0.000000 0.000000 0.000000 0.000000 0.000000 0.038654
#
#
# Mechanical properties :
#
#
# Convention : Reuss Voigt Hill
#
# Bulk Modulus (GPa) = 61.12956 61.33345 61.23151
# Shear Modulus (GPa) = 21.20766 22.57832 21.89299
#
# Velocity S-wave (km/s) = 3.49566 3.60685 3.55169
# Velocity P-wave (km/s) = 7.17739 7.25848 7.21805
#
# Compressibility (1/GPa) = 0.01635870
#
# Stress axis : x y z
#
# Youngs Moduli (GPa) = 69.81395 74.11391 60.06367
#
# Poissons Ratio (x) = 0.26348 0.31524
# Poissons Ratio (y) = 0.24820 0.31532
# Poissons Ratio (z) = 0.36642 0.38909
#
# Static dielectric constant tensor:
#      x y z
#    x 3.496530 0.000000 0.000000 
#    y 0.000000 3.173780 0.000000 
#    z 0.000000 0.000000 3.078490 
# 
# 
# High freq. dielectric constant tensor:
#      x y z
#    x 1.684700 0.000000 0.000000 
#    y 0.000000 1.666040 0.000000 
#    z 0.000000 0.000000 1.653550 
# 
# From -- ./inp_files/60963.got.cif
#   From: 2010.03.12/outbox.cif.g09.slc.cpg/sg74_31_cif.got.tgz:60963.got - 2010.04.16 15:46:19.
