data_PCOD8297555
_publ_section_title
;
Structure prediction by ZEFSAII (Michael W. Deem and Ramdas Pophale) SiO2 
 PCOD8297555
Probable space group: I M M A
;
_chemical_formula_sum "Si O2"
_cell_formula_units_Z 96
_cell_length_a 8.963592
_cell_length_b 26.324244
_cell_length_c 28.630287
_cell_angle_alpha 90.000000
_cell_angle_beta 90.000000
_cell_angle_gamma 90.000000
_cell_volume 6755.596306
_symmetry_space_group_name_H-M "I M M A"
_symmetry_group_IT_number 74
_symmetry_cell_setting 'orthorhombic'
loop_
_space_group_symop_operation_xyz
x,y,z
-x,1/2-y,z
x,-y,-z
-x,1/2+y,-z
-x,-y,-z
x,1/2+y,-z
-x,y,z
x,1/2-y,z
1/2+x,1/2+y,1/2+z
1/2-x,-y,1/2+z
1/2+x,1/2-y,1/2-z
1/2-x,y,1/2-z
1/2-x,1/2-y,1/2-z
1/2+x,y,1/2-z
1/2-x,1/2+y,1/2+z
1/2+x,-y,1/2+z
loop_
_atom_site_type_symbol
_atom_site_label
_atom_site_fract_x
_atom_site_fract_y
_atom_site_fract_z
Si Si1 0.171583 0.807651 0.384313
Si Si2 0.322155 0.852232 0.297455
Si Si3 0.825884 0.102803 0.550242
Si Si4 0.168956 0.551631 0.971263
Si Si5 0.175553 0.460789 0.703819
Si Si6 0.171875 0.497063 0.604676
O O1 0.189300 0.750000 0.401826
O O2 0.275588 0.815496 0.339457
O O3 0.224006 0.844180 0.426447
O O4 0.000000 0.820200 0.370797
O O5 0.500000 0.854512 0.292976
O O6 0.250000 0.830054 0.250000
O O7 0.256179 0.907875 0.307083
O O8 0.746737 0.096950 0.500001
O O9 0.776461 0.057759 0.585227
O O10 0.000000 0.101380 0.540374
O O11 0.240308 0.543035 0.920146
O O12 0.000000 0.567544 0.963629
O O13 0.189004 0.500000 0.000000
O O14 0.250000 0.485677 0.750000
O O15 0.202571 0.498418 0.660218
O O16 0.000000 0.450800 0.711681
O O17 0.000000 0.505695 0.593043
#
# Coordination Sequence:
#
# PCOD8297555 Si02
#       6
#    16  16  16  16  16  16
#     4  10  20  34  49  62  77 100 132 169 208 250
#     4  11  21  32  46  59  76 100 131 170 212 251
#     4   9  16  29  44  58  78 102 127 158 200 244
#     4   9  17  26  39  61  82  99 125 158 195 234
#     4  10  18  29  43  61  82 106 136 165 201 242
#     4   9  16  27  43  59  79 104 130 159 195 239
#
# _framework density 14.210440999999999
#
# number of rings (size 3 to 8) (size 9 to 14) (size 15 to 20)
#    0.000    2.333    1.667    3.500    0.000    4.667 
#    0.000    0.000    0.000    0.000    0.000    0.000 
#    0.000    0.000    0.000    0.000    0.000    0.833 
#
# Total GULP energy -595112.544120 kJ/mol
# GULP energy per Si atom -12398.178002 kJ/mol
# Density = 1.417810 g / cm^3
# Si number density = 14.210441 Si / 1000 Ang^3
#
#
#
# Elastic Constant Matrix: (Units=GPa)
#
#
# Indices 1 2 3 4 5 6 
#
# 1 83.2681 32.5864 50.2751 0.0000 0.0000 0.0000
# 2 32.5864 50.0831 51.7006 0.0000 0.0000 0.0000
# 3 50.2751 51.7006 101.3894 0.0000 0.0000 0.0000
# 4 0.0000 0.0000 0.0000 20.5525 0.0000 0.0000
# 5 0.0000 0.0000 0.0000 0.0000 24.9317 0.0000
# 6 0.0000 0.0000 0.0000 0.0000 0.0000 10.3966
#
#
#
# Elastic Compliance Matrix: (Units=1/GPa)
#
#
# Indices 1 2 3 4 5 6 
#
# 1 0.017761 -0.005204 -0.006153 0.000000 0.000000 0.000000
# 2 -0.005204 0.043683 -0.019695 0.000000 0.000000 0.000000
# 3 -0.006153 -0.019695 0.022957 0.000000 0.000000 0.000000
# 4 0.000000 0.000000 0.000000 0.048656 0.000000 0.000000
# 5 0.000000 0.000000 0.000000 0.000000 0.040110 0.000000
# 6 0.000000 0.000000 0.000000 0.000000 0.000000 0.096185
#
#
# Mechanical properties :
#
#
# Convention : Reuss Voigt Hill
#
# Bulk Modulus (GPa) = 44.84840 55.98497 50.41668
# Shear Modulus (GPa) = 14.75408 17.85472 16.30440
#
# Velocity S-wave (km/s) = 3.22569 3.54849 3.39094
# Velocity P-wave (km/s) = 6.74553 7.50144 7.13351
#
# Compressibility (1/GPa) = 0.02229734
#
# Stress axis : x y z
#
# Youngs Moduli (GPa) = 56.30218 22.89195 43.55989
#
# Poissons Ratio (x) = 0.11913 0.26804
# Poissons Ratio (y) = 0.29300 0.85789
# Poissons Ratio (z) = 0.34645 0.45085
#
# Static dielectric constant tensor:
#      x y z
#    x 2.838040 0.000000 0.000000 
#    y 0.000000 2.448080 0.000000 
#    z 0.000000 0.000000 2.903480 
# 
# 
# High freq. dielectric constant tensor:
#      x y z
#    x 1.552810 0.000000 0.000000 
#    y 0.000000 1.485820 0.000000 
#    z 0.000000 0.000000 1.537310 
# 
# From -- ./inp_files/64935.got.cif
#   From: 2010.03.12/outbox.cif.g09.slc.cpg/sg74_33_cif.got.tgz:64935.got - 2010.04.16 15:46:19.
