data_PCOD8297148
_publ_section_title
;
Structure prediction by ZEFSAII (Michael W. Deem and Ramdas Pophale) SiO2 
 PCOD8297148
Probable space group: I M M A
;
_chemical_formula_sum "Si O2"
_cell_formula_units_Z 72
_cell_length_a 13.939834
_cell_length_b 21.680200
_cell_length_c 16.421732
_cell_angle_alpha 90.000000
_cell_angle_beta 90.000000
_cell_angle_gamma 90.000000
_cell_volume 4962.949391
_symmetry_space_group_name_H-M "I M M A"
_symmetry_group_IT_number 74
_symmetry_cell_setting 'orthorhombic'
loop_
_space_group_symop_operation_xyz
x,y,z
-x,1/2-y,z
x,-y,-z
-x,1/2+y,-z
-x,-y,-z
x,1/2+y,-z
-x,y,z
x,1/2-y,z
1/2+x,1/2+y,1/2+z
1/2-x,-y,1/2+z
1/2+x,1/2-y,1/2-z
1/2-x,y,1/2-z
1/2-x,1/2-y,1/2-z
1/2+x,y,1/2-z
1/2-x,1/2+y,1/2+z
1/2+x,-y,1/2+z
loop_
_atom_site_type_symbol
_atom_site_label
_atom_site_fract_x
_atom_site_fract_y
_atom_site_fract_z
Si Si1 0.343158 0.091800 0.449574
Si Si2 0.000000 0.178901 0.105207
Si Si3 0.610806 0.538310 0.381945
Si Si4 0.000000 0.677371 0.704049
Si Si5 0.810773 0.892371 0.675042
Si Si6 0.250000 0.490159 0.750000
O O1 0.407396 0.151360 0.437415
O O2 0.339450 0.075492 0.544630
O O3 0.240307 0.110688 0.413098
O O4 0.388512 0.034784 0.399354
O O5 0.000000 0.164398 0.200550
O O6 0.000000 0.250000 0.085839
O O7 0.500000 0.559077 0.368390
O O8 0.678714 0.552212 0.304069
O O9 0.091017 0.644122 0.664062
O O10 0.000000 0.750000 0.683347
O O11 0.750000 0.861135 0.750000
O O12 0.820744 0.965509 0.696284
#
# Coordination Sequence:
#
# PCOD8297148 Si02
#       6
#    16   8  16   8  16   8
#     4  10  17  29  43  67  86 119 145 185 218 249
#     4  11  18  25  41  67  91 112 151 182 210 245
#     4  10  16  27  51  65  90 111 147 177 222 271
#     4  11  20  28  41  58  85 131 162 172 198 248
#     4   9  18  28  41  58  92 115 148 178 214 248
#     4   8  18  26  43  70  85 110 132 180 234 264
#
# _framework density 14.507502000000001
#
# number of rings (size 3 to 8) (size 9 to 14) (size 15 to 20)
#    0.667    1.556    4.444    0.667    1.556    1.333 
#    0.000    0.000    2.444    2.667    0.000    0.778 
#    0.000    0.000    0.000    0.000    0.000    0.000 
#
# Total GULP energy -446091.915022 kJ/mol
# GULP energy per Si atom -12391.442084 kJ/mol
# Density = 1.447448 g / cm^3
# Si number density = 14.507502 Si / 1000 Ang^3
#
#
#
# Elastic Constant Matrix: (Units=GPa)
#
#
# Indices 1 2 3 4 5 6 
#
# 1 117.2890 38.4691 66.2415 0.0000 0.0000 0.0000
# 2 38.4691 53.2178 34.2013 0.0000 0.0000 0.0000
# 3 66.2415 34.2013 93.6015 0.0001 0.0000 0.0000
# 4 0.0000 0.0000 0.0001 14.8665 0.0000 0.0000
# 5 0.0000 0.0000 0.0000 0.0000 19.2850 0.0000
# 6 0.0000 0.0000 0.0000 0.0000 0.0000 12.5943
#
#
#
# Elastic Compliance Matrix: (Units=1/GPa)
#
#
# Indices 1 2 3 4 5 6 
#
# 1 0.015288 -0.005355 -0.008862 0.000000 0.000000 0.000000
# 2 -0.005355 0.026433 -0.005869 0.000000 0.000000 0.000000
# 3 -0.008862 -0.005869 0.019100 0.000000 0.000000 0.000000
# 4 0.000000 0.000000 0.000000 0.067266 0.000000 0.000000
# 5 0.000000 0.000000 0.000000 0.000000 0.051854 0.000000
# 6 0.000000 0.000000 0.000000 0.000000 0.000000 0.079401
#
#
# Mechanical properties :
#
#
# Convention : Reuss Voigt Hill
#
# Bulk Modulus (GPa) = 48.42988 60.21467 54.32228
# Shear Modulus (GPa) = 16.31874 17.69556 17.00715
#
# Velocity S-wave (km/s) = 3.35751 3.49628 3.42760
# Velocity P-wave (km/s) = 6.96316 7.60885 7.29316
#
# Compressibility (1/GPa) = 0.02064841
#
# Stress axis : x y z
#
# Youngs Moduli (GPa) = 65.41289 37.83083 52.35707
#
# Poissons Ratio (x) = 0.20260 0.46399
# Poissons Ratio (y) = 0.35031 0.30726
# Poissons Ratio (z) = 0.57970 0.22201
#
# Static dielectric constant tensor:
#      x y z
#    x 2.775150 0.000000 0.000000 
#    y 0.000000 2.543550 0.000000 
#    z 0.000000 0.000000 2.762840 
# 
# 
# High freq. dielectric constant tensor:
#      x y z
#    x 1.549460 0.000000 0.000000 
#    y 0.000000 1.517790 0.000000 
#    z 0.000000 0.000000 1.533010 
# 
# From -- ./inp_files/41401.got.cif
#   From: 2010.03.12/outbox.cif.g09.slc.cpg/sg74_21_cif.got.tgz:41401.got - 2010.04.16 15:46:19.
