data_PCOD8297188
_publ_section_title
;
Structure prediction by ZEFSAII (Michael W. Deem and Ramdas Pophale) SiO2 
 PCOD8297188
Probable space group: I M M A
;
_chemical_formula_sum "Si O2"
_cell_formula_units_Z 88
_cell_length_a 14.373186
_cell_length_b 24.224529
_cell_length_c 13.562043
_cell_angle_alpha 90.000000
_cell_angle_beta 90.000000
_cell_angle_gamma 90.000000
_cell_volume 4722.081783
_symmetry_space_group_name_H-M "I M M A"
_symmetry_group_IT_number 74
_symmetry_cell_setting 'orthorhombic'
loop_
_space_group_symop_operation_xyz
x,y,z
-x,1/2-y,z
x,-y,-z
-x,1/2+y,-z
-x,-y,-z
x,1/2+y,-z
-x,y,z
x,1/2-y,z
1/2+x,1/2+y,1/2+z
1/2-x,-y,1/2+z
1/2+x,1/2-y,1/2-z
1/2-x,y,1/2-z
1/2-x,1/2-y,1/2-z
1/2+x,y,1/2-z
1/2-x,1/2+y,1/2+z
1/2+x,-y,1/2+z
loop_
_atom_site_type_symbol
_atom_site_label
_atom_site_fract_x
_atom_site_fract_y
_atom_site_fract_z
Si Si1 0.787381 0.000000 0.500000
Si Si2 0.896376 0.904344 0.261174
Si Si3 0.263690 0.889671 0.411790
Si Si4 0.742065 0.684896 0.596854
Si Si5 0.895796 0.145234 0.258912
Si Si6 0.352888 0.475844 0.207126
O O1 0.722913 0.050712 0.536267
O O2 0.852165 0.022519 0.411906
O O3 0.835942 0.888486 0.356842
O O4 0.847901 0.879865 0.163861
O O5 0.000000 0.879117 0.270969
O O6 0.905178 0.970600 0.251569
O O7 0.266748 0.840206 0.488777
O O8 0.744284 0.750000 0.587386
O O9 0.837455 0.664343 0.646339
O O10 0.653071 0.666710 0.660175
O O11 0.903930 0.078990 0.256485
O O12 0.000000 0.169846 0.264344
O O13 0.250000 0.476589 0.250000
#
# Coordination Sequence:
#
# PCOD8297188 Si02
#       6
#     8  16  16  16  16  16
#     4  10  16  32  58  78 112 152 182 224 278 330
#     4  10  21  36  58  87 118 151 183 235 295 343
#     4  10  20  38  59  81 117 149 189 240 280 347
#     4  11  24  41  60  82 114 155 196 239 287 333
#     4  11  22  37  59  87 118 154 193 232 278 339
#     4  11  17  34  56  84 122 151 185 226 281 343
#
# _framework density 18.635849
#
# number of rings (size 3 to 8) (size 9 to 14) (size 15 to 20)
#    0.000    1.455    7.273    1.636    0.000    2.909 
#    0.000    4.545    0.000    1.091    0.000    0.000 
#    0.000    0.000    0.000    0.000    0.000    0.000 
#
# Total GULP energy -545597.826434 kJ/mol
# GULP energy per Si atom -12399.950601 kJ/mol
# Density = 1.859343 g / cm^3
# Si number density = 18.635849 Si / 1000 Ang^3
#
#
#
# Elastic Constant Matrix: (Units=GPa)
#
#
# Indices 1 2 3 4 5 6 
#
# 1 134.9919 11.3156 49.2605 -0.0001 0.0000 0.0000
# 2 11.3156 72.9707 37.0765 0.0007 0.0002 0.0000
# 3 49.2605 37.0765 117.4741 0.0008 0.0003 0.0000
# 4 -0.0001 0.0007 0.0008 25.1410 0.0003 0.0000
# 5 0.0000 0.0002 0.0003 0.0003 7.5782 0.0000
# 6 0.0000 0.0000 0.0000 0.0000 0.0000 7.6961
#
#
#
# Elastic Compliance Matrix: (Units=1/GPa)
#
#
# Indices 1 2 3 4 5 6 
#
# 1 0.008769 0.000606 -0.003868 0.000000 0.000000 0.000000
# 2 0.000606 0.016363 -0.005418 0.000000 0.000000 0.000000
# 3 -0.003868 -0.005418 0.011845 0.000000 0.000000 0.000000
# 4 0.000000 0.000000 0.000000 0.039776 -0.000001 0.000000
# 5 0.000000 0.000000 0.000000 -0.000001 0.131957 0.000000
# 6 0.000000 0.000000 0.000000 0.000000 0.000000 0.129935
#
#
# Mechanical properties :
#
#
# Convention : Reuss Voigt Hill
#
# Bulk Modulus (GPa) = 50.98198 57.86019 54.42109
# Shear Modulus (GPa) = 13.79140 23.26869 18.53004
#
# Velocity S-wave (km/s) = 2.72333 3.53738 3.15671
# Velocity P-wave (km/s) = 6.10779 6.91370 6.52320
#
# Compressibility (1/GPa) = 0.01961477
#
# Stress axis : x y z
#
# Youngs Moduli (GPa) = 114.04322 61.11225 84.42617
#
# Poissons Ratio (x) = -0.03701 0.32657
# Poissons Ratio (y) = -0.06907 0.45746
# Poissons Ratio (z) = 0.44113 0.33113
#
# Static dielectric constant tensor:
#      x y z
#    x 3.402910 0.000000 0.000000 
#    y 0.000000 3.376130 0.000000 
#    z 0.000000 0.000000 3.789770 
# 
# 
# High freq. dielectric constant tensor:
#      x y z
#    x 1.709340 0.000000 0.000000 
#    y 0.000000 1.708120 0.000000 
#    z 0.000000 0.000000 1.728270 
# 
# From -- ./inp_files/20896.got.cif
#   From: 2010.03.12/outbox.cif.g09.slc.cpg/sg74_11_cif.got.tgz:20896.got - 2010.04.16 15:46:19.
