data_PCOD8297172
_publ_section_title
;
Structure prediction by ZEFSAII (Michael W. Deem and Ramdas Pophale) SiO2 
 PCOD8297172
Probable space group: I M M A
;
_chemical_formula_sum "Si O2"
_cell_formula_units_Z 80
_cell_length_a 20.794922
_cell_length_b 8.033248
_cell_length_c 38.138274
_cell_angle_alpha 90.000000
_cell_angle_beta 90.000000
_cell_angle_gamma 90.000000
_cell_volume 6371.027869
_symmetry_space_group_name_H-M "I M M A"
_symmetry_group_IT_number 74
_symmetry_cell_setting 'orthorhombic'
loop_
_space_group_symop_operation_xyz
x,y,z
-x,1/2-y,z
x,-y,-z
-x,1/2+y,-z
-x,-y,-z
x,1/2+y,-z
-x,y,z
x,1/2-y,z
1/2+x,1/2+y,1/2+z
1/2-x,-y,1/2+z
1/2+x,1/2-y,1/2-z
1/2-x,y,1/2-z
1/2-x,1/2-y,1/2-z
1/2+x,y,1/2-z
1/2-x,1/2+y,1/2+z
1/2+x,-y,1/2+z
loop_
_atom_site_type_symbol
_atom_site_label
_atom_site_fract_x
_atom_site_fract_y
_atom_site_fract_z
Si Si1 0.762296 0.430053 0.208848
Si Si2 0.927666 0.250000 0.719578
Si Si3 0.185458 0.750000 0.226206
Si Si4 0.073593 0.555828 0.536446
Si Si5 0.574260 0.058775 0.890194
Si Si6 0.876316 0.938451 0.679337
O O1 0.789435 0.250000 0.195764
O O2 0.750000 0.416253 0.250000
O O3 0.812509 0.581934 0.202324
O O4 0.697400 0.475109 0.188421
O O5 0.879423 0.250000 0.751967
O O6 0.919646 0.419597 0.697313
O O7 0.000000 0.250000 0.734293
O O8 0.250000 0.750000 0.250000
O O9 0.108049 0.500000 0.500000
O O10 0.080491 0.750000 0.541431
O O11 0.104105 0.469634 0.570906
O O12 0.000000 0.495145 0.534347
O O13 0.500000 0.999522 0.889398
O O14 0.580713 0.250000 0.879516
O O15 0.614281 0.950016 0.862477
O O16 0.895038 0.750000 0.691755
#
# Coordination Sequence:
#
# PCOD8297172 Si02
#       6
#    16   8   8  16  16  16
#     4   9  16  27  44  58  67  89 125 150 171 219
#     4  12  22  30  40  60  80  96 120 152 188 232
#     4  10  16  30  46  54  70  98 122 146 178 220
#     4   9  16  26  38  49  62  85 117 146 175 217
#     4  10  19  28  37  51  72  93 113 144 187 229
#     4  11  20  30  42  56  75  97 119 149 190 232
#
# _framework density 12.556844
#
# number of rings (size 3 to 8) (size 9 to 14) (size 15 to 20)
#    0.000    2.000    5.000    1.800    0.000    4.800 
#    0.000    0.000    0.000    0.000    0.000    0.000 
#    0.000    0.000    0.000    0.000    0.000    0.000 
#
# Total GULP energy -495620.334938 kJ/mol
# GULP energy per Si atom -12390.508373 kJ/mol
# Density = 1.252826 g / cm^3
# Si number density = 12.556844 Si / 1000 Ang^3
#
#
#
# Elastic Constant Matrix: (Units=GPa)
#
#
# Indices 1 2 3 4 5 6 
#
# 1 44.0279 28.5703 36.2608 0.0000 0.0000 0.0000
# 2 28.5703 93.9117 23.6600 0.0000 0.0000 0.0000
# 3 36.2608 23.6600 67.1849 0.0000 0.0000 0.0000
# 4 0.0000 0.0000 0.0000 12.1104 0.0000 0.0000
# 5 0.0000 0.0000 0.0000 0.0000 11.4185 0.0000
# 6 0.0000 0.0000 0.0000 0.0000 0.0000 4.6303
#
#
#
# Elastic Compliance Matrix: (Units=1/GPa)
#
#
# Indices 1 2 3 4 5 6 
#
# 1 0.046425 -0.008572 -0.022038 0.000000 0.000000 0.000000
# 2 -0.008572 0.013268 -0.000046 0.000000 0.000000 0.000000
# 3 -0.022038 -0.000046 0.026795 0.000000 0.000000 0.000000
# 4 0.000000 0.000000 0.000000 0.082574 0.000000 0.000000
# 5 0.000000 0.000000 0.000000 0.000000 0.087577 0.000000
# 6 0.000000 0.000000 0.000000 0.000000 0.000000 0.215968
#
#
# Mechanical properties :
#
#
# Convention : Reuss Voigt Hill
#
# Bulk Modulus (GPa) = 39.71968 42.45631 41.08799
# Shear Modulus (GPa) = 9.21982 13.40740 11.31361
#
# Velocity S-wave (km/s) = 2.71264 3.27117 3.00491
# Velocity P-wave (km/s) = 6.44296 6.93917 6.69566
#
# Compressibility (1/GPa) = 0.02517644
#
# Stress axis : x y z
#
# Youngs Moduli (GPa) = 21.54004 75.37152 37.32075
#
# Poissons Ratio (x) = 0.64605 0.82247
# Poissons Ratio (y) = 0.18463 0.00172
# Poissons Ratio (z) = 0.47470 0.00348
#
# Static dielectric constant tensor:
#      x y z
#    x 2.155250 0.000000 0.000000 
#    y 0.000000 3.361270 0.000000 
#    z 0.000000 0.000000 2.588540 
# 
# 
# High freq. dielectric constant tensor:
#      x y z
#    x 1.412750 0.000000 0.000000 
#    y 0.000000 1.508340 0.000000 
#    z 0.000000 0.000000 1.457680 
# 
# From -- ./inp_files/73247.got.cif
#   From: 2010.03.12/outbox.cif.g09.slc.cpg/sg74_37_cif.got.tgz:73247.got - 2010.04.16 15:46:19.
