data_PCOD8297055
_publ_section_title
;
Structure prediction by ZEFSAII (Michael W. Deem and Ramdas Pophale) SiO2 
 PCOD8297055
Probable space group: I B C A 
;
_chemical_formula_sum "Si O2"
_cell_formula_units_Z 72
_cell_length_a 23.650245
_cell_length_b 11.726614
_cell_length_c 13.317871
_cell_angle_alpha 90.000000
_cell_angle_beta 90.000000
_cell_angle_gamma 90.000000
_cell_volume 3693.542307
_symmetry_space_group_name_H-M "I B C A "
_symmetry_group_IT_number 73
_symmetry_cell_setting 'orthorhombic'
loop_
_space_group_symop_operation_xyz
x,y,z
-x,1/2-y,z
x,-y,1/2-z
1/2-x,y,-z
-x,-y,-z
x,1/2+y,-z
-x,y,1/2+z
1/2+x,-y,z
1/2+x,1/2+y,1/2+z
1/2-x,-y,1/2+z
1/2+x,1/2-y,-z
-x,1/2+y,1/2-z
1/2-x,1/2-y,1/2-z
1/2+x,y,1/2-z
1/2-x,1/2+y,z
x,1/2-y,1/2+z
loop_
_atom_site_type_symbol
_atom_site_label
_atom_site_fract_x
_atom_site_fract_y
_atom_site_fract_z
Si Si1 0.355869 0.496743 0.856585
Si Si2 0.500000 0.750000 0.648982
Si Si3 0.553961 0.579767 0.003316
Si Si4 0.311096 0.196470 0.245315
Si Si5 0.911010 0.873811 0.718497
O O1 0.392378 0.500000 0.750000
O O2 0.394375 0.497296 0.955022
O O3 0.316948 0.611564 0.852419
O O4 0.318860 0.379813 0.847370
O O5 0.455680 0.683015 0.579743
O O6 0.534984 0.662652 0.716625
O O7 0.500000 0.500000 0.000000
O O8 0.570308 0.631972 0.896998
O O9 0.250000 0.250000 0.250000
O O10 0.357725 0.294351 0.238303
O O11 0.892704 0.000000 0.750000
#
# Coordination Sequence:
#
# PCOD8297055 Si02
#       5
#    16   8  16  16  16
#     4   8  21  41  67  91 131 168 222 265 328 388
#     4  12  24  44  62  98 138 174 214 276 334 404
#     4  12  25  40  65  96 136 177 214 266 341 399
#     4   9  21  43  70  87 127 176 217 277 330 375
#     4  12  26  38  66  98 134 169 225 268 328 402
#
# _framework density 19.493482
#
# number of rings (size 3 to 8) (size 9 to 14) (size 15 to 20)
#    1.333    0.000    4.444    0.667   12.444    0.000 
#    0.000    1.111    0.000    0.000    0.000    0.000 
#    0.000    0.000    0.000    0.000    0.000    0.000 
#
# Total GULP energy -446053.821352 kJ/mol
# GULP energy per Si atom -12390.383926 kJ/mol
# Density = 1.944911 g / cm^3
# Si number density = 19.493482 Si / 1000 Ang^3
#
#
#
# Elastic Constant Matrix: (Units=GPa)
#
#
# Indices 1 2 3 4 5 6 
#
# 1 127.9283 74.2106 43.7382 0.0000 0.0000 0.0000
# 2 74.2106 153.9938 40.7709 0.0000 0.0000 0.0000
# 3 43.7382 40.7709 106.6200 0.0000 0.0000 0.0000
# 4 0.0000 0.0000 0.0000 24.2980 0.0000 0.0000
# 5 0.0000 0.0000 0.0000 0.0000 24.2376 0.0000
# 6 0.0000 0.0000 0.0000 0.0000 0.0000 32.5216
#
#
#
# Elastic Compliance Matrix: (Units=1/GPa)
#
#
# Indices 1 2 3 4 5 6 
#
# 1 0.011613 -0.004823 -0.002920 0.000000 0.000000 0.000000
# 2 -0.004823 0.009229 -0.001550 0.000000 0.000000 0.000000
# 3 -0.002920 -0.001550 0.011170 0.000000 0.000000 0.000000
# 4 0.000000 0.000000 0.000000 0.041156 0.000000 0.000000
# 5 0.000000 0.000000 0.000000 0.000000 0.041258 0.000000
# 6 0.000000 0.000000 0.000000 0.000000 0.000000 0.030749
#
#
# Mechanical properties :
#
#
# Convention : Reuss Voigt Hill
#
# Bulk Modulus (GPa) = 74.48889 78.44238 76.46564
# Shear Modulus (GPa) = 29.72024 31.53294 30.62659
#
# Velocity S-wave (km/s) = 3.90888 4.02632 3.96804
# Velocity P-wave (km/s) = 7.65948 7.87037 7.76564
#
# Compressibility (1/GPa) = 0.01342482
#
# Stress axis : x y z
#
# Youngs Moduli (GPa) = 86.10943 108.35784 89.52883
#
# Poissons Ratio (x) = 0.52266 0.26138
# Poissons Ratio (y) = 0.41535 0.13880
# Poissons Ratio (z) = 0.25140 0.16799
#
# Static dielectric constant tensor:
#      x y z
#    x 3.943460 0.000000 0.000000 
#    y 0.000000 3.820710 0.000000 
#    z 0.000000 0.000000 3.473350 
# 
# 
# High freq. dielectric constant tensor:
#      x y z
#    x 1.738230 0.000000 0.000000 
#    y 0.000000 1.780840 0.000000 
#    z 0.000000 0.000000 1.743490 
# 
# From -- ./inp_files/18469.got.cif
#   From: 2010.03.12/outbox.cif.g09.slc.cpg/sg73_10_cif.got.tgz:18469.got - 2010.04.16 15:25:48.
