data_PCOD8297241
_publ_section_title
;
Structure prediction by ZEFSAII (Michael W. Deem and Ramdas Pophale) SiO2 
 PCOD8297241
Probable space group: I M M A
;
_chemical_formula_sum "Si O2"
_cell_formula_units_Z 80
_cell_length_a 18.824098
_cell_length_b 8.710093
_cell_length_c 26.424470
_cell_angle_alpha 90.000000
_cell_angle_beta 90.000000
_cell_angle_gamma 90.000000
_cell_volume 4332.546700
_symmetry_space_group_name_H-M "I M M A"
_symmetry_group_IT_number 74
_symmetry_cell_setting 'orthorhombic'
loop_
_space_group_symop_operation_xyz
x,y,z
-x,1/2-y,z
x,-y,-z
-x,1/2+y,-z
-x,-y,-z
x,1/2+y,-z
-x,y,z
x,1/2-y,z
1/2+x,1/2+y,1/2+z
1/2-x,-y,1/2+z
1/2+x,1/2-y,1/2-z
1/2-x,y,1/2-z
1/2-x,1/2-y,1/2-z
1/2+x,y,1/2-z
1/2-x,1/2+y,1/2+z
1/2+x,-y,1/2+z
loop_
_atom_site_type_symbol
_atom_site_label
_atom_site_fract_x
_atom_site_fract_y
_atom_site_fract_z
Si Si1 0.663896 0.567773 0.346470
Si Si2 0.835699 0.430599 0.050550
Si Si3 0.680650 0.570604 0.048311
Si Si4 0.675716 0.071123 0.841032
Si Si5 0.420250 0.933066 0.248193
O O1 0.664370 0.750000 0.352366
O O2 0.630298 0.497300 0.397782
O O3 0.744194 0.504964 0.337342
O O4 0.615890 0.511284 0.300016
O O5 0.844819 0.250000 0.049756
O O6 0.753841 0.479054 0.050203
O O7 0.873131 0.500000 0.000000
O O8 0.695635 0.750000 0.039884
O O9 0.642489 0.543118 0.102566
O O10 0.636922 0.500000 0.000000
O O11 0.680779 0.250000 0.829068
O O12 0.624131 0.996365 0.799099
O O13 0.500000 0.999094 0.245596
O O14 0.421459 0.750000 0.245719
#
# Coordination Sequence:
#
# PCOD8297241 Si02
#       5
#    16  16  16  16  16
#     4   9  16  27  44  66  91 116 143 178 219 260
#     4  10  17  26  42  65  92 117 143 177 216 259
#     4   9  15  24  40  63  91 118 144 178 219 259
#     4   8  14  24  40  63  89 116 144 177 218 259
#     4   9  16  26  43  66  88 112 147 188 222 254
#
# _framework density 18.46489
#
# number of rings (size 3 to 8) (size 9 to 14) (size 15 to 20)
#    0.000    3.000    0.000    5.400    0.000    2.400 
#    0.000    0.000    0.000   12.600    0.000    0.000 
#    0.000    0.000    0.000    0.000    0.000    7.200 
#
# Total GULP energy -495552.930021 kJ/mol
# GULP energy per Si atom -12388.823251 kJ/mol
# Density = 1.842286 g / cm^3
# Si number density = 18.464890 Si / 1000 Ang^3
#
#
#
# Elastic Constant Matrix: (Units=GPa)
#
#
# Indices 1 2 3 4 5 6 
#
# 1 67.9554 13.0835 60.2556 0.0000 0.0000 0.0000
# 2 13.0835 54.8696 40.6592 0.0000 0.0000 0.0000
# 3 60.2556 40.6592 199.3105 0.0000 0.0000 0.0000
# 4 0.0000 0.0000 0.0000 26.7903 0.0000 0.0000
# 5 0.0000 0.0000 0.0000 0.0000 4.5038 0.0000
# 6 0.0000 0.0000 0.0000 0.0000 0.0000 5.1694
#
#
#
# Elastic Compliance Matrix: (Units=1/GPa)
#
#
# Indices 1 2 3 4 5 6 
#
# 1 0.020110 -0.000342 -0.006010 0.000000 0.000000 0.000000
# 2 -0.000342 0.021476 -0.004278 0.000000 0.000000 0.000000
# 3 -0.006010 -0.004278 0.007707 0.000000 0.000000 0.000000
# 4 0.000000 0.000000 0.000000 0.037327 0.000000 0.000000
# 5 0.000000 0.000000 0.000000 0.000000 0.222034 0.000000
# 6 0.000000 0.000000 0.000000 0.000000 0.000000 0.193447
#
#
# Mechanical properties :
#
#
# Convention : Reuss Voigt Hill
#
# Bulk Modulus (GPa) = 35.67036 61.12581 48.39808
# Shear Modulus (GPa) = 9.38603 21.16851 15.27727
#
# Velocity S-wave (km/s) = 2.25704 3.38955 2.87952
# Velocity P-wave (km/s) = 5.11392 6.96380 6.10928
#
# Compressibility (1/GPa) = 0.02803448
#
# Stress axis : x y z
#
# Youngs Moduli (GPa) = 49.72551 46.56255 129.75306
#
# Poissons Ratio (x) = 0.01591 0.77982
# Poissons Ratio (y) = 0.01699 0.55507
# Poissons Ratio (z) = 0.29885 0.19919
#
# Static dielectric constant tensor:
#      x y z
#    x 3.047160 0.000000 0.000000 
#    y 0.000000 3.040200 0.000000 
#    z 0.000000 0.000000 4.396910 
# 
# 
# High freq. dielectric constant tensor:
#      x y z
#    x 1.650190 0.000000 0.000000 
#    y 0.000000 1.676230 0.000000 
#    z 0.000000 0.000000 1.751730 
# 
# From -- ./inp_files/63981.got.cif
#   From: 2010.03.12/outbox.cif.g09.slc.cpg/sg74_32_cif.got.tgz:63981.got - 2010.04.16 15:46:19.
