data_PCOD8297286
_publ_section_title
;
Structure prediction by ZEFSAII (Michael W. Deem and Ramdas Pophale) SiO2 
 PCOD8297286
Probable space group: I M M A
;
_chemical_formula_sum "Si O2"
_cell_formula_units_Z 88
_cell_length_a 9.257261
_cell_length_b 20.121356
_cell_length_c 23.292363
_cell_angle_alpha 90.000000
_cell_angle_beta 90.000000
_cell_angle_gamma 90.000000
_cell_volume 4338.636875
_symmetry_space_group_name_H-M "I M M A"
_symmetry_group_IT_number 74
_symmetry_cell_setting 'orthorhombic'
loop_
_space_group_symop_operation_xyz
x,y,z
-x,1/2-y,z
x,-y,-z
-x,1/2+y,-z
-x,-y,-z
x,1/2+y,-z
-x,y,z
x,1/2-y,z
1/2+x,1/2+y,1/2+z
1/2-x,-y,1/2+z
1/2+x,1/2-y,1/2-z
1/2-x,y,1/2-z
1/2-x,1/2-y,1/2-z
1/2+x,y,1/2-z
1/2-x,1/2+y,1/2+z
1/2+x,-y,1/2+z
loop_
_atom_site_type_symbol
_atom_site_label
_atom_site_fract_x
_atom_site_fract_y
_atom_site_fract_z
Si Si1 0.663042 0.603318 0.894616
Si Si2 0.661159 0.250000 0.095278
Si Si3 0.669110 0.620764 0.027257
Si Si4 0.169384 0.750000 0.014996
Si Si5 0.664587 0.888256 0.368864
Si Si6 0.335446 0.519396 0.693546
Si Si7 0.329754 0.250000 0.689710
O O1 0.500000 0.576976 0.885412
O O2 0.673419 0.680149 0.871009
O O3 0.775549 0.559635 0.860686
O O4 0.703055 0.597036 0.962608
O O5 0.500000 0.250000 0.064520
O O6 0.794283 0.250000 0.052008
O O7 0.500000 0.630492 0.035310
O O8 0.757115 0.686966 0.043546
O O9 0.735220 0.578303 0.079949
O O10 0.000000 0.750000 0.026943
O O11 0.500000 0.885197 0.391198
O O12 0.715316 0.816110 0.345692
O O13 0.678490 0.940672 0.316803
O O14 0.500000 0.541254 0.702351
O O15 0.250000 0.540504 0.750000
O O16 0.500000 0.250000 0.701706
O O17 0.250000 0.250000 0.750000
#
# Coordination Sequence:
#
# PCOD8297286 Si02
#       7
#    16   8  16   8  16  16   8
#     4   9  19  37  60  86 117 150 187 232 282 339
#     4   8  16  33  56  83 113 145 182 224 271 329
#     4  10  20  34  55  84 116 151 191 234 284 343
#     4  10  17  27  48  78 116 154 183 220 272 330
#     4  10  22  38  57  84 116 150 190 240 292 341
#     4  11  24  41  60  82 111 149 193 238 289 348
#     4  10  21  38  59  83 113 151 196 242 285 327
#
# _framework density 20.282867
#
# number of rings (size 3 to 8) (size 9 to 14) (size 15 to 20)
#    0.000    2.182    0.000    4.091    0.000    7.273 
#    0.000    4.091    0.000    0.000    0.000    0.000 
#    0.000    0.000    0.000    0.000    0.000    0.000 
#
# Total GULP energy -545134.952657 kJ/mol
# GULP energy per Si atom -12389.430742 kJ/mol
# Density = 2.023670 g / cm^3
# Si number density = 20.282867 Si / 1000 Ang^3
#
#
#
# Elastic Constant Matrix: (Units=GPa)
#
#
# Indices 1 2 3 4 5 6 
#
# 1 126.7458 36.7749 77.5583 0.0000 0.0000 0.0000
# 2 36.7749 66.0725 38.0961 0.0000 0.0000 0.0000
# 3 77.5583 38.0961 123.1019 0.0000 0.0000 0.0000
# 4 0.0000 0.0000 0.0000 24.8164 0.0000 0.0000
# 5 0.0000 0.0000 0.0000 0.0000 40.0821 0.0000
# 6 0.0000 0.0000 0.0000 0.0000 0.0000 27.3199
#
#
#
# Elastic Compliance Matrix: (Units=1/GPa)
#
#
# Indices 1 2 3 4 5 6 
#
# 1 0.013355 -0.003143 -0.007442 0.000000 0.000000 0.000000
# 2 -0.003143 0.019161 -0.003950 0.000000 0.000000 0.000000
# 3 -0.007442 -0.003950 0.014034 0.000000 0.000000 0.000000
# 4 0.000000 0.000000 0.000000 0.040296 0.000000 0.000000
# 5 0.000000 0.000000 0.000000 0.000000 0.024949 0.000000
# 6 0.000000 0.000000 0.000000 0.000000 0.000000 0.036603
#
#
# Mechanical properties :
#
#
# Convention : Reuss Voigt Hill
#
# Bulk Modulus (GPa) = 57.19999 68.97542 63.08770
# Shear Modulus (GPa) = 27.27835 29.34306 28.31070
#
# Velocity S-wave (km/s) = 3.67126 3.80767 3.74009
# Velocity P-wave (km/s) = 6.79950 7.30833 7.05850
#
# Compressibility (1/GPa) = 0.01748252
#
# Stress axis : x y z
#
# Youngs Moduli (GPa) = 74.87583 52.18811 71.25383
#
# Poissons Ratio (x) = 0.16401 0.53026
# Poissons Ratio (y) = 0.23530 0.28145
# Poissons Ratio (z) = 0.55721 0.20614
#
# Static dielectric constant tensor:
#      x y z
#    x 3.674440 0.000000 0.000000 
#    y 0.000000 3.822730 0.000000 
#    z 0.000000 0.000000 3.468220 
# 
# 
# High freq. dielectric constant tensor:
#      x y z
#    x 1.794320 0.000000 0.000000 
#    y 0.000000 1.790090 0.000000 
#    z 0.000000 0.000000 1.778890 
# 
# From -- ./inp_files/57070.got.cif
#   From: 2010.03.12/outbox.cif.g09.slc.cpg/sg74_29_cif.got.tgz:57070.got - 2010.04.16 15:46:19.
