data_PCOD8297727
_publ_section_title
;
Structure prediction by ZEFSAII (Michael W. Deem and Ramdas Pophale) SiO2 
 PCOD8297727
Probable space group: I M M A
;
_chemical_formula_sum "Si O2"
_cell_formula_units_Z 72
_cell_length_a 8.964237
_cell_length_b 15.471893
_cell_length_c 28.451343
_cell_angle_alpha 90.000000
_cell_angle_beta 90.000000
_cell_angle_gamma 90.000000
_cell_volume 3946.022477
_symmetry_space_group_name_H-M "I M M A"
_symmetry_group_IT_number 74
_symmetry_cell_setting 'orthorhombic'
loop_
_space_group_symop_operation_xyz
x,y,z
-x,1/2-y,z
x,-y,-z
-x,1/2+y,-z
-x,-y,-z
x,1/2+y,-z
-x,y,z
x,1/2-y,z
1/2+x,1/2+y,1/2+z
1/2-x,-y,1/2+z
1/2+x,1/2-y,1/2-z
1/2-x,y,1/2-z
1/2-x,1/2-y,1/2-z
1/2+x,y,1/2-z
1/2-x,1/2+y,1/2+z
1/2+x,-y,1/2+z
loop_
_atom_site_type_symbol
_atom_site_label
_atom_site_fract_x
_atom_site_fract_y
_atom_site_fract_z
Si Si1 0.321663 0.750000 0.198629
Si Si2 0.172057 0.581231 0.201271
Si Si3 0.669804 0.500252 0.606445
Si Si4 0.175402 0.153434 0.444468
Si Si5 0.825717 0.849002 0.448155
O O1 0.500000 0.750000 0.197276
O O2 0.250000 0.750000 0.250000
O O3 0.257202 0.662219 0.176141
O O4 0.250000 0.552535 0.250000
O O5 0.183195 0.504628 0.163203
O O6 0.000000 0.605628 0.211993
O O7 0.500000 0.506440 0.590217
O O8 0.750951 0.586733 0.590856
O O9 0.735439 0.414014 0.583886
O O10 0.227504 0.250000 0.430638
O O11 0.221670 0.133782 0.498026
O O12 0.000000 0.144696 0.439220
O O13 0.789264 0.750000 0.433663
O O14 0.000000 0.867270 0.441343
#
# Coordination Sequence:
#
# PCOD8297727 Si02
#       5
#     8  16  16  16  16
#     4  10  18  30  50  72  96 132 172 208 252 304
#     4  10  21  36  51  72 104 138 174 216 259 308
#     4  11  23  34  51  80 110 138 172 218 267 313
#     4   9  19  37  58  78 103 137 178 220 258 306
#     4   9  19  35  54  78 108 142 179 214 250 304
#
# _framework density 18.246220999999998
#
# number of rings (size 3 to 8) (size 9 to 14) (size 15 to 20)
#    0.000    2.222    0.000    5.667    1.556    8.000 
#    0.000    2.222    0.000    0.667    0.000    0.000 
#    0.000    0.000    0.000    0.000    0.000    0.000 
#
# Total GULP energy -446272.227095 kJ/mol
# GULP energy per Si atom -12396.450753 kJ/mol
# Density = 1.820469 g / cm^3
# Si number density = 18.246221 Si / 1000 Ang^3
#
#
#
# Elastic Constant Matrix: (Units=GPa)
#
#
# Indices 1 2 3 4 5 6 
#
# 1 77.3106 27.8893 35.6730 0.0000 0.0000 0.0000
# 2 27.8893 88.1709 50.2538 0.0000 0.0000 0.0000
# 3 35.6730 50.2538 77.1335 0.0000 0.0000 0.0000
# 4 0.0000 0.0000 0.0000 28.7537 0.0000 0.0000
# 5 0.0000 0.0000 0.0000 0.0000 27.9650 0.0000
# 6 0.0000 0.0000 0.0000 0.0000 0.0000 12.7015
#
#
#
# Elastic Compliance Matrix: (Units=1/GPa)
#
#
# Indices 1 2 3 4 5 6 
#
# 1 0.016550 -0.001388 -0.006750 0.000000 0.000000 0.000000
# 2 -0.001388 0.018157 -0.011188 0.000000 0.000000 0.000000
# 3 -0.006750 -0.011188 0.023375 0.000000 0.000000 0.000000
# 4 0.000000 0.000000 0.000000 0.034778 0.000000 0.000000
# 5 0.000000 0.000000 0.000000 0.000000 0.035759 0.000000
# 6 0.000000 0.000000 0.000000 0.000000 0.000000 0.078731
#
#
# Mechanical properties :
#
#
# Convention : Reuss Voigt Hill
#
# Bulk Modulus (GPa) = 51.46314 52.24969 51.85642
# Shear Modulus (GPa) = 19.80359 22.47063 21.13711
#
# Velocity S-wave (km/s) = 3.29804 3.51311 3.40728
# Velocity P-wave (km/s) = 6.53979 6.71967 6.63034
#
# Compressibility (1/GPa) = 0.01943138
#
# Stress axis : x y z
#
# Youngs Moduli (GPa) = 60.42275 55.07446 42.77991
#
# Poissons Ratio (x) = 0.07643 0.28877
# Poissons Ratio (y) = 0.08385 0.47862
# Poissons Ratio (z) = 0.40785 0.61617
#
# Static dielectric constant tensor:
#      x y z
#    x 3.391930 0.000000 0.000000 
#    y 0.000000 9.371680 0.000000 
#    z 0.000000 0.000000 3.346740 
# 
# 
# High freq. dielectric constant tensor:
#      x y z
#    x 1.713510 0.000000 0.000000 
#    y 0.000000 1.694170 0.000000 
#    z 0.000000 0.000000 1.701560 
# 
# From -- ./inp_files/63629.got.cif
#   From: 2010.03.12/outbox.cif.g09.slc.cpg/sg74_32_cif.got.tgz:63629.got - 2010.04.16 15:46:19.
