data_PCOD8297952
_publ_section_title
;
Structure prediction by ZEFSAII (Michael W. Deem and Ramdas Pophale) SiO2 
 PCOD8297952
Probable space group: I M M A
;
_chemical_formula_sum "Si O2"
_cell_formula_units_Z 104
_cell_length_a 8.624454
_cell_length_b 31.439970
_cell_length_c 19.306888
_cell_angle_alpha 90.000000
_cell_angle_beta 90.000000
_cell_angle_gamma 90.000000
_cell_volume 5235.112397
_symmetry_space_group_name_H-M "I M M A"
_symmetry_group_IT_number 74
_symmetry_cell_setting 'orthorhombic'
loop_
_space_group_symop_operation_xyz
x,y,z
-x,1/2-y,z
x,-y,-z
-x,1/2+y,-z
-x,-y,-z
x,1/2+y,-z
-x,y,z
x,1/2-y,z
1/2+x,1/2+y,1/2+z
1/2-x,-y,1/2+z
1/2+x,1/2-y,1/2-z
1/2-x,y,1/2-z
1/2-x,1/2-y,1/2-z
1/2+x,y,1/2-z
1/2-x,1/2+y,1/2+z
1/2+x,-y,1/2+z
loop_
_atom_site_type_symbol
_atom_site_label
_atom_site_fract_x
_atom_site_fract_y
_atom_site_fract_z
Si Si1 0.315621 0.250000 0.326773
Si Si2 0.182255 0.836146 0.179280
Si Si3 0.317586 0.957377 0.460587
Si Si4 0.816915 0.663031 0.673923
Si Si5 0.682724 0.571262 0.177597
Si Si6 0.315538 0.376111 0.452003
Si Si7 0.816978 0.703458 0.037750
O O1 0.500000 0.250000 0.329300
O O2 0.250000 0.250000 0.250000
O O3 0.252150 0.206553 0.360836
O O4 0.250000 0.816552 0.250000
O O5 0.256566 0.881552 0.162853
O O6 0.225178 0.803858 0.118120
O O7 0.000000 0.843294 0.186366
O O8 0.500000 0.954483 0.447685
O O9 0.235128 0.958293 0.386060
O O10 0.260050 0.917809 0.507087
O O11 0.269115 0.000000 0.500000
O O12 0.750000 0.654486 0.750000
O O13 0.763328 0.624566 0.623992
O O14 0.000000 0.666427 0.679503
O O15 0.500000 0.571628 0.183479
O O16 0.750000 0.553238 0.250000
O O17 0.500000 0.375647 0.443953
O O18 0.248377 0.334890 0.492439
O O19 0.751105 0.750000 0.015363
O O20 0.000000 0.703214 0.027877
#
# Coordination Sequence:
#
# PCOD8297952 Si02
#       7
#     8  16  16  16  16  16  16
#     4  10  18  32  54  80 110 148 191 236 283 336
#     4  10  18  32  53  79 112 152 197 239 284 332
#     4  10  21  40  65  91 118 150 190 236 292 352
#     4  11  22  37  56  82 114 150 193 239 287 343
#     4  11  21  35  59  87 118 153 195 239 287 340
#     4  10  20  37  59  83 113 150 189 233 288 347
#     4   9  18  32  52  79 112 152 193 230 278 340
#
# _framework density 19.865856999999998
#
# number of rings (size 3 to 8) (size 9 to 14) (size 15 to 20)
#    0.000    1.846    1.538    5.769    1.077    1.231 
#    0.000    0.769    0.000    3.231    0.000    0.000 
#    0.000    0.000    0.000    0.000    0.000    0.000 
#
# Total GULP energy -644735.670898 kJ/mol
# GULP energy per Si atom -12398.762902 kJ/mol
# Density = 1.982064 g / cm^3
# Si number density = 19.865857 Si / 1000 Ang^3
#
#
#
# Elastic Constant Matrix: (Units=GPa)
#
#
# Indices 1 2 3 4 5 6 
#
# 1 107.7678 33.3105 46.7204 -0.0001 0.0000 0.0000
# 2 33.3105 113.1243 70.3045 -0.0002 0.0000 0.0000
# 3 46.7204 70.3045 125.2719 -0.0006 -0.0001 0.0000
# 4 -0.0001 -0.0002 -0.0006 28.0633 0.0000 0.0000
# 5 0.0000 0.0000 -0.0001 0.0000 32.6192 0.0000
# 6 0.0000 0.0000 0.0000 0.0000 0.0000 15.4304
#
#
#
# Elastic Compliance Matrix: (Units=1/GPa)
#
#
# Indices 1 2 3 4 5 6 
#
# 1 0.011153 -0.001073 -0.003557 0.000000 0.000000 0.000000
# 2 -0.001073 0.013678 -0.007276 0.000000 0.000000 0.000000
# 3 -0.003557 -0.007276 0.013393 0.000000 0.000000 0.000000
# 4 0.000000 0.000000 0.000000 0.035634 0.000000 0.000000
# 5 0.000000 0.000000 0.000000 0.000000 0.030657 0.000000
# 6 0.000000 0.000000 0.000000 0.000000 0.000000 0.064807
#
#
# Mechanical properties :
#
#
# Convention : Reuss Voigt Hill
#
# Bulk Modulus (GPa) = 69.39328 71.87056 70.63192
# Shear Modulus (GPa) = 25.26054 28.27783 26.76919
#
# Velocity S-wave (km/s) = 3.56976 3.77694 3.67481
# Velocity P-wave (km/s) = 7.21094 7.43484 7.32375
#
# Compressibility (1/GPa) = 0.01441062
#
# Stress axis : x y z
#
# Youngs Moduli (GPa) = 89.66090 73.11189 74.66835
#
# Poissons Ratio (x) = 0.07848 0.26561
# Poissons Ratio (y) = 0.09625 0.54327
# Poissons Ratio (z) = 0.31894 0.53195
#
# Static dielectric constant tensor:
#      x y z
#    x 3.409340 0.000000 0.000000 
#    y 0.000000 3.678190 0.000000 
#    z 0.000000 0.000000 3.829800 
# 
# 
# High freq. dielectric constant tensor:
#      x y z
#    x 1.760430 0.000000 0.000000 
#    y 0.000000 1.751320 0.000000 
#    z 0.000000 0.000000 1.790260 
# 
# From -- ./inp_files/49587.got.cif
#   From: 2010.03.12/outbox.cif.g09.slc.cpg/sg74_25_cif.got.tgz:49587.got - 2010.04.16 15:46:19.
