data_PCOD8297013
_publ_section_title
;
Structure prediction by ZEFSAII (Michael W. Deem and Ramdas Pophale) SiO2 
 PCOD8297013
Probable space group: I B C A 
;
_chemical_formula_sum "Si O2"
_cell_formula_units_Z 112
_cell_length_a 13.368766
_cell_length_b 17.136974
_cell_length_c 21.860298
_cell_angle_alpha 90.000000
_cell_angle_beta 90.000000
_cell_angle_gamma 90.000000
_cell_volume 5008.198542
_symmetry_space_group_name_H-M "I B C A "
_symmetry_group_IT_number 73
_symmetry_cell_setting 'orthorhombic'
loop_
_space_group_symop_operation_xyz
x,y,z
-x,1/2-y,z
x,-y,1/2-z
1/2-x,y,-z
-x,-y,-z
x,1/2+y,-z
-x,y,1/2+z
1/2+x,-y,z
1/2+x,1/2+y,1/2+z
1/2-x,-y,1/2+z
1/2+x,1/2-y,-z
-x,1/2+y,1/2-z
1/2-x,1/2-y,1/2-z
1/2+x,y,1/2-z
1/2-x,1/2+y,z
x,1/2-y,1/2+z
loop_
_atom_site_type_symbol
_atom_site_label
_atom_site_fract_x
_atom_site_fract_y
_atom_site_fract_z
Si Si1 0.193234 0.030316 0.310071
Si Si2 0.300562 0.812737 0.411248
Si Si3 0.252664 0.199320 0.689060
Si Si4 0.959787 0.664646 0.779198
Si Si5 0.416895 0.315235 0.468408
Si Si6 0.882484 0.442627 0.831297
Si Si7 0.457505 0.557126 0.121771
O O1 0.180111 0.122679 0.305498
O O2 0.133824 0.000000 0.250000
O O3 0.309621 0.007070 0.302342
O O4 0.145274 0.991808 0.370494
O O5 0.311611 0.741297 0.365127
O O6 0.391735 0.812670 0.459689
O O7 0.189359 0.801747 0.436604
O O8 0.310339 0.892021 0.373997
O O9 0.250000 0.250000 0.750000
O O10 0.137557 0.176465 0.677359
O O11 0.937274 0.610909 0.719636
O O12 0.000000 0.750000 0.757967
O O13 0.037833 0.621974 0.824144
O O14 0.500000 0.250000 0.452526
O O15 0.458685 0.399004 0.444128
O O16 0.957964 0.491180 0.873671
#
# Coordination Sequence:
#
# PCOD8297013 Si02
#       7
#    16  16  16  16  16  16  16
#     4  12  23  41  67 104 152 189 227 301 381 448
#     4  11  25  48  75 104 141 194 245 308 369 434
#     4  12  24  42  70 105 146 187 231 297 377 445
#     4  12  25  39  67 106 148 189 240 298 374 455
#     4  11  26  49  76  99 141 198 256 304 354 438
#     4  12  24  44  68 106 153 184 241 308 375 447
#     4  12  25  42  70 103 138 200 247 298 367 442
#
# _framework density 22.363330999999999
#
# number of rings (size 3 to 8) (size 9 to 14) (size 15 to 20)
#    0.000    0.286    5.714    3.429    4.000    2.286 
#    0.000    0.000    0.000    0.000    0.000    0.000 
#    0.000    0.000    0.000    0.000    0.000    0.000 
#
# Total GULP energy -693961.725559 kJ/mol
# GULP energy per Si atom -12392.173671 kJ/mol
# Density = 2.231243 g / cm^3
# Si number density = 22.363331 Si / 1000 Ang^3
#
#
#
# Elastic Constant Matrix: (Units=GPa)
#
#
# Indices 1 2 3 4 5 6 
#
# 1 83.3828 43.2895 30.0932 0.0000 0.0000 0.0000
# 2 43.2895 172.7231 65.8568 0.0000 0.0000 0.0000
# 3 30.0932 65.8568 119.8151 0.0000 0.0000 0.0000
# 4 0.0000 0.0000 0.0000 27.7941 0.0000 0.0000
# 5 0.0000 0.0000 0.0000 0.0000 32.1631 0.0000
# 6 0.0000 0.0000 0.0000 0.0000 0.0000 47.0750
#
#
#
# Elastic Compliance Matrix: (Units=1/GPa)
#
#
# Indices 1 2 3 4 5 6 
#
# 1 0.014168 -0.002776 -0.002033 0.000000 0.000000 0.000000
# 2 -0.002776 0.007869 -0.003628 0.000000 0.000000 0.000000
# 3 -0.002033 -0.003628 0.010851 0.000000 0.000000 0.000000
# 4 0.000000 0.000000 0.000000 0.035979 0.000000 0.000000
# 5 0.000000 0.000000 0.000000 0.000000 0.031092 0.000000
# 6 0.000000 0.000000 0.000000 0.000000 0.000000 0.021243
#
#
# Mechanical properties :
#
#
# Convention : Reuss Voigt Hill
#
# Bulk Modulus (GPa) = 62.44389 72.71113 67.57751
# Shear Modulus (GPa) = 34.86492 37.18519 36.02506
#
# Velocity S-wave (km/s) = 3.95273 4.08214 4.01795
# Velocity P-wave (km/s) = 6.98678 7.40288 7.19784
#
# Compressibility (1/GPa) = 0.01601438
#
# Stress axis : x y z
#
# Youngs Moduli (GPa) = 70.58372 127.08853 92.15955
#
# Poissons Ratio (x) = 0.35277 0.18733
# Poissons Ratio (y) = 0.19593 0.33434
# Poissons Ratio (z) = 0.14347 0.46105
#
# Static dielectric constant tensor:
#      x y z
#    x 4.022260 0.000000 0.000000 
#    y 0.000000 4.252970 0.000000 
#    z 0.000000 0.000000 3.994920 
# 
# 
# High freq. dielectric constant tensor:
#      x y z
#    x 1.888980 0.000000 0.000000 
#    y 0.000000 1.898250 0.000000 
#    z 0.000000 0.000000 1.855200 
# 
# From -- ./inp_files/29518.got.cif
#   From: 2010.03.12/outbox.cif.g09.slc.cpg/sg73_15_cif.got.tgz:29518.got - 2010.04.16 15:25:48.
