data_PCOD8297246
_publ_section_title
;
Structure prediction by ZEFSAII (Michael W. Deem and Ramdas Pophale) SiO2 
 PCOD8297246
Probable space group: I M M A
;
_chemical_formula_sum "Si O2"
_cell_formula_units_Z 112
_cell_length_a 15.544415
_cell_length_b 25.448713
_cell_length_c 17.172312
_cell_angle_alpha 90.000000
_cell_angle_beta 90.000000
_cell_angle_gamma 90.000000
_cell_volume 6793.115157
_symmetry_space_group_name_H-M "I M M A"
_symmetry_group_IT_number 74
_symmetry_cell_setting 'orthorhombic'
loop_
_space_group_symop_operation_xyz
x,y,z
-x,1/2-y,z
x,-y,-z
-x,1/2+y,-z
-x,-y,-z
x,1/2+y,-z
-x,y,z
x,1/2-y,z
1/2+x,1/2+y,1/2+z
1/2-x,-y,1/2+z
1/2+x,1/2-y,1/2-z
1/2-x,y,1/2-z
1/2-x,1/2-y,1/2-z
1/2+x,y,1/2-z
1/2-x,1/2+y,1/2+z
1/2+x,-y,1/2+z
loop_
_atom_site_type_symbol
_atom_site_label
_atom_site_fract_x
_atom_site_fract_y
_atom_site_fract_z
Si Si1 0.903380 0.651102 0.686031
Si Si2 0.094664 0.858378 0.866354
Si Si3 0.904374 0.458456 0.399606
Si Si4 0.261631 0.966192 0.161258
Si Si5 0.795914 0.908116 0.482472
Si Si6 0.266606 0.690555 0.927598
Si Si7 0.358662 0.964837 0.568109
O O1 0.880725 0.644917 0.776230
O O2 0.897894 0.594323 0.649316
O O3 0.830048 0.687428 0.646983
O O4 0.000000 0.674886 0.674388
O O5 0.168342 0.826245 0.910630
O O6 0.084035 0.919421 0.893311
O O7 0.000000 0.832999 0.881470
O O8 0.844594 0.498284 0.352978
O O9 0.877858 0.443038 0.488880
O O10 0.000000 0.481806 0.401438
O O11 0.250000 0.948652 0.250000
O O12 0.277715 0.913760 0.109413
O O13 0.174887 0.996131 0.135457
O O14 0.803948 0.846598 0.503670
O O15 0.720994 0.934920 0.531175
O O16 0.265663 0.750000 0.958415
O O17 0.405197 0.000000 0.500000
#
# Coordination Sequence:
#
# PCOD8297246 Si02
#       7
#    16  16  16  16  16  16  16
#     4   9  18  30  44  67  96 118 140 175 217 264
#     4  10  19  29  43  66  93 117 146 184 217 249
#     4   9  16  27  45  69  96 124 148 170 209 268
#     4  10  17  26  44  66  90 119 147 177 215 261
#     4   8  17  30  43  63  87 113 147 185 220 256
#     4  10  20  34  49  60  79 116 154 187 228 273
#     4   8  15  28  43  61  88 122 152 170 198 251
#
# _framework density 16.487280999999999
#
# number of rings (size 3 to 8) (size 9 to 14) (size 15 to 20)
#    0.000    2.857    0.000    3.429    0.000    3.143 
#    0.000    1.429    0.000    3.857    0.000    0.000 
#    0.000    0.000    0.000   15.000    0.000    0.000 
#
# Total GULP energy -693821.393775 kJ/mol
# GULP energy per Si atom -12389.667746 kJ/mol
# Density = 1.644976 g / cm^3
# Si number density = 16.487281 Si / 1000 Ang^3
#
#
#
# Elastic Constant Matrix: (Units=GPa)
#
#
# Indices 1 2 3 4 5 6 
#
# 1 77.3457 20.9751 22.8982 0.0000 0.0000 0.0000
# 2 20.9751 82.6599 40.1605 0.0000 0.0000 0.0000
# 3 22.8982 40.1605 104.1699 0.0000 0.0000 0.0000
# 4 0.0000 0.0000 0.0000 11.5131 0.0000 0.0000
# 5 0.0000 0.0000 0.0000 0.0000 13.4943 0.0000
# 6 0.0000 0.0000 0.0000 0.0000 0.0000 -1.6483
#
#
#
# Elastic Compliance Matrix: (Units=1/GPa)
#
#
# Indices 1 2 3 4 5 6 
#
# 1 0.014262 -0.002579 -0.002141 0.000000 0.000000 0.000000
# 2 -0.002579 0.015352 -0.005352 0.000000 0.000000 0.000000
# 3 -0.002141 -0.005352 0.012134 0.000000 0.000000 0.000000
# 4 0.000000 0.000000 0.000000 0.086858 0.000000 0.000001
# 5 0.000000 0.000000 0.000000 0.000000 0.074106 0.000000
# 6 0.000000 0.000000 0.000000 0.000001 0.000000 -0.606673
#
#
# Mechanical properties :
#
#
# Convention : Reuss Voigt Hill
#
# Bulk Modulus (GPa) = 46.28586 48.02701 47.15644
# Shear Modulus (GPa) = -13.27607 16.68126 1.70259
#
# Velocity S-wave (km/s) = -2.84074 3.18428 1.01731
# Velocity P-wave (km/s) = 4.16832 6.53548 5.48121
#
# Compressibility (1/GPa) = 0.02160487
#
# Stress axis : x y z
#
# Youngs Moduli (GPa) = 70.11583 65.13636 82.41585
#
# Poissons Ratio (x) = 0.16798 0.17643
# Poissons Ratio (y) = 0.18082 0.44108
# Poissons Ratio (z) = 0.15010 0.34860
#
# Static dielectric constant tensor:
#      x y z
#    x 3.255840 0.000000 0.000000 
#    y 0.000000 3.063480 0.000000 
#    z 0.000000 0.000000 3.098300 
# 
# 
# High freq. dielectric constant tensor:
#      x y z
#    x 1.638070 0.000000 0.000000 
#    y 0.000000 1.608790 0.000000 
#    z 0.000000 0.000000 1.612730 
# 
# From -- ./inp_files/32967.got.cif
#   From: 2010.03.12/outbox.cif.g09.slc.cpg/sg74_17_cif.got.tgz:32967.got - 2010.04.16 15:46:19.
