data_PCOD8297811
_publ_section_title
;
Structure prediction by ZEFSAII (Michael W. Deem and Ramdas Pophale) SiO2 
 PCOD8297811
Probable space group: I M M A
;
_chemical_formula_sum "Si O2"
_cell_formula_units_Z 96
_cell_length_a 21.178424
_cell_length_b 14.033392
_cell_length_c 18.645890
_cell_angle_alpha 90.000000
_cell_angle_beta 90.000000
_cell_angle_gamma 90.000000
_cell_volume 5541.654086
_symmetry_space_group_name_H-M "I M M A"
_symmetry_group_IT_number 74
_symmetry_cell_setting 'orthorhombic'
loop_
_space_group_symop_operation_xyz
x,y,z
-x,1/2-y,z
x,-y,-z
-x,1/2+y,-z
-x,-y,-z
x,1/2+y,-z
-x,y,z
x,1/2-y,z
1/2+x,1/2+y,1/2+z
1/2-x,-y,1/2+z
1/2+x,1/2-y,1/2-z
1/2-x,y,1/2-z
1/2-x,1/2-y,1/2-z
1/2+x,y,1/2-z
1/2-x,1/2+y,1/2+z
1/2+x,-y,1/2+z
loop_
_atom_site_type_symbol
_atom_site_label
_atom_site_fract_x
_atom_site_fract_y
_atom_site_fract_z
Si Si1 0.815792 0.476950 0.779588
Si Si2 0.640264 0.140884 0.924356
Si Si3 0.172920 0.639726 0.668944
Si Si4 0.748998 0.002618 0.417461
Si Si5 0.069192 0.360971 0.438631
Si Si6 0.428899 0.640719 0.219444
O O1 0.750000 0.430125 0.750000
O O2 0.821156 0.581043 0.742435
O O3 0.811349 0.486069 0.865953
O O4 0.877721 0.415517 0.765932
O O5 0.662366 0.250000 0.933910
O O6 0.586411 0.130457 0.864489
O O7 0.700363 0.079820 0.901054
O O8 0.611217 0.095617 0.996937
O O9 0.186973 0.750000 0.685168
O O10 0.220863 0.603632 0.606710
O O11 0.102471 0.623271 0.637957
O O12 0.726909 0.000000 0.500000
O O13 0.062363 0.250000 0.456329
O O14 0.000000 0.408987 0.435481
O O15 0.500000 0.601727 0.232760
O O16 0.424542 0.750000 0.243645
#
# Coordination Sequence:
#
# PCOD8297811 Si02
#       6
#    16  16  16  16  16  16
#     4  10  21  36  52  77 104 138 179 221 268 314
#     4  10  18  31  49  75 110 142 170 206 255 316
#     4  10  20  35  51  72 104 142 182 221 259 305
#     4  11  21  35  52  76 102 135 180 222 269 315
#     4   9  17  29  47  73 106 142 174 203 245 308
#     4  10  20  34  54  80 109 141 175 213 262 320
#
# _framework density 17.323347999999999
#
# number of rings (size 3 to 8) (size 9 to 14) (size 15 to 20)
#    0.000    2.000    5.000    0.500    0.000    6.667 
#    0.000    0.833    0.000    0.500    0.000    0.000 
#    0.000    2.667    0.000    0.000    0.000    0.000 
#
# Total GULP energy -594982.277237 kJ/mol
# GULP energy per Si atom -12395.464109 kJ/mol
# Density = 1.728392 g / cm^3
# Si number density = 17.323348 Si / 1000 Ang^3
#
#
#
# Elastic Constant Matrix: (Units=GPa)
#
#
# Indices 1 2 3 4 5 6 
#
# 1 106.2589 46.6420 56.7174 0.0000 0.0000 0.0000
# 2 46.6420 73.5468 38.5077 0.0000 0.0000 0.0000
# 3 56.7174 38.5077 119.5742 0.0000 0.0000 0.0000
# 4 0.0000 0.0000 0.0000 21.2669 0.0000 0.0000
# 5 0.0000 0.0000 0.0000 0.0000 22.4004 0.0000
# 6 0.0000 0.0000 0.0000 0.0000 0.0000 21.7519
#
#
#
# Elastic Compliance Matrix: (Units=1/GPa)
#
#
# Indices 1 2 3 4 5 6 
#
# 1 0.015109 -0.007012 -0.004908 0.000000 0.000000 0.000000
# 2 -0.007012 0.019608 -0.002989 0.000000 0.000000 0.000000
# 3 -0.004908 -0.002989 0.011654 0.000000 0.000000 0.000000
# 4 0.000000 0.000000 0.000000 0.047021 0.000000 0.000000
# 5 0.000000 0.000000 0.000000 0.000000 0.044642 0.000000
# 6 0.000000 0.000000 0.000000 0.000000 0.000000 0.045973
#
#
# Mechanical properties :
#
#
# Convention : Reuss Voigt Hill
#
# Bulk Modulus (GPa) = 60.41244 64.79044 62.60144
# Shear Modulus (GPa) = 22.79537 23.58469 23.19003
#
# Velocity S-wave (km/s) = 3.63143 3.69377 3.66274
# Velocity P-wave (km/s) = 7.24791 7.46149 7.35547
#
# Compressibility (1/GPa) = 0.01655288
#
# Stress axis : x y z
#
# Youngs Moduli (GPa) = 66.18713 50.99863 85.80937
#
# Poissons Ratio (x) = 0.35759 0.42119
# Poissons Ratio (y) = 0.46408 0.25647
# Poissons Ratio (z) = 0.32487 0.15243
#
# Static dielectric constant tensor:
#      x y z
#    x 3.208920 0.000000 0.000000 
#    y 0.000000 3.225490 0.000000 
#    z 0.000000 0.000000 3.209020 
# 
# 
# High freq. dielectric constant tensor:
#      x y z
#    x 1.647680 0.000000 0.000000 
#    y 0.000000 1.670760 0.000000 
#    z 0.000000 0.000000 1.652390 
# 
# From -- ./inp_files/52256.got.cif
#   From: 2010.03.12/outbox.cif.g09.slc.cpg/sg74_27_cif.got.tgz:52256.got - 2010.04.16 15:46:19.
