data_PCOD8297314
_publ_section_title
;
Structure prediction by ZEFSAII (Michael W. Deem and Ramdas Pophale) SiO2 
 PCOD8297314
Probable space group: I M M A
;
_chemical_formula_sum "Si O2"
_cell_formula_units_Z 72
_cell_length_a 17.692018
_cell_length_b 15.604945
_cell_length_c 13.484990
_cell_angle_alpha 90.000000
_cell_angle_beta 90.000000
_cell_angle_gamma 90.000000
_cell_volume 3722.976060
_symmetry_space_group_name_H-M "I M M A"
_symmetry_group_IT_number 74
_symmetry_cell_setting 'orthorhombic'
loop_
_space_group_symop_operation_xyz
x,y,z
-x,1/2-y,z
x,-y,-z
-x,1/2+y,-z
-x,-y,-z
x,1/2+y,-z
-x,y,z
x,1/2-y,z
1/2+x,1/2+y,1/2+z
1/2-x,-y,1/2+z
1/2+x,1/2-y,1/2-z
1/2-x,y,1/2-z
1/2-x,1/2-y,1/2-z
1/2+x,y,1/2-z
1/2-x,1/2+y,1/2+z
1/2+x,-y,1/2+z
loop_
_atom_site_type_symbol
_atom_site_label
_atom_site_fract_x
_atom_site_fract_y
_atom_site_fract_z
Si Si1 0.290809 0.579918 0.657247
Si Si2 0.664652 0.104213 0.665880
Si Si3 0.415756 0.151730 0.475486
Si Si4 0.666600 0.154930 0.876180
Si Si5 0.818841 0.000000 0.500000
O O1 0.250000 0.628211 0.750000
O O2 0.324100 0.492614 0.702547
O O3 0.358882 0.636855 0.615395
O O4 0.232499 0.558057 0.570726
O O5 0.605884 0.101131 0.575452
O O6 0.633949 0.152715 0.763693
O O7 0.742607 0.145646 0.627274
O O8 0.500000 0.123379 0.442911
O O9 0.413140 0.250000 0.505732
O O10 0.646683 0.250000 0.920413
O O11 0.633215 0.074052 0.940917
#
# Coordination Sequence:
#
# PCOD8297314 Si02
#       5
#    16  16  16  16   8
#     4  11  19  33  52  77 111 144 182 235 280 337
#     4  10  17  31  51  76 102 136 184 229 281 333
#     4  11  23  36  52  79 116 154 189 227 282 345
#     4  10  17  28  50  76 105 140 175 229 283 326
#     4  10  18  30  49  78 109 136 178 228 278 340
#
# _framework density 19.339366999999999
#
# number of rings (size 3 to 8) (size 9 to 14) (size 15 to 20)
#    0.000    1.556    8.889    2.667    0.000    2.222 
#    0.000    0.000    0.000    0.000    0.000    3.111 
#    0.000    3.556    0.000    0.000    0.000    0.000 
#
# Total GULP energy -446039.258283 kJ/mol
# GULP energy per Si atom -12389.979397 kJ/mol
# Density = 1.929535 g / cm^3
# Si number density = 19.339367 Si / 1000 Ang^3
#
#
#
# Elastic Constant Matrix: (Units=GPa)
#
#
# Indices 1 2 3 4 5 6 
#
# 1 63.4273 7.9441 47.3868 0.0000 0.0000 0.0000
# 2 7.9441 83.5771 26.5375 0.0000 0.0000 0.0000
# 3 47.3868 26.5375 123.1640 0.0000 0.0000 0.0000
# 4 0.0000 0.0000 0.0000 28.5527 0.0000 0.0000
# 5 0.0000 0.0000 0.0000 0.0000 20.4106 0.0000
# 6 0.0000 0.0000 0.0000 0.0000 0.0000 10.1074
#
#
#
# Elastic Compliance Matrix: (Units=1/GPa)
#
#
# Indices 1 2 3 4 5 6 
#
# 1 0.022158 0.000645 -0.008664 0.000000 0.000000 0.000000
# 2 0.000645 0.012862 -0.003020 0.000000 0.000000 0.000000
# 3 -0.008664 -0.003020 0.012103 0.000000 0.000000 0.000000
# 4 0.000000 0.000000 0.000000 0.035023 0.000000 0.000000
# 5 0.000000 0.000000 0.000000 0.000000 0.048994 0.000000
# 6 0.000000 0.000000 0.000000 0.000000 0.000000 0.098937
#
#
# Mechanical properties :
#
#
# Convention : Reuss Voigt Hill
#
# Bulk Modulus (GPa) = 39.92580 48.21170 44.06875
# Shear Modulus (GPa) = 19.19347 24.36748 21.78048
#
# Velocity S-wave (km/s) = 3.15374 3.55349 3.35957
# Velocity P-wave (km/s) = 5.82676 6.46682 6.15512
#
# Compressibility (1/GPa) = 0.02504646
#
# Stress axis : x y z
#
# Youngs Moduli (GPa) = 45.12947 77.74560 82.62123
#
# Poissons Ratio (x) = -0.05014 0.71586
# Poissons Ratio (y) = -0.02911 0.24948
# Poissons Ratio (z) = 0.39102 0.23476
#
# Static dielectric constant tensor:
#      x y z
#    x 3.105270 0.000000 0.000000 
#    y 0.000000 3.647260 0.000000 
#    z 0.000000 0.000000 3.749450 
# 
# 
# High freq. dielectric constant tensor:
#      x y z
#    x 1.681530 0.000000 0.000000 
#    y 0.000000 1.755810 0.000000 
#    z 0.000000 0.000000 1.755420 
# 
# From -- ./inp_files/33836.got.cif
#   From: 2010.03.12/outbox.cif.g09.slc.cpg/sg74_17_cif.got.tgz:33836.got - 2010.04.16 15:46:19.
