data_PCOD8297115
_publ_section_title
;
Structure prediction by ZEFSAII (Michael W. Deem and Ramdas Pophale) SiO2 
 PCOD8297115
Probable space group: I M M A
;
_chemical_formula_sum "Si O2"
_cell_formula_units_Z 96
_cell_length_a 28.565849
_cell_length_b 17.327862
_cell_length_c 12.805167
_cell_angle_alpha 90.000000
_cell_angle_beta 90.000000
_cell_angle_gamma 90.000000
_cell_volume 6338.366732
_symmetry_space_group_name_H-M "I M M A"
_symmetry_group_IT_number 74
_symmetry_cell_setting 'orthorhombic'
loop_
_space_group_symop_operation_xyz
x,y,z
-x,1/2-y,z
x,-y,-z
-x,1/2+y,-z
-x,-y,-z
x,1/2+y,-z
-x,y,z
x,1/2-y,z
1/2+x,1/2+y,1/2+z
1/2-x,-y,1/2+z
1/2+x,1/2-y,1/2-z
1/2-x,y,1/2-z
1/2-x,1/2-y,1/2-z
1/2+x,y,1/2-z
1/2-x,1/2+y,1/2+z
1/2+x,-y,1/2+z
loop_
_atom_site_type_symbol
_atom_site_label
_atom_site_fract_x
_atom_site_fract_y
_atom_site_fract_z
Si Si1 0.634343 0.555444 0.595823
Si Si2 0.283525 0.664347 0.150975
Si Si3 0.644091 0.087284 0.723511
Si Si4 0.695741 0.839928 0.468477
Si Si5 0.947376 0.338069 0.066604
Si Si6 0.552359 0.838278 0.320559
O O1 0.620509 0.500000 0.500000
O O2 0.648742 0.503257 0.695124
O O3 0.678538 0.609523 0.566692
O O4 0.589348 0.607051 0.625882
O O5 0.304299 0.750000 0.131223
O O6 0.250000 0.666552 0.250000
O O7 0.326174 0.604590 0.170902
O O8 0.250374 0.639148 0.053818
O O9 0.663501 0.141779 0.631350
O O10 0.589665 0.108971 0.741071
O O11 0.689775 0.750000 0.495021
O O12 0.938512 0.250000 0.101056
O O13 0.000000 0.363313 0.096952
O O14 0.939242 0.346726 0.943649
O O15 0.500000 0.866568 0.291714
O O16 0.558890 0.750000 0.286013
#
# Coordination Sequence:
#
# PCOD8297115 Si02
#       6
#    16  16  16  16  16  16
#     4  10  17  21  30  47  67  83 106 143 176 196
#     4   8  14  23  36  47  59  83 111 139 168 201
#     4  10  16  22  31  48  66  83 108 140 172 199
#     4   9  15  24  35  46  61  83 111 141 169 200
#     4   9  16  24  31  39  57  88 117 138 162 189
#     4   9  15  21  30  42  59  86 113 137 162 188
#
# _framework density 15.145856999999999
#
# number of rings (size 3 to 8) (size 9 to 14) (size 15 to 20)
#    0.000    2.833    3.333    4.000    0.000    1.000 
#    0.000    0.000    0.000    0.000    0.000    0.000 
#    0.000  102.667    0.000    0.000    0.000   42.500 
#
# Total GULP energy -594846.178805 kJ/mol
# GULP energy per Si atom -12392.628725 kJ/mol
# Density = 1.511138 g / cm^3
# Si number density = 15.145857 Si / 1000 Ang^3
#
#
#
# Elastic Constant Matrix: (Units=GPa)
#
#
# Indices 1 2 3 4 5 6 
#
# 1 117.3814 66.9541 30.2682 0.0000 0.0000 0.0000
# 2 66.9541 98.8569 24.8855 0.0000 0.0000 0.0000
# 3 30.2682 24.8855 13.4669 0.0000 0.0000 0.0000
# 4 0.0000 0.0000 0.0000 6.5077 0.0000 0.0000
# 5 0.0000 0.0000 0.0000 0.0000 11.8935 0.0000
# 6 0.0000 0.0000 0.0000 0.0000 0.0000 20.4132
#
#
#
# Elastic Compliance Matrix: (Units=1/GPa)
#
#
# Indices 1 2 3 4 5 6 
#
# 1 0.021253 -0.004430 -0.039581 0.000000 0.000000 0.000000
# 2 -0.004430 0.019837 -0.026700 0.000000 0.000000 0.000000
# 3 -0.039581 -0.026700 0.212558 0.000000 0.000000 0.000000
# 4 0.000000 0.000000 0.000000 0.153664 0.000000 0.000000
# 5 0.000000 0.000000 0.000000 0.000000 0.084080 0.000000
# 6 0.000000 0.000000 0.000000 0.000000 0.000000 0.048988
#
#
# Mechanical properties :
#
#
# Convention : Reuss Voigt Hill
#
# Bulk Modulus (GPa) = 8.91066 52.65786 30.78426
# Shear Modulus (GPa) = 6.95207 14.93603 10.94405
#
# Velocity S-wave (km/s) = 2.14477 3.14370 2.69100
# Velocity P-wave (km/s) = 3.46834 6.92963 5.47947
#
# Compressibility (1/GPa) = 0.11222514
#
# Stress axis : x y z
#
# Youngs Moduli (GPa) = 47.05295 50.40963 4.70461
#
# Poissons Ratio (x) = 0.22333 0.18621
# Poissons Ratio (y) = 0.20846 0.12561
# Poissons Ratio (z) = 1.86239 1.34595
#
# Static dielectric constant tensor:
#      x y z
#    x 3.241300 0.000000 0.000000 
#    y 0.000000 3.000190 0.000000 
#    z 0.000000 0.000000 2.278450 
# 
# 
# High freq. dielectric constant tensor:
#      x y z
#    x 1.588730 0.000000 0.000000 
#    y 0.000000 1.582460 0.000000 
#    z 0.000000 0.000000 1.477560 
# 
# From -- ./inp_files/26266.got.cif
#   From: 2010.03.12/outbox.cif.g09.slc.cpg/sg74_14_cif.got.tgz:26266.got - 2010.04.16 15:46:19.
