data_PCOD8297942
_publ_section_title
;
Structure prediction by ZEFSAII (Michael W. Deem and Ramdas Pophale) SiO2 
 PCOD8297942
Probable space group: I M M A
;
_chemical_formula_sum "Si O2"
_cell_formula_units_Z 96
_cell_length_a 8.834659
_cell_length_b 23.197920
_cell_length_c 27.085992
_cell_angle_alpha 90.000000
_cell_angle_beta 90.000000
_cell_angle_gamma 90.000000
_cell_volume 5551.157935
_symmetry_space_group_name_H-M "I M M A"
_symmetry_group_IT_number 74
_symmetry_cell_setting 'orthorhombic'
loop_
_space_group_symop_operation_xyz
x,y,z
-x,1/2-y,z
x,-y,-z
-x,1/2+y,-z
-x,-y,-z
x,1/2+y,-z
-x,y,z
x,1/2-y,z
1/2+x,1/2+y,1/2+z
1/2-x,-y,1/2+z
1/2+x,1/2-y,1/2-z
1/2-x,y,1/2-z
1/2-x,1/2-y,1/2-z
1/2+x,y,1/2-z
1/2-x,1/2+y,1/2+z
1/2+x,-y,1/2+z
loop_
_atom_site_type_symbol
_atom_site_label
_atom_site_fract_x
_atom_site_fract_y
_atom_site_fract_z
Si Si1 0.173251 0.250000 0.891419
Si Si2 0.673680 0.478920 0.699081
Si Si3 0.677820 0.250000 0.998621
Si Si4 0.175756 0.536707 0.900290
Si Si5 0.825559 0.626335 0.136288
Si Si6 0.823332 0.564912 0.451329
Si Si7 0.173774 0.863149 0.965701
O O1 0.208437 0.194417 0.856984
O O2 0.000000 0.250000 0.908445
O O3 0.263893 0.250000 0.942589
O O4 0.500000 0.490789 0.708032
O O5 0.750000 0.495950 0.750000
O O6 0.732422 0.520933 0.655000
O O7 0.704888 0.411406 0.685527
O O8 0.500000 0.250000 0.995446
O O9 0.728563 0.305572 0.029786
O O10 0.273962 0.500391 0.939726
O O11 0.196268 0.604912 0.912412
O O12 0.000000 0.518212 0.905661
O O13 0.709086 0.605143 0.095374
O O14 0.000000 0.616351 0.119368
O O15 0.722919 0.589110 0.495291
O O16 0.000000 0.567080 0.464948
O O17 0.000000 0.845977 0.974426
#
# Coordination Sequence:
#
# PCOD8297942 Si02
#       7
#     8  16   8  16  16  16  16
#     4  10  18  32  53  69  91 139 185 211 241 289
#     4   9  18  34  53  75  99 125 162 213 264 309
#     4  12  24  34  48  75 108 137 169 213 250 289
#     4   9  20  36  53  72  97 132 173 208 244 304
#     4   9  18  32  50  70  96 133 179 214 245 299
#     4  11  20  29  46  74 106 133 163 209 259 295
#     4  11  21  35  52  70  98 139 177 203 239 297
#
# _framework density 17.293690000000002
#
# number of rings (size 3 to 8) (size 9 to 14) (size 15 to 20)
#    0.000    2.000    1.667    4.250    0.000    6.000 
#    0.000    0.417    0.000    0.000    0.000    0.583 
#    0.000    0.000    0.000    0.000    0.000    0.000 
#
# Total GULP energy -594887.103040 kJ/mol
# GULP energy per Si atom -12393.481313 kJ/mol
# Density = 1.725433 g / cm^3
# Si number density = 17.293690 Si / 1000 Ang^3
#
#
#
# Elastic Constant Matrix: (Units=GPa)
#
#
# Indices 1 2 3 4 5 6 
#
# 1 66.3433 28.6057 19.7693 0.0000 0.0000 0.0000
# 2 28.6057 80.0655 56.2812 0.0000 0.0000 0.0000
# 3 19.7693 56.2812 73.2508 0.0000 0.0000 0.0000
# 4 0.0000 0.0000 0.0000 11.7018 0.0000 0.0000
# 5 0.0000 0.0000 0.0000 0.0000 22.4125 0.0000
# 6 0.0000 0.0000 0.0000 0.0000 0.0000 19.5171
#
#
#
# Elastic Compliance Matrix: (Units=1/GPa)
#
#
# Indices 1 2 3 4 5 6 
#
# 1 0.017819 -0.006492 0.000179 0.000000 0.000000 0.000000
# 2 -0.006492 0.029523 -0.020931 0.000000 0.000000 0.000000
# 3 0.000179 -0.020931 0.029685 0.000000 0.000000 0.000000
# 4 0.000000 0.000000 0.000000 0.085457 0.000000 0.000000
# 5 0.000000 0.000000 0.000000 0.000000 0.044618 0.000000
# 6 0.000000 0.000000 0.000000 0.000000 0.000000 0.051237
#
#
# Mechanical properties :
#
#
# Convention : Reuss Voigt Hill
#
# Bulk Modulus (GPa) = 44.36814 47.66353 46.01584
# Shear Modulus (GPa) = 15.60841 18.39319 17.00080
#
# Velocity S-wave (km/s) = 3.00750 3.26479 3.13879
# Velocity P-wave (km/s) = 6.14585 6.46783 6.30890
#
# Compressibility (1/GPa) = 0.02253869
#
# Stress axis : x y z
#
# Youngs Moduli (GPa) = 56.11968 33.87238 33.68656
#
# Poissons Ratio (x) = 0.21991 -0.00604
# Poissons Ratio (y) = 0.36435 0.70510
# Poissons Ratio (z) = -0.01006 0.70898
#
# Static dielectric constant tensor:
#      x y z
#    x 3.169250 0.000000 0.000000 
#    y 0.000000 3.397860 0.000000 
#    z 0.000000 0.000000 3.098520 
# 
# 
# High freq. dielectric constant tensor:
#      x y z
#    x 1.668030 0.000000 0.000000 
#    y 0.000000 1.664740 0.000000 
#    z 0.000000 0.000000 1.633250 
# 
# From -- ./inp_files/64718.got.cif
#   From: 2010.03.12/outbox.cif.g09.slc.cpg/sg74_33_cif.got.tgz:64718.got - 2010.04.16 15:46:19.
