data_PCOD8297227
_publ_section_title
;
Structure prediction by ZEFSAII (Michael W. Deem and Ramdas Pophale) SiO2 
 PCOD8297227
Probable space group: I M M A
;
_chemical_formula_sum "Si O2"
_cell_formula_units_Z 96
_cell_length_a 29.962096
_cell_length_b 7.911964
_cell_length_c 33.756368
_cell_angle_alpha 90.000000
_cell_angle_beta 90.000000
_cell_angle_gamma 90.000000
_cell_volume 8002.251683
_symmetry_space_group_name_H-M "I M M A"
_symmetry_group_IT_number 74
_symmetry_cell_setting 'orthorhombic'
loop_
_space_group_symop_operation_xyz
x,y,z
-x,1/2-y,z
x,-y,-z
-x,1/2+y,-z
-x,-y,-z
x,1/2+y,-z
-x,y,z
x,1/2-y,z
1/2+x,1/2+y,1/2+z
1/2-x,-y,1/2+z
1/2+x,1/2-y,1/2-z
1/2-x,y,1/2-z
1/2-x,1/2-y,1/2-z
1/2+x,y,1/2-z
1/2-x,1/2+y,1/2+z
1/2+x,-y,1/2+z
loop_
_atom_site_type_symbol
_atom_site_label
_atom_site_fract_x
_atom_site_fract_y
_atom_site_fract_z
Si Si1 0.869390 0.562025 0.741517
Si Si2 0.685449 0.065226 0.160878
Si Si3 0.233740 0.750000 0.313631
Si Si4 0.179374 0.750000 0.232206
Si Si5 0.049988 0.050643 0.542636
Si Si6 0.396211 0.556848 0.116604
Si Si7 0.449529 0.053640 0.189675
O O1 0.866686 0.750000 0.761150
O O2 0.840186 0.559688 0.702126
O O3 0.851098 0.418719 0.771372
O O4 0.920153 0.516933 0.728995
O O5 0.708314 0.250000 0.155406
O O6 0.722553 0.917519 0.160672
O O7 0.649319 0.042294 0.126009
O O8 0.205246 0.750000 0.273602
O O9 0.286246 0.750000 0.304224
O O10 0.047751 0.250000 0.547350
O O11 0.081506 0.976207 0.577222
O O12 0.000000 0.973575 0.546836
O O13 0.070244 0.000000 0.500000
O O14 0.382743 0.750000 0.109579
O O15 0.431646 0.550621 0.152357
O O16 0.500000 0.997843 0.199122
O O17 0.445917 0.250000 0.178293
#
# Coordination Sequence:
#
# PCOD8297227 Si02
#       7
#    16  16   8   8  16  16  16
#     4   8  15  25  34  47  66  84 105 129 151 185
#     4   9  16  26  38  51  66  82 100 125 156 188
#     4   9  16  26  36  52  66  80 102 128 148 188
#     4   9  16  24  37  48  64  86 103 120 158 187
#     4   9  18  29  38  49  65  84 106 132 159 192
#     4  10  17  26  38  51  66  82 104 132 164 199
#     4   9  17  26  35  49  66  84 108 135 162 193
#
# _framework density 11.996623
#
# number of rings (size 3 to 8) (size 9 to 14) (size 15 to 20)
#    0.000    3.000    0.833    2.000    3.500    3.000 
#    0.000    5.000    0.000    0.000    0.000    0.000 
#    0.000    0.000    0.000    0.000    0.000    0.000 
#
# Total GULP energy -594909.214409 kJ/mol
# GULP energy per Si atom -12393.941967 kJ/mol
# Density = 1.196932 g / cm^3
# Si number density = 11.996623 Si / 1000 Ang^3
#
#
#
# Elastic Constant Matrix: (Units=GPa)
#
#
# Indices 1 2 3 4 5 6 
#
# 1 59.9190 34.0197 35.2669 0.0000 0.0000 0.0000
# 2 34.0197 74.1107 24.5724 0.0000 0.0000 0.0000
# 3 35.2669 24.5724 34.3309 0.0000 0.0000 0.0000
# 4 0.0000 0.0000 0.0000 10.2131 0.0000 0.0000
# 5 0.0000 0.0000 0.0000 0.0000 16.9056 0.0000
# 6 0.0000 0.0000 0.0000 0.0000 0.0000 13.6693
#
#
#
# Elastic Compliance Matrix: (Units=1/GPa)
#
#
# Indices 1 2 3 4 5 6 
#
# 1 0.044788 -0.006955 -0.041031 0.000000 0.000000 0.000000
# 2 -0.006955 0.018772 -0.006292 0.000000 0.000000 0.000000
# 3 -0.041031 -0.006292 0.075781 0.000000 0.000000 0.000000
# 4 0.000000 0.000000 0.000000 0.097913 0.000000 0.000000
# 5 0.000000 0.000000 0.000000 0.000000 0.059152 0.000000
# 6 0.000000 0.000000 0.000000 0.000000 0.000000 0.073156
#
#
# Mechanical properties :
#
#
# Convention : Reuss Voigt Hill
#
# Bulk Modulus (GPa) = 32.48219 39.56429 36.02324
# Shear Modulus (GPa) = 10.23797 13.12438 11.68118
#
# Velocity S-wave (km/s) = 2.92448 3.31116 3.12381
# Velocity P-wave (km/s) = 6.20792 6.90431 6.56536
#
# Compressibility (1/GPa) = 0.03078610
#
# Stress axis : x y z
#
# Youngs Moduli (GPa) = 22.32766 53.27095 13.19598
#
# Poissons Ratio (x) = 0.37050 0.54144
# Poissons Ratio (y) = 0.15529 0.08302
# Poissons Ratio (z) = 0.91612 0.33515
#
# Static dielectric constant tensor:
#      x y z
#    x 2.458310 0.000000 0.000000 
#    y 0.000000 2.681780 0.000000 
#    z 0.000000 0.000000 2.190450 
# 
# 
# High freq. dielectric constant tensor:
#      x y z
#    x 1.428340 0.000000 0.000000 
#    y 0.000000 1.471700 0.000000 
#    z 0.000000 0.000000 1.395110 
# 
# From -- ./inp_files/71104.got.cif
#   From: 2010.03.12/outbox.cif.g09.slc.cpg/sg74_36_cif.got.tgz:71104.got - 2010.04.16 15:46:19.
