data_PCOD8297589
_publ_section_title
;
Structure prediction by ZEFSAII (Michael W. Deem and Ramdas Pophale) SiO2 
 PCOD8297589
Probable space group: I M M A
;
_chemical_formula_sum "Si O2"
_cell_formula_units_Z 88
_cell_length_a 9.075736
_cell_length_b 19.896354
_cell_length_c 27.097648
_cell_angle_alpha 90.000000
_cell_angle_beta 90.000000
_cell_angle_gamma 90.000000
_cell_volume 4893.132215
_symmetry_space_group_name_H-M "I M M A"
_symmetry_group_IT_number 74
_symmetry_cell_setting 'orthorhombic'
loop_
_space_group_symop_operation_xyz
x,y,z
-x,1/2-y,z
x,-y,-z
-x,1/2+y,-z
-x,-y,-z
x,1/2+y,-z
-x,y,z
x,1/2-y,z
1/2+x,1/2+y,1/2+z
1/2-x,-y,1/2+z
1/2+x,1/2-y,1/2-z
1/2-x,y,1/2-z
1/2-x,1/2-y,1/2-z
1/2+x,y,1/2-z
1/2-x,1/2+y,1/2+z
1/2+x,-y,1/2+z
loop_
_atom_site_type_symbol
_atom_site_label
_atom_site_fract_x
_atom_site_fract_y
_atom_site_fract_z
Si Si1 0.251298 0.250000 0.040035
Si Si2 0.175720 0.625971 0.802834
Si Si3 0.673795 0.522099 0.618338
Si Si4 0.836715 0.895607 0.970910
Si Si5 0.834461 0.250000 0.352272
Si Si6 0.825148 0.383586 0.921103
Si Si7 0.165126 0.750000 0.428760
O O1 0.152473 0.316681 0.042284
O O2 0.354127 0.250000 0.088449
O O3 0.340424 0.250000 0.988461
O O4 0.250000 0.624193 0.750000
O O5 0.220712 0.556297 0.830187
O O6 0.242813 0.685992 0.834571
O O7 0.000000 0.635335 0.798110
O O8 0.500000 0.529990 0.612856
O O9 0.747418 0.562480 0.571957
O O10 0.718544 0.443371 0.616856
O O11 0.000000 0.925037 0.974789
O O12 0.763872 0.905767 0.024780
O O13 0.000000 0.250000 0.329575
O O14 0.746530 0.314768 0.905648
O O15 0.000000 0.370284 0.922653
O O16 0.000000 0.750000 0.408512
#
# Coordination Sequence:
#
# PCOD8297589 Si02
#       7
#     8  16  16  16   8  16   8
#     4  10  18  29  47  67 103 142 177 205 246 287
#     4  11  23  39  56  75 100 131 170 216 262 303
#     4   9  17  30  51  76  99 125 162 210 256 298
#     4   9  15  25  46  75 101 127 166 210 246 288
#     4  12  23  36  53  73  99 136 181 221 254 289
#     4   9  17  30  51  76 100 128 165 204 245 294
#     4  10  20  33  47  70 108 142 168 198 242 296
#
# _framework density 17.984390999999999
#
# number of rings (size 3 to 8) (size 9 to 14) (size 15 to 20)
#    0.000    2.182    1.818    2.455    0.000    5.091 
#    0.000    1.818    0.000    2.182    0.000    0.636 
#    0.000    0.000    0.000    0.000    0.000    0.000 
#
# Total GULP energy -545177.943028 kJ/mol
# GULP energy per Si atom -12390.407796 kJ/mol
# Density = 1.794346 g / cm^3
# Si number density = 17.984391 Si / 1000 Ang^3
#
#
#
# Elastic Constant Matrix: (Units=GPa)
#
#
# Indices 1 2 3 4 5 6 
#
# 1 70.2616 35.9478 21.2239 0.0000 0.0000 0.0000
# 2 35.9478 138.7556 46.9831 0.0000 0.0000 0.0000
# 3 21.2239 46.9831 58.9255 0.0000 0.0000 0.0000
# 4 0.0000 0.0000 0.0000 18.8449 0.0000 0.0000
# 5 0.0000 0.0000 0.0000 0.0000 14.7470 0.0000
# 6 0.0000 0.0000 0.0000 0.0000 0.0000 7.7669
#
#
#
# Elastic Compliance Matrix: (Units=1/GPa)
#
#
# Indices 1 2 3 4 5 6 
#
# 1 0.016937 -0.003181 -0.003564 0.000000 0.000000 0.000000
# 2 -0.003181 0.010470 -0.007202 0.000000 0.000000 0.000000
# 3 -0.003564 -0.007202 0.023997 0.000000 0.000000 0.000000
# 4 0.000000 0.000000 0.000000 0.053065 0.000000 0.000000
# 5 0.000000 0.000000 0.000000 0.000000 0.067811 0.000000
# 6 0.000000 0.000000 0.000000 0.000000 0.000000 0.128752
#
#
# Mechanical properties :
#
#
# Convention : Reuss Voigt Hill
#
# Bulk Modulus (GPa) = 42.53706 52.91693 47.72699
# Shear Modulus (GPa) = 14.84735 19.19095 17.01915
#
# Velocity S-wave (km/s) = 2.87639 3.27018 3.07958
# Velocity P-wave (km/s) = 5.89364 6.61411 6.26424
#
# Compressibility (1/GPa) = 0.02350891
#
# Stress axis : x y z
#
# Youngs Moduli (GPa) = 59.04382 95.51401 41.67253
#
# Poissons Ratio (x) = 0.30384 0.14852
# Poissons Ratio (y) = 0.18782 0.30013
# Poissons Ratio (z) = 0.21043 0.68789
#
# Static dielectric constant tensor:
#      x y z
#    x 2.959860 0.000000 0.000000 
#    y 0.000000 3.508770 0.000000 
#    z 0.000000 0.000000 3.215940 
# 
# 
# High freq. dielectric constant tensor:
#      x y z
#    x 1.660600 0.000000 0.000000 
#    y 0.000000 1.704210 0.000000 
#    z 0.000000 0.000000 1.665120 
# 
# From -- ./inp_files/70509.got.cif
#   From: 2010.03.12/outbox.cif.g09.slc.cpg/sg74_36_cif.got.tgz:70509.got - 2010.04.16 15:46:19.
