data_PCOD8297247
_publ_section_title
;
Structure prediction by ZEFSAII (Michael W. Deem and Ramdas Pophale) SiO2 
 PCOD8297247
Probable space group: I M M A
;
_chemical_formula_sum "Si O2"
_cell_formula_units_Z 80
_cell_length_a 8.780098
_cell_length_b 32.167228
_cell_length_c 14.868833
_cell_angle_alpha 90.000000
_cell_angle_beta 90.000000
_cell_angle_gamma 90.000000
_cell_volume 4199.425532
_symmetry_space_group_name_H-M "I M M A"
_symmetry_group_IT_number 74
_symmetry_cell_setting 'orthorhombic'
loop_
_space_group_symop_operation_xyz
x,y,z
-x,1/2-y,z
x,-y,-z
-x,1/2+y,-z
-x,-y,-z
x,1/2+y,-z
-x,y,z
x,1/2-y,z
1/2+x,1/2+y,1/2+z
1/2-x,-y,1/2+z
1/2+x,1/2-y,1/2-z
1/2-x,y,1/2-z
1/2-x,1/2-y,1/2-z
1/2+x,y,1/2-z
1/2-x,1/2+y,1/2+z
1/2+x,-y,1/2+z
loop_
_atom_site_type_symbol
_atom_site_label
_atom_site_fract_x
_atom_site_fract_y
_atom_site_fract_z
Si Si1 0.825107 0.527238 0.894050
Si Si2 0.820566 0.051980 0.580008
Si Si3 0.822985 0.298462 0.655797
Si Si4 0.828141 0.384118 0.162446
Si Si5 0.681174 0.365517 0.536410
O O1 0.754303 0.483882 0.855332
O O2 0.814430 0.565780 0.825794
O O3 0.000000 0.520228 0.923075
O O4 0.723590 0.539748 0.979242
O O5 0.751025 0.097658 0.598509
O O6 0.000000 0.053195 0.595406
O O7 0.796468 0.250000 0.637952
O O8 0.750000 0.312203 0.750000
O O9 0.737838 0.321901 0.575204
O O10 0.000000 0.310250 0.657123
O O11 0.750000 0.363589 0.250000
O O12 0.758258 0.369069 0.066909
O O13 0.000000 0.368766 0.165192
O O14 0.500000 0.369345 0.539249
#
# Coordination Sequence:
#
# PCOD8297247 Si02
#       5
#    16  16  16  16  16
#     4   9  16  28  43  63  94 133 175 219 267 311
#     4  10  17  26  44  70  96 129 173 218 264 310
#     4  10  21  38  61  88 113 136 164 203 255 316
#     4   9  19  32  49  73 103 141 183 225 265 306
#     4  10  20  35  54  78 108 142 177 216 265 316
#
# _framework density 19.050224
#
# number of rings (size 3 to 8) (size 9 to 14) (size 15 to 20)
#    0.000    2.400    0.000    6.000    0.000    6.000 
#    0.000    1.000    0.000    3.000    0.000    0.000 
#    0.000    0.000    0.000    0.000    0.000    0.000 
#
# Total GULP energy -495647.585921 kJ/mol
# GULP energy per Si atom -12391.189648 kJ/mol
# Density = 1.900686 g / cm^3
# Si number density = 19.050224 Si / 1000 Ang^3
#
#
#
# Elastic Constant Matrix: (Units=GPa)
#
#
# Indices 1 2 3 4 5 6 
#
# 1 101.0876 37.4453 40.4647 0.0001 0.0000 0.0000
# 2 37.4453 77.2834 43.1571 0.0001 0.0000 0.0000
# 3 40.4647 43.1571 82.2677 0.0004 0.0000 0.0000
# 4 0.0001 0.0001 0.0004 17.2664 0.0000 0.0000
# 5 0.0000 0.0000 0.0000 0.0000 24.6569 0.0001
# 6 0.0000 0.0000 0.0000 0.0000 0.0001 32.2184
#
#
#
# Elastic Compliance Matrix: (Units=1/GPa)
#
#
# Indices 1 2 3 4 5 6 
#
# 1 0.013094 -0.003886 -0.004402 0.000000 0.000000 0.000000
# 2 -0.003886 0.019454 -0.008294 0.000000 0.000000 0.000000
# 3 -0.004402 -0.008294 0.018671 0.000000 0.000000 0.000000
# 4 0.000000 0.000000 0.000000 0.057916 0.000000 0.000000
# 5 0.000000 0.000000 0.000000 0.000000 0.040557 0.000000
# 6 0.000000 0.000000 0.000000 0.000000 0.000000 0.031038
#
#
# Mechanical properties :
#
#
# Convention : Reuss Voigt Hill
#
# Bulk Modulus (GPa) = 55.38477 55.86368 55.62423
# Shear Modulus (GPa) = 22.73633 24.13310 23.43471
#
# Velocity S-wave (km/s) = 3.45845 3.56310 3.51116
# Velocity P-wave (km/s) = 6.71446 6.80556 6.76016
#
# Compressibility (1/GPa) = 0.01805551
#
# Stress axis : x y z
#
# Youngs Moduli (GPa) = 76.37107 51.40370 53.55771
#
# Poissons Ratio (x) = 0.19976 0.23575
# Poissons Ratio (y) = 0.29679 0.44420
# Poissons Ratio (z) = 0.33617 0.42634
#
# Static dielectric constant tensor:
#      x y z
#    x 3.474680 0.000000 0.000000 
#    y 0.000000 3.671460 0.000000 
#    z 0.000000 0.000000 3.228580 
# 
# 
# High freq. dielectric constant tensor:
#      x y z
#    x 1.749180 0.000000 0.000000 
#    y 0.000000 1.724370 0.000000 
#    z 0.000000 0.000000 1.711760 
# 
# From -- ./inp_files/39963.got.cif
#   From: 2010.03.12/outbox.cif.g09.slc.cpg/sg74_20_cif.got.tgz:39963.got - 2010.04.16 15:46:19.
