data_PCOD8297959
_publ_section_title
;
Structure prediction by ZEFSAII (Michael W. Deem and Ramdas Pophale) SiO2 
 PCOD8297959
Probable space group: I M M A
;
_chemical_formula_sum "Si O2"
_cell_formula_units_Z 88
_cell_length_a 27.957953
_cell_length_b 8.833895
_cell_length_c 17.957566
_cell_angle_alpha 90.000000
_cell_angle_beta 90.000000
_cell_angle_gamma 90.000000
_cell_volume 4435.116934
_symmetry_space_group_name_H-M "I M M A"
_symmetry_group_IT_number 74
_symmetry_cell_setting 'orthorhombic'
loop_
_space_group_symop_operation_xyz
x,y,z
-x,1/2-y,z
x,-y,-z
-x,1/2+y,-z
-x,-y,-z
x,1/2+y,-z
-x,y,z
x,1/2-y,z
1/2+x,1/2+y,1/2+z
1/2-x,-y,1/2+z
1/2+x,1/2-y,1/2-z
1/2-x,y,1/2-z
1/2-x,1/2-y,1/2-z
1/2+x,y,1/2-z
1/2-x,1/2+y,1/2+z
1/2+x,-y,1/2+z
loop_
_atom_site_type_symbol
_atom_site_label
_atom_site_fract_x
_atom_site_fract_y
_atom_site_fract_z
Si Si1 0.406829 0.427435 0.920012
Si Si2 0.171414 0.926092 0.674607
Si Si3 0.352271 0.429357 0.340281
Si Si4 0.446462 0.928837 0.579726
Si Si5 0.738813 0.074871 0.423510
Si Si6 0.000000 0.429991 0.417648
O O1 0.415732 0.250000 0.928595
O O2 0.360490 0.461350 0.872903
O O3 0.452274 0.506002 0.878307
O O4 0.398762 0.500000 0.000000
O O5 0.156315 0.750000 0.664925
O O6 0.164122 0.983134 0.758810
O O7 0.225230 0.951898 0.645703
O O8 0.351071 0.250000 0.341859
O O9 0.405648 0.487490 0.362542
O O10 0.312883 0.491581 0.398865
O O11 0.500000 0.975535 0.607851
O O12 0.443101 0.750000 0.570574
O O13 0.435618 0.000000 0.500000
O O14 0.734871 0.250000 0.441800
O O15 0.756846 0.000000 0.500000
O O16 0.000000 0.500000 0.500000
O O17 0.000000 0.250000 0.418095
#
# Coordination Sequence:
#
# PCOD8297959 Si02
#       6
#    16  16  16  16  16   8
#     4  11  21  35  54  77 107 141 182 228 275 325
#     4  10  20  35  53  76 106 142 182 223 273 328
#     4   9  18  34  54  77 106 141 181 223 272 332
#     4   9  17  31  53  79 106 136 175 220 266 321
#     4  10  20  34  55  79 104 138 181 230 277 329
#     4  10  18  32  54  78 102 134 177 224 271 316
#
# _framework density 19.841642
#
# number of rings (size 3 to 8) (size 9 to 14) (size 15 to 20)
#    0.000    2.182    0.000    5.182    0.000    4.364 
#    1.636    1.818    0.000    2.182    0.000    0.000 
#    0.000    0.000    0.000    0.000    0.000    0.000 
#
# Total GULP energy -545372.278839 kJ/mol
# GULP energy per Si atom -12394.824519 kJ/mol
# Density = 1.979648 g / cm^3
# Si number density = 19.841642 Si / 1000 Ang^3
#
#
#
# Elastic Constant Matrix: (Units=GPa)
#
#
# Indices 1 2 3 4 5 6 
#
# 1 147.4888 37.0632 67.2231 0.0000 0.0000 0.0000
# 2 37.0632 80.5165 25.5692 0.0000 0.0000 0.0000
# 3 67.2231 25.5692 118.0676 0.0000 0.0000 0.0000
# 4 0.0000 0.0000 0.0000 22.4776 0.0000 0.0000
# 5 0.0000 0.0000 0.0000 0.0000 80.7228 0.0000
# 6 0.0000 0.0000 0.0000 0.0000 0.0000 24.1849
#
#
#
# Elastic Compliance Matrix: (Units=1/GPa)
#
#
# Indices 1 2 3 4 5 6 
#
# 1 0.009760 -0.002929 -0.004923 0.000000 0.000000 0.000000
# 2 -0.002929 0.014216 -0.001411 0.000000 0.000000 0.000000
# 3 -0.004923 -0.001411 0.011578 0.000000 0.000000 0.000000
# 4 0.000000 0.000000 0.000000 0.044489 0.000000 0.000000
# 5 0.000000 0.000000 0.000000 0.000000 0.012388 0.000000
# 6 0.000000 0.000000 0.000000 0.000000 0.000000 0.041348
#
#
# Mechanical properties :
#
#
# Convention : Reuss Voigt Hill
#
# Bulk Modulus (GPa) = 58.72470 67.30932 63.01701
# Shear Modulus (GPa) = 31.64937 39.89153 35.77045
#
# Velocity S-wave (km/s) = 3.99820 4.48872 4.25054
# Velocity P-wave (km/s) = 7.13968 7.80139 7.47786
#
# Compressibility (1/GPa) = 0.01702861
#
# Stress axis : x y z
#
# Youngs Moduli (GPa) = 102.45960 70.34165 86.37107
#
# Poissons Ratio (x) = 0.20606 0.42516
# Poissons Ratio (y) = 0.30015 0.12185
# Poissons Ratio (z) = 0.50436 0.09924
#
# Static dielectric constant tensor:
#      x y z
#    x 4.339420 0.000000 0.000000 
#    y 0.000000 3.372810 0.000000 
#    z 0.000000 0.000000 3.542570 
# 
# 
# High freq. dielectric constant tensor:
#      x y z
#    x 1.795730 0.000000 0.000000 
#    y 0.000000 1.748150 0.000000 
#    z 0.000000 0.000000 1.754790 
# 
# From -- ./inp_files/47010.got.cif
#   From: 2010.03.12/outbox.cif.g09.slc.cpg/sg74_24_cif.got.tgz:47010.got - 2010.04.16 15:46:19.
