data_PCOD8297618
_publ_section_title
;
Structure prediction by ZEFSAII (Michael W. Deem and Ramdas Pophale) SiO2 
 PCOD8297618
Probable space group: I M M A
;
_chemical_formula_sum "Si O2"
_cell_formula_units_Z 88
_cell_length_a 27.505982
_cell_length_b 8.883049
_cell_length_c 19.281772
_cell_angle_alpha 90.000000
_cell_angle_beta 90.000000
_cell_angle_gamma 90.000000
_cell_volume 4711.250053
_symmetry_space_group_name_H-M "I M M A"
_symmetry_group_IT_number 74
_symmetry_cell_setting 'orthorhombic'
loop_
_space_group_symop_operation_xyz
x,y,z
-x,1/2-y,z
x,-y,-z
-x,1/2+y,-z
-x,-y,-z
x,1/2+y,-z
-x,y,z
x,1/2-y,z
1/2+x,1/2+y,1/2+z
1/2-x,-y,1/2+z
1/2+x,1/2-y,1/2-z
1/2-x,y,1/2-z
1/2-x,1/2-y,1/2-z
1/2+x,y,1/2-z
1/2-x,1/2+y,1/2+z
1/2+x,-y,1/2+z
loop_
_atom_site_type_symbol
_atom_site_label
_atom_site_fract_x
_atom_site_fract_y
_atom_site_fract_z
Si Si1 0.943247 0.924042 0.694412
Si Si2 0.112433 0.924734 0.425640
Si Si3 0.314526 0.929129 0.576130
Si Si4 0.719641 0.425848 0.925552
Si Si5 0.908137 0.071548 0.159501
Si Si6 0.000000 0.570718 0.925388
O O1 0.931558 0.750000 0.680718
O O2 0.913658 0.985560 0.761326
O O3 0.000000 0.949496 0.708597
O O4 0.927575 0.015113 0.626955
O O5 0.103751 0.750000 0.437778
O O6 0.166382 0.953937 0.392355
O O7 0.105560 0.000000 0.500000
O O8 0.313056 0.750000 0.569442
O O9 0.357800 0.984773 0.626124
O O10 0.321950 0.000000 0.500000
O O11 0.264656 0.990366 0.612542
O O12 0.731757 0.250000 0.931368
O O13 0.717211 0.500000 0.000000
O O14 0.911080 0.250000 0.159843
O O15 0.952598 0.008774 0.114136
O O16 0.000000 0.750000 0.930744
O O17 0.000000 0.500000 0.000000
#
# Coordination Sequence:
#
# PCOD8297618 Si02
#       6
#    16  16  16  16  16   8
#     4  10  20  37  59  78 101 139 179 216 263 312
#     4  10  21  37  58  83 107 133 169 214 262 316
#     4  10  18  29  49  77 107 139 177 219 259 304
#     4   9  17  31  51  75 104 136 169 209 260 311
#     4   9  18  33  52  74 103 141 180 215 258 310
#     4  10  18  32  52  74 103 138 179 222 259 302
#
# _framework density 18.678692999999999
#
# number of rings (size 3 to 8) (size 9 to 14) (size 15 to 20)
#    0.000    2.364    0.909    3.273    0.000    2.909 
#    0.000    4.545    0.000    5.455    0.000    0.000 
#    0.000    0.000    0.000    0.000    0.000    0.000 
#
# Total GULP energy -545355.844822 kJ/mol
# GULP energy per Si atom -12394.451019 kJ/mol
# Density = 1.863618 g / cm^3
# Si number density = 18.678693 Si / 1000 Ang^3
#
#
#
# Elastic Constant Matrix: (Units=GPa)
#
#
# Indices 1 2 3 4 5 6 
#
# 1 70.1436 35.1263 38.8414 0.0000 0.0000 0.0000
# 2 35.1263 75.4281 34.0680 0.0000 0.0000 0.0000
# 3 38.8414 34.0680 102.9116 0.0000 0.0000 0.0000
# 4 0.0000 0.0000 0.0000 23.0742 0.0000 0.0000
# 5 0.0000 0.0000 0.0000 0.0000 22.5657 0.0000
# 6 0.0000 0.0000 0.0000 0.0000 0.0000 27.8247
#
#
#
# Elastic Compliance Matrix: (Units=1/GPa)
#
#
# Indices 1 2 3 4 5 6 
#
# 1 0.020941 -0.007269 -0.005497 0.000000 0.000000 0.000000
# 2 -0.007269 0.018112 -0.003252 0.000000 0.000000 0.000000
# 3 -0.005497 -0.003252 0.012868 0.000000 0.000000 0.000000
# 4 0.000000 0.000000 0.000000 0.043339 0.000000 0.000000
# 5 0.000000 0.000000 0.000000 0.000000 0.044315 0.000000
# 6 0.000000 0.000000 0.000000 0.000000 0.000000 0.035939
#
#
# Mechanical properties :
#
#
# Convention : Reuss Voigt Hill
#
# Bulk Modulus (GPa) = 50.29175 51.61719 50.95447
# Shear Modulus (GPa) = 23.34502 24.05608 23.70055
#
# Velocity S-wave (km/s) = 3.53912 3.59261 3.56596
# Velocity P-wave (km/s) = 6.60935 6.70100 6.65533
#
# Compressibility (1/GPa) = 0.01988398
#
# Stress axis : x y z
#
# Youngs Moduli (GPa) = 47.75403 55.21298 77.70939
#
# Poissons Ratio (x) = 0.40134 0.42718
# Poissons Ratio (y) = 0.34713 0.25273
# Poissons Ratio (z) = 0.26251 0.17956
#
# Static dielectric constant tensor:
#      x y z
#    x 4.154530 0.000000 0.000000 
#    y 0.000000 3.304370 0.000000 
#    z 0.000000 0.000000 3.228390 
# 
# 
# High freq. dielectric constant tensor:
#      x y z
#    x 1.742450 0.000000 0.000000 
#    y 0.000000 1.713630 0.000000 
#    z 0.000000 0.000000 1.700680 
# 
# From -- ./inp_files/47046.got.cif
#   From: 2010.03.12/outbox.cif.g09.slc.cpg/sg74_24_cif.got.tgz:47046.got - 2010.04.16 15:46:19.
