data_PCOD8297795
_publ_section_title
;
Structure prediction by ZEFSAII (Michael W. Deem and Ramdas Pophale) SiO2 
 PCOD8297795
Probable space group: I M M A
;
_chemical_formula_sum "Si O2"
_cell_formula_units_Z 64
_cell_length_a 18.489939
_cell_length_b 12.821496
_cell_length_c 15.602227
_cell_angle_alpha 90.000000
_cell_angle_beta 90.000000
_cell_angle_gamma 90.000000
_cell_volume 3698.799343
_symmetry_space_group_name_H-M "I M M A"
_symmetry_group_IT_number 74
_symmetry_cell_setting 'orthorhombic'
loop_
_space_group_symop_operation_xyz
x,y,z
-x,1/2-y,z
x,-y,-z
-x,1/2+y,-z
-x,-y,-z
x,1/2+y,-z
-x,y,z
x,1/2-y,z
1/2+x,1/2+y,1/2+z
1/2-x,-y,1/2+z
1/2+x,1/2-y,1/2-z
1/2-x,y,1/2-z
1/2-x,1/2-y,1/2-z
1/2+x,y,1/2-z
1/2-x,1/2+y,1/2+z
1/2+x,-y,1/2+z
loop_
_atom_site_type_symbol
_atom_site_label
_atom_site_fract_x
_atom_site_fract_y
_atom_site_fract_z
Si Si1 0.850833 0.131648 0.454041
Si Si2 0.500000 0.871848 0.040794
Si Si3 0.784574 0.060920 0.622471
Si Si4 0.500000 0.625658 0.233812
Si Si5 0.650686 0.869057 0.293868
O O1 0.851821 0.250000 0.419166
O O2 0.796316 0.121669 0.533921
O O3 0.930077 0.093936 0.485738
O O4 0.820154 0.055081 0.380240
O O5 0.500000 0.750000 0.053840
O O6 0.500000 0.921849 0.136659
O O7 0.698312 0.057265 0.643220
O O8 0.820459 0.129084 0.696662
O O9 0.500000 0.750000 0.226225
O O10 0.431064 0.587507 0.288912
O O11 0.653693 0.750000 0.326931
#
# Coordination Sequence:
#
# PCOD8297795 Si02
#       5
#    16   8  16   8  16
#     4  10  19  31  45  68 100 127 156 193 235 289
#     4   9  16  28  46  72 101 128 151 185 241 293
#     4  10  19  28  47  70  93 128 160 186 240 284
#     4   9  16  27  49  72  96 126 153 194 249 280
#     4  10  18  31  47  69  96 122 160 202 237 279
#
# _framework density 17.302911999999999
#
# number of rings (size 3 to 8) (size 9 to 14) (size 15 to 20)
#    0.000    2.250    2.500    3.000    0.000    3.000 
#    0.000    2.500    0.000    3.000    0.000    4.375 
#    0.000    0.000    0.000    0.000    0.000    0.000 
#
# Total GULP energy -396533.900927 kJ/mol
# GULP energy per Si atom -12391.684404 kJ/mol
# Density = 1.726353 g / cm^3
# Si number density = 17.302912 Si / 1000 Ang^3
#
#
#
# Elastic Constant Matrix: (Units=GPa)
#
#
# Indices 1 2 3 4 5 6 
#
# 1 165.0781 35.4272 44.3539 0.0000 0.0000 0.0000
# 2 35.4272 82.5540 13.4891 0.0000 0.0000 0.0000
# 3 44.3539 13.4891 43.5384 0.0000 0.0000 0.0000
# 4 0.0000 0.0000 0.0000 24.9069 0.0000 0.0000
# 5 0.0000 0.0000 0.0000 0.0000 -1.0753 0.0000
# 6 0.0000 0.0000 0.0000 0.0000 0.0000 -173.5261
#
#
#
# Elastic Compliance Matrix: (Units=1/GPa)
#
#
# Indices 1 2 3 4 5 6 
#
# 1 0.008780 -0.002429 -0.008192 0.000000 0.000000 0.000000
# 2 -0.002429 0.013431 -0.001686 0.000000 0.000000 0.000000
# 3 -0.008192 -0.001686 0.031836 0.000000 0.000000 0.000000
# 4 0.000000 0.000000 0.000000 0.040149 0.000000 0.000000
# 5 0.000000 0.000000 0.000000 0.000000 -0.929936 0.000000
# 6 0.000000 0.000000 0.000000 0.000000 0.000000 -0.005763
#
#
# Mechanical properties :
#
#
# Convention : Reuss Voigt Hill
#
# Bulk Modulus (GPa) = 33.97650 53.07899 43.52774
# Shear Modulus (GPa) = -6.19520 -16.74555 -11.47038
#
# Velocity S-wave (km/s) = -1.89426 -3.11430 -2.57751
# Velocity P-wave (km/s) = 3.85936 4.22032 4.04387
#
# Compressibility (1/GPa) = 0.02943211
#
# Stress axis : x y z
#
# Youngs Moduli (GPa) = 113.89331 74.45254 31.41089
#
# Poissons Ratio (x) = 0.18087 0.25732
# Poissons Ratio (y) = 0.27669 0.05297
# Poissons Ratio (z) = 0.93301 0.12556
#
# Static dielectric constant tensor:
#      x y z
#    x 3.736480 0.000000 0.000000 
#    y 0.000000 3.157610 0.000000 
#    z 0.000000 0.000000 2.928120 
# 
# 
# High freq. dielectric constant tensor:
#      x y z
#    x 1.676720 0.000000 0.000000 
#    y 0.000000 1.651530 0.000000 
#    z 0.000000 0.000000 1.623090 
# 
# From -- ./inp_files/32039.got.cif
#   From: 2010.03.12/outbox.cif.g09.slc.cpg/sg74_17_cif.got.tgz:32039.got - 2010.04.16 15:46:19.
