data_PCOD8297834
_publ_section_title
;
Structure prediction by ZEFSAII (Michael W. Deem and Ramdas Pophale) SiO2 
 PCOD8297834
Probable space group: I M M A
;
_chemical_formula_sum "Si O2"
_cell_formula_units_Z 72
_cell_length_a 10.243859
_cell_length_b 22.104956
_cell_length_c 17.947994
_cell_angle_alpha 90.000000
_cell_angle_beta 90.000000
_cell_angle_gamma 90.000000
_cell_volume 4064.144703
_symmetry_space_group_name_H-M "I M M A"
_symmetry_group_IT_number 74
_symmetry_cell_setting 'orthorhombic'
loop_
_space_group_symop_operation_xyz
x,y,z
-x,1/2-y,z
x,-y,-z
-x,1/2+y,-z
-x,-y,-z
x,1/2+y,-z
-x,y,z
x,1/2-y,z
1/2+x,1/2+y,1/2+z
1/2-x,-y,1/2+z
1/2+x,1/2-y,1/2-z
1/2-x,y,1/2-z
1/2-x,1/2-y,1/2-z
1/2+x,y,1/2-z
1/2-x,1/2+y,1/2+z
1/2+x,-y,1/2+z
loop_
_atom_site_type_symbol
_atom_site_label
_atom_site_fract_x
_atom_site_fract_y
_atom_site_fract_z
Si Si1 0.849875 0.118342 0.681253
Si Si2 0.000000 0.818258 0.839902
Si Si3 0.354744 0.250000 0.813224
Si Si4 0.651143 0.503918 0.086250
Si Si5 0.248851 0.110335 0.338418
Si Si6 0.500000 0.817412 0.837512
O O1 0.750000 0.109858 0.750000
O O2 0.835790 0.185860 0.643546
O O3 0.815521 0.070673 0.616703
O O4 0.000000 0.108522 0.709188
O O5 0.125067 0.854727 0.869037
O O6 0.000000 0.750000 0.872388
O O7 0.000000 0.815120 0.751237
O O8 0.500000 0.250000 0.777852
O O9 0.250000 0.250000 0.750000
O O10 0.500000 0.487430 0.100614
O O11 0.743372 0.457004 0.129310
O O12 0.686802 0.500000 0.000000
O O13 0.250000 0.105165 0.250000
O O14 0.126209 0.148303 0.368014
O O15 0.500000 0.750000 0.870647
#
# Coordination Sequence:
#
# PCOD8297834 Si02
#       6
#    16   8   8  16  16   8
#     4   9  17  31  53  78 100 127 163 206 252 298
#     4   9  18  30  49  76 102 131 157 210 258 286
#     4   8  14  26  48  76 100 120 153 202 252 296
#     4  10  20  34  51  70 103 136 169 206 249 292
#     4  10  18  31  51  75 100 129 171 208 249 296
#     4   9  16  28  49  74 102 127 167 208 244 290
#
# _framework density 17.715903999999998
#
# number of rings (size 3 to 8) (size 9 to 14) (size 15 to 20)
#    0.000    2.667    1.111    1.333    0.000    2.667 
#    2.000    0.556    4.889    0.000    0.000    0.000 
#    0.000    0.000    0.000    0.000    0.000    0.000 
#
# Total GULP energy -446106.467000 kJ/mol
# GULP energy per Si atom -12391.846306 kJ/mol
# Density = 1.767558 g / cm^3
# Si number density = 17.715904 Si / 1000 Ang^3
#
#
#
# Elastic Constant Matrix: (Units=GPa)
#
#
# Indices 1 2 3 4 5 6 
#
# 1 110.8418 68.6449 28.5647 0.0000 0.0000 0.0000
# 2 68.6449 192.0503 53.1584 0.0000 0.0000 0.0000
# 3 28.5647 53.1584 52.6464 0.0000 0.0000 0.0000
# 4 0.0000 0.0000 0.0000 7.2065 0.0000 0.0000
# 5 0.0000 0.0000 0.0000 0.0000 11.5965 0.0000
# 6 0.0000 0.0000 0.0000 0.0000 0.0000 31.6155
#
#
#
# Elastic Compliance Matrix: (Units=1/GPa)
#
#
# Indices 1 2 3 4 5 6 
#
# 1 0.011920 -0.003429 -0.003005 0.000000 0.000000 0.000000
# 2 -0.003429 0.008213 -0.006433 0.000000 0.000000 0.000000
# 3 -0.003005 -0.006433 0.027120 0.000000 0.000000 0.000000
# 4 0.000000 0.000000 0.000000 0.138763 0.000000 0.000000
# 5 0.000000 0.000000 0.000000 0.000000 0.086233 0.000000
# 6 0.000000 0.000000 0.000000 0.000000 0.000000 0.031630
#
#
# Mechanical properties :
#
#
# Convention : Reuss Voigt Hill
#
# Bulk Modulus (GPa) = 46.46847 72.91939 59.69393
# Shear Modulus (GPa) = 14.84625 23.76175 19.30400
#
# Velocity S-wave (km/s) = 2.89799 3.66630 3.30455
# Velocity P-wave (km/s) = 6.12246 7.69234 6.95186
#
# Compressibility (1/GPa) = 0.02151997
#
# Stress axis : x y z
#
# Youngs Moduli (GPa) = 83.89446 121.75894 36.87264
#
# Poissons Ratio (x) = 0.41746 0.11082
# Poissons Ratio (y) = 0.28764 0.23718
# Poissons Ratio (z) = 0.25214 0.78322
#
# Static dielectric constant tensor:
#      x y z
#    x 3.406080 0.000000 0.000000 
#    y 0.000000 3.789260 0.000000 
#    z 0.000000 0.000000 2.736290 
# 
# 
# High freq. dielectric constant tensor:
#      x y z
#    x 1.688500 0.000000 0.000000 
#    y 0.000000 1.712940 0.000000 
#    z 0.000000 0.000000 1.620270 
# 
# From -- ./inp_files/48411.got.cif
#   From: 2010.03.12/outbox.cif.g09.slc.cpg/sg74_25_cif.got.tgz:48411.got - 2010.04.16 15:46:19.
