data_PCOD8297630
_publ_section_title
;
Structure prediction by ZEFSAII (Michael W. Deem and Ramdas Pophale) SiO2 
 PCOD8297630
Probable space group: I M M A
;
_chemical_formula_sum "Si O2"
_cell_formula_units_Z 80
_cell_length_a 11.367139
_cell_length_b 16.358854
_cell_length_c 23.431842
_cell_angle_alpha 90.000000
_cell_angle_beta 90.000000
_cell_angle_gamma 90.000000
_cell_volume 4357.229922
_symmetry_space_group_name_H-M "I M M A"
_symmetry_group_IT_number 74
_symmetry_cell_setting 'orthorhombic'
loop_
_space_group_symop_operation_xyz
x,y,z
-x,1/2-y,z
x,-y,-z
-x,1/2+y,-z
-x,-y,-z
x,1/2+y,-z
-x,y,z
x,1/2-y,z
1/2+x,1/2+y,1/2+z
1/2-x,-y,1/2+z
1/2+x,1/2-y,1/2-z
1/2-x,y,1/2-z
1/2-x,1/2-y,1/2-z
1/2+x,y,1/2-z
1/2-x,1/2+y,1/2+z
1/2+x,-y,1/2+z
loop_
_atom_site_type_symbol
_atom_site_label
_atom_site_fract_x
_atom_site_fract_y
_atom_site_fract_z
Si Si1 0.255770 0.341012 0.064801
Si Si2 0.750000 0.070646 0.750000
Si Si3 0.244136 0.498059 0.369913
Si Si4 0.130780 0.916251 0.034520
Si Si5 0.500000 0.154472 0.780703
Si Si6 0.000000 0.936613 0.393801
Si Si7 0.000000 0.842064 0.510588
O O1 0.234568 0.250000 0.089816
O O2 0.209928 0.408017 0.110727
O O3 0.189819 0.346638 0.003942
O O4 0.391108 0.358268 0.051809
O O5 0.730150 0.011041 0.696419
O O6 0.625772 0.120632 0.755592
O O7 0.305642 0.571610 0.404983
O O8 0.107523 0.503076 0.383693
O O9 0.000000 0.887536 0.048220
O O10 0.136550 0.000000 0.000000
O O11 0.500000 0.250000 0.768316
O O12 0.500000 0.137615 0.848417
O O13 0.000000 0.903743 0.457898
O O14 0.000000 0.750000 0.486150
#
# Coordination Sequence:
#
# PCOD8297630 Si02
#       7
#    16   8  16  16   8   8   8
#     4  10  20  33  52  80 111 140 174 222 272 317
#     4  10  23  38  59  84 108 150 190 224 263 324
#     4  10  20  35  55  78 106 142 184 220 262 320
#     4   9  18  32  52  74 101 137 175 218 267 321
#     4  10  21  39  59  83 113 142 180 230 275 315
#     4  10  18  32  56  81 106 142 172 210 268 327
#     4  10  18  29  50  84 112 132 167 214 270 326
#
# _framework density 18.360289000000002
#
# number of rings (size 3 to 8) (size 9 to 14) (size 15 to 20)
#    0.000    2.200    2.000    1.200    1.400    1.200 
#    0.000    1.500    0.000    0.000    0.000    1.400 
#    0.000    0.000    0.000    0.000    0.000    0.000 
#
# Total GULP energy -495727.745979 kJ/mol
# GULP energy per Si atom -12393.193649 kJ/mol
# Density = 1.831850 g / cm^3
# Si number density = 18.360289 Si / 1000 Ang^3
#
#
#
# Elastic Constant Matrix: (Units=GPa)
#
#
# Indices 1 2 3 4 5 6 
#
# 1 114.2422 23.5724 22.4251 0.0000 0.0000 0.0000
# 2 23.5724 100.6389 58.5155 0.0000 0.0000 0.0000
# 3 22.4251 58.5155 109.8509 0.0000 0.0000 0.0000
# 4 0.0000 0.0000 0.0000 17.8435 0.0000 0.0000
# 5 0.0000 0.0000 0.0000 0.0000 32.3934 0.0000
# 6 0.0000 0.0000 0.0000 0.0000 0.0000 73.7206
#
#
#
# Elastic Compliance Matrix: (Units=1/GPa)
#
#
# Indices 1 2 3 4 5 6 
#
# 1 0.009283 -0.001554 -0.001067 0.000000 0.000000 0.000000
# 2 -0.001554 0.014655 -0.007489 0.000000 0.000000 0.000000
# 3 -0.001067 -0.007489 0.013311 0.000000 0.000000 0.000000
# 4 0.000000 0.000000 0.000000 0.056043 0.000000 0.000000
# 5 0.000000 0.000000 0.000000 0.000000 0.030871 0.000000
# 6 0.000000 0.000000 0.000000 0.000000 0.000000 0.013565
#
#
# Mechanical properties :
#
#
# Convention : Reuss Voigt Hill
#
# Bulk Modulus (GPa) = 58.72672 59.30644 59.01658
# Shear Modulus (GPa) = 30.55787 39.47277 35.01532
#
# Velocity S-wave (km/s) = 4.08407 4.64173 4.37180
# Velocity P-wave (km/s) = 7.36849 7.81659 7.59585
#
# Compressibility (1/GPa) = 0.01702802
#
# Stress axis : x y z
#
# Youngs Moduli (GPa) = 107.71831 68.23607 75.12836
#
# Poissons Ratio (x) = 0.10602 0.08020
# Poissons Ratio (y) = 0.16737 0.56266
# Poissons Ratio (z) = 0.11499 0.51104
#
# Static dielectric constant tensor:
#      x y z
#    x 3.629170 0.000000 0.000000 
#    y 0.000000 3.200680 0.000000 
#    z 0.000000 0.000000 3.261490 
# 
# 
# High freq. dielectric constant tensor:
#      x y z
#    x 1.725510 0.000000 0.000000 
#    y 0.000000 1.697560 0.000000 
#    z 0.000000 0.000000 1.693240 
# 
# From -- ./inp_files/50481.got.cif
#   From: 2010.03.12/outbox.cif.g09.slc.cpg/sg74_26_cif.got.tgz:50481.got - 2010.04.16 15:46:19.
