data_PCOD8297106
_publ_section_title
;
Structure prediction by ZEFSAII (Michael W. Deem and Ramdas Pophale) SiO2 
 PCOD8297106
Probable space group: I M M A
;
_chemical_formula_sum "Si O2"
_cell_formula_units_Z 120
_cell_length_a 25.599173
_cell_length_b 21.510627
_cell_length_c 15.839495
_cell_angle_alpha 90.000000
_cell_angle_beta 90.000000
_cell_angle_gamma 90.000000
_cell_volume 8722.085428
_symmetry_space_group_name_H-M "I M M A"
_symmetry_group_IT_number 74
_symmetry_cell_setting 'orthorhombic'
loop_
_space_group_symop_operation_xyz
x,y,z
-x,1/2-y,z
x,-y,-z
-x,1/2+y,-z
-x,-y,-z
x,1/2+y,-z
-x,y,z
x,1/2-y,z
1/2+x,1/2+y,1/2+z
1/2-x,-y,1/2+z
1/2+x,1/2-y,1/2-z
1/2-x,y,1/2-z
1/2-x,1/2-y,1/2-z
1/2+x,y,1/2-z
1/2-x,1/2+y,1/2+z
1/2+x,-y,1/2+z
loop_
_atom_site_type_symbol
_atom_site_label
_atom_site_fract_x
_atom_site_fract_y
_atom_site_fract_z
Si Si1 0.276549 0.899611 0.667192
Si Si2 0.941296 0.949408 0.832156
Si Si3 0.892586 0.500000 0.000000
Si Si4 0.289137 0.998900 0.091638
Si Si5 0.847195 0.508348 0.243220
Si Si6 0.058646 0.180909 0.103322
Si Si7 0.666615 0.679611 0.527134
Si Si8 0.686544 0.581491 0.403934
O O1 0.250000 0.867360 0.750000
O O2 0.308489 0.851424 0.611073
O O3 0.231795 0.931907 0.610842
O O4 0.313083 0.955649 0.698014
O O5 0.933239 0.874321 0.828119
O O6 0.000000 0.967642 0.809408
O O7 0.928571 0.973499 0.926003
O O8 0.906679 0.985008 0.762462
O O9 0.853853 0.553816 0.028671
O O10 0.332235 0.979129 0.160376
O O11 0.243549 0.947972 0.089792
O O12 0.316510 0.000000 0.000000
O O13 0.836644 0.572174 0.190531
O O14 0.063457 0.250000 0.145963
O O15 0.103284 0.174847 0.031753
O O16 0.000000 0.173369 0.063377
O O17 0.685860 0.750000 0.528141
O O18 0.687986 0.652296 0.437807
#
# Coordination Sequence:
#
# PCOD8297106 Si02
#       8
#    16  16   8  16  16  16  16  16
#     4   9  16  27  39  59  83 102 133 173 210 251
#     4  10  17  26  40  60  87 110 137 172 204 243
#     4  10  15  24  40  60  84 110 131 164 208 248
#     4  10  16  27  48  61  76 103 136 177 215 257
#     4   9  18  27  42  63  80 105 137 172 215 254
#     4   9  17  27  38  55  83 121 150 161 185 236
#     4  11  18  26  40  57  83 117 144 169 200 238
#     4  10  15  27  39  59  86 106 134 170 203 251
#
# _framework density 13.758177
#
# number of rings (size 3 to 8) (size 9 to 14) (size 15 to 20)
#    0.000    2.267    4.667    2.200    0.000    0.267 
#    0.000    0.000    0.000    2.000    0.000    0.000 
#    0.000    0.000    0.000    0.000    0.000    0.000 
#
# Total GULP energy -743366.165105 kJ/mol
# GULP energy per Si atom -12389.436085 kJ/mol
# Density = 1.372686 g / cm^3
# Si number density = 13.758177 Si / 1000 Ang^3
#
#
#
# Elastic Constant Matrix: (Units=GPa)
#
#
# Indices 1 2 3 4 5 6 
#
# 1 71.9395 27.8338 47.6035 0.0000 0.0000 0.0000
# 2 27.8338 63.4749 37.2153 0.0000 0.0000 0.0000
# 3 47.6035 37.2153 96.8279 0.0000 0.0000 0.0000
# 4 0.0000 0.0000 0.0000 12.9103 0.0000 0.0000
# 5 0.0000 0.0000 0.0000 0.0000 -0.1560 0.0000
# 6 0.0000 0.0000 0.0000 0.0000 0.0000 8.0028
#
#
#
# Elastic Compliance Matrix: (Units=1/GPa)
#
#
# Indices 1 2 3 4 5 6 
#
# 1 0.021420 -0.004155 -0.008934 0.000000 0.000000 0.000000
# 2 -0.004155 0.021143 -0.006084 0.000000 0.000000 0.000000
# 3 -0.008934 -0.006084 0.017058 0.000000 0.000000 0.000000
# 4 0.000000 0.000000 0.000000 0.077458 0.000000 0.000000
# 5 0.000000 0.000000 0.000000 0.000000 -6.411380 0.000000
# 6 0.000000 0.000000 0.000000 0.000000 0.000000 0.124957
#
#
# Mechanical properties :
#
#
# Convention : Reuss Voigt Hill
#
# Bulk Modulus (GPa) = 47.00039 50.83862 48.91951
# Shear Modulus (GPa) = -0.81915 12.12406 5.65246
#
# Velocity S-wave (km/s) = -0.77245 2.97176 2.02913
# Velocity P-wave (km/s) = 5.78277 6.98620 6.41277
#
# Compressibility (1/GPa) = 0.02127642
#
# Stress axis : x y z
#
# Youngs Moduli (GPa) = 46.68621 47.29718 58.62396
#
# Poissons Ratio (x) = 0.19651 0.52373
# Poissons Ratio (y) = 0.19397 0.35664
# Poissons Ratio (z) = 0.41708 0.28774
#
# Static dielectric constant tensor:
#      x y z
#    x 2.775570 0.000000 0.000000 
#    y 0.000000 2.727740 0.000000 
#    z 0.000000 0.000000 2.670190 
# 
# 
# High freq. dielectric constant tensor:
#      x y z
#    x 1.517380 0.000000 0.000000 
#    y 0.000000 1.509620 0.000000 
#    z 0.000000 0.000000 1.493270 
# 
# From -- ./inp_files/37543.got.cif
#   From: 2010.03.12/outbox.cif.g09.slc.cpg/sg74_19_cif.got.tgz:37543.got - 2010.04.16 15:46:19.
