data_PCOD8297305
_publ_section_title
;
Structure prediction by ZEFSAII (Michael W. Deem and Ramdas Pophale) SiO2 
 PCOD8297305
Probable space group: I M M A
;
_chemical_formula_sum "Si O2"
_cell_formula_units_Z 80
_cell_length_a 17.111711
_cell_length_b 24.137989
_cell_length_c 10.185643
_cell_angle_alpha 90.000000
_cell_angle_beta 90.000000
_cell_angle_gamma 90.000000
_cell_volume 4207.101329
_symmetry_space_group_name_H-M "I M M A"
_symmetry_group_IT_number 74
_symmetry_cell_setting 'orthorhombic'
loop_
_space_group_symop_operation_xyz
x,y,z
-x,1/2-y,z
x,-y,-z
-x,1/2+y,-z
-x,-y,-z
x,1/2+y,-z
-x,y,z
x,1/2-y,z
1/2+x,1/2+y,1/2+z
1/2-x,-y,1/2+z
1/2+x,1/2-y,1/2-z
1/2-x,y,1/2-z
1/2-x,1/2-y,1/2-z
1/2+x,y,1/2-z
1/2-x,1/2+y,1/2+z
1/2+x,-y,1/2+z
loop_
_atom_site_type_symbol
_atom_site_label
_atom_site_fract_x
_atom_site_fract_y
_atom_site_fract_z
Si Si1 0.814659 0.975709 0.360771
Si Si2 0.090219 0.425640 0.281656
Si Si3 0.908678 0.750000 0.498011
Si Si4 0.591755 0.750000 0.692979
Si Si5 0.162238 0.863721 0.478082
Si Si6 0.191378 0.850727 0.866312
O O1 0.750000 0.983373 0.250000
O O2 0.843609 0.912013 0.368769
O O3 0.782574 0.000000 0.500000
O O4 0.890676 0.011701 0.322444
O O5 0.111093 0.381954 0.396258
O O6 0.144422 0.408057 0.158541
O O7 0.000000 0.420221 0.244656
O O8 0.887901 0.750000 0.652323
O O9 0.871499 0.695263 0.429835
O O10 0.000000 0.750000 0.470296
O O11 0.500000 0.750000 0.669460
O O12 0.627761 0.697343 0.619117
O O13 0.255237 0.858085 0.505323
O O14 0.250000 0.834663 0.750000
#
# Coordination Sequence:
#
# PCOD8297305 Si02
#       6
#    16  16   8   8  16  16
#     4  10  21  38  58  81 108 142 184 227 273 322
#     4  10  18  29  49  78 108 137 174 224 277 321
#     4  11  19  29  48  81 114 139 178 232 282 318
#     4  11  18  26  46  74 111 143 174 222 270 316
#     4  10  20  31  50  74 106 146 177 223 267 326
#     4  10  17  28  45  72 107 143 175 211 266 321
#
# _framework density 19.015469
#
# number of rings (size 3 to 8) (size 9 to 14) (size 15 to 20)
#    0.000    1.800    4.000    5.100    0.000    4.400 
#    0.000    0.500    0.000    6.600    0.000    1.400 
#    0.000    0.000    0.000    0.000    0.000    0.000 
#
# Total GULP energy -495858.281198 kJ/mol
# GULP energy per Si atom -12396.457030 kJ/mol
# Density = 1.897219 g / cm^3
# Si number density = 19.015469 Si / 1000 Ang^3
#
#
#
# Elastic Constant Matrix: (Units=GPa)
#
#
# Indices 1 2 3 4 5 6 
#
# 1 134.3891 60.1917 26.7121 0.0000 0.0000 0.0000
# 2 60.1917 171.7020 26.6211 0.0000 0.0000 0.0000
# 3 26.7121 26.6211 30.0730 0.0000 0.0000 0.0000
# 4 0.0000 0.0000 0.0000 11.7076 0.0000 0.0000
# 5 0.0000 0.0000 0.0000 0.0000 8.9177 0.0000
# 6 0.0000 0.0000 0.0000 0.0000 0.0000 26.1059
#
#
#
# Elastic Compliance Matrix: (Units=1/GPa)
#
#
# Indices 1 2 3 4 5 6 
#
# 1 0.009838 -0.002427 -0.006590 0.000000 0.000000 0.000000
# 2 -0.002427 0.007349 -0.004350 0.000000 0.000000 0.000000
# 3 -0.006590 -0.004350 0.042957 0.000000 0.000000 0.000000
# 4 0.000000 0.000000 0.000000 0.085414 0.000000 0.000000
# 5 0.000000 0.000000 0.000000 0.000000 0.112136 0.000000
# 6 0.000000 0.000000 0.000000 0.000000 0.000000 0.038306
#
#
# Mechanical properties :
#
#
# Convention : Reuss Voigt Hill
#
# Bulk Modulus (GPa) = 29.93124 62.57932 46.25528
# Shear Modulus (GPa) = 14.97585 24.18886 19.58235
#
# Velocity S-wave (km/s) = 2.80940 3.57047 3.21255
# Velocity P-wave (km/s) = 5.12818 7.06957 6.17564
#
# Compressibility (1/GPa) = 0.03340990
#
# Stress axis : x y z
#
# Youngs Moduli (GPa) = 101.64633 136.06752 23.27928
#
# Poissons Ratio (x) = 0.33025 0.15341
# Poissons Ratio (y) = 0.24670 0.10126
# Poissons Ratio (z) = 0.66986 0.59188
#
# Static dielectric constant tensor:
#      x y z
#    x 3.456170 0.000000 0.000000 
#    y 0.000000 3.746760 0.000000 
#    z 0.000000 0.000000 2.947800 
# 
# 
# High freq. dielectric constant tensor:
#      x y z
#    x 1.740910 0.000000 0.000000 
#    y 0.000000 1.758790 0.000000 
#    z 0.000000 0.000000 1.660310 
# 
# From -- ./inp_files/22348.got.cif
#   From: 2010.03.12/outbox.cif.g09.slc.cpg/sg74_12_cif.got.tgz:22348.got - 2010.04.16 15:46:19.
