data_PCOD8297909
_publ_section_title
;
Structure prediction by ZEFSAII (Michael W. Deem and Ramdas Pophale) SiO2 
 PCOD8297909
Probable space group: I M M A
;
_chemical_formula_sum "Si O2"
_cell_formula_units_Z 88
_cell_length_a 31.218062
_cell_length_b 8.841010
_cell_length_c 19.609997
_cell_angle_alpha 90.000000
_cell_angle_beta 90.000000
_cell_angle_gamma 90.000000
_cell_volume 5412.343451
_symmetry_space_group_name_H-M "I M M A"
_symmetry_group_IT_number 74
_symmetry_cell_setting 'orthorhombic'
loop_
_space_group_symop_operation_xyz
x,y,z
-x,1/2-y,z
x,-y,-z
-x,1/2+y,-z
-x,-y,-z
x,1/2+y,-z
-x,y,z
x,1/2-y,z
1/2+x,1/2+y,1/2+z
1/2-x,-y,1/2+z
1/2+x,1/2-y,1/2-z
1/2-x,y,1/2-z
1/2-x,1/2-y,1/2-z
1/2+x,y,1/2-z
1/2-x,1/2+y,1/2+z
1/2+x,-y,1/2+z
loop_
_atom_site_type_symbol
_atom_site_label
_atom_site_fract_x
_atom_site_fract_y
_atom_site_fract_z
Si Si1 0.209875 0.571859 0.705127
Si Si2 0.629977 0.428244 0.295812
Si Si3 0.500000 0.569795 0.574022
Si Si4 0.664840 0.928188 0.429885
Si Si5 0.546654 0.424178 0.687929
Si Si6 0.236477 0.572510 0.430180
O O1 0.213079 0.750000 0.693251
O O2 0.250000 0.514384 0.750000
O O3 0.166305 0.522993 0.742494
O O4 0.209005 0.490776 0.632400
O O5 0.628987 0.250000 0.304542
O O6 0.637742 0.504225 0.368543
O O7 0.583991 0.491125 0.269467
O O8 0.500000 0.750000 0.571059
O O9 0.500000 0.500000 0.500000
O O10 0.542021 0.507653 0.614292
O O11 0.658522 0.750000 0.433122
O O12 0.714264 0.974120 0.418493
O O13 0.647803 0.000000 0.500000
O O14 0.500000 0.436503 0.726059
O O15 0.559384 0.250000 0.676522
O O16 0.218990 0.500000 0.500000
O O17 0.230221 0.750000 0.435171
#
# Coordination Sequence:
#
# PCOD8297909 Si02
#       6
#    16  16   8  16  16  16
#     4  10  20  34  51  73 103 134 166 206 249 296
#     4  11  21  33  52  74  97 129 166 208 254 297
#     4  10  18  32  52  72  94 124 163 204 251 300
#     4  10  20  32  46  66  94 128 169 211 250 297
#     4   9  20  36  51  68  92 122 157 203 251 293
#     4  10  20  33  51  71  97 134 171 209 251 295
#
# _framework density 16.259131
#
# number of rings (size 3 to 8) (size 9 to 14) (size 15 to 20)
#    0.545    1.455    1.818    2.727    0.000    4.000 
#    0.000    3.636    0.000    0.000    0.000    0.000 
#    0.000    0.727    0.000    2.364    0.000    3.455 
#
# Total GULP energy -545511.625325 kJ/mol
# GULP energy per Si atom -12397.991485 kJ/mol
# Density = 1.622212 g / cm^3
# Si number density = 16.259131 Si / 1000 Ang^3
#
#
#
# Elastic Constant Matrix: (Units=GPa)
#
#
# Indices 1 2 3 4 5 6 
#
# 1 100.0968 39.0973 43.8313 0.0000 0.0000 0.0000
# 2 39.0973 77.5896 32.7874 0.0000 0.0000 0.0000
# 3 43.8313 32.7874 84.4045 0.0000 0.0000 0.0000
# 4 0.0000 0.0000 0.0000 27.8252 0.0000 0.0000
# 5 0.0000 0.0000 0.0000 0.0000 19.9805 0.0000
# 6 0.0000 0.0000 0.0000 0.0000 0.0000 26.5917
#
#
#
# Elastic Compliance Matrix: (Units=1/GPa)
#
#
# Indices 1 2 3 4 5 6 
#
# 1 0.014322 -0.004874 -0.005544 0.000000 0.000000 0.000000
# 2 -0.004874 0.017078 -0.004103 0.000000 0.000000 0.000000
# 3 -0.005544 -0.004103 0.016321 0.000000 0.000000 0.000000
# 4 0.000000 0.000000 0.000000 0.035939 0.000000 0.000000
# 5 0.000000 0.000000 0.000000 0.000000 0.050049 0.000000
# 6 0.000000 0.000000 0.000000 0.000000 0.000000 0.037606
#
#
# Mechanical properties :
#
#
# Convention : Reuss Voigt Hill
#
# Bulk Modulus (GPa) = 53.53756 54.83586 54.18671
# Shear Modulus (GPa) = 24.20352 24.63783 24.42067
#
# Velocity S-wave (km/s) = 3.86244 3.89694 3.87973
# Velocity P-wave (km/s) = 7.27258 7.35171 7.31225
#
# Compressibility (1/GPa) = 0.01867847
#
# Stress axis : x y z
#
# Youngs Moduli (GPa) = 69.82415 58.55437 61.27251
#
# Poissons Ratio (x) = 0.28539 0.33969
# Poissons Ratio (y) = 0.34032 0.25140
# Poissons Ratio (z) = 0.38710 0.24025
#
# Static dielectric constant tensor:
#      x y z
#    x 3.113650 0.000000 0.000000 
#    y 0.000000 3.111240 0.000000 
#    z 0.000000 0.000000 2.844810 
# 
# 
# High freq. dielectric constant tensor:
#      x y z
#    x 1.611980 0.000000 0.000000 
#    y 0.000000 1.642270 0.000000 
#    z 0.000000 0.000000 1.591580 
# 
# From -- ./inp_files/47033.got.cif
#   From: 2010.03.12/outbox.cif.g09.slc.cpg/sg74_24_cif.got.tgz:47033.got - 2010.04.16 15:46:19.
