data_PCOD8297704
_publ_section_title
;
Structure prediction by ZEFSAII (Michael W. Deem and Ramdas Pophale) SiO2 
 PCOD8297704
Probable space group: I M M A
;
_chemical_formula_sum "Si O2"
_cell_formula_units_Z 96
_cell_length_a 13.769305
_cell_length_b 14.321493
_cell_length_c 27.933138
_cell_angle_alpha 90.000000
_cell_angle_beta 90.000000
_cell_angle_gamma 90.000000
_cell_volume 5508.331159
_symmetry_space_group_name_H-M "I M M A"
_symmetry_group_IT_number 74
_symmetry_cell_setting 'orthorhombic'
loop_
_space_group_symop_operation_xyz
x,y,z
-x,1/2-y,z
x,-y,-z
-x,1/2+y,-z
-x,-y,-z
x,1/2+y,-z
-x,y,z
x,1/2-y,z
1/2+x,1/2+y,1/2+z
1/2-x,-y,1/2+z
1/2+x,1/2-y,1/2-z
1/2-x,y,1/2-z
1/2-x,1/2-y,1/2-z
1/2+x,y,1/2-z
1/2-x,1/2+y,1/2+z
1/2+x,-y,1/2+z
loop_
_atom_site_type_symbol
_atom_site_label
_atom_site_fract_x
_atom_site_fract_y
_atom_site_fract_z
Si Si1 0.613148 0.946815 0.279254
Si Si2 0.886760 0.750000 0.741509
Si Si3 0.616596 0.250000 0.348729
Si Si4 0.613353 0.750000 0.423142
Si Si5 0.884258 0.250000 0.815766
Si Si6 0.114087 0.950914 0.048813
Si Si7 0.887387 0.937400 0.688245
Si Si8 0.797337 0.942345 0.864339
O O1 0.500000 0.951528 0.290740
O O2 0.653859 0.842336 0.288188
O O3 0.633974 0.976639 0.224541
O O4 0.660140 0.021760 0.314359
O O5 0.841067 0.750000 0.794536
O O6 0.854691 0.841700 0.713395
O O7 0.000000 0.750000 0.749828
O O8 0.500000 0.250000 0.352435
O O9 0.659714 0.159797 0.375579
O O10 0.500000 0.750000 0.413887
O O11 0.659637 0.750000 0.369748
O O12 0.642231 0.658634 0.453705
O O13 0.000000 0.250000 0.816065
O O14 0.000000 0.966293 0.058571
O O15 0.174873 0.991861 0.092190
O O16 0.147013 0.000000 0.000000
O O17 0.820110 0.945477 0.641133
O O18 0.000000 0.936079 0.672315
#
# Coordination Sequence:
#
# PCOD8297704 Si02
#       8
#    16   8   8   8   8  16  16  16
#     4  10  18  30  48  73 100 130 167 204 243 300
#     4   9  17  31  47  67 101 143 171 197 246 300
#     4  11  21  30  48  78 110 136 166 211 254 304
#     4   9  16  31  52  73 101 136 164 194 244 304
#     4   9  16  28  49  71  99 136 168 197 243 301
#     4  10  21  36  55  78 103 130 164 208 259 315
#     4  10  21  34  48  70 102 138 177 213 245 290
#     4  12  21  32  51  73 101 137 172 207 257 303
#
# _framework density 17.428146000000002
#
# number of rings (size 3 to 8) (size 9 to 14) (size 15 to 20)
#    0.000    1.833    3.333    2.500    0.000    1.333 
#    0.000    4.167    0.000    0.500    0.000    0.000 
#    0.000    0.000    0.000    0.000    0.000    0.000 
#
# Total GULP energy -595141.819267 kJ/mol
# GULP energy per Si atom -12398.787901 kJ/mol
# Density = 1.738848 g / cm^3
# Si number density = 17.428146 Si / 1000 Ang^3
#
#
#
# Elastic Constant Matrix: (Units=GPa)
#
#
# Indices 1 2 3 4 5 6 
#
# 1 63.4343 33.3070 43.5950 0.0000 0.0000 0.0000
# 2 33.3070 136.0571 31.3357 0.0000 0.0000 0.0000
# 3 43.5950 31.3357 57.9400 0.0000 0.0000 0.0000
# 4 0.0000 0.0000 0.0000 22.6648 0.0000 0.0000
# 5 0.0000 0.0000 0.0000 0.0000 19.9205 0.0000
# 6 0.0000 0.0000 0.0000 0.0000 0.0000 13.1797
#
#
#
# Elastic Compliance Matrix: (Units=1/GPa)
#
#
# Indices 1 2 3 4 5 6 
#
# 1 0.033514 -0.002738 -0.023736 0.000000 0.000000 0.000000
# 2 -0.002738 0.008619 -0.002602 0.000000 0.000000 0.000000
# 3 -0.023736 -0.002602 0.036526 0.000000 0.000000 0.000000
# 4 0.000000 0.000000 0.000000 0.044121 0.000000 0.000000
# 5 0.000000 0.000000 0.000000 0.000000 0.050199 0.000000
# 6 0.000000 0.000000 0.000000 0.000000 0.000000 0.075874
#
#
# Mechanical properties :
#
#
# Convention : Reuss Voigt Hill
#
# Bulk Modulus (GPa) = 48.76053 52.65631 50.70842
# Shear Modulus (GPa) = 15.93162 21.09925 18.51543
#
# Velocity S-wave (km/s) = 3.02674 3.48320 3.26296
# Velocity P-wave (km/s) = 6.34458 6.81586 6.58443
#
# Compressibility (1/GPa) = 0.02050839
#
# Stress axis : x y z
#
# Youngs Moduli (GPa) = 29.83799 116.01954 27.37796
#
# Poissons Ratio (x) = 0.31762 0.64985
# Poissons Ratio (y) = 0.08169 0.07123
# Poissons Ratio (z) = 0.70824 0.30185
#
# Static dielectric constant tensor:
#      x y z
#    x 3.080850 0.000000 0.000000 
#    y 0.000000 -75.185580 0.000000 
#    z 0.000000 0.000000 2.937120 
# 
# 
# High freq. dielectric constant tensor:
#      x y z
#    x 1.649170 0.000000 0.000000 
#    y 0.000000 1.693660 0.000000 
#    z 0.000000 0.000000 1.632160 
# 
# From -- ./inp_files/60066.got.cif
#   From: 2010.03.12/outbox.cif.g09.slc.cpg/sg74_31_cif.got.tgz:60066.got - 2010.04.16 15:46:19.
