data_PCOD8297203
_publ_section_title
;
Structure prediction by ZEFSAII (Michael W. Deem and Ramdas Pophale) SiO2 
 PCOD8297203
Probable space group: I M M A
;
_chemical_formula_sum "Si O2"
_cell_formula_units_Z 80
_cell_length_a 8.862286
_cell_length_b 23.096924
_cell_length_c 28.762310
_cell_angle_alpha 90.000000
_cell_angle_beta 90.000000
_cell_angle_gamma 90.000000
_cell_volume 5887.401706
_symmetry_space_group_name_H-M "I M M A"
_symmetry_group_IT_number 74
_symmetry_cell_setting 'orthorhombic'
loop_
_space_group_symop_operation_xyz
x,y,z
-x,1/2-y,z
x,-y,-z
-x,1/2+y,-z
-x,-y,-z
x,1/2+y,-z
-x,y,z
x,1/2-y,z
1/2+x,1/2+y,1/2+z
1/2-x,-y,1/2+z
1/2+x,1/2-y,1/2-z
1/2-x,y,1/2-z
1/2-x,1/2-y,1/2-z
1/2+x,y,1/2-z
1/2-x,1/2+y,1/2+z
1/2+x,-y,1/2+z
loop_
_atom_site_type_symbol
_atom_site_label
_atom_site_fract_x
_atom_site_fract_y
_atom_site_fract_z
Si Si1 0.821852 0.082006 0.976374
Si Si2 0.172720 0.626266 0.617583
Si Si3 0.324908 0.481786 0.062676
Si Si4 0.176931 0.816401 0.520901
Si Si5 0.676899 0.684337 0.702563
O O1 0.000000 0.081252 0.970181
O O2 0.744877 0.046807 0.932925
O O3 0.769951 0.050166 0.022997
O O4 0.763212 0.148033 0.980337
O O5 0.192825 0.556974 0.609147
O O6 0.224987 0.661952 0.572108
O O7 0.276145 0.643299 0.660469
O O8 0.000000 0.641562 0.629476
O O9 0.500000 0.484879 0.048173
O O10 0.224588 0.750000 0.515426
O O11 0.000000 0.826376 0.513898
O O12 0.500000 0.681251 0.708825
O O13 0.731569 0.750000 0.692442
O O14 0.750000 0.660899 0.750000
#
# Coordination Sequence:
#
# PCOD8297203 Si02
#       5
#    16  16  16  16  16
#     4  10  17  24  36  54  74  93 117 152 187 215
#     4   9  17  28  42  57  71  90 120 157 190 221
#     4   9  16  27  40  52  69  94 121 147 180 223
#     4   9  17  28  40  53  72 100 128 152 183 224
#     4  10  20  31  42  55  72  95 121 151 188 228
#
# _framework density 13.588338
#
# number of rings (size 3 to 8) (size 9 to 14) (size 15 to 20)
#    0.000    2.600    0.000    6.000    0.000    6.400 
#    0.000    0.000    0.000    0.000    0.000    0.000 
#    0.000    0.000    0.000    0.000    0.000    1.000 
#
# Total GULP energy -495727.454482 kJ/mol
# GULP energy per Si atom -12393.186362 kJ/mol
# Density = 1.355741 g / cm^3
# Si number density = 13.588338 Si / 1000 Ang^3
#
#
#
# Elastic Constant Matrix: (Units=GPa)
#
#
# Indices 1 2 3 4 5 6 
#
# 1 63.2012 41.2562 29.2105 0.0000 0.0000 0.0000
# 2 41.2562 98.8709 44.4904 0.0000 0.0000 0.0000
# 3 29.2105 44.4904 47.4009 0.0000 0.0000 0.0000
# 4 0.0000 0.0000 0.0000 17.9052 0.0000 0.0000
# 5 0.0000 0.0000 0.0000 0.0000 19.0800 0.0000
# 6 0.0000 0.0000 0.0000 0.0000 0.0000 20.7214
#
#
#
# Elastic Compliance Matrix: (Units=1/GPa)
#
#
# Indices 1 2 3 4 5 6 
#
# 1 0.023897 -0.005791 -0.009291 0.000000 0.000000 0.000000
# 2 -0.005791 0.018912 -0.014183 0.000000 0.000000 0.000000
# 3 -0.009291 -0.014183 0.040134 0.000000 0.000000 0.000000
# 4 0.000000 0.000000 0.000000 0.055850 0.000000 0.000000
# 5 0.000000 0.000000 0.000000 0.000000 0.052411 0.000000
# 6 0.000000 0.000000 0.000000 0.000000 0.000000 0.048259
#
#
# Mechanical properties :
#
#
# Convention : Reuss Voigt Hill
#
# Bulk Modulus (GPa) = 40.95965 48.82081 44.89023
# Shear Modulus (GPa) = 16.33292 17.84239 17.08766
#
# Velocity S-wave (km/s) = 3.47072 3.62756 3.55000
# Velocity P-wave (km/s) = 6.80220 7.31792 7.06477
#
# Compressibility (1/GPa) = 0.02441427
#
# Stress axis : x y z
#
# Youngs Moduli (GPa) = 41.84695 52.87510 24.91638
#
# Poissons Ratio (x) = 0.30617 0.23150
# Poissons Ratio (y) = 0.24232 0.35338
# Poissons Ratio (z) = 0.38881 0.74992
#
# Static dielectric constant tensor:
#      x y z
#    x 2.703540 0.000000 0.000000 
#    y 0.000000 3.167340 0.000000 
#    z 0.000000 0.000000 2.453270 
# 
# 
# High freq. dielectric constant tensor:
#      x y z
#    x 1.529320 0.000000 0.000000 
#    y 0.000000 1.512870 0.000000 
#    z 0.000000 0.000000 1.463740 
# 
# From -- ./inp_files/70683.got.cif
#   From: 2010.03.12/outbox.cif.g09.slc.cpg/sg74_36_cif.got.tgz:70683.got - 2010.04.16 15:46:19.
