data_PCOD8297546
_publ_section_title
;
Structure prediction by ZEFSAII (Michael W. Deem and Ramdas Pophale) SiO2 
 PCOD8297546
Probable space group: I M M A
;
_chemical_formula_sum "Si O2"
_cell_formula_units_Z 96
_cell_length_a 18.685104
_cell_length_b 22.175807
_cell_length_c 12.665007
_cell_angle_alpha 90.000000
_cell_angle_beta 90.000000
_cell_angle_gamma 90.000000
_cell_volume 5247.837599
_symmetry_space_group_name_H-M "I M M A"
_symmetry_group_IT_number 74
_symmetry_cell_setting 'orthorhombic'
loop_
_space_group_symop_operation_xyz
x,y,z
-x,1/2-y,z
x,-y,-z
-x,1/2+y,-z
-x,-y,-z
x,1/2+y,-z
-x,y,z
x,1/2-y,z
1/2+x,1/2+y,1/2+z
1/2-x,-y,1/2+z
1/2+x,1/2-y,1/2-z
1/2-x,y,1/2-z
1/2-x,1/2-y,1/2-z
1/2+x,y,1/2-z
1/2-x,1/2+y,1/2+z
1/2+x,-y,1/2+z
loop_
_atom_site_type_symbol
_atom_site_label
_atom_site_fract_x
_atom_site_fract_y
_atom_site_fract_z
Si Si1 0.416413 0.180018 0.928036
Si Si2 0.579805 0.182357 0.539314
Si Si3 0.917362 0.483226 0.121762
Si Si4 0.084063 0.393561 0.772786
Si Si5 0.337383 0.861667 0.652023
Si Si6 0.183122 0.319644 0.376073
O O1 0.500000 0.168950 0.952624
O O2 0.403794 0.250000 0.895001
O O3 0.387207 0.134242 0.837321
O O4 0.371694 0.162725 0.031732
O O5 0.500000 0.157196 0.517671
O O6 0.577562 0.250000 0.581761
O O7 0.618534 0.142952 0.629456
O O8 0.622181 0.179392 0.431436
O O9 0.898394 0.536474 0.205359
O O10 0.864734 0.429857 0.152599
O O11 0.000000 0.464134 0.135782
O O12 0.903074 0.500000 0.000000
O O13 0.000000 0.380910 0.774013
O O14 0.253647 0.861265 0.620999
O O15 0.355021 0.831780 0.764571
O O16 0.206378 0.250000 0.384440
#
# Coordination Sequence:
#
# PCOD8297546 Si02
#       6
#    16  16  16  16  16  16
#     4   9  18  35  59  84 111 144 181 223 274 334
#     4  10  18  28  51  84 109 133 175 227 273 323
#     4  10  19  34  56  82 112 147 181 220 273 324
#     4   9  17  32  54  81 112 143 175 218 275 326
#     4  11  20  35  54  76 106 148 185 225 270 324
#     4  10  22  39  56  77 109 148 183 224 282 329
#
# _framework density 18.293248999999999
#
# number of rings (size 3 to 8) (size 9 to 14) (size 15 to 20)
#    0.000    2.167    1.667    3.000    0.000    3.333 
#    0.000    6.667    0.000    6.000    0.000    0.000 
#    0.000    0.000    0.000    0.000    0.000    0.000 
#
# Total GULP energy -595035.341772 kJ/mol
# GULP energy per Si atom -12396.569620 kJ/mol
# Density = 1.825161 g / cm^3
# Si number density = 18.293249 Si / 1000 Ang^3
#
#
#
# Elastic Constant Matrix: (Units=GPa)
#
#
# Indices 1 2 3 4 5 6 
#
# 1 68.3690 45.5694 58.0580 0.0000 0.0000 0.0000
# 2 45.5694 105.5548 51.8556 0.0000 0.0000 0.0000
# 3 58.0580 51.8556 137.0567 0.0000 0.0000 0.0000
# 4 0.0000 0.0000 0.0000 29.0510 0.0000 0.0000
# 5 0.0000 0.0000 0.0000 0.0000 -51.1421 0.0000
# 6 0.0000 0.0000 0.0000 0.0000 0.0000 29.3024
#
#
#
# Elastic Compliance Matrix: (Units=1/GPa)
#
#
# Indices 1 2 3 4 5 6 
#
# 1 0.026815 -0.007365 -0.008572 0.000000 0.000000 0.000000
# 2 -0.007365 0.013660 -0.002048 0.000000 0.000000 0.000000
# 3 -0.008572 -0.002048 0.011703 0.000000 0.000000 0.000000
# 4 0.000000 0.000000 0.000000 0.034422 0.000000 0.000000
# 5 0.000000 0.000000 0.000000 0.000000 -0.019553 0.000000
# 6 0.000000 0.000000 0.000000 0.000000 0.000000 0.034127
#
#
# Mechanical properties :
#
#
# Convention : Reuss Voigt Hill
#
# Bulk Modulus (GPa) = 61.70662 69.10517 65.40590
# Shear Modulus (GPa) = 35.07630 11.80877 23.44253
#
# Velocity S-wave (km/s) = 4.38361 2.54348 3.58367
# Velocity P-wave (km/s) = 7.70886 6.81792 7.27704
#
# Compressibility (1/GPa) = 0.01620572
#
# Stress axis : x y z
#
# Youngs Moduli (GPa) = 37.29239 73.20872 85.45153
#
# Poissons Ratio (x) = 0.53919 0.73253
# Poissons Ratio (y) = 0.27466 0.17502
# Poissons Ratio (z) = 0.31969 0.14995
#
# Static dielectric constant tensor:
#      x y z
#    x 3.143050 0.000000 0.000000 
#    y 0.000000 3.363120 0.000000 
#    z 0.000000 0.000000 3.505250 
# 
# 
# High freq. dielectric constant tensor:
#      x y z
#    x 1.682080 0.000000 0.000000 
#    y 0.000000 1.709440 0.000000 
#    z 0.000000 0.000000 1.714330 
# 
# From -- ./inp_files/22500.got.cif
#   From: 2010.03.12/outbox.cif.g09.slc.cpg/sg74_12_cif.got.tgz:22500.got - 2010.04.16 15:46:19.
