data_PCOD8297693
_publ_section_title
;
Structure prediction by ZEFSAII (Michael W. Deem and Ramdas Pophale) SiO2 
 PCOD8297693
Probable space group: I M M A
;
_chemical_formula_sum "Si O2"
_cell_formula_units_Z 72
_cell_length_a 10.952172
_cell_length_b 17.346386
_cell_length_c 23.554271
_cell_angle_alpha 90.000000
_cell_angle_beta 90.000000
_cell_angle_gamma 90.000000
_cell_volume 4474.854609
_symmetry_space_group_name_H-M "I M M A"
_symmetry_group_IT_number 74
_symmetry_cell_setting 'orthorhombic'
loop_
_space_group_symop_operation_xyz
x,y,z
-x,1/2-y,z
x,-y,-z
-x,1/2+y,-z
-x,-y,-z
x,1/2+y,-z
-x,y,z
x,1/2-y,z
1/2+x,1/2+y,1/2+z
1/2-x,-y,1/2+z
1/2+x,1/2-y,1/2-z
1/2-x,y,1/2-z
1/2-x,1/2-y,1/2-z
1/2+x,y,1/2-z
1/2-x,1/2+y,1/2+z
1/2+x,-y,1/2+z
loop_
_atom_site_type_symbol
_atom_site_label
_atom_site_fract_x
_atom_site_fract_y
_atom_site_fract_z
Si Si1 0.143545 0.036087 0.862376
Si Si2 0.000000 0.159234 0.719857
Si Si3 0.750000 0.416543 0.750000
Si Si4 0.000000 0.159265 0.594200
Si Si5 0.134031 0.927998 0.958507
Si Si6 0.258116 0.340534 0.554051
O O1 0.230976 0.033014 0.806956
O O2 0.161157 0.114215 0.899422
O O3 0.000000 0.031298 0.846381
O O4 0.185219 0.960548 0.898653
O O5 0.125739 0.133446 0.749611
O O6 0.000000 0.250000 0.720439
O O7 0.000000 0.123086 0.656947
O O8 0.881205 0.132004 0.560628
O O9 0.000000 0.250000 0.601186
O O10 0.000000 0.893046 0.948578
O O11 0.212050 0.860897 0.988462
O O12 0.126622 0.000000 0.000000
O O13 0.277779 0.250000 0.565129
#
# Coordination Sequence:
#
# PCOD8297693 Si02
#       6
#    16   8   8   8  16  16
#     4  10  20  33  47  67  94 126 156 194 234 273
#     4  11  22  34  45  67  98 128 163 202 230 267
#     4  12  21  34  50  66  91 132 170 192 228 280
#     4   9  18  30  42  62  98 125 145 184 235 275
#     4   8  16  31  47  64  91 119 150 192 235 271
#     4  10  18  30  48  69  92 122 154 189 233 285
#
# _framework density 16.089908000000001
#
# number of rings (size 3 to 8) (size 9 to 14) (size 15 to 20)
#    0.000    2.222    3.333    2.333    0.000    2.667 
#    0.000    6.111    0.000    0.000    0.000    0.778 
#    0.000    0.000    0.000    0.000    0.000    0.000 
#
# Total GULP energy -446024.049895 kJ/mol
# GULP energy per Si atom -12389.556942 kJ/mol
# Density = 1.605329 g / cm^3
# Si number density = 16.089908 Si / 1000 Ang^3
#
#
#
# Elastic Constant Matrix: (Units=GPa)
#
#
# Indices 1 2 3 4 5 6 
#
# 1 88.4125 14.8121 39.4077 0.0000 0.0000 0.0000
# 2 14.8121 26.6551 31.9321 0.0000 0.0000 0.0000
# 3 39.4077 31.9321 110.5536 0.0000 0.0000 0.0000
# 4 0.0000 0.0000 0.0000 22.9859 0.0000 0.0000
# 5 0.0000 0.0000 0.0000 0.0000 28.7238 0.0000
# 6 0.0000 0.0000 0.0000 0.0000 0.0000 16.3947
#
#
#
# Elastic Compliance Matrix: (Units=1/GPa)
#
#
# Indices 1 2 3 4 5 6 
#
# 1 0.013570 -0.002670 -0.004066 0.000000 0.000000 0.000000
# 2 -0.002670 0.057891 -0.015770 0.000000 0.000000 0.000000
# 3 -0.004066 -0.015770 0.015050 0.000000 0.000000 0.000000
# 4 0.000000 0.000000 0.000000 0.043505 0.000000 0.000000
# 5 0.000000 0.000000 0.000000 0.000000 0.034814 0.000000
# 6 0.000000 0.000000 0.000000 0.000000 0.000000 0.060995
#
#
# Mechanical properties :
#
#
# Convention : Reuss Voigt Hill
#
# Bulk Modulus (GPa) = 24.09624 44.21387 34.15506
# Shear Modulus (GPa) = 17.56418 22.91883 20.24151
#
# Velocity S-wave (km/s) = 3.30756 3.77825 3.55071
# Velocity P-wave (km/s) = 5.44014 6.82440 6.17121
#
# Compressibility (1/GPa) = 0.04150025
#
# Stress axis : x y z
#
# Youngs Moduli (GPa) = 73.69055 17.27376 66.44694
#
# Poissons Ratio (x) = 0.04612 0.27018
# Poissons Ratio (y) = 0.19674 1.04784
# Poissons Ratio (z) = 0.29963 0.27240
#
# Static dielectric constant tensor:
#      x y z
#    x 3.272070 0.000000 0.000000 
#    y 0.000000 2.785160 0.000000 
#    z 0.000000 0.000000 3.299130 
# 
# 
# High freq. dielectric constant tensor:
#      x y z
#    x 1.626200 0.000000 0.000000 
#    y 0.000000 1.570740 0.000000 
#    z 0.000000 0.000000 1.613770 
# 
# From -- ./inp_files/50645.got.cif
#   From: 2010.03.12/outbox.cif.g09.slc.cpg/sg74_26_cif.got.tgz:50645.got - 2010.04.16 15:46:19.
