data_PCOD8297980
_publ_section_title
;
Structure prediction by ZEFSAII (Michael W. Deem and Ramdas Pophale) SiO2 
 PCOD8297980
Probable space group: I M M A
;
_chemical_formula_sum "Si O2"
_cell_formula_units_Z 56
_cell_length_a 7.506807
_cell_length_b 26.437749
_cell_length_c 14.286901
_cell_angle_alpha 90.000000
_cell_angle_beta 90.000000
_cell_angle_gamma 90.000000
_cell_volume 2835.422366
_symmetry_space_group_name_H-M "I M M A"
_symmetry_group_IT_number 74
_symmetry_cell_setting 'orthorhombic'
loop_
_space_group_symop_operation_xyz
x,y,z
-x,1/2-y,z
x,-y,-z
-x,1/2+y,-z
-x,-y,-z
x,1/2+y,-z
-x,y,z
x,1/2-y,z
1/2+x,1/2+y,1/2+z
1/2-x,-y,1/2+z
1/2+x,1/2-y,1/2-z
1/2-x,y,1/2-z
1/2-x,1/2-y,1/2-z
1/2+x,y,1/2-z
1/2-x,1/2+y,1/2+z
1/2+x,-y,1/2+z
loop_
_atom_site_type_symbol
_atom_site_label
_atom_site_fract_x
_atom_site_fract_y
_atom_site_fract_z
Si Si1 0.709116 0.852700 0.050466
Si Si2 0.000000 0.538674 0.875138
Si Si3 0.500000 0.570073 0.413523
Si Si4 0.792897 0.750000 0.358891
Si Si5 0.703815 0.384825 0.154039
O O1 0.500000 0.861397 0.072024
O O2 0.821359 0.896658 0.101736
O O3 0.784041 0.800013 0.091510
O O4 0.749395 0.852339 0.938715
O O5 0.000000 0.479117 0.845835
O O6 0.178035 0.564711 0.836005
O O7 0.000000 0.546397 0.985040
O O8 0.750000 0.750000 0.250000
O O9 0.000000 0.750000 0.376887
O O10 0.500000 0.402150 0.150150
O O11 0.750000 0.353231 0.250000
#
# Coordination Sequence:
#
# PCOD8297980 Si02
#       5
#    16   8   8   8  16
#     4   9  20  36  56  82 107 143 180 224 274 323
#     4   9  18  32  50  82 106 145 183 217 261 312
#     4   9  18  33  56  76 108 138 185 226 259 313
#     4  10  22  40  61  80 106 137 182 228 280 325
#     4  10  18  32  55  79 113 148 180 214 264 322
#
# _framework density 19.750143999999999
#
# number of rings (size 3 to 8) (size 9 to 14) (size 15 to 20)
#    0.000    2.571    1.429    0.000    2.000    1.143 
#    0.000    7.857    0.000    0.000    0.000    0.000 
#    0.000    0.000    0.000    0.000    0.000    0.000 
#
# Total GULP energy -346928.090083 kJ/mol
# GULP energy per Si atom -12390.288932 kJ/mol
# Density = 1.970519 g / cm^3
# Si number density = 19.750144 Si / 1000 Ang^3
#
#
#
# Elastic Constant Matrix: (Units=GPa)
#
#
# Indices 1 2 3 4 5 6 
#
# 1 103.1802 50.4048 28.6613 0.0000 0.0000 0.0001
# 2 50.4048 144.7674 64.0502 0.0001 0.0000 0.0001
# 3 28.6613 64.0502 105.5000 0.0003 -0.0001 0.0003
# 4 0.0000 0.0001 0.0003 19.5609 0.0000 0.0002
# 5 0.0000 0.0000 -0.0001 0.0000 22.2269 0.0001
# 6 0.0001 0.0001 0.0003 0.0002 0.0001 62.1340
#
#
#
# Elastic Compliance Matrix: (Units=1/GPa)
#
#
# Indices 1 2 3 4 5 6 
#
# 1 0.011750 -0.003663 -0.000969 0.000000 0.000000 0.000000
# 2 -0.003663 0.010586 -0.005432 0.000000 0.000000 0.000000
# 3 -0.000969 -0.005432 0.013040 0.000000 0.000000 0.000000
# 4 0.000000 0.000000 0.000000 0.051122 0.000000 0.000000
# 5 0.000000 0.000000 0.000000 0.000000 0.044991 0.000000
# 6 0.000000 0.000000 0.000000 0.000000 0.000000 0.016094
#
#
# Mechanical properties :
#
#
# Convention : Reuss Voigt Hill
#
# Bulk Modulus (GPa) = 65.57542 71.07557 68.32550
# Shear Modulus (GPa) = 28.93647 34.80645 31.87146
#
# Velocity S-wave (km/s) = 3.83185 4.20258 4.02149
# Velocity P-wave (km/s) = 7.26994 7.72103 7.49888
#
# Compressibility (1/GPa) = 0.01524962
#
# Stress axis : x y z
#
# Youngs Moduli (GPa) = 85.10607 94.46313 76.68957
#
# Poissons Ratio (x) = 0.34598 0.07428
# Poissons Ratio (y) = 0.31171 0.41657
# Poissons Ratio (z) = 0.08243 0.51312
#
# Static dielectric constant tensor:
#      x y z
#    x 3.681140 0.000000 0.000000 
#    y 0.000000 3.766200 0.000000 
#    z 0.000000 0.000000 3.738470 
# 
# 
# High freq. dielectric constant tensor:
#      x y z
#    x 1.782880 0.000000 0.000000 
#    y 0.000000 1.741420 0.000000 
#    z 0.000000 0.000000 1.766520 
# 
# From -- ./inp_files/28560.got.cif
#   From: 2010.03.12/outbox.cif.g09.slc.cpg/sg74_15_cif.got.tgz:28560.got - 2010.04.16 15:46:19.
