data_PCOD8297343
_publ_section_title
;
Structure prediction by ZEFSAII (Michael W. Deem and Ramdas Pophale) SiO2 
 PCOD8297343
Probable space group: I M M A
;
_chemical_formula_sum "Si O2"
_cell_formula_units_Z 72
_cell_length_a 21.865591
_cell_length_b 14.842899
_cell_length_c 13.662423
_cell_angle_alpha 90.000000
_cell_angle_beta 90.000000
_cell_angle_gamma 90.000000
_cell_volume 4434.122427
_symmetry_space_group_name_H-M "I M M A"
_symmetry_group_IT_number 74
_symmetry_cell_setting 'orthorhombic'
loop_
_space_group_symop_operation_xyz
x,y,z
-x,1/2-y,z
x,-y,-z
-x,1/2+y,-z
-x,-y,-z
x,1/2+y,-z
-x,y,z
x,1/2-y,z
1/2+x,1/2+y,1/2+z
1/2-x,-y,1/2+z
1/2+x,1/2-y,1/2-z
1/2-x,y,1/2-z
1/2-x,1/2-y,1/2-z
1/2+x,y,1/2-z
1/2-x,1/2+y,1/2+z
1/2+x,-y,1/2+z
loop_
_atom_site_type_symbol
_atom_site_label
_atom_site_fract_x
_atom_site_fract_y
_atom_site_fract_z
Si Si1 0.729019 0.060722 0.093934
Si Si2 0.244620 0.750000 0.944242
Si Si3 0.133637 0.750000 0.822403
Si Si4 0.151594 0.057859 0.221664
Si Si5 0.878390 0.750000 0.037015
Si Si6 0.071891 0.559732 0.094671
O O1 0.713132 0.161560 0.056311
O O2 0.797988 0.058595 0.135171
O O3 0.680941 0.028224 0.175597
O O4 0.722620 0.000000 0.000000
O O5 0.206723 0.750000 0.842185
O O6 0.196150 0.750000 0.035265
O O7 0.119949 0.843052 0.765100
O O8 0.096075 0.750000 0.925155
O O9 0.100025 0.986516 0.191327
O O10 0.901679 0.839558 0.089968
O O11 0.000000 0.565658 0.108776
O O12 0.089499 0.500000 0.000000
#
# Coordination Sequence:
#
# PCOD8297343 Si02
#       6
#    16   8   8  16   8  16
#     4  10  18  29  49  71  96 128 162 205 252 300
#     4   8  15  27  47  67  94 118 158 197 247 283
#     4   8  15  27  48  66  91 122 151 203 243 284
#     4  10  18  31  47  71  98 126 164 203 252 300
#     4  10  17  30  48  67  99 126 163 197 242 296
#     4  11  20  31  47  69  98 131 161 197 249 304
#
# _framework density 16.237711000000001
#
# number of rings (size 3 to 8) (size 9 to 14) (size 15 to 20)
#    0.667    1.556    2.222    3.000    0.000    2.667 
#    0.000    1.667    0.000    4.667    0.000    0.000 
#    0.000    0.000    0.000    0.000    0.000    0.000 
#
# Total GULP energy -446124.305513 kJ/mol
# GULP energy per Si atom -12392.341820 kJ/mol
# Density = 1.620075 g / cm^3
# Si number density = 16.237711 Si / 1000 Ang^3
#
#
#
# Elastic Constant Matrix: (Units=GPa)
#
#
# Indices 1 2 3 4 5 6 
#
# 1 46.8529 26.1548 33.1872 0.0000 0.0000 0.0000
# 2 26.1548 123.8511 52.3468 0.0000 0.0000 0.0000
# 3 33.1872 52.3468 79.9434 0.0000 0.0000 0.0000
# 4 0.0000 0.0000 0.0000 13.4756 0.0000 0.0000
# 5 0.0000 0.0000 0.0000 0.0000 21.4846 0.0000
# 6 0.0000 0.0000 0.0000 0.0000 0.0000 12.0688
#
#
#
# Elastic Compliance Matrix: (Units=1/GPa)
#
#
# Indices 1 2 3 4 5 6 
#
# 1 0.030435 -0.001503 -0.011650 0.000000 0.000000 0.000000
# 2 -0.001503 0.011238 -0.006735 0.000000 0.000000 0.000000
# 3 -0.011650 -0.006735 0.021755 0.000000 0.000000 0.000000
# 4 0.000000 0.000000 0.000000 0.074208 0.000000 0.000000
# 5 0.000000 0.000000 0.000000 0.000000 0.046545 0.000000
# 6 0.000000 0.000000 0.000000 0.000000 0.000000 0.082858
#
#
# Mechanical properties :
#
#
# Convention : Reuss Voigt Hill
#
# Bulk Modulus (GPa) = 42.28004 52.66944 47.47474
# Shear Modulus (GPa) = 15.88820 18.66972 17.27896
#
# Velocity S-wave (km/s) = 3.13145 3.39451 3.26563
# Velocity P-wave (km/s) = 6.25854 6.91885 6.59696
#
# Compressibility (1/GPa) = 0.02365182
#
# Stress axis : x y z
#
# Youngs Moduli (GPa) = 32.85734 88.98279 45.96621
#
# Poissons Ratio (x) = 0.13375 0.53551
# Poissons Ratio (y) = 0.04939 0.30957
# Poissons Ratio (z) = 0.38279 0.59927
#
# Static dielectric constant tensor:
#      x y z
#    x 2.750390 0.000000 0.000000 
#    y 0.000000 3.250080 0.000000 
#    z 0.000000 0.000000 2.717940 
# 
# 
# High freq. dielectric constant tensor:
#      x y z
#    x 1.582650 0.000000 0.000000 
#    y 0.000000 1.642170 0.000000 
#    z 0.000000 0.000000 1.582530 
# 
# From -- ./inp_files/33862.got.cif
#   From: 2010.03.12/outbox.cif.g09.slc.cpg/sg74_17_cif.got.tgz:33862.got - 2010.04.16 15:46:19.
