data_PCOD8297082
_publ_section_title
;
Structure prediction by ZEFSAII (Michael W. Deem and Ramdas Pophale) SiO2 
 PCOD8297082
Probable space group: I B C A 
;
_chemical_formula_sum "Si O2"
_cell_formula_units_Z 72
_cell_length_a 8.094169
_cell_length_b 17.468360
_cell_length_c 20.906047
_cell_angle_alpha 90.000000
_cell_angle_beta 90.000000
_cell_angle_gamma 90.000000
_cell_volume 2955.944829
_symmetry_space_group_name_H-M "I B C A "
_symmetry_group_IT_number 73
_symmetry_cell_setting 'orthorhombic'
loop_
_space_group_symop_operation_xyz
x,y,z
-x,1/2-y,z
x,-y,1/2-z
1/2-x,y,-z
-x,-y,-z
x,1/2+y,-z
-x,y,1/2+z
1/2+x,-y,z
1/2+x,1/2+y,1/2+z
1/2-x,-y,1/2+z
1/2+x,1/2-y,-z
-x,1/2+y,1/2-z
1/2-x,1/2-y,1/2-z
1/2+x,y,1/2-z
1/2-x,1/2+y,z
x,1/2-y,1/2+z
loop_
_atom_site_type_symbol
_atom_site_label
_atom_site_fract_x
_atom_site_fract_y
_atom_site_fract_z
Si Si1 0.750000 0.553621 0.000000
Si Si2 0.500737 0.447120 0.197038
Si Si3 0.841057 0.705229 0.193443
Si Si4 0.933267 0.830478 0.413354
Si Si5 0.697925 0.947261 0.116717
O O1 0.883880 0.611263 0.969636
O O2 0.674602 0.495580 0.948257
O O3 0.593004 0.500000 0.250000
O O4 0.215327 0.315934 0.136375
O O5 0.349320 0.497325 0.173615
O O6 0.614521 0.425421 0.135407
O O7 0.750000 0.750000 0.250000
O O8 0.000000 0.750000 0.165280
O O9 0.917878 0.629249 0.225954
O O10 0.000000 0.750000 0.441816
O O11 0.089879 0.870322 0.380066
#
# Coordination Sequence:
#
# PCOD8297082 Si02
#       5
#     8  16  16  16  16
#     4  12  26  52  82 118 158 216 274 330 400 476
#     4  12  27  46  79 114 156 211 262 326 398 474
#     4  12  29  49  77 111 161 205 261 325 402 474
#     4  12  28  51  77 115 159 205 267 333 406 478
#     4  12  26  50  81 114 159 206 274 329 395 479
#
# _framework density 24.357693000000001
#
# number of rings (size 3 to 8) (size 9 to 14) (size 15 to 20)
#    0.000    0.000    4.444    3.333   12.444    1.778 
#    0.000    0.000    0.000    0.000    0.000    0.000 
#    0.000    0.000    0.000    0.000    0.000    0.000 
#
# Total GULP energy -446146.041021 kJ/mol
# GULP energy per Si atom -12392.945584 kJ/mol
# Density = 2.430225 g / cm^3
# Si number density = 24.357693 Si / 1000 Ang^3
#
#
#
# Elastic Constant Matrix: (Units=GPa)
#
#
# Indices 1 2 3 4 5 6 
#
# 1 110.4501 72.1435 41.5436 0.0000 0.0000 0.0000
# 2 72.1435 190.9190 53.3422 0.0000 0.0000 0.0000
# 3 41.5436 53.3422 112.3458 0.0000 0.0000 0.0000
# 4 0.0000 0.0000 0.0000 36.7184 0.0000 0.0000
# 5 0.0000 0.0000 0.0000 0.0000 20.8773 0.0000
# 6 0.0000 0.0000 0.0000 0.0000 0.0000 29.0119
#
#
#
# Elastic Compliance Matrix: (Units=1/GPa)
#
#
# Indices 1 2 3 4 5 6 
#
# 1 0.012740 -0.004033 -0.002796 0.000000 0.000000 0.000000
# 2 -0.004033 0.007316 -0.001982 0.000000 0.000000 0.000000
# 3 -0.002796 -0.001982 0.010876 0.000000 0.000000 0.000000
# 4 0.000000 0.000000 0.000000 0.027234 0.000000 0.000000
# 5 0.000000 0.000000 0.000000 0.000000 0.047899 0.000000
# 6 0.000000 0.000000 0.000000 0.000000 0.000000 0.034469
#
#
# Mechanical properties :
#
#
# Convention : Reuss Voigt Hill
#
# Bulk Modulus (GPa) = 75.13597 83.08595 79.11096
# Shear Modulus (GPa) = 30.75185 33.76724 32.25954
#
# Velocity S-wave (km/s) = 3.55704 3.72735 3.64319
# Velocity P-wave (km/s) = 6.91259 7.26010 7.08847
#
# Compressibility (1/GPa) = 0.01330920
#
# Stress axis : x y z
#
# Youngs Moduli (GPa) = 78.49484 136.69566 91.94381
#
# Poissons Ratio (x) = 0.55126 0.25709
# Poissons Ratio (y) = 0.31655 0.18225
# Poissons Ratio (z) = 0.21948 0.27096
#
# Static dielectric constant tensor:
#      x y z
#    x 4.497750 0.000000 0.000000 
#    y 0.000000 4.842820 0.000000 
#    z 0.000000 0.000000 10.515840 
# 
# 
# High freq. dielectric constant tensor:
#      x y z
#    x 1.982600 0.000000 0.000000 
#    y 0.000000 1.990900 0.000000 
#    z 0.000000 0.000000 1.952960 
# 
# From -- ./inp_files/20596.got.cif
#   From: 2010.03.12/outbox.cif.g09.slc.cpg/sg73_11_cif.got.tgz:20596.got - 2010.04.16 15:25:48.
