data_PCOD8297572
_publ_section_title
;
Structure prediction by ZEFSAII (Michael W. Deem and Ramdas Pophale) SiO2 
 PCOD8297572
Probable space group: I M M A
;
_chemical_formula_sum "Si O2"
_cell_formula_units_Z 96
_cell_length_a 10.117589
_cell_length_b 27.624474
_cell_length_c 20.430779
_cell_angle_alpha 90.000000
_cell_angle_beta 90.000000
_cell_angle_gamma 90.000000
_cell_volume 5710.261233
_symmetry_space_group_name_H-M "I M M A"
_symmetry_group_IT_number 74
_symmetry_cell_setting 'orthorhombic'
loop_
_space_group_symop_operation_xyz
x,y,z
-x,1/2-y,z
x,-y,-z
-x,1/2+y,-z
-x,-y,-z
x,1/2+y,-z
-x,y,z
x,1/2-y,z
1/2+x,1/2+y,1/2+z
1/2-x,-y,1/2+z
1/2+x,1/2-y,1/2-z
1/2-x,y,1/2-z
1/2-x,1/2-y,1/2-z
1/2+x,y,1/2-z
1/2-x,1/2+y,1/2+z
1/2+x,-y,1/2+z
loop_
_atom_site_type_symbol
_atom_site_label
_atom_site_fract_x
_atom_site_fract_y
_atom_site_fract_z
Si Si1 0.154282 0.497742 0.694142
Si Si2 0.241023 0.896950 0.657112
Si Si3 0.000000 0.671855 0.679125
Si Si4 0.154046 0.958409 0.449674
Si Si5 0.500000 0.806920 0.537289
Si Si6 0.500000 0.302645 0.039217
Si Si7 0.000000 0.343140 0.182524
Si Si8 0.251286 0.867671 0.985324
O O1 0.250000 0.474354 0.750000
O O2 0.197602 0.552825 0.687189
O O3 0.179867 0.472144 0.625155
O O4 0.000000 0.493516 0.714634
O O5 0.130420 0.858783 0.672326
O O6 0.376014 0.878903 0.689517
O O7 0.260211 0.900419 0.579412
O O8 0.000000 0.693140 0.753744
O O9 0.000000 0.708339 0.617912
O O10 0.233475 0.907974 0.458345
O O11 0.000000 0.948897 0.464396
O O12 0.204448 0.000000 0.500000
O O13 0.500000 0.750000 0.519842
O O14 0.500000 0.811799 0.616340
O O15 0.375172 0.833401 0.504921
O O16 0.500000 0.250000 0.005292
O O17 0.625950 0.331842 0.015610
#
# Coordination Sequence:
#
# PCOD8297572 Si02
#       8
#    16  16   8  16   8   8   8  16
#     4  11  22  34  51  76 111 145 179 215 260 314
#     4  10  19  30  46  70  98 137 178 221 257 298
#     4  10  18  29  45  65  96 131 180 223 268 305
#     4  10  19  34  58  81 107 141 181 221 266 316
#     4  10  22  37  52  70 104 143 176 223 281 320
#     4  10  20  31  52  76  98 125 174 239 277 308
#     4  10  20  31  45  65  98 139 182 219 260 311
#     4  10  19  36  53  76 102 135 180 222 269 315
#
# _framework density 16.81184
#
# number of rings (size 3 to 8) (size 9 to 14) (size 15 to 20)
#    0.000    1.833    3.333    2.000    1.167    0.333 
#    1.500    0.417    0.000    6.000    0.000    0.000 
#    0.000    4.000    0.000    0.000    0.000    0.000 
#
# Total GULP energy -594833.324150 kJ/mol
# GULP energy per Si atom -12392.360920 kJ/mol
# Density = 1.677358 g / cm^3
# Si number density = 16.811840 Si / 1000 Ang^3
#
#
#
# Elastic Constant Matrix: (Units=GPa)
#
#
# Indices 1 2 3 4 5 6 
#
# 1 127.6714 45.3830 38.7447 0.0000 0.0000 0.0000
# 2 45.3830 99.0983 41.5843 0.0000 0.0000 0.0000
# 3 38.7447 41.5843 71.6797 -0.0001 0.0001 0.0004
# 4 0.0000 0.0000 -0.0001 5.5515 0.0000 0.0001
# 5 0.0000 0.0000 0.0001 0.0000 23.0680 0.0000
# 6 0.0000 0.0000 0.0004 0.0001 0.0000 54.7607
#
#
#
# Elastic Compliance Matrix: (Units=1/GPa)
#
#
# Indices 1 2 3 4 5 6 
#
# 1 0.010027 -0.003063 -0.003643 0.000000 0.000000 0.000000
# 2 -0.003063 0.014274 -0.006625 0.000000 0.000000 0.000000
# 3 -0.003643 -0.006625 0.019763 0.000001 0.000000 0.000000
# 4 0.000000 0.000000 0.000001 0.180131 0.000000 0.000000
# 5 0.000000 0.000000 0.000000 0.000000 0.043350 0.000000
# 6 0.000000 0.000000 0.000000 0.000000 0.000000 0.018261
#
#
# Mechanical properties :
#
#
# Convention : Reuss Voigt Hill
#
# Bulk Modulus (GPa) = 57.46431 61.09705 59.28068
# Shear Modulus (GPa) = 15.70993 28.19187 21.95090
#
# Velocity S-wave (km/s) = 3.06020 4.09945 3.61734
# Velocity P-wave (km/s) = 6.83678 7.66993 7.26531
#
# Compressibility (1/GPa) = 0.01740210
#
# Stress axis : x y z
#
# Youngs Moduli (GPa) = 99.73090 70.05766 50.59864
#
# Poissons Ratio (x) = 0.21461 0.18431
# Poissons Ratio (y) = 0.30551 0.33522
# Poissons Ratio (z) = 0.36328 0.46414
#
# Static dielectric constant tensor:
#      x y z
#    x 4.597940 0.000000 0.000000 
#    y 0.000000 2.948630 0.000000 
#    z 0.000000 0.000000 3.182080 
# 
# 
# High freq. dielectric constant tensor:
#      x y z
#    x 1.658250 0.000000 0.000000 
#    y 0.000000 1.626770 0.000000 
#    z 0.000000 0.000000 1.624330 
# 
# From -- ./inp_files/57558.got.cif
#   From: 2010.03.12/outbox.cif.g09.slc.cpg/sg74_29_cif.got.tgz:57558.got - 2010.04.16 15:46:19.
