data_PCOD8297764
_publ_section_title
;
Structure prediction by ZEFSAII (Michael W. Deem and Ramdas Pophale) SiO2 
 PCOD8297764
Probable space group: I M M A
;
_chemical_formula_sum "Si O2"
_cell_formula_units_Z 72
_cell_length_a 18.040453
_cell_length_b 15.546813
_cell_length_c 14.053049
_cell_angle_alpha 90.000000
_cell_angle_beta 90.000000
_cell_angle_gamma 90.000000
_cell_volume 3941.480424
_symmetry_space_group_name_H-M "I M M A"
_symmetry_group_IT_number 74
_symmetry_cell_setting 'orthorhombic'
loop_
_space_group_symop_operation_xyz
x,y,z
-x,1/2-y,z
x,-y,-z
-x,1/2+y,-z
-x,-y,-z
x,1/2+y,-z
-x,y,z
x,1/2-y,z
1/2+x,1/2+y,1/2+z
1/2-x,-y,1/2+z
1/2+x,1/2-y,1/2-z
1/2-x,y,1/2-z
1/2-x,1/2-y,1/2-z
1/2+x,y,1/2-z
1/2-x,1/2+y,1/2+z
1/2+x,-y,1/2+z
loop_
_atom_site_type_symbol
_atom_site_label
_atom_site_fract_x
_atom_site_fract_y
_atom_site_fract_z
Si Si1 0.662771 0.841492 0.729187
Si Si2 0.709391 0.000000 0.000000
Si Si3 0.332836 0.519947 0.205914
Si Si4 0.414412 0.150278 0.663745
Si Si5 0.182087 0.654347 0.983317
O O1 0.631647 0.750000 0.771229
O O2 0.750000 0.843553 0.750000
O O3 0.641571 0.842541 0.617853
O O4 0.628056 0.927605 0.773696
O O5 0.663230 0.970248 0.092003
O O6 0.755044 0.916303 0.970669
O O7 0.250000 0.525618 0.250000
O O8 0.380982 0.596151 0.249712
O O9 0.500000 0.127287 0.651009
O O10 0.402489 0.250000 0.688770
O O11 0.374606 0.125056 0.565163
O O12 0.214588 0.750000 0.006928
#
# Coordination Sequence:
#
# PCOD8297764 Si02
#       5
#    16   8  16  16  16
#     4   9  16  29  49  75 108 142 172 215 270 328
#     4  12  20  32  50  86 112 134 182 242 272 324
#     4  11  20  33  56  79 112 142 185 231 278 324
#     4  10  22  39  56  79 114 152 186 225 277 333
#     4  10  18  30  52  79 107 139 179 223 274 328
#
# _framework density 18.267247999999999
#
# number of rings (size 3 to 8) (size 9 to 14) (size 15 to 20)
#    0.000    1.778    6.667    0.000    0.000    1.333 
#    0.000    5.556    0.000    2.000    0.000    0.000 
#    0.000    0.000    0.000    0.000    0.000    0.000 
#
# Total GULP energy -446033.327391 kJ/mol
# GULP energy per Si atom -12389.814650 kJ/mol
# Density = 1.822567 g / cm^3
# Si number density = 18.267248 Si / 1000 Ang^3
#
#
#
# Elastic Constant Matrix: (Units=GPa)
#
#
# Indices 1 2 3 4 5 6 
#
# 1 34.9297 19.2469 24.1998 0.0000 0.0000 0.0000
# 2 19.2469 85.8552 16.4432 0.0000 0.0000 0.0000
# 3 24.1998 16.4432 118.3504 0.0000 0.0000 0.0000
# 4 0.0000 0.0000 0.0000 28.8713 0.0000 0.0000
# 5 0.0000 0.0000 0.0000 0.0000 13.1559 0.0000
# 6 0.0000 0.0000 0.0000 0.0000 0.0000 18.4822
#
#
#
# Elastic Compliance Matrix: (Units=1/GPa)
#
#
# Indices 1 2 3 4 5 6 
#
# 1 0.037089 -0.007050 -0.006604 0.000000 0.000000 0.000000
# 2 -0.007050 0.013306 -0.000407 0.000000 0.000000 0.000000
# 3 -0.006604 -0.000407 0.009856 0.000000 0.000000 0.000000
# 4 0.000000 0.000000 0.000000 0.034636 0.000000 0.000000
# 5 0.000000 0.000000 0.000000 0.000000 0.076011 0.000000
# 6 0.000000 0.000000 0.000000 0.000000 0.000000 0.054106
#
#
# Mechanical properties :
#
#
# Convention : Reuss Voigt Hill
#
# Bulk Modulus (GPa) = 31.12456 39.87947 35.50202
# Shear Modulus (GPa) = 18.95106 24.05158 21.50132
#
# Velocity S-wave (km/s) = 3.22442 3.63250 3.43453
# Velocity P-wave (km/s) = 5.56219 6.28267 5.93338
#
# Compressibility (1/GPa) = 0.03212896
#
# Stress axis : x y z
#
# Youngs Moduli (GPa) = 26.96213 75.15467 101.45600
#
# Poissons Ratio (x) = 0.52982 0.67005
# Poissons Ratio (y) = 0.19007 0.04131
# Poissons Ratio (z) = 0.17807 0.03060
#
# Static dielectric constant tensor:
#      x y z
#    x 2.831480 0.000000 0.000000 
#    y 0.000000 3.925460 0.000000 
#    z 0.000000 0.000000 3.535240 
# 
# 
# High freq. dielectric constant tensor:
#      x y z
#    x 1.635020 0.000000 0.000000 
#    y 0.000000 1.740080 0.000000 
#    z 0.000000 0.000000 1.713620 
# 
# From -- ./inp_files/33821.got.cif
#   From: 2010.03.12/outbox.cif.g09.slc.cpg/sg74_17_cif.got.tgz:33821.got - 2010.04.16 15:46:19.
