data_PCOD8297385
_publ_section_title
;
Structure prediction by ZEFSAII (Michael W. Deem and Ramdas Pophale) SiO2 
 PCOD8297385
Probable space group: I M M A
;
_chemical_formula_sum "Si O2"
_cell_formula_units_Z 72
_cell_length_a 16.564064
_cell_length_b 26.788175
_cell_length_c 8.764699
_cell_angle_alpha 90.000000
_cell_angle_beta 90.000000
_cell_angle_gamma 90.000000
_cell_volume 3889.081401
_symmetry_space_group_name_H-M "I M M A"
_symmetry_group_IT_number 74
_symmetry_cell_setting 'orthorhombic'
loop_
_space_group_symop_operation_xyz
x,y,z
-x,1/2-y,z
x,-y,-z
-x,1/2+y,-z
-x,-y,-z
x,1/2+y,-z
-x,y,z
x,1/2-y,z
1/2+x,1/2+y,1/2+z
1/2-x,-y,1/2+z
1/2+x,1/2-y,1/2-z
1/2-x,y,1/2-z
1/2-x,1/2-y,1/2-z
1/2+x,y,1/2-z
1/2-x,1/2+y,1/2+z
1/2+x,-y,1/2+z
loop_
_atom_site_type_symbol
_atom_site_label
_atom_site_fract_x
_atom_site_fract_y
_atom_site_fract_z
Si Si1 0.355319 0.055621 0.004646
Si Si2 0.250000 0.093416 0.750000
Si Si3 0.750000 0.896745 0.750000
Si Si4 0.863416 0.632193 0.007786
Si Si5 0.500000 0.692755 0.371904
Si Si6 0.500000 0.395515 0.860184
Si Si7 0.000000 0.557122 0.045282
O O1 0.315162 0.068380 0.166331
O O2 0.286391 0.057100 0.876844
O O3 0.422833 0.097144 0.968720
O O4 0.392587 0.000000 0.000000
O O5 0.182624 0.127862 0.830174
O O6 0.700777 0.861910 0.630094
O O7 0.920987 0.680575 0.025037
O O8 0.919506 0.583430 0.979236
O O9 0.500000 0.750000 0.322332
O O10 0.500000 0.658922 0.218638
O O11 0.500000 0.437914 0.728833
O O12 0.000000 0.500000 0.000000
#
# Coordination Sequence:
#
# PCOD8297385 Si02
#       7
#    16   8   8  16   8   8   8
#     4  11  21  33  53  83 121 158 194 220 275 336
#     4  10  17  36  53  74 125 147 191 234 271 326
#     4  10  23  34  55  84 121 159 181 230 295 336
#     4   9  20  37  57  84 112 150 189 241 285 343
#     4  10  20  42  68  85 102 149 200 247 299 341
#     4  10  21  38  54  82 115 147 194 252 265 340
#     4  10  20  32  54  74 116 157 200 232 275 329
#
# _framework density 18.513369999999998
#
# number of rings (size 3 to 8) (size 9 to 14) (size 15 to 20)
#    0.000    2.222    4.444    1.000    3.111    5.333 
#    0.000    1.111    0.000    2.667    0.000    0.000 
#    0.000    0.000    0.000    0.000    0.000    0.000 
#
# Total GULP energy -446267.027598 kJ/mol
# GULP energy per Si atom -12396.306322 kJ/mol
# Density = 1.847123 g / cm^3
# Si number density = 18.513370 Si / 1000 Ang^3
#
#
#
# Elastic Constant Matrix: (Units=GPa)
#
#
# Indices 1 2 3 4 5 6 
#
# 1 105.3518 42.2544 39.5183 0.0002 -0.0002 -0.0001
# 2 42.2544 120.4217 32.3308 -0.0002 0.0000 -0.0001
# 3 39.5183 32.3308 96.7896 -0.0050 -0.0008 0.0006
# 4 0.0002 -0.0002 -0.0050 14.5124 -0.0002 -0.0001
# 5 -0.0002 0.0000 -0.0008 -0.0002 42.3947 -0.0003
# 6 -0.0001 -0.0001 0.0006 -0.0001 -0.0003 12.2757
#
#
#
# Elastic Compliance Matrix: (Units=1/GPa)
#
#
# Indices 1 2 3 4 5 6 
#
# 1 0.012267 -0.003251 -0.003923 -0.000002 0.000000 0.000000
# 2 -0.003251 0.009984 -0.002007 -0.000001 0.000000 0.000000
# 3 -0.003923 -0.002007 0.012604 0.000004 0.000000 -0.000001
# 4 -0.000002 -0.000001 0.000004 0.068907 0.000000 0.000001
# 5 0.000000 0.000000 0.000000 0.000000 0.023588 0.000001
# 6 0.000000 0.000000 -0.000001 0.000001 0.000001 0.081462
#
#
# Mechanical properties :
#
#
# Convention : Reuss Voigt Hill
#
# Bulk Modulus (GPa) = 60.63417 61.19668 60.91543
# Shear Modulus (GPa) = 21.48949 27.73386 24.61167
#
# Velocity S-wave (km/s) = 3.41068 3.87466 3.65005
# Velocity P-wave (km/s) = 6.95219 7.29002 7.12311
#
# Compressibility (1/GPa) = 0.01649235
#
# Stress axis : x y z
#
# Youngs Moduli (GPa) = 81.51641 100.16055 79.34102
#
# Poissons Ratio (x) = 0.32566 0.31123
# Poissons Ratio (y) = 0.26504 0.15927
# Poissons Ratio (z) = 0.31976 0.20107
#
# Static dielectric constant tensor:
#      x y z
#    x 3.731970 0.000000 0.000000 
#    y 0.000000 2.825130 0.000000 
#    z 0.000000 0.000000 3.439560 
# 
# 
# High freq. dielectric constant tensor:
#      x y z
#    x 1.742420 0.000000 0.000000 
#    y 0.000000 1.657790 0.000000 
#    z 0.000000 0.000000 1.717770 
# 
# From -- ./inp_files/9379.got.cif
#   From: 2010.03.12/outbox.cif.g09.slc.cpg/sg74_5_cif.got.tgz:9379.got - 2010.04.16 15:46:19.
