data_PCOD8297119
_publ_section_title
;
Structure prediction by ZEFSAII (Michael W. Deem and Ramdas Pophale) SiO2 
 PCOD8297119
Probable space group: I M M A
;
_chemical_formula_sum "Si O2"
_cell_formula_units_Z 96
_cell_length_a 18.116570
_cell_length_b 21.512677
_cell_length_c 16.252543
_cell_angle_alpha 90.000000
_cell_angle_beta 90.000000
_cell_angle_gamma 90.000000
_cell_volume 6334.199778
_symmetry_space_group_name_H-M "I M M A"
_symmetry_group_IT_number 74
_symmetry_cell_setting 'orthorhombic'
loop_
_space_group_symop_operation_xyz
x,y,z
-x,1/2-y,z
x,-y,-z
-x,1/2+y,-z
-x,-y,-z
x,1/2+y,-z
-x,y,z
x,1/2-y,z
1/2+x,1/2+y,1/2+z
1/2-x,-y,1/2+z
1/2+x,1/2-y,1/2-z
1/2-x,y,1/2-z
1/2-x,1/2-y,1/2-z
1/2+x,y,1/2-z
1/2-x,1/2+y,1/2+z
1/2+x,-y,1/2+z
loop_
_atom_site_type_symbol
_atom_site_label
_atom_site_fract_x
_atom_site_fract_y
_atom_site_fract_z
Si Si1 0.081944 0.182537 0.278954
Si Si2 0.265821 0.573236 0.654851
Si Si3 0.380557 0.509158 0.874142
Si Si4 0.082633 0.399474 0.517179
Si Si5 0.308790 0.179087 0.071009
Si Si6 0.419111 0.944339 0.699439
O O1 0.096212 0.250000 0.237249
O O2 0.137268 0.171735 0.352436
O O3 0.091475 0.129753 0.211073
O O4 0.000000 0.179382 0.317446
O O5 0.250000 0.592610 0.750000
O O6 0.207310 0.521126 0.627399
O O7 0.259568 0.633792 0.594638
O O8 0.347065 0.540716 0.643820
O O9 0.418214 0.556573 0.937211
O O10 0.417008 0.518983 0.785291
O O11 0.395118 0.438708 0.901955
O O12 0.143812 0.344806 0.507557
O O13 0.000000 0.371999 0.528843
O O14 0.282101 0.250000 0.056244
O O15 0.500000 0.958084 0.658550
#
# Coordination Sequence:
#
# PCOD8297119 Si02
#       6
#    16  16  16  16  16  16
#     4   9  15  21  30  46  70  99 127 149 171 204
#     4   9  16  26  35  52  75 100 129 157 184 220
#     4   9  16  24  36  52  72  97 126 155 186 222
#     4  10  16  24  37  53  72  97 128 157 184 217
#     4  10  18  25  35  51  74 103 130 153 181 216
#     4  10  16  25  37  52  74  99 127 159 189 218
#
# _framework density 15.155822000000001
#
# number of rings (size 3 to 8) (size 9 to 14) (size 15 to 20)
#    0.000    2.500    5.000    2.500    0.000    2.000 
#    0.000    0.000    0.000    0.000    0.000    9.333 
#    0.000    6.000    0.000    0.333    0.000    0.000 
#
# Total GULP energy -594627.746257 kJ/mol
# GULP energy per Si atom -12388.078047 kJ/mol
# Density = 1.512133 g / cm^3
# Si number density = 15.155822 Si / 1000 Ang^3
#
#
#
# Elastic Constant Matrix: (Units=GPa)
#
#
# Indices 1 2 3 4 5 6 
#
# 1 111.4376 15.1059 19.7383 0.0000 0.0000 0.0000
# 2 15.1059 33.4173 17.2036 0.0000 0.0000 0.0000
# 3 19.7383 17.2036 23.3957 0.0000 0.0000 0.0000
# 4 0.0000 0.0000 0.0000 13.2155 0.0000 0.0000
# 5 0.0000 0.0000 0.0000 0.0000 17.8380 0.0000
# 6 0.0000 0.0000 0.0000 0.0000 0.0000 12.2969
#
#
#
# Elastic Compliance Matrix: (Units=1/GPa)
#
#
# Indices 1 2 3 4 5 6 
#
# 1 0.010552 -0.000301 -0.008681 0.000000 0.000000 0.000000
# 2 -0.000301 0.048162 -0.035161 0.000000 0.000000 0.000000
# 3 -0.008681 -0.035161 0.075923 0.000000 0.000000 0.000000
# 4 0.000000 0.000000 0.000000 0.075669 0.000000 0.000000
# 5 0.000000 0.000000 0.000000 0.000000 0.056060 0.000000
# 6 0.000000 0.000000 0.000000 0.000000 0.000000 0.081321
#
#
# Mechanical properties :
#
#
# Convention : Reuss Voigt Hill
#
# Bulk Modulus (GPa) = 21.57514 30.26068 25.91791
# Shear Modulus (GPa) = 11.07607 16.41693 13.74650
#
# Velocity S-wave (km/s) = 2.70629 3.29479 3.01493
# Velocity P-wave (km/s) = 4.90222 5.87230 5.40905
#
# Compressibility (1/GPa) = 0.04634963
#
# Stress axis : x y z
#
# Youngs Moduli (GPa) = 94.76812 20.76328 13.17133
#
# Poissons Ratio (x) = 0.00624 0.11435
# Poissons Ratio (y) = 0.02849 0.46312
# Poissons Ratio (z) = 0.82272 0.73007
#
# Static dielectric constant tensor:
#      x y z
#    x 3.286030 0.000000 0.000000 
#    y 0.000000 2.983820 0.000000 
#    z 0.000000 0.000000 2.541320 
# 
# 
# High freq. dielectric constant tensor:
#      x y z
#    x 1.591620 0.000000 0.000000 
#    y 0.000000 1.556110 0.000000 
#    z 0.000000 0.000000 1.510380 
# 
# From -- ./inp_files/44323.got.cif
#   From: 2010.03.12/outbox.cif.g09.slc.cpg/sg74_23_cif.got.tgz:44323.got - 2010.04.16 15:46:19.
