data_PCOD8297120
_publ_section_title
;
Structure prediction by ZEFSAII (Michael W. Deem and Ramdas Pophale) SiO2 
 PCOD8297120
Probable space group: I M M A
;
_chemical_formula_sum "Si O2"
_cell_formula_units_Z 112
_cell_length_a 18.394287
_cell_length_b 23.965352
_cell_length_c 16.178896
_cell_angle_alpha 90.000000
_cell_angle_beta 90.000000
_cell_angle_gamma 90.000000
_cell_volume 7132.070934
_symmetry_space_group_name_H-M "I M M A"
_symmetry_group_IT_number 74
_symmetry_cell_setting 'orthorhombic'
loop_
_space_group_symop_operation_xyz
x,y,z
-x,1/2-y,z
x,-y,-z
-x,1/2+y,-z
-x,-y,-z
x,1/2+y,-z
-x,y,z
x,1/2-y,z
1/2+x,1/2+y,1/2+z
1/2-x,-y,1/2+z
1/2+x,1/2-y,1/2-z
1/2-x,y,1/2-z
1/2-x,1/2-y,1/2-z
1/2+x,y,1/2-z
1/2-x,1/2+y,1/2+z
1/2+x,-y,1/2+z
loop_
_atom_site_type_symbol
_atom_site_label
_atom_site_fract_x
_atom_site_fract_y
_atom_site_fract_z
Si Si1 0.920608 0.008106 0.095353
Si Si2 0.723674 0.185102 0.005143
Si Si3 0.920586 0.315845 0.408200
Si Si4 0.648023 0.880477 0.577914
Si Si5 0.415091 0.687847 0.726566
Si Si6 0.084129 0.884316 0.100195
Si Si7 0.709823 0.185539 0.669142
O O1 0.857944 0.054815 0.108281
O O2 0.000000 0.025613 0.134215
O O3 0.895273 0.947521 0.128368
O O4 0.935284 0.000000 0.000000
O O5 0.740692 0.250000 0.029422
O O6 0.736650 0.175849 0.908227
O O7 0.640229 0.168800 0.024284
O O8 0.771348 0.140890 0.056905
O O9 0.927640 0.250000 0.397721
O O10 0.899160 0.339195 0.317079
O O11 0.000000 0.339545 0.436183
O O12 0.622761 0.845719 0.655138
O O13 0.598032 0.872182 0.496950
O O14 0.500000 0.688379 0.709159
O O15 0.382632 0.750000 0.722682
O O16 0.133052 0.844731 0.156732
O O17 0.000000 0.871379 0.118252
O O18 0.690812 0.250000 0.681709
O O19 0.750000 0.161410 0.750000
#
# Coordination Sequence:
#
# PCOD8297120 Si02
#       7
#    16  16  16  16  16  16  16
#     4   8  14  25  41  61  85 114 145 172 201 246
#     4   9  17  28  43  63  86 116 148 180 224 267
#     4   8  15  28  42  55  78 116 156 185 208 242
#     4  10  16  24  40  64  92 117 143 175 214 260
#     4   9  16  24  36  57  86 120 149 173 207 246
#     4   9  17  29  46  66  88 115 143 172 213 266
#     4   9  18  32  48  66  89 112 136 175 229 277
#
# _framework density 15.703714
#
# number of rings (size 3 to 8) (size 9 to 14) (size 15 to 20)
#    0.000    3.143    0.000    3.429    0.000    1.429 
#    0.000    2.857    3.143    2.571    0.000    0.000 
#    0.000   14.286    0.000    0.000    0.000    0.000 
#
# Total GULP energy -693772.973746 kJ/mol
# GULP energy per Si atom -12388.803103 kJ/mol
# Density = 1.566797 g / cm^3
# Si number density = 15.703714 Si / 1000 Ang^3
#
#
#
# Elastic Constant Matrix: (Units=GPa)
#
#
# Indices 1 2 3 4 5 6 
#
# 1 111.1490 54.4406 57.2845 0.0000 0.0000 0.0000
# 2 54.4406 60.8874 33.7126 0.0000 0.0000 0.0000
# 3 57.2845 33.7126 71.8355 0.0000 0.0000 0.0000
# 4 0.0000 0.0000 0.0000 8.7328 0.0000 0.0000
# 5 0.0000 0.0000 0.0000 0.0000 10.0692 0.0000
# 6 0.0000 0.0000 0.0000 0.0000 0.0000 53.7388
#
#
#
# Elastic Compliance Matrix: (Units=1/GPa)
#
#
# Indices 1 2 3 4 5 6 
#
# 1 0.020569 -0.012577 -0.010500 0.000000 0.000000 0.000000
# 2 -0.012577 0.029880 -0.003993 0.000000 0.000000 0.000000
# 3 -0.010500 -0.003993 0.024168 0.000000 0.000000 0.000000
# 4 0.000000 0.000000 0.000000 0.114510 0.000000 0.000000
# 5 0.000000 0.000000 0.000000 0.000000 0.099313 0.000000
# 6 0.000000 0.000000 0.000000 0.000000 0.000000 0.018609
#
#
# Mechanical properties :
#
#
# Convention : Reuss Voigt Hill
#
# Bulk Modulus (GPa) = 48.83750 59.41638 54.12694
# Shear Modulus (GPa) = 13.58643 21.07044 17.32844
#
# Velocity S-wave (km/s) = 2.94457 3.66696 3.32544
# Velocity P-wave (km/s) = 6.53663 7.47307 7.02048
#
# Compressibility (1/GPa) = 0.02047607
#
# Stress axis : x y z
#
# Youngs Moduli (GPa) = 48.61766 33.46679 41.37756
#
# Poissons Ratio (x) = 0.42092 0.43445
# Poissons Ratio (y) = 0.61148 0.16523
# Poissons Ratio (z) = 0.51047 0.13364
#
# Static dielectric constant tensor:
#      x y z
#    x 3.002470 0.000000 0.000000 
#    y 0.000000 3.307810 0.000000 
#    z 0.000000 0.000000 2.861200 
# 
# 
# High freq. dielectric constant tensor:
#      x y z
#    x 1.593080 0.000000 0.000000 
#    y 0.000000 1.582650 0.000000 
#    z 0.000000 0.000000 1.580860 
# 
# From -- ./inp_files/32902.got.cif
#   From: 2010.03.12/outbox.cif.g09.slc.cpg/sg74_17_cif.got.tgz:32902.got - 2010.04.16 15:46:19.
