data_PCOD8297759
_publ_section_title
;
Structure prediction by ZEFSAII (Michael W. Deem and Ramdas Pophale) SiO2 
 PCOD8297759
Probable space group: I M M A
;
_chemical_formula_sum "Si O2"
_cell_formula_units_Z 80
_cell_length_a 25.147472
_cell_length_b 8.448417
_cell_length_c 20.616477
_cell_angle_alpha 90.000000
_cell_angle_beta 90.000000
_cell_angle_gamma 90.000000
_cell_volume 4380.101040
_symmetry_space_group_name_H-M "I M M A"
_symmetry_group_IT_number 74
_symmetry_cell_setting 'orthorhombic'
loop_
_space_group_symop_operation_xyz
x,y,z
-x,1/2-y,z
x,-y,-z
-x,1/2+y,-z
-x,-y,-z
x,1/2+y,-z
-x,y,z
x,1/2-y,z
1/2+x,1/2+y,1/2+z
1/2-x,-y,1/2+z
1/2+x,1/2-y,1/2-z
1/2-x,y,1/2-z
1/2-x,1/2-y,1/2-z
1/2+x,y,1/2-z
1/2-x,1/2+y,1/2+z
1/2+x,-y,1/2+z
loop_
_atom_site_type_symbol
_atom_site_label
_atom_site_fract_x
_atom_site_fract_y
_atom_site_fract_z
Si Si1 0.000000 0.069102 0.141799
Si Si2 0.716685 0.566299 0.430804
Si Si3 0.000000 0.428619 0.723037
Si Si4 0.615903 0.431464 0.375501
Si Si5 0.718086 0.565004 0.812774
Si Si6 0.386520 0.937316 0.232621
O O1 0.054504 0.042301 0.101258
O O2 0.000000 0.250000 0.169544
O O3 0.000000 0.941588 0.199019
O O4 0.734554 0.500000 0.500000
O O5 0.730121 0.750000 0.426276
O O6 0.653730 0.538541 0.420086
O O7 0.749486 0.472913 0.376950
O O8 0.057200 0.501275 0.700704
O O9 0.000000 0.250000 0.699391
O O10 0.633480 0.250000 0.384712
O O11 0.623821 0.474440 0.300251
O O12 0.707594 0.750000 0.807393
O O13 0.750000 0.501863 0.750000
O O14 0.661153 0.477366 0.816221
O O15 0.390257 0.750000 0.245544
#
# Coordination Sequence:
#
# PCOD8297759 Si02
#       6
#     8  16   8  16  16  16
#     4   8  16  28  47  71 100 137 176 219 264 309
#     4  12  25  40  57  77 105 141 180 223 273 325
#     4   8  16  28  44  73 110 139 170 215 263 313
#     4  10  18  32  51  75 105 139 179 222 267 314
#     4  11  22  36  56  81 110 141 180 225 268 316
#     4  10  18  30  51  79 109 142 178 218 266 314
#
# _framework density 18.264420000000001
#
# number of rings (size 3 to 8) (size 9 to 14) (size 15 to 20)
#    0.000    1.800    2.000    3.600    0.000    2.400 
#    0.000    0.500    0.000    0.000    0.000    0.700 
#    0.000    0.000    0.000    0.000    0.000    0.000 
#
# Total GULP energy -495745.112333 kJ/mol
# GULP energy per Si atom -12393.627808 kJ/mol
# Density = 1.822285 g / cm^3
# Si number density = 18.264420 Si / 1000 Ang^3
#
#
#
# Elastic Constant Matrix: (Units=GPa)
#
#
# Indices 1 2 3 4 5 6 
#
# 1 140.5699 18.9136 40.9061 0.0000 0.0000 0.0000
# 2 18.9136 45.9954 3.6840 0.0000 0.0000 0.0000
# 3 40.9061 3.6840 72.2272 0.0000 0.0000 0.0000
# 4 0.0000 0.0000 0.0000 22.9414 0.0000 0.0000
# 5 0.0000 0.0000 0.0000 0.0000 15.9665 0.0000
# 6 0.0000 0.0000 0.0000 0.0000 0.0000 26.6516
#
#
#
# Elastic Compliance Matrix: (Units=1/GPa)
#
#
# Indices 1 2 3 4 5 6 
#
# 1 0.008991 -0.003303 -0.004924 0.000000 0.000000 0.000000
# 2 -0.003303 0.023044 0.000695 0.000000 0.000000 0.000000
# 3 -0.004924 0.000695 0.016598 0.000000 0.000000 0.000000
# 4 0.000000 0.000000 0.000000 0.043589 0.000000 0.000000
# 5 0.000000 0.000000 0.000000 0.000000 0.062631 0.000000
# 6 0.000000 0.000000 0.000000 0.000000 0.000000 0.037521
#
#
# Mechanical properties :
#
#
# Convention : Reuss Voigt Hill
#
# Bulk Modulus (GPa) = 29.78802 42.86666 36.32734
# Shear Modulus (GPa) = 22.86996 26.13117 24.50057
#
# Velocity S-wave (km/s) = 3.54243 3.78658 3.66654
# Velocity P-wave (km/s) = 5.75121 6.52982 6.15285
#
# Compressibility (1/GPa) = 0.03357054
#
# Stress axis : x y z
#
# Youngs Moduli (GPa) = 111.22128 43.39566 60.24730
#
# Poissons Ratio (x) = 0.14333 0.29664
# Poissons Ratio (y) = 0.36735 -0.04188
# Poissons Ratio (z) = 0.54762 -0.03017
#
# Static dielectric constant tensor:
#      x y z
#    x 3.877320 0.000000 0.000000 
#    y 0.000000 3.363940 0.000000 
#    z 0.000000 0.000000 2.865750 
# 
# 
# High freq. dielectric constant tensor:
#      x y z
#    x 1.730780 0.000000 0.000000 
#    y 0.000000 1.715480 0.000000 
#    z 0.000000 0.000000 1.642760 
# 
# From -- ./inp_files/39798.got.cif
#   From: 2010.03.12/outbox.cif.g09.slc.cpg/sg74_20_cif.got.tgz:39798.got - 2010.04.16 15:46:19.
