data_PCOD8297683
_publ_section_title
;
Structure prediction by ZEFSAII (Michael W. Deem and Ramdas Pophale) SiO2 
 PCOD8297683
Probable space group: I M M A
;
_chemical_formula_sum "Si O2"
_cell_formula_units_Z 96
_cell_length_a 26.059996
_cell_length_b 17.663575
_cell_length_c 12.007155
_cell_angle_alpha 90.000000
_cell_angle_beta 90.000000
_cell_angle_gamma 90.000000
_cell_volume 5527.045863
_symmetry_space_group_name_H-M "I M M A"
_symmetry_group_IT_number 74
_symmetry_cell_setting 'orthorhombic'
loop_
_space_group_symop_operation_xyz
x,y,z
-x,1/2-y,z
x,-y,-z
-x,1/2+y,-z
-x,-y,-z
x,1/2+y,-z
-x,y,z
x,1/2-y,z
1/2+x,1/2+y,1/2+z
1/2-x,-y,1/2+z
1/2+x,1/2-y,1/2-z
1/2-x,y,1/2-z
1/2-x,1/2-y,1/2-z
1/2+x,y,1/2-z
1/2-x,1/2+y,1/2+z
1/2+x,-y,1/2+z
loop_
_atom_site_type_symbol
_atom_site_label
_atom_site_fract_x
_atom_site_fract_y
_atom_site_fract_z
Si Si1 0.720324 0.666008 0.398891
Si Si2 0.136289 0.337919 0.720677
Si Si3 0.317692 0.087679 0.978455
Si Si4 0.693875 0.659666 0.785619
Si Si5 0.442102 0.659232 0.404350
Si Si6 0.133447 0.165103 0.081862
O O1 0.745864 0.750000 0.392688
O O2 0.690251 0.648800 0.284726
O O3 0.763244 0.603176 0.419747
O O4 0.681805 0.665011 0.501096
O O5 0.128177 0.250000 0.693874
O O6 0.137573 0.384076 0.605144
O O7 0.088955 0.368599 0.795452
O O8 0.322386 0.132396 0.093417
O O9 0.324948 0.000000 0.000000
O O10 0.694242 0.750000 0.782393
O O11 0.750000 0.628940 0.750000
O O12 0.651630 0.626240 0.697536
O O13 0.500000 0.628431 0.398791
O O14 0.439564 0.750000 0.408122
O O15 0.414617 0.626244 0.516889
O O16 0.116574 0.250000 0.110754
#
# Coordination Sequence:
#
# PCOD8297683 Si02
#       6
#    16  16  16  16  16  16
#     4   9  16  31  50  66  90 126 165 199 232 286
#     4   9  18  32  51  71  94 127 165 200 241 293
#     4  12  23  30  41  65 102 133 166 199 238 277
#     4  10  18  30  48  65  91 132 169 193 225 290
#     4   8  14  27  52  82 101 112 143 206 264 288
#     4   8  14  26  47  73  95 120 153 188 234 290
#
# _framework density 17.369135
#
# number of rings (size 3 to 8) (size 9 to 14) (size 15 to 20)
#    0.000    2.667    1.667    4.000    0.000    2.667 
#    0.000    0.000    0.000    1.500    0.000    5.833 
#    0.000    0.000    0.000    0.000    0.000    0.000 
#
# Total GULP energy -594821.307338 kJ/mol
# GULP energy per Si atom -12392.110570 kJ/mol
# Density = 1.732960 g / cm^3
# Si number density = 17.369135 Si / 1000 Ang^3
#
#
#
# Elastic Constant Matrix: (Units=GPa)
#
#
# Indices 1 2 3 4 5 6 
#
# 1 103.1915 26.2319 63.7965 0.0000 0.0000 0.0000
# 2 26.2319 38.8330 31.1452 0.0000 0.0000 0.0000
# 3 63.7965 31.1452 148.8861 0.0000 0.0000 0.0000
# 4 0.0000 0.0000 0.0000 4.6961 0.0000 0.0000
# 5 0.0000 0.0000 0.0000 0.0000 9.8135 0.0000
# 6 0.0000 0.0000 0.0000 0.0000 0.0000 3.0736
#
#
#
# Elastic Compliance Matrix: (Units=1/GPa)
#
#
# Indices 1 2 3 4 5 6 
#
# 1 0.014141 -0.005639 -0.004880 0.000000 0.000000 0.000000
# 2 -0.005639 0.033191 -0.004527 0.000000 0.000000 0.000000
# 3 -0.004880 -0.004527 0.009754 0.000000 0.000000 0.000000
# 4 0.000000 0.000000 0.000000 0.212941 0.000000 0.000000
# 5 0.000000 0.000000 0.000000 0.000000 0.101900 0.000000
# 6 0.000000 0.000000 0.000000 0.000000 0.000000 0.325356
#
#
# Mechanical properties :
#
#
# Convention : Reuss Voigt Hill
#
# Bulk Modulus (GPa) = 37.04301 59.25087 48.14694
# Shear Modulus (GPa) = 6.79004 14.83244 10.81124
#
# Velocity S-wave (km/s) = 1.97933 2.92542 2.49758
# Velocity P-wave (km/s) = 5.15722 6.75260 6.00810
#
# Compressibility (1/GPa) = 0.02699565
#
# Stress axis : x y z
#
# Youngs Moduli (GPa) = 70.71678 30.12858 102.51696
#
# Poissons Ratio (x) = 0.16988 0.50026
# Poissons Ratio (y) = 0.39874 0.46410
# Poissons Ratio (z) = 0.34508 0.13639
#
# Static dielectric constant tensor:
#      x y z
#    x 3.198790 0.000000 0.000000 
#    y 0.000000 2.883680 0.000000 
#    z 0.000000 0.000000 3.579820 
# 
# 
# High freq. dielectric constant tensor:
#      x y z
#    x 1.639730 0.000000 0.000000 
#    y 0.000000 1.619620 0.000000 
#    z 0.000000 0.000000 1.687240 
# 
# From -- ./inp_files/26257.got.cif
#   From: 2010.03.12/outbox.cif.g09.slc.cpg/sg74_14_cif.got.tgz:26257.got - 2010.04.16 15:46:19.
