data_PCOD8297038
_publ_section_title
;
Structure prediction by ZEFSAII (Michael W. Deem and Ramdas Pophale) SiO2 
 PCOD8297038
Probable space group: I B C A 
;
_chemical_formula_sum "Si O2"
_cell_formula_units_Z 64
_cell_length_a 5.100653
_cell_length_b 18.818210
_cell_length_c 27.297612
_cell_angle_alpha 90.000000
_cell_angle_beta 90.000000
_cell_angle_gamma 90.000000
_cell_volume 2620.165636
_symmetry_space_group_name_H-M "I B C A "
_symmetry_group_IT_number 73
_symmetry_cell_setting 'orthorhombic'
loop_
_space_group_symop_operation_xyz
x,y,z
-x,1/2-y,z
x,-y,1/2-z
1/2-x,y,-z
-x,-y,-z
x,1/2+y,-z
-x,y,1/2+z
1/2+x,-y,z
1/2+x,1/2+y,1/2+z
1/2-x,-y,1/2+z
1/2+x,1/2-y,-z
-x,1/2+y,1/2-z
1/2-x,1/2-y,1/2-z
1/2+x,y,1/2-z
1/2-x,1/2+y,z
x,1/2-y,1/2+z
loop_
_atom_site_type_symbol
_atom_site_label
_atom_site_fract_x
_atom_site_fract_y
_atom_site_fract_z
Si Si1 0.656648 0.176163 0.446593
Si Si2 0.000000 0.250000 0.876360
Si Si3 0.500000 0.750000 0.688194
Si Si4 0.005404 0.046111 0.111046
Si Si5 0.446902 0.597359 0.221124
O O1 0.500000 0.250000 0.449477
O O2 0.750000 0.152691 0.500000
O O3 0.909371 0.184567 0.410882
O O4 0.475688 0.114984 0.423599
O O5 0.249850 0.273864 0.844370
O O6 0.572327 0.683146 0.721670
O O7 0.999873 0.068547 0.167480
O O8 0.273185 0.006757 0.098232
O O9 0.672026 0.569313 0.257679
#
# Coordination Sequence:
#
# PCOD8297038 Si02
#       5
#    16   8   8  16  16
#     4  12  27  48  84 115 150 195 258 313 381 452
#     4  12  22  42  76 104 150 188 236 308 370 446
#     4  12  24  42  74 112 152 186 246 320 384 428
#     4  12  30  50  74 109 158 202 247 307 378 450
#     4  12  25  44  74 106 146 196 252 310 370 445
#
# _framework density 24.425934999999999
#
# number of rings (size 3 to 8) (size 9 to 14) (size 15 to 20)
#    0.000    0.000    5.000    3.750    7.000    4.000 
#    0.000    0.000    0.000    0.000    0.000    0.000 
#    0.000    0.000    0.000    0.000    0.000    0.000 
#
# Total GULP energy -396984.906783 kJ/mol
# GULP energy per Si atom -12405.778337 kJ/mol
# Density = 2.437034 g / cm^3
# Si number density = 24.425935 Si / 1000 Ang^3
#
#
#
# Elastic Constant Matrix: (Units=GPa)
#
#
# Indices 1 2 3 4 5 6 
#
# 1 127.8539 6.1672 31.0471 0.0000 0.0000 0.0000
# 2 6.1672 102.4719 27.3663 0.0000 0.0000 0.0000
# 3 31.0471 27.3663 117.0603 0.0000 0.0000 0.0000
# 4 0.0000 0.0000 0.0000 22.7292 0.0000 0.0000
# 5 0.0000 0.0000 0.0000 0.0000 17.4386 0.0000
# 6 0.0000 0.0000 0.0000 0.0000 0.0000 25.8348
#
#
#
# Elastic Compliance Matrix: (Units=1/GPa)
#
#
# Indices 1 2 3 4 5 6 
#
# 1 0.008361 0.000095 -0.002240 0.000000 0.000000 0.000000
# 2 0.000095 0.010410 -0.002459 0.000000 0.000000 0.000000
# 3 -0.002240 -0.002459 0.009711 0.000000 0.000000 0.000000
# 4 0.000000 0.000000 0.000000 0.043996 0.000000 0.000000
# 5 0.000000 0.000000 0.000000 0.000000 0.057344 0.000000
# 6 0.000000 0.000000 0.000000 0.000000 0.000000 0.038707
#
#
# Mechanical properties :
#
#
# Convention : Reuss Voigt Hill
#
# Bulk Modulus (GPa) = 51.88095 52.94970 52.41532
# Shear Modulus (GPa) = 27.15012 32.05425 29.60219
#
# Velocity S-wave (km/s) = 3.33758 3.62650 3.48504
# Velocity P-wave (km/s) = 6.01155 6.26579 6.13999
#
# Compressibility (1/GPa) = 0.01927490
#
# Stress axis : x y z
#
# Youngs Moduli (GPa) = 119.60714 96.06430 102.97158
#
# Poissons Ratio (x) = -0.00912 0.23062
# Poissons Ratio (y) = -0.01136 0.25318
# Poissons Ratio (z) = 0.26788 0.23620
#
# Static dielectric constant tensor:
#      x y z
#    x 4.577960 0.000000 0.000000 
#    y 0.000000 4.888610 0.000000 
#    z 0.000000 0.000000 4.500550 
# 
# 
# High freq. dielectric constant tensor:
#      x y z
#    x 1.982050 0.000000 0.000000 
#    y 0.000000 1.972420 0.000000 
#    z 0.000000 0.000000 1.972770 
# 
# From -- ./inp_files/30851.got.cif
#   From: 2010.03.12/outbox.cif.g09.slc.cpg/sg73_16_cif.got.tgz:30851.got - 2010.04.16 15:25:48.
