data_PCOD8297336
_publ_section_title
;
Structure prediction by ZEFSAII (Michael W. Deem and Ramdas Pophale) SiO2 
 PCOD8297336
Probable space group: I M M A
;
_chemical_formula_sum "Si O2"
_cell_formula_units_Z 128
_cell_length_a 19.696922
_cell_length_b 20.661707
_cell_length_c 19.421396
_cell_angle_alpha 90.000000
_cell_angle_beta 90.000000
_cell_angle_gamma 90.000000
_cell_volume 7903.964978
_symmetry_space_group_name_H-M "I M M A"
_symmetry_group_IT_number 74
_symmetry_cell_setting 'orthorhombic'
loop_
_space_group_symop_operation_xyz
x,y,z
-x,1/2-y,z
x,-y,-z
-x,1/2+y,-z
-x,-y,-z
x,1/2+y,-z
-x,y,z
x,1/2-y,z
1/2+x,1/2+y,1/2+z
1/2-x,-y,1/2+z
1/2+x,1/2-y,1/2-z
1/2-x,y,1/2-z
1/2-x,1/2-y,1/2-z
1/2+x,y,1/2-z
1/2-x,1/2+y,1/2+z
1/2+x,-y,1/2+z
loop_
_atom_site_type_symbol
_atom_site_label
_atom_site_fract_x
_atom_site_fract_y
_atom_site_fract_z
Si Si1 0.923360 0.629412 0.112989
Si Si2 0.706992 0.822300 0.451012
Si Si3 0.213680 0.022218 0.321246
Si Si4 0.076968 0.478986 0.111061
Si Si5 0.573674 0.476507 0.233569
Si Si6 0.073570 0.869916 0.268181
Si Si7 0.209876 0.439402 0.046511
Si Si8 0.285909 0.870327 0.178438
O O1 0.872602 0.669456 0.065390
O O2 0.902047 0.554219 0.109229
O O3 0.915984 0.656068 0.190757
O O4 0.000000 0.639638 0.086301
O O5 0.719153 0.750000 0.479235
O O6 0.729550 0.872906 0.509119
O O7 0.751201 0.831425 0.382452
O O8 0.250000 0.039680 0.250000
O O9 0.135045 0.045799 0.315754
O O10 0.248393 0.060991 0.382676
O O11 0.220249 0.946320 0.336897
O O12 0.084545 0.451447 0.188467
O O13 0.128890 0.441227 0.061534
O O14 0.000000 0.468622 0.084067
O O15 0.500000 0.451810 0.205578
O O16 0.573294 0.553310 0.237594
O O17 0.135187 0.847389 0.316998
O O18 0.000000 0.845839 0.297076
O O19 0.232444 0.500000 0.000000
O O20 0.250000 0.852884 0.250000
#
# Coordination Sequence:
#
# PCOD8297336 Si02
#       8
#    16  16  16  16  16  16  16  16
#     4   9  16  30  48  69 100 137 168 198 238 291
#     4  12  25  36  46  68 104 141 171 207 250 295
#     4  10  17  29  54  79 100 126 167 213 247 291
#     4   9  16  28  50  78 103 128 165 202 241 294
#     4   8  14  25  46  78 107 125 150 204 262 296
#     4   8  14  25  46  72 100 129 165 206 240 283
#     4  12  21  33  51  75 102 134 171 208 248 293
#     4  10  17  30  51  73  99 132 171 205 243 292
#
# _framework density 16.194403999999999
#
# number of rings (size 3 to 8) (size 9 to 14) (size 15 to 20)
#    0.000    2.250    5.000    1.500    0.000    1.250 
#    0.000    0.000    0.000    1.875    0.000    0.000 
#    0.000    0.000    0.000    0.000    0.000    0.000 
#
# Total GULP energy -793300.821276 kJ/mol
# GULP energy per Si atom -12395.325332 kJ/mol
# Density = 1.615754 g / cm^3
# Si number density = 16.194404 Si / 1000 Ang^3
#
#
#
# Elastic Constant Matrix: (Units=GPa)
#
#
# Indices 1 2 3 4 5 6 
#
# 1 104.7841 27.1360 39.1594 0.0000 0.0000 0.0000
# 2 27.1360 64.7120 37.5807 0.0000 0.0000 0.0000
# 3 39.1594 37.5807 72.3082 0.0000 0.0000 0.0000
# 4 0.0000 0.0000 0.0000 12.5806 0.0000 0.0000
# 5 0.0000 0.0000 0.0000 0.0000 23.6053 0.0000
# 6 0.0000 0.0000 0.0000 0.0000 0.0000 8.2300
#
#
#
# Elastic Compliance Matrix: (Units=1/GPa)
#
#
# Indices 1 2 3 4 5 6 
#
# 1 0.012113 -0.001819 -0.005615 0.000000 0.000000 0.000000
# 2 -0.001819 0.022407 -0.010660 0.000000 0.000000 0.000000
# 3 -0.005615 -0.010660 0.022411 0.000000 0.000000 0.000000
# 4 0.000000 0.000000 0.000000 0.079488 0.000000 0.000000
# 5 0.000000 0.000000 0.000000 0.000000 0.042363 0.000000
# 6 0.000000 0.000000 0.000000 0.000000 0.000000 0.121507
#
#
# Mechanical properties :
#
#
# Convention : Reuss Voigt Hill
#
# Bulk Modulus (GPa) = 48.20947 49.95071 49.08009
# Shear Modulus (GPa) = 14.56073 18.07839 16.31956
#
# Velocity S-wave (km/s) = 3.00179 3.34479 3.17792
# Velocity P-wave (km/s) = 6.46901 6.76965 6.62104
#
# Compressibility (1/GPa) = 0.02074281
#
# Stress axis : x y z
#
# Youngs Moduli (GPa) = 82.55821 44.62960 44.62118
#
# Poissons Ratio (x) = 0.08117 0.25053
# Poissons Ratio (y) = 0.15015 0.47568
# Poissons Ratio (z) = 0.46353 0.47577
#
# Static dielectric constant tensor:
#      x y z
#    x 3.558400 0.000000 0.000000 
#    y 0.000000 2.575920 0.000000 
#    z 0.000000 0.000000 2.892190 
# 
# 
# High freq. dielectric constant tensor:
#      x y z
#    x 1.637920 0.000000 0.000000 
#    y 0.000000 1.562170 0.000000 
#    z 0.000000 0.000000 1.599090 
# 
# From -- ./inp_files/45596.got.cif
#   From: 2010.03.12/outbox.cif.g09.slc.cpg/sg74_23_cif.got.tgz:45596.got - 2010.04.16 15:46:19.
