data_PCOD8297431
_publ_section_title
;
Structure prediction by ZEFSAII (Michael W. Deem and Ramdas Pophale) SiO2 
 PCOD8297431
Probable space group: I M M A
;
_chemical_formula_sum "Si O2"
_cell_formula_units_Z 80
_cell_length_a 10.217405
_cell_length_b 26.533040
_cell_length_c 20.181429
_cell_angle_alpha 90.000000
_cell_angle_beta 90.000000
_cell_angle_gamma 90.000000
_cell_volume 5471.161498
_symmetry_space_group_name_H-M "I M M A"
_symmetry_group_IT_number 74
_symmetry_cell_setting 'orthorhombic'
loop_
_space_group_symop_operation_xyz
x,y,z
-x,1/2-y,z
x,-y,-z
-x,1/2+y,-z
-x,-y,-z
x,1/2+y,-z
-x,y,z
x,1/2-y,z
1/2+x,1/2+y,1/2+z
1/2-x,-y,1/2+z
1/2+x,1/2-y,1/2-z
1/2-x,y,1/2-z
1/2-x,1/2-y,1/2-z
1/2+x,y,1/2-z
1/2-x,1/2+y,1/2+z
1/2+x,-y,1/2+z
loop_
_atom_site_type_symbol
_atom_site_label
_atom_site_fract_x
_atom_site_fract_y
_atom_site_fract_z
Si Si1 0.000000 0.981104 0.892222
Si Si2 0.152036 0.309103 0.809319
Si Si3 0.742592 0.885953 0.413631
Si Si4 0.751117 0.985998 0.327404
Si Si5 0.500000 0.416810 0.977398
Si Si6 0.500000 0.078415 0.515894
Si Si7 0.500000 0.519941 0.897182
O O1 0.125651 0.980917 0.845522
O O2 0.000000 0.027973 0.941401
O O3 0.000000 0.931400 0.937413
O O4 0.154890 0.250000 0.822655
O O5 0.250000 0.324034 0.750000
O O6 0.213224 0.335066 0.873863
O O7 0.000000 0.326506 0.795472
O O8 0.746996 0.932010 0.362435
O O9 0.875878 0.883378 0.455795
O O10 0.629040 0.890477 0.467585
O O11 0.750000 0.975088 0.250000
O O12 0.873982 0.019487 0.349944
O O13 0.500000 0.470087 0.941131
O O14 0.500000 0.430184 0.056011
#
# Coordination Sequence:
#
# PCOD8297431 Si02
#       7
#     8  16  16  16   8   8   8
#     4   9  17  26  40  58  77 107 137 174 215 246
#     4  10  21  35  48  63  86 114 144 182 226 265
#     4  10  18  30  44  63  81 107 148 184 216 248
#     4  10  18  27  40  59  85 112 144 179 212 249
#     4   9  18  28  45  61  80 110 142 183 217 248
#     4   9  16  28  43  57  78 102 140 181 209 250
#     4   9  17  30  40  58  85 111 143 178 215 252
#
# _framework density 14.622123
#
# number of rings (size 3 to 8) (size 9 to 14) (size 15 to 20)
#    0.000    2.400    1.000    2.400    1.400    4.800 
#    3.600    0.000    0.000    0.000    0.000    0.000 
#    0.000    0.000    0.000    0.000    0.000   70.000 
#
# Total GULP energy -495854.362912 kJ/mol
# GULP energy per Si atom -12396.359073 kJ/mol
# Density = 1.458884 g / cm^3
# Si number density = 14.622123 Si / 1000 Ang^3
#
#
#
# Elastic Constant Matrix: (Units=GPa)
#
#
# Indices 1 2 3 4 5 6 
#
# 1 136.0146 22.4261 31.5323 0.0000 0.0000 0.0000
# 2 22.4261 28.9106 15.5064 0.0000 0.0000 0.0000
# 3 31.5323 15.5064 52.6522 0.0000 0.0000 0.0001
# 4 0.0000 0.0000 0.0000 26.1357 0.0000 0.0000
# 5 0.0000 0.0000 0.0000 0.0000 32.1921 0.0000
# 6 0.0000 0.0000 0.0001 0.0000 0.0000 10.1002
#
#
#
# Elastic Compliance Matrix: (Units=1/GPa)
#
#
# Indices 1 2 3 4 5 6 
#
# 1 0.009088 -0.004905 -0.003998 0.000000 0.000000 0.000000
# 2 -0.004905 0.043726 -0.009940 0.000000 0.000000 0.000000
# 3 -0.003998 -0.009940 0.024314 0.000000 0.000000 0.000000
# 4 0.000000 0.000000 0.000000 0.038262 0.000000 0.000000
# 5 0.000000 0.000000 0.000000 0.000000 0.031064 0.000000
# 6 0.000000 0.000000 0.000000 0.000000 0.000000 0.099008
#
#
# Mechanical properties :
#
#
# Convention : Reuss Voigt Hill
#
# Bulk Modulus (GPa) = 25.35381 39.61188 32.48284
# Shear Modulus (GPa) = 16.87512 23.55975 20.21744
#
# Velocity S-wave (km/s) = 3.40086 4.01838 3.72245
# Velocity P-wave (km/s) = 5.72697 6.97704 6.38268
#
# Compressibility (1/GPa) = 0.03944181
#
# Stress axis : x y z
#
# Youngs Moduli (GPa) = 110.03833 22.86987 41.12831
#
# Poissons Ratio (x) = 0.11218 0.16443
# Poissons Ratio (y) = 0.53975 0.40881
# Poissons Ratio (z) = 0.43992 0.22732
#
# Static dielectric constant tensor:
#      x y z
#    x 2.735970 0.000000 0.000000 
#    y 0.000000 2.483470 0.000000 
#    z 0.000000 0.000000 2.800770 
# 
# 
# High freq. dielectric constant tensor:
#      x y z
#    x 1.585360 0.000000 0.000000 
#    y 0.000000 1.505400 0.000000 
#    z 0.000000 0.000000 1.547120 
# 
# From -- ./inp_files/57206.got.cif
#   From: 2010.03.12/outbox.cif.g09.slc.cpg/sg74_29_cif.got.tgz:57206.got - 2010.04.16 15:46:19.
