data_PCOD8297502
_publ_section_title
;
Structure prediction by ZEFSAII (Michael W. Deem and Ramdas Pophale) SiO2 
 PCOD8297502
Probable space group: I M M A
;
_chemical_formula_sum "Si O2"
_cell_formula_units_Z 96
_cell_length_a 13.423219
_cell_length_b 18.118865
_cell_length_c 23.356271
_cell_angle_alpha 90.000000
_cell_angle_beta 90.000000
_cell_angle_gamma 90.000000
_cell_volume 5680.560252
_symmetry_space_group_name_H-M "I M M A"
_symmetry_group_IT_number 74
_symmetry_cell_setting 'orthorhombic'
loop_
_space_group_symop_operation_xyz
x,y,z
-x,1/2-y,z
x,-y,-z
-x,1/2+y,-z
-x,-y,-z
x,1/2+y,-z
-x,y,z
x,1/2-y,z
1/2+x,1/2+y,1/2+z
1/2-x,-y,1/2+z
1/2+x,1/2-y,1/2-z
1/2-x,y,1/2-z
1/2-x,1/2-y,1/2-z
1/2+x,y,1/2-z
1/2-x,1/2+y,1/2+z
1/2+x,-y,1/2+z
loop_
_atom_site_type_symbol
_atom_site_label
_atom_site_fract_x
_atom_site_fract_y
_atom_site_fract_z
Si Si1 0.114268 0.129203 0.093238
Si Si2 0.386935 0.945291 0.883695
Si Si3 0.891615 0.168291 0.484692
Si Si4 0.685774 0.169606 0.531075
Si Si5 0.777165 0.832795 0.685024
Si Si6 0.791140 0.017394 0.934301
O O1 0.180349 0.161162 0.144419
O O2 0.000000 0.147230 0.107050
O O3 0.128629 0.040941 0.088776
O O4 0.144001 0.166833 0.033251
O O5 0.500000 0.975002 0.878458
O O6 0.369859 0.890108 0.935987
O O7 0.358700 0.895982 0.828760
O O8 0.310010 0.012584 0.895522
O O9 0.888841 0.250000 0.456638
O O10 0.806099 0.162335 0.532050
O O11 0.000000 0.153323 0.513196
O O12 0.653963 0.250000 0.557097
O O13 0.655059 0.098584 0.569467
O O14 0.821411 0.750000 0.678432
O O15 0.750000 0.848439 0.750000
O O16 0.762175 0.000000 0.000000
#
# Coordination Sequence:
#
# PCOD8297502 Si02
#       6
#    16  16  16  16  16  16
#     4  10  20  33  47  62  86 120 154 186 220 257
#     4  10  18  28  44  63  86 116 149 184 221 261
#     4   9  15  23  38  59  84 113 142 175 214 252
#     4  10  18  29  44  65  91 118 152 185 216 258
#     4  10  20  33  47  65  90 117 150 190 225 260
#     4   9  17  30  43  63  87 117 151 184 217 258
#
# _framework density 16.899742
#
# number of rings (size 3 to 8) (size 9 to 14) (size 15 to 20)
#    0.000    2.333    5.000    1.000    0.000    7.000 
#    0.000    1.667    0.000    0.000    0.000    0.000 
#    0.000   10.667    0.000   12.000    0.000    0.000 
#
# Total GULP energy -594626.353139 kJ/mol
# GULP energy per Si atom -12388.049024 kJ/mol
# Density = 1.686128 g / cm^3
# Si number density = 16.899742 Si / 1000 Ang^3
#
#
#
# Elastic Constant Matrix: (Units=GPa)
#
#
# Indices 1 2 3 4 5 6 
#
# 1 59.9222 -2.1357 4.2603 0.0000 0.0000 0.0000
# 2 -2.1357 103.5477 18.5408 0.0000 0.0000 0.0000
# 3 4.2603 18.5408 39.2191 0.0000 0.0000 0.0000
# 4 0.0000 0.0000 0.0000 6.4894 0.0000 0.0000
# 5 0.0000 0.0000 0.0000 0.0000 8.8794 0.0000
# 6 0.0000 0.0000 0.0000 0.0000 0.0000 10.2575
#
#
#
# Elastic Compliance Matrix: (Units=1/GPa)
#
#
# Indices 1 2 3 4 5 6 
#
# 1 0.016870 0.000739 -0.002182 0.000000 0.000000 0.000000
# 2 0.000739 0.010583 -0.005083 0.000000 0.000000 0.000000
# 3 -0.002182 -0.005083 0.028138 0.000000 0.000000 0.000000
# 4 0.000000 0.000000 0.000000 0.154098 0.000000 0.000000
# 5 0.000000 0.000000 0.000000 0.000000 0.112620 0.000000
# 6 0.000000 0.000000 0.000000 0.000000 0.000000 0.097490
#
#
# Mechanical properties :
#
#
# Convention : Reuss Voigt Hill
#
# Bulk Modulus (GPa) = 23.50855 27.11332 25.31093
# Shear Modulus (GPa) = 11.18492 17.26016 14.22254
#
# Velocity S-wave (km/s) = 2.57542 3.19929 2.90415
# Velocity P-wave (km/s) = 4.77331 5.45213 5.12397
#
# Compressibility (1/GPa) = 0.04253771
#
# Stress axis : x y z
#
# Youngs Moduli (GPa) = 59.27774 94.49294 35.53927
#
# Poissons Ratio (x) = -0.06979 0.07754
# Poissons Ratio (y) = -0.04378 0.18066
# Poissons Ratio (z) = 0.12933 0.48033
#
# Static dielectric constant tensor:
#      x y z
#    x 3.259680 0.000000 0.000000 
#    y 0.000000 3.541770 0.000000 
#    z 0.000000 0.000000 2.726060 
# 
# 
# High freq. dielectric constant tensor:
#      x y z
#    x 1.653070 0.000000 0.000000 
#    y 0.000000 1.655140 0.000000 
#    z 0.000000 0.000000 1.580370 
# 
# From -- ./inp_files/52260.got.cif
#   From: 2010.03.12/outbox.cif.g09.slc.cpg/sg74_27_cif.got.tgz:52260.got - 2010.04.16 15:46:19.
