data_PCOD8297908
_publ_section_title
;
Structure prediction by ZEFSAII (Michael W. Deem and Ramdas Pophale) SiO2 
 PCOD8297908
Probable space group: I M M A
;
_chemical_formula_sum "Si O2"
_cell_formula_units_Z 88
_cell_length_a 8.547742
_cell_length_b 19.870091
_cell_length_c 30.605480
_cell_angle_alpha 90.000000
_cell_angle_beta 90.000000
_cell_angle_gamma 90.000000
_cell_volume 5198.169736
_symmetry_space_group_name_H-M "I M M A"
_symmetry_group_IT_number 74
_symmetry_cell_setting 'orthorhombic'
loop_
_space_group_symop_operation_xyz
x,y,z
-x,1/2-y,z
x,-y,-z
-x,1/2+y,-z
-x,-y,-z
x,1/2+y,-z
-x,y,z
x,1/2-y,z
1/2+x,1/2+y,1/2+z
1/2-x,-y,1/2+z
1/2+x,1/2-y,1/2-z
1/2-x,y,1/2-z
1/2-x,1/2-y,1/2-z
1/2+x,y,1/2-z
1/2-x,1/2+y,1/2+z
1/2+x,-y,1/2+z
loop_
_atom_site_type_symbol
_atom_site_label
_atom_site_fract_x
_atom_site_fract_y
_atom_site_fract_z
Si Si1 0.679264 0.176492 0.487015
Si Si2 0.814074 0.250000 0.798770
Si Si3 0.816666 0.034834 0.044027
Si Si4 0.820927 0.674766 0.420676
Si Si5 0.319675 0.948181 0.377213
Si Si6 0.182755 0.610984 0.297632
O O1 0.500000 0.168070 0.503376
O O2 0.700181 0.250000 0.463810
O O3 0.720512 0.114783 0.454604
O O4 0.795415 0.172200 0.527528
O O5 0.750000 0.250000 0.750000
O O6 0.748953 0.180491 0.819358
O O7 0.000000 0.250000 0.800195
O O8 0.000000 0.019086 0.044751
O O9 0.746376 0.002226 0.088420
O O10 0.746057 0.000000 0.000000
O O11 0.786700 0.750000 0.403097
O O12 0.699345 0.625237 0.398197
O O13 0.000000 0.653662 0.410495
O O14 0.500000 0.963050 0.367305
O O15 0.228185 0.949445 0.330858
O O16 0.250000 0.594944 0.250000
O O17 0.000000 0.617940 0.292725
#
# Coordination Sequence:
#
# PCOD8297908 Si02
#       6
#    16   8  16  16  16  16
#     4   9  16  29  49  68  89 124 165 199 235 281
#     4  10  18  32  52  72  92 122 160 196 244 284
#     4   9  16  29  47  70  97 124 157 200 238 277
#     4  10  20  31  42  62  93 124 159 202 243 280
#     4  11  21  33  50  68  91 125 163 198 242 287
#     4  11  22  37  52  69  94 120 157 200 243 284
#
# _framework density 16.929034999999999
#
# number of rings (size 3 to 8) (size 9 to 14) (size 15 to 20)
#    0.000    2.000    1.818    4.636    1.273    1.091 
#    0.000    2.727    0.000    0.000    0.000    0.000 
#    0.000    0.727    0.000    1.273    0.000    1.818 
#
# Total GULP energy -545314.926108 kJ/mol
# GULP energy per Si atom -12393.521048 kJ/mol
# Density = 1.689050 g / cm^3
# Si number density = 16.929035 Si / 1000 Ang^3
#
#
#
# Elastic Constant Matrix: (Units=GPa)
#
#
# Indices 1 2 3 4 5 6 
#
# 1 67.5617 15.3049 16.1122 0.0000 0.0000 0.0000
# 2 15.3049 99.7963 52.1542 0.0000 0.0000 0.0000
# 3 16.1122 52.1542 91.2617 0.0000 0.0000 0.0000
# 4 0.0000 0.0000 0.0000 30.2839 0.0000 0.0000
# 5 0.0000 0.0000 0.0000 0.0000 21.1997 0.0000
# 6 0.0000 0.0000 0.0000 0.0000 0.0000 12.7032
#
#
#
# Elastic Compliance Matrix: (Units=1/GPa)
#
#
# Indices 1 2 3 4 5 6 
#
# 1 0.015580 -0.001357 -0.001975 0.000000 0.000000 0.000000
# 2 -0.001357 0.014406 -0.007993 0.000000 0.000000 0.000000
# 3 -0.001975 -0.007993 0.015874 0.000000 0.000000 0.000000
# 4 0.000000 0.000000 0.000000 0.033021 0.000000 0.000000
# 5 0.000000 0.000000 0.000000 0.000000 0.047170 0.000000
# 6 0.000000 0.000000 0.000000 0.000000 0.000000 0.078721
#
#
# Mechanical properties :
#
#
# Convention : Reuss Voigt Hill
#
# Bulk Modulus (GPa) = 43.08640 47.30690 45.19665
# Shear Modulus (GPa) = 21.26231 24.50726 22.88479
#
# Velocity S-wave (km/s) = 3.54781 3.80892 3.68068
# Velocity P-wave (km/s) = 6.50300 6.88104 6.69469
#
# Compressibility (1/GPa) = 0.02320918
#
# Stress axis : x y z
#
# Youngs Moduli (GPa) = 64.18596 69.41684 62.99617
#
# Poissons Ratio (x) = 0.09421 0.12442
# Poissons Ratio (y) = 0.08711 0.50353
# Poissons Ratio (z) = 0.12677 0.55485
#
# Static dielectric constant tensor:
#      x y z
#    x 3.026750 0.000000 0.000000 
#    y 0.000000 3.318210 0.000000 
#    z 0.000000 0.000000 3.172770 
# 
# 
# High freq. dielectric constant tensor:
#      x y z
#    x 1.645920 0.000000 0.000000 
#    y 0.000000 1.627450 0.000000 
#    z 0.000000 0.000000 1.631850 
# 
# From -- ./inp_files/70461.got.cif
#   From: 2010.03.12/outbox.cif.g09.slc.cpg/sg74_36_cif.got.tgz:70461.got - 2010.04.16 15:46:19.
