data_PCOD8297579
_publ_section_title
;
Structure prediction by ZEFSAII (Michael W. Deem and Ramdas Pophale) SiO2 
 PCOD8297579
Probable space group: I M M A
;
_chemical_formula_sum "Si O2"
_cell_formula_units_Z 112
_cell_length_a 13.478528
_cell_length_b 27.400852
_cell_length_c 16.568729
_cell_angle_alpha 90.000000
_cell_angle_beta 90.000000
_cell_angle_gamma 90.000000
_cell_volume 6119.215201
_symmetry_space_group_name_H-M "I M M A"
_symmetry_group_IT_number 74
_symmetry_cell_setting 'orthorhombic'
loop_
_space_group_symop_operation_xyz
x,y,z
-x,1/2-y,z
x,-y,-z
-x,1/2+y,-z
-x,-y,-z
x,1/2+y,-z
-x,y,z
x,1/2-y,z
1/2+x,1/2+y,1/2+z
1/2-x,-y,1/2+z
1/2+x,1/2-y,1/2-z
1/2-x,y,1/2-z
1/2-x,1/2-y,1/2-z
1/2+x,y,1/2-z
1/2-x,1/2+y,1/2+z
1/2+x,-y,1/2+z
loop_
_atom_site_type_symbol
_atom_site_label
_atom_site_fract_x
_atom_site_fract_y
_atom_site_fract_z
Si Si1 0.812368 0.361886 0.374252
Si Si2 0.612025 0.518793 0.646997
Si Si3 0.610669 0.376086 0.297982
Si Si4 0.386593 0.917365 0.273564
Si Si5 0.614983 0.693204 0.024467
Si Si6 0.220247 0.386043 0.623320
Si Si7 0.221127 0.048463 0.471570
O O1 0.693407 0.355723 0.360154
O O2 0.871034 0.355168 0.291191
O O3 0.847866 0.320137 0.434842
O O4 0.837716 0.415887 0.410460
O O5 0.500000 0.512779 0.615002
O O6 0.620903 0.565374 0.706284
O O7 0.643856 0.471889 0.699218
O O8 0.680041 0.526455 0.569043
O O9 0.500000 0.360283 0.326801
O O10 0.500000 0.904920 0.290508
O O11 0.320425 0.878630 0.324256
O O12 0.363011 0.912284 0.178637
O O13 0.500000 0.678447 0.032854
O O14 0.631854 0.750000 0.038759
O O15 0.678436 0.665511 0.092481
O O16 0.250428 0.419704 0.548605
O O17 0.158845 0.000000 0.500000
#
# Coordination Sequence:
#
# PCOD8297579 Si02
#       7
#    16  16  16  16  16  16  16
#     4   9  19  31  53  78 104 143 178 219 265 316
#     4   9  18  29  46  73 106 152 191 210 244 306
#     4   9  17  31  50  76 112 148 183 216 252 305
#     4  10  20  34  52  77 111 145 182 220 257 306
#     4  10  21  40  62  80 101 131 171 220 271 325
#     4  10  21  34  55  79 104 139 175 223 266 310
#     4  10  18  29  45  73 107 142 176 216 260 296
#
# _framework density 18.303000999999998
#
# number of rings (size 3 to 8) (size 9 to 14) (size 15 to 20)
#    0.000    2.429    1.429    0.857    2.000    2.000 
#    0.000    5.000    0.000    6.000    0.000    0.000 
#    0.000    0.000    0.000    0.000    0.000    0.000 
#
# Total GULP energy -694104.195430 kJ/mol
# GULP energy per Si atom -12394.717776 kJ/mol
# Density = 1.826134 g / cm^3
# Si number density = 18.303001 Si / 1000 Ang^3
#
#
#
# Elastic Constant Matrix: (Units=GPa)
#
#
# Indices 1 2 3 4 5 6 
#
# 1 107.5813 43.9311 35.1135 0.0000 0.0000 0.0000
# 2 43.9311 78.2245 41.9727 0.0001 0.0000 0.0000
# 3 35.1135 41.9727 94.6783 0.0000 0.0000 0.0001
# 4 0.0000 0.0001 0.0000 22.4250 0.0000 0.0000
# 5 0.0000 0.0000 0.0000 0.0000 22.1730 0.0000
# 6 0.0000 0.0000 0.0001 0.0000 0.0000 22.8403
#
#
#
# Elastic Compliance Matrix: (Units=1/GPa)
#
#
# Indices 1 2 3 4 5 6 
#
# 1 0.012336 -0.005869 -0.001973 0.000000 0.000000 0.000000
# 2 -0.005869 0.019566 -0.006497 0.000000 0.000000 0.000000
# 3 -0.001973 -0.006497 0.014174 0.000000 0.000000 0.000000
# 4 0.000000 0.000000 0.000000 0.044593 0.000000 0.000000
# 5 0.000000 0.000000 0.000000 0.000000 0.045100 0.000000
# 6 0.000000 0.000000 0.000000 0.000000 0.000000 0.043782
#
#
# Mechanical properties :
#
#
# Convention : Reuss Voigt Hill
#
# Bulk Modulus (GPa) = 57.48103 58.05765 57.76934
# Shear Modulus (GPa) = 23.36123 24.11880 23.74002
#
# Velocity S-wave (km/s) = 3.57649 3.63402 3.60537
# Velocity P-wave (km/s) = 6.96624 7.02832 6.99735
#
# Compressibility (1/GPa) = 0.01739704
#
# Stress axis : x y z
#
# Youngs Moduli (GPa) = 81.06347 51.10878 70.55053
#
# Poissons Ratio (x) = 0.29997 0.13921
# Poissons Ratio (y) = 0.47578 0.45839
# Poissons Ratio (z) = 0.15995 0.33207
#
# Static dielectric constant tensor:
#      x y z
#    x 3.397540 0.000000 0.000000 
#    y 0.000000 3.133900 0.000000 
#    z 0.000000 0.000000 3.459790 
# 
# 
# High freq. dielectric constant tensor:
#      x y z
#    x 1.704360 0.000000 0.000000 
#    y 0.000000 1.677210 0.000000 
#    z 0.000000 0.000000 1.717110 
# 
# From -- ./inp_files/32966.got.cif
#   From: 2010.03.12/outbox.cif.g09.slc.cpg/sg74_17_cif.got.tgz:32966.got - 2010.04.16 15:46:19.
