data_PCOD8297846
_publ_section_title
;
Structure prediction by ZEFSAII (Michael W. Deem and Ramdas Pophale) SiO2 
 PCOD8297846
Probable space group: I M M A
;
_chemical_formula_sum "Si O2"
_cell_formula_units_Z 96
_cell_length_a 19.114275
_cell_length_b 16.679370
_cell_length_c 15.066178
_cell_angle_alpha 90.000000
_cell_angle_beta 90.000000
_cell_angle_gamma 90.000000
_cell_volume 4803.309452
_symmetry_space_group_name_H-M "I M M A"
_symmetry_group_IT_number 74
_symmetry_cell_setting 'orthorhombic'
loop_
_space_group_symop_operation_xyz
x,y,z
-x,1/2-y,z
x,-y,-z
-x,1/2+y,-z
-x,-y,-z
x,1/2+y,-z
-x,y,z
x,1/2-y,z
1/2+x,1/2+y,1/2+z
1/2-x,-y,1/2+z
1/2+x,1/2-y,1/2-z
1/2-x,y,1/2-z
1/2-x,1/2-y,1/2-z
1/2+x,y,1/2-z
1/2-x,1/2+y,1/2+z
1/2+x,-y,1/2+z
loop_
_atom_site_type_symbol
_atom_site_label
_atom_site_fract_x
_atom_site_fract_y
_atom_site_fract_z
Si Si1 0.649607 0.344698 0.813651
Si Si2 0.421102 0.654373 0.717580
Si Si3 0.196030 0.155340 0.871817
Si Si4 0.830993 0.157919 0.378982
Si Si5 0.181383 0.154369 0.066927
Si Si6 0.580203 0.411103 0.973634
O O1 0.635111 0.250000 0.820504
O O2 0.723966 0.368689 0.855629
O O3 0.647817 0.374411 0.710653
O O4 0.591592 0.393452 0.869190
O O5 0.500000 0.619404 0.720717
O O6 0.423832 0.750000 0.723936
O O7 0.375485 0.617695 0.798936
O O8 0.384352 0.626850 0.625981
O O9 0.190604 0.250000 0.872750
O O10 0.170945 0.119905 0.966770
O O11 0.820987 0.250000 0.354335
O O12 0.753481 0.119731 0.390117
O O13 0.873451 0.150983 0.470476
O O14 0.187437 0.250000 0.062472
O O15 0.500000 0.397079 0.998651
O O16 0.604324 0.500000 0.000000
#
# Coordination Sequence:
#
# PCOD8297846 Si02
#       6
#    16  16  16  16  16  16
#     4   9  16  30  52  75  98 127 167 211 254 304
#     4   9  17  27  42  69 104 136 163 200 251 297
#     4   8  14  26  50  78  97 121 159 207 261 299
#     4  10  18  31  52  74  94 128 175 213 245 297
#     4   9  15  26  47  74 101 129 163 207 253 298
#     4  11  23  35  48  70 104 139 166 207 266 314
#
# _framework density 19.986218999999998
#
# number of rings (size 3 to 8) (size 9 to 14) (size 15 to 20)
#    0.000    2.667    1.667    2.500    0.000    4.000 
#    0.000    0.833    7.333    3.000    0.000    0.000 
#    0.000    4.667    0.000    0.000    0.000    0.000 
#
# Total GULP energy -594898.211325 kJ/mol
# GULP energy per Si atom -12393.712736 kJ/mol
# Density = 1.994073 g / cm^3
# Si number density = 19.986219 Si / 1000 Ang^3
#
#
#
# Elastic Constant Matrix: (Units=GPa)
#
#
# Indices 1 2 3 4 5 6 
#
# 1 99.4315 12.8249 69.0848 0.0000 0.0000 0.0000
# 2 12.8249 17.1785 11.9400 0.0000 0.0000 0.0000
# 3 69.0848 11.9400 174.1144 0.0000 0.0000 0.0000
# 4 0.0000 0.0000 0.0000 7.8447 0.0000 0.0000
# 5 0.0000 0.0000 0.0000 0.0000 31.9466 0.0000
# 6 0.0000 0.0000 0.0000 0.0000 0.0000 9.3626
#
#
#
# Elastic Compliance Matrix: (Units=1/GPa)
#
#
# Indices 1 2 3 4 5 6 
#
# 1 0.014701 -0.007267 -0.005335 0.000000 0.000000 0.000000
# 2 -0.007267 0.064718 -0.001555 0.000000 0.000000 0.000000
# 3 -0.005335 -0.001555 0.007967 0.000000 0.000000 0.000000
# 4 0.000000 0.000000 0.000000 0.127475 0.000000 0.000000
# 5 0.000000 0.000000 0.000000 0.000000 0.031302 0.000000
# 6 0.000000 0.000000 0.000000 0.000000 0.000000 0.106808
#
#
# Mechanical properties :
#
#
# Convention : Reuss Voigt Hill
#
# Bulk Modulus (GPa) = 16.92831 53.15822 35.04327
# Shear Modulus (GPa) = 12.46958 22.95574 17.71266
#
# Velocity S-wave (km/s) = 2.50053 3.39275 2.98021
# Velocity P-wave (km/s) = 4.10186 6.48096 5.42347
#
# Compressibility (1/GPa) = 0.05907263
#
# Stress axis : x y z
#
# Youngs Moduli (GPa) = 68.02217 15.45159 125.52330
#
# Poissons Ratio (x) = 0.11229 0.66963
# Poissons Ratio (y) = 0.49435 0.19513
# Poissons Ratio (z) = 0.36288 0.02402
#
# Static dielectric constant tensor:
#      x y z
#    x 3.584970 0.000000 0.000000 
#    y 0.000000 2.934740 0.000000 
#    z 0.000000 0.000000 4.182530 
# 
# 
# High freq. dielectric constant tensor:
#      x y z
#    x 1.762800 0.000000 0.000000 
#    y 0.000000 1.711380 0.000000 
#    z 0.000000 0.000000 1.797660 
# 
# From -- ./inp_files/32370.got.cif
#   From: 2010.03.12/outbox.cif.g09.slc.cpg/sg74_17_cif.got.tgz:32370.got - 2010.04.16 15:46:19.
