data_PCOD8297767
_publ_section_title
;
Structure prediction by ZEFSAII (Michael W. Deem and Ramdas Pophale) SiO2 
 PCOD8297767
Probable space group: I M M A
;
_chemical_formula_sum "Si O2"
_cell_formula_units_Z 104
_cell_length_a 9.110275
_cell_length_b 25.935767
_cell_length_c 23.620541
_cell_angle_alpha 90.000000
_cell_angle_beta 90.000000
_cell_angle_gamma 90.000000
_cell_volume 5581.107953
_symmetry_space_group_name_H-M "I M M A"
_symmetry_group_IT_number 74
_symmetry_cell_setting 'orthorhombic'
loop_
_space_group_symop_operation_xyz
x,y,z
-x,1/2-y,z
x,-y,-z
-x,1/2+y,-z
-x,-y,-z
x,1/2+y,-z
-x,y,z
x,1/2-y,z
1/2+x,1/2+y,1/2+z
1/2-x,-y,1/2+z
1/2+x,1/2-y,1/2-z
1/2-x,y,1/2-z
1/2-x,1/2-y,1/2-z
1/2+x,y,1/2-z
1/2-x,1/2+y,1/2+z
1/2+x,-y,1/2+z
loop_
_atom_site_type_symbol
_atom_site_label
_atom_site_fract_x
_atom_site_fract_y
_atom_site_fract_z
Si Si1 0.173724 0.750000 0.309219
Si Si2 0.660006 0.194074 0.297346
Si Si3 0.173258 0.842300 0.386049
Si Si4 0.673244 0.449161 0.190517
Si Si5 0.166483 0.877814 0.898445
Si Si6 0.174858 0.189683 0.490849
Si Si7 0.829655 0.568295 0.307270
O O1 0.250000 0.750000 0.250000
O O2 0.230514 0.799800 0.342543
O O3 0.000000 0.750000 0.301461
O O4 0.500000 0.199012 0.271101
O O5 0.735245 0.250000 0.305204
O O6 0.750000 0.161593 0.250000
O O7 0.655091 0.170436 0.358096
O O8 0.234967 0.828650 0.447996
O O9 0.224548 0.897889 0.361296
O O10 0.000000 0.839620 0.391218
O O11 0.500000 0.436296 0.194703
O O12 0.750000 0.433294 0.250000
O O13 0.744424 0.421735 0.135616
O O14 0.702787 0.509103 0.178451
O O15 0.000000 0.896774 0.914247
O O16 0.252668 0.854057 0.951290
O O17 0.221555 0.250000 0.479805
O O18 0.000000 0.185240 0.484839
O O19 0.750000 0.586088 0.250000
O O20 0.000000 0.578405 0.296117
#
# Coordination Sequence:
#
# PCOD8297767 Si02
#       7
#     8  16  16  16  16  16  16
#     4  10  18  30  52  82 114 142 173 216 265 322
#     4   9  18  31  46  66  93 122 154 198 255 313
#     4   9  17  33  55  79 108 143 180 218 264 319
#     4  10  20  35  55  80 108 140 179 224 272 323
#     4  11  22  35  52  74 102 139 181 226 273 321
#     4  10  20  36  57  78 103 142 187 226 266 317
#     4   9  18  33  55  81 110 142 176 217 268 324
#
# _framework density 18.634293
#
# number of rings (size 3 to 8) (size 9 to 14) (size 15 to 20)
#    0.000    2.308    0.769    2.308    0.000    4.000 
#    0.000    3.846    0.000    4.615    0.000    0.000 
#    0.000    0.000    0.000    0.000    0.000    0.000 
#
# Total GULP energy -644191.749420 kJ/mol
# GULP energy per Si atom -12388.302873 kJ/mol
# Density = 1.859188 g / cm^3
# Si number density = 18.634293 Si / 1000 Ang^3
#
#
#
# Elastic Constant Matrix: (Units=GPa)
#
#
# Indices 1 2 3 4 5 6 
#
# 1 70.3986 39.5806 47.3729 0.0000 0.0000 0.0000
# 2 39.5806 108.0220 60.8157 0.0000 0.0000 0.0000
# 3 47.3729 60.8157 137.8336 0.0000 0.0000 0.0000
# 4 0.0000 0.0000 0.0000 35.5530 0.0000 0.0000
# 5 0.0000 0.0000 0.0000 0.0000 29.9223 0.0000
# 6 0.0000 0.0000 0.0000 0.0000 0.0000 22.4510
#
#
#
# Elastic Compliance Matrix: (Units=1/GPa)
#
#
# Indices 1 2 3 4 5 6 
#
# 1 0.020072 -0.004618 -0.004861 0.000000 0.000000 0.000000
# 2 -0.004618 0.013379 -0.004316 0.000000 0.000000 0.000000
# 3 -0.004861 -0.004316 0.010830 0.000000 0.000000 0.000000
# 4 0.000000 0.000000 0.000000 0.028127 0.000000 0.000000
# 5 0.000000 0.000000 0.000000 0.000000 0.033420 0.000000
# 6 0.000000 0.000000 0.000000 0.000000 0.000000 0.044541
#
#
# Mechanical properties :
#
#
# Convention : Reuss Voigt Hill
#
# Bulk Modulus (GPa) = 59.91094 67.97696 63.94395
# Shear Modulus (GPa) = 27.24424 28.81761 28.03092
#
# Velocity S-wave (km/s) = 3.82782 3.93680 3.88269
# Velocity P-wave (km/s) = 7.19423 7.56460 7.38174
#
# Compressibility (1/GPa) = 0.01669144
#
# Stress axis : x y z
#
# Youngs Moduli (GPa) = 49.81953 74.74162 92.33320
#
# Poissons Ratio (x) = 0.34515 0.44886
# Poissons Ratio (y) = 0.23006 0.39853
# Poissons Ratio (z) = 0.24219 0.32260
#
# Static dielectric constant tensor:
#      x y z
#    x 3.528490 0.000000 0.000000 
#    y 0.000000 3.582760 0.000000 
#    z 0.000000 0.000000 3.485670 
# 
# 
# High freq. dielectric constant tensor:
#      x y z
#    x 1.709060 0.000000 0.000000 
#    y 0.000000 1.728940 0.000000 
#    z 0.000000 0.000000 1.718720 
# 
# From -- ./inp_files/49647.got.cif
#   From: 2010.03.12/outbox.cif.g09.slc.cpg/sg74_25_cif.got.tgz:49647.got - 2010.04.16 15:46:19.
