data_PCOD8297335
_publ_section_title
;
Structure prediction by ZEFSAII (Michael W. Deem and Ramdas Pophale) SiO2 
 PCOD8297335
Probable space group: I M M A
;
_chemical_formula_sum "Si O2"
_cell_formula_units_Z 96
_cell_length_a 9.215970
_cell_length_b 28.663928
_cell_length_c 20.179462
_cell_angle_alpha 90.000000
_cell_angle_beta 90.000000
_cell_angle_gamma 90.000000
_cell_volume 5330.725751
_symmetry_space_group_name_H-M "I M M A"
_symmetry_group_IT_number 74
_symmetry_cell_setting 'orthorhombic'
loop_
_space_group_symop_operation_xyz
x,y,z
-x,1/2-y,z
x,-y,-z
-x,1/2+y,-z
-x,-y,-z
x,1/2+y,-z
-x,y,z
x,1/2-y,z
1/2+x,1/2+y,1/2+z
1/2-x,-y,1/2+z
1/2+x,1/2-y,1/2-z
1/2-x,y,1/2-z
1/2-x,1/2-y,1/2-z
1/2+x,y,1/2-z
1/2-x,1/2+y,1/2+z
1/2+x,-y,1/2+z
loop_
_atom_site_type_symbol
_atom_site_label
_atom_site_fract_x
_atom_site_fract_y
_atom_site_fract_z
Si Si1 0.171672 0.337526 0.568777
Si Si2 0.828504 0.440524 0.553884
Si Si3 0.827214 0.878252 0.680612
Si Si4 0.327966 0.461404 0.091364
Si Si5 0.340452 0.803721 0.309765
Si Si6 0.171930 0.802390 0.574250
O O1 0.218995 0.391037 0.583733
O O2 0.254208 0.306512 0.621733
O O3 0.226105 0.322247 0.496178
O O4 0.000000 0.329910 0.576453
O O5 0.764676 0.444982 0.479572
O O6 0.778935 0.484179 0.600643
O O7 0.000000 0.442289 0.546613
O O8 0.750000 0.870615 0.750000
O O9 0.770715 0.927444 0.649445
O O10 0.774720 0.836284 0.632812
O O11 0.000000 0.877745 0.690339
O O12 0.500000 0.456646 0.090762
O O13 0.500000 0.827419 0.315038
O O14 0.361855 0.750000 0.292173
O O15 0.250000 0.828022 0.250000
O O16 0.233472 0.750000 0.585621
O O17 0.000000 0.801538 0.573422
#
# Coordination Sequence:
#
# PCOD8297335 Si02
#       6
#    16  16  16  16  16  16
#     4  10  17  29  52  80 102 125 160 204 252 298
#     4   8  13  23  46  75  97 119 155 201 242 288
#     4  10  19  32  49  69  96 132 170 208 250 296
#     4   8  13  25  45  70  96 122 159 202 240 285
#     4  10  21  36  52  71  98 133 168 200 240 293
#     4   9  17  29  47  72  99 127 165 211 252 293
#
# _framework density 18.008804999999999
#
# number of rings (size 3 to 8) (size 9 to 14) (size 15 to 20)
#    0.000    2.833    1.667    2.000    0.000    2.000 
#    0.000    1.667    0.000    4.000    0.000    2.333 
#    0.000    0.000    0.000    0.000    0.000    0.000 
#
# Total GULP energy -594764.486519 kJ/mol
# GULP energy per Si atom -12390.926802 kJ/mol
# Density = 1.796782 g / cm^3
# Si number density = 18.008805 Si / 1000 Ang^3
#
#
#
# Elastic Constant Matrix: (Units=GPa)
#
#
# Indices 1 2 3 4 5 6 
#
# 1 42.8205 22.3471 39.0576 0.0000 0.0000 0.0000
# 2 22.3471 114.0451 53.9604 0.0001 0.0000 0.0000
# 3 39.0576 53.9604 135.3687 0.0002 0.0000 0.0000
# 4 0.0000 0.0001 0.0002 27.9090 0.0000 0.0000
# 5 0.0000 0.0000 0.0000 0.0000 22.5752 0.0000
# 6 0.0000 0.0000 0.0000 0.0000 0.0000 9.3455
#
#
#
# Elastic Compliance Matrix: (Units=1/GPa)
#
#
# Indices 1 2 3 4 5 6 
#
# 1 0.032201 -0.002359 -0.008351 0.000000 0.000000 0.000000
# 2 -0.002359 0.010979 -0.003696 0.000000 0.000000 0.000000
# 3 -0.008351 -0.003696 0.011270 0.000000 0.000000 0.000000
# 4 0.000000 0.000000 0.000000 0.035831 0.000000 0.000000
# 5 0.000000 0.000000 0.000000 0.000000 0.044296 0.000000
# 6 0.000000 0.000000 0.000000 0.000000 0.000000 0.107004
#
#
# Mechanical properties :
#
#
# Convention : Reuss Voigt Hill
#
# Bulk Modulus (GPa) = 39.00207 58.10719 48.55463
# Shear Modulus (GPa) = 17.92508 23.75720 20.84114
#
# Velocity S-wave (km/s) = 3.15834 3.63602 3.40557
# Velocity P-wave (km/s) = 5.91645 7.06849 6.51797
#
# Compressibility (1/GPa) = 0.02563966
#
# Stress axis : x y z
#
# Youngs Moduli (GPa) = 31.05475 91.07934 88.73141
#
# Poissons Ratio (x) = 0.21483 0.74097
# Poissons Ratio (y) = 0.07325 0.32796
# Poissons Ratio (z) = 0.25933 0.33663
#
# Static dielectric constant tensor:
#      x y z
#    x 2.877120 0.000000 0.000000 
#    y 0.000000 3.774880 0.000000 
#    z 0.000000 0.000000 3.209520 
# 
# 
# High freq. dielectric constant tensor:
#      x y z
#    x 1.640500 0.000000 0.000000 
#    y 0.000000 1.705380 0.000000 
#    z 0.000000 0.000000 1.686630 
# 
# From -- ./inp_files/49088.got.cif
#   From: 2010.03.12/outbox.cif.g09.slc.cpg/sg74_25_cif.got.tgz:49088.got - 2010.04.16 15:46:19.
