data_PCOD8297978
_publ_section_title
;
Structure prediction by ZEFSAII (Michael W. Deem and Ramdas Pophale) SiO2 
 PCOD8297978
Probable space group: I M M A
;
_chemical_formula_sum "Si O2"
_cell_formula_units_Z 80
_cell_length_a 9.457061
_cell_length_b 11.797381
_cell_length_c 40.936945
_cell_angle_alpha 90.000000
_cell_angle_beta 90.000000
_cell_angle_gamma 90.000000
_cell_volume 4567.275667
_symmetry_space_group_name_H-M "I M M A"
_symmetry_group_IT_number 74
_symmetry_cell_setting 'orthorhombic'
loop_
_space_group_symop_operation_xyz
x,y,z
-x,1/2-y,z
x,-y,-z
-x,1/2+y,-z
-x,-y,-z
x,1/2+y,-z
-x,y,z
x,1/2-y,z
1/2+x,1/2+y,1/2+z
1/2-x,-y,1/2+z
1/2+x,1/2-y,1/2-z
1/2-x,y,1/2-z
1/2-x,1/2-y,1/2-z
1/2+x,y,1/2-z
1/2-x,1/2+y,1/2+z
1/2+x,-y,1/2+z
loop_
_atom_site_type_symbol
_atom_site_label
_atom_site_fract_x
_atom_site_fract_y
_atom_site_fract_z
Si Si1 0.664593 0.382453 0.409825
Si Si2 0.837722 0.250000 0.568778
Si Si3 0.334990 0.750000 0.365535
Si Si4 0.836045 0.617838 0.781547
Si Si5 0.335486 0.487350 0.962789
Si Si6 0.666329 0.505861 0.345289
O O1 0.500000 0.411032 0.414952
O O2 0.690098 0.250000 0.404655
O O3 0.748101 0.423808 0.441450
O O4 0.726998 0.446711 0.377942
O O5 0.742864 0.250000 0.600431
O O6 0.801023 0.140771 0.547354
O O7 0.000000 0.250000 0.580065
O O8 0.500000 0.750000 0.373899
O O9 0.293146 0.861238 0.344866
O O10 0.813212 0.750000 0.788455
O O11 0.750000 0.577098 0.750000
O O12 0.771505 0.551071 0.812616
O O13 0.000000 0.588958 0.775565
O O14 0.500000 0.517023 0.958569
O O15 0.286456 0.500000 0.000000
O O16 0.500000 0.484883 0.345090
#
# Coordination Sequence:
#
# PCOD8297978 Si02
#       6
#    16   8   8  16  16  16
#     4  10  20  34  53  78 104 130 167 214 259 302
#     4  10  20  36  54  75 101 134 175 216 257 303
#     4  10  18  32  55  77  97 132 176 212 250 307
#     4   9  17  31  51  74 101 133 166 203 248 299
#     4  10  22  37  54  74 101 137 173 210 256 312
#     4   9  17  31  52  76 101 131 168 208 251 299
#
# _framework density 17.515913000000001
#
# number of rings (size 3 to 8) (size 9 to 14) (size 15 to 20)
#    0.000    2.400    2.000    0.600    1.400    3.200 
#    0.000    2.500    0.000    2.400    0.000    0.000 
#    0.000    0.000    0.000    0.000    0.000    0.000 
#
# Total GULP energy -496059.752172 kJ/mol
# GULP energy per Si atom -12401.493804 kJ/mol
# Density = 1.747605 g / cm^3
# Si number density = 17.515913 Si / 1000 Ang^3
#
#
#
# Elastic Constant Matrix: (Units=GPa)
#
#
# Indices 1 2 3 4 5 6 
#
# 1 40.4315 35.7395 48.2074 0.0000 0.0000 0.0000
# 2 35.7395 107.8308 68.0950 0.0000 0.0000 0.0000
# 3 48.2074 68.0950 164.1091 0.0000 0.0000 0.0000
# 4 0.0000 0.0000 0.0000 36.6946 0.0000 0.0000
# 5 0.0000 0.0000 0.0000 0.0000 29.7769 0.0000
# 6 0.0000 0.0000 0.0000 0.0000 0.0000 16.7594
#
#
#
# Elastic Compliance Matrix: (Units=1/GPa)
#
#
# Indices 1 2 3 4 5 6 
#
# 1 0.043181 -0.008539 -0.009141 0.000000 0.000000 0.000000
# 2 -0.008539 0.014255 -0.003407 0.000000 0.000000 0.000000
# 3 -0.009141 -0.003407 0.010192 0.000000 0.000000 0.000000
# 4 0.000000 0.000000 0.000000 0.027252 0.000000 0.000000
# 5 0.000000 0.000000 0.000000 0.000000 0.033583 0.000000
# 6 0.000000 0.000000 0.000000 0.000000 0.000000 0.059668
#
#
# Mechanical properties :
#
#
# Convention : Reuss Voigt Hill
#
# Bulk Modulus (GPa) = 39.28624 68.49503 53.89063
# Shear Modulus (GPa) = 20.93891 27.33484 24.13687
#
# Velocity S-wave (km/s) = 3.46124 3.95469 3.71617
# Velocity P-wave (km/s) = 6.20090 7.74869 7.01760
#
# Compressibility (1/GPa) = 0.02545420
#
# Stress axis : x y z
#
# Youngs Moduli (GPa) = 23.15852 70.14920 98.11336
#
# Poissons Ratio (x) = 0.59902 0.89687
# Poissons Ratio (y) = 0.19776 0.33424
# Poissons Ratio (z) = 0.21170 0.23897
#
# Static dielectric constant tensor:
#      x y z
#    x 3.052670 0.000000 0.000000 
#    y 0.000000 3.301670 0.000000 
#    z 0.000000 0.000000 3.450040 
# 
# 
# High freq. dielectric constant tensor:
#      x y z
#    x 1.650620 0.000000 0.000000 
#    y 0.000000 1.686230 0.000000 
#    z 0.000000 0.000000 1.680220 
# 
# From -- ./inp_files/71546.got.cif
#   From: 2010.03.12/outbox.cif.g09.slc.cpg/sg74_36_cif.got.tgz:71546.got - 2010.04.16 15:46:19.
