data_PCOD8297951
_publ_section_title
;
Structure prediction by ZEFSAII (Michael W. Deem and Ramdas Pophale) SiO2 
 PCOD8297951
Probable space group: I M M A
;
_chemical_formula_sum "Si O2"
_cell_formula_units_Z 96
_cell_length_a 17.615075
_cell_length_b 28.314248
_cell_length_c 10.256953
_cell_angle_alpha 90.000000
_cell_angle_beta 90.000000
_cell_angle_gamma 90.000000
_cell_volume 5115.733283
_symmetry_space_group_name_H-M "I M M A"
_symmetry_group_IT_number 74
_symmetry_cell_setting 'orthorhombic'
loop_
_space_group_symop_operation_xyz
x,y,z
-x,1/2-y,z
x,-y,-z
-x,1/2+y,-z
-x,-y,-z
x,1/2+y,-z
-x,y,z
x,1/2-y,z
1/2+x,1/2+y,1/2+z
1/2-x,-y,1/2+z
1/2+x,1/2-y,1/2-z
1/2-x,y,1/2-z
1/2-x,1/2-y,1/2-z
1/2+x,y,1/2-z
1/2-x,1/2+y,1/2+z
1/2+x,-y,1/2+z
loop_
_atom_site_type_symbol
_atom_site_label
_atom_site_fract_x
_atom_site_fract_y
_atom_site_fract_z
Si Si1 0.656051 0.250000 0.100207
Si Si2 0.409343 0.505706 0.352333
Si Si3 0.910247 0.906667 0.759991
Si Si4 0.588782 0.841580 0.505563
Si Si5 0.909231 0.848047 0.515256
Si Si6 0.664292 0.250000 0.396937
Si Si7 0.089161 0.895790 0.252182
O O1 0.624471 0.204318 0.025628
O O2 0.629044 0.250000 0.251024
O O3 0.745906 0.250000 0.100329
O O4 0.378514 0.500000 0.500000
O O5 0.500000 0.508730 0.358305
O O6 0.381478 0.460749 0.267310
O O7 0.376032 0.552631 0.282335
O O8 0.883476 0.880185 0.890185
O O9 0.877351 0.879876 0.634050
O O10 0.000000 0.906507 0.751266
O O11 0.500000 0.830740 0.522181
O O12 0.635828 0.794666 0.524255
O O13 0.608975 0.859944 0.362822
O O14 0.877776 0.873636 0.385166
O O15 0.000000 0.843968 0.515778
O O16 0.000000 0.902047 0.268603
#
# Coordination Sequence:
#
# PCOD8297951 Si02
#       7
#     8  16  16  16  16   8  16
#     4  11  23  38  53  74 102 134 173 220 270 309
#     4   9  14  24  44  74 110 139 165 206 253 296
#     4   9  16  26  47  75 103 136 169 202 249 304
#     4  10  18  32  53  79 104 131 171 213 252 302
#     4  10  20  34  52  76 106 139 172 211 261 311
#     4  11  23  36  55  78  96 130 179 222 262 309
#     4   9  18  30  48  77 111 139 166 207 257 305
#
# _framework density 18.765637999999999
#
# number of rings (size 3 to 8) (size 9 to 14) (size 15 to 20)
#    0.000    2.333    3.333    0.500    0.000    2.000 
#    0.000    7.500    0.000    0.000    0.000    7.000 
#    0.000    0.000    0.000    0.000    0.000    0.000 
#
# Total GULP energy -595088.822342 kJ/mol
# GULP energy per Si atom -12397.683799 kJ/mol
# Density = 1.872293 g / cm^3
# Si number density = 18.765638 Si / 1000 Ang^3
#
#
#
# Elastic Constant Matrix: (Units=GPa)
#
#
# Indices 1 2 3 4 5 6 
#
# 1 20.9965 26.1840 18.8228 0.0002 0.0002 -0.0001
# 2 26.1840 162.9231 64.6732 0.0001 0.0002 0.0003
# 3 18.8228 64.6732 137.9680 -0.0010 -0.0012 0.0002
# 4 0.0002 0.0001 -0.0010 31.8689 -0.0003 0.0002
# 5 0.0002 0.0002 -0.0012 -0.0003 11.2276 0.0000
# 6 -0.0001 0.0003 0.0002 0.0002 0.0000 7.8546
#
#
#
# Elastic Compliance Matrix: (Units=1/GPa)
#
#
# Indices 1 2 3 4 5 6 
#
# 1 0.061898 -0.008104 -0.004646 -0.000001 -0.000002 0.000001
# 2 -0.008104 0.008602 -0.002927 0.000000 0.000000 0.000000
# 3 -0.004646 -0.002927 0.009254 0.000000 0.000001 0.000000
# 4 -0.000001 0.000000 0.000000 0.031379 0.000001 -0.000001
# 5 -0.000002 0.000000 0.000001 0.000001 0.089066 0.000000
# 6 0.000001 0.000000 0.000000 -0.000001 0.000000 0.127314
#
#
# Mechanical properties :
#
#
# Convention : Reuss Voigt Hill
#
# Bulk Modulus (GPa) = 20.66076 60.13862 40.39969
# Shear Modulus (GPa) = 13.33337 24.33738 18.83537
#
# Velocity S-wave (km/s) = 2.66845 3.60517 3.17158
# Velocity P-wave (km/s) = 4.53078 7.03182 5.91500
#
# Compressibility (1/GPa) = 0.04840094
#
# Stress axis : x y z
#
# Youngs Moduli (GPa) = 16.15569 116.25239 108.06377
#
# Poissons Ratio (x) = 0.94206 0.50207
# Poissons Ratio (y) = 0.13092 0.31627
# Poissons Ratio (z) = 0.07506 0.34023
#
# Static dielectric constant tensor:
#      x y z
#    x 2.823270 0.000000 0.000000 
#    y 0.000000 3.630540 0.000000 
#    z 0.000000 0.000000 3.689910 
# 
# 
# High freq. dielectric constant tensor:
#      x y z
#    x 1.662930 0.000000 0.000000 
#    y 0.000000 1.747580 0.000000 
#    z 0.000000 0.000000 1.733770 
# 
# From -- ./inp_files/22716.got.cif
#   From: 2010.03.12/outbox.cif.g09.slc.cpg/sg74_12_cif.got.tgz:22716.got - 2010.04.16 15:46:19.
