data_PCOD8297361
_publ_section_title
;
Structure prediction by ZEFSAII (Michael W. Deem and Ramdas Pophale) SiO2 
 PCOD8297361
Probable space group: I M M A
;
_chemical_formula_sum "Si O2"
_cell_formula_units_Z 128
_cell_length_a 20.910736
_cell_length_b 21.921655
_cell_length_c 16.721757
_cell_angle_alpha 90.000000
_cell_angle_beta 90.000000
_cell_angle_gamma 90.000000
_cell_volume 7665.218968
_symmetry_space_group_name_H-M "I M M A"
_symmetry_group_IT_number 74
_symmetry_cell_setting 'orthorhombic'
loop_
_space_group_symop_operation_xyz
x,y,z
-x,1/2-y,z
x,-y,-z
-x,1/2+y,-z
-x,-y,-z
x,1/2+y,-z
-x,y,z
x,1/2-y,z
1/2+x,1/2+y,1/2+z
1/2-x,-y,1/2+z
1/2+x,1/2-y,1/2-z
1/2-x,y,1/2-z
1/2-x,1/2-y,1/2-z
1/2+x,y,1/2-z
1/2-x,1/2+y,1/2+z
1/2+x,-y,1/2+z
loop_
_atom_site_type_symbol
_atom_site_label
_atom_site_fract_x
_atom_site_fract_y
_atom_site_fract_z
Si Si1 0.236658 0.628467 0.372476
Si Si2 0.264951 0.181721 0.469789
Si Si3 0.568971 0.099670 0.638089
Si Si4 0.843608 0.321845 0.762024
Si Si5 0.698526 0.111153 0.317840
Si Si6 0.410792 0.817585 0.502478
Si Si7 0.682783 0.985591 0.405702
Si Si8 0.928907 0.678897 0.814920
O O1 0.220843 0.648997 0.463582
O O2 0.174253 0.639397 0.317917
O O3 0.290645 0.670896 0.331388
O O4 0.258694 0.557742 0.377002
O O5 0.240262 0.250000 0.458288
O O6 0.265007 0.152492 0.382603
O O7 0.335036 0.177219 0.507481
O O8 0.500000 0.073172 0.665180
O O9 0.591952 0.146973 0.706167
O O10 0.556471 0.135559 0.556188
O O11 0.616453 0.044736 0.619821
O O12 0.853266 0.250000 0.743308
O O13 0.750000 0.101132 0.250000
O O14 0.632203 0.140410 0.282402
O O15 0.683239 0.047212 0.357122
O O16 0.434075 0.750000 0.480237
O O17 0.432213 0.834096 0.591244
O O18 0.686514 0.000000 0.500000
O O19 0.914836 0.750000 0.797456
O O20 0.000000 0.660929 0.779648
#
# Coordination Sequence:
#
# PCOD8297361 Si02
#       8
#    16  16  16  16  16  16  16  16
#     4  10  18  31  50  72  97 133 173 215 258 308
#     4  10  17  31  52  74 102 130 165 213 264 317
#     4  11  22  31  44  69 104 142 174 210 252 305
#     4  10  19  30  49  74 100 130 172 224 263 302
#     4  11  23  34  52  78 105 138 172 221 267 305
#     4   9  15  26  45  70  99 133 169 199 237 298
#     4  11  21  36  51  70 101 140 179 215 255 309
#     4   9  18  33  52  73 101 138 173 207 256 318
#
# _framework density 16.698806000000001
#
# number of rings (size 3 to 8) (size 9 to 14) (size 15 to 20)
#    0.000    1.875    3.750    4.125    3.500    3.250 
#    0.000    0.000    0.000    0.000    0.000    0.875 
#    0.000    3.000    0.000    0.000    0.000    0.000 
#
# Total GULP energy -793056.618237 kJ/mol
# GULP energy per Si atom -12391.509660 kJ/mol
# Density = 1.666080 g / cm^3
# Si number density = 16.698806 Si / 1000 Ang^3
#
#
#
# Elastic Constant Matrix: (Units=GPa)
#
#
# Indices 1 2 3 4 5 6 
#
# 1 74.7830 37.2694 31.0826 0.0000 0.0000 0.0000
# 2 37.2694 95.3821 16.3355 0.0000 0.0000 0.0000
# 3 31.0826 16.3355 42.7236 0.0000 0.0000 0.0000
# 4 0.0000 0.0000 0.0000 25.4017 0.0000 0.0000
# 5 0.0000 0.0000 0.0000 0.0000 6.0503 0.0000
# 6 0.0000 0.0000 0.0000 0.0000 0.0000 8.1522
#
#
#
# Elastic Compliance Matrix: (Units=1/GPa)
#
#
# Indices 1 2 3 4 5 6 
#
# 1 0.022252 -0.006337 -0.013766 0.000000 0.000000 0.000000
# 2 -0.006337 0.013023 -0.000369 0.000000 0.000000 0.000000
# 3 -0.013766 -0.000369 0.033562 0.000000 0.000000 0.000000
# 4 0.000000 0.000000 0.000000 0.039368 0.000000 0.000000
# 5 0.000000 0.000000 0.000000 0.000000 0.165280 0.000000
# 6 0.000000 0.000000 0.000000 0.000000 0.000000 0.122667
#
#
# Mechanical properties :
#
#
# Convention : Reuss Voigt Hill
#
# Bulk Modulus (GPa) = 35.85051 42.47376 39.16214
# Shear Modulus (GPa) = 11.20085 16.46758 13.83422
#
# Velocity S-wave (km/s) = 2.59271 3.14371 2.88141
# Velocity P-wave (km/s) = 5.52072 6.21833 5.87988
#
# Compressibility (1/GPa) = 0.02789360
#
# Stress axis : x y z
#
# Youngs Moduli (GPa) = 44.94029 76.78438 29.79523
#
# Poissons Ratio (x) = 0.48658 0.41015
# Poissons Ratio (y) = 0.28479 0.01100
# Poissons Ratio (z) = 0.61864 0.02835
#
# Static dielectric constant tensor:
#      x y z
#    x 3.096790 0.000000 0.000000 
#    y 0.000000 3.247260 0.000000 
#    z 0.000000 0.000000 3.057240 
# 
# 
# High freq. dielectric constant tensor:
#      x y z
#    x 1.613380 0.000000 0.000000 
#    y 0.000000 1.649770 0.000000 
#    z 0.000000 0.000000 1.619450 
# 
# From -- ./inp_files/45626.got.cif
#   From: 2010.03.12/outbox.cif.g09.slc.cpg/sg74_23_cif.got.tgz:45626.got - 2010.04.16 15:46:19.
