data_PCOD8297327
_publ_section_title
;
Structure prediction by ZEFSAII (Michael W. Deem and Ramdas Pophale) SiO2 
 PCOD8297327
Probable space group: I M M A
;
_chemical_formula_sum "Si O2"
_cell_formula_units_Z 80
_cell_length_a 7.790037
_cell_length_b 24.293128
_cell_length_c 23.429888
_cell_angle_alpha 90.000000
_cell_angle_beta 90.000000
_cell_angle_gamma 90.000000
_cell_volume 4433.974299
_symmetry_space_group_name_H-M "I M M A"
_symmetry_group_IT_number 74
_symmetry_cell_setting 'orthorhombic'
loop_
_space_group_symop_operation_xyz
x,y,z
-x,1/2-y,z
x,-y,-z
-x,1/2+y,-z
-x,-y,-z
x,1/2+y,-z
-x,y,z
x,1/2-y,z
1/2+x,1/2+y,1/2+z
1/2-x,-y,1/2+z
1/2+x,1/2-y,1/2-z
1/2-x,y,1/2-z
1/2-x,1/2-y,1/2-z
1/2+x,y,1/2-z
1/2-x,1/2+y,1/2+z
1/2+x,-y,1/2+z
loop_
_atom_site_type_symbol
_atom_site_label
_atom_site_fract_x
_atom_site_fract_y
_atom_site_fract_z
Si Si1 0.805796 0.872826 0.684222
Si Si2 0.302374 0.397944 0.814252
Si Si3 0.306314 0.012478 0.313726
Si Si4 0.000000 0.684700 0.879699
Si Si5 0.303467 0.685894 0.088780
Si Si6 0.000000 0.684980 0.007775
O O1 0.750000 0.873336 0.750000
O O2 0.802140 0.936200 0.661163
O O3 0.674834 0.834754 0.650115
O O4 0.000000 0.850002 0.677133
O O5 0.500000 0.412014 0.814767
O O6 0.250000 0.382708 0.750000
O O7 0.215454 0.452641 0.843011
O O8 0.255817 0.345951 0.853345
O O9 0.500000 0.033481 0.317058
O O10 0.250000 0.998743 0.250000
O O11 0.000000 0.750000 0.877908
O O12 0.000000 0.660657 0.943946
O O13 0.500000 0.674084 0.069242
O O14 0.275750 0.750000 0.102153
O O15 0.173501 0.665238 0.039643
O O16 0.000000 0.750000 0.003808
#
# Coordination Sequence:
#
# PCOD8297327 Si02
#       6
#    16  16  16   8  16   8
#     4  11  20  37  58  82 114 147 175 211 269 326
#     4  10  19  29  47  80 112 142 182 228 275 322
#     4  10  17  29  50  75 108 144 182 219 257 322
#     4  11  24  40  57  87 113 137 182 223 265 327
#     4   9  19  35  54  76 106 145 186 228 275 323
#     4   9  20  38  59  75 101 145 191 226 261 320
#
# _framework density 18.042504000000001
#
# number of rings (size 3 to 8) (size 9 to 14) (size 15 to 20)
#    0.000    2.000    2.000    4.800    2.800    2.000 
#    0.000    2.000    0.000    2.400    0.000    4.200 
#    0.000    0.000    0.000    0.000    0.000    0.000 
#
# Total GULP energy -495740.897903 kJ/mol
# GULP energy per Si atom -12393.522448 kJ/mol
# Density = 1.800144 g / cm^3
# Si number density = 18.042504 Si / 1000 Ang^3
#
#
#
# Elastic Constant Matrix: (Units=GPa)
#
#
# Indices 1 2 3 4 5 6 
#
# 1 138.9693 41.3567 54.1124 0.0000 0.0000 0.0000
# 2 41.3567 87.7280 45.9357 0.0000 0.0000 0.0000
# 3 54.1124 45.9357 94.3289 0.0000 0.0000 0.0000
# 4 0.0000 0.0000 0.0000 -1.4551 0.0000 0.0000
# 5 0.0000 0.0000 0.0000 0.0000 22.4141 0.0000
# 6 0.0000 0.0000 0.0000 0.0000 0.0000 18.4389
#
#
#
# Elastic Compliance Matrix: (Units=1/GPa)
#
#
# Indices 1 2 3 4 5 6 
#
# 1 0.009571 -0.002197 -0.004420 0.000000 0.000000 0.000000
# 2 -0.002197 0.015805 -0.006436 0.000000 0.000000 0.000000
# 3 -0.004420 -0.006436 0.016271 0.000000 0.000000 0.000000
# 4 0.000000 0.000000 0.000000 -0.687257 0.000000 0.000000
# 5 0.000000 0.000000 0.000000 0.000000 0.044615 0.000000
# 6 0.000000 0.000000 0.000000 0.000000 0.000000 0.054233
#
#
# Mechanical properties :
#
#
# Convention : Reuss Voigt Hill
#
# Bulk Modulus (GPa) = 64.35251 67.09286 65.72268
# Shear Modulus (GPa) = -9.69979 19.85434 5.07728
#
# Velocity S-wave (km/s) = -2.32115 3.32086 1.67934
# Velocity P-wave (km/s) = 5.34424 7.20908 6.34554
#
# Compressibility (1/GPa) = 0.01553941
#
# Stress axis : x y z
#
# Youngs Moduli (GPa) = 104.48232 63.27229 61.45846
#
# Poissons Ratio (x) = 0.13903 0.27167
# Poissons Ratio (y) = 0.22958 0.39554
# Poissons Ratio (z) = 0.46186 0.40722
#
# Static dielectric constant tensor:
#      x y z
#    x 3.614230 0.000000 0.000000 
#    y 0.000000 3.422330 0.000000 
#    z 0.000000 0.000000 3.195890 
# 
# 
# High freq. dielectric constant tensor:
#      x y z
#    x 1.719390 0.000000 0.000000 
#    y 0.000000 1.699390 0.000000 
#    z 0.000000 0.000000 1.654280 
# 
# From -- ./inp_files/57164.got.cif
#   From: 2010.03.12/outbox.cif.g09.slc.cpg/sg74_29_cif.got.tgz:57164.got - 2010.04.16 15:46:19.
