data_PCOD8297373
_publ_section_title
;
Structure prediction by ZEFSAII (Michael W. Deem and Ramdas Pophale) SiO2 
 PCOD8297373
Probable space group: I M M A
;
_chemical_formula_sum "Si O2"
_cell_formula_units_Z 88
_cell_length_a 8.700055
_cell_length_b 27.981548
_cell_length_c 19.680847
_cell_angle_alpha 90.000000
_cell_angle_beta 90.000000
_cell_angle_gamma 90.000000
_cell_volume 4791.125204
_symmetry_space_group_name_H-M "I M M A"
_symmetry_group_IT_number 74
_symmetry_cell_setting 'orthorhombic'
loop_
_space_group_symop_operation_xyz
x,y,z
-x,1/2-y,z
x,-y,-z
-x,1/2+y,-z
-x,-y,-z
x,1/2+y,-z
-x,y,z
x,1/2-y,z
1/2+x,1/2+y,1/2+z
1/2-x,-y,1/2+z
1/2+x,1/2-y,1/2-z
1/2-x,y,1/2-z
1/2-x,1/2-y,1/2-z
1/2+x,y,1/2-z
1/2-x,1/2+y,1/2+z
1/2+x,-y,1/2+z
loop_
_atom_site_type_symbol
_atom_site_label
_atom_site_fract_x
_atom_site_fract_y
_atom_site_fract_z
Si Si1 0.817497 0.462851 0.909844
Si Si2 0.317268 0.669350 0.582122
Si Si3 0.317909 0.303092 0.567489
Si Si4 0.318266 0.250000 0.175287
Si Si5 0.182336 0.935221 0.942643
Si Si6 0.317712 0.877527 0.322643
O O1 0.760983 0.517909 0.900406
O O2 0.761334 0.430130 0.847189
O O3 0.000000 0.462037 0.913652
O O4 0.754162 0.440319 0.980322
O O5 0.500000 0.675770 0.589417
O O6 0.258164 0.684512 0.507646
O O7 0.236317 0.702090 0.637647
O O8 0.262936 0.614084 0.592581
O O9 0.500000 0.307348 0.566621
O O10 0.262910 0.250000 0.587181
O O11 0.251144 0.339155 0.623680
O O12 0.500000 0.250000 0.179646
O O13 0.250000 0.250000 0.250000
O O14 0.000000 0.933811 0.946384
O O15 0.500000 0.874598 0.318507
O O16 0.250000 0.865410 0.250000
#
# Coordination Sequence:
#
# PCOD8297373 Si02
#       6
#    16  16  16   8  16  16
#     4   8  13  24  44  74 106 132 169 215 257 304
#     4  10  17  32  59  85 105 131 171 218 264 308
#     4   9  16  28  50  76  99 130 175 217 255 304
#     4  12  26  42  58  80 109 140 169 206 261 324
#     4   8  13  23  48  81 103 125 167 220 259 300
#     4  10  19  31  47  69 102 143 178 214 258 305
#
# _framework density 18.367293
#
# number of rings (size 3 to 8) (size 9 to 14) (size 15 to 20)
#    0.000    2.727    2.727    1.909    0.000    0.364 
#    0.000    1.818    0.000    3.273    0.000    2.545 
#    0.000    0.000    0.000    0.000    0.000    0.000 
#
# Total GULP energy -545225.140337 kJ/mol
# GULP energy per Si atom -12391.480462 kJ/mol
# Density = 1.832549 g / cm^3
# Si number density = 18.367293 Si / 1000 Ang^3
#
#
#
# Elastic Constant Matrix: (Units=GPa)
#
#
# Indices 1 2 3 4 5 6 
#
# 1 32.3668 29.9817 28.2893 0.0000 0.0000 0.0000
# 2 29.9817 182.9792 86.0606 0.0001 0.0000 0.0000
# 3 28.2893 86.0606 138.0267 0.0002 0.0000 0.0000
# 4 0.0000 0.0001 0.0002 30.3358 0.0000 0.0000
# 5 0.0000 0.0000 0.0000 0.0000 21.6960 0.0000
# 6 0.0000 0.0000 0.0000 0.0000 0.0000 10.9031
#
#
#
# Elastic Compliance Matrix: (Units=1/GPa)
#
#
# Indices 1 2 3 4 5 6 
#
# 1 0.039385 -0.003759 -0.005728 0.000000 0.000000 0.000000
# 2 -0.003759 0.008092 -0.004275 0.000000 0.000000 0.000000
# 3 -0.005728 -0.004275 0.011084 0.000000 0.000000 0.000000
# 4 0.000000 0.000000 0.000000 0.032964 0.000000 0.000000
# 5 0.000000 0.000000 0.000000 0.000000 0.046091 0.000000
# 6 0.000000 0.000000 0.000000 0.000000 0.000000 0.091717
#
#
# Mechanical properties :
#
#
# Convention : Reuss Voigt Hill
#
# Bulk Modulus (GPa) = 32.22026 71.33734 51.77880
# Shear Modulus (GPa) = 18.71234 26.52303 22.61768
#
# Velocity S-wave (km/s) = 3.19531 3.80417 3.51295
# Velocity P-wave (km/s) = 5.58512 7.63015 6.68629
#
# Compressibility (1/GPa) = 0.03103637
#
# Stress axis : x y z
#
# Youngs Moduli (GPa) = 25.39060 123.58548 90.21756
#
# Poissons Ratio (x) = 0.46457 0.51679
# Poissons Ratio (y) = 0.09545 0.38565
# Poissons Ratio (z) = 0.14544 0.52829
#
# Static dielectric constant tensor:
#      x y z
#    x 2.773540 0.000000 0.000000 
#    y 0.000000 3.989950 0.000000 
#    z 0.000000 0.000000 3.304640 
# 
# 
# High freq. dielectric constant tensor:
#      x y z
#    x 1.648840 0.000000 0.000000 
#    y 0.000000 1.737060 0.000000 
#    z 0.000000 0.000000 1.692130 
# 
# From -- ./inp_files/40157.got.cif
#   From: 2010.03.12/outbox.cif.g09.slc.cpg/sg74_21_cif.got.tgz:40157.got - 2010.04.16 15:46:19.
