data_PCOD8297039
_publ_section_title
;
Structure prediction by ZEFSAII (Michael W. Deem and Ramdas Pophale) SiO2 
 PCOD8297039
Probable space group: I B C A 
;
_chemical_formula_sum "Si O2"
_cell_formula_units_Z 72
_cell_length_a 12.664837
_cell_length_b 13.230237
_cell_length_c 17.751520
_cell_angle_alpha 90.000000
_cell_angle_beta 90.000000
_cell_angle_gamma 90.000000
_cell_volume 2974.423302
_symmetry_space_group_name_H-M "I B C A "
_symmetry_group_IT_number 73
_symmetry_cell_setting 'orthorhombic'
loop_
_space_group_symop_operation_xyz
x,y,z
-x,1/2-y,z
x,-y,1/2-z
1/2-x,y,-z
-x,-y,-z
x,1/2+y,-z
-x,y,1/2+z
1/2+x,-y,z
1/2+x,1/2+y,1/2+z
1/2-x,-y,1/2+z
1/2+x,1/2-y,-z
-x,1/2+y,1/2-z
1/2-x,1/2-y,1/2-z
1/2+x,y,1/2-z
1/2-x,1/2+y,z
x,1/2-y,1/2+z
loop_
_atom_site_type_symbol
_atom_site_label
_atom_site_fract_x
_atom_site_fract_y
_atom_site_fract_z
Si Si1 0.500000 0.750000 0.119495
Si Si2 0.750000 0.410211 0.000000
Si Si3 0.665573 0.832709 0.735092
Si Si4 0.320263 0.500000 0.250000
Si Si5 0.071268 0.347826 0.396904
Si Si6 0.426505 0.461496 0.401986
O O1 0.408023 0.799689 0.167901
O O2 0.460626 0.653014 0.070867
O O3 0.820342 0.339965 0.944225
O O4 0.677589 0.485007 0.950371
O O5 0.750000 0.750000 0.750000
O O6 0.739875 0.924382 0.708688
O O7 0.595530 0.855787 0.808418
O O8 0.397532 0.453612 0.313313
O O9 0.000000 0.250000 0.413636
O O10 0.011884 0.452216 0.419505
#
# Coordination Sequence:
#
# PCOD8297039 Si02
#       6
#     8   8  16   8  16  16
#     4  12  24  44  74 108 144 180 240 300 364 422
#     4  12  28  52  68 108 146 196 248 290 372 430
#     4  12  22  43  70 107 141 177 237 299 355 425
#     4  12  22  44  72 104 146 184 238 298 358 418
#     4  12  26  50  74 104 145 194 246 296 363 434
#     4  12  27  47  74 108 146 192 241 302 360 433
#
# _framework density 24.206372999999999
#
# number of rings (size 3 to 8) (size 9 to 14) (size 15 to 20)
#    0.000    0.000    5.556    4.667    1.556    0.889 
#    0.000    0.000    0.000    0.000    0.000    0.000 
#    0.000    0.000    0.000    0.000    0.000    0.000 
#
# Total GULP energy -446316.285847 kJ/mol
# GULP energy per Si atom -12397.674607 kJ/mol
# Density = 2.415128 g / cm^3
# Si number density = 24.206373 Si / 1000 Ang^3
#
#
#
# Elastic Constant Matrix: (Units=GPa)
#
#
# Indices 1 2 3 4 5 6 
#
# 1 117.9441 48.7587 21.3230 0.0000 0.0000 0.0000
# 2 48.7587 159.2003 9.9422 0.0000 0.0000 0.0000
# 3 21.3230 9.9422 53.7612 0.0000 0.0000 0.0000
# 4 0.0000 0.0000 0.0000 31.8001 0.0000 0.0000
# 5 0.0000 0.0000 0.0000 0.0000 45.3782 0.0000
# 6 0.0000 0.0000 0.0000 0.0000 0.0000 48.5020
#
#
#
# Elastic Compliance Matrix: (Units=1/GPa)
#
#
# Indices 1 2 3 4 5 6 
#
# 1 0.010339 -0.002944 -0.003556 0.000000 0.000000 0.000000
# 2 -0.002944 0.007193 -0.000162 0.000000 0.000000 0.000000
# 3 -0.003556 -0.000162 0.020041 0.000000 0.000000 0.000000
# 4 0.000000 0.000000 0.000000 0.031446 0.000000 0.000000
# 5 0.000000 0.000000 0.000000 0.000000 0.022037 0.000000
# 6 0.000000 0.000000 0.000000 0.000000 0.000000 0.020618
#
#
# Mechanical properties :
#
#
# Convention : Reuss Voigt Hill
#
# Bulk Modulus (GPa) = 41.24146 54.55037 47.89592
# Shear Modulus (GPa) = 37.57060 41.86151 39.71605
#
# Velocity S-wave (km/s) = 3.94394 4.16307 4.05498
# Velocity P-wave (km/s) = 6.14931 6.75963 6.46168
#
# Compressibility (1/GPa) = 0.02424744
#
# Stress axis : x y z
#
# Youngs Moduli (GPa) = 96.72379 139.01775 49.89707
#
# Poissons Ratio (x) = 0.40932 0.17744
# Poissons Ratio (y) = 0.28479 0.00811
# Poissons Ratio (z) = 0.34396 0.02258
#
# Static dielectric constant tensor:
#      x y z
#    x 4.476500 0.000000 0.000000 
#    y 0.000000 4.378230 0.000000 
#    z 0.000000 0.000000 4.106510 
# 
# 
# High freq. dielectric constant tensor:
#      x y z
#    x 1.983570 0.000000 0.000000 
#    y 0.000000 1.958110 0.000000 
#    z 0.000000 0.000000 1.965190 
# 
# From -- ./inp_files/10660.got.cif
#   From: 2010.03.12/outbox.cif.g09.slc.cpg/sg73_6_cif.got.tgz:10660.got - 2010.04.16 15:25:48.
