data_PCOD8297624
_publ_section_title
;
Structure prediction by ZEFSAII (Michael W. Deem and Ramdas Pophale) SiO2 
 PCOD8297624
Probable space group: I M M A
;
_chemical_formula_sum "Si O2"
_cell_formula_units_Z 128
_cell_length_a 17.038878
_cell_length_b 17.651039
_cell_length_c 24.817215
_cell_angle_alpha 90.000000
_cell_angle_beta 90.000000
_cell_angle_gamma 90.000000
_cell_volume 7463.874201
_symmetry_space_group_name_H-M "I M M A"
_symmetry_group_IT_number 74
_symmetry_cell_setting 'orthorhombic'
loop_
_space_group_symop_operation_xyz
x,y,z
-x,1/2-y,z
x,-y,-z
-x,1/2+y,-z
-x,-y,-z
x,1/2+y,-z
-x,y,z
x,1/2-y,z
1/2+x,1/2+y,1/2+z
1/2-x,-y,1/2+z
1/2+x,1/2-y,1/2-z
1/2-x,y,1/2-z
1/2-x,1/2-y,1/2-z
1/2+x,y,1/2-z
1/2-x,1/2+y,1/2+z
1/2+x,-y,1/2+z
loop_
_atom_site_type_symbol
_atom_site_label
_atom_site_fract_x
_atom_site_fract_y
_atom_site_fract_z
Si Si1 0.712721 0.882298 0.432499
Si Si2 0.416000 0.339460 0.001650
Si Si3 0.369121 0.335387 0.886307
Si Si4 0.827931 0.045905 0.779635
Si Si5 0.246680 0.530308 0.623666
Si Si6 0.909128 0.020599 0.674501
Si Si7 0.242965 0.661273 0.549151
Si Si8 0.089190 0.338272 0.853150
O O1 0.775636 0.834688 0.397128
O O2 0.710074 0.859204 0.495025
O O3 0.627475 0.860527 0.410262
O O4 0.733666 0.970642 0.423900
O O5 0.500000 0.365414 0.025743
O O6 0.408558 0.250000 0.996667
O O7 0.346823 0.367007 0.040247
O O8 0.408337 0.369730 0.940661
O O9 0.396738 0.250000 0.872366
O O10 0.396112 0.389941 0.837986
O O11 0.750000 0.075432 0.750000
O O12 0.888433 0.007611 0.737509
O O13 0.867433 0.119158 0.805026
O O14 0.802280 0.984588 0.824796
O O15 0.153660 0.526842 0.638838
O O16 0.270553 0.612996 0.600750
O O17 0.000000 0.996158 0.663820
O O18 0.251557 0.750000 0.562623
O O19 0.095478 0.250000 0.841103
O O20 0.000000 0.365957 0.856217
#
# Coordination Sequence:
#
# PCOD8297624 Si02
#       8
#    16  16  16  16  16  16  16  16
#     4   9  17  31  48  68  98 131 156 176 216 277
#     4   8  14  24  38  62  98 130 148 169 211 265
#     4   9  16  26  42  66  97 131 162 186 211 255
#     4   9  19  34  49  63  88 125 159 190 233 283
#     4   9  19  33  48  68  94 123 153 189 229 274
#     4  10  19  30  46  67  91 122 158 195 234 273
#     4  10  18  29  50  74  92 118 156 193 229 268
#     4  10  19  30  47  72  99 124 153 191 229 266
#
# _framework density 17.149270999999999
#
# number of rings (size 3 to 8) (size 9 to 14) (size 15 to 20)
#    0.000    2.750    0.000    3.750    0.000    2.000 
#    0.000    0.000    0.000   14.625    0.000    0.000 
#    0.000    0.000    0.000    0.000    0.000    0.000 
#
# Total GULP energy -793193.205095 kJ/mol
# GULP energy per Si atom -12393.643830 kJ/mol
# Density = 1.711024 g / cm^3
# Si number density = 17.149271 Si / 1000 Ang^3
#
#
#
# Elastic Constant Matrix: (Units=GPa)
#
#
# Indices 1 2 3 4 5 6 
#
# 1 90.2484 24.3222 39.3501 0.0000 0.0000 0.0000
# 2 24.3222 77.9935 52.0816 0.0000 0.0000 0.0000
# 3 39.3501 52.0816 87.7238 0.0000 0.0000 0.0000
# 4 0.0000 0.0000 0.0000 16.7579 0.0000 0.0000
# 5 0.0000 0.0000 0.0000 0.0000 12.7764 0.0000
# 6 0.0000 0.0000 0.0000 0.0000 0.0000 11.7233
#
#
#
# Elastic Compliance Matrix: (Units=1/GPa)
#
#
# Indices 1 2 3 4 5 6 
#
# 1 0.013778 -0.000281 -0.006014 0.000000 0.000000 0.000000
# 2 -0.000281 0.021249 -0.012490 0.000000 0.000000 0.000000
# 3 -0.006014 -0.012490 0.021512 0.000000 0.000000 0.000000
# 4 0.000000 0.000000 0.000000 0.059673 0.000000 0.000000
# 5 0.000000 0.000000 0.000000 0.000000 0.078269 0.000000
# 6 0.000000 0.000000 0.000000 0.000000 0.000000 0.085300
#
#
# Mechanical properties :
#
#
# Convention : Reuss Voigt Hill
#
# Bulk Modulus (GPa) = 52.71193 54.16374 53.43784
# Shear Modulus (GPa) = 15.44757 17.59897 16.52327
#
# Velocity S-wave (km/s) = 3.00454 3.20695 3.10739
# Velocity P-wave (km/s) = 6.54524 6.73535 6.64098
#
# Compressibility (1/GPa) = 0.01897104
#
# Stress axis : x y z
#
# Youngs Moduli (GPa) = 72.57759 47.05997 46.48538
#
# Poissons Ratio (x) = 0.01322 0.27955
# Poissons Ratio (y) = 0.02039 0.58059
# Poissons Ratio (z) = 0.43646 0.58777
#
# Static dielectric constant tensor:
#      x y z
#    x 3.307790 0.000000 0.000000 
#    y 0.000000 2.858050 0.000000 
#    z 0.000000 0.000000 3.082450 
# 
# 
# High freq. dielectric constant tensor:
#      x y z
#    x 1.656160 0.000000 0.000000 
#    y 0.000000 1.628420 0.000000 
#    z 0.000000 0.000000 1.647880 
# 
# From -- ./inp_files/61124.got.cif
#   From: 2010.03.12/outbox.cif.g09.slc.cpg/sg74_31_cif.got.tgz:61124.got - 2010.04.16 15:46:19.
