data_PCOD8297866
_publ_section_title
;
Structure prediction by ZEFSAII (Michael W. Deem and Ramdas Pophale) SiO2 
 PCOD8297866
Probable space group: I M M A
;
_chemical_formula_sum "Si O2"
_cell_formula_units_Z 96
_cell_length_a 24.211835
_cell_length_b 20.834578
_cell_length_c 11.115910
_cell_angle_alpha 90.000000
_cell_angle_beta 90.000000
_cell_angle_gamma 90.000000
_cell_volume 5607.347044
_symmetry_space_group_name_H-M "I M M A"
_symmetry_group_IT_number 74
_symmetry_cell_setting 'orthorhombic'
loop_
_space_group_symop_operation_xyz
x,y,z
-x,1/2-y,z
x,-y,-z
-x,1/2+y,-z
-x,-y,-z
x,1/2+y,-z
-x,y,z
x,1/2-y,z
1/2+x,1/2+y,1/2+z
1/2-x,-y,1/2+z
1/2+x,1/2-y,1/2-z
1/2-x,y,1/2-z
1/2-x,1/2-y,1/2-z
1/2+x,y,1/2-z
1/2-x,1/2+y,1/2+z
1/2+x,-y,1/2+z
loop_
_atom_site_type_symbol
_atom_site_label
_atom_site_fract_x
_atom_site_fract_y
_atom_site_fract_z
Si Si1 0.311372 0.905699 0.063811
Si Si2 0.890430 0.622968 0.234779
Si Si3 0.000000 0.176812 0.855728
Si Si4 0.195764 0.461361 0.312640
Si Si5 0.500000 0.929966 0.561639
Si Si6 0.604437 0.485419 0.364205
Si Si7 0.716749 0.678662 0.373237
O O1 0.364151 0.872462 0.130144
O O2 0.257231 0.861919 0.041460
O O3 0.293607 0.964857 0.149477
O O4 0.327954 0.924918 0.929199
O O5 0.911465 0.551794 0.201845
O O6 0.843091 0.645577 0.140994
O O7 0.944996 0.666915 0.225429
O O8 0.000000 0.250000 0.902530
O O9 0.000000 0.129654 0.970766
O O10 0.250000 0.432524 0.250000
O O11 0.152541 0.451492 0.207170
O O12 0.444663 0.932264 0.641267
O O13 0.500000 0.000000 0.500000
O O14 0.623638 0.500000 0.500000
O O15 0.707724 0.750000 0.426129
O O16 0.750000 0.682016 0.250000
#
# Coordination Sequence:
#
# PCOD8297866 Si02
#       7
#    16  16   8  16   8  16  16
#     4   9  19  33  48  73 107 137 167 213 265 314
#     4  10  18  32  49  74 107 131 171 217 266 316
#     4  12  22  32  53  85 109 131 172 226 267 310
#     4  10  20  29  49  80 107 130 172 218 263 313
#     4  10  18  36  53  75 104 139 175 208 265 315
#     4  10  18  31  54  75 101 139 171 214 265 307
#     4   9  17  30  49  70  97 136 171 207 258 314
#
# _framework density 17.120397000000001
#
# number of rings (size 3 to 8) (size 9 to 14) (size 15 to 20)
#    0.000    2.167    3.333    3.000    4.667    0.667 
#    0.000    0.833    0.000    5.500    0.000    1.167 
#    0.000    0.000    0.000    0.000    0.000    0.000 
#
# Total GULP energy -594768.218313 kJ/mol
# GULP energy per Si atom -12391.004548 kJ/mol
# Density = 1.708143 g / cm^3
# Si number density = 17.120397 Si / 1000 Ang^3
#
#
#
# Elastic Constant Matrix: (Units=GPa)
#
#
# Indices 1 2 3 4 5 6 
#
# 1 143.2428 44.7866 58.7450 0.0000 0.0000 0.0000
# 2 44.7866 76.1245 22.9064 0.0000 0.0000 0.0000
# 3 58.7450 22.9064 92.2804 0.0000 0.0000 0.0000
# 4 0.0000 0.0000 0.0000 15.6820 0.0000 0.0000
# 5 0.0000 0.0000 0.0000 0.0000 24.0413 0.0000
# 6 0.0000 0.0000 0.0000 0.0000 0.0000 14.6722
#
#
#
# Elastic Compliance Matrix: (Units=1/GPa)
#
#
# Indices 1 2 3 4 5 6 
#
# 1 0.010765 -0.004616 -0.005707 0.000000 0.000000 0.000000
# 2 -0.004616 0.016176 -0.001077 0.000000 0.000000 0.000000
# 3 -0.005707 -0.001077 0.014737 0.000000 0.000000 0.000000
# 4 0.000000 0.000000 0.000000 0.063767 0.000000 0.000000
# 5 0.000000 0.000000 0.000000 0.000000 0.041595 0.000000
# 6 0.000000 0.000000 0.000000 0.000000 0.000000 0.068156
#
#
# Mechanical properties :
#
#
# Convention : Reuss Voigt Hill
#
# Bulk Modulus (GPa) = 52.97123 62.72485 57.84804
# Shear Modulus (GPa) = 20.46757 23.22643 21.84700
#
# Velocity S-wave (km/s) = 3.46136 3.68727 3.57610
# Velocity P-wave (km/s) = 6.85436 7.40574 7.13538
#
# Compressibility (1/GPa) = 0.01887817
#
# Stress axis : x y z
#
# Youngs Moduli (GPa) = 92.89428 61.81926 67.85695
#
# Poissons Ratio (x) = 0.28536 0.38726
# Poissons Ratio (y) = 0.42881 0.07307
# Poissons Ratio (z) = 0.53015 0.06657
#
# Static dielectric constant tensor:
#      x y z
#    x 3.715620 0.000000 0.000000 
#    y 0.000000 3.231280 0.000000 
#    z 0.000000 0.000000 2.987180 
# 
# 
# High freq. dielectric constant tensor:
#      x y z
#    x 1.669960 0.000000 0.000000 
#    y 0.000000 1.639200 0.000000 
#    z 0.000000 0.000000 1.628930 
# 
# From -- ./inp_files/25321.got.cif
#   From: 2010.03.12/outbox.cif.g09.slc.cpg/sg74_13_cif.got.tgz:25321.got - 2010.04.16 15:46:19.
