data_PCOD8297724
_publ_section_title
;
Structure prediction by ZEFSAII (Michael W. Deem and Ramdas Pophale) SiO2 
 PCOD8297724
Probable space group: I M M A
;
_chemical_formula_sum "Si O2"
_cell_formula_units_Z 88
_cell_length_a 8.711100
_cell_length_b 19.771701
_cell_length_c 30.319718
_cell_angle_alpha 90.000000
_cell_angle_beta 90.000000
_cell_angle_gamma 90.000000
_cell_volume 5222.064012
_symmetry_space_group_name_H-M "I M M A"
_symmetry_group_IT_number 74
_symmetry_cell_setting 'orthorhombic'
loop_
_space_group_symop_operation_xyz
x,y,z
-x,1/2-y,z
x,-y,-z
-x,1/2+y,-z
-x,-y,-z
x,1/2+y,-z
-x,y,z
x,1/2-y,z
1/2+x,1/2+y,1/2+z
1/2-x,-y,1/2+z
1/2+x,1/2-y,1/2-z
1/2-x,y,1/2-z
1/2-x,1/2-y,1/2-z
1/2+x,y,1/2-z
1/2-x,1/2+y,1/2+z
1/2+x,-y,1/2+z
loop_
_atom_site_type_symbol
_atom_site_label
_atom_site_fract_x
_atom_site_fract_y
_atom_site_fract_z
Si Si1 0.173012 0.175834 0.932247
Si Si2 0.823653 0.613274 0.296365
Si Si3 0.320323 0.462446 0.454686
Si Si4 0.175945 0.943057 0.385643
Si Si5 0.182448 0.250000 0.798678
Si Si6 0.677705 0.174653 0.024160
O O1 0.178983 0.250000 0.909517
O O2 0.220772 0.120894 0.897345
O O3 0.000000 0.160666 0.949522
O O4 0.290768 0.172827 0.972384
O O5 0.750000 0.590305 0.250000
O O6 0.808146 0.552010 0.332214
O O7 0.745835 0.679787 0.318874
O O8 0.000000 0.630635 0.286826
O O9 0.264512 0.500000 0.500000
O O10 0.500000 0.473072 0.449139
O O11 0.237231 0.491934 0.411536
O O12 0.280250 0.383105 0.453396
O O13 0.000000 0.930889 0.399151
O O14 0.250000 0.250000 0.750000
O O15 0.000000 0.250000 0.800956
O O16 0.500000 0.158251 0.032592
O O17 0.719527 0.250000 0.042597
#
# Coordination Sequence:
#
# PCOD8297724 Si02
#       6
#    16  16  16  16   8  16
#     4  10  20  32  46  68  97 129 169 211 251 295
#     4  10  21  36  51  70  94 125 165 209 256 301
#     4  11  22  35  52  75 102 134 169 206 250 295
#     4  11  23  35  51  72  96 130 169 210 254 301
#     4  10  18  30  50  70  92 126 164 208 258 298
#     4  10  20  34  53  74  98 132 169 206 249 293
#
# _framework density 16.851573999999999
#
# number of rings (size 3 to 8) (size 9 to 14) (size 15 to 20)
#    0.000    1.636    1.818    4.636    1.273    5.818 
#    0.000    0.000    0.000    0.000    0.000    0.000 
#    0.000    0.727    0.000    2.364    0.000    2.909 
#
# Total GULP energy -545314.107644 kJ/mol
# GULP energy per Si atom -12393.502446 kJ/mol
# Density = 1.681322 g / cm^3
# Si number density = 16.851574 Si / 1000 Ang^3
#
#
#
# Elastic Constant Matrix: (Units=GPa)
#
#
# Indices 1 2 3 4 5 6 
#
# 1 81.4598 28.1264 26.4957 0.0000 0.0000 0.0000
# 2 28.1264 91.4990 38.9227 0.0000 0.0000 0.0000
# 3 26.4957 38.9227 67.3694 0.0000 0.0000 0.0000
# 4 0.0000 0.0000 0.0000 25.9726 0.0000 0.0000
# 5 0.0000 0.0000 0.0000 0.0000 20.7814 0.0000
# 6 0.0000 0.0000 0.0000 0.0000 0.0000 26.4726
#
#
#
# Elastic Compliance Matrix: (Units=1/GPa)
#
#
# Indices 1 2 3 4 5 6 
#
# 1 0.014565 -0.002705 -0.004165 0.000000 0.000000 0.000000
# 2 -0.002705 0.014993 -0.007598 0.000000 0.000000 0.000000
# 3 -0.004165 -0.007598 0.020872 0.000000 0.000000 0.000000
# 4 0.000000 0.000000 0.000000 0.038502 0.000000 0.000000
# 5 0.000000 0.000000 0.000000 0.000000 0.048120 0.000000
# 6 0.000000 0.000000 0.000000 0.000000 0.000000 0.037775
#
#
# Mechanical properties :
#
#
# Convention : Reuss Voigt Hill
#
# Bulk Modulus (GPa) = 46.52927 47.49085 47.01006
# Shear Modulus (GPa) = 23.70483 24.43089 24.06786
#
# Velocity S-wave (km/s) = 3.75465 3.81171 3.78329
# Velocity P-wave (km/s) = 6.81672 6.90038 6.85868
#
# Compressibility (1/GPa) = 0.02149185
#
# Stress axis : x y z
#
# Youngs Moduli (GPa) = 68.65834 66.69839 47.91220
#
# Poissons Ratio (x) = 0.18044 0.19956
# Poissons Ratio (y) = 0.18574 0.36404
# Poissons Ratio (z) = 0.28598 0.50678
#
# Static dielectric constant tensor:
#      x y z
#    x 3.276390 0.000000 0.000000 
#    y 0.000000 3.347340 0.000000 
#    z 0.000000 0.000000 2.970400 
# 
# 
# High freq. dielectric constant tensor:
#      x y z
#    x 1.670200 0.000000 0.000000 
#    y 0.000000 1.627280 0.000000 
#    z 0.000000 0.000000 1.619670 
# 
# From -- ./inp_files/70250.got.cif
#   From: 2010.03.12/outbox.cif.g09.slc.cpg/sg74_36_cif.got.tgz:70250.got - 2010.04.16 15:46:19.
