data_PCOD8297191
_publ_section_title
;
Structure prediction by ZEFSAII (Michael W. Deem and Ramdas Pophale) SiO2 
 PCOD8297191
Probable space group: I M M A
;
_chemical_formula_sum "Si O2"
_cell_formula_units_Z 64
_cell_length_a 17.480453
_cell_length_b 9.291214
_cell_length_c 20.627944
_cell_angle_alpha 90.000000
_cell_angle_beta 90.000000
_cell_angle_gamma 90.000000
_cell_volume 3350.279885
_symmetry_space_group_name_H-M "I M M A"
_symmetry_group_IT_number 74
_symmetry_cell_setting 'orthorhombic'
loop_
_space_group_symop_operation_xyz
x,y,z
-x,1/2-y,z
x,-y,-z
-x,1/2+y,-z
-x,-y,-z
x,1/2+y,-z
-x,y,z
x,1/2-y,z
1/2+x,1/2+y,1/2+z
1/2-x,-y,1/2+z
1/2+x,1/2-y,1/2-z
1/2-x,y,1/2-z
1/2-x,1/2-y,1/2-z
1/2+x,y,1/2-z
1/2-x,1/2+y,1/2+z
1/2+x,-y,1/2+z
loop_
_atom_site_type_symbol
_atom_site_label
_atom_site_fract_x
_atom_site_fract_y
_atom_site_fract_z
Si Si1 0.198066 0.750000 0.615513
Si Si2 0.690043 0.500000 0.500000
Si Si3 0.591327 0.250000 0.845351
Si Si4 0.796782 0.750000 0.466273
Si Si5 0.169231 0.485321 0.282470
Si Si6 0.417611 0.750000 0.710938
Si Si7 0.633844 0.750000 0.580219
O O1 0.170362 0.750000 0.540273
O O2 0.171279 0.607131 0.651717
O O3 0.288409 0.750000 0.620806
O O4 0.744744 0.605712 0.456852
O O5 0.632486 0.602222 0.539497
O O6 0.500000 0.250000 0.857648
O O7 0.634419 0.250000 0.914958
O O8 0.616694 0.381635 0.800865
O O9 0.250000 0.531999 0.250000
O O10 0.127524 0.393775 0.227782
O O11 0.500000 0.750000 0.745841
O O12 0.432645 0.750000 0.633247
#
# Coordination Sequence:
#
# PCOD8297191 Si02
#       7
#     8   8   8   8  16   8   8
#     4   9  17  36  62  87 103 142 205 240 269 341
#     4   8  18  32  58  84 106 144 190 242 270 346
#     4  12  25  38  52  86 131 156 187 244 303 346
#     4  10  19  34  57  84 117 144 186 233 295 331
#     4  11  21  39  61  83 110 156 205 241 274 342
#     4  11  22  37  59  84 113 149 190 242 293 341
#     4  10  16  34  54  83 112 138 184 233 288 332
#
# _framework density 19.102882000000001
#
# number of rings (size 3 to 8) (size 9 to 14) (size 15 to 20)
#    0.000    2.000    2.500    4.875    0.000    0.000 
#    0.000    8.750    0.000    0.000    0.000    0.000 
#    0.000    0.000    0.000    0.000    0.000    0.000 
#
# Total GULP energy -396423.752467 kJ/mol
# GULP energy per Si atom -12388.242265 kJ/mol
# Density = 1.905940 g / cm^3
# Si number density = 19.102882 Si / 1000 Ang^3
#
#
#
# Elastic Constant Matrix: (Units=GPa)
#
#
# Indices 1 2 3 4 5 6 
#
# 1 79.6890 18.8861 29.7447 0.0000 0.0000 0.0000
# 2 18.8861 128.4582 45.9757 0.0000 0.0000 0.0000
# 3 29.7447 45.9757 115.1199 0.0000 0.0000 0.0000
# 4 0.0000 0.0000 0.0000 -19.8157 0.0000 0.0000
# 5 0.0000 0.0000 0.0000 0.0000 18.3093 0.0000
# 6 0.0000 0.0000 0.0000 0.0000 0.0000 10.2126
#
#
#
# Elastic Compliance Matrix: (Units=1/GPa)
#
#
# Indices 1 2 3 4 5 6 
#
# 1 0.013975 -0.000889 -0.003256 0.000000 0.000000 0.000000
# 2 -0.000889 0.009140 -0.003420 0.000000 0.000000 0.000000
# 3 -0.003256 -0.003420 0.010894 0.000000 0.000000 0.000000
# 4 0.000000 0.000000 0.000000 -0.050465 0.000000 0.000000
# 5 0.000000 0.000000 0.000000 0.000000 0.054617 0.000000
# 6 0.000000 0.000000 0.000000 0.000000 0.000000 0.097918
#
#
# Mechanical properties :
#
#
# Convention : Reuss Voigt Hill
#
# Bulk Modulus (GPa) = 52.97316 56.94223 54.95769
# Shear Modulus (GPa) = 31.74577 16.98528 24.36552
#
# Velocity S-wave (km/s) = 4.08098 2.98509 3.57527
# Velocity P-wave (km/s) = 7.07082 6.46173 6.77313
#
# Compressibility (1/GPa) = 0.01887748
#
# Stress axis : x y z
#
# Youngs Moduli (GPa) = 71.55763 109.41496 91.79583
#
# Poissons Ratio (x) = 0.09731 0.29885
# Poissons Ratio (y) = 0.06364 0.31397
# Poissons Ratio (z) = 0.23296 0.37423
#
# Static dielectric constant tensor:
#      x y z
#    x 3.208910 0.000000 0.000000 
#    y 0.000000 3.665450 0.000000 
#    z 0.000000 0.000000 3.548820 
# 
# 
# High freq. dielectric constant tensor:
#      x y z
#    x 1.714990 0.000000 0.000000 
#    y 0.000000 1.758410 0.000000 
#    z 0.000000 0.000000 1.744640 
# 
# From -- ./inp_files/52592.got.cif
#   From: 2010.03.12/outbox.cif.g09.slc.cpg/sg74_27_cif.got.tgz:52592.got - 2010.04.16 15:46:19.
