data_PCOD8297988
_publ_section_title
;
Structure prediction by ZEFSAII (Michael W. Deem and Ramdas Pophale) SiO2 
 PCOD8297988
Probable space group: I M M A
;
_chemical_formula_sum "Si O2"
_cell_formula_units_Z 88
_cell_length_a 22.944053
_cell_length_b 21.073952
_cell_length_c 9.634498
_cell_angle_alpha 90.000000
_cell_angle_beta 90.000000
_cell_angle_gamma 90.000000
_cell_volume 4658.490505
_symmetry_space_group_name_H-M "I M M A"
_symmetry_group_IT_number 74
_symmetry_cell_setting 'orthorhombic'
loop_
_space_group_symop_operation_xyz
x,y,z
-x,1/2-y,z
x,-y,-z
-x,1/2+y,-z
-x,-y,-z
x,1/2+y,-z
-x,y,z
x,1/2-y,z
1/2+x,1/2+y,1/2+z
1/2-x,-y,1/2+z
1/2+x,1/2-y,1/2-z
1/2-x,y,1/2-z
1/2-x,1/2-y,1/2-z
1/2+x,y,1/2-z
1/2-x,1/2+y,1/2+z
1/2+x,-y,1/2+z
loop_
_atom_site_type_symbol
_atom_site_label
_atom_site_fract_x
_atom_site_fract_y
_atom_site_fract_z
Si Si1 0.000000 0.478833 0.339724
Si Si2 0.196733 0.820832 0.850382
Si Si3 0.229239 0.174430 0.602210
Si Si4 0.098465 0.177077 0.563431
Si Si5 0.500000 0.177848 0.455964
Si Si6 0.500000 0.883852 0.247159
Si Si7 0.585327 0.129516 0.232999
O O1 0.000000 0.500000 0.500000
O O2 0.058312 0.439413 0.300560
O O3 0.000000 0.540392 0.244435
O O4 0.168303 0.750000 0.871347
O O5 0.250000 0.811337 0.750000
O O6 0.152721 0.871446 0.780241
O O7 0.222337 0.849959 0.993128
O O8 0.227460 0.250000 0.594453
O O9 0.250000 0.148662 0.750000
O O10 0.164051 0.148915 0.572189
O O11 0.095952 0.250000 0.609725
O O12 0.057728 0.138818 0.667994
O O13 0.076184 0.171034 0.405725
O O14 0.500000 0.250000 0.504749
O O15 0.500000 0.136927 0.594583
O O16 0.555858 0.162991 0.363622
#
# Coordination Sequence:
#
# PCOD8297988 Si02
#       7
#     8  16  16  16   8   8  16
#     4  11  23  45  62  84 112 170 226 246 293 349
#     4  10  18  32  55  89 124 151 191 245 310 376
#     4   9  19  32  52  85 128 163 188 233 307 385
#     4  11  20  35  59  91 123 159 199 251 319 375
#     4  11  24  38  58  95 127 149 187 255 326 366
#     4  12  25  40  60  85 120 164 209 259 298 364
#     4  11  22  37  62  86 120 163 200 256 295 372
#
# _framework density 18.890239000000001
#
# number of rings (size 3 to 8) (size 9 to 14) (size 15 to 20)
#    0.000    1.455    3.636    3.000    2.545    1.455 
#    0.000    0.000    0.000    1.091    4.727    0.000 
#    0.000    0.000    0.000    0.000    0.000    0.000 
#
# Total GULP energy -545456.339114 kJ/mol
# GULP energy per Si atom -12396.734980 kJ/mol
# Density = 1.884724 g / cm^3
# Si number density = 18.890239 Si / 1000 Ang^3
#
#
#
# Elastic Constant Matrix: (Units=GPa)
#
#
# Indices 1 2 3 4 5 6 
#
# 1 121.4011 50.7829 51.5939 0.0000 0.0000 0.0000
# 2 50.7829 94.3400 33.1951 0.0000 0.0000 0.0000
# 3 51.5939 33.1951 146.2516 0.0000 0.0000 0.0000
# 4 0.0000 0.0000 0.0000 28.5666 0.0000 0.0000
# 5 0.0000 0.0000 0.0000 0.0000 37.4182 0.0000
# 6 0.0000 0.0000 0.0000 0.0000 0.0000 37.2295
#
#
#
# Elastic Compliance Matrix: (Units=1/GPa)
#
#
# Indices 1 2 3 4 5 6 
#
# 1 0.011680 -0.005258 -0.002927 0.000000 0.000000 0.000000
# 2 -0.005258 0.013886 -0.001297 0.000000 0.000000 0.000000
# 3 -0.002927 -0.001297 0.008165 0.000000 0.000000 0.000000
# 4 0.000000 0.000000 0.000000 0.035006 0.000000 0.000000
# 5 0.000000 0.000000 0.000000 0.000000 0.026725 0.000000
# 6 0.000000 0.000000 0.000000 0.000000 0.000000 0.026860
#
#
# Mechanical properties :
#
#
# Convention : Reuss Voigt Hill
#
# Bulk Modulus (GPa) = 67.71529 70.34848 69.03188
# Shear Modulus (GPa) = 34.19756 35.73760 34.96758
#
# Velocity S-wave (km/s) = 4.25941 4.35426 4.30710
# Velocity P-wave (km/s) = 7.75336 7.91208 7.83312
#
# Compressibility (1/GPa) = 0.01476771
#
# Stress axis : x y z
#
# Youngs Moduli (GPa) = 85.61300 72.01245 122.47988
#
# Poissons Ratio (x) = 0.37861 0.35853
# Poissons Ratio (y) = 0.45011 0.15887
# Poissons Ratio (z) = 0.25061 0.09341
#
# Static dielectric constant tensor:
#      x y z
#    x 3.627150 0.000000 0.000000 
#    y 0.000000 3.137950 0.000000 
#    z 0.000000 0.000000 3.835830 
# 
# 
# High freq. dielectric constant tensor:
#      x y z
#    x 1.744370 0.000000 0.000000 
#    y 0.000000 1.684140 0.000000 
#    z 0.000000 0.000000 1.750940 
# 
# From -- ./inp_files/13775.got.cif
#   From: 2010.03.12/outbox.cif.g09.slc.cpg/sg74_7_cif.got.tgz:13775.got - 2010.04.16 15:46:19.
