data_PCOD8297058
_publ_section_title
;
Structure prediction by ZEFSAII (Michael W. Deem and Ramdas Pophale) SiO2 
 PCOD8297058
Probable space group: I B C A 
;
_chemical_formula_sum "Si O2"
_cell_formula_units_Z 80
_cell_length_a 8.871167
_cell_length_b 23.264430
_cell_length_c 17.627720
_cell_angle_alpha 90.000000
_cell_angle_beta 90.000000
_cell_angle_gamma 90.000000
_cell_volume 3638.055456
_symmetry_space_group_name_H-M "I B C A "
_symmetry_group_IT_number 73
_symmetry_cell_setting 'orthorhombic'
loop_
_space_group_symop_operation_xyz
x,y,z
-x,1/2-y,z
x,-y,1/2-z
1/2-x,y,-z
-x,-y,-z
x,1/2+y,-z
-x,y,1/2+z
1/2+x,-y,z
1/2+x,1/2+y,1/2+z
1/2-x,-y,1/2+z
1/2+x,1/2-y,-z
-x,1/2+y,1/2-z
1/2-x,1/2-y,1/2-z
1/2+x,y,1/2-z
1/2-x,1/2+y,z
x,1/2-y,1/2+z
loop_
_atom_site_type_symbol
_atom_site_label
_atom_site_fract_x
_atom_site_fract_y
_atom_site_fract_z
Si Si1 0.371424 0.507469 0.559036
Si Si2 0.637675 0.790492 0.936842
Si Si3 0.788522 0.595172 0.817255
Si Si4 0.333473 0.226939 0.323289
Si Si5 0.566162 0.402958 0.156135
O O1 0.250000 0.528789 0.500000
O O2 0.500000 0.500000 0.500000
O O3 0.384856 0.555057 0.625531
O O4 0.353977 0.445337 0.597033
O O5 0.500000 0.750000 0.967596
O O6 0.748561 0.747153 0.896625
O O7 0.578679 0.838684 0.877817
O O8 0.750000 0.818219 0.000000
O O9 0.838493 0.659288 0.833407
O O10 0.609851 0.583564 0.827805
O O11 0.836738 0.584448 0.730969
O O12 0.500000 0.250000 0.319369
O O13 0.250000 0.250000 0.250000
#
# Coordination Sequence:
#
# PCOD8297058 Si02
#       5
#    16  16  16  16  16
#     4  12  28  50  74 105 150 195 249 313 376 441
#     4  12  26  47  73 109 149 194 248 309 382 459
#     4  12  27  47  80 107 151 196 252 309 371 455
#     4  12  24  45  74 110 150 193 242 303 372 454
#     4  12  27  49  75 109 148 195 253 309 379 453
#
# _framework density 21.98977
#
# number of rings (size 3 to 8) (size 9 to 14) (size 15 to 20)
#    0.000    0.000    6.000    3.600    2.800    5.600 
#    0.000    0.000    0.000    0.000    0.000    0.000 
#    0.000    0.000    0.000    0.000    0.000    0.000 
#
# Total GULP energy -495595.987546 kJ/mol
# GULP energy per Si atom -12389.899689 kJ/mol
# Density = 2.193972 g / cm^3
# Si number density = 21.989770 Si / 1000 Ang^3
#
#
#
# Elastic Constant Matrix: (Units=GPa)
#
#
# Indices 1 2 3 4 5 6 
#
# 1 122.3949 25.7312 49.5327 0.0000 0.0000 0.0000
# 2 25.7312 127.6937 50.1820 0.0000 0.0000 0.0000
# 3 49.5327 50.1820 142.8258 0.0001 0.0000 0.0000
# 4 0.0000 0.0000 0.0001 46.9143 0.0000 0.0000
# 5 0.0000 0.0000 0.0000 0.0000 52.9216 0.0000
# 6 0.0000 0.0000 0.0000 0.0000 0.0000 33.0795
#
#
#
# Elastic Compliance Matrix: (Units=1/GPa)
#
#
# Indices 1 2 3 4 5 6 
#
# 1 0.009561 -0.000723 -0.003062 0.000000 0.000000 0.000000
# 2 -0.000723 0.009141 -0.002961 0.000000 0.000000 0.000000
# 3 -0.003062 -0.002961 0.009104 0.000000 0.000000 0.000000
# 4 0.000000 0.000000 0.000000 0.021315 0.000000 0.000000
# 5 0.000000 0.000000 0.000000 0.000000 0.018896 0.000000
# 6 0.000000 0.000000 0.000000 0.000000 0.000000 0.030230
#
#
# Mechanical properties :
#
#
# Convention : Reuss Voigt Hill
#
# Bulk Modulus (GPa) = 69.86247 71.53401 70.69824
# Shear Modulus (GPa) = 42.91473 44.41432 43.66452
#
# Velocity S-wave (km/s) = 4.42246 4.49906 4.46092
# Velocity P-wave (km/s) = 7.61032 7.71945 7.66508
#
# Compressibility (1/GPa) = 0.01431384
#
# Stress axis : x y z
#
# Youngs Moduli (GPa) = 104.58661 109.40302 109.84677
#
# Poissons Ratio (x) = 0.07915 0.33633
# Poissons Ratio (y) = 0.07566 0.32522
# Poissons Ratio (z) = 0.32022 0.32390
#
# Static dielectric constant tensor:
#      x y z
#    x 4.036870 0.000000 0.000000 
#    y 0.000000 3.800520 0.000000 
#    z 0.000000 0.000000 4.464060 
# 
# 
# High freq. dielectric constant tensor:
#      x y z
#    x 1.878210 0.000000 0.000000 
#    y 0.000000 1.872280 0.000000 
#    z 0.000000 0.000000 1.886320 
# 
# From -- ./inp_files/20745.got.cif
#   From: 2010.03.12/outbox.cif.g09.slc.cpg/sg73_11_cif.got.tgz:20745.got - 2010.04.16 15:25:48.
