data_PCOD8297278
_publ_section_title
;
Structure prediction by ZEFSAII (Michael W. Deem and Ramdas Pophale) SiO2 
 PCOD8297278
Probable space group: I M M A
;
_chemical_formula_sum "Si O2"
_cell_formula_units_Z 128
_cell_length_a 27.741333
_cell_length_b 10.016896
_cell_length_c 29.511285
_cell_angle_alpha 90.000000
_cell_angle_beta 90.000000
_cell_angle_gamma 90.000000
_cell_volume 8200.656302
_symmetry_space_group_name_H-M "I M M A"
_symmetry_group_IT_number 74
_symmetry_cell_setting 'orthorhombic'
loop_
_space_group_symop_operation_xyz
x,y,z
-x,1/2-y,z
x,-y,-z
-x,1/2+y,-z
-x,-y,-z
x,1/2+y,-z
-x,y,z
x,1/2-y,z
1/2+x,1/2+y,1/2+z
1/2-x,-y,1/2+z
1/2+x,1/2-y,1/2-z
1/2-x,y,1/2-z
1/2-x,1/2-y,1/2-z
1/2+x,y,1/2-z
1/2-x,1/2+y,1/2+z
1/2+x,-y,1/2+z
loop_
_atom_site_type_symbol
_atom_site_label
_atom_site_fract_x
_atom_site_fract_y
_atom_site_fract_z
Si Si1 0.801732 0.900320 0.698562
Si Si2 0.214805 0.404307 0.140151
Si Si3 0.673459 0.394739 0.033707
Si Si4 0.944955 0.905937 0.239935
Si Si5 0.141315 0.093699 0.216069
Si Si6 0.554657 0.104251 0.844684
Si Si7 0.214062 0.599495 0.961818
Si Si8 0.376871 0.102156 0.122970
O O1 0.783793 0.750000 0.707305
O O2 0.757985 0.972313 0.670674
O O3 0.818050 0.959413 0.747564
O O4 0.850787 0.907696 0.670766
O O5 0.229456 0.250000 0.132801
O O6 0.164478 0.421681 0.166372
O O7 0.208041 0.462993 0.089162
O O8 0.651111 0.250000 0.022422
O O9 0.730077 0.389687 0.026980
O O10 0.661965 0.436147 0.084968
O O11 0.648920 0.500000 0.000000
O O12 0.932341 0.750000 0.230829
O O13 0.941300 0.940594 0.292756
O O14 0.000000 0.934757 0.223256
O O15 0.906914 0.003389 0.215150
O O16 0.128487 0.250000 0.226028
O O17 0.500000 0.110494 0.860358
O O18 0.578733 0.250000 0.850556
O O19 0.579628 0.000919 0.878267
O O20 0.191260 0.750000 0.965355
O O21 0.190638 0.500000 0.000000
O O22 0.398136 0.250000 0.115446
#
# Coordination Sequence:
#
# PCOD8297278 Si02
#       8
#    16  16  16  16  16  16  16  16
#     4   9  15  25  40  63  91 118 146 175 209 250
#     4   9  16  27  43  64  92 123 149 176 214 257
#     4   9  17  28  43  62  84 109 140 178 220 259
#     4   9  18  32  46  60  85 120 149 176 217 261
#     4  10  18  27  45  69  89 116 153 184 210 248
#     4   9  18  31  45  61  82 110 142 176 219 267
#     4   9  16  28  44  61  85 115 147 181 213 248
#     4  10  17  27  45  66  86 107 139 183 220 252
#
# _framework density 15.608506999999999
#
# number of rings (size 3 to 8) (size 9 to 14) (size 15 to 20)
#    0.000    2.750    2.500    1.125    0.000    2.500 
#    0.000    1.875    0.000    3.375    0.000    0.000 
#    0.000    0.500    0.000    1.125    0.000    2.000 
#
# Total GULP energy -792863.732139 kJ/mol
# GULP energy per Si atom -12388.495815 kJ/mol
# Density = 1.557298 g / cm^3
# Si number density = 15.608507 Si / 1000 Ang^3
#
#
#
# Elastic Constant Matrix: (Units=GPa)
#
#
# Indices 1 2 3 4 5 6 
#
# 1 44.9179 31.4077 19.2096 0.0000 0.0000 0.0000
# 2 31.4077 60.7569 34.9701 0.0000 0.0000 0.0000
# 3 19.2096 34.9701 85.6592 0.0000 0.0000 0.0000
# 4 0.0000 0.0000 0.0000 21.0803 0.0000 0.0000
# 5 0.0000 0.0000 0.0000 0.0000 14.9564 0.0000
# 6 0.0000 0.0000 0.0000 0.0000 0.0000 17.4244
#
#
#
# Elastic Compliance Matrix: (Units=1/GPa)
#
#
# Indices 1 2 3 4 5 6 
#
# 1 0.034889 -0.017688 -0.000603 0.000000 0.000000 0.000000
# 2 -0.017688 0.030482 -0.008478 0.000000 0.000000 0.000000
# 3 -0.000603 -0.008478 0.015270 0.000000 0.000000 0.000000
# 4 0.000000 0.000000 0.000000 0.047438 0.000000 0.000000
# 5 0.000000 0.000000 0.000000 0.000000 0.066861 0.000000
# 6 0.000000 0.000000 0.000000 0.000000 0.000000 0.057391
#
#
# Mechanical properties :
#
#
# Convention : Reuss Voigt Hill
#
# Bulk Modulus (GPa) = 36.89514 40.27874 38.58694
# Shear Modulus (GPa) = 15.87788 17.74199 16.80994
#
# Velocity S-wave (km/s) = 3.19291 3.37514 3.28529
# Velocity P-wave (km/s) = 6.10590 6.40706 6.25829
#
# Compressibility (1/GPa) = 0.02710384
#
# Stress axis : x y z
#
# Youngs Moduli (GPa) = 28.66249 32.80583 65.48665
#
# Poissons Ratio (x) = 0.58029 0.03947
# Poissons Ratio (y) = 0.50700 0.55517
# Poissons Ratio (z) = 0.01728 0.27811
#
# Static dielectric constant tensor:
#      x y z
#    x 2.708970 0.000000 0.000000 
#    y 0.000000 3.020220 0.000000 
#    z 0.000000 0.000000 2.954220 
# 
# 
# High freq. dielectric constant tensor:
#      x y z
#    x 1.565800 0.000000 0.000000 
#    y 0.000000 1.576340 0.000000 
#    z 0.000000 0.000000 1.587700 
# 
# From -- ./inp_files/62519.got.cif
#   From: 2010.03.12/outbox.cif.g09.slc.cpg/sg74_32_cif.got.tgz:62519.got - 2010.04.16 15:46:19.
