data_PCOD8297982
_publ_section_title
;
Structure prediction by ZEFSAII (Michael W. Deem and Ramdas Pophale) SiO2 
 PCOD8297982
Probable space group: I M M A
;
_chemical_formula_sum "Si O2"
_cell_formula_units_Z 96
_cell_length_a 28.215260
_cell_length_b 9.161878
_cell_length_c 20.255261
_cell_angle_alpha 90.000000
_cell_angle_beta 90.000000
_cell_angle_gamma 90.000000
_cell_volume 5236.081583
_symmetry_space_group_name_H-M "I M M A"
_symmetry_group_IT_number 74
_symmetry_cell_setting 'orthorhombic'
loop_
_space_group_symop_operation_xyz
x,y,z
-x,1/2-y,z
x,-y,-z
-x,1/2+y,-z
-x,-y,-z
x,1/2+y,-z
-x,y,z
x,1/2-y,z
1/2+x,1/2+y,1/2+z
1/2-x,-y,1/2+z
1/2+x,1/2-y,1/2-z
1/2-x,y,1/2-z
1/2-x,1/2-y,1/2-z
1/2+x,y,1/2-z
1/2-x,1/2+y,1/2+z
1/2+x,-y,1/2+z
loop_
_atom_site_type_symbol
_atom_site_label
_atom_site_fract_x
_atom_site_fract_y
_atom_site_fract_z
Si Si1 0.584983 0.577647 0.695711
Si Si2 0.945767 0.408240 0.058012
Si Si3 0.212765 0.923218 0.651637
Si Si4 0.865552 0.423942 0.569240
Si Si5 0.190223 0.420991 0.202728
Si Si6 0.946155 0.580790 0.327032
O O1 0.579848 0.750000 0.707441
O O2 0.557178 0.521413 0.630919
O O3 0.638736 0.530176 0.678767
O O4 0.563835 0.503141 0.759686
O O5 0.920373 0.250000 0.060224
O O6 0.000000 0.388705 0.038045
O O7 0.920205 0.500000 0.000000
O O8 0.204684 0.750000 0.639854
O O9 0.195679 0.980858 0.722994
O O10 0.268806 0.968821 0.650611
O O11 0.184008 0.013138 0.596858
O O12 0.876592 0.500000 0.500000
O O13 0.861533 0.250000 0.560646
O O14 0.909221 0.468951 0.616818
O O15 0.195708 0.250000 0.210508
O O16 0.939413 0.750000 0.311472
O O17 0.000000 0.546865 0.350674
#
# Coordination Sequence:
#
# PCOD8297982 Si02
#       6
#    16  16  16  16  16  16
#     4  10  18  32  55  82 107 136 176 219 261 314
#     4   9  18  31  47  69  98 133 171 208 248 299
#     4   9  16  32  55  79 105 137 172 206 254 317
#     4  11  23  38  56  78 106 143 184 228 276 328
#     4   8  15  28  53  82 107 134 165 206 257 311
#     4  10  22  38  54  77 109 140 176 227 282 329
#
# _framework density 18.334320999999999
#
# number of rings (size 3 to 8) (size 9 to 14) (size 15 to 20)
#    0.000    2.500    1.667    2.000    0.000    2.667 
#    0.000    5.000    0.000    2.000    0.000    0.000 
#    0.000    0.000    0.000    0.000    0.000    0.000 
#
# Total GULP energy -594774.825397 kJ/mol
# GULP energy per Si atom -12391.142196 kJ/mol
# Density = 1.829259 g / cm^3
# Si number density = 18.334321 Si / 1000 Ang^3
#
#
#
# Elastic Constant Matrix: (Units=GPa)
#
#
# Indices 1 2 3 4 5 6 
#
# 1 81.8882 26.4675 35.1804 0.0000 0.0000 0.0000
# 2 26.4675 56.0538 48.9870 0.0000 0.0000 0.0000
# 3 35.1804 48.9870 130.8023 0.0000 0.0000 0.0000
# 4 0.0000 0.0000 0.0000 30.3047 0.0000 0.0000
# 5 0.0000 0.0000 0.0000 0.0000 27.0102 0.0000
# 6 0.0000 0.0000 0.0000 0.0000 0.0000 20.2527
#
#
#
# Elastic Compliance Matrix: (Units=1/GPa)
#
#
# Indices 1 2 3 4 5 6 
#
# 1 0.014762 -0.005204 -0.002022 0.000000 0.000000 0.000000
# 2 -0.005204 0.028354 -0.009219 0.000000 0.000000 0.000000
# 3 -0.002022 -0.009219 0.011642 0.000000 0.000000 0.000000
# 4 0.000000 0.000000 0.000000 0.032998 0.000000 0.000000
# 5 0.000000 0.000000 0.000000 0.000000 0.037023 0.000000
# 6 0.000000 0.000000 0.000000 0.000000 0.000000 0.049376
#
#
# Mechanical properties :
#
#
# Convention : Reuss Voigt Hill
#
# Bulk Modulus (GPa) = 45.72758 54.44603 50.08680
# Shear Modulus (GPa) = 23.32805 26.05415 24.69110
#
# Velocity S-wave (km/s) = 3.57090 3.77378 3.67374
# Velocity P-wave (km/s) = 6.48050 6.98207 6.73595
#
# Compressibility (1/GPa) = 0.02186864
#
# Stress axis : x y z
#
# Youngs Moduli (GPa) = 67.74066 35.26814 85.89869
#
# Poissons Ratio (x) = 0.18353 0.17365
# Poissons Ratio (y) = 0.35250 0.79193
# Poissons Ratio (z) = 0.13694 0.32515
#
# Static dielectric constant tensor:
#      x y z
#    x 3.791730 0.000000 0.000000 
#    y 0.000000 3.303550 0.000000 
#    z 0.000000 0.000000 3.287170 
# 
# 
# High freq. dielectric constant tensor:
#      x y z
#    x 1.713680 0.000000 0.000000 
#    y 0.000000 1.687970 0.000000 
#    z 0.000000 0.000000 1.702860 
# 
# From -- ./inp_files/55046.got.cif
#   From: 2010.03.12/outbox.cif.g09.slc.cpg/sg74_28_cif.got.tgz:55046.got - 2010.04.16 15:46:19.
