data_PCOD8297377
_publ_section_title
;
Structure prediction by ZEFSAII (Michael W. Deem and Ramdas Pophale) SiO2 
 PCOD8297377
Probable space group: I M M A
;
_chemical_formula_sum "Si O2"
_cell_formula_units_Z 84
_cell_length_a 22.525662
_cell_length_b 20.875009
_cell_length_c 8.859551
_cell_angle_alpha 90.000000
_cell_angle_beta 90.000000
_cell_angle_gamma 90.000000
_cell_volume 4165.968167
_symmetry_space_group_name_H-M "I M M A"
_symmetry_group_IT_number 74
_symmetry_cell_setting 'orthorhombic'
loop_
_space_group_symop_operation_xyz
x,y,z
-x,1/2-y,z
x,-y,-z
-x,1/2+y,-z
-x,-y,-z
x,1/2+y,-z
-x,y,z
x,1/2-y,z
1/2+x,1/2+y,1/2+z
1/2-x,-y,1/2+z
1/2+x,1/2-y,1/2-z
1/2-x,y,1/2-z
1/2-x,1/2-y,1/2-z
1/2+x,y,1/2-z
1/2-x,1/2+y,1/2+z
1/2+x,-y,1/2+z
loop_
_atom_site_type_symbol
_atom_site_label
_atom_site_fract_x
_atom_site_fract_y
_atom_site_fract_z
Si Si1 0.500000 0.178866 0.611193
Si Si2 0.183439 0.250000 0.314586
Si Si3 0.875932 0.868542 0.167630
Si Si4 0.870291 0.375764 0.177912
Si Si5 0.000000 0.149018 0.218808
Si Si6 0.312444 0.995035 0.321324
Si Si7 0.631113 0.750000 0.128039
Si Si8 0.000000 0.250000 0.479283
O O1 0.500000 0.250000 0.685826
O O2 0.553428 0.135915 0.669905
O O3 0.500000 0.192560 0.431914
O O4 0.250000 0.250000 0.250000
O O5 0.147646 0.187445 0.266342
O O6 0.179750 0.250000 0.495070
O O7 0.856551 0.937990 0.229355
O O8 0.851590 0.811766 0.272089
O O9 0.853650 0.861225 0.995615
O O10 0.939692 0.392621 0.207689
O O11 0.835283 0.437080 0.242406
O O12 0.000000 0.187969 0.373516
O O13 0.250000 0.977946 0.250000
O O14 0.307613 0.000000 0.500000
O O15 0.561536 0.750000 0.075726
#
# Coordination Sequence:
#
# PCOD8297377 Si02
#       8
#     8   8  16  16   8  16   8   4
#     4  10  17  33  65  91 125 161 193 247 317 367
#     4  12  25  38  58  88 120 165 212 256 297 361
#     4  10  22  38  63  93 122 160 200 252 313 365
#     4  10  21  41  65  90 120 161 210 244 304 375
#     4  10  18  34  63  92 120 156 201 251 298 373
#     4  10  23  43  65  87 122 167 208 252 304 363
#     4  12  23  36  60  92 127 153 197 263 308 357
#     4  12  20  36  58  92 136 154 194 240 334 356
#
# _framework density 20.16338
#
# number of rings (size 3 to 8) (size 9 to 14) (size 15 to 20)
#    0.000    1.524    3.333    1.714    2.667    5.333 
#    0.000    5.238    0.000    1.143    0.000    0.000 
#    0.000    0.000    0.000    0.000    0.000    0.000 
#
# Total GULP energy -520550.928825 kJ/mol
# GULP energy per Si atom -12394.069734 kJ/mol
# Density = 2.011749 g / cm^3
# Si number density = 20.163380 Si / 1000 Ang^3
#
#
#
# Elastic Constant Matrix: (Units=GPa)
#
#
# Indices 1 2 3 4 5 6 
#
# 1 122.1135 62.3270 24.1169 0.0000 0.0000 0.0000
# 2 62.3270 171.3833 49.5225 0.0000 0.0000 0.0000
# 3 24.1169 49.5225 78.1022 0.0000 0.0000 0.0000
# 4 0.0000 0.0000 0.0000 2.4769 0.0000 0.0000
# 5 0.0000 0.0000 0.0000 0.0000 22.2159 0.0000
# 6 0.0000 0.0000 0.0000 0.0000 0.0000 29.5943
#
#
#
# Elastic Compliance Matrix: (Units=1/GPa)
#
#
# Indices 1 2 3 4 5 6 
#
# 1 0.010115 -0.003399 -0.000968 0.000000 0.000000 0.000000
# 2 -0.003399 0.008286 -0.004204 0.000000 0.000000 0.000000
# 3 -0.000968 -0.004204 0.015769 0.000000 0.000000 0.000000
# 4 0.000000 0.000000 0.000000 0.403737 0.000000 0.000000
# 5 0.000000 0.000000 0.000000 0.000000 0.045013 0.000000
# 6 0.000000 0.000000 0.000000 0.000000 0.000000 0.033790
#
#
# Mechanical properties :
#
#
# Convention : Reuss Voigt Hill
#
# Bulk Modulus (GPa) = 58.73148 71.50356 65.11752
# Shear Modulus (GPa) = 9.26737 26.56624 17.91680
#
# Velocity S-wave (km/s) = 2.14619 3.63374 2.98414
# Velocity P-wave (km/s) = 5.94412 7.29003 6.65120
#
# Compressibility (1/GPa) = 0.01702665
#
# Stress axis : x y z
#
# Youngs Moduli (GPa) = 98.86235 120.68904 63.41725
#
# Poissons Ratio (x) = 0.41019 0.06141
# Poissons Ratio (y) = 0.33601 0.26662
# Poissons Ratio (z) = 0.09573 0.50741
#
# Static dielectric constant tensor:
#      x y z
#    x 3.726000 0.000000 0.000000 
#    y 0.000000 3.714640 0.000000 
#    z 0.000000 0.000000 3.730100 
# 
# 
# High freq. dielectric constant tensor:
#      x y z
#    x 1.787920 0.000000 0.000000 
#    y 0.000000 1.780530 0.000000 
#    z 0.000000 0.000000 1.785920 
# 
# From -- ./inp_files/13715.got.cif
#   From: 2010.03.12/outbox.cif.g09.slc.cpg/sg74_7_cif.got.tgz:13715.got - 2010.04.16 15:46:19.
