data_PCOD8297381
_publ_section_title
;
Structure prediction by ZEFSAII (Michael W. Deem and Ramdas Pophale) SiO2 
 PCOD8297381
Probable space group: I M M A
;
_chemical_formula_sum "Si O2"
_cell_formula_units_Z 88
_cell_length_a 19.861137
_cell_length_b 20.183921
_cell_length_c 11.677051
_cell_angle_alpha 90.000000
_cell_angle_beta 90.000000
_cell_angle_gamma 90.000000
_cell_volume 4681.045061
_symmetry_space_group_name_H-M "I M M A"
_symmetry_group_IT_number 74
_symmetry_cell_setting 'orthorhombic'
loop_
_space_group_symop_operation_xyz
x,y,z
-x,1/2-y,z
x,-y,-z
-x,1/2+y,-z
-x,-y,-z
x,1/2+y,-z
-x,y,z
x,1/2-y,z
1/2+x,1/2+y,1/2+z
1/2-x,-y,1/2+z
1/2+x,1/2-y,1/2-z
1/2-x,y,1/2-z
1/2-x,1/2-y,1/2-z
1/2+x,y,1/2-z
1/2-x,1/2+y,1/2+z
1/2+x,-y,1/2+z
loop_
_atom_site_type_symbol
_atom_site_label
_atom_site_fract_x
_atom_site_fract_y
_atom_site_fract_z
Si Si1 0.923028 0.505655 0.864460
Si Si2 0.240957 0.374282 0.563903
Si Si3 0.833112 0.250000 0.468088
Si Si4 0.808128 0.106624 0.155760
Si Si5 0.826426 0.250000 0.216297
Si Si6 0.921995 0.250000 0.677546
Si Si7 0.855360 0.380626 0.758009
O O1 0.871599 0.560251 0.814995
O O2 0.904287 0.436557 0.805568
O O3 0.000000 0.524117 0.831013
O O4 0.915973 0.500000 0.000000
O O5 0.215035 0.311732 0.492564
O O6 0.274625 0.419011 0.463996
O O7 0.179431 0.405666 0.638044
O O8 0.299092 0.357013 0.653076
O O9 0.863943 0.250000 0.339677
O O10 0.897791 0.250000 0.547426
O O11 0.750000 0.099369 0.250000
O O12 0.839617 0.181615 0.146870
O O13 0.750000 0.250000 0.250000
O O14 0.898317 0.315193 0.741881
O O15 0.000000 0.250000 0.674967
#
# Coordination Sequence:
#
# PCOD8297381 Si02
#       7
#    16  16   8  16   8   8  16
#     4  11  24  41  57  81 121 161 192 236 297 354
#     4  10  18  33  57  92 113 143 191 243 295 340
#     4  10  17  34  55  88 124 145 181 246 301 332
#     4  11  21  36  65  89 115 152 195 243 288 350
#     4  10  18  34  60  90 113 145 182 241 288 337
#     4  10  21  36  59  85 115 162 200 233 291 360
#     4  10  21  36  60  85 119 149 193 247 292 345
#
# _framework density 18.799220999999999
#
# number of rings (size 3 to 8) (size 9 to 14) (size 15 to 20)
#    0.000    1.636    5.455    1.091    2.545    2.182 
#    0.000    1.364    0.000    1.091    0.000    0.000 
#    0.000    0.000    0.000    0.000    0.000    0.000 
#
# Total GULP energy -545169.085737 kJ/mol
# GULP energy per Si atom -12390.206494 kJ/mol
# Density = 1.875643 g / cm^3
# Si number density = 18.799221 Si / 1000 Ang^3
#
#
#
# Elastic Constant Matrix: (Units=GPa)
#
#
# Indices 1 2 3 4 5 6 
#
# 1 131.7115 58.6529 41.1382 0.0000 0.0000 0.0000
# 2 58.6529 107.5125 35.9721 0.0000 0.0000 0.0000
# 3 41.1382 35.9721 100.2648 0.0000 0.0000 0.0000
# 4 0.0000 0.0000 0.0000 24.3203 0.0000 0.0000
# 5 0.0000 0.0000 0.0000 0.0000 20.2371 0.0000
# 6 0.0000 0.0000 0.0000 0.0000 0.0000 -7.6300
#
#
#
# Elastic Compliance Matrix: (Units=1/GPa)
#
#
# Indices 1 2 3 4 5 6 
#
# 1 0.010586 -0.004911 -0.002581 0.000000 0.000000 0.000000
# 2 -0.004911 0.012849 -0.002595 0.000000 0.000000 0.000000
# 3 -0.002581 -0.002595 0.011964 0.000000 0.000000 0.000000
# 4 0.000000 0.000000 0.000000 0.041118 0.000000 0.000000
# 5 0.000000 0.000000 0.000000 0.000000 0.049414 0.000000
# 6 0.000000 0.000000 0.000000 0.000000 0.000000 -0.131062
#
#
# Mechanical properties :
#
#
# Convention : Reuss Voigt Hill
#
# Bulk Modulus (GPa) = 65.68772 67.89058 66.78915
# Shear Modulus (GPa) = 248.55377 20.96720 134.76049
#
# Velocity S-wave (km/s) = 11.51095 3.34327 8.47583
# Velocity P-wave (km/s) = 14.54946 7.14809 11.46259
#
# Compressibility (1/GPa) = 0.01522355
#
# Stress axis : x y z
#
# Youngs Moduli (GPa) = 94.46775 77.82878 83.58729
#
# Poissons Ratio (x) = 0.38224 0.21576
# Poissons Ratio (y) = 0.46396 0.21688
# Poissons Ratio (z) = 0.24384 0.20194
#
# Static dielectric constant tensor:
#      x y z
#    x 3.366610 0.000000 0.000000 
#    y 0.000000 3.566210 0.000000 
#    z 0.000000 0.000000 2.286880 
# 
# 
# High freq. dielectric constant tensor:
#      x y z
#    x 1.716490 0.000000 0.000000 
#    y 0.000000 1.721150 0.000000 
#    z 0.000000 0.000000 1.739180 
# 
# From -- ./inp_files/22258.got.cif
#   From: 2010.03.12/outbox.cif.g09.slc.cpg/sg74_12_cif.got.tgz:22258.got - 2010.04.16 15:46:19.
