data_PCOD8297378
_publ_section_title
;
Structure prediction by ZEFSAII (Michael W. Deem and Ramdas Pophale) SiO2 
 PCOD8297378
Probable space group: I M M A
;
_chemical_formula_sum "Si O2"
_cell_formula_units_Z 88
_cell_length_a 18.876125
_cell_length_b 19.538026
_cell_length_c 13.857181
_cell_angle_alpha 90.000000
_cell_angle_beta 90.000000
_cell_angle_gamma 90.000000
_cell_volume 5110.559130
_symmetry_space_group_name_H-M "I M M A"
_symmetry_group_IT_number 74
_symmetry_cell_setting 'orthorhombic'
loop_
_space_group_symop_operation_xyz
x,y,z
-x,1/2-y,z
x,-y,-z
-x,1/2+y,-z
-x,-y,-z
x,1/2+y,-z
-x,y,z
x,1/2-y,z
1/2+x,1/2+y,1/2+z
1/2-x,-y,1/2+z
1/2+x,1/2-y,1/2-z
1/2-x,y,1/2-z
1/2-x,1/2-y,1/2-z
1/2+x,y,1/2-z
1/2-x,1/2+y,1/2+z
1/2+x,-y,1/2+z
loop_
_atom_site_type_symbol
_atom_site_label
_atom_site_fract_x
_atom_site_fract_y
_atom_site_fract_z
Si Si1 0.253406 0.046179 0.636309
Si Si2 0.419717 0.327411 0.235306
Si Si3 0.728460 0.826975 0.482423
Si Si4 0.705723 0.904785 0.846984
Si Si5 0.078481 0.642977 0.956297
Si Si6 0.374919 0.000000 0.500000
O O1 0.250000 0.058149 0.750000
O O2 0.233230 0.119929 0.590713
O O3 0.202173 0.981826 0.607540
O O4 0.329452 0.025088 0.592389
O O5 0.500000 0.346886 0.210967
O O6 0.402125 0.250000 0.203904
O O7 0.373084 0.378863 0.172129
O O8 0.404735 0.333829 0.348317
O O9 0.754828 0.750000 0.459862
O O10 0.751959 0.850637 0.588295
O O11 0.642127 0.828087 0.476844
O O12 0.750000 0.911530 0.750000
O O13 0.000000 0.670296 0.987906
O O14 0.076119 0.560891 0.962020
#
# Coordination Sequence:
#
# PCOD8297378 Si02
#       6
#    16  16  16  16  16   8
#     4  10  19  34  53  72 101 131 171 219 258 302
#     4  10  20  31  46  76 113 141 165 205 268 322
#     4  11  21  32  49  76 105 138 179 213 261 316
#     4  11  18  32  54  76 101 136 174 213 255 305
#     4  10  18  29  46  71 109 144 172 208 253 313
#     4  10  17  34  48  78  99 140 180 210 261 302
#
# _framework density 17.219251
#
# number of rings (size 3 to 8) (size 9 to 14) (size 15 to 20)
#    0.000    1.636    5.455    2.455    0.000    2.182 
#    0.000    0.000    0.000    2.182    0.000    0.000 
#    0.000    0.000    0.000    0.000    0.000    0.000 
#
# Total GULP energy -545179.553093 kJ/mol
# GULP energy per Si atom -12390.444388 kJ/mol
# Density = 1.718006 g / cm^3
# Si number density = 17.219251 Si / 1000 Ang^3
#
#
#
# Elastic Constant Matrix: (Units=GPa)
#
#
# Indices 1 2 3 4 5 6 
#
# 1 79.6761 44.6733 32.2899 0.0000 0.0000 0.0000
# 2 44.6733 155.0390 28.5996 0.0000 0.0000 0.0000
# 3 32.2899 28.5996 55.1056 0.0000 0.0000 0.0000
# 4 0.0000 0.0000 0.0000 140.1759 0.0000 0.0000
# 5 0.0000 0.0000 0.0000 0.0000 14.0417 0.0000
# 6 0.0000 0.0000 0.0000 0.0000 0.0000 16.4840
#
#
#
# Elastic Compliance Matrix: (Units=1/GPa)
#
#
# Indices 1 2 3 4 5 6 
#
# 1 0.018117 -0.003607 -0.008744 0.000000 0.000000 0.000000
# 2 -0.003607 0.007851 -0.001961 0.000000 0.000000 0.000000
# 3 -0.008744 -0.001961 0.024288 0.000000 0.000000 0.000000
# 4 0.000000 0.000000 0.000000 0.007134 0.000000 0.000000
# 5 0.000000 0.000000 0.000000 0.000000 0.071216 0.000000
# 6 0.000000 0.000000 0.000000 0.000000 0.000000 0.060665
#
#
# Mechanical properties :
#
#
# Convention : Reuss Voigt Hill
#
# Bulk Modulus (GPa) = 46.22708 55.66069 50.94389
# Shear Modulus (GPa) = 22.21174 46.42417 34.31796
#
# Velocity S-wave (km/s) = 3.59546 5.19799 4.46915
# Velocity P-wave (km/s) = 6.64386 8.27166 7.50204
#
# Compressibility (1/GPa) = 0.02163234
#
# Stress axis : x y z
#
# Youngs Moduli (GPa) = 55.19707 127.37001 41.17225
#
# Poissons Ratio (x) = 0.45946 0.36000
# Poissons Ratio (y) = 0.19911 0.08074
# Poissons Ratio (z) = 0.48263 0.24977
#
# Static dielectric constant tensor:
#      x y z
#    x 3.094170 0.000000 0.000000 
#    y 0.000000 3.604780 0.000000 
#    z 0.000000 0.000000 3.049970 
# 
# 
# High freq. dielectric constant tensor:
#      x y z
#    x 1.641120 0.000000 0.000000 
#    y 0.000000 1.684170 0.000000 
#    z 0.000000 0.000000 1.634640 
# 
# From -- ./inp_files/22201.got.cif
#   From: 2010.03.12/outbox.cif.g09.slc.cpg/sg74_12_cif.got.tgz:22201.got - 2010.04.16 15:46:19.
