data_PCOD8297840
_publ_section_title
;
Structure prediction by ZEFSAII (Michael W. Deem and Ramdas Pophale) SiO2 
 PCOD8297840
Probable space group: I M M A
;
_chemical_formula_sum "Si O2"
_cell_formula_units_Z 80
_cell_length_a 15.765089
_cell_length_b 8.699720
_cell_length_c 29.219962
_cell_angle_alpha 90.000000
_cell_angle_beta 90.000000
_cell_angle_gamma 90.000000
_cell_volume 4007.572140
_symmetry_space_group_name_H-M "I M M A"
_symmetry_group_IT_number 74
_symmetry_cell_setting 'orthorhombic'
loop_
_space_group_symop_operation_xyz
x,y,z
-x,1/2-y,z
x,-y,-z
-x,1/2+y,-z
-x,-y,-z
x,1/2+y,-z
-x,y,z
x,1/2-y,z
1/2+x,1/2+y,1/2+z
1/2-x,-y,1/2+z
1/2+x,1/2-y,1/2-z
1/2-x,y,1/2-z
1/2-x,1/2-y,1/2-z
1/2+x,y,1/2-z
1/2-x,1/2+y,1/2+z
1/2+x,-y,1/2+z
loop_
_atom_site_type_symbol
_atom_site_label
_atom_site_fract_x
_atom_site_fract_y
_atom_site_fract_z
Si Si1 0.837145 0.068749 0.953744
Si Si2 0.094429 0.927088 0.363172
Si Si3 0.847491 0.068779 0.453200
Si Si4 0.251147 0.933314 0.198541
Si Si5 0.907353 0.431908 0.857999
O O1 0.827128 0.250000 0.958963
O O2 0.895576 0.022683 0.911026
O O3 0.745564 0.997607 0.944874
O O4 0.878377 0.000000 0.000000
O O5 0.114955 0.750000 0.374646
O O6 0.163628 0.991061 0.327051
O O7 0.000000 0.944628 0.341774
O O8 0.095522 0.022208 0.410120
O O9 0.843660 0.250000 0.458040
O O10 0.886914 0.000000 0.500000
O O11 0.249281 0.750000 0.199054
O O12 0.250000 0.998973 0.250000
O O13 0.168046 0.001638 0.172968
O O14 0.904498 0.250000 0.852869
O O15 0.000000 0.494186 0.842184
#
# Coordination Sequence:
#
# PCOD8297840 Si02
#       5
#    16  16  16  16  16
#     4  10  18  31  51  76 108 143 180 217 262 313
#     4  10  20  35  55  81 112 144 179 222 269 318
#     4  11  21  34  55  80 109 145 184 221 267 318
#     4   9  17  31  52  78 109 141 175 220 271 318
#     4   9  17  29  48  75 107 139 173 215 264 314
#
# _framework density 19.962209999999999
#
# number of rings (size 3 to 8) (size 9 to 14) (size 15 to 20)
#    0.000    2.200    2.000    3.600    0.000    2.000 
#    0.000    4.000    0.000    2.400    0.000    0.000 
#    0.000    0.000    0.000    0.000    0.000    0.000 
#
# Total GULP energy -495881.660460 kJ/mol
# GULP energy per Si atom -12397.041511 kJ/mol
# Density = 1.991678 g / cm^3
# Si number density = 19.962210 Si / 1000 Ang^3
#
#
#
# Elastic Constant Matrix: (Units=GPa)
#
#
# Indices 1 2 3 4 5 6 
#
# 1 149.3916 18.3983 85.3291 0.0000 0.0000 0.0000
# 2 18.3983 65.0245 32.5641 0.0000 0.0000 0.0000
# 3 85.3291 32.5641 156.4227 0.0000 0.0000 0.0000
# 4 0.0000 0.0000 0.0000 19.8728 0.0000 0.0000
# 5 0.0000 0.0000 0.0000 0.0000 16.7762 0.0000
# 6 0.0000 0.0000 0.0000 0.0000 0.0000 11.1203
#
#
#
# Elastic Compliance Matrix: (Units=1/GPa)
#
#
# Indices 1 2 3 4 5 6 
#
# 1 0.009724 -0.000106 -0.005282 0.000000 0.000000 0.000000
# 2 -0.000106 0.017170 -0.003517 0.000000 0.000000 0.000000
# 3 -0.005282 -0.003517 0.010007 0.000000 0.000000 0.000000
# 4 0.000000 0.000000 0.000000 0.050320 0.000000 0.000000
# 5 0.000000 0.000000 0.000000 0.000000 0.059608 0.000000
# 6 0.000000 0.000000 0.000000 0.000000 0.000000 0.089926
#
#
# Mechanical properties :
#
#
# Convention : Reuss Voigt Hill
#
# Bulk Modulus (GPa) = 52.38194 71.49130 61.93662
# Shear Modulus (GPa) = 19.16236 25.19034 22.17635
#
# Velocity S-wave (km/s) = 3.10164 3.55618 3.33666
# Velocity P-wave (km/s) = 6.25495 7.26312 6.77781
#
# Compressibility (1/GPa) = 0.01909055
#
# Stress axis : x y z
#
# Youngs Moduli (GPa) = 102.83739 58.24137 99.93369
#
# Poissons Ratio (x) = 0.00617 0.52790
# Poissons Ratio (y) = 0.01089 0.35143
# Poissons Ratio (z) = 0.54324 0.20481
#
# Static dielectric constant tensor:
#      x y z
#    x 3.744920 0.000000 0.000000 
#    y 0.000000 3.202340 0.000000 
#    z 0.000000 0.000000 3.855730 
# 
# 
# High freq. dielectric constant tensor:
#      x y z
#    x 1.780840 0.000000 0.000000 
#    y 0.000000 1.732530 0.000000 
#    z 0.000000 0.000000 1.779610 
# 
# From -- ./inp_files/72852.got.cif
#   From: 2010.03.12/outbox.cif.g09.slc.cpg/sg74_37_cif.got.tgz:72852.got - 2010.04.16 15:46:19.
