data_PCOD8297808
_publ_section_title
;
Structure prediction by ZEFSAII (Michael W. Deem and Ramdas Pophale) SiO2 
 PCOD8297808
Probable space group: I M M A
;
_chemical_formula_sum "Si O2"
_cell_formula_units_Z 104
_cell_length_a 17.801736
_cell_length_b 12.762839
_cell_length_c 27.757389
_cell_angle_alpha 90.000000
_cell_angle_beta 90.000000
_cell_angle_gamma 90.000000
_cell_volume 6306.497947
_symmetry_space_group_name_H-M "I M M A"
_symmetry_group_IT_number 74
_symmetry_cell_setting 'orthorhombic'
loop_
_space_group_symop_operation_xyz
x,y,z
-x,1/2-y,z
x,-y,-z
-x,1/2+y,-z
-x,-y,-z
x,1/2+y,-z
-x,y,z
x,1/2-y,z
1/2+x,1/2+y,1/2+z
1/2-x,-y,1/2+z
1/2+x,1/2-y,1/2-z
1/2-x,y,1/2-z
1/2-x,1/2-y,1/2-z
1/2+x,y,1/2-z
1/2-x,1/2+y,1/2+z
1/2+x,-y,1/2+z
loop_
_atom_site_type_symbol
_atom_site_label
_atom_site_fract_x
_atom_site_fract_y
_atom_site_fract_z
Si Si1 0.836066 0.131088 0.735904
Si Si2 0.500000 0.371520 0.021187
Si Si3 0.156619 0.371496 0.433039
Si Si4 0.846470 0.945507 0.367575
Si Si5 0.084714 0.374561 0.831207
Si Si6 0.697704 0.630097 0.412503
Si Si7 0.000000 0.873742 0.414451
Si Si8 0.760034 0.000000 0.000000
O O1 0.860921 0.250000 0.723205
O O2 0.750000 0.129301 0.750000
O O3 0.848967 0.057606 0.689988
O O4 0.885009 0.084084 0.779806
O O5 0.500000 0.250000 0.008104
O O6 0.427959 0.398615 0.052617
O O7 0.500000 0.427896 0.968221
O O8 0.171639 0.250000 0.422875
O O9 0.172169 0.435643 0.383998
O O10 0.209399 0.409577 0.476369
O O11 0.780978 0.872248 0.389461
O O12 0.926237 0.908252 0.386617
O O13 0.089069 0.250000 0.830133
O O14 0.137393 0.415566 0.874350
O O15 0.000000 0.415255 0.839390
O O16 0.679330 0.750000 0.426279
O O17 0.689463 0.557672 0.459858
O O18 0.000000 0.750000 0.418524
#
# Coordination Sequence:
#
# PCOD8297808 Si02
#       8
#    16   8  16  16  16  16   8   8
#     4  10  18  31  49  71  99 127 154 194 244 292
#     4   9  17  31  45  58  89 135 164 191 235 272
#     4  10  20  33  47  66  96 130 168 207 238 283
#     4  11  21  30  46  71  98 133 166 196 245 290
#     4   9  18  31  49  71  97 128 158 192 242 297
#     4  10  18  32  49  69  98 127 157 193 242 297
#     4  11  21  29  44  74 107 132 167 208 234 280
#     4  10  20  29  49  74  90 122 160 200 246 289
#
# _framework density 16.490928
#
# number of rings (size 3 to 8) (size 9 to 14) (size 15 to 20)
#    0.000    2.000    1.538    4.154    1.077    2.154 
#    0.000    0.385    0.000    0.462    0.000    0.000 
#    0.000   11.692    0.000    0.000    0.000    0.000 
#
# Total GULP energy -644802.900752 kJ/mol
# GULP energy per Si atom -12400.055784 kJ/mol
# Density = 1.645339 g / cm^3
# Si number density = 16.490928 Si / 1000 Ang^3
#
#
#
# Elastic Constant Matrix: (Units=GPa)
#
#
# Indices 1 2 3 4 5 6 
#
# 1 85.2691 18.8970 50.0874 0.0000 0.0000 0.0000
# 2 18.8970 72.8906 48.2666 0.0000 0.0000 0.0000
# 3 50.0874 48.2666 148.7816 0.0000 0.0000 0.0000
# 4 0.0000 0.0000 0.0000 26.3790 0.0000 0.0000
# 5 0.0000 0.0000 0.0000 0.0000 3.7144 0.0000
# 6 0.0000 0.0000 0.0000 0.0000 0.0000 -6.1317
#
#
#
# Elastic Compliance Matrix: (Units=1/GPa)
#
#
# Indices 1 2 3 4 5 6 
#
# 1 0.014645 -0.000678 -0.004710 0.000000 0.000000 0.000000
# 2 -0.000678 0.017504 -0.005450 0.000000 0.000000 0.000000
# 3 -0.004710 -0.005450 0.010075 0.000000 0.000000 0.000000
# 4 0.000000 0.000000 0.000000 0.037909 0.000000 0.000000
# 5 0.000000 0.000000 0.000000 0.000000 0.269222 0.000000
# 6 0.000000 0.000000 0.000000 0.000000 0.000000 -0.163087
#
#
# Mechanical properties :
#
#
# Convention : Reuss Voigt Hill
#
# Bulk Modulus (GPa) = 48.66843 60.16037 54.41440
# Shear Modulus (GPa) = 23.27811 17.43837 20.35824
#
# Velocity S-wave (km/s) = 3.76116 3.25538 3.51737
# Velocity P-wave (km/s) = 6.95975 7.11969 7.04018
#
# Compressibility (1/GPa) = 0.02054720
#
# Stress axis : x y z
#
# Youngs Moduli (GPa) = 68.28465 57.12981 99.25395
#
# Poissons Ratio (x) = 0.03871 0.46752
# Poissons Ratio (y) = 0.04627 0.54098
# Poissons Ratio (z) = 0.32164 0.31138
#
# Static dielectric constant tensor:
#      x y z
#    x 3.081000 0.000000 0.000000 
#    y 0.000000 2.966680 0.000000 
#    z 0.000000 0.000000 3.259180 
# 
# 
# High freq. dielectric constant tensor:
#      x y z
#    x 1.627340 0.000000 0.000000 
#    y 0.000000 1.608320 0.000000 
#    z 0.000000 0.000000 1.637790 
# 
# From -- ./inp_files/67900.got.cif
#   From: 2010.03.12/outbox.cif.g09.slc.cpg/sg74_34_cif.got.tgz:67900.got - 2010.04.16 15:46:19.
