data_PCOD8297645
_publ_section_title
;
Structure prediction by ZEFSAII (Michael W. Deem and Ramdas Pophale) SiO2 
 PCOD8297645
Probable space group: I M M A
;
_chemical_formula_sum "Si O2"
_cell_formula_units_Z 72
_cell_length_a 17.378755
_cell_length_b 8.730253
_cell_length_c 28.088769
_cell_angle_alpha 90.000000
_cell_angle_beta 90.000000
_cell_angle_gamma 90.000000
_cell_volume 4261.654098
_symmetry_space_group_name_H-M "I M M A"
_symmetry_group_IT_number 74
_symmetry_cell_setting 'orthorhombic'
loop_
_space_group_symop_operation_xyz
x,y,z
-x,1/2-y,z
x,-y,-z
-x,1/2+y,-z
-x,-y,-z
x,1/2+y,-z
-x,y,z
x,1/2-y,z
1/2+x,1/2+y,1/2+z
1/2-x,-y,1/2+z
1/2+x,1/2-y,1/2-z
1/2-x,y,1/2-z
1/2-x,1/2-y,1/2-z
1/2+x,y,1/2-z
1/2-x,1/2+y,1/2+z
1/2+x,-y,1/2+z
loop_
_atom_site_type_symbol
_atom_site_label
_atom_site_fract_x
_atom_site_fract_y
_atom_site_fract_z
Si Si1 0.500000 0.567164 0.552487
Si Si2 0.912828 0.928569 0.790190
Si Si3 0.721038 0.070312 0.360878
Si Si4 0.344205 0.568917 0.448156
Si Si5 0.319899 0.922428 0.213572
O O1 0.500000 0.750000 0.554215
O O2 0.500000 0.500000 0.500000
O O3 0.421974 0.502595 0.575614
O O4 0.901388 0.750000 0.780903
O O5 0.854532 0.982839 0.831341
O O6 0.000000 0.967624 0.806107
O O7 0.894963 0.011651 0.740080
O O8 0.721445 0.250000 0.370960
O O9 0.722155 0.979983 0.411186
O O10 0.798239 0.023312 0.332591
O O11 0.326122 0.500000 0.500000
O O12 0.351614 0.750000 0.453130
O O13 0.336658 0.750000 0.196853
O O14 0.250000 0.931013 0.250000
#
# Coordination Sequence:
#
# PCOD8297645 Si02
#       5
#     8  16  16  16  16
#     4  10  18  30  44  58  80 112 148 186 228 266
#     4   9  18  31  47  68  92 120 153 190 230 276
#     4  10  19  31  48  67  90 123 157 192 231 276
#     4  11  21  33  46  64  88 118 154 194 233 272
#     4   9  17  30  46  65  90 119 150 188 230 275
#
# _framework density 16.894846999999999
#
# number of rings (size 3 to 8) (size 9 to 14) (size 15 to 20)
#    0.000    2.222    0.000    5.667    1.556    4.000 
#    0.000    0.000    0.000    0.000    0.000    0.000 
#    0.000    0.889    0.000    3.333    0.000    5.111 
#
# Total GULP energy -446295.984722 kJ/mol
# GULP energy per Si atom -12397.110687 kJ/mol
# Density = 1.685639 g / cm^3
# Si number density = 16.894847 Si / 1000 Ang^3
#
#
#
# Elastic Constant Matrix: (Units=GPa)
#
#
# Indices 1 2 3 4 5 6 
#
# 1 24.1610 12.9345 18.7484 0.0000 0.0000 0.0000
# 2 12.9345 109.9589 40.5136 0.0000 0.0000 0.0000
# 3 18.7484 40.5136 88.2976 0.0000 0.0000 0.0000
# 4 0.0000 0.0000 0.0000 29.2095 0.0000 0.0000
# 5 0.0000 0.0000 0.0000 0.0000 23.5487 0.0000
# 6 0.0000 0.0000 0.0000 0.0000 0.0000 21.1007
#
#
#
# Elastic Compliance Matrix: (Units=1/GPa)
#
#
# Indices 1 2 3 4 5 6 
#
# 1 0.050063 -0.002374 -0.009541 0.000000 0.000000 0.000000
# 2 -0.002374 0.011057 -0.004569 0.000000 0.000000 0.000000
# 3 -0.009541 -0.004569 0.015448 0.000000 0.000000 0.000000
# 4 0.000000 0.000000 0.000000 0.034235 0.000000 0.000000
# 5 0.000000 0.000000 0.000000 0.000000 0.042465 0.000000
# 6 0.000000 0.000000 0.000000 0.000000 0.000000 0.047392
#
#
# Mechanical properties :
#
#
# Convention : Reuss Voigt Hill
#
# Bulk Modulus (GPa) = 22.93561 40.75670 31.84616
# Shear Modulus (GPa) = 20.14814 24.78651 22.46732
#
# Velocity S-wave (km/s) = 3.45709 3.83444 3.65064
# Velocity P-wave (km/s) = 5.43510 6.61664 6.05476
#
# Compressibility (1/GPa) = 0.04360032
#
# Stress axis : x y z
#
# Youngs Moduli (GPa) = 19.97469 90.44002 64.73453
#
# Poissons Ratio (x) = 0.21468 0.61763
# Poissons Ratio (y) = 0.04741 0.29579
# Poissons Ratio (z) = 0.19058 0.41325
#
# Static dielectric constant tensor:
#      x y z
#    x 3.111730 0.000000 0.000000 
#    y 0.000000 3.207670 0.000000 
#    z 0.000000 0.000000 3.127640 
# 
# 
# High freq. dielectric constant tensor:
#      x y z
#    x 1.602530 0.000000 0.000000 
#    y 0.000000 1.665780 0.000000 
#    z 0.000000 0.000000 1.640160 
# 
# From -- ./inp_files/56689.got.cif
#   From: 2010.03.12/outbox.cif.g09.slc.cpg/sg74_29_cif.got.tgz:56689.got - 2010.04.16 15:46:19.
