data_PCOD8297677
_publ_section_title
;
Structure prediction by ZEFSAII (Michael W. Deem and Ramdas Pophale) SiO2 
 PCOD8297677
Probable space group: I M M A
;
_chemical_formula_sum "Si O2"
_cell_formula_units_Z 96
_cell_length_a 20.672407
_cell_length_b 9.154545
_cell_length_c 30.320466
_cell_angle_alpha 90.000000
_cell_angle_beta 90.000000
_cell_angle_gamma 90.000000
_cell_volume 5738.041467
_symmetry_space_group_name_H-M "I M M A"
_symmetry_group_IT_number 74
_symmetry_cell_setting 'orthorhombic'
loop_
_space_group_symop_operation_xyz
x,y,z
-x,1/2-y,z
x,-y,-z
-x,1/2+y,-z
-x,-y,-z
x,1/2+y,-z
-x,y,z
x,1/2-y,z
1/2+x,1/2+y,1/2+z
1/2-x,-y,1/2+z
1/2+x,1/2-y,1/2-z
1/2-x,y,1/2-z
1/2-x,1/2-y,1/2-z
1/2+x,y,1/2-z
1/2-x,1/2+y,1/2+z
1/2+x,-y,1/2+z
loop_
_atom_site_type_symbol
_atom_site_label
_atom_site_fract_x
_atom_site_fract_y
_atom_site_fract_z
Si Si1 0.595778 0.416215 0.341799
Si Si2 0.927901 0.918744 0.245554
Si Si3 0.708312 0.919755 0.457047
Si Si4 0.569670 0.414671 0.573430
Si Si5 0.260993 0.414821 0.370633
Si Si6 0.693229 0.421523 0.217291
O O1 0.573708 0.250000 0.333895
O O2 0.569455 0.516045 0.303166
O O3 0.565040 0.472196 0.386864
O O4 0.672720 0.429094 0.343860
O O5 0.908198 0.750000 0.242614
O O6 0.000000 0.937053 0.266361
O O7 0.874911 0.001098 0.274609
O O8 0.724337 0.750000 0.460942
O O9 0.631063 0.952981 0.457011
O O10 0.737247 0.000000 0.500000
O O11 0.742315 0.978647 0.412647
O O12 0.500000 0.425634 0.547967
O O13 0.579776 0.250000 0.591782
O O14 0.251873 0.250000 0.388359
O O15 0.207752 0.455982 0.334074
O O16 0.684341 0.250000 0.225877
O O17 0.750000 0.480140 0.250000
#
# Coordination Sequence:
#
# PCOD8297677 Si02
#       6
#    16  16  16  16  16  16
#     4  10  18  30  47  67  92 125 166 210 251 292
#     4  11  23  34  45  68 103 138 171 208 248 293
#     4  10  20  33  49  68  91 121 158 201 251 299
#     4   9  18  31  44  61  88 121 159 204 251 298
#     4   9  18  33  52  72  96 123 158 206 252 296
#     4  10  19  35  55  76 100 130 169 212 253 297
#
# _framework density 16.730447999999999
#
# number of rings (size 3 to 8) (size 9 to 14) (size 15 to 20)
#    0.000    2.167    1.667    2.000    0.000    6.333 
#    0.000    0.000    0.000    0.000    0.000    0.000 
#    0.000    0.667    0.000    2.167    0.000    3.167 
#
# Total GULP energy -594988.357364 kJ/mol
# GULP energy per Si atom -12395.590778 kJ/mol
# Density = 1.669237 g / cm^3
# Si number density = 16.730448 Si / 1000 Ang^3
#
#
#
# Elastic Constant Matrix: (Units=GPa)
#
#
# Indices 1 2 3 4 5 6 
#
# 1 66.1246 39.5178 36.6185 0.0000 0.0000 0.0000
# 2 39.5178 92.1779 55.5471 0.0000 0.0000 0.0000
# 3 36.6185 55.5471 84.3116 0.0000 0.0000 0.0000
# 4 0.0000 0.0000 0.0000 28.0576 0.0000 0.0000
# 5 0.0000 0.0000 0.0000 0.0000 4.8245 0.0000
# 6 0.0000 0.0000 0.0000 0.0000 0.0000 21.2610
#
#
#
# Elastic Compliance Matrix: (Units=1/GPa)
#
#
# Indices 1 2 3 4 5 6 
#
# 1 0.021759 -0.006026 -0.005481 0.000000 0.000000 0.000000
# 2 -0.006026 0.019660 -0.010336 0.000000 0.000000 0.000000
# 3 -0.005481 -0.010336 0.021051 0.000000 0.000000 0.000000
# 4 0.000000 0.000000 0.000000 0.035641 0.000000 0.000000
# 5 0.000000 0.000000 0.000000 0.000000 0.207277 0.000000
# 6 0.000000 0.000000 0.000000 0.000000 0.000000 0.047034
#
#
# Mechanical properties :
#
#
# Convention : Reuss Voigt Hill
#
# Bulk Modulus (GPa) = 53.23113 56.22011 54.72562
# Shear Modulus (GPa) = 12.42642 18.22400 15.32521
#
# Velocity S-wave (km/s) = 2.72829 3.30399 3.02984
# Velocity P-wave (km/s) = 6.46612 6.94489 6.70978
#
# Compressibility (1/GPa) = 0.01878600
#
# Stress axis : x y z
#
# Youngs Moduli (GPa) = 45.95762 50.86400 47.50475
#
# Poissons Ratio (x) = 0.30650 0.26035
# Poissons Ratio (y) = 0.27693 0.49099
# Poissons Ratio (z) = 0.25187 0.52571
#
# Static dielectric constant tensor:
#      x y z
#    x 3.062430 0.000000 0.000000 
#    y 0.000000 3.214780 0.000000 
#    z 0.000000 0.000000 2.902100 
# 
# 
# High freq. dielectric constant tensor:
#      x y z
#    x 1.614790 0.000000 0.000000 
#    y 0.000000 1.655200 0.000000 
#    z 0.000000 0.000000 1.623310 
# 
# From -- ./inp_files/68127.got.cif
#   From: 2010.03.12/outbox.cif.g09.slc.cpg/sg74_35_cif.got.tgz:68127.got - 2010.04.16 15:46:19.
