data_PCOD8297430
_publ_section_title
;
Structure prediction by ZEFSAII (Michael W. Deem and Ramdas Pophale) SiO2 
 PCOD8297430
Probable space group: I M M A
;
_chemical_formula_sum "Si O2"
_cell_formula_units_Z 112
_cell_length_a 16.681082
_cell_length_b 14.203067
_cell_length_c 31.344620
_cell_angle_alpha 90.000000
_cell_angle_beta 90.000000
_cell_angle_gamma 90.000000
_cell_volume 7426.246524
_symmetry_space_group_name_H-M "I M M A"
_symmetry_group_IT_number 74
_symmetry_cell_setting 'orthorhombic'
loop_
_space_group_symop_operation_xyz
x,y,z
-x,1/2-y,z
x,-y,-z
-x,1/2+y,-z
-x,-y,-z
x,1/2+y,-z
-x,y,z
x,1/2-y,z
1/2+x,1/2+y,1/2+z
1/2-x,-y,1/2+z
1/2+x,1/2-y,1/2-z
1/2-x,y,1/2-z
1/2-x,1/2-y,1/2-z
1/2+x,y,1/2-z
1/2-x,1/2+y,1/2+z
1/2+x,-y,1/2+z
loop_
_atom_site_type_symbol
_atom_site_label
_atom_site_fract_x
_atom_site_fract_y
_atom_site_fract_z
Si Si1 0.595240 0.143057 0.822377
Si Si2 0.146933 0.854820 0.582184
Si Si3 0.254729 0.643247 0.656449
Si Si4 0.910154 0.140353 0.203850
Si Si5 0.590201 0.050959 0.906906
Si Si6 0.829910 0.522628 0.724806
Si Si7 0.908223 0.856395 0.490729
O O1 0.500000 0.134344 0.822022
O O2 0.623563 0.250000 0.814516
O O3 0.631077 0.106408 0.867682
O O4 0.629409 0.077092 0.785309
O O5 0.110881 0.750000 0.592197
O O6 0.233897 0.865109 0.605700
O O7 0.151284 0.867783 0.531128
O O8 0.092149 0.938504 0.600814
O O9 0.242204 0.750000 0.672320
O O10 0.346949 0.613496 0.666093
O O11 0.191332 0.580121 0.682155
O O12 0.904143 0.250000 0.215382
O O13 0.890439 0.083711 0.246750
O O14 0.000000 0.114310 0.188215
O O15 0.500000 0.087469 0.909399
O O16 0.628218 0.078845 0.952849
O O17 0.750000 0.498858 0.750000
O O18 0.907696 0.750000 0.473866
O O19 0.000000 0.885428 0.503946
#
# Coordination Sequence:
#
# PCOD8297430 Si02
#       7
#    16  16  16  16  16  16  16
#     4  10  20  32  44  59  81 111 146 180 212 248
#     4  10  18  27  40  59  84 111 137 172 211 244
#     4   9  17  29  43  62  89 115 136 166 211 253
#     4   9  17  29  46  66  86 111 142 170 201 252
#     4  10  18  29  43  57  80 116 149 174 203 242
#     4  10  18  30  47  63  83 110 137 176 216 255
#     4   9  17  28  41  59  83 113 148 178 203 236
#
# _framework density 15.081643
#
# number of rings (size 3 to 8) (size 9 to 14) (size 15 to 20)
#    0.000    2.429    1.429    2.143    0.000    5.714 
#    0.000    0.000    0.000    0.000    0.000    0.000 
#    0.000    2.286    0.000    0.571    0.000    0.429 
#
# Total GULP energy -693816.789069 kJ/mol
# GULP energy per Si atom -12389.585519 kJ/mol
# Density = 1.504732 g / cm^3
# Si number density = 15.081643 Si / 1000 Ang^3
#
#
#
# Elastic Constant Matrix: (Units=GPa)
#
#
# Indices 1 2 3 4 5 6 
#
# 1 56.4412 28.8193 37.6881 0.0000 0.0000 0.0000
# 2 28.8193 93.8619 34.7741 0.0000 0.0000 0.0000
# 3 37.6881 34.7741 84.3587 0.0000 0.0000 0.0000
# 4 0.0000 0.0000 0.0000 23.3385 0.0000 0.0000
# 5 0.0000 0.0000 0.0000 0.0000 19.1614 0.0000
# 6 0.0000 0.0000 0.0000 0.0000 0.0000 17.3237
#
#
#
# Elastic Compliance Matrix: (Units=1/GPa)
#
#
# Indices 1 2 3 4 5 6 
#
# 1 0.026749 -0.004468 -0.010109 0.000000 0.000000 0.000000
# 2 -0.004468 0.013321 -0.003495 0.000000 0.000000 0.000000
# 3 -0.010109 -0.003495 0.017811 0.000000 0.000000 0.000000
# 4 0.000000 0.000000 0.000000 0.042848 0.000000 0.000000
# 5 0.000000 0.000000 0.000000 0.000000 0.052188 0.000000
# 6 0.000000 0.000000 0.000000 0.000000 0.000000 0.057724
#
#
# Mechanical properties :
#
#
# Convention : Reuss Voigt Hill
#
# Bulk Modulus (GPa) = 46.00329 48.58053 47.29191
# Shear Modulus (GPa) = 19.68279 20.85674 20.26977
#
# Velocity S-wave (km/s) = 3.61651 3.72280 3.67004
# Velocity P-wave (km/s) = 6.92878 7.12465 7.02739
#
# Compressibility (1/GPa) = 0.02173758
#
# Stress axis : x y z
#
# Youngs Moduli (GPa) = 37.38489 75.07198 56.14537
#
# Poissons Ratio (x) = 0.33541 0.56755
# Poissons Ratio (y) = 0.16703 0.19622
# Poissons Ratio (z) = 0.37791 0.26237
#
# Static dielectric constant tensor:
#      x y z
#    x 2.706690 0.000000 0.000000 
#    y 0.000000 3.024400 0.000000 
#    z 0.000000 0.000000 2.967210 
# 
# 
# High freq. dielectric constant tensor:
#      x y z
#    x 1.529860 0.000000 0.000000 
#    y 0.000000 1.589000 0.000000 
#    z 0.000000 0.000000 1.571940 
# 
# From -- ./inp_files/72689.got.cif
#   From: 2010.03.12/outbox.cif.g09.slc.cpg/sg74_37_cif.got.tgz:72689.got - 2010.04.16 15:46:19.
