data_PCOD8297657
_publ_section_title
;
Structure prediction by ZEFSAII (Michael W. Deem and Ramdas Pophale) SiO2 
 PCOD8297657
Probable space group: I M M A
;
_chemical_formula_sum "Si O2"
_cell_formula_units_Z 104
_cell_length_a 9.265820
_cell_length_b 27.970497
_cell_length_c 28.142365
_cell_angle_alpha 90.000000
_cell_angle_beta 90.000000
_cell_angle_gamma 90.000000
_cell_volume 7293.645213
_symmetry_space_group_name_H-M "I M M A"
_symmetry_group_IT_number 74
_symmetry_cell_setting 'orthorhombic'
loop_
_space_group_symop_operation_xyz
x,y,z
-x,1/2-y,z
x,-y,-z
-x,1/2+y,-z
-x,-y,-z
x,1/2+y,-z
-x,y,z
x,1/2-y,z
1/2+x,1/2+y,1/2+z
1/2-x,-y,1/2+z
1/2+x,1/2-y,1/2-z
1/2-x,y,1/2-z
1/2-x,1/2-y,1/2-z
1/2+x,y,1/2-z
1/2-x,1/2+y,1/2+z
1/2+x,-y,1/2+z
loop_
_atom_site_type_symbol
_atom_site_label
_atom_site_fract_x
_atom_site_fract_y
_atom_site_fract_z
Si Si1 0.170308 0.108680 0.977549
Si Si2 0.333777 0.469628 0.600839
Si Si3 0.338059 0.038975 0.040689
Si Si4 0.844428 0.250000 0.705699
Si Si5 0.338326 0.846902 0.155591
Si Si6 0.668023 0.194313 0.944930
Si Si7 0.168258 0.428937 0.797895
O O1 0.241561 0.082915 0.022901
O O2 0.234115 0.162949 0.980524
O O3 0.000000 0.111853 0.985027
O O4 0.206443 0.078424 0.929073
O O5 0.500000 0.482343 0.590918
O O6 0.236506 0.514720 0.586330
O O7 0.304079 0.463469 0.657160
O O8 0.500000 0.056227 0.054019
O O9 0.345682 0.000000 0.000000
O O10 0.750000 0.250000 0.750000
O O11 0.817937 0.293929 0.672560
O O12 0.000000 0.250000 0.728718
O O13 0.500000 0.867473 0.164070
O O14 0.224614 0.877607 0.185094
O O15 0.305972 0.839537 0.100546
O O16 0.500000 0.193907 0.959532
O O17 0.719941 0.250000 0.940886
O O18 0.250000 0.446531 0.750000
O O19 0.000000 0.424572 0.785625
#
# Coordination Sequence:
#
# PCOD8297657 Si02
#       7
#    16  16  16   8  16  16  16
#     4  10  18  30  46  64  86 109 135 171 214 257
#     4   9  18  31  45  62  85 108 133 171 215 256
#     4   9  17  28  45  68  86 104 132 164 206 257
#     4  10  20  32  42  54  68  90 126 172 222 264
#     4  10  19  32  46  57  74 100 134 176 221 262
#     4  10  19  31  46  62  82 109 141 178 219 260
#     4  11  22  34  45  61  82 108 141 175 216 259
#
# _framework density 14.258988
#
# number of rings (size 3 to 8) (size 9 to 14) (size 15 to 20)
#    0.000    2.154    2.308    1.846    0.000    5.846 
#    0.000    0.000    0.000    0.000    0.000    0.000 
#    0.000    0.000    0.000    0.000    0.000    0.769 
#
# Total GULP energy -644222.671339 kJ/mol
# GULP energy per Si atom -12388.897526 kJ/mol
# Density = 1.422653 g / cm^3
# Si number density = 14.258988 Si / 1000 Ang^3
#
#
#
# Elastic Constant Matrix: (Units=GPa)
#
#
# Indices 1 2 3 4 5 6 
#
# 1 90.3123 47.3463 45.3233 0.0000 0.0000 0.0000
# 2 47.3463 53.7427 39.6885 0.0000 0.0000 0.0000
# 3 45.3233 39.6885 59.1299 0.0000 0.0000 0.0000
# 4 0.0000 0.0000 0.0000 18.8930 0.0000 0.0000
# 5 0.0000 0.0000 0.0000 0.0000 21.0984 0.0000
# 6 0.0000 0.0000 0.0000 0.0000 0.0000 24.7434
#
#
#
# Elastic Compliance Matrix: (Units=1/GPa)
#
#
# Indices 1 2 3 4 5 6 
#
# 1 0.022221 -0.013876 -0.007719 0.000000 0.000000 0.000000
# 2 -0.013876 0.045560 -0.019945 0.000000 0.000000 0.000000
# 3 -0.007719 -0.019945 0.036215 0.000000 0.000000 0.000000
# 4 0.000000 0.000000 0.000000 0.052930 0.000000 0.000000
# 5 0.000000 0.000000 0.000000 0.000000 0.047397 0.000000
# 6 0.000000 0.000000 0.000000 0.000000 0.000000 0.040415
#
#
# Mechanical properties :
#
#
# Convention : Reuss Voigt Hill
#
# Bulk Modulus (GPa) = 47.80541 51.98901 49.89721
# Shear Modulus (GPa) = 14.93477 17.66874 16.30175
#
# Velocity S-wave (km/s) = 3.23986 3.52395 3.38488
# Velocity P-wave (km/s) = 6.89890 7.28679 7.09550
#
# Compressibility (1/GPa) = 0.02091813
#
# Stress axis : x y z
#
# Youngs Moduli (GPa) = 45.00295 21.94885 27.61261
#
# Poissons Ratio (x) = 0.30456 0.21313
# Poissons Ratio (y) = 0.62446 0.55072
# Poissons Ratio (z) = 0.34736 0.43776
#
# Static dielectric constant tensor:
#      x y z
#    x 2.980450 0.000000 0.000000 
#    y 0.000000 2.662210 0.000000 
#    z 0.000000 0.000000 2.638650 
# 
# 
# High freq. dielectric constant tensor:
#      x y z
#    x 1.558850 0.000000 0.000000 
#    y 0.000000 1.518390 0.000000 
#    z 0.000000 0.000000 1.512890 
# 
# From -- ./inp_files/57815.got.cif
#   From: 2010.03.12/outbox.cif.g09.slc.cpg/sg74_29_cif.got.tgz:57815.got - 2010.04.16 15:46:19.
