data_PCOD8297293
_publ_section_title
;
Structure prediction by ZEFSAII (Michael W. Deem and Ramdas Pophale) SiO2 
 PCOD8297293
Probable space group: I M M A
;
_chemical_formula_sum "Si O2"
_cell_formula_units_Z 80
_cell_length_a 18.738057
_cell_length_b 9.434749
_cell_length_c 32.823904
_cell_angle_alpha 90.000000
_cell_angle_beta 90.000000
_cell_angle_gamma 90.000000
_cell_volume 5802.900718
_symmetry_space_group_name_H-M "I M M A"
_symmetry_group_IT_number 74
_symmetry_cell_setting 'orthorhombic'
loop_
_space_group_symop_operation_xyz
x,y,z
-x,1/2-y,z
x,-y,-z
-x,1/2+y,-z
-x,-y,-z
x,1/2+y,-z
-x,y,z
x,1/2-y,z
1/2+x,1/2+y,1/2+z
1/2-x,-y,1/2+z
1/2+x,1/2-y,1/2-z
1/2-x,y,1/2-z
1/2-x,1/2-y,1/2-z
1/2+x,y,1/2-z
1/2-x,1/2+y,1/2+z
1/2+x,-y,1/2+z
loop_
_atom_site_type_symbol
_atom_site_label
_atom_site_fract_x
_atom_site_fract_y
_atom_site_fract_z
Si Si1 0.500000 0.585077 0.832942
Si Si2 0.859683 0.083288 0.375304
Si Si3 0.862400 0.414236 0.766764
Si Si4 0.279069 0.413382 0.813814
Si Si5 0.418101 0.414079 0.038958
Si Si6 0.000000 0.916220 0.761927
O O1 0.500000 0.750000 0.843526
O O2 0.429657 0.519444 0.853204
O O3 0.500000 0.552028 0.785703
O O4 0.850643 0.250000 0.367811
O O5 0.866641 0.048225 0.423188
O O6 0.792788 0.004339 0.354676
O O7 0.885601 0.250000 0.765155
O O8 0.802561 0.438349 0.801024
O O9 0.831134 0.461969 0.722959
O O10 0.929192 0.510972 0.779993
O O11 0.292720 0.250000 0.823932
O O12 0.500000 0.453716 0.050015
O O13 0.412512 0.250000 0.027895
O O14 0.390450 0.500000 0.000000
O O15 0.000000 0.750000 0.772477
#
# Coordination Sequence:
#
# PCOD8297293 Si02
#       6
#     8  16  16  16  16   8
#     4   9  16  25  36  56  80 102 131 168 206 239
#     4  10  17  28  43  57  78 106 135 172 212 241
#     4   9  18  31  42  55  80 108 132 165 208 243
#     4   9  18  30  42  57  78 105 136 168 202 243
#     4   9  17  28  41  56  78 106 134 167 206 243
#     4  11  19  27  43  62  78 102 138 173 204 242
#
# _framework density 13.786208999999999
#
# number of rings (size 3 to 8) (size 9 to 14) (size 15 to 20)
#    0.000    2.600    3.000    1.500    0.000    1.600 
#    0.000    2.500    0.000    0.000    0.000    0.000 
#    0.000    0.000    0.000    0.900    0.000   11.800 
#
# Total GULP energy -495907.354045 kJ/mol
# GULP energy per Si atom -12397.683851 kJ/mol
# Density = 1.375483 g / cm^3
# Si number density = 13.786209 Si / 1000 Ang^3
#
#
#
# Elastic Constant Matrix: (Units=GPa)
#
#
# Indices 1 2 3 4 5 6 
#
# 1 72.5004 42.1327 32.8949 0.0000 0.0000 0.0000
# 2 42.1327 58.5983 45.1071 0.0000 0.0000 0.0000
# 3 32.8949 45.1071 79.8758 0.0000 0.0000 0.0000
# 4 0.0000 0.0000 0.0000 24.0949 0.0000 0.0000
# 5 0.0000 0.0000 0.0000 0.0000 21.0607 0.0000
# 6 0.0000 0.0000 0.0000 0.0000 0.0000 22.6894
#
#
#
# Elastic Compliance Matrix: (Units=1/GPa)
#
#
# Indices 1 2 3 4 5 6 
#
# 1 0.023696 -0.016851 -0.000243 0.000000 0.000000 0.000000
# 2 -0.016851 0.042171 -0.016875 0.000000 0.000000 0.000000
# 3 -0.000243 -0.016875 0.022149 0.000000 0.000000 0.000000
# 4 0.000000 0.000000 0.000000 0.041503 0.000000 0.000000
# 5 0.000000 0.000000 0.000000 0.000000 0.047482 0.000000
# 6 0.000000 0.000000 0.000000 0.000000 0.000000 0.044073
#
#
# Mechanical properties :
#
#
# Convention : Reuss Voigt Hill
#
# Bulk Modulus (GPa) = 49.80353 50.13821 49.97087
# Shear Modulus (GPa) = 16.90885 19.62499 18.26692
#
# Velocity S-wave (km/s) = 3.50595 3.77705 3.64402
# Velocity P-wave (km/s) = 7.25210 7.44774 7.35057
#
# Compressibility (1/GPa) = 0.02007890
#
# Stress axis : x y z
#
# Youngs Moduli (GPa) = 42.20184 23.71298 45.14870
#
# Poissons Ratio (x) = 0.39958 0.01096
# Poissons Ratio (y) = 0.71112 0.76189
# Poissons Ratio (z) = 0.01024 0.40016
#
# Static dielectric constant tensor:
#      x y z
#    x 2.576350 0.000000 0.000000 
#    y 0.000000 2.626900 0.000000 
#    z 0.000000 0.000000 2.561500 
# 
# 
# High freq. dielectric constant tensor:
#      x y z
#    x 1.501290 0.000000 0.000000 
#    y 0.000000 1.523580 0.000000 
#    z 0.000000 0.000000 1.500060 
# 
# From -- ./inp_files/73243.got.cif
#   From: 2010.03.12/outbox.cif.g09.slc.cpg/sg74_37_cif.got.tgz:73243.got - 2010.04.16 15:46:19.
