data_PCOD8297954
_publ_section_title
;
Structure prediction by ZEFSAII (Michael W. Deem and Ramdas Pophale) SiO2 
 PCOD8297954
Probable space group: I M M A
;
_chemical_formula_sum "Si O2"
_cell_formula_units_Z 96
_cell_length_a 18.619412
_cell_length_b 28.619970
_cell_length_c 9.867218
_cell_angle_alpha 90.000000
_cell_angle_beta 90.000000
_cell_angle_gamma 90.000000
_cell_volume 5258.112325
_symmetry_space_group_name_H-M "I M M A"
_symmetry_group_IT_number 74
_symmetry_cell_setting 'orthorhombic'
loop_
_space_group_symop_operation_xyz
x,y,z
-x,1/2-y,z
x,-y,-z
-x,1/2+y,-z
-x,-y,-z
x,1/2+y,-z
-x,y,z
x,1/2-y,z
1/2+x,1/2+y,1/2+z
1/2-x,-y,1/2+z
1/2+x,1/2-y,1/2-z
1/2-x,y,1/2-z
1/2-x,1/2-y,1/2-z
1/2+x,y,1/2-z
1/2-x,1/2+y,1/2+z
1/2+x,-y,1/2+z
loop_
_atom_site_type_symbol
_atom_site_label
_atom_site_fract_x
_atom_site_fract_y
_atom_site_fract_z
Si Si1 0.805107 0.997403 0.853347
Si Si2 0.583522 0.419449 0.403877
Si Si3 0.665193 0.848070 0.777038
Si Si4 0.190009 0.351701 0.573975
Si Si5 0.837213 0.898494 0.161460
Si Si6 0.260449 0.250000 0.909233
Si Si7 0.824299 0.750000 0.826082
O O1 0.750000 0.971883 0.750000
O O2 0.878322 0.968885 0.875960
O O3 0.820992 0.048561 0.792712
O O4 0.766300 0.000000 0.000000
O O5 0.500000 0.426950 0.380681
O O6 0.615051 0.383175 0.300304
O O7 0.597405 0.399818 0.555691
O O8 0.750000 0.853356 0.750000
O O9 0.636417 0.797007 0.726945
O O10 0.651525 0.863362 0.932882
O O11 0.142915 0.368743 0.703529
O O12 0.268737 0.374941 0.587474
O O13 0.194089 0.295960 0.562014
O O14 0.250000 0.250000 0.750000
O O15 0.189858 0.250000 0.009373
O O16 0.750000 0.750000 0.750000
#
# Coordination Sequence:
#
# PCOD8297954 Si02
#       7
#    16  16  16  16  16   8   8
#     4  10  21  35  58  83 111 147 189 243 287 340
#     4  11  24  39  56  81 115 157 197 236 289 350
#     4  11  19  35  60  85 117 149 193 242 286 341
#     4  11  19  32  55  90 114 146 184 237 289 336
#     4  10  20  34  54  83 114 144 189 236 286 342
#     4  12  18  26  50  89 132 142 174 234 301 345
#     4  10  18  32  53  89 123 150 181 241 301 335
#
# _framework density 18.257503
#
# number of rings (size 3 to 8) (size 9 to 14) (size 15 to 20)
#    0.000    1.333    8.333    0.500    2.333    3.000 
#    0.000    1.250    0.000    3.500    0.000    1.167 
#    0.000    0.000    0.000    0.000    0.000    0.000 
#
# Total GULP energy -594673.563312 kJ/mol
# GULP energy per Si atom -12389.032569 kJ/mol
# Density = 1.821595 g / cm^3
# Si number density = 18.257503 Si / 1000 Ang^3
#
#
#
# Elastic Constant Matrix: (Units=GPa)
#
#
# Indices 1 2 3 4 5 6 
#
# 1 83.3452 32.8684 47.5222 0.0000 0.0000 0.0006
# 2 32.8684 118.7637 50.2377 0.0000 0.0000 0.0005
# 3 47.5222 50.2377 158.9034 -0.0004 0.0000 0.0022
# 4 0.0000 0.0000 -0.0004 36.9994 -0.0001 0.0002
# 5 0.0000 0.0000 0.0000 -0.0001 17.8378 0.0017
# 6 0.0006 0.0005 0.0022 0.0002 0.0017 -169.9462
#
#
#
# Elastic Compliance Matrix: (Units=1/GPa)
#
#
# Indices 1 2 3 4 5 6 
#
# 1 0.015143 -0.002626 -0.003698 0.000000 0.000000 0.000000
# 2 -0.002626 0.010176 -0.002432 0.000000 0.000000 0.000000
# 3 -0.003698 -0.002432 0.008168 0.000000 0.000000 0.000000
# 4 0.000000 0.000000 0.000000 0.027027 0.000000 0.000000
# 5 0.000000 0.000000 0.000000 0.000000 0.056061 0.000001
# 6 0.000000 0.000000 0.000000 0.000000 0.000001 -0.005884
#
#
# Mechanical properties :
#
#
# Convention : Reuss Voigt Hill
#
# Bulk Modulus (GPa) = 62.60316 69.14100 65.87208
# Shear Modulus (GPa) = 37.44553 -7.66287 14.89133
#
# Velocity S-wave (km/s) = 4.53367 -2.05091 2.85902
# Velocity P-wave (km/s) = 7.85933 5.68716 6.85977
#
# Compressibility (1/GPa) = 0.01597363
#
# Stress axis : x y z
#
# Youngs Moduli (GPa) = 66.03811 98.27506 122.43056
#
# Poissons Ratio (x) = 0.25811 0.45278
# Poissons Ratio (y) = 0.17344 0.29770
# Poissons Ratio (z) = 0.24423 0.23896
#
# Static dielectric constant tensor:
#      x y z
#    x 3.722760 0.000010 0.000010 
#    y 0.000010 4.191490 0.000000 
#    z 0.000010 0.000000 3.963400 
# 
# 
# High freq. dielectric constant tensor:
#      x y z
#    x 1.629080 0.000000 0.000000 
#    y 0.000000 1.730780 0.000000 
#    z 0.000000 0.000000 1.731300 
# 
# From -- ./inp_files/22718.got.cif
#   From: 2010.03.12/outbox.cif.g09.slc.cpg/sg74_12_cif.got.tgz:22718.got - 2010.04.16 15:46:19.
