data_PCOD8297545
_publ_section_title
;
Structure prediction by ZEFSAII (Michael W. Deem and Ramdas Pophale) SiO2 
 PCOD8297545
Probable space group: I M M A
;
_chemical_formula_sum "Si O2"
_cell_formula_units_Z 88
_cell_length_a 21.978667
_cell_length_b 12.240119
_cell_length_c 20.135638
_cell_angle_alpha 90.000000
_cell_angle_beta 90.000000
_cell_angle_gamma 90.000000
_cell_volume 5416.919529
_symmetry_space_group_name_H-M "I M M A"
_symmetry_group_IT_number 74
_symmetry_cell_setting 'orthorhombic'
loop_
_space_group_symop_operation_xyz
x,y,z
-x,1/2-y,z
x,-y,-z
-x,1/2+y,-z
-x,-y,-z
x,1/2+y,-z
-x,y,z
x,1/2-y,z
1/2+x,1/2+y,1/2+z
1/2-x,-y,1/2+z
1/2+x,1/2-y,1/2-z
1/2-x,y,1/2-z
1/2-x,1/2-y,1/2-z
1/2+x,y,1/2-z
1/2-x,1/2+y,1/2+z
1/2+x,-y,1/2+z
loop_
_atom_site_type_symbol
_atom_site_label
_atom_site_fract_x
_atom_site_fract_y
_atom_site_fract_z
Si Si1 0.196334 0.510959 0.803909
Si Si2 0.160953 0.500000 0.500000
Si Si3 0.765153 0.130045 0.601447
Si Si4 0.814757 0.250000 0.213628
Si Si5 0.933037 0.036446 0.388817
Si Si6 0.627342 0.627221 0.204119
Si Si7 0.933365 0.750000 0.697709
O O1 0.250000 0.515191 0.750000
O O2 0.212821 0.451668 0.873111
O O3 0.180226 0.635574 0.826476
O O4 0.140089 0.445549 0.770082
O O5 0.203811 0.409214 0.533287
O O6 0.117902 0.446851 0.444725
O O7 0.737451 0.250000 0.587721
O O8 0.811854 0.137519 0.661703
O O9 0.750000 0.250000 0.250000
O O10 0.874378 0.250000 0.258071
O O11 0.929015 0.144421 0.346875
O O12 0.000000 0.022759 0.421076
O O13 0.922763 0.931627 0.341562
O O14 0.605343 0.750000 0.223957
O O15 0.000000 0.750000 0.734706
#
# Coordination Sequence:
#
# PCOD8297545 Si02
#       7
#    16   8  16   8  16  16   8
#     4   9  16  28  45  68  88 111 148 200 258 303
#     4  10  21  32  46  64  90 130 183 206 242 280
#     4   9  18  31  43  63  88 120 157 203 248 297
#     4  10  18  28  50  76  94 116 162 206 252 312
#     4  10  20  33  47  64  92 130 175 214 244 280
#     4   9  16  28  47  65  85 114 153 203 254 301
#     4  10  20  34  50  70 100 134 163 206 257 298
#
# _framework density 16.245396
#
# number of rings (size 3 to 8) (size 9 to 14) (size 15 to 20)
#    0.000    2.545    1.818    0.818    3.818    2.545 
#    1.636    0.000    0.000    0.000    0.000    0.000 
#    0.000    0.000    0.000    3.273    1.818    0.727 
#
# Total GULP energy -545084.728350 kJ/mol
# GULP energy per Si atom -12388.289281 kJ/mol
# Density = 1.620842 g / cm^3
# Si number density = 16.245396 Si / 1000 Ang^3
#
#
#
# Elastic Constant Matrix: (Units=GPa)
#
#
# Indices 1 2 3 4 5 6 
#
# 1 64.2369 33.4749 42.4845 0.0000 0.0000 0.0000
# 2 33.4749 162.1953 46.2713 0.0000 0.0000 0.0000
# 3 42.4845 46.2713 56.8625 0.0000 0.0000 0.0000
# 4 0.0000 0.0000 0.0000 16.4460 0.0000 0.0000
# 5 0.0000 0.0000 0.0000 0.0000 22.7343 0.0000
# 6 0.0000 0.0000 0.0000 0.0000 0.0000 21.7735
#
#
#
# Elastic Compliance Matrix: (Units=1/GPa)
#
#
# Indices 1 2 3 4 5 6 
#
# 1 0.030783 0.000271 -0.023220 0.000000 0.000000 0.000000
# 2 0.000271 0.008032 -0.006738 0.000000 0.000000 0.000000
# 3 -0.023220 -0.006738 0.040418 0.000000 0.000000 0.000000
# 4 0.000000 0.000000 0.000000 0.060805 0.000000 0.000000
# 5 0.000000 0.000000 0.000000 0.000000 0.043986 0.000000
# 6 0.000000 0.000000 0.000000 0.000000 0.000000 0.045927
#
#
# Mechanical properties :
#
#
# Convention : Reuss Voigt Hill
#
# Bulk Modulus (GPa) = 50.35598 58.63955 54.49777
# Shear Modulus (GPa) = 16.89497 22.92837 19.91167
#
# Velocity S-wave (km/s) = 3.22838 3.76090 3.50477
# Velocity P-wave (km/s) = 6.70529 7.41847 7.07088
#
# Compressibility (1/GPa) = 0.01985862
#
# Stress axis : x y z
#
# Youngs Moduli (GPa) = 32.48524 124.50541 24.74132
#
# Poissons Ratio (x) = -0.03374 0.57449
# Poissons Ratio (y) = -0.00880 0.16671
# Poissons Ratio (z) = 0.75431 0.83895
#
# Static dielectric constant tensor:
#      x y z
#    x 2.985210 0.000000 0.000000 
#    y 0.000000 3.583440 0.000000 
#    z 0.000000 0.000000 2.757110 
# 
# 
# High freq. dielectric constant tensor:
#      x y z
#    x 1.594320 0.000000 0.000000 
#    y 0.000000 1.650680 0.000000 
#    z 0.000000 0.000000 1.577660 
# 
# From -- ./inp_files/45173.got.cif
#   From: 2010.03.12/outbox.cif.g09.slc.cpg/sg74_23_cif.got.tgz:45173.got - 2010.04.16 15:46:19.
