data_PCOD8297873
_publ_section_title
;
Structure prediction by ZEFSAII (Michael W. Deem and Ramdas Pophale) SiO2 
 PCOD8297873
Probable space group: I M M A
;
_chemical_formula_sum "Si O2"
_cell_formula_units_Z 80
_cell_length_a 8.659713
_cell_length_b 15.602805
_cell_length_c 29.188678
_cell_angle_alpha 90.000000
_cell_angle_beta 90.000000
_cell_angle_gamma 90.000000
_cell_volume 3943.851967
_symmetry_space_group_name_H-M "I M M A"
_symmetry_group_IT_number 74
_symmetry_cell_setting 'orthorhombic'
loop_
_space_group_symop_operation_xyz
x,y,z
-x,1/2-y,z
x,-y,-z
-x,1/2+y,-z
-x,-y,-z
x,1/2+y,-z
-x,y,z
x,1/2-y,z
1/2+x,1/2+y,1/2+z
1/2-x,-y,1/2+z
1/2+x,1/2-y,1/2-z
1/2-x,y,1/2-z
1/2-x,1/2-y,1/2-z
1/2+x,y,1/2-z
1/2-x,1/2+y,1/2+z
1/2+x,-y,1/2+z
loop_
_atom_site_type_symbol
_atom_site_label
_atom_site_fract_x
_atom_site_fract_y
_atom_site_fract_z
Si Si1 0.819010 0.403082 0.044942
Si Si2 0.178256 0.086378 0.546563
Si Si3 0.316770 0.155749 0.357606
Si Si4 0.318923 0.502769 0.299875
Si Si5 0.677639 0.346399 0.855819
O O1 0.784794 0.503222 0.051974
O O2 0.757874 0.354877 0.090273
O O3 0.000000 0.388658 0.037673
O O4 0.729408 0.365944 0.000408
O O5 0.207288 0.147582 0.589754
O O6 0.000000 0.058484 0.543188
O O7 0.500000 0.146878 0.357638
O O8 0.264886 0.250000 0.339749
O O9 0.247185 0.081369 0.325020
O O10 0.500000 0.492873 0.295182
O O11 0.250000 0.511433 0.250000
O O12 0.283671 0.587819 0.328576
O O13 0.500000 0.367376 0.844295
O O14 0.720298 0.250000 0.840476
#
# Coordination Sequence:
#
# PCOD8297873 Si02
#       5
#    16  16  16  16  16
#     4  10  18  31  54  82 114 153 195 230 271 330
#     4  10  19  32  53  81 116 153 189 232 281 328
#     4   9  19  36  58  85 117 151 188 232 281 333
#     4  11  23  41  64  87 113 147 187 237 291 344
#     4  10  22  40  61  85 116 153 192 235 285 341
#
# _framework density 20.284738000000001
#
# number of rings (size 3 to 8) (size 9 to 14) (size 15 to 20)
#    0.000    2.000    2.000    3.000    0.000    2.800 
#    0.000    0.000    0.000    8.400    0.000    0.000 
#    0.000    0.000    0.000    0.000    0.000    0.000 
#
# Total GULP energy -495923.338438 kJ/mol
# GULP energy per Si atom -12398.083461 kJ/mol
# Density = 2.023857 g / cm^3
# Si number density = 20.284738 Si / 1000 Ang^3
#
#
#
# Elastic Constant Matrix: (Units=GPa)
#
#
# Indices 1 2 3 4 5 6 
#
# 1 47.1484 18.8988 33.2635 0.0000 0.0000 0.0000
# 2 18.8988 112.3391 52.0889 0.0000 0.0000 0.0000
# 3 33.2635 52.0889 128.6493 0.0000 0.0000 0.0000
# 4 0.0000 0.0000 0.0000 10.2070 0.0000 0.0000
# 5 0.0000 0.0000 0.0000 0.0000 30.4050 0.0000
# 6 0.0000 0.0000 0.0000 0.0000 0.0000 19.7963
#
#
#
# Elastic Compliance Matrix: (Units=1/GPa)
#
#
# Indices 1 2 3 4 5 6 
#
# 1 0.026161 -0.001557 -0.006134 0.000000 0.000000 0.000000
# 2 -0.001557 0.011052 -0.004072 0.000000 0.000000 0.000000
# 3 -0.006134 -0.004072 0.011008 0.000000 0.000000 0.000000
# 4 0.000000 0.000000 0.000000 0.097972 0.000000 0.000000
# 5 0.000000 0.000000 0.000000 0.000000 0.032889 0.000000
# 6 0.000000 0.000000 0.000000 0.000000 0.000000 0.050515
#
#
# Mechanical properties :
#
#
# Convention : Reuss Voigt Hill
#
# Bulk Modulus (GPa) = 40.49440 55.18211 47.83826
# Shear Modulus (GPa) = 19.13114 24.34070 21.73592
#
# Velocity S-wave (km/s) = 3.07437 3.46779 3.27699
# Velocity P-wave (km/s) = 5.71040 6.58004 6.16058
#
# Compressibility (1/GPa) = 0.02469477
#
# Stress axis : x y z
#
# Youngs Moduli (GPa) = 38.22460 90.48374 90.84472
#
# Poissons Ratio (x) = 0.14088 0.55722
# Poissons Ratio (y) = 0.05952 0.36993
# Poissons Ratio (z) = 0.23446 0.36846
#
# Static dielectric constant tensor:
#      x y z
#    x 3.469250 0.000000 0.000000 
#    y 0.000000 3.638300 0.000000 
#    z 0.000000 0.000000 3.933150 
# 
# 
# High freq. dielectric constant tensor:
#      x y z
#    x 1.772750 0.000000 0.000000 
#    y 0.000000 1.784990 0.000000 
#    z 0.000000 0.000000 1.798950 
# 
# From -- ./inp_files/63973.got.cif
#   From: 2010.03.12/outbox.cif.g09.slc.cpg/sg74_32_cif.got.tgz:63973.got - 2010.04.16 15:46:19.
