data_PCOD8297858
_publ_section_title
;
Structure prediction by ZEFSAII (Michael W. Deem and Ramdas Pophale) SiO2 
 PCOD8297858
Probable space group: I M M A
;
_chemical_formula_sum "Si O2"
_cell_formula_units_Z 80
_cell_length_a 18.119144
_cell_length_b 17.120125
_cell_length_c 14.235650
_cell_angle_alpha 90.000000
_cell_angle_beta 90.000000
_cell_angle_gamma 90.000000
_cell_volume 4415.927246
_symmetry_space_group_name_H-M "I M M A"
_symmetry_group_IT_number 74
_symmetry_cell_setting 'orthorhombic'
loop_
_space_group_symop_operation_xyz
x,y,z
-x,1/2-y,z
x,-y,-z
-x,1/2+y,-z
-x,-y,-z
x,1/2+y,-z
-x,y,z
x,1/2-y,z
1/2+x,1/2+y,1/2+z
1/2-x,-y,1/2+z
1/2+x,1/2-y,1/2-z
1/2-x,y,1/2-z
1/2-x,1/2-y,1/2-z
1/2+x,y,1/2-z
1/2-x,1/2+y,1/2+z
1/2+x,-y,1/2+z
loop_
_atom_site_type_symbol
_atom_site_label
_atom_site_fract_x
_atom_site_fract_y
_atom_site_fract_z
Si Si1 0.414860 0.957378 0.404692
Si Si2 0.711336 0.158364 0.650779
Si Si3 0.338984 0.425438 0.938741
Si Si4 0.084700 0.023429 0.290095
Si Si5 0.086021 0.664747 0.593219
O O1 0.500000 0.929360 0.415329
O O2 0.366293 0.883651 0.371875
O O3 0.387642 0.000000 0.500000
O O4 0.407053 0.021348 0.321986
O O5 0.696428 0.250000 0.641704
O O6 0.750000 0.137731 0.750000
O O7 0.767435 0.128386 0.571949
O O8 0.371208 0.452248 0.838340
O O9 0.316142 0.500000 0.000000
O O10 0.399458 0.373112 0.991622
O O11 0.116470 0.106846 0.325499
O O12 0.000000 0.014637 0.322356
O O13 0.124397 0.750000 0.602909
O O14 0.000000 0.675967 0.605001
#
# Coordination Sequence:
#
# PCOD8297858 Si02
#       5
#    16  16  16  16  16
#     4  10  21  39  60  79 103 143 192 231 266 318
#     4  11  22  36  54  79 110 140 175 224 281 327
#     4  10  18  31  53  76 105 141 174 213 264 328
#     4   9  17  31  51  76 106 139 177 220 263 317
#     4   9  17  29  48  78 111 139 169 209 264 326
#
# _framework density 18.116242
#
# number of rings (size 3 to 8) (size 9 to 14) (size 15 to 20)
#    0.000    2.200    2.000    1.800    0.000    2.800 
#    0.000    1.000    0.000    3.600    0.000    7.000 
#    0.000    0.000    0.000    0.000    0.000    0.000 
#
# Total GULP energy -495757.668141 kJ/mol
# GULP energy per Si atom -12393.941704 kJ/mol
# Density = 1.807501 g / cm^3
# Si number density = 18.116242 Si / 1000 Ang^3
#
#
#
# Elastic Constant Matrix: (Units=GPa)
#
#
# Indices 1 2 3 4 5 6 
#
# 1 63.1231 46.1234 32.7285 0.0000 0.0000 0.0000
# 2 46.1234 134.3647 56.2952 0.0000 0.0000 0.0000
# 3 32.7285 56.2952 110.9983 0.0000 0.0000 0.0000
# 4 0.0000 0.0000 0.0000 16.5785 0.0000 0.0000
# 5 0.0000 0.0000 0.0000 0.0000 20.0281 0.0000
# 6 0.0000 0.0000 0.0000 0.0000 0.0000 27.3535
#
#
#
# Elastic Compliance Matrix: (Units=1/GPa)
#
#
# Indices 1 2 3 4 5 6 
#
# 1 0.022107 -0.006168 -0.003390 0.000000 0.000000 0.000000
# 2 -0.006168 0.011172 -0.003847 0.000000 0.000000 0.000000
# 3 -0.003390 -0.003847 0.011960 0.000000 0.000000 0.000000
# 4 0.000000 0.000000 0.000000 0.060319 0.000000 0.000000
# 5 0.000000 0.000000 0.000000 0.000000 0.049930 0.000000
# 6 0.000000 0.000000 0.000000 0.000000 0.000000 0.036558
#
#
# Mechanical properties :
#
#
# Convention : Reuss Voigt Hill
#
# Bulk Modulus (GPa) = 54.26677 64.30896 59.28786
# Shear Modulus (GPa) = 22.22229 24.34795 23.28512
#
# Velocity S-wave (km/s) = 3.50616 3.67002 3.58902
# Velocity P-wave (km/s) = 6.81254 7.31667 7.06910
#
# Compressibility (1/GPa) = 0.01842748
#
# Stress axis : x y z
#
# Youngs Moduli (GPa) = 45.23490 89.51179 83.61288
#
# Poissons Ratio (x) = 0.55214 0.28344
# Poissons Ratio (y) = 0.27902 0.32168
# Poissons Ratio (z) = 0.15334 0.34437
#
# Static dielectric constant tensor:
#      x y z
#    x 3.201080 0.000000 0.000000 
#    y 0.000000 3.530670 0.000000 
#    z 0.000000 0.000000 3.346320 
# 
# 
# High freq. dielectric constant tensor:
#      x y z
#    x 1.689150 0.000000 0.000000 
#    y 0.000000 1.698490 0.000000 
#    z 0.000000 0.000000 1.699870 
# 
# From -- ./inp_files/32077.got.cif
#   From: 2010.03.12/outbox.cif.g09.slc.cpg/sg74_17_cif.got.tgz:32077.got - 2010.04.16 15:46:19.
