data_PCOD8297309
_publ_section_title
;
Structure prediction by ZEFSAII (Michael W. Deem and Ramdas Pophale) SiO2 
 PCOD8297309
Probable space group: I M M A
;
_chemical_formula_sum "Si O2"
_cell_formula_units_Z 96
_cell_length_a 17.915566
_cell_length_b 13.015180
_cell_length_c 24.545904
_cell_angle_alpha 90.000000
_cell_angle_beta 90.000000
_cell_angle_gamma 90.000000
_cell_volume 5723.474383
_symmetry_space_group_name_H-M "I M M A"
_symmetry_group_IT_number 74
_symmetry_cell_setting 'orthorhombic'
loop_
_space_group_symop_operation_xyz
x,y,z
-x,1/2-y,z
x,-y,-z
-x,1/2+y,-z
-x,-y,-z
x,1/2+y,-z
-x,y,z
x,1/2-y,z
1/2+x,1/2+y,1/2+z
1/2-x,-y,1/2+z
1/2+x,1/2-y,1/2-z
1/2-x,y,1/2-z
1/2-x,1/2-y,1/2-z
1/2+x,y,1/2-z
1/2-x,1/2+y,1/2+z
1/2+x,-y,1/2+z
loop_
_atom_site_type_symbol
_atom_site_label
_atom_site_fract_x
_atom_site_fract_y
_atom_site_fract_z
Si Si1 0.168016 0.130311 0.254808
Si Si2 0.582586 0.629654 0.858534
Si Si3 0.080955 0.543419 0.059803
Si Si4 0.281484 0.926050 0.923082
Si Si5 0.234461 0.135752 0.956989
Si Si6 0.639986 0.866684 0.634536
O O1 0.178750 0.250000 0.267762
O O2 0.250000 0.078432 0.250000
O O3 0.120402 0.080401 0.304312
O O4 0.123735 0.113735 0.198292
O O5 0.500000 0.581190 0.867280
O O6 0.573820 0.750000 0.850804
O O7 0.633578 0.606994 0.911630
O O8 0.147552 0.626080 0.061017
O O9 0.093107 0.447747 0.100180
O O10 0.000000 0.593617 0.074071
O O11 0.078970 0.500000 0.000000
O O12 0.228933 0.881986 0.875324
O O13 0.281188 0.050434 0.924289
O O14 0.247236 0.881074 0.978743
O O15 0.261354 0.250000 0.940928
O O16 0.617035 0.750000 0.618588
#
# Coordination Sequence:
#
# PCOD8297309 Si02
#       6
#    16  16  16  16  16  16
#     4   9  16  26  44  70  99 131 163 191 227 280
#     4  10  19  30  47  73 103 130 157 192 237 287
#     4  10  20  31  42  67  98 126 165 199 232 282
#     4  10  18  31  49  71  94 124 163 196 232 287
#     4  10  19  33  51  69  91 123 163 204 241 282
#     4  10  17  28  47  68  97 135 163 191 231 280
#
# _framework density 16.773028
#
# number of rings (size 3 to 8) (size 9 to 14) (size 15 to 20)
#    0.000    2.167    5.000    1.500    0.000    1.333 
#    0.000    5.000    0.000    1.500    0.000    9.333 
#    0.000    0.000    0.000    0.000    0.000    0.000 
#
# Total GULP energy -594819.808322 kJ/mol
# GULP energy per Si atom -12392.079340 kJ/mol
# Density = 1.673485 g / cm^3
# Si number density = 16.773028 Si / 1000 Ang^3
#
#
#
# Elastic Constant Matrix: (Units=GPa)
#
#
# Indices 1 2 3 4 5 6 
#
# 1 113.5933 9.5176 30.8263 0.0000 0.0000 0.0000
# 2 9.5176 67.0171 19.4664 0.0000 0.0000 0.0000
# 3 30.8263 19.4664 61.9841 0.0000 0.0000 0.0000
# 4 0.0000 0.0000 0.0000 18.5314 0.0000 0.0000
# 5 0.0000 0.0000 0.0000 0.0000 3.1820 0.0000
# 6 0.0000 0.0000 0.0000 0.0000 0.0000 12.1181
#
#
#
# Elastic Compliance Matrix: (Units=1/GPa)
#
#
# Indices 1 2 3 4 5 6 
#
# 1 0.010177 0.000027 -0.005070 0.000000 0.000000 0.000000
# 2 0.000027 0.016419 -0.005170 0.000000 0.000000 0.000000
# 3 -0.005070 -0.005170 0.020278 0.000000 0.000000 0.000000
# 4 0.000000 0.000000 0.000000 0.053962 0.000000 0.000000
# 5 0.000000 0.000000 0.000000 0.000000 0.314264 0.000000
# 6 0.000000 0.000000 0.000000 0.000000 0.000000 0.082521
#
#
# Mechanical properties :
#
#
# Convention : Reuss Voigt Hill
#
# Bulk Modulus (GPa) = 37.80828 40.24610 39.02719
# Shear Modulus (GPa) = 9.49011 18.95192 14.22102
#
# Velocity S-wave (km/s) = 2.38123 3.36505 2.91495
# Velocity P-wave (km/s) = 5.49094 6.25657 5.88622
#
# Compressibility (1/GPa) = 0.02644923
#
# Stress axis : x y z
#
# Youngs Moduli (GPa) = 98.26214 60.90329 49.31397
#
# Poissons Ratio (x) = -0.00166 0.25001
# Poissons Ratio (y) = -0.00269 0.25496
# Poissons Ratio (z) = 0.49817 0.31488
#
# Static dielectric constant tensor:
#      x y z
#    x 3.453730 0.000000 0.000000 
#    y 0.000000 2.869760 0.000000 
#    z 0.000000 0.000000 3.139240 
# 
# 
# High freq. dielectric constant tensor:
#      x y z
#    x 1.642150 0.000000 0.000000 
#    y 0.000000 1.601580 0.000000 
#    z 0.000000 0.000000 1.639330 
# 
# From -- ./inp_files/60799.got.cif
#   From: 2010.03.12/outbox.cif.g09.slc.cpg/sg74_31_cif.got.tgz:60799.got - 2010.04.16 15:46:19.
