data_PCOD8297752
_publ_section_title
;
Structure prediction by ZEFSAII (Michael W. Deem and Ramdas Pophale) SiO2 
 PCOD8297752
Probable space group: I M M A
;
_chemical_formula_sum "Si O2"
_cell_formula_units_Z 56
_cell_length_a 14.395347
_cell_length_b 18.895533
_cell_length_c 11.757218
_cell_angle_alpha 90.000000
_cell_angle_beta 90.000000
_cell_angle_gamma 90.000000
_cell_volume 3198.054465
_symmetry_space_group_name_H-M "I M M A"
_symmetry_group_IT_number 74
_symmetry_cell_setting 'orthorhombic'
loop_
_space_group_symop_operation_xyz
x,y,z
-x,1/2-y,z
x,-y,-z
-x,1/2+y,-z
-x,-y,-z
x,1/2+y,-z
-x,y,z
x,1/2-y,z
1/2+x,1/2+y,1/2+z
1/2-x,-y,1/2+z
1/2+x,1/2-y,1/2-z
1/2-x,y,1/2-z
1/2-x,1/2-y,1/2-z
1/2+x,y,1/2-z
1/2-x,1/2+y,1/2+z
1/2+x,-y,1/2+z
loop_
_atom_site_type_symbol
_atom_site_label
_atom_site_fract_x
_atom_site_fract_y
_atom_site_fract_z
Si Si1 0.750000 0.551477 0.750000
Si Si2 0.654882 0.328594 0.818062
Si Si3 0.235944 0.920419 0.505924
Si Si4 0.602865 0.943440 0.340049
O O1 0.761797 0.601371 0.639212
O O2 0.660391 0.501502 0.731132
O O3 0.613382 0.250000 0.837370
O O4 0.750000 0.324529 0.750000
O O5 0.586711 0.375560 0.741496
O O6 0.670832 0.365038 0.940800
O O7 0.340578 0.922277 0.454033
O O8 0.193942 0.000000 0.500000
O O9 0.500000 0.971193 0.373522
#
# Coordination Sequence:
#
# PCOD8297752 Si02
#       4
#     8  16  16  16
#     4  10  18  32  48  70 108 130 162 206 248 292
#     4   9  16  30  49  70  98 130 162 205 252 292
#     4   9  16  31  49  69 100 135 160 206 241 295
#     4  10  18  30  51  75  96 127 167 206 252 292
#
# _framework density 17.510646999999999
#
# number of rings (size 3 to 8) (size 9 to 14) (size 15 to 20)
#    0.000    2.571    7.143    0.000    0.000    5.714 
#    0.000    3.571    0.000    0.000    0.000    0.000 
#    0.000    9.143    0.000    0.000    0.000    0.000 
#
# Total GULP energy -346899.781620 kJ/mol
# GULP energy per Si atom -12389.277915 kJ/mol
# Density = 1.747079 g / cm^3
# Si number density = 17.510647 Si / 1000 Ang^3
#
#
#
# Elastic Constant Matrix: (Units=GPa)
#
#
# Indices 1 2 3 4 5 6 
#
# 1 60.0467 -4.6027 11.3699 0.0000 0.0000 0.0000
# 2 -4.6027 71.7265 32.7565 0.0000 0.0000 0.0000
# 3 11.3699 32.7565 157.4073 0.0000 0.0000 0.0000
# 4 0.0000 0.0000 0.0000 27.6371 0.0000 0.0000
# 5 0.0000 0.0000 0.0000 0.0000 9.9355 0.0000
# 6 0.0000 0.0000 0.0000 0.0000 0.0000 1.9826
#
#
#
# Elastic Compliance Matrix: (Units=1/GPa)
#
#
# Indices 1 2 3 4 5 6 
#
# 1 0.017101 0.001836 -0.001617 0.000000 0.000000 0.000000
# 2 0.001836 0.015603 -0.003380 0.000000 0.000000 0.000000
# 3 -0.001617 -0.003380 0.007173 0.000000 0.000000 0.000000
# 4 0.000000 0.000000 0.000000 0.036183 0.000000 0.000000
# 5 0.000000 0.000000 0.000000 0.000000 0.100649 0.000000
# 6 0.000000 0.000000 0.000000 0.000000 0.000000 0.504385
#
#
# Mechanical properties :
#
#
# Convention : Reuss Voigt Hill
#
# Bulk Modulus (GPa) = 29.80193 40.91424 35.35808
# Shear Modulus (GPa) = 7.15716 24.55483 15.85600
#
# Velocity S-wave (km/s) = 2.02391 3.74877 3.01243
# Velocity P-wave (km/s) = 4.74530 6.49259 5.68646
#
# Compressibility (1/GPa) = 0.03355487
#
# Stress axis : x y z
#
# Youngs Moduli (GPa) = 58.47729 64.08986 139.41036
#
# Poissons Ratio (x) = -0.11767 0.22547
# Poissons Ratio (y) = -0.10736 0.47115
# Poissons Ratio (z) = 0.09457 0.21660
#
# Static dielectric constant tensor:
#      x y z
#    x 2.865580 0.000000 0.000000 
#    y 0.000000 3.328500 0.000000 
#    z 0.000000 0.000000 3.559940 
# 
# 
# High freq. dielectric constant tensor:
#      x y z
#    x 1.648860 0.000000 0.000000 
#    y 0.000000 1.644740 0.000000 
#    z 0.000000 0.000000 1.682370 
# 
# From -- ./inp_files/18565.got.cif
#   From: 2010.03.12/outbox.cif.g09.slc.cpg/sg74_10_cif.got.tgz:18565.got - 2010.04.16 15:46:19.
