data_PCOD8297051
_publ_section_title
;
Structure prediction by ZEFSAII (Michael W. Deem and Ramdas Pophale) SiO2 
 PCOD8297051
Probable space group: I B C A 
;
_chemical_formula_sum "Si O2"
_cell_formula_units_Z 112
_cell_length_a 14.402314
_cell_length_b 27.738804
_cell_length_c 12.498841
_cell_angle_alpha 90.000000
_cell_angle_beta 90.000000
_cell_angle_gamma 90.000000
_cell_volume 4993.324041
_symmetry_space_group_name_H-M "I B C A "
_symmetry_group_IT_number 73
_symmetry_cell_setting 'orthorhombic'
loop_
_space_group_symop_operation_xyz
x,y,z
-x,1/2-y,z
x,-y,1/2-z
1/2-x,y,-z
-x,-y,-z
x,1/2+y,-z
-x,y,1/2+z
1/2+x,-y,z
1/2+x,1/2+y,1/2+z
1/2-x,-y,1/2+z
1/2+x,1/2-y,-z
-x,1/2+y,1/2-z
1/2-x,1/2-y,1/2-z
1/2+x,y,1/2-z
1/2-x,1/2+y,z
x,1/2-y,1/2+z
loop_
_atom_site_type_symbol
_atom_site_label
_atom_site_fract_x
_atom_site_fract_y
_atom_site_fract_z
Si Si1 0.750000 0.146887 0.500000
Si Si2 0.057690 0.087648 0.297437
Si Si3 0.374605 0.051281 0.272906
Si Si4 0.310021 0.941059 0.629502
Si Si5 0.385729 0.222731 0.085531
Si Si6 0.558045 0.693418 0.791996
Si Si7 0.000000 0.250000 0.100795
Si Si8 0.899689 0.975668 0.507828
O O1 0.687201 0.110952 0.429094
O O2 0.693806 0.182549 0.578558
O O3 0.100262 0.054878 0.204020
O O4 0.102931 0.140849 0.290380
O O5 0.089583 0.067713 0.410199
O O6 0.946540 0.090430 0.275430
O O7 0.279857 0.053992 0.205295
O O8 0.361672 0.051736 0.401286
O O9 0.422996 0.000000 0.250000
O O10 0.322963 0.984080 0.542939
O O11 0.405761 0.248687 0.970864
O O12 0.366267 0.264827 0.174956
O O13 0.479788 0.194502 0.115850
O O14 0.508490 0.703418 0.677995
O O15 0.000000 0.000000 0.500000
#
# Coordination Sequence:
#
# PCOD8297051 Si02
#       8
#     8  16  16  16  16  16   8  16
#     4  12  24  42  70  98 134 182 236 292 370 428
#     4  12  24  43  66  99 140 184 242 285 364 428
#     4  12  24  42  68  96 136 186 234 295 353 415
#     4  12  27  42  67 104 140 184 245 298 348 431
#     4   9  20  38  62  93 123 164 222 284 348 419
#     4   9  20  38  64  92 126 170 223 286 347 425
#     4   8  16  38  62  84 122 160 206 276 346 394
#     4  12  25  46  69  99 142 193 237 298 349 414
#
# _framework density 22.429946999999999
#
# number of rings (size 3 to 8) (size 9 to 14) (size 15 to 20)
#    0.000    1.429    2.857    3.857    2.000    4.000 
#    0.000    9.286    0.000    0.000    0.000    0.000 
#    0.000    0.000    0.000    0.000    0.000    0.000 
#
# Total GULP energy -693805.723734 kJ/mol
# GULP energy per Si atom -12389.387924 kJ/mol
# Density = 2.237890 g / cm^3
# Si number density = 22.429947 Si / 1000 Ang^3
#
#
#
# Elastic Constant Matrix: (Units=GPa)
#
#
# Indices 1 2 3 4 5 6 
#
# 1 78.9304 16.4417 23.0843 0.0000 0.0000 0.0001
# 2 16.4417 120.4429 39.0827 0.0003 -0.0003 0.0001
# 3 23.0843 39.0827 132.3431 0.0009 -0.0007 0.0000
# 4 0.0000 0.0003 0.0009 31.6191 -0.0003 0.0000
# 5 0.0000 -0.0003 -0.0007 -0.0003 32.4109 0.0000
# 6 0.0001 0.0001 0.0000 0.0000 0.0000 34.5591
#
#
#
# Elastic Compliance Matrix: (Units=1/GPa)
#
#
# Indices 1 2 3 4 5 6 
#
# 1 0.013504 -0.001193 -0.002003 0.000000 0.000000 0.000000
# 2 -0.001193 0.009288 -0.002535 0.000000 0.000000 0.000000
# 3 -0.002003 -0.002535 0.008654 0.000000 0.000000 0.000000
# 4 0.000000 0.000000 0.000000 0.031626 0.000000 0.000000
# 5 0.000000 0.000000 0.000000 0.000000 0.030854 0.000000
# 6 0.000000 0.000000 0.000000 0.000000 0.000000 0.028936
#
#
# Mechanical properties :
#
#
# Convention : Reuss Voigt Hill
#
# Bulk Modulus (GPa) = 50.04108 54.32599 52.18353
# Shear Modulus (GPa) = 35.46458 36.59166 36.02812
#
# Velocity S-wave (km/s) = 3.98065 4.04341 4.01215
# Velocity P-wave (km/s) = 6.59438 6.78762 6.69170
#
# Compressibility (1/GPa) = 0.01998358
#
# Stress axis : x y z
#
# Youngs Moduli (GPa) = 74.05320 107.66459 115.55305
#
# Poissons Ratio (x) = 0.12849 0.23145
# Poissons Ratio (y) = 0.08838 0.29290
# Poissons Ratio (z) = 0.14833 0.27290
#
# Static dielectric constant tensor:
#      x y z
#    x 3.803530 0.000000 0.000000 
#    y 0.000000 4.040740 0.000000 
#    z 0.000000 0.000000 4.982430 
# 
# 
# High freq. dielectric constant tensor:
#      x y z
#    x 1.858580 0.000000 0.000000 
#    y 0.000000 1.875410 0.000000 
#    z 0.000000 0.000000 1.905550 
# 
# From -- ./inp_files/11301.got.cif
#   From: 2010.03.12/outbox.cif.g09.slc.cpg/sg73_6_cif.got.tgz:11301.got - 2010.04.16 15:25:48.
