data_PCOD8297131
_publ_section_title
;
Structure prediction by ZEFSAII (Michael W. Deem and Ramdas Pophale) SiO2 
 PCOD8297131
Probable space group: I M M A
;
_chemical_formula_sum "Si O2"
_cell_formula_units_Z 128
_cell_length_a 19.068432
_cell_length_b 22.608571
_cell_length_c 19.150969
_cell_angle_alpha 90.000000
_cell_angle_beta 90.000000
_cell_angle_gamma 90.000000
_cell_volume 8256.174221
_symmetry_space_group_name_H-M "I M M A"
_symmetry_group_IT_number 74
_symmetry_cell_setting 'orthorhombic'
loop_
_space_group_symop_operation_xyz
x,y,z
-x,1/2-y,z
x,-y,-z
-x,1/2+y,-z
-x,-y,-z
x,1/2+y,-z
-x,y,z
x,1/2-y,z
1/2+x,1/2+y,1/2+z
1/2-x,-y,1/2+z
1/2+x,1/2-y,1/2-z
1/2-x,y,1/2-z
1/2-x,1/2-y,1/2-z
1/2+x,y,1/2-z
1/2-x,1/2+y,1/2+z
1/2+x,-y,1/2+z
loop_
_atom_site_type_symbol
_atom_site_label
_atom_site_fract_x
_atom_site_fract_y
_atom_site_fract_z
Si Si1 0.694762 0.085622 0.050463
Si Si2 0.079317 0.106869 0.344797
Si Si3 0.077740 0.932840 0.024389
Si Si4 0.582043 0.524329 0.205609
Si Si5 0.841681 0.101532 0.105012
Si Si6 0.580362 0.819206 0.712979
Si Si7 0.692499 0.952062 0.098920
Si Si8 0.160252 0.467354 0.847039
O O1 0.626696 0.114287 0.086437
O O2 0.762457 0.117270 0.083416
O O3 0.697970 0.016722 0.066628
O O4 0.693249 0.093929 0.966163
O O5 0.097004 0.159371 0.291338
O O6 0.000000 0.110080 0.372165
O O7 0.092471 0.045783 0.303411
O O8 0.122234 0.927837 0.094659
O O9 0.000000 0.909042 0.039298
O O10 0.111351 0.892915 0.964194
O O11 0.076718 0.000000 0.000000
O O12 0.500000 0.541869 0.208307
O O13 0.619864 0.557215 0.140775
O O14 0.622124 0.546244 0.274444
O O15 0.867313 0.149834 0.159624
O O16 0.847300 0.036894 0.138679
O O17 0.500000 0.835630 0.693815
O O18 0.594178 0.750000 0.709447
O O19 0.758760 0.945587 0.151704
#
# Coordination Sequence:
#
# PCOD8297131 Si02
#       8
#    16  16  16  16  16  16  16  16
#     4   9  17  29  44  59  79 108 146 186 222 262
#     4   9  18  31  44  59  79 112 152 188 225 261
#     4   9  16  23  37  60  81 108 142 177 213 253
#     4  10  18  26  40  61  86 116 150 182 212 256
#     4  10  17  28  44  59  84 112 147 185 222 262
#     4  10  20  33  47  64  88 117 151 192 233 265
#     4   9  17  28  40  59  84 112 144 178 222 263
#     4  10  16  26  41  60  87 115 143 182 214 264
#
# _framework density 15.503548
#
# number of rings (size 3 to 8) (size 9 to 14) (size 15 to 20)
#    0.000    2.500    2.500    1.125    0.000    2.000 
#    0.000    3.750    0.000    0.000    0.000    0.000 
#    0.000    0.000    0.000    3.375    0.000   14.500 
#
# Total GULP energy -793378.559384 kJ/mol
# GULP energy per Si atom -12396.539990 kJ/mol
# Density = 1.546826 g / cm^3
# Si number density = 15.503548 Si / 1000 Ang^3
#
#
#
# Elastic Constant Matrix: (Units=GPa)
#
#
# Indices 1 2 3 4 5 6 
#
# 1 125.6856 26.3771 68.0946 0.0000 0.0000 0.0000
# 2 26.3771 29.9143 26.9189 0.0000 0.0000 0.0000
# 3 68.0946 26.9189 101.1721 0.0000 0.0000 0.0000
# 4 0.0000 0.0000 0.0000 12.1207 0.0000 0.0000
# 5 0.0000 0.0000 0.0000 0.0000 31.1599 0.0000
# 6 0.0000 0.0000 0.0000 0.0000 0.0000 10.9397
#
#
#
# Elastic Compliance Matrix: (Units=1/GPa)
#
#
# Indices 1 2 3 4 5 6 
#
# 1 0.013011 -0.004723 -0.007501 0.000000 0.000000 0.000000
# 2 -0.004723 0.045667 -0.008972 0.000000 0.000000 0.000000
# 3 -0.007501 -0.008972 0.017320 0.000000 0.000000 0.000000
# 4 0.000000 0.000000 0.000000 0.082503 0.000000 0.000000
# 5 0.000000 0.000000 0.000000 0.000000 0.032093 0.000000
# 6 0.000000 0.000000 0.000000 0.000000 0.000000 0.091411
#
#
# Mechanical properties :
#
#
# Convention : Reuss Voigt Hill
#
# Bulk Modulus (GPa) = 29.75587 55.50591 42.63089
# Shear Modulus (GPa) = 14.89880 19.86948 17.38414
#
# Velocity S-wave (km/s) = 3.10335 3.58384 3.35222
# Velocity P-wave (km/s) = 5.66354 7.28045 6.52229
#
# Compressibility (1/GPa) = 0.03360682
#
# Stress axis : x y z
#
# Youngs Moduli (GPa) = 76.85594 21.89770 57.73793
#
# Poissons Ratio (x) = 0.10343 0.43307
# Poissons Ratio (y) = 0.36301 0.51800
# Poissons Ratio (z) = 0.57647 0.19646
#
# Static dielectric constant tensor:
#      x y z
#    x 3.193710 0.000000 0.000000 
#    y 0.000000 2.377860 0.000000 
#    z 0.000000 0.000000 3.041180 
# 
# 
# High freq. dielectric constant tensor:
#      x y z
#    x 1.612230 0.000000 0.000000 
#    y 0.000000 1.513510 0.000000 
#    z 0.000000 0.000000 1.600210 
# 
# From -- ./inp_files/45609.got.cif
#   From: 2010.03.12/outbox.cif.g09.slc.cpg/sg74_23_cif.got.tgz:45609.got - 2010.04.16 15:46:19.
