data_PCOD8297559
_publ_section_title
;
Structure prediction by ZEFSAII (Michael W. Deem and Ramdas Pophale) SiO2 
 PCOD8297559
Probable space group: I M M A
;
_chemical_formula_sum "Si O2"
_cell_formula_units_Z 104
_cell_length_a 26.104422
_cell_length_b 8.914961
_cell_length_c 28.847419
_cell_angle_alpha 90.000000
_cell_angle_beta 90.000000
_cell_angle_gamma 90.000000
_cell_volume 6713.368582
_symmetry_space_group_name_H-M "I M M A"
_symmetry_group_IT_number 74
_symmetry_cell_setting 'orthorhombic'
loop_
_space_group_symop_operation_xyz
x,y,z
-x,1/2-y,z
x,-y,-z
-x,1/2+y,-z
-x,-y,-z
x,1/2+y,-z
-x,y,z
x,1/2-y,z
1/2+x,1/2+y,1/2+z
1/2-x,-y,1/2+z
1/2+x,1/2-y,1/2-z
1/2-x,y,1/2-z
1/2-x,1/2-y,1/2-z
1/2+x,y,1/2-z
1/2-x,1/2+y,1/2+z
1/2+x,-y,1/2+z
loop_
_atom_site_type_symbol
_atom_site_label
_atom_site_fract_x
_atom_site_fract_y
_atom_site_fract_z
Si Si1 0.000000 0.571827 0.051233
Si Si2 0.258309 0.927257 0.139678
Si Si3 0.192749 0.415042 0.731443
Si Si4 0.773425 0.916398 0.544593
Si Si5 0.095411 0.074384 0.886323
Si Si6 0.654604 0.915242 0.542907
Si Si7 0.342186 0.426401 0.316655
O O1 0.047942 0.517476 0.082570
O O2 0.000000 0.750000 0.044862
O O3 0.000000 0.500000 0.000000
O O4 0.247174 0.750000 0.136071
O O5 0.303307 0.961408 0.177369
O O6 0.280706 0.988703 0.091417
O O7 0.206179 0.007689 0.155424
O O8 0.167581 0.250000 0.736751
O O9 0.250000 0.408972 0.750000
O O10 0.160089 0.532199 0.762040
O O11 0.797981 0.750000 0.550170
O O12 0.713986 0.896022 0.533488
O O13 0.798781 0.000000 0.500000
O O14 0.092711 0.250000 0.877897
O O15 0.146611 0.022571 0.913198
O O16 0.103759 0.993101 0.836655
O O17 0.629413 0.750000 0.549416
O O18 0.627424 0.000000 0.500000
O O19 0.341783 0.250000 0.323297
#
# Coordination Sequence:
#
# PCOD8297559 Si02
#       7
#     8  16  16  16  16  16  16
#     4  10  24  40  52  66  80 102 134 172 221 270
#     4  10  18  29  44  60  82 108 133 162 200 241
#     4   8  16  29  43  60  81 106 130 156 195 241
#     4  10  19  28  39  56  80 104 133 165 197 236
#     4  11  21  34  49  61  78 100 126 164 208 257
#     4  10  19  29  41  58  75  95 124 158 198 243
#     4  11  20  29  43  64  82 101 129 161 201 247
#
# _framework density 15.491477
#
# number of rings (size 3 to 8) (size 9 to 14) (size 15 to 20)
#    0.000    2.000    1.538    4.615    0.000    7.077 
#    0.000    0.000    0.000    0.000    0.000    0.000 
#    0.000    0.000    0.000    0.000    0.000    0.000 
#
# Total GULP energy -644273.535483 kJ/mol
# GULP energy per Si atom -12389.875682 kJ/mol
# Density = 1.545622 g / cm^3
# Si number density = 15.491477 Si / 1000 Ang^3
#
#
#
# Elastic Constant Matrix: (Units=GPa)
#
#
# Indices 1 2 3 4 5 6 
#
# 1 26.7290 24.3225 28.4042 0.0000 0.0000 0.0000
# 2 24.3225 108.8012 60.3824 0.0000 0.0000 0.0000
# 3 28.4042 60.3824 126.9419 0.0000 0.0000 0.0000
# 4 0.0000 0.0000 0.0000 27.6019 0.0000 0.0000
# 5 0.0000 0.0000 0.0000 0.0000 22.7956 0.0000
# 6 0.0000 0.0000 0.0000 0.0000 0.0000 9.4837
#
#
#
# Elastic Compliance Matrix: (Units=1/GPa)
#
#
# Indices 1 2 3 4 5 6 
#
# 1 0.052872 -0.007138 -0.008435 0.000000 0.000000 0.000000
# 2 -0.007138 0.013451 -0.004801 0.000000 0.000000 0.000000
# 3 -0.008435 -0.004801 0.012049 0.000000 0.000000 0.000000
# 4 0.000000 0.000000 0.000000 0.036229 0.000000 0.000000
# 5 0.000000 0.000000 0.000000 0.000000 0.043868 0.000000
# 6 0.000000 0.000000 0.000000 0.000000 0.000000 0.105444
#
#
# Mechanical properties :
#
#
# Convention : Reuss Voigt Hill
#
# Bulk Modulus (GPa) = 26.57938 54.29893 40.43916
# Shear Modulus (GPa) = 15.76276 21.93377 18.84826
#
# Velocity S-wave (km/s) = 3.19331 3.76687 3.49189
# Velocity P-wave (km/s) = 5.54896 7.35160 6.51295
#
# Compressibility (1/GPa) = 0.03762315
#
# Stress axis : x y z
#
# Youngs Moduli (GPa) = 18.91364 74.34176 82.99575
#
# Poissons Ratio (x) = 0.53067 0.70007
# Poissons Ratio (y) = 0.13501 0.39848
# Poissons Ratio (z) = 0.15954 0.35693
#
# Static dielectric constant tensor:
#      x y z
#    x 2.490800 0.000000 0.000000 
#    y 0.000000 3.162990 0.000000 
#    z 0.000000 0.000000 3.400370 
# 
# 
# High freq. dielectric constant tensor:
#      x y z
#    x 1.505470 0.000000 0.000000 
#    y 0.000000 1.611800 0.000000 
#    z 0.000000 0.000000 1.604050 
# 
# From -- ./inp_files/70803.got.cif
#   From: 2010.03.12/outbox.cif.g09.slc.cpg/sg74_36_cif.got.tgz:70803.got - 2010.04.16 15:46:19.
