data_PCOD8297186
_publ_section_title
;
Structure prediction by ZEFSAII (Michael W. Deem and Ramdas Pophale) SiO2 
 PCOD8297186
Probable space group: I M M A
;
_chemical_formula_sum "Si O2"
_cell_formula_units_Z 76
_cell_length_a 21.970622
_cell_length_b 11.930151
_cell_length_c 17.444460
_cell_angle_alpha 90.000000
_cell_angle_beta 90.000000
_cell_angle_gamma 90.000000
_cell_volume 4572.416918
_symmetry_space_group_name_H-M "I M M A"
_symmetry_group_IT_number 74
_symmetry_cell_setting 'orthorhombic'
loop_
_space_group_symop_operation_xyz
x,y,z
-x,1/2-y,z
x,-y,-z
-x,1/2+y,-z
-x,-y,-z
x,1/2+y,-z
-x,y,z
x,1/2-y,z
1/2+x,1/2+y,1/2+z
1/2-x,-y,1/2+z
1/2+x,1/2-y,1/2-z
1/2-x,y,1/2-z
1/2-x,1/2-y,1/2-z
1/2+x,y,1/2-z
1/2-x,1/2+y,1/2+z
1/2+x,-y,1/2+z
loop_
_atom_site_type_symbol
_atom_site_label
_atom_site_fract_x
_atom_site_fract_y
_atom_site_fract_z
Si Si1 0.000000 0.520525 0.409701
Si Si2 0.371042 0.492384 0.837594
Si Si3 0.000000 0.750000 0.332457
Si Si4 0.720914 0.750000 0.335915
Si Si5 0.252511 0.015651 0.588294
Si Si6 0.814263 0.876152 0.792044
Si Si7 0.623447 0.250000 0.773773
O O1 0.000000 0.500000 0.500000
O O2 0.062996 0.473456 0.372863
O O3 0.000000 0.651152 0.393270
O O4 0.316327 0.527858 0.894713
O O5 0.365288 0.560997 0.758360
O O6 0.358764 0.360707 0.822217
O O7 0.948457 0.750000 0.268491
O O8 0.750000 0.750000 0.250000
O O9 0.739369 0.643344 0.385142
O O10 0.649380 0.750000 0.313136
O O11 0.265722 0.000000 0.500000
O O12 0.304308 0.940541 0.628473
O O13 0.836575 0.750000 0.807695
O O14 0.750000 0.879381 0.750000
#
# Coordination Sequence:
#
# PCOD8297186 Si02
#       7
#     8  16   4   8  16  16   8
#     4  10  20  34  50  74 106 134 173 215 255 300
#     4  10  18  34  51  72 100 142 176 207 250 312
#     4   8  20  32  52  76  98 130 174 218 250 296
#     4  12  18  34  56  76 100 140 181 218 254 320
#     4  11  21  30  50  79 109 132 168 218 270 306
#     4   9  18  33  49  68  98 135 169 204 252 315
#     4  10  16  32  56  74  94 131 183 218 240 298
#
# _framework density 16.621407000000001
#
# number of rings (size 3 to 8) (size 9 to 14) (size 15 to 20)
#    0.000    1.895    4.211    1.263    1.474    0.000 
#    1.895    0.000    0.000    0.000    0.000    2.947 
#    0.000    0.000    0.000    0.000    0.000    0.000 
#
# Total GULP energy -470825.357179 kJ/mol
# GULP energy per Si atom -12390.140978 kJ/mol
# Density = 1.658358 g / cm^3
# Si number density = 16.621407 Si / 1000 Ang^3
#
#
#
# Elastic Constant Matrix: (Units=GPa)
#
#
# Indices 1 2 3 4 5 6 
#
# 1 106.2408 33.2941 64.4116 0.0000 0.0000 0.0000
# 2 33.2941 104.6088 53.0373 0.0000 0.0000 0.0000
# 3 64.4116 53.0373 138.8402 0.0000 0.0000 0.0000
# 4 0.0000 0.0000 0.0000 21.5150 0.0000 0.0000
# 5 0.0000 0.0000 0.0000 0.0000 25.3494 0.0000
# 6 0.0000 0.0000 0.0000 0.0000 0.0000 16.5201
#
#
#
# Elastic Compliance Matrix: (Units=1/GPa)
#
#
# Indices 1 2 3 4 5 6 
#
# 1 0.013251 -0.001365 -0.005626 0.000000 0.000000 0.000000
# 2 -0.001365 0.011996 -0.003949 0.000000 0.000000 0.000000
# 3 -0.005626 -0.003949 0.011321 0.000000 0.000000 0.000000
# 4 0.000000 0.000000 0.000000 0.046479 0.000000 0.000000
# 5 0.000000 0.000000 0.000000 0.000000 0.039449 0.000000
# 6 0.000000 0.000000 0.000000 0.000000 0.000000 0.060533
#
#
# Mechanical properties :
#
#
# Convention : Reuss Voigt Hill
#
# Bulk Modulus (GPa) = 68.08367 72.35286 70.21826
# Shear Modulus (GPa) = 23.83150 25.94002 24.88576
#
# Velocity S-wave (km/s) = 3.79064 3.95478 3.87358
# Velocity P-wave (km/s) = 7.75944 8.02983 7.89579
#
# Compressibility (1/GPa) = 0.01468781
#
# Stress axis : x y z
#
# Youngs Moduli (GPa) = 75.46353 83.35976 88.32881
#
# Poissons Ratio (x) = 0.11379 0.49696
# Poissons Ratio (y) = 0.10301 0.34884
# Poissons Ratio (z) = 0.42458 0.32921
#
# Static dielectric constant tensor:
#      x y z
#    x 3.406070 0.000000 0.000000 
#    y 0.000000 3.250080 0.000000 
#    z 0.000000 0.000000 3.044000 
# 
# 
# High freq. dielectric constant tensor:
#      x y z
#    x 1.628570 0.000000 0.000000 
#    y 0.000000 1.644900 0.000000 
#    z 0.000000 0.000000 1.619520 
# 
# From -- ./inp_files/30759.got.cif
#   From: 2010.03.12/outbox.cif.g09.slc.cpg/sg74_16_cif.got.tgz:30759.got - 2010.04.16 15:46:19.
