data_PCOD8297974
_publ_section_title
;
Structure prediction by ZEFSAII (Michael W. Deem and Ramdas Pophale) SiO2 
 PCOD8297974
Probable space group: I M M A
;
_chemical_formula_sum "Si O2"
_cell_formula_units_Z 64
_cell_length_a 10.608410
_cell_length_b 20.833844
_cell_length_c 15.766503
_cell_angle_alpha 90.000000
_cell_angle_beta 90.000000
_cell_angle_gamma 90.000000
_cell_volume 3484.617248
_symmetry_space_group_name_H-M "I M M A"
_symmetry_group_IT_number 74
_symmetry_cell_setting 'orthorhombic'
loop_
_space_group_symop_operation_xyz
x,y,z
-x,1/2-y,z
x,-y,-z
-x,1/2+y,-z
-x,-y,-z
x,1/2+y,-z
-x,y,z
x,1/2-y,z
1/2+x,1/2+y,1/2+z
1/2-x,-y,1/2+z
1/2+x,1/2-y,1/2-z
1/2-x,y,1/2-z
1/2-x,1/2-y,1/2-z
1/2+x,y,1/2-z
1/2-x,1/2+y,1/2+z
1/2+x,-y,1/2+z
loop_
_atom_site_type_symbol
_atom_site_label
_atom_site_fract_x
_atom_site_fract_y
_atom_site_fract_z
Si Si1 0.000000 0.944279 0.738570
Si Si2 0.250000 0.135478 0.250000
Si Si3 0.500000 0.040900 0.913812
Si Si4 0.146131 0.821491 0.919585
Si Si5 0.000000 0.525777 0.096903
Si Si6 0.258180 0.429391 0.540978
O O1 0.871124 0.906123 0.722082
O O2 0.000000 0.968533 0.835767
O O3 0.000000 0.001007 0.671764
O O4 0.208292 0.180433 0.172928
O O5 0.625716 0.085049 0.912434
O O6 0.500000 0.000000 0.000000
O O7 0.159322 0.750000 0.958937
O O8 0.000000 0.841767 0.912711
O O9 0.220969 0.873577 0.973453
O O10 0.125541 0.569427 0.108113
O O11 0.000000 0.500000 0.000000
O O12 0.249773 0.500000 0.500000
#
# Coordination Sequence:
#
# PCOD8297974 Si02
#       6
#     8   8   8  16   8  16
#     4  12  22  34  59  90 125 158 192 242 300 346
#     4  12  21  36  54  84 120 162 191 228 283 362
#     4  10  20  34  50  84 119 148 187 243 296 339
#     4  11  23  39  57  83 116 159 200 238 291 356
#     4  10  18  32  54  84 111 152 193 235 280 341
#     4  10  19  35  58  79 109 146 193 241 283 332
#
# _framework density 18.366436
#
# number of rings (size 3 to 8) (size 9 to 14) (size 15 to 20)
#    0.000    1.250    2.500    7.875    0.000    0.000 
#    0.000    1.875    0.000    0.000    0.000    5.250 
#    0.000    0.000    0.000    0.000    0.000    0.000 
#
# Total GULP energy -396570.287985 kJ/mol
# GULP energy per Si atom -12392.821500 kJ/mol
# Density = 1.832463 g / cm^3
# Si number density = 18.366436 Si / 1000 Ang^3
#
#
#
# Elastic Constant Matrix: (Units=GPa)
#
#
# Indices 1 2 3 4 5 6 
#
# 1 190.8903 41.8275 23.5117 0.0000 0.0000 0.0000
# 2 41.8275 96.2431 35.0503 0.0000 0.0000 0.0000
# 3 23.5117 35.0503 56.6112 0.0001 0.0000 0.0000
# 4 0.0000 0.0000 0.0001 23.3361 0.0000 0.0000
# 5 0.0000 0.0000 0.0000 0.0000 27.0237 0.0000
# 6 0.0000 0.0000 0.0000 0.0000 0.0000 5.3053
#
#
#
# Elastic Compliance Matrix: (Units=1/GPa)
#
#
# Indices 1 2 3 4 5 6 
#
# 1 0.005843 -0.002138 -0.001103 0.000000 0.000000 0.000000
# 2 -0.002138 0.014197 -0.007902 0.000000 0.000000 0.000000
# 3 -0.001103 -0.007902 0.023015 0.000000 0.000000 0.000000
# 4 0.000000 0.000000 0.000000 0.042852 0.000000 0.000000
# 5 0.000000 0.000000 0.000000 0.000000 0.037005 0.000000
# 6 0.000000 0.000000 0.000000 0.000000 0.000000 0.188492
#
#
# Mechanical properties :
#
#
# Convention : Reuss Voigt Hill
#
# Bulk Modulus (GPa) = 48.14840 60.50262 54.32551
# Shear Modulus (GPa) = 14.67939 27.35668 21.01803
#
# Velocity S-wave (km/s) = 2.83017 3.86358 3.38653
# Velocity P-wave (km/s) = 6.07883 7.27437 6.70331
#
# Compressibility (1/GPa) = 0.02076912
#
# Stress axis : x y z
#
# Youngs Moduli (GPa) = 171.14887 70.43611 43.44955
#
# Poissons Ratio (x) = 0.15056 0.04793
# Poissons Ratio (y) = 0.36584 0.34335
# Poissons Ratio (z) = 0.18881 0.55661
#
# Static dielectric constant tensor:
#      x y z
#    x 5.173790 0.000000 0.000000 
#    y 0.000000 3.045790 0.000000 
#    z 0.000000 0.000000 3.227090 
# 
# 
# High freq. dielectric constant tensor:
#      x y z
#    x 1.750900 0.000000 0.000000 
#    y 0.000000 1.675530 0.000000 
#    z 0.000000 0.000000 1.682000 
# 
# From -- ./inp_files/30302.got.cif
#   From: 2010.03.12/outbox.cif.g09.slc.cpg/sg74_16_cif.got.tgz:30302.got - 2010.04.16 15:46:19.
