data_PCOD8297576
_publ_section_title
;
Structure prediction by ZEFSAII (Michael W. Deem and Ramdas Pophale) SiO2 
 PCOD8297576
Probable space group: I M M A
;
_chemical_formula_sum "Si O2"
_cell_formula_units_Z 96
_cell_length_a 28.354702
_cell_length_b 8.986574
_cell_length_c 23.546096
_cell_angle_alpha 90.000000
_cell_angle_beta 90.000000
_cell_angle_gamma 90.000000
_cell_volume 5999.819049
_symmetry_space_group_name_H-M "I M M A"
_symmetry_group_IT_number 74
_symmetry_cell_setting 'orthorhombic'
loop_
_space_group_symop_operation_xyz
x,y,z
-x,1/2-y,z
x,-y,-z
-x,1/2+y,-z
-x,-y,-z
x,1/2+y,-z
-x,y,z
x,1/2-y,z
1/2+x,1/2+y,1/2+z
1/2-x,-y,1/2+z
1/2+x,1/2-y,1/2-z
1/2-x,y,1/2-z
1/2-x,1/2-y,1/2-z
1/2+x,y,1/2-z
1/2-x,1/2+y,1/2+z
1/2+x,-y,1/2+z
loop_
_atom_site_type_symbol
_atom_site_label
_atom_site_fract_x
_atom_site_fract_y
_atom_site_fract_z
Si Si1 0.054533 0.075395 0.669871
Si Si2 0.943924 0.917441 0.555339
Si Si3 0.288414 0.083281 0.145704
Si Si4 0.230462 0.425293 0.939566
Si Si5 0.633925 0.572648 0.766860
Si Si6 0.685352 0.416861 0.344072
O O1 0.063147 0.250000 0.666580
O O2 0.000000 0.036721 0.680724
O O3 0.072984 0.004032 0.611219
O O4 0.083733 0.003919 0.721531
O O5 0.923829 0.750000 0.557459
O O6 0.000000 0.915844 0.552129
O O7 0.923157 0.000000 0.500000
O O8 0.302227 0.250000 0.125661
O O9 0.329012 0.015767 0.185677
O O10 0.238963 0.088382 0.180747
O O11 0.279667 0.980924 0.089672
O O12 0.230808 0.250000 0.946478
O O13 0.185961 0.477350 0.899991
O O14 0.224255 0.500000 0.000000
O O15 0.629589 0.750000 0.768632
O O16 0.651031 0.519395 0.704711
O O17 0.669486 0.250000 0.361806
#
# Coordination Sequence:
#
# PCOD8297576 Si02
#       6
#    16  16  16  16  16  16
#     4  10  21  34  46  64  93 124 154 195 241 278
#     4   9  16  28  47  66  82 105 142 186 232 280
#     4   8  16  30  47  68  93 120 148 183 225 271
#     4  10  18  29  45  66  94 127 157 187 223 266
#     4  10  18  31  51  70  91 121 157 193 230 275
#     4   8  16  30  48  70  95 122 151 185 227 275
#
# _framework density 16.000482000000002
#
# number of rings (size 3 to 8) (size 9 to 14) (size 15 to 20)
#    1.000    1.833    0.000    2.500    0.000    6.333 
#    0.000    1.667    0.000    4.000    0.000    0.000 
#    0.000    0.667    0.000    2.167    0.000    3.167 
#
# Total GULP energy -594742.887007 kJ/mol
# GULP energy per Si atom -12390.476813 kJ/mol
# Density = 1.596406 g / cm^3
# Si number density = 16.000482 Si / 1000 Ang^3
#
#
#
# Elastic Constant Matrix: (Units=GPa)
#
#
# Indices 1 2 3 4 5 6 
#
# 1 41.9798 28.3144 38.4318 0.0000 0.0000 0.0000
# 2 28.3144 97.9856 61.2295 0.0000 0.0000 0.0000
# 3 38.4318 61.2295 116.9583 0.0000 0.0000 0.0000
# 4 0.0000 0.0000 0.0000 28.3032 0.0000 0.0000
# 5 0.0000 0.0000 0.0000 0.0000 15.3338 0.0000
# 6 0.0000 0.0000 0.0000 0.0000 0.0000 18.8383
#
#
#
# Elastic Compliance Matrix: (Units=1/GPa)
#
#
# Indices 1 2 3 4 5 6 
#
# 1 0.035295 -0.004387 -0.009301 0.000000 0.000000 0.000000
# 2 -0.004387 0.015713 -0.006784 0.000000 0.000000 0.000000
# 3 -0.009301 -0.006784 0.015158 0.000000 0.000000 0.000000
# 4 0.000000 0.000000 0.000000 0.035332 0.000000 0.000000
# 5 0.000000 0.000000 0.000000 0.000000 0.065215 0.000000
# 6 0.000000 0.000000 0.000000 0.000000 0.000000 0.053083
#
#
# Mechanical properties :
#
#
# Convention : Reuss Voigt Hill
#
# Bulk Modulus (GPa) = 39.64962 56.98611 48.31787
# Shear Modulus (GPa) = 18.57719 21.09159 19.83439
#
# Velocity S-wave (km/s) = 3.41110 3.63462 3.52463
# Velocity P-wave (km/s) = 6.35202 7.30113 6.84305
#
# Compressibility (1/GPa) = 0.02522092
#
# Stress axis : x y z
#
# Youngs Moduli (GPa) = 28.33285 63.64299 65.97172
#
# Poissons Ratio (x) = 0.27920 0.61360
# Poissons Ratio (y) = 0.12429 0.44757
# Poissons Ratio (z) = 0.26352 0.43177
#
# Static dielectric constant tensor:
#      x y z
#    x 2.715950 0.000000 0.000000 
#    y 0.000000 2.998800 0.000000 
#    z 0.000000 0.000000 2.936710 
# 
# 
# High freq. dielectric constant tensor:
#      x y z
#    x 1.572000 0.000000 0.000000 
#    y 0.000000 1.618060 0.000000 
#    z 0.000000 0.000000 1.601670 
# 
# From -- ./inp_files/62253.got.cif
#   From: 2010.03.12/outbox.cif.g09.slc.cpg/sg74_32_cif.got.tgz:62253.got - 2010.04.16 15:46:19.
