data_PCOD8297829
_publ_section_title
;
Structure prediction by ZEFSAII (Michael W. Deem and Ramdas Pophale) SiO2 
 PCOD8297829
Probable space group: I M M A
;
_chemical_formula_sum "Si O2"
_cell_formula_units_Z 96
_cell_length_a 17.797611
_cell_length_b 25.691951
_cell_length_c 12.112368
_cell_angle_alpha 90.000000
_cell_angle_beta 90.000000
_cell_angle_gamma 90.000000
_cell_volume 5538.445066
_symmetry_space_group_name_H-M "I M M A"
_symmetry_group_IT_number 74
_symmetry_cell_setting 'orthorhombic'
loop_
_space_group_symop_operation_xyz
x,y,z
-x,1/2-y,z
x,-y,-z
-x,1/2+y,-z
-x,-y,-z
x,1/2+y,-z
-x,y,z
x,1/2-y,z
1/2+x,1/2+y,1/2+z
1/2-x,-y,1/2+z
1/2+x,1/2-y,1/2-z
1/2-x,y,1/2-z
1/2-x,1/2-y,1/2-z
1/2+x,y,1/2-z
1/2-x,1/2+y,1/2+z
1/2+x,-y,1/2+z
loop_
_atom_site_type_symbol
_atom_site_label
_atom_site_fract_x
_atom_site_fract_y
_atom_site_fract_z
Si Si1 0.083251 0.130018 0.635057
Si Si2 0.168111 0.452098 0.222868
Si Si3 0.911690 0.943954 0.162608
Si Si4 0.728275 0.689927 0.126131
Si Si5 0.201569 0.399410 0.006982
Si Si6 0.359914 0.557208 0.966371
O O1 0.109212 0.090823 0.731654
O O2 0.139568 0.178149 0.619539
O O3 0.082901 0.097090 0.522577
O O4 0.000000 0.152434 0.657420
O O5 0.250000 0.476536 0.250000
O O6 0.114972 0.496924 0.175997
O O7 0.177618 0.403932 0.136308
O O8 0.132756 0.430924 0.336305
O O9 0.000000 0.943622 0.138345
O O10 0.869665 0.920022 0.058666
O O11 0.743681 0.750000 0.101126
O O12 0.750000 0.673932 0.250000
O O13 0.776975 0.658641 0.034486
O O14 0.275117 0.434989 0.987232
O O15 0.386521 0.500000 0.000000
#
# Coordination Sequence:
#
# PCOD8297829 Si02
#       6
#    16  16  16  16  16  16
#     4  10  21  33  51  78 110 137 166 217 267 312
#     4  10  20  32  50  74 107 146 180 209 252 303
#     4  11  21  32  48  76 111 144 171 205 260 320
#     4  10  20  36  59  79  98 133 180 226 275 321
#     4  10  20  33  51  74 105 134 177 222 259 313
#     4  10  18  31  51  73 103 146 179 209 246 305
#
# _framework density 17.333385
#
# number of rings (size 3 to 8) (size 9 to 14) (size 15 to 20)
#    0.000    1.833    3.333    2.500    2.333    2.667 
#    0.000    0.000    0.000   13.000    0.000    0.000 
#    0.000    0.000    0.000    0.000    0.000    0.000 
#
# Total GULP energy -595041.124202 kJ/mol
# GULP energy per Si atom -12396.690088 kJ/mol
# Density = 1.729393 g / cm^3
# Si number density = 17.333385 Si / 1000 Ang^3
#
#
#
# Elastic Constant Matrix: (Units=GPa)
#
#
# Indices 1 2 3 4 5 6 
#
# 1 78.2983 31.0600 33.6566 0.0000 0.0000 0.0000
# 2 31.0600 76.6158 41.6294 0.0000 0.0000 0.0000
# 3 33.6566 41.6294 116.4745 0.0002 0.0000 0.0000
# 4 0.0000 0.0000 0.0002 17.3643 0.0000 0.0000
# 5 0.0000 0.0000 0.0000 0.0000 19.3215 0.0000
# 6 0.0000 0.0000 0.0000 0.0000 0.0000 16.8374
#
#
#
# Elastic Compliance Matrix: (Units=1/GPa)
#
#
# Indices 1 2 3 4 5 6 
#
# 1 0.015947 -0.004916 -0.002851 0.000000 0.000000 0.000000
# 2 -0.004916 0.017713 -0.004910 0.000000 0.000000 0.000000
# 3 -0.002851 -0.004910 0.011164 0.000000 0.000000 0.000000
# 4 0.000000 0.000000 0.000000 0.057590 0.000000 0.000000
# 5 0.000000 0.000000 0.000000 0.000000 0.051756 0.000000
# 6 0.000000 0.000000 0.000000 0.000000 0.000000 0.059392
#
#
# Mechanical properties :
#
#
# Convention : Reuss Voigt Hill
#
# Bulk Modulus (GPa) = 51.36087 53.78674 52.57380
# Shear Modulus (GPa) = 20.37434 21.70747 21.04091
#
# Velocity S-wave (km/s) = 3.43219 3.54270 3.48788
# Velocity P-wave (km/s) = 6.73810 6.91609 6.82768
#
# Compressibility (1/GPa) = 0.01947008
#
# Stress axis : x y z
#
# Youngs Moduli (GPa) = 62.70649 56.45541 89.56974
#
# Poissons Ratio (x) = 0.27753 0.25538
# Poissons Ratio (y) = 0.30826 0.43982
# Poissons Ratio (z) = 0.17879 0.27722
#
# Static dielectric constant tensor:
#      x y z
#    x 3.178670 0.000000 0.000000 
#    y 0.000000 2.920190 0.000000 
#    z 0.000000 0.000000 3.444520 
# 
# 
# High freq. dielectric constant tensor:
#      x y z
#    x 1.670190 0.000000 0.000000 
#    y 0.000000 1.631520 0.000000 
#    z 0.000000 0.000000 1.675900 
# 
# From -- ./inp_files/22437.got.cif
#   From: 2010.03.12/outbox.cif.g09.slc.cpg/sg74_12_cif.got.tgz:22437.got - 2010.04.16 15:46:19.
