data_PCOD8297144
_publ_section_title
;
Structure prediction by ZEFSAII (Michael W. Deem and Ramdas Pophale) SiO2 
 PCOD8297144
Probable space group: I M M A
;
_chemical_formula_sum "Si O2"
_cell_formula_units_Z 64
_cell_length_a 10.336875
_cell_length_b 18.261437
_cell_length_c 19.189258
_cell_angle_alpha 90.000000
_cell_angle_beta 90.000000
_cell_angle_gamma 90.000000
_cell_volume 3622.283152
_symmetry_space_group_name_H-M "I M M A"
_symmetry_group_IT_number 74
_symmetry_cell_setting 'orthorhombic'
loop_
_space_group_symop_operation_xyz
x,y,z
-x,1/2-y,z
x,-y,-z
-x,1/2+y,-z
-x,-y,-z
x,1/2+y,-z
-x,y,z
x,1/2-y,z
1/2+x,1/2+y,1/2+z
1/2-x,-y,1/2+z
1/2+x,1/2-y,1/2-z
1/2-x,y,1/2-z
1/2-x,1/2-y,1/2-z
1/2+x,y,1/2-z
1/2-x,1/2+y,1/2+z
1/2+x,-y,1/2+z
loop_
_atom_site_type_symbol
_atom_site_label
_atom_site_fract_x
_atom_site_fract_y
_atom_site_fract_z
Si Si1 0.500000 0.086492 0.986749
Si Si2 0.773129 0.917332 0.970614
Si Si3 0.500000 0.420285 0.685377
Si Si4 0.261895 0.971886 0.673786
Si Si5 0.500000 0.057933 0.837586
Si Si6 0.500000 0.664054 0.451995
O O1 0.500000 0.109475 0.905061
O O2 0.631352 0.118785 0.019372
O O3 0.500000 0.000000 0.000000
O O4 0.801002 0.915526 0.887395
O O5 0.874471 0.867989 0.010895
O O6 0.782128 0.000000 0.000000
O O7 0.629075 0.466421 0.674815
O O8 0.500000 0.393839 0.766482
O O9 0.500000 0.353980 0.630620
O O10 0.250000 0.933209 0.750000
O O11 0.124813 0.006707 0.655166
O O12 0.500000 0.750000 0.461032
#
# Coordination Sequence:
#
# PCOD8297144 Si02
#       6
#     8  16   8  16   8   8
#     4  10  16  28  53  81 100 129 164 227 278 313
#     4  11  18  33  56  79 106 134 175 230 274 309
#     4  10  19  30  46  71 107 140 166 213 258 311
#     4  10  18  28  50  81 106 128 163 218 281 320
#     4  10  16  27  46  78 107 124 162 214 275 311
#     4  12  24  36  51  75 110 154 190 212 250 313
#
# _framework density 17.668415
#
# number of rings (size 3 to 8) (size 9 to 14) (size 15 to 20)
#    0.000    1.500    7.500    1.125    0.000    0.000 
#    0.000    0.625    0.000   19.500    0.000    0.000 
#    0.000    0.000    0.000    0.000    0.000    0.000 
#
# Total GULP energy -396526.738809 kJ/mol
# GULP energy per Si atom -12391.460588 kJ/mol
# Density = 1.762820 g / cm^3
# Si number density = 17.668415 Si / 1000 Ang^3
#
#
#
# Elastic Constant Matrix: (Units=GPa)
#
#
# Indices 1 2 3 4 5 6 
#
# 1 119.9443 30.1776 17.5471 0.0000 0.0000 0.0000
# 2 30.1776 54.0847 36.5475 0.0000 0.0000 0.0000
# 3 17.5471 36.5475 165.6660 0.0000 0.0000 0.0000
# 4 0.0000 0.0000 0.0000 12.0687 0.0000 0.0000
# 5 0.0000 0.0000 0.0000 0.0000 26.2536 0.0000
# 6 0.0000 0.0000 0.0000 0.0000 0.0000 2.5670
#
#
#
# Elastic Compliance Matrix: (Units=1/GPa)
#
#
# Indices 1 2 3 4 5 6 
#
# 1 0.009704 -0.005547 0.000196 0.000000 0.000000 0.000000
# 2 -0.005547 0.024899 -0.004906 0.000000 0.000000 0.000000
# 3 0.000196 -0.004906 0.007098 0.000000 0.000000 0.000000
# 4 0.000000 0.000000 0.000000 0.082859 0.000000 0.000000
# 5 0.000000 0.000000 0.000000 0.000000 0.038090 0.000000
# 6 0.000000 0.000000 0.000000 0.000000 0.000000 0.389565
#
#
# Mechanical properties :
#
#
# Convention : Reuss Voigt Hill
#
# Bulk Modulus (GPa) = 47.19647 56.47104 51.83376
# Shear Modulus (GPa) = 8.62380 25.20605 16.91493
#
# Velocity S-wave (km/s) = 2.21168 3.78116 3.09747
# Velocity P-wave (km/s) = 5.76995 7.14799 6.49562
#
# Compressibility (1/GPa) = 0.02118802
#
# Stress axis : x y z
#
# Youngs Moduli (GPa) = 103.04873 40.16161 140.89074
#
# Poissons Ratio (x) = 0.22277 -0.02759
# Poissons Ratio (y) = 0.57161 0.69114
# Poissons Ratio (z) = -0.02018 0.19701
#
# Static dielectric constant tensor:
#      x y z
#    x 3.782120 0.000000 0.000000 
#    y 0.000000 2.501210 0.000000 
#    z 0.000000 0.000000 3.983520 
# 
# 
# High freq. dielectric constant tensor:
#      x y z
#    x 1.718030 0.000000 0.000000 
#    y 0.000000 1.579910 0.000000 
#    z 0.000000 0.000000 1.716070 
# 
# From -- ./inp_files/39154.got.cif
#   From: 2010.03.12/outbox.cif.g09.slc.cpg/sg74_20_cif.got.tgz:39154.got - 2010.04.16 15:46:19.
