data_PCOD8297112
_publ_section_title
;
Structure prediction by ZEFSAII (Michael W. Deem and Ramdas Pophale) SiO2 
 PCOD8297112
Probable space group: I M M A
;
_chemical_formula_sum "Si O2"
_cell_formula_units_Z 88
_cell_length_a 17.324044
_cell_length_b 21.068167
_cell_length_c 15.658797
_cell_angle_alpha 90.000000
_cell_angle_beta 90.000000
_cell_angle_gamma 90.000000
_cell_volume 5715.239366
_symmetry_space_group_name_H-M "I M M A"
_symmetry_group_IT_number 74
_symmetry_cell_setting 'orthorhombic'
loop_
_space_group_symop_operation_xyz
x,y,z
-x,1/2-y,z
x,-y,-z
-x,1/2+y,-z
-x,-y,-z
x,1/2+y,-z
-x,y,z
x,1/2-y,z
1/2+x,1/2+y,1/2+z
1/2-x,-y,1/2+z
1/2+x,1/2-y,1/2-z
1/2-x,y,1/2-z
1/2-x,1/2-y,1/2-z
1/2+x,y,1/2-z
1/2-x,1/2+y,1/2+z
1/2+x,-y,1/2+z
loop_
_atom_site_type_symbol
_atom_site_label
_atom_site_fract_x
_atom_site_fract_y
_atom_site_fract_z
Si Si1 0.172166 0.000000 0.000000
Si Si2 0.822272 0.000620 0.305431
Si Si3 0.699164 0.822136 0.666761
Si Si4 0.284163 0.900660 0.951321
Si Si5 0.909590 0.061116 0.157410
Si Si6 0.586114 0.563706 0.055544
O O1 0.227199 0.938228 0.017251
O O2 0.119507 0.984791 0.918381
O O3 0.750000 0.973932 0.250000
O O4 0.866546 0.945409 0.357050
O O5 0.788250 0.054039 0.367972
O O6 0.889259 0.029268 0.246875
O O7 0.669337 0.750000 0.667685
O O8 0.750000 0.837577 0.750000
O O9 0.751746 0.833660 0.582137
O O10 0.626579 0.868541 0.657306
O O11 0.365980 0.886736 0.996963
O O12 0.000000 0.069904 0.148256
O O13 0.500000 0.589640 0.073823
O O14 0.582724 0.500000 0.000000
#
# Coordination Sequence:
#
# PCOD8297112 Si02
#       6
#     8  16  16  16  16  16
#     4  10  17  30  43  62  86 118 152 178 219 274
#     4  11  15  27  43  64  86 120 148 175 218 268
#     4  10  19  32  46  61  84 121 165 190 207 247
#     4  10  15  29  46  61  84 119 152 181 219 261
#     4  11  20  29  44  65  93 120 147 184 227 265
#     4   9  17  25  39  64  89 110 142 187 230 269
#
# _framework density 15.397430999999999
#
# number of rings (size 3 to 8) (size 9 to 14) (size 15 to 20)
#    0.000    1.818    8.182    0.818    0.000    1.091 
#    0.000    0.000    0.000    0.545    0.000    0.000 
#    0.000   18.182    0.000    8.000    0.364    0.000 
#
# Total GULP energy -545212.169877 kJ/mol
# GULP energy per Si atom -12391.185679 kJ/mol
# Density = 1.536239 g / cm^3
# Si number density = 15.397431 Si / 1000 Ang^3
#
#
#
# Elastic Constant Matrix: (Units=GPa)
#
#
# Indices 1 2 3 4 5 6 
#
# 1 131.3900 28.6918 52.4746 0.0000 0.0000 0.0000
# 2 28.6918 46.6500 32.7809 0.0000 0.0000 0.0000
# 3 52.4746 32.7809 74.7698 0.0000 0.0000 0.0000
# 4 0.0000 0.0000 0.0000 13.2053 0.0000 0.0000
# 5 0.0000 0.0000 0.0000 0.0000 26.0828 0.0000
# 6 0.0000 0.0000 0.0000 0.0000 0.0000 13.2252
#
#
#
# Elastic Compliance Matrix: (Units=1/GPa)
#
#
# Indices 1 2 3 4 5 6 
#
# 1 0.010688 -0.001883 -0.006676 0.000000 0.000000 0.000000
# 2 -0.001883 0.031312 -0.012407 0.000000 0.000000 0.000000
# 3 -0.006676 -0.012407 0.023499 0.000000 0.000000 0.000000
# 4 0.000000 0.000000 0.000000 0.075727 0.000000 0.000000
# 5 0.000000 0.000000 0.000000 0.000000 0.038339 0.000000
# 6 0.000000 0.000000 0.000000 0.000000 0.000000 0.075613
#
#
# Mechanical properties :
#
#
# Convention : Reuss Voigt Hill
#
# Bulk Modulus (GPa) = 42.42842 53.41161 47.92001
# Shear Modulus (GPa) = 16.39522 19.76014 18.07768
#
# Velocity S-wave (km/s) = 3.26667 3.58626 3.43019
# Velocity P-wave (km/s) = 6.46866 7.20502 6.84674
#
# Compressibility (1/GPa) = 0.02356911
#
# Stress axis : x y z
#
# Youngs Moduli (GPa) = 93.56103 31.93615 42.55496
#
# Poissons Ratio (x) = 0.06013 0.28409
# Poissons Ratio (y) = 0.17614 0.52797
# Poissons Ratio (z) = 0.62459 0.39623
#
# Static dielectric constant tensor:
#      x y z
#    x 3.135920 0.000000 0.000000 
#    y 0.000000 2.529930 0.000000 
#    z 0.000000 0.000000 3.095310 
# 
# 
# High freq. dielectric constant tensor:
#      x y z
#    x 1.602110 0.000000 0.000000 
#    y 0.000000 1.528740 0.000000 
#    z 0.000000 0.000000 1.595150 
# 
# From -- ./inp_files/34246.got.cif
#   From: 2010.03.12/outbox.cif.g09.slc.cpg/sg74_18_cif.got.tgz:34246.got - 2010.04.16 15:46:19.
