data_PCOD8297069
_publ_section_title
;
Structure prediction by ZEFSAII (Michael W. Deem and Ramdas Pophale) SiO2 
 PCOD8297069
Probable space group: I B C A 
;
_chemical_formula_sum "Si O2"
_cell_formula_units_Z 56
_cell_length_a 18.118453
_cell_length_b 15.681124
_cell_length_c 7.550926
_cell_angle_alpha 90.000000
_cell_angle_beta 90.000000
_cell_angle_gamma 90.000000
_cell_volume 2145.351790
_symmetry_space_group_name_H-M "I B C A "
_symmetry_group_IT_number 73
_symmetry_cell_setting 'orthorhombic'
loop_
_space_group_symop_operation_xyz
x,y,z
-x,1/2-y,z
x,-y,1/2-z
1/2-x,y,-z
-x,-y,-z
x,1/2+y,-z
-x,y,1/2+z
1/2+x,-y,z
1/2+x,1/2+y,1/2+z
1/2-x,-y,1/2+z
1/2+x,1/2-y,-z
-x,1/2+y,1/2-z
1/2-x,1/2-y,1/2-z
1/2+x,y,1/2-z
1/2-x,1/2+y,z
x,1/2-y,1/2+z
loop_
_atom_site_type_symbol
_atom_site_label
_atom_site_fract_x
_atom_site_fract_y
_atom_site_fract_z
Si Si1 0.427719 0.544490 0.072130
Si Si2 0.923713 0.705354 0.214257
Si Si3 0.678308 0.171012 0.911752
Si Si4 0.669941 0.000000 0.750000
O O1 0.396840 0.500000 0.250000
O O2 0.442173 0.643515 0.120976
O O3 0.500000 0.500000 0.000000
O O4 0.373352 0.544390 0.908851
O O5 0.857460 0.770189 0.261304
O O6 0.000000 0.750000 0.156308
O O7 0.889583 0.652617 0.048280
O O8 0.711870 0.081611 0.832430
O O9 0.750000 0.215949 0.000000
#
# Coordination Sequence:
#
# PCOD8297069 Si02
#       4
#    16  16  16   8
#     4  12  25  44  76 116 157 200 257 325 390 462
#     4  12  27  48  78 116 154 202 265 323 390 467
#     4  12  28  50  77 114 159 209 259 325 396 471
#     4  12  26  48  74 112 154 206 262 318 394 468
#
# _framework density 26.102945999999999
#
# number of rings (size 3 to 8) (size 9 to 14) (size 15 to 20)
#    0.000    0.000    4.286    5.143    4.000    2.286 
#    0.000    1.429    0.000    0.000    0.000    0.000 
#    0.000    0.000    0.000    0.000    0.000    0.000 
#
# Total GULP energy -347003.953238 kJ/mol
# GULP energy per Si atom -12392.998330 kJ/mol
# Density = 2.604353 g / cm^3
# Si number density = 26.102946 Si / 1000 Ang^3
#
#
#
# Elastic Constant Matrix: (Units=GPa)
#
#
# Indices 1 2 3 4 5 6 
#
# 1 108.5548 21.9352 23.2035 0.0000 0.0000 0.0000
# 2 21.9352 127.7797 24.4539 0.0000 0.0000 0.0000
# 3 23.2035 24.4539 132.7275 0.0000 0.0000 0.0000
# 4 0.0000 0.0000 0.0000 40.3228 0.0000 0.0000
# 5 0.0000 0.0000 0.0000 0.0000 38.4640 0.0000
# 6 0.0000 0.0000 0.0000 0.0000 0.0000 24.1358
#
#
#
# Elastic Compliance Matrix: (Units=1/GPa)
#
#
# Indices 1 2 3 4 5 6 
#
# 1 0.009807 -0.001405 -0.001456 0.000000 0.000000 0.000000
# 2 -0.001405 0.008313 -0.001286 0.000000 0.000000 0.000000
# 3 -0.001456 -0.001286 0.008026 0.000000 0.000000 0.000000
# 4 0.000000 0.000000 0.000000 0.024800 0.000000 0.000000
# 5 0.000000 0.000000 0.000000 0.000000 0.025998 0.000000
# 6 0.000000 0.000000 0.000000 0.000000 0.000000 0.041432
#
#
# Mechanical properties :
#
#
# Convention : Reuss Voigt Hill
#
# Bulk Modulus (GPa) = 56.01393 56.47191 56.24292
# Shear Modulus (GPa) = 37.70158 40.54913 39.12535
#
# Velocity S-wave (km/s) = 3.80457 3.94564 3.87575
# Velocity P-wave (km/s) = 6.38789 6.51450 6.45150
#
# Compressibility (1/GPa) = 0.01785270
#
# Stress axis : x y z
#
# Youngs Moduli (GPa) = 101.96834 120.28976 124.60053
#
# Poissons Ratio (x) = 0.16900 0.18137
# Poissons Ratio (y) = 0.14326 0.16024
# Poissons Ratio (z) = 0.14843 0.15470
#
# Static dielectric constant tensor:
#      x y z
#    x -11.091330 0.000000 0.000000 
#    y 0.000000 4.897900 0.000000 
#    z 0.000000 0.000000 5.736730 
# 
# 
# High freq. dielectric constant tensor:
#      x y z
#    x 2.017510 0.000000 0.000000 
#    y 0.000000 2.056110 0.000000 
#    z 0.000000 0.000000 2.072860 
# 
# From -- ./inp_files/5855.got.cif
#   From: 2010.03.12/outbox.cif.g09.slc.cpg/sg73_3_cif.got.tgz:5855.got - 2010.04.16 15:25:48.
