data_PCOD8297662
_publ_section_title
;
Structure prediction by ZEFSAII (Michael W. Deem and Ramdas Pophale) SiO2 
 PCOD8297662
Probable space group: I M M A
;
_chemical_formula_sum "Si O2"
_cell_formula_units_Z 56
_cell_length_a 8.646644
_cell_length_b 14.380753
_cell_length_c 24.360284
_cell_angle_alpha 90.000000
_cell_angle_beta 90.000000
_cell_angle_gamma 90.000000
_cell_volume 3029.085644
_symmetry_space_group_name_H-M "I M M A"
_symmetry_group_IT_number 74
_symmetry_cell_setting 'orthorhombic'
loop_
_space_group_symop_operation_xyz
x,y,z
-x,1/2-y,z
x,-y,-z
-x,1/2+y,-z
-x,-y,-z
x,1/2+y,-z
-x,y,z
x,1/2-y,z
1/2+x,1/2+y,1/2+z
1/2-x,-y,1/2+z
1/2+x,1/2-y,1/2-z
1/2-x,y,1/2-z
1/2-x,1/2-y,1/2-z
1/2+x,y,1/2-z
1/2-x,1/2+y,1/2+z
1/2+x,-y,1/2+z
loop_
_atom_site_type_symbol
_atom_site_label
_atom_site_fract_x
_atom_site_fract_y
_atom_site_fract_z
Si Si1 0.316388 0.750000 0.810562
Si Si2 0.818372 0.060941 0.190206
Si Si3 0.683128 0.853575 0.994154
Si Si4 0.182599 0.011304 0.587783
O O1 0.500000 0.750000 0.812658
O O2 0.250000 0.750000 0.750000
O O3 0.252137 0.655422 0.837080
O O4 0.750000 0.037585 0.250000
O O5 0.000000 0.070200 0.197001
O O6 0.770695 0.982042 0.146313
O O7 0.500000 0.848405 0.989669
O O8 0.755482 0.750000 0.988419
O O9 0.742813 0.920845 0.945831
O O10 0.727723 0.896763 0.053364
O O11 0.000000 0.006118 0.598252
#
# Coordination Sequence:
#
# PCOD8297662 Si02
#       4
#     8  16  16  16
#     4  10  18  30  46  66  94 128 164 198 237 288
#     4  11  21  33  48  70 101 133 167 204 250 298
#     4   8  15  29  50  75 101 131 168 207 246 293
#     4   9  17  30  50  76 101 130 170 206 243 294
#
# _framework density 18.487427
#
# number of rings (size 3 to 8) (size 9 to 14) (size 15 to 20)
#    0.000    2.571    0.000    7.286    2.000    0.000 
#    0.000    2.857    0.000    3.429    0.000    0.000 
#    0.000    0.000    0.000    0.000    0.000    0.000 
#
# Total GULP energy -346986.715982 kJ/mol
# GULP energy per Si atom -12392.382714 kJ/mol
# Density = 1.844535 g / cm^3
# Si number density = 18.487427 Si / 1000 Ang^3
#
#
#
# Elastic Constant Matrix: (Units=GPa)
#
#
# Indices 1 2 3 4 5 6 
#
# 1 97.2220 10.2744 30.6360 0.0000 0.0000 0.0000
# 2 10.2744 79.4421 25.4154 0.0000 0.0000 0.0000
# 3 30.6360 25.4154 103.0188 0.0000 0.0000 0.0000
# 4 0.0000 0.0000 0.0000 23.3219 0.0000 0.0000
# 5 0.0000 0.0000 0.0000 0.0000 26.8535 0.0000
# 6 0.0000 0.0000 0.0000 0.0000 0.0000 14.3471
#
#
#
# Elastic Compliance Matrix: (Units=1/GPa)
#
#
# Indices 1 2 3 4 5 6 
#
# 1 0.011362 -0.000422 -0.003275 0.000000 0.000000 0.000000
# 2 -0.000422 0.013682 -0.003250 0.000000 0.000000 0.000000
# 3 -0.003275 -0.003250 0.011483 0.000000 0.000000 0.000000
# 4 0.000000 0.000000 0.000000 0.042878 0.000000 0.000000
# 5 0.000000 0.000000 0.000000 0.000000 0.037239 0.000000
# 6 0.000000 0.000000 0.000000 0.000000 0.000000 0.069700
#
#
# Mechanical properties :
#
#
# Convention : Reuss Voigt Hill
#
# Bulk Modulus (GPa) = 44.18202 45.81492 44.99847
# Shear Modulus (GPa) = 24.06363 27.12833 25.59598
#
# Velocity S-wave (km/s) = 3.61171 3.83481 3.72493
# Velocity P-wave (km/s) = 6.42985 6.66657 6.54928
#
# Compressibility (1/GPa) = 0.02263364
#
# Stress axis : x y z
#
# Youngs Moduli (GPa) = 88.01054 73.08819 87.08788
#
# Poissons Ratio (x) = 0.03083 0.28520
# Poissons Ratio (y) = 0.03712 0.28304
# Poissons Ratio (z) = 0.28822 0.23754
#
# Static dielectric constant tensor:
#      x y z
#    x 3.048880 0.000000 0.000000 
#    y 0.000000 3.949110 0.000000 
#    z 0.000000 0.000000 3.423120 
# 
# 
# High freq. dielectric constant tensor:
#      x y z
#    x 1.690660 0.000000 0.000000 
#    y 0.000000 1.689690 0.000000 
#    z 0.000000 0.000000 1.720810 
# 
# From -- ./inp_files/56274.got.cif
#   From: 2010.03.12/outbox.cif.g09.slc.cpg/sg74_29_cif.got.tgz:56274.got - 2010.04.16 15:46:19.
