data_PCOD8297444
_publ_section_title
;
Structure prediction by ZEFSAII (Michael W. Deem and Ramdas Pophale) SiO2 
 PCOD8297444
Probable space group: I M M A
;
_chemical_formula_sum "Si O2"
_cell_formula_units_Z 96
_cell_length_a 10.413056
_cell_length_b 25.301767
_cell_length_c 25.221306
_cell_angle_alpha 90.000000
_cell_angle_beta 90.000000
_cell_angle_gamma 90.000000
_cell_volume 6645.025125
_symmetry_space_group_name_H-M "I M M A"
_symmetry_group_IT_number 74
_symmetry_cell_setting 'orthorhombic'
loop_
_space_group_symop_operation_xyz
x,y,z
-x,1/2-y,z
x,-y,-z
-x,1/2+y,-z
-x,-y,-z
x,1/2+y,-z
-x,y,z
x,1/2-y,z
1/2+x,1/2+y,1/2+z
1/2-x,-y,1/2+z
1/2+x,1/2-y,1/2-z
1/2-x,y,1/2-z
1/2-x,1/2-y,1/2-z
1/2+x,y,1/2-z
1/2-x,1/2+y,1/2+z
1/2+x,-y,1/2+z
loop_
_atom_site_type_symbol
_atom_site_label
_atom_site_fract_x
_atom_site_fract_y
_atom_site_fract_z
Si Si1 0.848515 0.499767 0.914712
Si Si2 0.754988 0.036723 0.190178
Si Si3 0.263141 0.190111 0.464028
Si Si4 0.348620 0.414888 0.500738
Si Si5 0.500000 0.308411 0.096637
Si Si6 0.000000 0.809522 0.889072
Si Si7 0.000000 0.608858 0.800277
Si Si8 0.500000 0.898385 0.817346
O O1 0.778328 0.494969 0.857402
O O2 0.804279 0.449137 0.948702
O O3 0.000000 0.498855 0.905667
O O4 0.811001 0.553495 0.946687
O O5 0.750000 0.011383 0.250000
O O6 0.872831 0.076581 0.186798
O O7 0.623851 0.065438 0.175601
O O8 0.283325 0.250000 0.487480
O O9 0.278521 0.142349 0.506250
O O10 0.123439 0.184682 0.439783
O O11 0.372093 0.176788 0.421218
O O12 0.500000 0.405973 0.502010
O O13 0.500000 0.250000 0.122632
O O14 0.500000 0.351103 0.141975
O O15 0.000000 0.839369 0.834452
O O16 0.000000 0.750000 0.870899
O O17 0.000000 0.628387 0.740075
#
# Coordination Sequence:
#
# PCOD8297444 Si02
#       8
#    16  16  16  16   8   8   8   8
#     4   9  16  27  45  66  87 110 138 176 217 259
#     4  10  19  30  44  61  83 112 144 177 215 255
#     4  10  19  30  44  62  85 112 141 174 212 257
#     4   9  16  26  45  69  86 106 139 179 219 254
#     4  10  20  31  41  55  81 117 146 172 214 256
#     4  10  18  27  43  61  77 105 144 186 220 242
#     4  10  18  29  43  57  77 109 146 182 218 250
#     4  10  20  29  41  59  79 109 146 186 216 240
#
# _framework density 14.446897
#
# number of rings (size 3 to 8) (size 9 to 14) (size 15 to 20)
#    0.000    2.333    1.667    4.000    0.000    0.333 
#    0.000    0.833    0.000    9.000    0.000    0.000 
#    0.000    0.667    0.000    0.000    0.000    0.000 
#
# Total GULP energy -594817.729783 kJ/mol
# GULP energy per Si atom -12392.036037 kJ/mol
# Density = 1.441402 g / cm^3
# Si number density = 14.446897 Si / 1000 Ang^3
#
#
#
# Elastic Constant Matrix: (Units=GPa)
#
#
# Indices 1 2 3 4 5 6 
#
# 1 85.9540 28.7028 27.9851 0.0000 0.0000 0.0000
# 2 28.7028 98.1632 55.2561 0.0000 0.0000 0.0000
# 3 27.9851 55.2561 96.3832 0.0000 0.0000 0.0000
# 4 0.0000 0.0000 0.0000 28.1721 0.0000 0.0000
# 5 0.0000 0.0000 0.0000 0.0000 18.8347 0.0000
# 6 0.0000 0.0000 0.0000 0.0000 0.0000 12.2427
#
#
#
# Elastic Compliance Matrix: (Units=1/GPa)
#
#
# Indices 1 2 3 4 5 6 
#
# 1 0.013259 -0.002525 -0.002403 0.000000 0.000000 0.000000
# 2 -0.002525 0.015522 -0.008165 0.000000 0.000000 0.000000
# 3 -0.002403 -0.008165 0.015754 0.000000 0.000000 0.000000
# 4 0.000000 0.000000 0.000000 0.035496 0.000000 0.000000
# 5 0.000000 0.000000 0.000000 0.000000 0.053093 0.000000
# 6 0.000000 0.000000 0.000000 0.000000 0.000000 0.081681
#
#
# Mechanical properties :
#
#
# Convention : Reuss Voigt Hill
#
# Bulk Modulus (GPa) = 54.49640 56.04317 55.26978
# Shear Modulus (GPa) = 20.23408 23.08700 21.66054
#
# Velocity S-wave (km/s) = 3.74650 4.00191 3.87631
# Velocity P-wave (km/s) = 7.51789 7.76083 7.64033
#
# Compressibility (1/GPa) = 0.01834984
#
# Stress axis : x y z
#
# Youngs Moduli (GPa) = 75.41807 64.42609 63.47565
#
# Poissons Ratio (x) = 0.16265 0.15250
# Poissons Ratio (y) = 0.19040 0.51831
# Poissons Ratio (z) = 0.18119 0.52607
#
# Static dielectric constant tensor:
#      x y z
#    x 3.849970 0.000000 0.000000 
#    y 0.000000 2.837100 0.000000 
#    z 0.000000 0.000000 2.855090 
# 
# 
# High freq. dielectric constant tensor:
#      x y z
#    x 1.559120 0.000000 0.000000 
#    y 0.000000 1.533090 0.000000 
#    z 0.000000 0.000000 1.531030 
# 
# From -- ./inp_files/51110.got.cif
#   From: 2010.03.12/outbox.cif.g09.slc.cpg/sg74_26_cif.got.tgz:51110.got - 2010.04.16 15:46:19.
