data_PCOD8297447
_publ_section_title
;
Structure prediction by ZEFSAII (Michael W. Deem and Ramdas Pophale) SiO2 
 PCOD8297447
Probable space group: I M M A
;
_chemical_formula_sum "Si O2"
_cell_formula_units_Z 96
_cell_length_a 13.872599
_cell_length_b 20.462908
_cell_length_c 22.722945
_cell_angle_alpha 90.000000
_cell_angle_beta 90.000000
_cell_angle_gamma 90.000000
_cell_volume 6450.446860
_symmetry_space_group_name_H-M "I M M A"
_symmetry_group_IT_number 74
_symmetry_cell_setting 'orthorhombic'
loop_
_space_group_symop_operation_xyz
x,y,z
-x,1/2-y,z
x,-y,-z
-x,1/2+y,-z
-x,-y,-z
x,1/2+y,-z
-x,y,z
x,1/2-y,z
1/2+x,1/2+y,1/2+z
1/2-x,-y,1/2+z
1/2+x,1/2-y,1/2-z
1/2-x,y,1/2-z
1/2-x,1/2-y,1/2-z
1/2+x,y,1/2-z
1/2-x,1/2+y,1/2+z
1/2+x,-y,1/2+z
loop_
_atom_site_type_symbol
_atom_site_label
_atom_site_fract_x
_atom_site_fract_y
_atom_site_fract_z
Si Si1 0.609536 0.176224 0.955607
Si Si2 0.106301 0.524742 0.776045
Si Si3 0.207934 0.524532 0.658214
Si Si4 0.612294 0.060803 0.040724
Si Si5 0.291414 0.630168 0.158393
Si Si6 0.606078 0.369839 0.724329
O O1 0.500000 0.160652 0.935610
O O2 0.619629 0.250000 0.979329
O O3 0.679128 0.167340 0.900289
O O4 0.638988 0.127839 0.007960
O O5 0.141167 0.548956 0.712025
O O6 0.181751 0.545348 0.826924
O O7 0.103074 0.447296 0.773485
O O8 0.000000 0.553707 0.790035
O O9 0.175424 0.561156 0.599584
O O10 0.198232 0.447123 0.648708
O O11 0.500000 0.056381 0.057759
O O12 0.641928 0.000000 0.000000
O O13 0.359199 0.654608 0.211709
O O14 0.181473 0.651089 0.173726
O O15 0.500000 0.340663 0.710428
#
# Coordination Sequence:
#
# PCOD8297447 Si02
#       6
#    16  16  16  16  16  16
#     4  10  20  31  42  59  84 112 139 170 211 253
#     4   8  14  23  38  62  91 113 131 166 214 251
#     4   9  15  24  41  65  87 109 138 171 205 247
#     4  10  18  27  43  64  84 108 140 176 207 241
#     4   9  15  25  41  59  82 112 142 171 206 244
#     4   8  14  23  38  60  84 110 140 175 207 237
#
# _framework density 14.88269
#
# number of rings (size 3 to 8) (size 9 to 14) (size 15 to 20)
#    0.000    3.000    1.667    3.000    0.000    1.333 
#    0.000    1.667    0.000    3.000    0.000    2.333 
#    0.000    1.333    0.000    0.000    0.000    0.000 
#
# Total GULP energy -594950.079915 kJ/mol
# GULP energy per Si atom -12394.793332 kJ/mol
# Density = 1.484882 g / cm^3
# Si number density = 14.882690 Si / 1000 Ang^3
#
#
#
# Elastic Constant Matrix: (Units=GPa)
#
#
# Indices 1 2 3 4 5 6 
#
# 1 119.1598 25.2138 58.7042 0.0000 0.0000 0.0000
# 2 25.2138 52.5291 37.3778 0.0000 0.0000 0.0000
# 3 58.7042 37.3778 105.2796 0.0000 0.0000 0.0000
# 4 0.0000 0.0000 0.0000 14.1066 0.0000 0.0000
# 5 0.0000 0.0000 0.0000 0.0000 24.7603 0.0000
# 6 0.0000 0.0000 0.0000 0.0000 0.0000 9.5592
#
#
#
# Elastic Compliance Matrix: (Units=1/GPa)
#
#
# Indices 1 2 3 4 5 6 
#
# 1 0.011636 -0.001296 -0.006028 0.000000 0.000000 0.000000
# 2 -0.001296 0.025616 -0.008372 0.000000 0.000000 0.000000
# 3 -0.006028 -0.008372 0.015832 0.000000 0.000000 0.000000
# 4 0.000000 0.000000 0.000000 0.070889 0.000000 0.000000
# 5 0.000000 0.000000 0.000000 0.000000 0.040387 0.000000
# 6 0.000000 0.000000 0.000000 0.000000 0.000000 0.104611
#
#
# Mechanical properties :
#
#
# Convention : Reuss Voigt Hill
#
# Bulk Modulus (GPa) = 46.09922 57.72890 51.91406
# Shear Modulus (GPa) = 16.25514 20.06341 18.15927
#
# Velocity S-wave (km/s) = 3.30846 3.67564 3.49687
# Velocity P-wave (km/s) = 6.75550 7.54236 7.15975
#
# Compressibility (1/GPa) = 0.02169234
#
# Stress axis : x y z
#
# Youngs Moduli (GPa) = 85.93935 39.03760 63.16206
#
# Poissons Ratio (x) = 0.05058 0.38076
# Poissons Ratio (y) = 0.11136 0.52880
# Poissons Ratio (z) = 0.51807 0.32683
#
# Static dielectric constant tensor:
#      x y z
#    x 3.277440 0.000000 0.000000 
#    y 0.000000 2.496740 0.000000 
#    z 0.000000 0.000000 2.731040 
# 
# 
# High freq. dielectric constant tensor:
#      x y z
#    x 1.570000 0.000000 0.000000 
#    y 0.000000 1.524490 0.000000 
#    z 0.000000 0.000000 1.556200 
# 
# From -- ./inp_files/52228.got.cif
#   From: 2010.03.12/outbox.cif.g09.slc.cpg/sg74_27_cif.got.tgz:52228.got - 2010.04.16 15:46:19.
