data_PCOD8297116
_publ_section_title
;
Structure prediction by ZEFSAII (Michael W. Deem and Ramdas Pophale) SiO2 
 PCOD8297116
Probable space group: I M M A
;
_chemical_formula_sum "Si O2"
_cell_formula_units_Z 120
_cell_length_a 28.363832
_cell_length_b 19.434161
_cell_length_c 14.996407
_cell_angle_alpha 90.000000
_cell_angle_beta 90.000000
_cell_angle_gamma 90.000000
_cell_volume 8266.428605
_symmetry_space_group_name_H-M "I M M A"
_symmetry_group_IT_number 74
_symmetry_cell_setting 'orthorhombic'
loop_
_space_group_symop_operation_xyz
x,y,z
-x,1/2-y,z
x,-y,-z
-x,1/2+y,-z
-x,-y,-z
x,1/2+y,-z
-x,y,z
x,1/2-y,z
1/2+x,1/2+y,1/2+z
1/2-x,-y,1/2+z
1/2+x,1/2-y,1/2-z
1/2-x,y,1/2-z
1/2-x,1/2-y,1/2-z
1/2+x,y,1/2-z
1/2-x,1/2+y,1/2+z
1/2+x,-y,1/2+z
loop_
_atom_site_type_symbol
_atom_site_label
_atom_site_fract_x
_atom_site_fract_y
_atom_site_fract_z
Si Si1 0.553698 0.669622 0.964627
Si Si2 0.250000 0.496789 0.250000
Si Si3 0.640577 0.672728 0.671271
Si Si4 0.722841 0.831077 0.554690
Si Si5 0.551256 0.167882 0.239174
Si Si6 0.863747 0.077507 0.501172
Si Si7 0.234719 0.563545 0.431412
Si Si8 0.307261 0.881298 0.828758
O O1 0.500000 0.655022 0.997289
O O2 0.565434 0.750000 0.974750
O O3 0.559219 0.644227 0.862557
O O4 0.591921 0.627287 0.023638
O O5 0.257233 0.544748 0.336454
O O6 0.295361 0.449347 0.229507
O O7 0.630016 0.750000 0.642552
O O8 0.672049 0.641176 0.591329
O O9 0.590412 0.635515 0.693054
O O10 0.669194 0.674045 0.764184
O O11 0.722597 0.750000 0.534278
O O12 0.734669 0.871875 0.464881
O O13 0.760353 0.847566 0.631631
O O14 0.500000 0.142797 0.272668
O O15 0.554321 0.250000 0.240058
O O16 0.820930 0.084518 0.573405
O O17 0.843024 0.097511 0.405476
O O18 0.883392 0.000000 0.500000
O O19 0.239211 0.500000 0.500000
#
# Coordination Sequence:
#
# PCOD8297116 Si02
#       8
#    16   8  16  16  16  16  16  16
#     4   9  17  28  42  59  85 122 154 180 221 276
#     4  12  18  32  50  60  86 126 154 190 208 278
#     4  10  16  23  39  62  85 112 140 175 223 267
#     4  10  19  28  40  63  92 112 141 188 228 260
#     4   8  14  23  35  55  82 111 141 169 207 268
#     4  10  18  28  40  62  90 111 148 188 218 259
#     4  10  19  33  45  65  91 122 157 184 222 272
#     4  11  17  26  42  63  85 113 147 181 222 267
#
# _framework density 14.516546999999999
#
# number of rings (size 3 to 8) (size 9 to 14) (size 15 to 20)
#    0.000    2.133    6.667    1.200    0.000    3.467 
#    0.000    0.333    0.000    0.000    0.000    0.000 
#    0.000    6.933    0.000    3.733    0.000    0.000 
#
# Total GULP energy -743299.696899 kJ/mol
# GULP energy per Si atom -12388.328282 kJ/mol
# Density = 1.448351 g / cm^3
# Si number density = 14.516547 Si / 1000 Ang^3
#
#
#
# Elastic Constant Matrix: (Units=GPa)
#
#
# Indices 1 2 3 4 5 6 
#
# 1 64.9212 17.4528 17.8837 0.0000 0.0000 0.0000
# 2 17.4528 46.9205 16.7096 0.0000 0.0000 0.0000
# 3 17.8837 16.7096 49.4880 0.0000 0.0000 0.0000
# 4 0.0000 0.0000 0.0000 21.8920 0.0000 0.0000
# 5 0.0000 0.0000 0.0000 0.0000 16.7258 0.0000
# 6 0.0000 0.0000 0.0000 0.0000 0.0000 19.7117
#
#
#
# Elastic Compliance Matrix: (Units=1/GPa)
#
#
# Indices 1 2 3 4 5 6 
#
# 1 0.018082 -0.005000 -0.004846 0.000000 0.000000 0.000000
# 2 -0.005000 0.025608 -0.006840 0.000000 0.000000 0.000000
# 3 -0.004846 -0.006840 0.024268 0.000000 0.000000 0.000000
# 4 0.000000 0.000000 0.000000 0.045679 0.000000 0.000000
# 5 0.000000 0.000000 0.000000 0.000000 0.059788 0.000000
# 6 0.000000 0.000000 0.000000 0.000000 0.000000 0.050731
#
#
# Mechanical properties :
#
#
# Convention : Reuss Voigt Hill
#
# Bulk Modulus (GPa) = 28.91325 29.49132 29.20229
# Shear Modulus (GPa) = 18.58340 18.95148 18.76744
#
# Velocity S-wave (km/s) = 3.58180 3.61710 3.59950
# Velocity P-wave (km/s) = 6.08822 6.14852 6.11845
#
# Compressibility (1/GPa) = 0.03458622
#
# Stress axis : x y z
#
# Youngs Moduli (GPa) = 55.30213 39.04978 41.20708
#
# Poissons Ratio (x) = 0.19526 0.19970
# Poissons Ratio (y) = 0.27652 0.28184
# Poissons Ratio (z) = 0.26801 0.26709
#
# Static dielectric constant tensor:
#      x y z
#    x 3.139470 0.000000 0.000000 
#    y 0.000000 2.744310 0.000000 
#    z 0.000000 0.000000 2.629830 
# 
# 
# High freq. dielectric constant tensor:
#      x y z
#    x 1.557410 0.000000 0.000000 
#    y 0.000000 1.535580 0.000000 
#    z 0.000000 0.000000 1.511010 
# 
# From -- ./inp_files/37533.got.cif
#   From: 2010.03.12/outbox.cif.g09.slc.cpg/sg74_19_cif.got.tgz:37533.got - 2010.04.16 15:46:19.
