data_PCOD8297983
_publ_section_title
;
Structure prediction by ZEFSAII (Michael W. Deem and Ramdas Pophale) SiO2 
 PCOD8297983
Probable space group: I M M A
;
_chemical_formula_sum "Si O2"
_cell_formula_units_Z 64
_cell_length_a 20.369489
_cell_length_b 15.943374
_cell_length_c 9.840930
_cell_angle_alpha 90.000000
_cell_angle_beta 90.000000
_cell_angle_gamma 90.000000
_cell_volume 3195.924497
_symmetry_space_group_name_H-M "I M M A"
_symmetry_group_IT_number 74
_symmetry_cell_setting 'orthorhombic'
loop_
_space_group_symop_operation_xyz
x,y,z
-x,1/2-y,z
x,-y,-z
-x,1/2+y,-z
-x,-y,-z
x,1/2+y,-z
-x,y,z
x,1/2-y,z
1/2+x,1/2+y,1/2+z
1/2-x,-y,1/2+z
1/2+x,1/2-y,1/2-z
1/2-x,y,1/2-z
1/2-x,1/2-y,1/2-z
1/2+x,y,1/2-z
1/2-x,1/2+y,1/2+z
1/2+x,-y,1/2+z
loop_
_atom_site_type_symbol
_atom_site_label
_atom_site_fract_x
_atom_site_fract_y
_atom_site_fract_z
Si Si1 0.796916 0.592963 0.445406
Si Si2 0.678464 0.153623 0.221145
Si Si3 0.837475 0.652641 0.168340
Si Si4 0.572831 0.650528 0.572183
O O1 0.786880 0.500000 0.500000
O O2 0.837138 0.643204 0.561341
O O3 0.837874 0.596027 0.304687
O O4 0.726943 0.636926 0.422458
O O5 0.682217 0.250000 0.264411
O O6 0.750000 0.110867 0.250000
O O7 0.620989 0.111592 0.312256
O O8 0.838906 0.750000 0.211198
O O9 0.900079 0.627552 0.077581
O O10 0.500000 0.611520 0.588053
O O11 0.569443 0.750000 0.589131
#
# Coordination Sequence:
#
# PCOD8297983 Si02
#       4
#    16  16  16  16
#     4  11  22  32  53  81 111 141 182 234 271 324
#     4  10  18  32  55  82 108 138 176 226 280 324
#     4  10  20  36  56  79 111 146 183 225 279 331
#     4   9  18  33  56  83 108 138 180 226 271 325
#
# _framework density 20.025504999999999
#
# number of rings (size 3 to 8) (size 9 to 14) (size 15 to 20)
#    0.000    2.000    2.500    3.000    3.500    0.000 
#    0.000    1.250    0.000   14.250    0.000    0.000 
#    0.000    0.000    0.000    0.000    0.000    0.000 
#
# Total GULP energy -396680.938067 kJ/mol
# GULP energy per Si atom -12396.279315 kJ/mol
# Density = 1.997993 g / cm^3
# Si number density = 20.025505 Si / 1000 Ang^3
#
#
#
# Elastic Constant Matrix: (Units=GPa)
#
#
# Indices 1 2 3 4 5 6 
#
# 1 151.3339 8.5414 84.4520 0.0000 0.0000 0.0000
# 2 8.5414 33.4635 24.4005 0.0000 0.0000 0.0000
# 3 84.4520 24.4005 158.6422 0.0000 0.0000 0.0000
# 4 0.0000 0.0000 0.0000 30.5680 0.0000 0.0000
# 5 0.0000 0.0000 0.0000 0.0000 31.7908 0.0000
# 6 0.0000 0.0000 0.0000 0.0000 0.0000 5.4920
#
#
#
# Elastic Compliance Matrix: (Units=1/GPa)
#
#
# Indices 1 2 3 4 5 6 
#
# 1 0.009460 0.001416 -0.005254 0.000000 0.000000 0.000000
# 2 0.001416 0.033870 -0.005963 0.000000 0.000000 0.000000
# 3 -0.005254 -0.005963 0.010017 0.000000 0.000000 0.000000
# 4 0.000000 0.000000 0.000000 0.032714 0.000000 0.000000
# 5 0.000000 0.000000 0.000000 0.000000 0.031456 0.000000
# 6 0.000000 0.000000 0.000000 0.000000 0.000000 0.182084
#
#
# Mechanical properties :
#
#
# Convention : Reuss Voigt Hill
#
# Bulk Modulus (GPa) = 29.63344 64.24749 46.94047
# Shear Modulus (GPa) = 15.13082 28.63988 21.88535
#
# Velocity S-wave (km/s) = 2.75176 3.78586 3.30945
# Velocity P-wave (km/s) = 4.99262 7.15981 6.17208
#
# Compressibility (1/GPa) = 0.03374566
#
# Stress axis : x y z
#
# Youngs Moduli (GPa) = 105.71058 29.52453 99.82556
#
# Poissons Ratio (x) = -0.04181 0.52445
# Poissons Ratio (y) = -0.14971 0.59530
# Poissons Ratio (z) = 0.55537 0.17607
#
# Static dielectric constant tensor:
#      x y z
#    x 3.711490 0.000000 0.000000 
#    y 0.000000 3.292350 0.000000 
#    z 0.000000 0.000000 3.933620 
# 
# 
# High freq. dielectric constant tensor:
#      x y z
#    x 1.747330 0.000000 0.000000 
#    y 0.000000 1.754730 0.000000 
#    z 0.000000 0.000000 1.798070 
# 
# From -- ./inp_files/11794.got.cif
#   From: 2010.03.12/outbox.cif.g09.slc.cpg/sg74_6_cif.got.tgz:11794.got - 2010.04.16 15:46:19.
