data_PCOD8297356
_publ_section_title
;
Structure prediction by ZEFSAII (Michael W. Deem and Ramdas Pophale) SiO2 
 PCOD8297356
Probable space group: I M M A
;
_chemical_formula_sum "Si O2"
_cell_formula_units_Z 96
_cell_length_a 20.955088
_cell_length_b 18.424647
_cell_length_c 14.825102
_cell_angle_alpha 90.000000
_cell_angle_beta 90.000000
_cell_angle_gamma 90.000000
_cell_volume 5723.825103
_symmetry_space_group_name_H-M "I M M A"
_symmetry_group_IT_number 74
_symmetry_cell_setting 'orthorhombic'
loop_
_space_group_symop_operation_xyz
x,y,z
-x,1/2-y,z
x,-y,-z
-x,1/2+y,-z
-x,-y,-z
x,1/2+y,-z
-x,y,z
x,1/2-y,z
1/2+x,1/2+y,1/2+z
1/2-x,-y,1/2+z
1/2+x,1/2-y,1/2-z
1/2-x,y,1/2-z
1/2-x,1/2-y,1/2-z
1/2+x,y,1/2-z
1/2-x,1/2+y,1/2+z
1/2+x,-y,1/2+z
loop_
_atom_site_type_symbol
_atom_site_label
_atom_site_fract_x
_atom_site_fract_y
_atom_site_fract_z
Si Si1 0.110441 0.332392 0.542983
Si Si2 0.694233 0.063028 0.679816
Si Si3 0.381534 0.547778 0.915300
Si Si4 0.747394 0.910128 0.651714
Si Si5 0.570291 0.927774 0.203594
Si Si6 0.739405 0.832472 0.470612
O O1 0.088942 0.250000 0.527580
O O2 0.087252 0.378074 0.454780
O O3 0.079039 0.361475 0.634113
O O4 0.186388 0.340856 0.552305
O O5 0.750000 0.084126 0.750000
O O6 0.624177 0.076056 0.720466
O O7 0.698926 0.115363 0.593637
O O8 0.700106 0.979296 0.650039
O O9 0.318476 0.560513 0.858751
O O10 0.429495 0.503913 0.851302
O O11 0.359599 0.500000 0.000000
O O12 0.750000 0.871420 0.750000
O O13 0.726537 0.853890 0.574829
O O14 0.500000 0.920752 0.248165
O O15 0.716338 0.750000 0.456515
#
# Coordination Sequence:
#
# PCOD8297356 Si02
#       6
#    16  16  16  16  16  16
#     4   9  18  31  48  73 107 139 166 202 252 313
#     4  11  18  33  55  75  99 139 173 205 252 301
#     4   9  16  30  49  73 102 132 170 206 250 303
#     4  10  17  30  55  78  99 132 167 211 256 301
#     4  11  21  32  49  76 104 133 174 216 252 297
#     4  10  20  32  51  80 107 131 168 210 252 307
#
# _framework density 16.772000999999999
#
# number of rings (size 3 to 8) (size 9 to 14) (size 15 to 20)
#    0.000    2.000    5.000    2.500    0.000    4.667 
#    0.000    0.000    0.000    2.000    0.000    0.000 
#    0.000    0.000    0.000    0.000    0.000    0.000 
#
# Total GULP energy -595013.725578 kJ/mol
# GULP energy per Si atom -12396.119283 kJ/mol
# Density = 1.673383 g / cm^3
# Si number density = 16.772001 Si / 1000 Ang^3
#
#
#
# Elastic Constant Matrix: (Units=GPa)
#
#
# Indices 1 2 3 4 5 6 
#
# 1 85.0491 18.0758 36.3381 0.0000 0.0000 0.0000
# 2 18.0758 93.6025 25.4788 0.0000 0.0000 0.0000
# 3 36.3381 25.4788 80.2918 0.0000 0.0000 0.0000
# 4 0.0000 0.0000 0.0000 17.9440 0.0000 0.0000
# 5 0.0000 0.0000 0.0000 0.0000 16.3615 0.0000
# 6 0.0000 0.0000 0.0000 0.0000 0.0000 7.1515
#
#
#
# Elastic Compliance Matrix: (Units=1/GPa)
#
#
# Indices 1 2 3 4 5 6 
#
# 1 0.014684 -0.001124 -0.006289 0.000000 0.000000 0.000000
# 2 -0.001124 0.011780 -0.003229 0.000000 0.000000 0.000000
# 3 -0.006289 -0.003229 0.016326 0.000000 0.000000 0.000000
# 4 0.000000 0.000000 0.000000 0.055729 0.000000 0.000000
# 5 0.000000 0.000000 0.000000 0.000000 0.061119 0.000000
# 6 0.000000 0.000000 0.000000 0.000000 0.000000 0.139831
#
#
# Mechanical properties :
#
#
# Convention : Reuss Voigt Hill
#
# Bulk Modulus (GPa) = 46.50139 46.52542 46.51340
# Shear Modulus (GPa) = 15.24764 20.22814 17.73789
#
# Velocity S-wave (km/s) = 3.01842 3.47661 3.25559
# Velocity P-wave (km/s) = 6.31930 6.62691 6.47493
#
# Compressibility (1/GPa) = 0.02150473
#
# Stress axis : x y z
#
# Youngs Moduli (GPa) = 68.10254 84.89306 61.25376
#
# Poissons Ratio (x) = 0.09540 0.38522
# Poissons Ratio (y) = 0.07653 0.19781
# Poissons Ratio (z) = 0.42829 0.27415
#
# Static dielectric constant tensor:
#      x y z
#    x 2.841200 0.000000 0.000000 
#    y 0.000000 3.341020 0.000000 
#    z 0.000000 0.000000 3.154020 
# 
# 
# High freq. dielectric constant tensor:
#      x y z
#    x 1.613040 0.000000 0.000000 
#    y 0.000000 1.646280 0.000000 
#    z 0.000000 0.000000 1.637360 
# 
# From -- ./inp_files/35629.got.cif
#   From: 2010.03.12/outbox.cif.g09.slc.cpg/sg74_18_cif.got.tgz:35629.got - 2010.04.16 15:46:19.
