data_PCOD8297021
_publ_section_title
;
Structure prediction by ZEFSAII (Michael W. Deem and Ramdas Pophale) SiO2 
 PCOD8297021
Probable space group: I B C A 
;
_chemical_formula_sum "Si O2"
_cell_formula_units_Z 112
_cell_length_a 14.022708
_cell_length_b 13.731982
_cell_length_c 23.436006
_cell_angle_alpha 90.000000
_cell_angle_beta 90.000000
_cell_angle_gamma 90.000000
_cell_volume 4512.827328
_symmetry_space_group_name_H-M "I B C A "
_symmetry_group_IT_number 73
_symmetry_cell_setting 'orthorhombic'
loop_
_space_group_symop_operation_xyz
x,y,z
-x,1/2-y,z
x,-y,1/2-z
1/2-x,y,-z
-x,-y,-z
x,1/2+y,-z
-x,y,1/2+z
1/2+x,-y,z
1/2+x,1/2+y,1/2+z
1/2-x,-y,1/2+z
1/2+x,1/2-y,-z
-x,1/2+y,1/2-z
1/2-x,1/2-y,1/2-z
1/2+x,y,1/2-z
1/2-x,1/2+y,z
x,1/2-y,1/2+z
loop_
_atom_site_type_symbol
_atom_site_label
_atom_site_fract_x
_atom_site_fract_y
_atom_site_fract_z
Si Si1 0.104150 0.705628 0.758514
Si Si2 0.269845 0.224760 0.163161
Si Si3 0.554627 0.000000 0.250000
Si Si4 0.250000 0.302122 0.000000
Si Si5 0.627974 0.576136 0.419816
Si Si6 0.277773 0.081474 0.601754
Si Si7 0.960144 0.029837 0.626682
Si Si8 0.581603 0.320688 0.967704
O O1 0.164080 0.689573 0.817552
O O2 0.157687 0.781882 0.716995
O O3 0.106836 0.598252 0.728100
O O4 0.000000 0.750000 0.770967
O O5 0.315066 0.162009 0.112040
O O6 0.257405 0.337320 0.148392
O O7 0.503053 0.044609 0.307314
O O8 0.313298 0.367882 0.042813
O O9 0.179169 0.240789 0.041998
O O10 0.679538 0.473344 0.412277
O O11 0.521845 0.560047 0.396599
O O12 0.614994 0.599812 0.486228
O O13 0.350744 0.002841 0.625588
O O14 0.962262 0.128411 0.588807
O O15 0.500000 0.250000 0.992485
#
# Coordination Sequence:
#
# PCOD8297021 Si02
#       8
#    16  16   8   8  16  16  16  16
#     4  11  26  49  74 110 157 208 271 328 394 472
#     4  11  26  47  76 112 151 211 263 330 399 481
#     4  12  26  46  76 106 150 204 244 320 388 468
#     4  12  24  44  76 106 154 194 246 324 396 462
#     4  12  26  49  77 110 156 201 259 329 399 478
#     4  12  25  47  72 113 147 202 254 316 400 476
#     4  12  27  47  74 109 152 201 258 322 390 476
#     4  12  26  47  78 114 150 205 265 325 399 477
#
# _framework density 24.818142999999999
#
# number of rings (size 3 to 8) (size 9 to 14) (size 15 to 20)
#    0.000    0.286    2.857    5.571    4.000    0.571 
#    0.000    0.000    0.000    0.000    0.000    0.000 
#    0.000    0.000    0.000    0.000    0.000    0.000 
#
# Total GULP energy -694011.973770 kJ/mol
# GULP energy per Si atom -12393.070960 kJ/mol
# Density = 2.476166 g / cm^3
# Si number density = 24.818143 Si / 1000 Ang^3
#
#
#
# Elastic Constant Matrix: (Units=GPa)
#
#
# Indices 1 2 3 4 5 6 
#
# 1 114.4444 34.8032 28.5989 0.0000 0.0000 0.0000
# 2 34.8032 111.5714 35.4630 0.0000 0.0000 0.0000
# 3 28.5989 35.4630 133.1924 0.0000 0.0000 0.0000
# 4 0.0000 0.0000 0.0000 39.8384 0.0000 0.0000
# 5 0.0000 0.0000 0.0000 0.0000 27.7522 0.0000
# 6 0.0000 0.0000 0.0000 0.0000 0.0000 38.9728
#
#
#
# Elastic Compliance Matrix: (Units=1/GPa)
#
#
# Indices 1 2 3 4 5 6 
#
# 1 0.009895 -0.002634 -0.001423 0.000000 0.000000 0.000000
# 2 -0.002634 0.010493 -0.002228 0.000000 0.000000 0.000000
# 3 -0.001423 -0.002228 0.008407 0.000000 0.000000 0.000000
# 4 0.000000 0.000000 0.000000 0.025101 0.000000 0.000000
# 5 0.000000 0.000000 0.000000 0.000000 0.036033 0.000000
# 6 0.000000 0.000000 0.000000 0.000000 0.000000 0.025659
#
#
# Mechanical properties :
#
#
# Convention : Reuss Voigt Hill
#
# Bulk Modulus (GPa) = 61.64020 61.88205 61.76112
# Shear Modulus (GPa) = 37.43459 38.66888 38.05174
#
# Velocity S-wave (km/s) = 3.88797 3.95155 3.91989
# Velocity P-wave (km/s) = 6.71161 6.76816 6.73994
#
# Compressibility (1/GPa) = 0.01622318
#
# Stress axis : x y z
#
# Youngs Moduli (GPa) = 101.06558 95.30377 118.95156
#
# Poissons Ratio (x) = 0.25104 0.16929
# Poissons Ratio (y) = 0.26622 0.26504
# Poissons Ratio (z) = 0.14384 0.21235
#
# Static dielectric constant tensor:
#      x y z
#    x 4.297960 0.000000 0.000000 
#    y 0.000000 4.584720 0.000000 
#    z 0.000000 0.000000 4.471620 
# 
# 
# High freq. dielectric constant tensor:
#      x y z
#    x 1.974150 0.000000 0.000000 
#    y 0.000000 2.000570 0.000000 
#    z 0.000000 0.000000 2.000960 
# 
# From -- ./inp_files/29590.got.cif
#   From: 2010.03.12/outbox.cif.g09.slc.cpg/sg73_15_cif.got.tgz:29590.got - 2010.04.16 15:25:48.
