data_PCOD8297894
_publ_section_title
;
Structure prediction by ZEFSAII (Michael W. Deem and Ramdas Pophale) SiO2 
 PCOD8297894
Probable space group: I M M A
;
_chemical_formula_sum "Si O2"
_cell_formula_units_Z 128
_cell_length_a 25.096209
_cell_length_b 25.264027
_cell_length_c 11.410065
_cell_angle_alpha 90.000000
_cell_angle_beta 90.000000
_cell_angle_gamma 90.000000
_cell_volume 7234.338365
_symmetry_space_group_name_H-M "I M M A"
_symmetry_group_IT_number 74
_symmetry_cell_setting 'orthorhombic'
loop_
_space_group_symop_operation_xyz
x,y,z
-x,1/2-y,z
x,-y,-z
-x,1/2+y,-z
-x,-y,-z
x,1/2+y,-z
-x,y,z
x,1/2-y,z
1/2+x,1/2+y,1/2+z
1/2-x,-y,1/2+z
1/2+x,1/2-y,1/2-z
1/2-x,y,1/2-z
1/2-x,1/2-y,1/2-z
1/2+x,y,1/2-z
1/2-x,1/2+y,1/2+z
1/2+x,-y,1/2+z
loop_
_atom_site_type_symbol
_atom_site_label
_atom_site_fract_x
_atom_site_fract_y
_atom_site_fract_z
Si Si1 0.228238 0.595540 0.970561
Si Si2 0.235438 0.810002 0.384254
Si Si3 0.147172 0.050488 0.855669
Si Si4 0.356892 0.570240 0.700303
Si Si5 0.561623 0.808865 0.337627
Si Si6 0.562304 0.598603 0.506580
Si Si7 0.133158 0.867651 0.338108
Si Si8 0.349438 0.560119 0.963776
O O1 0.229045 0.653669 0.029767
O O2 0.190923 0.556174 0.043895
O O3 0.198284 0.598358 0.843919
O O4 0.286222 0.570149 0.969434
O O5 0.244694 0.750000 0.425448
O O6 0.250000 0.818750 0.250000
O O7 0.173646 0.825043 0.392189
O O8 0.160933 0.092895 0.755129
O O9 0.150234 0.992450 0.805652
O O10 0.088256 0.058665 0.911749
O O11 0.407876 0.593046 0.630498
O O12 0.368278 0.579872 0.836565
O O13 0.500000 0.804920 0.310166
O O14 0.586252 0.750000 0.355306
O O15 0.571976 0.842052 0.456383
O O16 0.585211 0.836633 0.222309
O O17 0.500000 0.585282 0.520989
O O18 0.115625 0.904198 0.447119
O O19 0.361724 0.500000 0.000000
#
# Coordination Sequence:
#
# PCOD8297894 Si02
#       8
#    16  16  16  16  16  16  16  16
#     4  10  20  32  49  76 103 138 179 225 264 306
#     4  10  19  31  50  76 105 136 170 211 268 318
#     4  10  18  32  50  75 105 132 172 219 262 312
#     4  11  21  34  49  73 108 141 179 215 258 306
#     4   9  18  35  61  86 103 126 167 225 282 317
#     4   9  19  34  54  78 102 130 163 212 271 323
#     4  10  19  33  52  77 111 135 176 221 259 314
#     4  11  21  33  51  72 105 151 184 212 250 307
#
# _framework density 17.693394000000001
#
# number of rings (size 3 to 8) (size 9 to 14) (size 15 to 20)
#    0.000    2.000    2.500    3.000    0.000    1.000 
#    0.000    0.625    0.000   11.250    0.000    1.750 
#    0.000    0.000    0.000    0.000    0.000    0.000 
#
# Total GULP energy -793270.088380 kJ/mol
# GULP energy per Si atom -12394.845131 kJ/mol
# Density = 1.765312 g / cm^3
# Si number density = 17.693394 Si / 1000 Ang^3
#
#
#
# Elastic Constant Matrix: (Units=GPa)
#
#
# Indices 1 2 3 4 5 6 
#
# 1 61.4853 23.6973 17.4025 0.0000 0.0000 0.0000
# 2 23.6973 97.1438 32.7574 0.0000 0.0000 0.0000
# 3 17.4025 32.7574 97.2660 0.0000 0.0000 0.0000
# 4 0.0000 0.0000 0.0000 20.4218 0.0000 0.0000
# 5 0.0000 0.0000 0.0000 0.0000 20.0559 0.0000
# 6 0.0000 0.0000 0.0000 0.0000 0.0000 20.4991
#
#
#
# Elastic Compliance Matrix: (Units=1/GPa)
#
#
# Indices 1 2 3 4 5 6 
#
# 1 0.018289 -0.003788 -0.001996 0.000000 0.000000 0.000000
# 2 -0.003788 0.012397 -0.003497 0.000000 0.000000 0.000000
# 3 -0.001996 -0.003497 0.011816 0.000000 0.000000 0.000000
# 4 0.000000 0.000000 0.000000 0.048967 0.000000 0.000000
# 5 0.000000 0.000000 0.000000 0.000000 0.049861 0.000000
# 6 0.000000 0.000000 0.000000 0.000000 0.000000 0.048783
#
#
# Mechanical properties :
#
#
# Convention : Reuss Voigt Hill
#
# Bulk Modulus (GPa) = 41.77367 44.84549 43.30958
# Shear Modulus (GPa) = 23.07795 24.33123 23.70459
#
# Velocity S-wave (km/s) = 3.61546 3.71234 3.66422
# Velocity P-wave (km/s) = 6.41013 6.61636 6.51406
#
# Compressibility (1/GPa) = 0.02393852
#
# Stress axis : x y z
#
# Youngs Moduli (GPa) = 54.67717 80.66153 84.62994
#
# Poissons Ratio (x) = 0.30557 0.16896
# Poissons Ratio (y) = 0.20713 0.29599
# Poissons Ratio (z) = 0.10916 0.28211
#
# Static dielectric constant tensor:
#      x y z
#    x 3.144100 0.000000 0.000000 
#    y 0.000000 3.414460 0.000000 
#    z 0.000000 0.000000 3.385050 
# 
# 
# High freq. dielectric constant tensor:
#      x y z
#    x 1.667160 0.000000 0.000000 
#    y 0.000000 1.685220 0.000000 
#    z 0.000000 0.000000 1.675960 
# 
# From -- ./inp_files/25585.got.cif
#   From: 2010.03.12/outbox.cif.g09.slc.cpg/sg74_13_cif.got.tgz:25585.got - 2010.04.16 15:46:19.
