data_PCOD8297594
_publ_section_title
;
Structure prediction by ZEFSAII (Michael W. Deem and Ramdas Pophale) SiO2 
 PCOD8297594
Probable space group: I M M A
;
_chemical_formula_sum "Si O2"
_cell_formula_units_Z 96
_cell_length_a 29.952754
_cell_length_b 9.091558
_cell_length_c 20.400316
_cell_angle_alpha 90.000000
_cell_angle_beta 90.000000
_cell_angle_gamma 90.000000
_cell_volume 5555.356937
_symmetry_space_group_name_H-M "I M M A"
_symmetry_group_IT_number 74
_symmetry_cell_setting 'orthorhombic'
loop_
_space_group_symop_operation_xyz
x,y,z
-x,1/2-y,z
x,-y,-z
-x,1/2+y,-z
-x,-y,-z
x,1/2+y,-z
-x,y,z
x,1/2-y,z
1/2+x,1/2+y,1/2+z
1/2-x,-y,1/2+z
1/2+x,1/2-y,1/2-z
1/2-x,y,1/2-z
1/2-x,1/2-y,1/2-z
1/2+x,y,1/2-z
1/2-x,1/2+y,1/2+z
1/2+x,-y,1/2+z
loop_
_atom_site_type_symbol
_atom_site_label
_atom_site_fract_x
_atom_site_fract_y
_atom_site_fract_z
Si Si1 0.951664 0.415779 0.391221
Si Si2 0.133556 0.580146 0.384714
Si Si3 0.221383 0.576844 0.814265
Si Si4 0.950795 0.083894 0.235444
Si Si5 0.770278 0.423973 0.566388
Si Si6 0.635653 0.423251 0.734184
O O1 0.946392 0.250000 0.416154
O O2 0.909318 0.504565 0.418924
O O3 0.951077 0.423568 0.313340
O O4 0.000000 0.478637 0.415707
O O5 0.122547 0.750000 0.385319
O O6 0.177388 0.539541 0.425525
O O7 0.141233 0.529093 0.309891
O O8 0.219198 0.750000 0.828440
O O9 0.250000 0.540729 0.750000
O O10 0.243360 0.493615 0.874462
O O11 0.171959 0.512559 0.806881
O O12 0.939752 0.250000 0.212569
O O13 0.000000 0.036914 0.209125
O O14 0.913213 0.972805 0.207999
O O15 0.753358 0.500000 0.500000
O O16 0.761519 0.250000 0.564345
O O17 0.642105 0.250000 0.723391
#
# Coordination Sequence:
#
# PCOD8297594 Si02
#       6
#    16  16  16  16  16  16
#     4   8  14  24  40  63  90 121 159 203 249 296
#     4   9  18  30  46  68  95 127 162 205 254 301
#     4  11  22  35  54  78 102 133 173 213 257 308
#     4   8  14  25  40  62  96 133 165 201 247 298
#     4  11  23  39  55  74 102 133 170 212 260 310
#     4  10  18  29  47  72 101 132 167 209 256 301
#
# _framework density 17.280618
#
# number of rings (size 3 to 8) (size 9 to 14) (size 15 to 20)
#    0.000    2.500    1.667    2.500    0.000    3.333 
#    0.000    3.333    0.000    0.500    0.000    0.000 
#    0.000    0.667    0.000    2.500    0.000    3.833 
#
# Total GULP energy -595011.287140 kJ/mol
# GULP energy per Si atom -12396.068482 kJ/mol
# Density = 1.724129 g / cm^3
# Si number density = 17.280618 Si / 1000 Ang^3
#
#
#
# Elastic Constant Matrix: (Units=GPa)
#
#
# Indices 1 2 3 4 5 6 
#
# 1 103.5691 60.9326 38.4720 0.0000 0.0000 0.0000
# 2 60.9326 82.6222 40.4363 0.0000 0.0000 0.0000
# 3 38.4720 40.4363 63.4431 0.0000 0.0000 0.0000
# 4 0.0000 0.0000 0.0000 19.2794 0.0000 0.0000
# 5 0.0000 0.0000 0.0000 0.0000 7.5879 0.0000
# 6 0.0000 0.0000 0.0000 0.0000 0.0000 36.7260
#
#
#
# Elastic Compliance Matrix: (Units=1/GPa)
#
#
# Indices 1 2 3 4 5 6 
#
# 1 0.017569 -0.011253 -0.003482 0.000000 0.000000 0.000000
# 2 -0.011253 0.024798 -0.008981 0.000000 0.000000 0.000000
# 3 -0.003482 -0.008981 0.023598 0.000000 0.000000 0.000000
# 4 0.000000 0.000000 0.000000 0.051869 0.000000 0.000000
# 5 0.000000 0.000000 0.000000 0.000000 0.131789 0.000000
# 6 0.000000 0.000000 0.000000 0.000000 0.000000 0.027229
#
#
# Mechanical properties :
#
#
# Convention : Reuss Voigt Hill
#
# Bulk Modulus (GPa) = 53.95879 58.81290 56.38585
# Shear Modulus (GPa) = 15.13040 20.03823 17.58432
#
# Velocity S-wave (km/s) = 2.96221 3.40895 3.19341
# Velocity P-wave (km/s) = 6.55686 7.04291 6.80423
#
# Compressibility (1/GPa) = 0.01853266
#
# Stress axis : x y z
#
# Youngs Moduli (GPa) = 56.91790 40.32625 42.37672
#
# Poissons Ratio (x) = 0.45379 0.14754
# Poissons Ratio (y) = 0.64050 0.38060
# Poissons Ratio (z) = 0.19817 0.36218
#
# Static dielectric constant tensor:
#      x y z
#    x 3.671480 0.000000 0.000000 
#    y 0.000000 3.273700 0.000000 
#    z 0.000000 0.000000 2.769040 
# 
# 
# High freq. dielectric constant tensor:
#      x y z
#    x 1.679850 0.000000 0.000000 
#    y 0.000000 1.672980 0.000000 
#    z 0.000000 0.000000 1.608760 
# 
# From -- ./inp_files/55028.got.cif
#   From: 2010.03.12/outbox.cif.g09.slc.cpg/sg74_28_cif.got.tgz:55028.got - 2010.04.16 15:46:19.
