data_PCOD8297324
_publ_section_title
;
Structure prediction by ZEFSAII (Michael W. Deem and Ramdas Pophale) SiO2 
 PCOD8297324
Probable space group: I M M A
;
_chemical_formula_sum "Si O2"
_cell_formula_units_Z 96
_cell_length_a 18.210050
_cell_length_b 10.876468
_cell_length_c 25.922405
_cell_angle_alpha 90.000000
_cell_angle_beta 90.000000
_cell_angle_gamma 90.000000
_cell_volume 5134.218133
_symmetry_space_group_name_H-M "I M M A"
_symmetry_group_IT_number 74
_symmetry_cell_setting 'orthorhombic'
loop_
_space_group_symop_operation_xyz
x,y,z
-x,1/2-y,z
x,-y,-z
-x,1/2+y,-z
-x,-y,-z
x,1/2+y,-z
-x,y,z
x,1/2-y,z
1/2+x,1/2+y,1/2+z
1/2-x,-y,1/2+z
1/2+x,1/2-y,1/2-z
1/2-x,y,1/2-z
1/2-x,1/2-y,1/2-z
1/2+x,y,1/2-z
1/2-x,1/2+y,1/2+z
1/2+x,-y,1/2+z
loop_
_atom_site_type_symbol
_atom_site_label
_atom_site_fract_x
_atom_site_fract_y
_atom_site_fract_z
Si Si1 0.913807 0.750000 0.081310
Si Si2 0.916852 0.984297 0.922121
Si Si3 0.412581 0.750000 0.303357
Si Si4 0.420029 0.109336 0.207336
Si Si5 0.225803 0.387739 0.037224
Si Si6 0.719676 0.607475 0.850695
Si Si7 0.365754 0.993497 0.691877
O O1 0.891308 0.880010 0.054837
O O2 0.881286 0.750000 0.138411
O O3 0.000000 0.750000 0.088180
O O4 0.914807 0.983748 0.860015
O O5 0.000000 0.952047 0.939572
O O6 0.860306 0.888627 0.946511
O O7 0.500000 0.750000 0.296934
O O8 0.378070 0.874366 0.279758
O O9 0.500000 0.044053 0.199724
O O10 0.429215 0.250000 0.192309
O O11 0.358479 0.053706 0.168744
O O12 0.394308 0.104492 0.266838
O O13 0.240043 0.250000 0.013729
O O14 0.275327 0.408238 0.087841
O O15 0.247795 0.500000 0.000000
O O16 0.730348 0.750000 0.835056
O O17 0.781086 0.528285 0.821451
#
# Coordination Sequence:
#
# PCOD8297324 Si02
#       7
#     8  16   8  16  16  16  16
#     4   7  12  24  42  63  89 130 172 205 240 276
#     4   9  17  29  46  70 102 137 173 210 247 294
#     4   9  16  26  41  65 102 142 181 215 237 272
#     4  10  19  31  52  79 104 134 170 206 250 305
#     4  10  22  37  54  73  95 128 168 213 269 312
#     4   9  19  36  53  74 105 132 163 213 261 302
#     4  10  17  29  49  74 106 144 177 202 242 294
#
# _framework density 18.698076
#
# number of rings (size 3 to 8) (size 9 to 14) (size 15 to 20)
#    0.000    2.667    0.000    3.500    1.167    2.667 
#    1.500    1.667    0.000    0.500    0.000    0.000 
#    0.000    0.000    0.000    0.000    0.000    0.000 
#
# Total GULP energy -594720.601274 kJ/mol
# GULP energy per Si atom -12390.012527 kJ/mol
# Density = 1.865552 g / cm^3
# Si number density = 18.698076 Si / 1000 Ang^3
#
#
#
# Elastic Constant Matrix: (Units=GPa)
#
#
# Indices 1 2 3 4 5 6 
#
# 1 113.2572 38.1834 40.7111 0.0000 0.0000 0.0000
# 2 38.1834 78.2363 34.0310 0.0000 0.0000 0.0000
# 3 40.7111 34.0310 67.0720 0.0000 0.0000 0.0000
# 4 0.0000 0.0000 0.0000 23.6402 0.0000 0.0000
# 5 0.0000 0.0000 0.0000 0.0000 7.7637 0.0000
# 6 0.0000 0.0000 0.0000 0.0000 0.0000 17.8460
#
#
#
# Elastic Compliance Matrix: (Units=1/GPa)
#
#
# Indices 1 2 3 4 5 6 
#
# 1 0.011975 -0.003443 -0.005522 0.000000 0.000000 0.000000
# 2 -0.003443 0.017391 -0.006734 0.000000 0.000000 0.000000
# 3 -0.005522 -0.006734 0.021678 0.000000 0.000000 0.000000
# 4 0.000000 0.000000 0.000000 0.042301 0.000000 0.000000
# 5 0.000000 0.000000 0.000000 0.000000 0.128805 0.000000
# 6 0.000000 0.000000 0.000000 0.000000 0.000000 0.056035
#
#
# Mechanical properties :
#
#
# Convention : Reuss Voigt Hill
#
# Bulk Modulus (GPa) = 50.89969 53.82404 52.36187
# Shear Modulus (GPa) = 15.81621 19.55931 17.68776
#
# Velocity S-wave (km/s) = 2.91155 3.23779 3.07899
# Velocity P-wave (km/s) = 6.21158 6.54417 6.38004
#
# Compressibility (1/GPa) = 0.01964648
#
# Stress axis : x y z
#
# Youngs Moduli (GPa) = 83.50783 57.50014 46.12990
#
# Poissons Ratio (x) = 0.19795 0.25472
# Poissons Ratio (y) = 0.28748 0.31066
# Poissons Ratio (z) = 0.46112 0.38723
#
# Static dielectric constant tensor:
#      x y z
#    x 3.474600 0.000000 0.000000 
#    y 0.000000 3.705670 0.000000 
#    z 0.000000 0.000000 3.261020 
# 
# 
# High freq. dielectric constant tensor:
#      x y z
#    x 1.699830 0.000000 0.000000 
#    y 0.000000 1.721870 0.000000 
#    z 0.000000 0.000000 1.702840 
# 
# From -- ./inp_files/60838.got.cif
#   From: 2010.03.12/outbox.cif.g09.slc.cpg/sg74_31_cif.got.tgz:60838.got - 2010.04.16 15:46:19.
