data_PCOD8297268
_publ_section_title
;
Structure prediction by ZEFSAII (Michael W. Deem and Ramdas Pophale) SiO2 
 PCOD8297268
Probable space group: I M M A
;
_chemical_formula_sum "Si O2"
_cell_formula_units_Z 80
_cell_length_a 23.608286
_cell_length_b 8.821107
_cell_length_c 24.646514
_cell_angle_alpha 90.000000
_cell_angle_beta 90.000000
_cell_angle_gamma 90.000000
_cell_volume 5132.666533
_symmetry_space_group_name_H-M "I M M A"
_symmetry_group_IT_number 74
_symmetry_cell_setting 'orthorhombic'
loop_
_space_group_symop_operation_xyz
x,y,z
-x,1/2-y,z
x,-y,-z
-x,1/2+y,-z
-x,-y,-z
x,1/2+y,-z
-x,y,z
x,1/2-y,z
1/2+x,1/2+y,1/2+z
1/2-x,-y,1/2+z
1/2+x,1/2-y,1/2-z
1/2-x,y,1/2-z
1/2-x,1/2-y,1/2-z
1/2+x,y,1/2-z
1/2-x,1/2+y,1/2+z
1/2+x,-y,1/2+z
loop_
_atom_site_type_symbol
_atom_site_label
_atom_site_fract_x
_atom_site_fract_y
_atom_site_fract_z
Si Si1 0.753569 0.070712 0.446220
Si Si2 0.936282 0.071037 0.664434
Si Si3 0.623076 0.569870 0.054480
Si Si4 0.339303 0.070630 0.229293
Si Si5 0.227988 0.428313 0.170294
O O1 0.759056 0.250000 0.453239
O O2 0.717050 0.026821 0.392581
O O3 0.724093 0.000000 0.500000
O O4 0.815055 0.999972 0.438319
O O5 0.934087 0.250000 0.668714
O O6 0.914438 0.018300 0.605479
O O7 0.000000 0.009928 0.672087
O O8 0.898192 0.004467 0.712561
O O9 0.627433 0.750000 0.049214
O O10 0.594949 0.500000 0.000000
O O11 0.346730 0.250000 0.225168
O O12 0.288904 0.008706 0.190397
O O13 0.323356 0.017147 0.290896
O O14 0.232850 0.250000 0.177063
#
# Coordination Sequence:
#
# PCOD8297268 Si02
#       5
#    16  16  16  16  16
#     4  10  17  27  43  64  89 115 140 173 214 254
#     4  10  21  34  44  59  87 116 143 183 227 257
#     4  10  19  30  43  58  80 112 149 186 218 250
#     4   9  16  30  48  65  82 109 147 178 212 258
#     4   8  15  27  46  66  87 110 137 178 218 253
#
# _framework density 15.58644
#
# number of rings (size 3 to 8) (size 9 to 14) (size 15 to 20)
#    0.000    2.600    2.000    3.600    0.000    1.600 
#    0.000    4.000    0.000    0.000    0.000    0.000 
#    0.000    0.800    0.000    1.800    0.000    3.200 
#
# Total GULP energy -495695.977338 kJ/mol
# GULP energy per Si atom -12392.399433 kJ/mol
# Density = 1.555096 g / cm^3
# Si number density = 15.586440 Si / 1000 Ang^3
#
#
#
# Elastic Constant Matrix: (Units=GPa)
#
#
# Indices 1 2 3 4 5 6 
#
# 1 70.2898 18.3969 64.1060 0.0000 0.0000 0.0000
# 2 18.3969 39.7138 33.8189 0.0000 0.0000 0.0000
# 3 64.1060 33.8189 152.4070 0.0000 0.0000 0.0000
# 4 0.0000 0.0000 0.0000 23.4304 0.0000 0.0000
# 5 0.0000 0.0000 0.0000 0.0000 23.5852 0.0000
# 6 0.0000 0.0000 0.0000 0.0000 0.0000 17.2423
#
#
#
# Elastic Compliance Matrix: (Units=1/GPa)
#
#
# Indices 1 2 3 4 5 6 
#
# 1 0.023373 -0.003027 -0.009159 0.000000 0.000000 0.000000
# 2 -0.003027 0.031439 -0.005703 0.000000 0.000000 0.000000
# 3 -0.009159 -0.005703 0.011679 0.000000 0.000000 0.000000
# 4 0.000000 0.000000 0.000000 0.042680 0.000000 0.000000
# 5 0.000000 0.000000 0.000000 0.000000 0.042400 0.000000
# 6 0.000000 0.000000 0.000000 0.000000 0.000000 0.057997
#
#
# Mechanical properties :
#
#
# Convention : Reuss Voigt Hill
#
# Bulk Modulus (GPa) = 32.56059 55.00603 43.78331
# Shear Modulus (GPa) = 19.56309 22.59084 21.07696
#
# Velocity S-wave (km/s) = 3.54663 3.81122 3.68130
# Velocity P-wave (km/s) = 6.14061 7.39829 6.79860
#
# Compressibility (1/GPa) = 0.03071197
#
# Stress axis : x y z
#
# Youngs Moduli (GPa) = 42.78496 31.80771 85.62028
#
# Poissons Ratio (x) = 0.09629 0.78423
# Poissons Ratio (y) = 0.12952 0.48828
# Poissons Ratio (z) = 0.39188 0.18140
#
# Static dielectric constant tensor:
#      x y z
#    x 2.747420 0.000000 0.000000 
#    y 0.000000 2.837800 0.000000 
#    z 0.000000 0.000000 3.498060 
# 
# 
# High freq. dielectric constant tensor:
#      x y z
#    x 1.549420 0.000000 0.000000 
#    y 0.000000 1.589550 0.000000 
#    z 0.000000 0.000000 1.608580 
# 
# From -- ./inp_files/62564.got.cif
#   From: 2010.03.12/outbox.cif.g09.slc.cpg/sg74_32_cif.got.tgz:62564.got - 2010.04.16 15:46:19.
