data_PCOD8297934
_publ_section_title
;
Structure prediction by ZEFSAII (Michael W. Deem and Ramdas Pophale) SiO2 
 PCOD8297934
Probable space group: I M M A
;
_chemical_formula_sum "Si O2"
_cell_formula_units_Z 72
_cell_length_a 8.601526
_cell_length_b 33.040594
_cell_length_c 14.417162
_cell_angle_alpha 90.000000
_cell_angle_beta 90.000000
_cell_angle_gamma 90.000000
_cell_volume 4097.350640
_symmetry_space_group_name_H-M "I M M A"
_symmetry_group_IT_number 74
_symmetry_cell_setting 'orthorhombic'
loop_
_space_group_symop_operation_xyz
x,y,z
-x,1/2-y,z
x,-y,-z
-x,1/2+y,-z
-x,-y,-z
x,1/2+y,-z
-x,y,z
x,1/2-y,z
1/2+x,1/2+y,1/2+z
1/2-x,-y,1/2+z
1/2+x,1/2-y,1/2-z
1/2-x,y,1/2-z
1/2-x,1/2-y,1/2-z
1/2+x,y,1/2-z
1/2-x,1/2+y,1/2+z
1/2+x,-y,1/2+z
loop_
_atom_site_type_symbol
_atom_site_label
_atom_site_fract_x
_atom_site_fract_y
_atom_site_fract_z
Si Si1 0.669556 0.517621 0.101234
Si Si2 0.815443 0.568006 0.655212
Si Si3 0.182478 0.167839 0.648065
Si Si4 0.315979 0.250000 0.647111
Si Si5 0.180735 0.904918 0.037460
O O1 0.500000 0.532853 0.136950
O O2 0.731370 0.479723 0.161111
O O3 0.788567 0.555082 0.100249
O O4 0.646873 0.500000 0.000000
O O5 0.750000 0.587967 0.750000
O O6 0.733718 0.589376 0.568387
O O7 0.000000 0.573736 0.646182
O O8 0.250000 0.159159 0.750000
O O9 0.252602 0.208699 0.600912
O O10 0.221845 0.131589 0.579425
O O11 0.000000 0.172932 0.658090
O O12 0.500000 0.250000 0.645404
O O13 0.250000 0.250000 0.750000
O O14 0.000000 0.894578 0.041232
#
# Coordination Sequence:
#
# PCOD8297934 Si02
#       5
#    16  16  16   8  16
#     4   8  16  31  47  64  91 125 161 203 248 291
#     4  10  20  34  51  71  97 132 172 213 255 299
#     4  11  21  35  53  75 103 134 166 201 245 296
#     4  10  18  32  52  76 103 130 161 196 240 296
#     4  11  21  33  50  74 102 132 168 210 253 297
#
# _framework density 17.572330999999998
#
# number of rings (size 3 to 8) (size 9 to 14) (size 15 to 20)
#    0.000    2.000    0.000    8.333    0.000    5.778 
#    0.000    2.222    0.000    0.000    0.000    0.778 
#    0.000    0.000    0.000    0.000    0.000    0.000 
#
# Total GULP energy -446200.267724 kJ/mol
# GULP energy per Si atom -12394.451881 kJ/mol
# Density = 1.753234 g / cm^3
# Si number density = 17.572331 Si / 1000 Ang^3
#
#
#
# Elastic Constant Matrix: (Units=GPa)
#
#
# Indices 1 2 3 4 5 6 
#
# 1 123.4085 36.1555 25.6531 0.0000 0.0000 0.0000
# 2 36.1555 98.5889 30.4129 0.0001 0.0000 0.0000
# 3 25.6531 30.4129 67.0600 0.0004 0.0000 0.0001
# 4 0.0000 0.0001 0.0004 17.1852 0.0000 0.0001
# 5 0.0000 0.0000 0.0000 0.0000 24.2946 0.0000
# 6 0.0000 0.0000 0.0001 0.0001 0.0000 31.2802
#
#
#
# Elastic Compliance Matrix: (Units=1/GPa)
#
#
# Indices 1 2 3 4 5 6 
#
# 1 0.009389 -0.002715 -0.002360 0.000000 0.000000 0.000000
# 2 -0.002715 0.012578 -0.004666 0.000000 0.000000 0.000000
# 3 -0.002360 -0.004666 0.017931 0.000000 0.000000 0.000000
# 4 0.000000 0.000000 0.000000 0.058190 0.000000 0.000000
# 5 0.000000 0.000000 0.000000 0.000000 0.041161 0.000000
# 6 0.000000 0.000000 0.000000 0.000000 0.000000 0.031969
#
#
# Mechanical properties :
#
#
# Convention : Reuss Voigt Hill
#
# Bulk Modulus (GPa) = 48.98180 52.61118 50.79649
# Shear Modulus (GPa) = 25.31561 27.67437 26.49499
#
# Velocity S-wave (km/s) = 3.79971 3.97279 3.88721
# Velocity P-wave (km/s) = 6.86916 7.14485 7.00836
#
# Compressibility (1/GPa) = 0.02041574
#
# Stress axis : x y z
#
# Youngs Moduli (GPa) = 106.50401 79.50273 55.76947
#
# Poissons Ratio (x) = 0.21587 0.13164
# Poissons Ratio (y) = 0.28918 0.26021
# Poissons Ratio (z) = 0.25139 0.37094
#
# Static dielectric constant tensor:
#      x y z
#    x 3.352260 0.000000 0.000000 
#    y 0.000000 3.696210 0.000000 
#    z 0.000000 0.000000 3.411900 
# 
# 
# High freq. dielectric constant tensor:
#      x y z
#    x 1.696210 0.000000 0.000000 
#    y 0.000000 1.665830 0.000000 
#    z 0.000000 0.000000 1.652660 
# 
# From -- ./inp_files/29420.got.cif
#   From: 2010.03.12/outbox.cif.g09.slc.cpg/sg74_15_cif.got.tgz:29420.got - 2010.04.16 15:46:19.
