data_PCOD8297054
_publ_section_title
;
Structure prediction by ZEFSAII (Michael W. Deem and Ramdas Pophale) SiO2 
 PCOD8297054
Probable space group: I B C A 
;
_chemical_formula_sum "Si O2"
_cell_formula_units_Z 72
_cell_length_a 12.021582
_cell_length_b 23.317153
_cell_length_c 11.037493
_cell_angle_alpha 90.000000
_cell_angle_beta 90.000000
_cell_angle_gamma 90.000000
_cell_volume 3093.909363
_symmetry_space_group_name_H-M "I B C A "
_symmetry_group_IT_number 73
_symmetry_cell_setting 'orthorhombic'
loop_
_space_group_symop_operation_xyz
x,y,z
-x,1/2-y,z
x,-y,1/2-z
1/2-x,y,-z
-x,-y,-z
x,1/2+y,-z
-x,y,1/2+z
1/2+x,-y,z
1/2+x,1/2+y,1/2+z
1/2-x,-y,1/2+z
1/2+x,1/2-y,-z
-x,1/2+y,1/2-z
1/2-x,1/2-y,1/2-z
1/2+x,y,1/2-z
1/2-x,1/2+y,z
x,1/2-y,1/2+z
loop_
_atom_site_type_symbol
_atom_site_label
_atom_site_fract_x
_atom_site_fract_y
_atom_site_fract_z
Si Si1 0.287135 0.000000 0.250000
Si Si2 0.000000 0.750000 0.420023
Si Si3 0.686215 0.307905 0.776490
Si Si4 0.421920 0.856397 0.952756
Si Si5 0.250000 0.055764 0.500000
Si Si6 0.165685 0.101377 0.900295
O O1 0.222057 0.020305 0.374272
O O2 0.359219 0.054096 0.203622
O O3 0.928337 0.706332 0.341956
O O4 0.918965 0.791419 0.496290
O O5 0.750000 0.250000 0.750000
O O6 0.648329 0.350297 0.670034
O O7 0.772762 0.342103 0.856610
O O8 0.356156 0.903705 0.031410
O O9 0.547303 0.878710 0.948389
O O10 0.250000 0.073967 0.000000
#
# Coordination Sequence:
#
# PCOD8297054 Si02
#       6
#     8   8  16  16   8  16
#     4  12  28  52  80 108 154 208 272 328 392 460
#     4  12  24  42  74 110 152 204 244 314 398 472
#     4  12  25  44  72 109 157 198 255 314 392 474
#     4  12  27  46  75 112 153 202 256 321 395 473
#     4  12  28  52  78 114 154 204 270 324 398 470
#     4  12  26  50  73 109 153 201 259 328 385 466
#
# _framework density 23.271528
#
# number of rings (size 3 to 8) (size 9 to 14) (size 15 to 20)
#    0.000    0.000    5.556    4.667    3.111    1.778 
#    0.000    0.000    0.000    0.000    0.000    0.000 
#    0.000    0.000    0.000    0.000    0.000    0.000 
#
# Total GULP energy -446005.556750 kJ/mol
# GULP energy per Si atom -12389.043243 kJ/mol
# Density = 2.321856 g / cm^3
# Si number density = 23.271528 Si / 1000 Ang^3
#
#
#
# Elastic Constant Matrix: (Units=GPa)
#
#
# Indices 1 2 3 4 5 6 
#
# 1 136.2092 35.2990 31.2266 0.0000 0.0000 0.0000
# 2 35.2990 128.7893 46.3703 -0.0003 -0.0001 0.0000
# 3 31.2266 46.3703 108.8095 0.0013 -0.0005 0.0000
# 4 0.0000 -0.0003 0.0013 44.4729 -0.0003 0.0000
# 5 0.0000 -0.0001 -0.0005 -0.0003 19.2745 0.0000
# 6 0.0000 0.0000 0.0000 0.0000 0.0000 24.0101
#
#
#
# Elastic Compliance Matrix: (Units=1/GPa)
#
#
# Indices 1 2 3 4 5 6 
#
# 1 0.008143 -0.001642 -0.001637 0.000000 0.000000 0.000000
# 2 -0.001642 0.009503 -0.003579 0.000000 0.000000 0.000000
# 3 -0.001637 -0.003579 0.011185 0.000000 0.000000 0.000000
# 4 0.000000 0.000000 0.000000 0.022486 0.000000 0.000000
# 5 0.000000 0.000000 0.000000 0.000000 0.051882 0.000000
# 6 0.000000 0.000000 0.000000 0.000000 0.000000 0.041649
#
#
# Mechanical properties :
#
#
# Convention : Reuss Voigt Hill
#
# Bulk Modulus (GPa) = 66.15805 66.62220 66.39012
# Shear Modulus (GPa) = 30.56200 34.94563 32.75381
#
# Velocity S-wave (km/s) = 3.62785 3.87931 3.75569
# Velocity P-wave (km/s) = 6.78519 6.98253 6.88457
#
# Compressibility (1/GPa) = 0.01511532
#
# Stress axis : x y z
#
# Youngs Moduli (GPa) = 122.81194 105.22739 89.40406
#
# Poissons Ratio (x) = 0.17282 0.14634
# Poissons Ratio (y) = 0.20170 0.31994
# Poissons Ratio (z) = 0.20103 0.37656
#
# Static dielectric constant tensor:
#      x y z
#    x 4.130350 0.000000 -0.000010 
#    y 0.000000 4.396430 0.000000 
#    z -0.000010 0.000000 4.514460 
# 
# 
# High freq. dielectric constant tensor:
#      x y z
#    x 1.904210 0.000000 0.000000 
#    y 0.000000 1.949940 0.000000 
#    z 0.000000 0.000000 1.926020 
# 
# From -- ./inp_files/9712.got.cif
#   From: 2010.03.12/outbox.cif.g09.slc.cpg/sg73_5_cif.got.tgz:9712.got - 2010.04.16 15:25:48.
