data_PCOD8297151
_publ_section_title
;
Structure prediction by ZEFSAII (Michael W. Deem and Ramdas Pophale) SiO2 
 PCOD8297151
Probable space group: I M M A
;
_chemical_formula_sum "Si O2"
_cell_formula_units_Z 80
_cell_length_a 19.460012
_cell_length_b 26.292588
_cell_length_c 8.394826
_cell_angle_alpha 90.000000
_cell_angle_beta 90.000000
_cell_angle_gamma 90.000000
_cell_volume 4295.246957
_symmetry_space_group_name_H-M "I M M A"
_symmetry_group_IT_number 74
_symmetry_cell_setting 'orthorhombic'
loop_
_space_group_symop_operation_xyz
x,y,z
-x,1/2-y,z
x,-y,-z
-x,1/2+y,-z
-x,-y,-z
x,1/2+y,-z
-x,y,z
x,1/2-y,z
1/2+x,1/2+y,1/2+z
1/2-x,-y,1/2+z
1/2+x,1/2-y,1/2-z
1/2-x,y,1/2-z
1/2-x,1/2-y,1/2-z
1/2+x,y,1/2-z
1/2-x,1/2+y,1/2+z
1/2+x,-y,1/2+z
loop_
_atom_site_type_symbol
_atom_site_label
_atom_site_fract_x
_atom_site_fract_y
_atom_site_fract_z
Si Si1 0.201140 0.607275 0.024741
Si Si2 0.580010 0.308049 0.016792
Si Si3 0.750000 0.039778 0.250000
Si Si4 0.326959 0.692922 0.688843
Si Si5 0.848195 0.500000 0.500000
Si Si6 0.645568 0.898915 0.142988
O O1 0.279821 0.615215 0.074960
O O2 0.153455 0.587284 0.169663
O O3 0.201341 0.571358 0.869664
O O4 0.165512 0.659722 0.970243
O O5 0.500000 0.311044 0.055090
O O6 0.600567 0.250000 0.966069
O O7 0.620533 0.325039 0.174826
O O8 0.598465 0.348856 0.878971
O O9 0.800219 0.003362 0.345747
O O10 0.343847 0.750000 0.637267
O O11 0.250000 0.686272 0.750000
O O12 0.888047 0.552782 0.457318
#
# Coordination Sequence:
#
# PCOD8297151 Si02
#       6
#    16  16   8  16   8  16
#     4  10  18  30  51  80 110 139 177 226 273 320
#     4  10  21  38  57  77 107 147 183 217 269 331
#     4  10  16  28  45  74 109 140 168 220 276 324
#     4  10  17  30  52  79 107 137 178 227 269 313
#     4  10  18  30  49  76 108 142 179 220 268 322
#     4  10  20  32  51  79 108 142 180 222 272 318
#
# _framework density 18.625238
#
# number of rings (size 3 to 8) (size 9 to 14) (size 15 to 20)
#    0.000    2.000    3.000    3.600    0.000    0.800 
#    0.000    3.500    0.000    2.400    0.000    2.800 
#    0.000    0.000    0.000    0.000    0.000    0.000 
#
# Total GULP energy -495657.978943 kJ/mol
# GULP energy per Si atom -12391.449474 kJ/mol
# Density = 1.858285 g / cm^3
# Si number density = 18.625238 Si / 1000 Ang^3
#
#
#
# Elastic Constant Matrix: (Units=GPa)
#
#
# Indices 1 2 3 4 5 6 
#
# 1 51.8294 19.0886 19.7251 0.0000 0.0000 0.0000
# 2 19.0886 109.0459 47.8685 0.0000 0.0000 0.0000
# 3 19.7251 47.8685 104.4906 0.0000 0.0000 0.0000
# 4 0.0000 0.0000 0.0000 32.0971 0.0000 0.0000
# 5 0.0000 0.0000 0.0000 0.0000 15.6960 0.0000
# 6 0.0000 0.0000 0.0000 0.0000 0.0000 15.0484
#
#
#
# Elastic Compliance Matrix: (Units=1/GPa)
#
#
# Indices 1 2 3 4 5 6 
#
# 1 0.021301 -0.002458 -0.002895 0.000000 0.000000 0.000000
# 2 -0.002458 0.011762 -0.004925 0.000000 0.000000 0.000000
# 3 -0.002895 -0.004925 0.012373 0.000000 0.000000 0.000000
# 4 0.000000 0.000000 0.000000 0.031155 0.000000 0.000000
# 5 0.000000 0.000000 0.000000 0.000000 0.063710 0.000000
# 6 0.000000 0.000000 0.000000 0.000000 0.000000 0.066452
#
#
# Mechanical properties :
#
#
# Convention : Reuss Voigt Hill
#
# Bulk Modulus (GPa) = 40.19091 48.74780 44.46935
# Shear Modulus (GPa) = 21.22211 24.48054 22.85133
#
# Velocity S-wave (km/s) = 3.37920 3.62936 3.50651
# Velocity P-wave (km/s) = 6.07050 6.61762 6.34995
#
# Compressibility (1/GPa) = 0.02488125
#
# Stress axis : x y z
#
# Youngs Moduli (GPa) = 46.94586 85.01616 80.82272
#
# Poissons Ratio (x) = 0.20896 0.23399
# Poissons Ratio (y) = 0.11539 0.39802
# Poissons Ratio (z) = 0.13591 0.41867
#
# Static dielectric constant tensor:
#      x y z
#    x 2.962750 0.000000 0.000000 
#    y 0.000000 3.788250 0.000000 
#    z 0.000000 0.000000 3.595940 
# 
# 
# High freq. dielectric constant tensor:
#      x y z
#    x 1.662630 0.000000 0.000000 
#    y 0.000000 1.742910 0.000000 
#    z 0.000000 0.000000 1.722750 
# 
# From -- ./inp_files/11183.got.cif
#   From: 2010.03.12/outbox.cif.g09.slc.cpg/sg74_6_cif.got.tgz:11183.got - 2010.04.16 15:46:19.
