data_PCOD8297651
_publ_section_title
;
Structure prediction by ZEFSAII (Michael W. Deem and Ramdas Pophale) SiO2 
 PCOD8297651
Probable space group: I M M A
;
_chemical_formula_sum "Si O2"
_cell_formula_units_Z 72
_cell_length_a 10.372920
_cell_length_b 13.130596
_cell_length_c 31.719625
_cell_angle_alpha 90.000000
_cell_angle_beta 90.000000
_cell_angle_gamma 90.000000
_cell_volume 4320.296089
_symmetry_space_group_name_H-M "I M M A"
_symmetry_group_IT_number 74
_symmetry_cell_setting 'orthorhombic'
loop_
_space_group_symop_operation_xyz
x,y,z
-x,1/2-y,z
x,-y,-z
-x,1/2+y,-z
-x,-y,-z
x,1/2+y,-z
-x,y,z
x,1/2-y,z
1/2+x,1/2+y,1/2+z
1/2-x,-y,1/2+z
1/2+x,1/2-y,1/2-z
1/2-x,y,1/2-z
1/2-x,1/2-y,1/2-z
1/2+x,y,1/2-z
1/2-x,1/2+y,1/2+z
1/2+x,-y,1/2+z
loop_
_atom_site_type_symbol
_atom_site_label
_atom_site_fract_x
_atom_site_fract_y
_atom_site_fract_z
Si Si1 0.649701 0.637951 0.430688
Si Si2 0.851608 0.543164 0.873652
Si Si3 0.354240 0.367212 0.284749
Si Si4 0.640571 0.363349 0.071220
Si Si5 0.767420 0.000000 0.500000
O O1 0.500000 0.656964 0.430427
O O2 0.717906 0.750000 0.428203
O O3 0.687782 0.570293 0.389480
O O4 0.681095 0.579601 0.473946
O O5 0.833672 0.556042 0.823721
O O6 0.756262 0.621923 0.896013
O O7 0.000000 0.567938 0.886565
O O8 0.500000 0.379789 0.266869
O O9 0.332076 0.250000 0.299080
O O10 0.250000 0.399578 0.250000
O O11 0.500000 0.378164 0.093333
O O12 0.654022 0.250000 0.053077
O O13 0.643090 0.439363 0.032029
#
# Coordination Sequence:
#
# PCOD8297651 Si02
#       5
#    16  16  16  16   8
#     4   9  17  29  46  68  92 119 155 196 233 270
#     4   9  18  32  49  68  91 120 152 186 226 270
#     4   9  17  29  46  69  94 118 145 179 222 272
#     4  10  20  31  44  64  90 120 153 188 226 269
#     4  10  18  30  44  62  89 122 155 190 231 272
#
# _framework density 16.665524999999999
#
# number of rings (size 3 to 8) (size 9 to 14) (size 15 to 20)
#    0.000    2.667    0.000    2.000    0.000    3.111 
#    0.000    2.222    0.000    6.667    0.000    0.000 
#    0.000    0.000    0.000    0.000    0.000    0.000 
#
# Total GULP energy -446104.656931 kJ/mol
# GULP energy per Si atom -12391.796026 kJ/mol
# Density = 1.662759 g / cm^3
# Si number density = 16.665525 Si / 1000 Ang^3
#
#
#
# Elastic Constant Matrix: (Units=GPa)
#
#
# Indices 1 2 3 4 5 6 
#
# 1 76.6121 36.1862 50.9128 0.0000 0.0000 0.0000
# 2 36.1862 101.7360 46.1641 0.0000 0.0000 0.0000
# 3 50.9128 46.1641 95.9026 0.0000 0.0000 0.0000
# 4 0.0000 0.0000 0.0000 12.7816 0.0000 0.0000
# 5 0.0000 0.0000 0.0000 0.0000 25.4823 0.0000
# 6 0.0000 0.0000 0.0000 0.0000 0.0000 16.6933
#
#
#
# Elastic Compliance Matrix: (Units=1/GPa)
#
#
# Indices 1 2 3 4 5 6 
#
# 1 0.020891 -0.003068 -0.009613 0.000000 0.000000 0.000000
# 2 -0.003068 0.013027 -0.004642 0.000000 0.000000 0.000000
# 3 -0.009613 -0.004642 0.017765 0.000000 0.000000 0.000000
# 4 0.000000 0.000000 0.000000 0.078238 0.000000 0.000000
# 5 0.000000 0.000000 0.000000 0.000000 0.039243 0.000000
# 6 0.000000 0.000000 0.000000 0.000000 0.000000 0.059904
#
#
# Mechanical properties :
#
#
# Convention : Reuss Voigt Hill
#
# Bulk Modulus (GPa) = 58.70019 60.08633 59.39326
# Shear Modulus (GPa) = 18.56020 20.39061 19.47540
#
# Velocity S-wave (km/s) = 3.34082 3.50168 3.42219
# Velocity P-wave (km/s) = 7.08381 7.24442 7.16456
#
# Compressibility (1/GPa) = 0.01703572
#
# Stress axis : x y z
#
# Youngs Moduli (GPa) = 47.86827 76.76351 56.28964
#
# Poissons Ratio (x) = 0.23553 0.54114
# Poissons Ratio (y) = 0.14687 0.26129
# Poissons Ratio (z) = 0.46018 0.35632
#
# Static dielectric constant tensor:
#      x y z
#    x 3.159310 0.000000 0.000000 
#    y 0.000000 3.356220 0.000000 
#    z 0.000000 0.000000 2.961630 
# 
# 
# High freq. dielectric constant tensor:
#      x y z
#    x 1.642970 0.000000 0.000000 
#    y 0.000000 1.637730 0.000000 
#    z 0.000000 0.000000 1.620100 
# 
# From -- ./inp_files/65684.got.cif
#   From: 2010.03.12/outbox.cif.g09.slc.cpg/sg74_33_cif.got.tgz:65684.got - 2010.04.16 15:46:19.
