data_PCOD8297232
_publ_section_title
;
Structure prediction by ZEFSAII (Michael W. Deem and Ramdas Pophale) SiO2 
 PCOD8297232
Probable space group: I M M A
;
_chemical_formula_sum "Si O2"
_cell_formula_units_Z 88
_cell_length_a 12.915809
_cell_length_b 14.332795
_cell_length_c 31.646282
_cell_angle_alpha 90.000000
_cell_angle_beta 90.000000
_cell_angle_gamma 90.000000
_cell_volume 5858.348415
_symmetry_space_group_name_H-M "I M M A"
_symmetry_group_IT_number 74
_symmetry_cell_setting 'orthorhombic'
loop_
_space_group_symop_operation_xyz
x,y,z
-x,1/2-y,z
x,-y,-z
-x,1/2+y,-z
-x,-y,-z
x,1/2+y,-z
-x,y,z
x,1/2-y,z
1/2+x,1/2+y,1/2+z
1/2-x,-y,1/2+z
1/2+x,1/2-y,1/2-z
1/2-x,y,1/2-z
1/2-x,1/2-y,1/2-z
1/2+x,y,1/2-z
1/2-x,1/2+y,1/2+z
1/2+x,-y,1/2+z
loop_
_atom_site_type_symbol
_atom_site_label
_atom_site_fract_x
_atom_site_fract_y
_atom_site_fract_z
Si Si1 0.750000 0.058276 0.250000
Si Si2 0.377937 0.852571 0.109499
Si Si3 0.703274 0.638960 0.881833
Si Si4 0.885597 0.641538 0.822478
Si Si5 0.117754 0.006613 0.677832
Si Si6 0.877917 0.988157 0.547935
O O1 0.825655 0.119475 0.220915
O O2 0.818670 0.992142 0.279200
O O3 0.500000 0.842706 0.113644
O O4 0.326104 0.750000 0.106647
O O5 0.335980 0.908459 0.150122
O O6 0.350649 0.911866 0.068058
O O7 0.682717 0.750000 0.883314
O O8 0.818419 0.614352 0.864098
O O9 0.624563 0.590407 0.848652
O O10 0.685300 0.594642 0.928398
O O11 0.903312 0.750000 0.822543
O O12 0.000000 0.592999 0.824337
O O13 0.000000 0.023913 0.690043
O O14 0.000000 0.964558 0.551270
O O15 0.840670 0.000000 0.500000
#
# Coordination Sequence:
#
# PCOD8297232 Si02
#       6
#     8  16  16  16  16  16
#     4  10  17  26  39  58  82 106 132 168 210 242
#     4   8  14  26  41  54  73 104 135 161 195 237
#     4   9  17  28  42  60  83 111 138 163 198 245
#     4   9  17  28  41  58  81 110 142 171 201 242
#     4   9  17  27  39  57  80 105 135 168 198 236
#     4   9  17  27  40  62  88 108 131 166 203 243
#
# _framework density 15.021299000000001
#
# number of rings (size 3 to 8) (size 9 to 14) (size 15 to 20)
#    0.000    3.091    0.000    2.455    0.000    2.909 
#    0.000    2.273    0.000    0.545    0.000    0.000 
#    0.000   46.545    0.000    0.000    0.000    0.000 
#
# Total GULP energy -545173.046626 kJ/mol
# GULP energy per Si atom -12390.296514 kJ/mol
# Density = 1.498711 g / cm^3
# Si number density = 15.021299 Si / 1000 Ang^3
#
#
#
# Elastic Constant Matrix: (Units=GPa)
#
#
# Indices 1 2 3 4 5 6 
#
# 1 71.4829 23.8096 45.6734 0.0000 0.0000 0.0000
# 2 23.8096 95.0655 48.3591 0.0000 0.0000 0.0000
# 3 45.6734 48.3591 128.5104 0.0000 0.0000 0.0000
# 4 0.0000 0.0000 0.0000 17.2821 0.0000 0.0000
# 5 0.0000 0.0000 0.0000 0.0000 23.0105 0.0000
# 6 0.0000 0.0000 0.0000 0.0000 0.0000 10.9837
#
#
#
# Elastic Compliance Matrix: (Units=1/GPa)
#
#
# Indices 1 2 3 4 5 6 
#
# 1 0.018288 -0.001576 -0.005907 0.000000 0.000000 0.000000
# 2 -0.001576 0.013145 -0.004387 0.000000 0.000000 0.000000
# 3 -0.005907 -0.004387 0.011532 0.000000 0.000000 0.000000
# 4 0.000000 0.000000 0.000000 0.057863 0.000000 0.000000
# 5 0.000000 0.000000 0.000000 0.000000 0.043458 0.000000
# 6 0.000000 0.000000 0.000000 0.000000 0.000000 0.091044
#
#
# Mechanical properties :
#
#
# Convention : Reuss Voigt Hill
#
# Bulk Modulus (GPa) = 52.01076 58.97144 55.49110
# Shear Modulus (GPa) = 18.83398 22.06970 20.45184
#
# Velocity S-wave (km/s) = 3.54477 3.83721 3.69388
# Velocity P-wave (km/s) = 7.17312 7.67958 7.43067
#
# Compressibility (1/GPa) = 0.01922679
#
# Stress axis : x y z
#
# Youngs Moduli (GPa) = 54.67967 76.07390 86.71888
#
# Poissons Ratio (x) = 0.11986 0.51224
# Poissons Ratio (y) = 0.08615 0.38040
# Poissons Ratio (z) = 0.32299 0.33370
#
# Static dielectric constant tensor:
#      x y z
#    x 2.975480 0.000000 0.000000 
#    y 0.000000 3.011030 0.000000 
#    z 0.000000 0.000000 2.938330 
# 
# 
# High freq. dielectric constant tensor:
#      x y z
#    x 1.547610 0.000000 0.000000 
#    y 0.000000 1.562580 0.000000 
#    z 0.000000 0.000000 1.574120 
# 
# From -- ./inp_files/71735.got.cif
#   From: 2010.03.12/outbox.cif.g09.slc.cpg/sg74_36_cif.got.tgz:71735.got - 2010.04.16 15:46:19.
