data_PCOD8297149
_publ_section_title
;
Structure prediction by ZEFSAII (Michael W. Deem and Ramdas Pophale) SiO2 
 PCOD8297149
Probable space group: I M M A
;
_chemical_formula_sum "Si O2"
_cell_formula_units_Z 128
_cell_length_a 20.671339
_cell_length_b 17.559301
_cell_length_c 21.493850
_cell_angle_alpha 90.000000
_cell_angle_beta 90.000000
_cell_angle_gamma 90.000000
_cell_volume 7801.714375
_symmetry_space_group_name_H-M "I M M A"
_symmetry_group_IT_number 74
_symmetry_cell_setting 'orthorhombic'
loop_
_space_group_symop_operation_xyz
x,y,z
-x,1/2-y,z
x,-y,-z
-x,1/2+y,-z
-x,-y,-z
x,1/2+y,-z
-x,y,z
x,1/2-y,z
1/2+x,1/2+y,1/2+z
1/2-x,-y,1/2+z
1/2+x,1/2-y,1/2-z
1/2-x,y,1/2-z
1/2-x,1/2-y,1/2-z
1/2+x,y,1/2-z
1/2-x,1/2+y,1/2+z
1/2+x,-y,1/2+z
loop_
_atom_site_type_symbol
_atom_site_label
_atom_site_fract_x
_atom_site_fract_y
_atom_site_fract_z
Si Si1 0.197494 0.582302 0.473191
Si Si2 0.899462 0.335341 0.373551
Si Si3 0.133419 0.585085 0.872499
Si Si4 0.258627 0.834898 0.906754
Si Si5 0.925749 0.160584 0.008778
Si Si6 0.927629 0.836679 0.760016
Si Si7 0.332309 0.445759 0.560004
Si Si8 0.927499 0.840183 0.489955
O O1 0.180030 0.500000 0.500000
O O2 0.224815 0.640133 0.524005
O O3 0.257437 0.578276 0.423399
O O4 0.128811 0.618168 0.448738
O O5 0.926680 0.250000 0.376222
O O6 0.822461 0.338107 0.364977
O O7 0.927248 0.371909 0.310117
O O8 0.922002 0.373109 0.438803
O O9 0.207520 0.609456 0.876562
O O10 0.110636 0.604869 0.803509
O O11 0.134189 0.493613 0.884159
O O12 0.089220 0.627813 0.923024
O O13 0.229563 0.750000 0.909587
O O14 0.913249 0.250000 0.009540
O O15 0.878773 0.124946 0.956293
O O16 0.000000 0.141021 0.992079
O O17 0.898343 0.750000 0.761615
O O18 0.000000 0.833922 0.785446
O O19 0.326434 0.500000 0.500000
O O20 0.913921 0.750000 0.488653
O O21 0.000000 0.858567 0.464673
#
# Coordination Sequence:
#
# PCOD8297149 Si02
#       8
#    16  16  16  16  16  16  16  16
#     4  10  16  28  42  59  81 109 144 177 215 254
#     4   8  16  28  42  59  82 112 144 178 212 243
#     4  11  19  28  40  59  82 111 144 182 218 253
#     4  10  17  27  44  62  81 111 147 183 211 245
#     4  10  19  29  42  59  79 107 146 186 219 257
#     4  10  19  29  41  58  83 115 149 183 215 249
#     4   9  18  30  41  57  80 111 143 178 222 260
#     4   9  17  28  44  65  87 113 145 178 212 251
#
# _framework density 16.406649999999999
#
# number of rings (size 3 to 8) (size 9 to 14) (size 15 to 20)
#    0.000    2.375    3.750    3.000    0.000    6.500 
#    0.000    1.875    0.000    0.000    0.000    0.000 
#    0.000    0.000    0.000   11.250    0.250   35.625 
#
# Total GULP energy -792894.037749 kJ/mol
# GULP energy per Si atom -12388.969340 kJ/mol
# Density = 1.636931 g / cm^3
# Si number density = 16.406650 Si / 1000 Ang^3
#
#
#
# Elastic Constant Matrix: (Units=GPa)
#
#
# Indices 1 2 3 4 5 6 
#
# 1 111.3752 38.1048 7.3175 0.0000 0.0000 0.0000
# 2 38.1048 58.4587 12.9165 0.0000 0.0000 0.0000
# 3 7.3175 12.9165 27.3810 0.0000 0.0000 0.0000
# 4 0.0000 0.0000 0.0000 10.2586 0.0000 0.0000
# 5 0.0000 0.0000 0.0000 0.0000 4.0193 0.0000
# 6 0.0000 0.0000 0.0000 0.0000 0.0000 22.0229
#
#
#
# Elastic Compliance Matrix: (Units=1/GPa)
#
#
# Indices 1 2 3 4 5 6 
#
# 1 0.011562 -0.007651 0.000519 0.000000 0.000000 0.000000
# 2 -0.007651 0.024160 -0.009352 0.000000 0.000000 0.000000
# 3 0.000519 -0.009352 0.040794 0.000000 0.000000 0.000000
# 4 0.000000 0.000000 0.000000 0.097480 0.000000 0.000000
# 5 0.000000 0.000000 0.000000 0.000000 0.248800 0.000000
# 6 0.000000 0.000000 0.000000 0.000000 0.000000 0.045407
#
#
# Mechanical properties :
#
#
# Convention : Reuss Voigt Hill
#
# Bulk Modulus (GPa) = 22.96295 34.87696 28.91995
# Shear Modulus (GPa) = 9.69579 16.51857 13.10718
#
# Velocity S-wave (km/s) = 2.43362 3.17649 2.82954
# Velocity P-wave (km/s) = 4.68222 5.89554 5.32356
#
# Compressibility (1/GPa) = 0.04354841
#
# Stress axis : x y z
#
# Youngs Moduli (GPa) = 86.48818 41.39120 24.51312
#
# Poissons Ratio (x) = 0.31670 -0.01273
# Poissons Ratio (y) = 0.66175 0.22925
# Poissons Ratio (z) = -0.04492 0.38709
#
# Static dielectric constant tensor:
#      x y z
#    x 3.666780 0.000000 0.000000 
#    y 0.000000 3.108740 0.000000 
#    z 0.000000 0.000000 2.722510 
# 
# 
# High freq. dielectric constant tensor:
#      x y z
#    x 1.655860 0.000000 0.000000 
#    y 0.000000 1.609810 0.000000 
#    z 0.000000 0.000000 1.563920 
# 
# From -- ./inp_files/61778.got.cif
#   From: 2010.03.12/outbox.cif.g09.slc.cpg/sg74_31_cif.got.tgz:61778.got - 2010.04.16 15:46:19.
