data_PCOD8297440
_publ_section_title
;
Structure prediction by ZEFSAII (Michael W. Deem and Ramdas Pophale) SiO2 
 PCOD8297440
Probable space group: I M M A
;
_chemical_formula_sum "Si O2"
_cell_formula_units_Z 80
_cell_length_a 28.147748
_cell_length_b 9.310787
_cell_length_c 18.138464
_cell_angle_alpha 90.000000
_cell_angle_beta 90.000000
_cell_angle_gamma 90.000000
_cell_volume 4753.686676
_symmetry_space_group_name_H-M "I M M A"
_symmetry_group_IT_number 74
_symmetry_cell_setting 'orthorhombic'
loop_
_space_group_symop_operation_xyz
x,y,z
-x,1/2-y,z
x,-y,-z
-x,1/2+y,-z
-x,-y,-z
x,1/2+y,-z
-x,y,z
x,1/2-y,z
1/2+x,1/2+y,1/2+z
1/2-x,-y,1/2+z
1/2+x,1/2-y,1/2-z
1/2-x,y,1/2-z
1/2-x,1/2-y,1/2-z
1/2+x,y,1/2-z
1/2-x,1/2+y,1/2+z
1/2+x,-y,1/2+z
loop_
_atom_site_type_symbol
_atom_site_label
_atom_site_fract_x
_atom_site_fract_y
_atom_site_fract_z
Si Si1 0.406775 0.082691 0.571519
Si Si2 0.051946 0.079235 0.774712
Si Si3 0.808119 0.918309 0.139539
Si Si4 0.351852 0.079386 0.788443
Si Si5 0.290307 0.421003 0.924836
O O1 0.414212 0.250000 0.557364
O O2 0.437031 0.030203 0.641780
O O3 0.351392 0.046105 0.584916
O O4 0.425448 0.000000 0.500000
O O5 0.051580 0.250000 0.772317
O O6 0.093700 0.022007 0.720324
O O7 0.000000 0.018500 0.750966
O O8 0.800388 0.750000 0.147960
O O9 0.819466 0.981674 0.221127
O O10 0.759803 0.982644 0.105613
O O11 0.352073 0.250000 0.781021
O O12 0.330776 0.031831 0.866595
O O13 0.289286 0.250000 0.937299
O O14 0.303479 0.500000 0.000000
#
# Coordination Sequence:
#
# PCOD8297440 Si02
#       5
#    16  16  16  16  16
#     4   9  16  25  38  58  84 110 133 160 195 233
#     4   8  14  25  41  60  79 100 132 173 206 229
#     4   8  14  25  41  60  81 107 139 167 189 222
#     4   8  14  25  42  61  78 102 138 171 195 227
#     4  10  18  27  42  63  85 107 131 163 201 238
#
# _framework density 16.829044
#
# number of rings (size 3 to 8) (size 9 to 14) (size 15 to 20)
#    0.000    3.400    0.000    3.600    0.000    2.800 
#    0.000    0.000    0.000    7.800    0.000    0.000 
#    0.000    0.000    0.000    0.000    0.000    0.000 
#
# Total GULP energy -495631.173855 kJ/mol
# GULP energy per Si atom -12390.779346 kJ/mol
# Density = 1.679074 g / cm^3
# Si number density = 16.829044 Si / 1000 Ang^3
#
#
#
# Elastic Constant Matrix: (Units=GPa)
#
#
# Indices 1 2 3 4 5 6 
#
# 1 121.6196 11.2404 55.6208 0.0000 0.0000 0.0000
# 2 11.2404 13.7049 19.3007 0.0000 0.0000 0.0000
# 3 55.6208 19.3007 105.4027 0.0000 0.0000 0.0000
# 4 0.0000 0.0000 0.0000 23.7042 0.0000 0.0000
# 5 0.0000 0.0000 0.0000 0.0000 14.5146 0.0000
# 6 0.0000 0.0000 0.0000 0.0000 0.0000 8.2218
#
#
#
# Elastic Compliance Matrix: (Units=1/GPa)
#
#
# Indices 1 2 3 4 5 6 
#
# 1 0.010851 -0.001126 -0.005520 0.000000 0.000000 0.000000
# 2 -0.001126 0.098439 -0.017431 0.000000 0.000000 0.000000
# 3 -0.005520 -0.017431 0.015592 0.000000 0.000000 0.000000
# 4 0.000000 0.000000 0.000000 0.042187 0.000000 0.000000
# 5 0.000000 0.000000 0.000000 0.000000 0.068896 0.000000
# 6 0.000000 0.000000 0.000000 0.000000 0.000000 0.121628
#
#
# Mechanical properties :
#
#
# Convention : Reuss Voigt Hill
#
# Bulk Modulus (GPa) = 13.03313 45.89455 29.46384
# Shear Modulus (GPa) = 11.59224 19.59246 15.59235
#
# Velocity S-wave (km/s) = 2.62739 3.41575 3.04717
# Velocity P-wave (km/s) = 4.11892 6.54879 5.47047
#
# Compressibility (1/GPa) = 0.07672752
#
# Stress axis : x y z
#
# Youngs Moduli (GPa) = 92.15908 10.15859 64.13511
#
# Poissons Ratio (x) = 0.01144 0.35401
# Poissons Ratio (y) = 0.10378 1.11796
# Poissons Ratio (z) = 0.50869 0.17708
#
# Static dielectric constant tensor:
#      x y z
#    x 3.620350 0.000000 0.000000 
#    y 0.000000 2.527930 0.000000 
#    z 0.000000 0.000000 3.143520 
# 
# 
# High freq. dielectric constant tensor:
#      x y z
#    x 1.653700 0.000000 0.000000 
#    y 0.000000 1.580540 0.000000 
#    z 0.000000 0.000000 1.639140 
# 
# From -- ./inp_files/18975.got.cif
#   From: 2010.03.12/outbox.cif.g09.slc.cpg/sg74_10_cif.got.tgz:18975.got - 2010.04.16 15:46:19.
