data_PCOD8297212
_publ_section_title
;
Structure prediction by ZEFSAII (Michael W. Deem and Ramdas Pophale) SiO2 
 PCOD8297212
Probable space group: I M M A
;
_chemical_formula_sum "Si O2"
_cell_formula_units_Z 80
_cell_length_a 8.772336
_cell_length_b 28.880907
_cell_length_c 23.010363
_cell_angle_alpha 90.000000
_cell_angle_beta 90.000000
_cell_angle_gamma 90.000000
_cell_volume 5829.744962
_symmetry_space_group_name_H-M "I M M A"
_symmetry_group_IT_number 74
_symmetry_cell_setting 'orthorhombic'
loop_
_space_group_symop_operation_xyz
x,y,z
-x,1/2-y,z
x,-y,-z
-x,1/2+y,-z
-x,-y,-z
x,1/2+y,-z
-x,y,z
x,1/2-y,z
1/2+x,1/2+y,1/2+z
1/2-x,-y,1/2+z
1/2+x,1/2-y,1/2-z
1/2-x,y,1/2-z
1/2-x,1/2-y,1/2-z
1/2+x,y,1/2-z
1/2-x,1/2+y,1/2+z
1/2+x,-y,1/2+z
loop_
_atom_site_type_symbol
_atom_site_label
_atom_site_fract_x
_atom_site_fract_y
_atom_site_fract_z
Si Si1 0.321469 0.697857 0.809836
Si Si2 0.325586 0.879387 0.620802
Si Si3 0.179913 0.026906 0.186782
Si Si4 0.177743 0.437096 0.015558
Si Si5 0.679978 0.520924 0.084655
O O1 0.500000 0.696635 0.802129
O O2 0.263520 0.750000 0.823021
O O3 0.250000 0.679006 0.750000
O O4 0.274861 0.664834 0.862783
O O5 0.500000 0.867145 0.634120
O O6 0.275413 0.923938 0.658382
O O7 0.300827 0.889493 0.551823
O O8 0.250000 0.024339 0.250000
O O9 0.251366 0.984735 0.149225
O O10 0.000000 0.020169 0.189113
O O11 0.243990 0.434887 0.949576
O O12 0.000000 0.451274 0.015602
O O13 0.275295 0.475614 0.048708
O O14 0.500000 0.527713 0.088249
#
# Coordination Sequence:
#
# PCOD8297212 Si02
#       5
#    16  16  16  16  16
#     4  10  20  31  42  55  72  95 122 154 192 231
#     4   9  18  29  42  57  72  93 121 155 192 226
#     4  10  19  29  39  54  75  98 125 156 189 222
#     4   9  16  27  40  54  72  93 118 150 186 219
#     4  10  17  25  38  55  73  95 121 148 182 220
#
# _framework density 13.722727000000001
#
# number of rings (size 3 to 8) (size 9 to 14) (size 15 to 20)
#    0.000    2.400    0.000    6.600    0.000    7.600 
#    0.000    0.000    0.000    0.000    0.000    0.000 
#    0.000    0.000    0.000    0.000    0.000    1.000 
#
# Total GULP energy -495739.882248 kJ/mol
# GULP energy per Si atom -12393.497056 kJ/mol
# Density = 1.369149 g / cm^3
# Si number density = 13.722727 Si / 1000 Ang^3
#
#
#
# Elastic Constant Matrix: (Units=GPa)
#
#
# Indices 1 2 3 4 5 6 
#
# 1 72.7782 29.2251 40.1492 0.0000 0.0000 0.0000
# 2 29.2251 49.9234 42.4724 0.0000 0.0000 0.0000
# 3 40.1492 42.4724 85.4156 0.0000 0.0000 0.0000
# 4 0.0000 0.0000 0.0000 5.4981 0.0000 0.0000
# 5 0.0000 0.0000 0.0000 0.0000 25.7829 0.0000
# 6 0.0000 0.0000 0.0000 0.0000 0.0000 17.7858
#
#
#
# Elastic Compliance Matrix: (Units=1/GPa)
#
#
# Indices 1 2 3 4 5 6 
#
# 1 0.019635 -0.006313 -0.006090 0.000000 0.000000 0.000000
# 2 -0.006313 0.036747 -0.015305 0.000000 0.000000 0.000000
# 3 -0.006090 -0.015305 0.022180 0.000000 0.000000 0.000000
# 4 0.000000 0.000000 0.000000 0.181880 0.000000 0.000000
# 5 0.000000 0.000000 0.000000 0.000000 0.038785 0.000000
# 6 0.000000 0.000000 0.000000 0.000000 0.000000 0.056225
#
#
# Mechanical properties :
#
#
# Convention : Reuss Voigt Hill
#
# Bulk Modulus (GPa) = 43.20360 47.97897 45.59128
# Shear Modulus (GPa) = 11.94501 16.23139 14.08820
#
# Velocity S-wave (km/s) = 2.95355 3.44293 3.20759
# Velocity P-wave (km/s) = 6.57137 7.13050 6.85664
#
# Compressibility (1/GPa) = 0.02314622
#
# Stress axis : x y z
#
# Youngs Moduli (GPa) = 50.92851 27.21320 45.08493
#
# Poissons Ratio (x) = 0.17180 0.27458
# Poissons Ratio (y) = 0.32152 0.69001
# Poissons Ratio (z) = 0.31017 0.41649
#
# Static dielectric constant tensor:
#      x y z
#    x 2.777120 0.000000 0.000000 
#    y 0.000000 2.567220 0.000000 
#    z 0.000000 0.000000 3.053680 
# 
# 
# High freq. dielectric constant tensor:
#      x y z
#    x 1.540720 0.000000 0.000000 
#    y 0.000000 1.470350 0.000000 
#    z 0.000000 0.000000 1.516010 
# 
# From -- ./inp_files/49405.got.cif
#   From: 2010.03.12/outbox.cif.g09.slc.cpg/sg74_25_cif.got.tgz:49405.got - 2010.04.16 15:46:19.
