data_PCOD8297814
_publ_section_title
;
Structure prediction by ZEFSAII (Michael W. Deem and Ramdas Pophale) SiO2 
 PCOD8297814
Probable space group: I M M A
;
_chemical_formula_sum "Si O2"
_cell_formula_units_Z 96
_cell_length_a 25.375726
_cell_length_b 8.698637
_cell_length_c 25.206971
_cell_angle_alpha 90.000000
_cell_angle_beta 90.000000
_cell_angle_gamma 90.000000
_cell_volume 5564.041311
_symmetry_space_group_name_H-M "I M M A"
_symmetry_group_IT_number 74
_symmetry_cell_setting 'orthorhombic'
loop_
_space_group_symop_operation_xyz
x,y,z
-x,1/2-y,z
x,-y,-z
-x,1/2+y,-z
-x,-y,-z
x,1/2+y,-z
-x,y,z
x,1/2-y,z
1/2+x,1/2+y,1/2+z
1/2-x,-y,1/2+z
1/2+x,1/2-y,1/2-z
1/2-x,y,1/2-z
1/2-x,1/2-y,1/2-z
1/2+x,y,1/2-z
1/2-x,1/2+y,1/2+z
1/2+x,-y,1/2+z
loop_
_atom_site_type_symbol
_atom_site_label
_atom_site_fract_x
_atom_site_fract_y
_atom_site_fract_z
Si Si1 0.251709 0.567113 0.058736
Si Si2 0.562516 0.919719 0.253006
Si Si3 0.058822 0.930558 0.859147
Si Si4 0.561246 0.930385 0.135867
Si Si5 0.357614 0.430848 0.057881
Si Si6 0.355145 0.433112 0.441674
O O1 0.249833 0.750000 0.059168
O O2 0.305551 0.506114 0.085694
O O3 0.198577 0.499072 0.085035
O O4 0.253051 0.500000 0.000000
O O5 0.500000 0.912665 0.251343
O O6 0.585598 0.750000 0.263396
O O7 0.580803 0.979215 0.195071
O O8 0.581950 0.026859 0.301140
O O9 0.055876 0.750000 0.862707
O O10 0.097051 0.993025 0.905035
O O11 0.000000 0.001032 0.867445
O O12 0.500000 0.968694 0.127804
O O13 0.571875 0.750000 0.126589
O O14 0.592567 0.032603 0.094162
O O15 0.349311 0.250000 0.052428
O O16 0.368250 0.500000 0.000000
O O17 0.364734 0.500000 0.500000
O O18 0.351831 0.250000 0.444646
#
# Coordination Sequence:
#
# PCOD8297814 Si02
#       6
#    16  16  16  16  16  16
#     4  10  18  31  50  69  91 121 159 198 236 279
#     4   8  15  29  49  70  92 122 160 197 231 273
#     4   9  18  31  47  69  98 129 159 194 236 281
#     4   9  18  33  51  72  99 128 158 194 235 279
#     4  11  21  33  50  72  98 127 159 194 235 281
#     4  10  19  31  47  69  97 127 160 197 237 280
#
# _framework density 17.253646
#
# number of rings (size 3 to 8) (size 9 to 14) (size 15 to 20)
#    0.000    2.500    0.000    6.500    0.000    3.000 
#    0.000    1.667    0.000    1.000    0.000    7.000 
#    0.000    0.000    0.000    0.000    0.000    0.000 
#
# Total GULP energy -594894.856886 kJ/mol
# GULP energy per Si atom -12393.642852 kJ/mol
# Density = 1.721438 g / cm^3
# Si number density = 17.253646 Si / 1000 Ang^3
#
#
#
# Elastic Constant Matrix: (Units=GPa)
#
#
# Indices 1 2 3 4 5 6 
#
# 1 98.6848 40.1119 57.3385 0.0000 0.0000 0.0000
# 2 40.1119 85.9664 33.2848 0.0000 0.0000 0.0000
# 3 57.3385 33.2848 94.5798 0.0000 0.0000 0.0000
# 4 0.0000 0.0000 0.0000 26.9389 0.0000 0.0000
# 5 0.0000 0.0000 0.0000 0.0000 3.5026 0.0000
# 6 0.0000 0.0000 0.0000 0.0000 0.0000 23.8065
#
#
#
# Elastic Compliance Matrix: (Units=1/GPa)
#
#
# Indices 1 2 3 4 5 6 
#
# 1 0.017073 -0.004583 -0.008737 0.000000 0.000000 0.000000
# 2 -0.004583 0.014698 -0.002394 0.000000 0.000000 0.000000
# 3 -0.008737 -0.002394 0.016713 0.000000 0.000000 0.000000
# 4 0.000000 0.000000 0.000000 0.037121 0.000000 0.000000
# 5 0.000000 0.000000 0.000000 0.000000 0.285498 0.000000
# 6 0.000000 0.000000 0.000000 0.000000 0.000000 0.042005
#
#
# Mechanical properties :
#
#
# Convention : Reuss Voigt Hill
#
# Bulk Modulus (GPa) = 58.63675 60.07795 59.35735
# Shear Modulus (GPa) = 11.10563 20.74931 15.92747
#
# Velocity S-wave (km/s) = 2.53981 3.47162 3.04161
# Velocity P-wave (km/s) = 6.53145 7.13902 6.84198
#
# Compressibility (1/GPa) = 0.01705415
#
# Stress axis : x y z
#
# Youngs Moduli (GPa) = 58.57247 68.03697 59.83513
#
# Poissons Ratio (x) = 0.31183 0.52280
# Poissons Ratio (y) = 0.26845 0.14324
# Poissons Ratio (z) = 0.51177 0.16288
#
# Static dielectric constant tensor:
#      x y z
#    x 3.728020 0.000000 0.000000 
#    y 0.000000 3.242880 0.000000 
#    z 0.000000 0.000000 3.223680 
# 
# 
# High freq. dielectric constant tensor:
#      x y z
#    x 1.657210 0.000000 0.000000 
#    y 0.000000 1.670170 0.000000 
#    z 0.000000 0.000000 1.645770 
# 
# From -- ./inp_files/62255.got.cif
#   From: 2010.03.12/outbox.cif.g09.slc.cpg/sg74_32_cif.got.tgz:62255.got - 2010.04.16 15:46:19.
