data_PCOD8297845
_publ_section_title
;
Structure prediction by ZEFSAII (Michael W. Deem and Ramdas Pophale) SiO2 
 PCOD8297845
Probable space group: I M M A
;
_chemical_formula_sum "Si O2"
_cell_formula_units_Z 96
_cell_length_a 25.239562
_cell_length_b 23.416978
_cell_length_c 6.661037
_cell_angle_alpha 90.000000
_cell_angle_beta 90.000000
_cell_angle_gamma 90.000000
_cell_volume 3936.901128
_symmetry_space_group_name_H-M "I M M A"
_symmetry_group_IT_number 74
_symmetry_cell_setting 'orthorhombic'
loop_
_space_group_symop_operation_xyz
x,y,z
-x,1/2-y,z
x,-y,-z
-x,1/2+y,-z
-x,-y,-z
x,1/2+y,-z
-x,y,z
x,1/2-y,z
1/2+x,1/2+y,1/2+z
1/2-x,-y,1/2+z
1/2+x,1/2-y,1/2-z
1/2-x,y,1/2-z
1/2-x,1/2-y,1/2-z
1/2+x,y,1/2-z
1/2-x,1/2+y,1/2+z
1/2+x,-y,1/2+z
loop_
_atom_site_type_symbol
_atom_site_label
_atom_site_fract_x
_atom_site_fract_y
_atom_site_fract_z
Si Si1 0.108083 0.379457 0.875205
Si Si2 0.500000 0.814068 0.853960
Si Si3 0.319816 0.184719 0.058544
Si Si4 0.204579 0.814026 0.029286
Si Si5 0.500000 0.186631 0.678214
Si Si6 0.440726 0.987394 0.262543
Si Si7 0.904000 0.393752 0.314970
O O1 0.054050 0.343392 0.891493
O O2 0.097796 0.432781 0.724225
O O3 0.162098 0.344719 0.819135
O O4 0.123055 0.402572 0.097907
O O5 0.500000 0.750000 0.762511
O O6 0.450514 0.849213 0.774824
O O7 0.500000 0.810695 0.087658
O O8 0.337368 0.250000 0.005614
O O9 0.265925 0.166003 0.942090
O O10 0.310572 0.181806 0.297139
O O11 0.365778 0.136851 0.018011
O O12 0.201327 0.750000 0.105171
O O13 0.500000 0.250000 0.585400
O O14 0.500000 0.969780 0.198474
O O15 0.440401 0.000000 0.500000
O O16 0.423454 0.042073 0.124323
#
# Coordination Sequence:
#
# PCOD8297845 Si02
#       7
#    16   8  16  16   8  16  16
#     4  10  18  31  52  74 101 137 179 218 262 321
#     4  11  23  34  45  70 108 141 170 219 278 323
#     4   8  14  25  44  74 104 126 163 219 267 313
#     4   8  14  25  44  74 105 128 161 214 270 314
#     4  11  23  34  45  70 108 141 172 221 274 323
#     4   9  16  28  46  74 106 129 172 222 259 306
#     4  10  18  31  52  74 101 137 176 220 268 319
#
# _framework density 24.384661000000001
#
# number of rings (size 3 to 8) (size 9 to 14) (size 15 to 20)
#    0.000    2.667    1.667    2.500    0.000    2.667 
#    0.000    1.667    0.000    1.000    0.000   30.333 
#    0.000    0.000    0.000    0.000    0.000    0.000 
#
# Total GULP energy -594756.771128 kJ/mol
# GULP energy per Si atom -12390.766065 kJ/mol
# Density = 2.432916 g / cm^3
# Si number density = 24.384661 Si / 1000 Ang^3
#
#
#
# Elastic Constant Matrix: (Units=GPa)
#
#
# Indices 1 2 3 4 5 6 
#
# 1 196.5985 112.4259 20.1422 0.0000 0.0000 0.0000
# 2 112.4259 200.0183 18.7740 0.0000 0.0000 0.0000
# 3 20.1422 18.7740 54.3608 0.0000 0.0000 0.0000
# 4 0.0000 0.0000 0.0000 -8.4945 0.0000 0.0000
# 5 0.0000 0.0000 0.0000 0.0000 31.3499 0.0000
# 6 0.0000 0.0000 0.0000 0.0000 0.0000 38.8859
#
#
#
# Elastic Compliance Matrix: (Units=1/GPa)
#
#
# Indices 1 2 3 4 5 6 
#
# 1 0.007595 -0.004139 -0.001385 0.000000 0.000000 0.000000
# 2 -0.004139 0.007423 -0.001030 0.000000 0.000000 0.000000
# 3 -0.001385 -0.001030 0.019264 0.000000 0.000000 0.000000
# 4 0.000000 0.000000 0.000000 -0.117724 0.000000 0.000000
# 5 0.000000 0.000000 0.000000 0.000000 0.031898 0.000000
# 6 0.000000 0.000000 0.000000 0.000000 0.000000 0.025716
#
#
# Mechanical properties :
#
#
# Convention : Reuss Voigt Hill
#
# Bulk Modulus (GPa) = 47.22577 83.74020 65.48299
# Shear Modulus (GPa) = -883.28243 32.32394 -425.47924
#
# Velocity S-wave (km/s) = -19.05295 3.64481 -13.22366
# Velocity P-wave (km/s) = 21.55484 7.22002 14.36110
#
# Compressibility (1/GPa) = 0.02117488
#
# Stress axis : x y z
#
# Youngs Moduli (GPa) = 131.65786 134.72027 51.90924
#
# Poissons Ratio (x) = 0.55764 0.07188
# Poissons Ratio (y) = 0.54497 0.05346
# Poissons Ratio (z) = 0.18232 0.13874
#
# Static dielectric constant tensor:
#      x y z
#    x 4.727520 0.000000 0.000000 
#    y 0.000000 4.800170 0.000000 
#    z 0.000000 0.000000 4.441360 
# 
# 
# High freq. dielectric constant tensor:
#      x y z
#    x 1.953510 0.000000 0.000000 
#    y 0.000000 1.954110 0.000000 
#    z 0.000000 0.000000 2.021140 
# 
# From -- ./inp_files/13956.got.cif
#   From: 2010.03.12/outbox.cif.g09.slc.cpg/sg74_7_cif.got.tgz:13956.got - 2010.04.16 15:46:19.
