data_PCOD8297103
_publ_section_title
;
Structure prediction by ZEFSAII (Michael W. Deem and Ramdas Pophale) SiO2 
 PCOD8297103
Probable space group: I M M A
;
_chemical_formula_sum "Si O2"
_cell_formula_units_Z 84
_cell_length_a 15.752554
_cell_length_b 30.985103
_cell_length_c 9.465316
_cell_angle_alpha 90.000000
_cell_angle_beta 90.000000
_cell_angle_gamma 90.000000
_cell_volume 4619.968758
_symmetry_space_group_name_H-M "I M M A"
_symmetry_group_IT_number 74
_symmetry_cell_setting 'orthorhombic'
loop_
_space_group_symop_operation_xyz
x,y,z
-x,1/2-y,z
x,-y,-z
-x,1/2+y,-z
-x,-y,-z
x,1/2+y,-z
-x,y,z
x,1/2-y,z
1/2+x,1/2+y,1/2+z
1/2-x,-y,1/2+z
1/2+x,1/2-y,1/2-z
1/2-x,y,1/2-z
1/2-x,1/2-y,1/2-z
1/2+x,y,1/2-z
1/2-x,1/2+y,1/2+z
1/2+x,-y,1/2+z
loop_
_atom_site_type_symbol
_atom_site_label
_atom_site_fract_x
_atom_site_fract_y
_atom_site_fract_z
Si Si1 0.500000 0.882553 0.151429
Si Si2 0.500000 0.154928 0.165473
Si Si3 0.000000 0.750000 0.613698
Si Si4 0.326122 0.122748 0.148415
Si Si5 0.500000 0.984794 0.158289
Si Si6 0.168003 0.841634 0.336258
Si Si7 0.904083 0.250000 0.652677
Si Si8 0.327123 0.521437 0.849640
O O1 0.500000 0.933627 0.150833
O O2 0.413185 0.867658 0.226655
O O3 0.500000 0.857194 0.001413
O O4 0.500000 0.205950 0.202730
O O5 0.413831 0.135077 0.229409
O O6 0.084746 0.750000 0.517127
O O7 0.250000 0.136643 0.250000
O O8 0.329196 0.072077 0.120553
O O9 0.316744 0.148222 0.001367
O O10 0.586088 0.004374 0.226869
O O11 0.500000 0.000000 0.000000
O O12 0.250000 0.856887 0.250000
O O13 0.150493 0.791488 0.304686
O O14 0.000000 0.250000 0.721447
O O15 0.250000 0.507891 0.750000
O O16 0.312607 0.500000 0.000000
#
# Coordination Sequence:
#
# PCOD8297103 Si02
#       8
#     8   8   4  16   8  16   8  16
#     4  10  18  30  49  74 102 132 170 213 244 299
#     4  10  16  32  53  70 102 135 174 204 248 306
#     4  10  14  28  58  74 100 134 176 206 252 290
#     4  10  20  34  53  77 102 136 172 213 256 306
#     4  10  18  30  51  74  95 133 175 210 249 296
#     4  11  20  33  54  80 104 136 172 209 255 305
#     4  10  15  33  54  77 106 132 171 212 250 301
#     4  10  20  34  53  76 104 133 171 216 260 302
#
# _framework density 18.181940000000001
#
# number of rings (size 3 to 8) (size 9 to 14) (size 15 to 20)
#    0.286    1.524    4.762    5.429    0.000    3.048 
#    0.000    3.333    0.000    0.000    0.000    0.000 
#    0.000    0.000    0.000    0.000    0.000    0.000 
#
# Total GULP energy -520437.239404 kJ/mol
# GULP energy per Si atom -12391.362843 kJ/mol
# Density = 1.814056 g / cm^3
# Si number density = 18.181940 Si / 1000 Ang^3
#
#
#
# Elastic Constant Matrix: (Units=GPa)
#
#
# Indices 1 2 3 4 5 6 
#
# 1 195.6959 52.8626 48.8894 -0.0010 0.0002 0.0000
# 2 52.8626 98.1795 16.0979 0.0005 0.0006 0.0001
# 3 48.8894 16.0979 35.3441 -0.0107 0.0009 -0.0005
# 4 -0.0010 0.0005 -0.0107 14.5432 0.0006 -0.0003
# 5 0.0002 0.0006 0.0009 0.0006 30.4408 0.0004
# 6 0.0000 0.0001 -0.0005 -0.0003 0.0004 29.2136
#
#
#
# Elastic Compliance Matrix: (Units=1/GPa)
#
#
# Indices 1 2 3 4 5 6 
#
# 1 0.008491 -0.002860 -0.010443 -0.000007 0.000000 0.000000
# 2 -0.002860 0.011971 -0.001496 -0.000002 0.000000 0.000000
# 3 -0.010443 -0.001496 0.043420 0.000031 -0.000001 0.000001
# 4 -0.000007 -0.000002 0.000031 0.068761 -0.000001 0.000001
# 5 0.000000 0.000000 -0.000001 -0.000001 0.032851 0.000000
# 6 0.000000 0.000000 0.000001 0.000001 0.000000 0.034231
#
#
# Mechanical properties :
#
#
# Convention : Reuss Voigt Hill
#
# Bulk Modulus (GPa) = 29.16852 62.76881 45.96867
# Shear Modulus (GPa) = 20.76835 28.93081 24.84958
#
# Velocity S-wave (km/s) = 3.38339 3.99329 3.70093
# Velocity P-wave (km/s) = 5.59826 7.47391 6.60303
#
# Compressibility (1/GPa) = 0.03428353
#
# Stress axis : x y z
#
# Youngs Moduli (GPa) = 117.76626 83.53842 23.03070
#
# Poissons Ratio (x) = 0.23889 0.24051
# Poissons Ratio (y) = 0.33678 0.03447
# Poissons Ratio (z) = 1.22985 0.12501
#
# Static dielectric constant tensor:
#      x y z
#    x 5.064450 0.000000 -0.000010 
#    y 0.000000 3.407410 0.000000 
#    z -0.000010 0.000000 2.780450 
# 
# 
# High freq. dielectric constant tensor:
#      x y z
#    x 1.729210 0.000000 0.000000 
#    y 0.000000 1.722930 0.000000 
#    z 0.000000 0.000000 1.633750 
# 
# From -- ./inp_files/19115.got.cif
#   From: 2010.03.12/outbox.cif.g09.slc.cpg/sg74_10_cif.got.tgz:19115.got - 2010.04.16 15:46:19.
