data_PCOD8297914
_publ_section_title
;
Structure prediction by ZEFSAII (Michael W. Deem and Ramdas Pophale) SiO2 
 PCOD8297914
Probable space group: I M M A
;
_chemical_formula_sum "Si O2"
_cell_formula_units_Z 72
_cell_length_a 32.757593
_cell_length_b 8.746303
_cell_length_c 14.700222
_cell_angle_alpha 90.000000
_cell_angle_beta 90.000000
_cell_angle_gamma 90.000000
_cell_volume 4211.728763
_symmetry_space_group_name_H-M "I M M A"
_symmetry_group_IT_number 74
_symmetry_cell_setting 'orthorhombic'
loop_
_space_group_symop_operation_xyz
x,y,z
-x,1/2-y,z
x,-y,-z
-x,1/2+y,-z
-x,-y,-z
x,1/2+y,-z
-x,y,z
x,1/2-y,z
1/2+x,1/2+y,1/2+z
1/2-x,-y,1/2+z
1/2+x,1/2-y,1/2-z
1/2-x,y,1/2-z
1/2-x,1/2-y,1/2-z
1/2+x,y,1/2-z
1/2-x,1/2+y,1/2+z
1/2+x,-y,1/2+z
loop_
_atom_site_type_symbol
_atom_site_label
_atom_site_fract_x
_atom_site_fract_y
_atom_site_fract_z
Si Si1 0.347839 0.928689 0.715743
Si Si2 0.773984 0.071602 0.091486
Si Si3 0.682493 0.429945 0.092616
Si Si4 0.000000 0.067792 0.100380
Si Si5 0.582241 0.930402 0.400622
O O1 0.358462 0.750000 0.701575
O O2 0.303300 0.967815 0.675396
O O3 0.346117 0.974375 0.822126
O O4 0.381152 0.032746 0.667273
O O5 0.771584 0.250000 0.075605
O O6 0.728456 0.006275 0.109739
O O7 0.792884 0.000000 0.000000
O O8 0.683808 0.250000 0.081857
O O9 0.663864 0.500000 0.000000
O O10 0.000000 0.250000 0.101494
O O11 0.958531 0.003344 0.145580
O O12 0.000000 0.000000 0.000000
O O13 0.576795 0.750000 0.411251
O O14 0.591296 0.000000 0.500000
#
# Coordination Sequence:
#
# PCOD8297914 Si02
#       5
#    16  16  16   8  16
#     4  10  19  31  47  68  94 125 161 199 239 281
#     4   9  17  29  45  65  91 124 159 196 239 283
#     4   9  18  32  48  65  89 123 163 205 245 283
#     4  10  18  32  52  72  97 128 157 184 222 274
#     4  11  21  33  49  72 101 129 157 189 228 276
#
# _framework density 17.095117999999999
#
# number of rings (size 3 to 8) (size 9 to 14) (size 15 to 20)
#    0.000    2.222    0.000    5.667    0.000    6.222 
#    0.000    0.000    0.000    6.667    0.000    0.778 
#    0.000    0.000    0.000    0.000    0.000    0.000 
#
# Total GULP energy -446295.148636 kJ/mol
# GULP energy per Si atom -12397.087462 kJ/mol
# Density = 1.705621 g / cm^3
# Si number density = 17.095118 Si / 1000 Ang^3
#
#
#
# Elastic Constant Matrix: (Units=GPa)
#
#
# Indices 1 2 3 4 5 6 
#
# 1 78.5346 40.0202 44.6308 0.0000 0.0000 0.0000
# 2 40.0202 84.4449 39.6609 0.0000 0.0000 0.0000
# 3 44.6308 39.6609 108.9270 0.0000 0.0000 0.0000
# 4 0.0000 0.0000 0.0000 25.4453 0.0000 0.0000
# 5 0.0000 0.0000 0.0000 0.0000 37.4269 0.0000
# 6 0.0000 0.0000 0.0000 0.0000 0.0000 26.3055
#
#
#
# Elastic Compliance Matrix: (Units=1/GPa)
#
#
# Indices 1 2 3 4 5 6 
#
# 1 0.019166 -0.006508 -0.005483 0.000000 0.000000 0.000000
# 2 -0.006508 0.016495 -0.003339 0.000000 0.000000 0.000000
# 3 -0.005483 -0.003339 0.012643 0.000000 0.000000 0.000000
# 4 0.000000 0.000000 0.000000 0.039300 0.000000 0.000000
# 5 0.000000 0.000000 0.000000 0.000000 0.026719 0.000000
# 6 0.000000 0.000000 0.000000 0.000000 0.000000 0.038015
#
#
# Mechanical properties :
#
#
# Convention : Reuss Voigt Hill
#
# Bulk Modulus (GPa) = 56.68113 57.83670 57.25892
# Shear Modulus (GPa) = 26.47210 27.67519 27.07365
#
# Velocity S-wave (km/s) = 3.93939 4.02791 3.98390
# Velocity P-wave (km/s) = 7.34303 7.45237 7.39790
#
# Compressibility (1/GPa) = 0.01764255
#
# Stress axis : x y z
#
# Youngs Moduli (GPa) = 52.17693 60.62617 79.09513
#
# Poissons Ratio (x) = 0.39453 0.43370
# Poissons Ratio (y) = 0.33955 0.26413
# Poissons Ratio (z) = 0.28610 0.20245
#
# Static dielectric constant tensor:
#      x y z
#    x 3.535570 0.000000 0.000000 
#    y 0.000000 3.159810 0.000000 
#    z 0.000000 0.000000 3.705400 
# 
# 
# High freq. dielectric constant tensor:
#      x y z
#    x 1.645250 0.000000 0.000000 
#    y 0.000000 1.659620 0.000000 
#    z 0.000000 0.000000 1.638440 
# 
# From -- ./inp_files/29383.got.cif
#   From: 2010.03.12/outbox.cif.g09.slc.cpg/sg74_15_cif.got.tgz:29383.got - 2010.04.16 15:46:19.
