data_PCOD8297875
_publ_section_title
;
Structure prediction by ZEFSAII (Michael W. Deem and Ramdas Pophale) SiO2 
 PCOD8297875
Probable space group: I M M A
;
_chemical_formula_sum "Si O2"
_cell_formula_units_Z 64
_cell_length_a 24.687684
_cell_length_b 8.834288
_cell_length_c 14.890709
_cell_angle_alpha 90.000000
_cell_angle_beta 90.000000
_cell_angle_gamma 90.000000
_cell_volume 3247.635497
_symmetry_space_group_name_H-M "I M M A"
_symmetry_group_IT_number 74
_symmetry_cell_setting 'orthorhombic'
loop_
_space_group_symop_operation_xyz
x,y,z
-x,1/2-y,z
x,-y,-z
-x,1/2+y,-z
-x,-y,-z
x,1/2+y,-z
-x,y,z
x,1/2-y,z
1/2+x,1/2+y,1/2+z
1/2-x,-y,1/2+z
1/2+x,1/2-y,1/2-z
1/2-x,y,1/2-z
1/2-x,1/2-y,1/2-z
1/2+x,y,1/2-z
1/2-x,1/2+y,1/2+z
1/2+x,-y,1/2+z
loop_
_atom_site_type_symbol
_atom_site_label
_atom_site_fract_x
_atom_site_fract_y
_atom_site_fract_z
Si Si1 0.000000 0.568984 0.598812
Si Si2 0.188109 0.925741 0.245025
Si Si3 0.391643 0.428033 0.903271
Si Si4 0.883337 0.072325 0.097388
Si Si5 0.000000 0.426189 0.095087
O O1 0.000000 0.500000 0.500000
O O2 0.944803 0.505213 0.643231
O O3 0.000000 0.750000 0.601179
O O4 0.183077 0.750000 0.221732
O O5 0.250000 0.978529 0.250000
O O6 0.159130 0.962672 0.339335
O O7 0.162365 0.016643 0.163879
O O8 0.402286 0.250000 0.915409
O O9 0.378611 0.500000 0.000000
O O10 0.877410 0.250000 0.084998
O O11 0.942719 0.028438 0.141456
O O12 0.875175 0.000000 0.000000
O O13 0.000000 0.250000 0.078537
O O14 0.000000 0.500000 0.000000
#
# Coordination Sequence:
#
# PCOD8297875 Si02
#       5
#     8  16  16  16   8
#     4  10  18  31  54  83 114 142 176 221 272 333
#     4  10  23  41  57  78 110 147 190 235 275 322
#     4  10  20  36  58  82 111 145 182 226 277 330
#     4  10  20  36  59  85 114 147 183 225 275 329
#     4   8  16  31  52  81 112 140 174 217 267 325
#
# _framework density 19.706644000000001
#
# number of rings (size 3 to 8) (size 9 to 14) (size 15 to 20)
#    0.000    2.250    0.000    4.125    0.000    5.500 
#    0.000    5.000    0.000    0.000    0.000    0.000 
#    0.000    0.000    0.000    0.000    0.000    0.000 
#
# Total GULP energy -396541.026488 kJ/mol
# GULP energy per Si atom -12391.907078 kJ/mol
# Density = 1.966179 g / cm^3
# Si number density = 19.706644 Si / 1000 Ang^3
#
#
#
# Elastic Constant Matrix: (Units=GPa)
#
#
# Indices 1 2 3 4 5 6 
#
# 1 194.7590 73.8896 77.4614 0.0000 0.0000 0.0000
# 2 73.8896 98.6162 53.0539 0.0000 0.0000 0.0000
# 3 77.4614 53.0539 99.6712 0.0000 0.0000 0.0000
# 4 0.0000 0.0000 0.0000 30.0188 0.0000 0.0000
# 5 0.0000 0.0000 0.0000 0.0000 22.8185 0.0000
# 6 0.0000 0.0000 0.0000 0.0000 0.0000 29.7796
#
#
#
# Elastic Compliance Matrix: (Units=1/GPa)
#
#
# Indices 1 2 3 4 5 6 
#
# 1 0.008375 -0.003886 -0.004440 0.000000 0.000000 0.000000
# 2 -0.003886 0.016013 -0.005503 0.000000 0.000000 0.000000
# 3 -0.004440 -0.005503 0.016413 0.000000 0.000000 0.000000
# 4 0.000000 0.000000 0.000000 0.033312 0.000000 0.000000
# 5 0.000000 0.000000 0.000000 0.000000 0.043824 0.000000
# 6 0.000000 0.000000 0.000000 0.000000 0.000000 0.033580
#
#
# Mechanical properties :
#
#
# Convention : Reuss Voigt Hill
#
# Bulk Modulus (GPa) = 76.09414 89.09512 82.59463
# Shear Modulus (GPa) = 27.23952 29.09948 28.16950
#
# Velocity S-wave (km/s) = 3.72190 3.84687 3.78490
# Velocity P-wave (km/s) = 7.56090 8.06474 7.81688
#
# Compressibility (1/GPa) = 0.01314162
#
# Stress axis : x y z
#
# Youngs Moduli (GPa) = 119.40374 62.45005 60.92756
#
# Poissons Ratio (x) = 0.24270 0.27052
# Poissons Ratio (y) = 0.46404 0.33529
# Poissons Ratio (z) = 0.53016 0.34367
#
# Static dielectric constant tensor:
#      x y z
#    x 4.181720 0.000000 0.000000 
#    y 0.000000 3.573070 0.000000 
#    z 0.000000 0.000000 3.376980 
# 
# 
# High freq. dielectric constant tensor:
#      x y z
#    x 1.782080 0.000000 0.000000 
#    y 0.000000 1.775420 0.000000 
#    z 0.000000 0.000000 1.750390 
# 
# From -- ./inp_files/36969.got.cif
#   From: 2010.03.12/outbox.cif.g09.slc.cpg/sg74_19_cif.got.tgz:36969.got - 2010.04.16 15:46:19.
