data_PCOD8297254
_publ_section_title
;
Structure prediction by ZEFSAII (Michael W. Deem and Ramdas Pophale) SiO2 
 PCOD8297254
Probable space group: I M M A
;
_chemical_formula_sum "Si O2"
_cell_formula_units_Z 72
_cell_length_a 33.852960
_cell_length_b 7.740155
_cell_length_c 20.937366
_cell_angle_alpha 90.000000
_cell_angle_beta 90.000000
_cell_angle_gamma 90.000000
_cell_volume 5486.158501
_symmetry_space_group_name_H-M "I M M A"
_symmetry_group_IT_number 74
_symmetry_cell_setting 'orthorhombic'
loop_
_space_group_symop_operation_xyz
x,y,z
-x,1/2-y,z
x,-y,-z
-x,1/2+y,-z
-x,-y,-z
x,1/2+y,-z
-x,y,z
x,1/2-y,z
1/2+x,1/2+y,1/2+z
1/2-x,-y,1/2+z
1/2+x,1/2-y,1/2-z
1/2-x,y,1/2-z
1/2-x,1/2-y,1/2-z
1/2+x,y,1/2-z
1/2-x,1/2+y,1/2+z
1/2+x,-y,1/2+z
loop_
_atom_site_type_symbol
_atom_site_label
_atom_site_fract_x
_atom_site_fract_y
_atom_site_fract_z
Si Si1 0.813254 0.750000 0.268662
Si Si2 0.765476 0.946378 0.572673
Si Si3 0.265428 0.750000 0.350896
Si Si4 0.500000 0.048868 0.926612
Si Si5 0.156025 0.050495 0.346524
Si Si6 0.584130 0.945995 0.926655
O O1 0.772602 0.750000 0.306553
O O2 0.804741 0.750000 0.192771
O O3 0.836926 0.574282 0.285842
O O4 0.749551 0.750000 0.579293
O O5 0.808291 0.964371 0.603949
O O6 0.770518 0.000000 0.500000
O O7 0.734485 0.076457 0.606125
O O8 0.500000 0.250000 0.916922
O O9 0.540465 0.975823 0.896193
O O10 0.500000 0.000000 0.000000
O O11 0.150917 0.250000 0.323055
O O12 0.117551 0.968618 0.382241
O O13 0.595932 0.750000 0.924914
O O14 0.585762 0.000000 0.000000
#
# Coordination Sequence:
#
# PCOD8297254 Si02
#       6
#     8  16   8   8  16  16
#     4   9  18  30  44  51  78  98 128 155 191 240
#     4  10  17  27  41  59  80  96 122 159 198 236
#     4   9  18  30  40  60  72 103 122 152 199 233
#     4  10  18  26  36  50  70  96 124 154 196 239
#     4   9  19  28  40  58  74  98 128 163 195 230
#     4  10  18  27  38  53  73  96 125 161 202 235
#
# _framework density 13.123937
#
# number of rings (size 3 to 8) (size 9 to 14) (size 15 to 20)
#    0.000    2.444    1.111    3.667    3.111    0.889 
#    0.000    4.444    0.000    0.000    0.000    0.000 
#    0.000    0.000    0.000    0.000    0.000    0.000 
#
# Total GULP energy -446094.954649 kJ/mol
# GULP energy per Si atom -12391.526518 kJ/mol
# Density = 1.309407 g / cm^3
# Si number density = 13.123937 Si / 1000 Ang^3
#
#
#
# Elastic Constant Matrix: (Units=GPa)
#
#
# Indices 1 2 3 4 5 6 
#
# 1 63.4522 30.8695 33.4164 0.0000 0.0000 0.0000
# 2 30.8695 90.3257 32.4992 0.0000 0.0000 0.0000
# 3 33.4164 32.4992 42.8928 0.0000 0.0000 0.0000
# 4 0.0000 0.0000 0.0000 18.0477 0.0000 0.0000
# 5 0.0000 0.0000 0.0000 0.0000 17.2250 0.0000
# 6 0.0000 0.0000 0.0000 0.0000 0.0000 15.2900
#
#
#
# Elastic Compliance Matrix: (Units=1/GPa)
#
#
# Indices 1 2 3 4 5 6 
#
# 1 0.027064 -0.002286 -0.019352 0.000000 0.000000 0.000000
# 2 -0.002286 0.015414 -0.009897 0.000000 0.000000 0.000000
# 3 -0.019352 -0.009897 0.045890 0.000000 0.000000 0.000000
# 4 0.000000 0.000000 0.000000 0.055409 0.000000 0.000000
# 5 0.000000 0.000000 0.000000 0.000000 0.058055 0.000000
# 6 0.000000 0.000000 0.000000 0.000000 0.000000 0.065402
#
#
# Mechanical properties :
#
#
# Convention : Reuss Voigt Hill
#
# Bulk Modulus (GPa) = 39.53320 43.36010 41.44665
# Shear Modulus (GPa) = 14.76072 16.77157 15.76615
#
# Velocity S-wave (km/s) = 3.35732 3.57870 3.46978
# Velocity P-wave (km/s) = 6.72437 7.08427 6.90666
#
# Compressibility (1/GPa) = 0.02529519
#
# Stress axis : x y z
#
# Youngs Moduli (GPa) = 36.94973 64.87816 21.79135
#
# Poissons Ratio (x) = 0.14833 0.42171
# Poissons Ratio (y) = 0.08448 0.21568
# Poissons Ratio (z) = 0.71506 0.64212
#
# Static dielectric constant tensor:
#      x y z
#    x 2.722920 0.000000 0.000000 
#    y 0.000000 2.908110 0.000000 
#    z 0.000000 0.000000 2.378430 
# 
# 
# High freq. dielectric constant tensor:
#      x y z
#    x 1.474170 0.000000 0.000000 
#    y 0.000000 1.521170 0.000000 
#    z 0.000000 0.000000 1.453950 
# 
# From -- ./inp_files/46459.got.cif
#   From: 2010.03.12/outbox.cif.g09.slc.cpg/sg74_24_cif.got.tgz:46459.got - 2010.04.16 15:46:19.
