data_PCOD8297588
_publ_section_title
;
Structure prediction by ZEFSAII (Michael W. Deem and Ramdas Pophale) SiO2 
 PCOD8297588
Probable space group: I M M A
;
_chemical_formula_sum "Si O2"
_cell_formula_units_Z 80
_cell_length_a 8.682731
_cell_length_b 23.706987
_cell_length_c 25.901581
_cell_angle_alpha 90.000000
_cell_angle_beta 90.000000
_cell_angle_gamma 90.000000
_cell_volume 5331.617461
_symmetry_space_group_name_H-M "I M M A"
_symmetry_group_IT_number 74
_symmetry_cell_setting 'orthorhombic'
loop_
_space_group_symop_operation_xyz
x,y,z
-x,1/2-y,z
x,-y,-z
-x,1/2+y,-z
-x,-y,-z
x,1/2+y,-z
-x,y,z
x,1/2-y,z
1/2+x,1/2+y,1/2+z
1/2-x,-y,1/2+z
1/2+x,1/2-y,1/2-z
1/2-x,y,1/2-z
1/2-x,1/2-y,1/2-z
1/2+x,y,1/2-z
1/2-x,1/2+y,1/2+z
1/2+x,-y,1/2+z
loop_
_atom_site_type_symbol
_atom_site_label
_atom_site_fract_x
_atom_site_fract_y
_atom_site_fract_z
Si Si1 0.829168 0.030938 0.554694
Si Si2 0.321430 0.933085 0.606983
Si Si3 0.179228 0.128314 0.488395
Si Si4 0.319218 0.250000 0.350554
Si Si5 0.176383 0.750000 0.539462
Si Si6 0.818505 0.863517 0.694954
O O1 0.774846 0.095283 0.541468
O O2 0.000000 0.030666 0.579117
O O3 0.829420 0.000000 0.500000
O O4 0.716393 0.998658 0.594023
O O5 0.500000 0.927017 0.619834
O O6 0.280531 0.892767 0.559302
O O7 0.224606 0.914042 0.656388
O O8 0.208768 0.195006 0.495770
O O9 0.000000 0.115346 0.475570
O O10 0.500000 0.250000 0.341205
O O11 0.285899 0.250000 0.411266
O O12 0.249367 0.304736 0.324198
O O13 0.000000 0.750000 0.559491
O O14 0.750000 0.879815 0.750000
O O15 0.000000 0.857520 0.698703
#
# Coordination Sequence:
#
# PCOD8297588 Si02
#       6
#    16  16  16   8   8  16
#     4   8  15  28  44  62  84 112 143 178 218 264
#     4  11  20  30  45  65  86 110 144 185 225 266
#     4   9  17  29  45  64  87 115 149 181 218 265
#     4  12  23  35  48  66  87 114 150 189 227 265
#     4  10  18  29  47  66  88 122 152 183 222 261
#     4  12  24  38  51  64  84 113 148 189 230 269
#
# _framework density 15.004828
#
# number of rings (size 3 to 8) (size 9 to 14) (size 15 to 20)
#    0.000    1.800    2.000    6.000    0.000    3.600 
#    0.000    0.000    0.000    0.000    0.000    0.000 
#    0.000    0.000    0.000    0.900    0.000    9.000 
#
# Total GULP energy -495872.286664 kJ/mol
# GULP energy per Si atom -12396.807167 kJ/mol
# Density = 1.497068 g / cm^3
# Si number density = 15.004828 Si / 1000 Ang^3
#
#
#
# Elastic Constant Matrix: (Units=GPa)
#
#
# Indices 1 2 3 4 5 6 
#
# 1 97.9659 32.2241 28.4001 0.0000 0.0000 0.0000
# 2 32.2241 108.5728 51.6237 0.0000 0.0000 0.0000
# 3 28.4001 51.6237 57.2072 0.0000 0.0000 0.0000
# 4 0.0000 0.0000 0.0000 2.6141 0.0000 0.0000
# 5 0.0000 0.0000 0.0000 0.0000 20.3723 0.0000
# 6 0.0000 0.0000 0.0000 0.0000 0.0000 16.4620
#
#
#
# Elastic Compliance Matrix: (Units=1/GPa)
#
#
# Indices 1 2 3 4 5 6 
#
# 1 0.012024 -0.001279 -0.004815 0.000000 0.000000 0.000000
# 2 -0.001279 0.016268 -0.014045 0.000000 0.000000 0.000000
# 3 -0.004815 -0.014045 0.032545 0.000000 0.000000 0.000000
# 4 0.000000 0.000000 0.000000 0.382547 0.000000 0.000000
# 5 0.000000 0.000000 0.000000 0.000000 0.049086 0.000000
# 6 0.000000 0.000000 0.000000 0.000000 0.000000 0.060746
#
#
# Mechanical properties :
#
#
# Convention : Reuss Voigt Hill
#
# Bulk Modulus (GPa) = 48.64164 54.24908 51.44536
# Shear Modulus (GPa) = 8.32849 17.98953 13.15901
#
# Velocity S-wave (km/s) = 2.35851 3.46629 2.96461
# Velocity P-wave (km/s) = 6.31700 7.22863 6.78814
#
# Compressibility (1/GPa) = 0.02055852
#
# Stress axis : x y z
#
# Youngs Moduli (GPa) = 83.16501 61.46887 30.72659
#
# Poissons Ratio (x) = 0.07865 0.14794
# Poissons Ratio (y) = 0.10641 0.43157
# Poissons Ratio (z) = 0.40042 0.86335
#
# Static dielectric constant tensor:
#      x y z
#    x 2.943310 0.000000 0.000000 
#    y 0.000000 3.288990 0.000000 
#    z 0.000000 0.000000 2.746270 
# 
# 
# High freq. dielectric constant tensor:
#      x y z
#    x 1.583110 0.000000 0.000000 
#    y 0.000000 1.572140 0.000000 
#    z 0.000000 0.000000 1.527530 
# 
# From -- ./inp_files/48988.got.cif
#   From: 2010.03.12/outbox.cif.g09.slc.cpg/sg74_25_cif.got.tgz:48988.got - 2010.04.16 15:46:19.
