data_PCOD8297613
_publ_section_title
;
Structure prediction by ZEFSAII (Michael W. Deem and Ramdas Pophale) SiO2 
 PCOD8297613
Probable space group: I M M A
;
_chemical_formula_sum "Si O2"
_cell_formula_units_Z 80
_cell_length_a 25.636245
_cell_length_b 8.888519
_cell_length_c 19.784943
_cell_angle_alpha 90.000000
_cell_angle_beta 90.000000
_cell_angle_gamma 90.000000
_cell_volume 4508.360353
_symmetry_space_group_name_H-M "I M M A"
_symmetry_group_IT_number 74
_symmetry_cell_setting 'orthorhombic'
loop_
_space_group_symop_operation_xyz
x,y,z
-x,1/2-y,z
x,-y,-z
-x,1/2+y,-z
-x,-y,-z
x,1/2+y,-z
-x,y,z
x,1/2-y,z
1/2+x,1/2+y,1/2+z
1/2-x,-y,1/2+z
1/2+x,1/2-y,1/2-z
1/2-x,y,1/2-z
1/2-x,1/2-y,1/2-z
1/2+x,y,1/2-z
1/2-x,1/2+y,1/2+z
1/2+x,-y,1/2+z
loop_
_atom_site_type_symbol
_atom_site_label
_atom_site_fract_x
_atom_site_fract_y
_atom_site_fract_z
Si Si1 0.249432 0.925959 0.072618
Si Si2 0.635693 0.075590 0.927687
Si Si3 0.560648 0.077729 0.176149
Si Si4 0.557550 0.571231 0.672432
Si Si5 0.647712 0.570695 0.573947
O O1 0.236453 0.750000 0.067191
O O2 0.306564 0.954601 0.104942
O O3 0.201157 0.009879 0.109844
O O4 0.251926 0.000000 0.000000
O O5 0.627614 0.250000 0.940999
O O6 0.593052 0.021234 0.875357
O O7 0.627893 0.000000 0.000000
O O8 0.500000 0.061175 0.158080
O O9 0.578689 0.250000 0.169212
O O10 0.571463 0.016582 0.251874
O O11 0.500000 0.510852 0.651496
O O12 0.556487 0.750000 0.673158
O O13 0.599941 0.510941 0.619457
O O14 0.640688 0.500000 0.500000
O O15 0.649077 0.750000 0.569198
#
# Coordination Sequence:
#
# PCOD8297613 Si02
#       5
#    16  16  16  16  16
#     4   9  17  30  47  68  96 127 157 192 236 282
#     4  10  20  33  51  74  98 126 159 196 238 283
#     4   9  18  34  54  72  93 125 162 199 239 281
#     4   8  16  32  51  70  95 128 163 197 236 283
#     4  10  18  29  49  74  98 126 160 198 238 281
#
# _framework density 17.744810000000001
#
# number of rings (size 3 to 8) (size 9 to 14) (size 15 to 20)
#    0.000    2.800    0.000    4.200    0.000    3.600 
#    0.000    3.000    0.000   10.200    0.000    0.000 
#    0.000    0.000    0.000    0.000    0.000    0.000 
#
# Total GULP energy -495663.568133 kJ/mol
# GULP energy per Si atom -12391.589203 kJ/mol
# Density = 1.770442 g / cm^3
# Si number density = 17.744810 Si / 1000 Ang^3
#
#
#
# Elastic Constant Matrix: (Units=GPa)
#
#
# Indices 1 2 3 4 5 6 
#
# 1 129.8446 51.4205 71.7897 0.0000 0.0000 0.0000
# 2 51.4205 77.9407 36.1105 0.0000 0.0000 0.0000
# 3 71.7897 36.1105 83.0996 0.0000 0.0000 0.0000
# 4 0.0000 0.0000 0.0000 21.1929 0.0000 0.0000
# 5 0.0000 0.0000 0.0000 0.0000 2.5708 0.0000
# 6 0.0000 0.0000 0.0000 0.0000 0.0000 27.9396
#
#
#
# Elastic Compliance Matrix: (Units=1/GPa)
#
#
# Indices 1 2 3 4 5 6 
#
# 1 0.016325 -0.005304 -0.011799 0.000000 0.000000 0.000000
# 2 -0.005304 0.017788 -0.003147 0.000000 0.000000 0.000000
# 3 -0.011799 -0.003147 0.023594 0.000000 0.000000 0.000000
# 4 0.000000 0.000000 0.000000 0.047186 0.000000 0.000000
# 5 0.000000 0.000000 0.000000 0.000000 0.388988 0.000000
# 6 0.000000 0.000000 0.000000 0.000000 0.000000 0.035791
#
#
# Mechanical properties :
#
#
# Convention : Reuss Voigt Hill
#
# Bulk Modulus (GPa) = 58.11515 67.72515 62.92015
# Shear Modulus (GPa) = 8.68193 19.11160 13.89677
#
# Velocity S-wave (km/s) = 2.21434 3.28537 2.80151
# Velocity P-wave (km/s) = 6.27370 7.25538 6.78232
#
# Compressibility (1/GPa) = 0.01720722
#
# Stress axis : x y z
#
# Youngs Moduli (GPa) = 61.25455 56.21830 42.38331
#
# Poissons Ratio (x) = 0.29819 0.50006
# Poissons Ratio (y) = 0.32490 0.13340
# Poissons Ratio (z) = 0.72272 0.17694
#
# Static dielectric constant tensor:
#      x y z
#    x 4.155920 0.000000 0.000000 
#    y 0.000000 3.183650 0.000000 
#    z 0.000000 0.000000 3.091080 
# 
# 
# High freq. dielectric constant tensor:
#      x y z
#    x 1.705250 0.000000 0.000000 
#    y 0.000000 1.678480 0.000000 
#    z 0.000000 0.000000 1.656240 
# 
# From -- ./inp_files/46480.got.cif
#   From: 2010.03.12/outbox.cif.g09.slc.cpg/sg74_24_cif.got.tgz:46480.got - 2010.04.16 15:46:19.
